AV-unprocessed.smi:3164|AV-procd|sdf|12081|dock8
  -GOLD-   2272017513D 1   1.00000     0.00000
 Structure written by MMmdl.
 40 41  0  0  0  0  0  0  0  0  3 V2000
  151.8150  137.7151  153.9351 C   0  0  0  0  0  0  0  0  0  0  0  0
  150.3360  137.7738  153.9963 N   0  3  1  0  0  0  0  0  0  0  0  0
  149.7540  136.9957  155.1153 C   0  0  0  0  0  0  0  0  0  0  0  0
  149.8637  137.7611  156.4468 C   0  0  0  0  0  0  0  0  0  0  0  0
  149.2594  139.0421  156.3121 O   0  0  0  0  0  0  0  0  0  0  0  0
  149.9056  139.8506  155.3336 C   0  0  2  0  0  0  0  0  0  0  0  0
  149.2261  141.2285  155.3292 C   0  0  0  0  0  0  0  0  0  0  0  0
  149.6139  142.0266  156.5103 N   0  3  0  0  0  0  0  0  0  0  0  0
  151.0724  142.1279  156.7116 C   0  0  0  0  0  0  0  0  0  0  0  0
  151.4393  143.4138  157.4650 C   0  0  0  0  0  0  0  0  0  0  0  0
  151.9882  143.1277  158.8496 C   0  0  0  0  0  0  0  0  0  0  0  0
  151.5667  143.8830  159.9648 C   0  0  0  0  0  0  0  0  0  0  0  0
  152.1158  143.5792  161.2258 C   0  0  0  0  0  0  0  0  0  0  0  0
  153.0603  142.5391  161.3213 C   0  0  0  0  0  0  0  0  0  0  0  0
  153.4155  141.8455  160.1474 C   0  0  0  0  0  0  0  0  0  0  0  0
  152.8956  142.1292  158.9333 N   0  0  0  0  0  0  0  0  0  0  0  0
  149.7886  139.1519  153.9601 C   0  0  0  0  0  0  0  0  0  0  0  0
  152.2787  138.1724  154.8091 H   0  0  0  0  0  0  0  0  0  0  0  0
  152.1814  138.2316  153.0475 H   0  0  0  0  0  0  0  0  0  0  0  0
  152.1536  136.6803  153.8756 H   0  0  0  0  0  0  0  0  0  0  0  0
  148.7022  136.8109  154.8929 H   0  0  0  0  0  0  0  0  0  0  0  0
  150.2304  136.0172  155.1883 H   0  0  0  0  0  0  0  0  0  0  0  0
  149.3494  137.2119  157.2355 H   0  0  0  0  0  0  0  0  0  0  0  0
  150.9027  137.8648  156.7626 H   0  0  0  0  0  0  0  0  0  0  0  0
  150.9570  139.9769  155.5978 H   0  0  0  0  0  0  0  0  0  0  0  0
  149.5152  141.7772  154.4317 H   0  0  0  0  0  0  0  0  0  0  0  0
  148.1413  141.1162  155.3010 H   0  0  0  0  0  0  0  0  0  0  0  0
  149.2392  142.9593  156.4059 H   0  0  0  0  0  0  0  0  0  0  0  0
  151.4167  141.2562  157.2702 H   0  0  0  0  0  0  0  0  0  0  0  0
  151.5727  142.1090  155.7423 H   0  0  0  0  0  0  0  0  0  0  0  0
  152.1763  143.9831  156.8970 H   0  0  0  0  0  0  0  0  0  0  0  0
  150.5622  144.0559  157.5605 H   0  0  0  0  0  0  0  0  0  0  0  0
  150.8411  144.6763  159.8610 H   0  0  0  0  0  0  0  0  0  0  0  0
  151.8183  144.1338  162.1035 H   0  0  0  0  0  0  0  0  0  0  0  0
  153.5020  142.2786  162.2718 H   0  0  0  0  0  0  0  0  0  0  0  0
  154.1365  141.0423  160.1843 H   0  0  0  0  0  0  0  0  0  0  0  0
  150.2873  139.7330  153.1832 H   0  0  0  0  0  0  0  0  0  0  0  0
  148.7380  139.0902  153.6721 H   0  0  0  0  0  0  0  0  0  0  0  0
  149.2085  141.6055  157.3343 H   0  0  0  0  0  0  0  0  0  0  0  0
  150.0229  137.3230  153.1477 H   0  0  0  0  0  0  0  0  0  0  0  0
  1  2  1  0  0  0  0
  1 18  1  0  0  0  0
  1 19  1  0  0  0  0
  1 20  1  0  0  0  0
  2 17  1  0  0  0  0
  2  3  1  0  0  0  0
  2 40  1  0  0  0  0
  3  4  1  0  0  0  0
  3 21  1  0  0  0  0
  3 22  1  0  0  0  0
  4  5  1  0  0  0  0
  4 23  1  0  0  0  0
  4 24  1  0  0  0  0
  5  6  1  0  0  0  0
  6  7  1  0  0  0  0
  6 17  1  0  0  0  0
  6 25  1  0  0  0  0
  7  8  1  0  0  0  0
  7 26  1  0  0  0  0
  7 27  1  0  0  0  0
  8  9  1  0  0  0  0
  8 28  1  0  0  0  0
  8 39  1  0  0  0  0
  9 10  1  0  0  0  0
  9 29  1  0  0  0  0
  9 30  1  0  0  0  0
 10 11  1  0  0  0  0
 10 31  1  0  0  0  0
 10 32  1  0  0  0  0
 11 16  1  0  0  0  0
 11 12  2  0  0  0  0
 12 13  1  0  0  0  0
 12 33  1  0  0  0  0
 13 14  2  0  0  0  0
 13 34  1  0  0  0  0
 14 15  1  0  0  0  0
 14 35  1  0  0  0  0
 15 16  2  0  0  0  0
 15 36  1  0  0  0  0
 17 37  1  0  0  0  0
 17 38  1  0  0  0  0
M  CHG  1   2   1
M  CHG  1   8   1
M  END
> <s_m_source_file>
AV-unprocessed.smi

> <i_m_source_file_index>
3164

> <i_lp_mmshare_version>
43012

> <i_f3d_flags>
0

> <s_epik_input>
W0NIM11OMVtDSDJdW0NIMl1PW0NASF0oW0NIMl0xKVtDSDJdW05IXVtDSDJdW0NIMl1jMltjSF1bY0hdW2NIXVtjSF1uMg==

> <s_epik_cmdline>
J2VwaWtfcHl0aG9uJywgJy1waCcsICc3LjAnLCAnLXRuJywgJzgnLCAnLW1hJywgJzIwMCcsICctbWV0YWxfYmluZGluZycsICctaW1hZScsICc8aW5maWxlLm1hZT4nLCAnLW9tYWUnLCAnPG91dGZpbGUubWFlPic=

> <r_epik_Ionization_Penalty>
0.294944

> <r_epik_Ionization_Penalty_Charging>
0.29381

> <r_epik_Ionization_Penalty_Neutral>
0.00113372

> <r_epik_State_Penalty>
0.271365

> <r_epik_Charging_Adjusted_Penalty>
0.565175

> <i_epik_Tot_Q>
2

> <i_epik_Tot_abs_Q>
2

> <r_epik_Metal_State_Penalty>
0.271365

> <b_epik_Metal_Only>
0

> <s_lp_Force_Field>
OPLS_2005

> <r_lp_Energy>
22.4387

> <b_lp_Chiralities_Consistent>
1

> <s_lp_Variant>
AV-unprocessed.smi:3164-3

> <Gold.Version>
5.8.1

> <Gold.Id.Protein>
6NUR|6NUR_protein|mol2

> <Gold.PLP.Fitness>
46.5388

> <Gold.PLP.PLP>
-36.2088

> <Gold.PLP.part.hbond>
-1.9722

> <Gold.PLP.part.metal>
0.0000

> <Gold.PLP.part.buried>
-3.8014

> <Gold.PLP.part.nonpolar>
-31.0143

> <Gold.PLP.part.repulsive>
0.1105

> <Gold.PLP.ligand.clash>
0.0000

> <Gold.PLP.ligand.torsion>
0.8360

> <Gold.PLP.Chemscore.Hbond>
4.0000

> <Gold.PLP.Chemscore.CHOScore>
0.0000

> <Gold.PLP.Chemscore.Metal>
0.0000

> <Gold.Chemscore.Hbonds>
donor molecule, donor type, donor heavy atom, donor atom, acceptor molecule, acceptor atom, score
      L1  H     2    40       P1  7948  1.90
      L1  H     8    28       P1  8028  2.00

> <Gold.PLP.Chemscore.Internal.Correction>
0.0019

> <Gold.Rescore>
     Score         DG    S(hbond)    S(metal)    S(lipo)     H(rot)  DE(clash)    DE(int)     intcor
     18.67     -19.54       1.99        0.00      99.26       1.65       0.01       0.86       ----

> <Gold.Chemscore.Fitness>
18.6708

> <Gold.Chemscore.DG>
-19.5409

> <Gold.Chemscore.ZeroCoef>
-5.4800

> <Gold.Chemscore.Hbond>
1.9939

> <Gold.Chemscore.Metal>
0.0000

> <Gold.Chemscore.Lipo>
99.2610

> <Gold.Chemscore.Internal_Hbond>
0.0000

> <Gold.Chemscore.DEClash>
0.0057

> <Gold.Chemscore.DEInternal>
0.8644

> <Gold.Chemscore.Rot>
1.6454

> <Gold.Chemscore.Internal.Correction>
   9.000000E+99

> <Gold.Chemscore.Hbonds>
donor molecule, donor type, donor heavy atom, donor atom, acceptor molecule, acceptor atom, score
      L1  H     2    40       P1  7948  0.21
      L1  H     8    28       P1  8028  0.99

> <Gold.Chemscore.Hbond.Weighted>
-6.6596

> <Gold.Chemscore.Metal.Weighted>
-0.0000

> <Gold.Chemscore.Lipo.Weighted>
-11.6135

> <Gold.Chemscore.Internal_Hbond.Weighted>
0.0000

> <Gold.Chemscore.DEClash.Weighted>
0.0057

> <Gold.Chemscore.DEInternal.Weighted>
0.8644

> <Gold.Chemscore.Rot.Weighted>
4.2122

> <Gold.Chemscore.Internal.Correction.Weighted>
   9.000000E+99

> <Gold.Protein.RotatedTorsions>
[ 6907 6896 6895 6894 ] final  -26.09 input  -60.11 | X-H torsion
[ 7974 7965 7964 7962 ] final -111.25 input  175.53 | X-H torsion
[ 8008 7997 7996 7995 ] final   63.41 input   59.86 | X-H torsion
[ 10167 10162 10161 10158 ] final  -32.46 input  -65.29 | X-H torsion
[ 10718 10713 10712 10709 ] final   96.14 input   66.30 | X-H torsion
[ 10763 10752 10751 10750 ] final  178.35 input  -60.55 | X-H torsion
[ 11005 11000 10999 10996 ] final   26.63 input  -57.11 | X-H torsion

> <Gold.Protein.ActiveResidues>
 VAL166  LYS551  ARG553  GLY616  TRP617  ASP618  TYR619  PRO620  LYS621  CYS622 
 ASP623  PHE694  ASN695  SER759  ASP760  ASP761  ALA762  ILE779  LEU786  VAL792 
 PHE793  MET794  SER795  GLU796  ALA797  LYS798  CYS799  TRP800  GLU811  SER814 

> <Gold.Protein.RotatedAtoms>
  151.1659  135.0295  159.8730 H   0  0  0  0  0  0  0  0  0  0  0  0  # atno 6907 bound_to 6896
  152.5450  134.1226  159.8415 H   0  0  0  0  0  0  0  0  0  0  0  0  # atno 6908 bound_to 6896
  151.1327  133.4980  159.2631 H   0  0  0  0  0  0  0  0  0  0  0  0  # atno 6909 bound_to 6896
  145.1584  140.8865  143.3605 H   0  0  0  0  0  0  0  0  0  0  0  0  # atno 7974 bound_to 7965
  155.6297  140.3496  155.4679 H   0  0  0  0  0  0  0  0  0  0  0  0  # atno 8008 bound_to 7997
  156.0013  140.1214  157.0568 H   0  0  0  0  0  0  0  0  0  0  0  0  # atno 8009 bound_to 7997
  154.4249  140.1100  156.5686 H   0  0  0  0  0  0  0  0  0  0  0  0  # atno 8010 bound_to 7997
  140.7221  143.3693  151.1810 H   0  0  0  0  0  0  0  0  0  0  0  0  # atno 10167 bound_to 10162
  157.6930  131.0568  150.4447 H   0  0  0  0  0  0  0  0  0  0  0  0  # atno 10718 bound_to 10713
  154.5065  135.2786  155.1378 H   0  0  0  0  0  0  0  0  0  0  0  0  # atno 10763 bound_to 10752
  154.2990  135.6252  153.5420 H   0  0  0  0  0  0  0  0  0  0  0  0  # atno 10764 bound_to 10752
  152.9911  135.5692  154.5520 H   0  0  0  0  0  0  0  0  0  0  0  0  # atno 10765 bound_to 10752
  140.3349  134.2396  155.7697 H   0  0  0  0  0  0  0  0  0  0  0  0  # atno 11005 bound_to 11000
  145.0357  139.3303  143.6002 LP  0  0  0  0  0  0  0  0  0  0  0  0  # atno 17320 bound_to 7965
  146.3486  139.9711  142.8706 LP  0  0  0  0  0  0  0  0  0  0  0  0  # atno 17321 bound_to 7965
  139.7261  143.9147  152.3003 LP  0  0  0  0  0  0  0  0  0  0  0  0  # atno 17342 bound_to 10162
  139.8920  144.6960  150.8760 LP  0  0  0  0  0  0  0  0  0  0  0  0  # atno 17343 bound_to 10162
  156.4802  130.4072  149.6466 LP  0  0  0  0  0  0  0  0  0  0  0  0  # atno 17370 bound_to 10713
  156.3514  130.7434  151.2394 LP  0  0  0  0  0  0  0  0  0  0  0  0  # atno 17371 bound_to 10713
  141.2054  133.7862  157.0237 LP  0  0  0  0  0  0  0  0  0  0  0  0  # atno 17394 bound_to 11000
  140.0829  134.9638  157.1653 LP  0  0  0  0  0  0  0  0  0  0  0  0  # atno 17395 bound_to 11000

$$$$
