AV-unprocessed.smi:515|AV-procd|sdf|2782|dock9
  -GOLD-   2262023253D 1   1.00000     0.00000
 Structure written by MMmdl.
 46 48  0  0  0  0  0  0  0  0  2 V2000
  147.1153  142.0406  154.8996 C   0  0  0  0  0  0  0  0  0  0  0  0
  147.6909  141.4294  153.6201 C   0  0  0  0  0  0  0  0  0  0  0  0
  149.0929  141.2835  153.7703 O   0  0  0  0  0  0  0  0  0  0  0  0
  149.4425  140.1817  154.5908 C   0  0  0  0  0  0  0  0  0  0  0  0
  150.9698  140.1164  154.7112 C   0  0  0  0  0  0  0  0  0  0  0  0
  151.3871  139.8520  156.0843 N   0  0  0  0  0  0  0  0  0  0  0  0
  151.3401  140.7058  157.1411 C   0  0  0  0  0  0  0  0  0  0  0  0
  150.8290  142.1183  157.0221 C   0  0  0  0  0  0  0  0  0  0  0  0
  151.1701  142.9972  158.1418 N   0  0  0  0  0  0  0  0  0  0  0  0
  151.9862  144.1221  157.7004 C   0  0  0  0  0  0  0  0  0  0  0  0
  152.3573  145.0523  158.8685 C   0  0  0  0  0  0  0  0  0  0  0  0
  151.1711  145.5077  159.5118 O   0  0  0  0  0  0  0  0  0  0  0  0
  150.3616  144.4400  159.9943 C   0  0  0  0  0  0  0  0  0  0  0  0
  149.9853  143.5116  158.8271 C   0  0  0  0  0  0  0  0  0  0  0  0
  151.8252  140.1889  158.2756 N   0  0  0  0  0  0  0  0  0  0  0  0
  152.1945  138.9036  157.9121 C   0  0  0  0  0  0  0  0  0  0  0  0
  151.9494  138.6789  156.5949 C   0  0  0  0  0  0  0  0  0  0  0  0
  152.2633  137.4094  155.9034 C   0  0  0  0  0  0  0  0  0  0  0  0
  152.0438  137.2699  154.7017 O   0  0  0  0  0  0  0  0  0  0  0  0
  152.8053  136.4795  156.7523 N   0  5  0  0  0  0  0  0  0  0  0  0
  153.0630  136.6609  158.0946 C   0  0  0  0  0  0  0  0  0  0  0  0
  153.5523  135.7687  158.7890 O   0  0  0  0  0  0  0  0  0  0  0  0
  152.7722  137.8617  158.6875 N   0  0  0  0  0  0  0  0  0  0  0  0
  153.0391  138.0855  160.1112 C   0  0  0  0  0  0  0  0  0  0  0  0
  146.0350  142.1634  154.8209 H   0  0  0  0  0  0  0  0  0  0  0  0
  147.5505  143.0209  155.0944 H   0  0  0  0  0  0  0  0  0  0  0  0
  147.3181  141.4055  155.7624 H   0  0  0  0  0  0  0  0  0  0  0  0
  147.2294  140.4590  153.4308 H   0  0  0  0  0  0  0  0  0  0  0  0
  147.4687  142.0734  152.7679 H   0  0  0  0  0  0  0  0  0  0  0  0
  148.9913  140.2906  155.5782 H   0  0  0  0  0  0  0  0  0  0  0  0
  149.0611  139.2573  154.1539 H   0  0  0  0  0  0  0  0  0  0  0  0
  151.3635  139.3481  154.0489 H   0  0  0  0  0  0  0  0  0  0  0  0
  151.4241  141.0450  154.3684 H   0  0  0  0  0  0  0  0  0  0  0  0
  151.2411  142.5280  156.0992 H   0  0  0  0  0  0  0  0  0  0  0  0
  149.7465  142.1081  156.9011 H   0  0  0  0  0  0  0  0  0  0  0  0
  152.8985  143.7552  157.2289 H   0  0  0  0  0  0  0  0  0  0  0  0
  151.4502  144.6930  156.9406 H   0  0  0  0  0  0  0  0  0  0  0  0
  152.9929  144.5339  159.5881 H   0  0  0  0  0  0  0  0  0  0  0  0
  152.9200  145.9123  158.5051 H   0  0  0  0  0  0  0  0  0  0  0  0
  150.8972  143.8883  160.7683 H   0  0  0  0  0  0  0  0  0  0  0  0
  149.4646  144.8519  160.4563 H   0  0  0  0  0  0  0  0  0  0  0  0
  149.3578  144.0579  158.1215 H   0  0  0  0  0  0  0  0  0  0  0  0
  149.3782  142.6913  159.2089 H   0  0  0  0  0  0  0  0  0  0  0  0
  152.4620  137.3888  160.7209 H   0  0  0  0  0  0  0  0  0  0  0  0
  152.7802  139.0937  160.4342 H   0  0  0  0  0  0  0  0  0  0  0  0
  154.0973  137.9363  160.3304 H   0  0  0  0  0  0  0  0  0  0  0  0
  1  2  1  0  0  0  0
  1 25  1  0  0  0  0
  1 26  1  0  0  0  0
  1 27  1  0  0  0  0
  2  3  1  0  0  0  0
  2 28  1  0  0  0  0
  2 29  1  0  0  0  0
  3  4  1  0  0  0  0
  4  5  1  0  0  0  0
  4 30  1  0  0  0  0
  4 31  1  0  0  0  0
  5  6  1  0  0  0  0
  5 32  1  0  0  0  0
  5 33  1  0  0  0  0
  6 17  1  0  0  0  0
  6  7  1  0  0  0  0
  7  8  1  0  0  0  0
  7 15  2  0  0  0  0
  8  9  1  0  0  0  0
  8 34  1  0  0  0  0
  8 35  1  0  0  0  0
  9 14  1  0  0  0  0
  9 10  1  0  0  0  0
 10 11  1  0  0  0  0
 10 36  1  0  0  0  0
 10 37  1  0  0  0  0
 11 12  1  0  0  0  0
 11 38  1  0  0  0  0
 11 39  1  0  0  0  0
 12 13  1  0  0  0  0
 13 14  1  0  0  0  0
 13 40  1  0  0  0  0
 13 41  1  0  0  0  0
 14 42  1  0  0  0  0
 14 43  1  0  0  0  0
 15 16  1  0  0  0  0
 16 23  1  0  0  0  0
 16 17  2  0  0  0  0
 17 18  1  0  0  0  0
 18 19  2  0  0  0  0
 18 20  1  0  0  0  0
 20 21  1  0  0  0  0
 21 22  2  0  0  0  0
 21 23  1  0  0  0  0
 23 24  1  0  0  0  0
 24 44  1  0  0  0  0
 24 45  1  0  0  0  0
 24 46  1  0  0  0  0
M  CHG  1  20  -1
M  END
> <s_m_source_file>
AV-unprocessed.smi

> <i_m_source_file_index>
515

> <i_lp_mmshare_version>
43012

> <i_f3d_flags>
0

> <s_epik_input>
W0NIM11uMWMoPU8pW25IXWMoPU8pYyhjMTIpbihbQ0gyXVtDSDJdT1tDSDJdW0NIM10pYyhuMilbQ0gyXU4zW0NIMl1bQ0gyXU9bQ0gyXVtDSDJdMw==

> <s_epik_cmdline>
J2VwaWtfcHl0aG9uJywgJy1waCcsICc3LjAnLCAnLXRuJywgJzgnLCAnLW1hJywgJzIwMCcsICctbWV0YWxfYmluZGluZycsICctaW1hZScsICc8aW5maWxlLm1hZT4nLCAnLW9tYWUnLCAnPG91dGZpbGUubWFlPic=

> <r_epik_Ionization_Penalty>
4.8833

> <r_epik_Ionization_Penalty_Charging>
0.035962

> <r_epik_Ionization_Penalty_Neutral>
4.84734

> <r_epik_State_Penalty>
4.83718

> <r_epik_Charging_Adjusted_Penalty>
4.87314

> <i_epik_Tot_Q>
-1

> <i_epik_Tot_abs_Q>
1

> <r_epik_Metal_State_Penalty>
1.06056

> <b_epik_Metal_Only>
1

> <s_lp_Force_Field>
OPLS_2005

> <r_lp_Energy>
45.1348

> <b_lp_Chiralities_Consistent>
1

> <s_lp_Variant>
AV-unprocessed.smi:515-3

> <Gold.Version>
5.8.1

> <Gold.Id.Protein>
6NUR|6NUR_protein|mol2

> <Gold.PLP.Fitness>
49.4441

> <Gold.PLP.PLP>
-41.0613

> <Gold.PLP.part.hbond>
-5.4276

> <Gold.PLP.part.metal>
0.0000

> <Gold.PLP.part.buried>
-4.0598

> <Gold.PLP.part.nonpolar>
-34.4107

> <Gold.PLP.part.repulsive>
1.6001

> <Gold.PLP.ligand.clash>
0.0000

> <Gold.PLP.ligand.torsion>
1.4227

> <Gold.PLP.Chemscore.Hbond>
3.7288

> <Gold.PLP.Chemscore.CHOScore>
0.0000

> <Gold.PLP.Chemscore.Metal>
0.0000

> <Gold.Chemscore.Hbonds>
donor molecule, donor type, donor heavy atom, donor atom, acceptor molecule, acceptor atom, score
      P1  H  6896  6908       L1    22  0.77
      P1  H  8011  8017       L1     3  0.85
      P1  H 10752 10763       L1    20  1.55
      P1  H 10752 10765       L1    19  0.50

> <Gold.PLP.Chemscore.Internal.Correction>
0.0418

> <Gold.Rescore>
     Score         DG    S(hbond)    S(metal)    S(lipo)     H(rot)  DE(clash)    DE(int)     intcor
     12.86     -16.00       1.63        0.00      89.41       2.10       1.69       1.46       ----

> <Gold.Chemscore.Fitness>
12.8559

> <Gold.Chemscore.DG>
-16.0016

> <Gold.Chemscore.ZeroCoef>
-5.4800

> <Gold.Chemscore.Hbond>
1.6270

> <Gold.Chemscore.Metal>
0.0000

> <Gold.Chemscore.Lipo>
89.4104

> <Gold.Chemscore.Internal_Hbond>
0.0000

> <Gold.Chemscore.DEClash>
1.6903

> <Gold.Chemscore.DEInternal>
1.4554

> <Gold.Chemscore.Rot>
2.0991

> <Gold.Chemscore.Internal.Correction>
   9.000000E+99

> <Gold.Chemscore.Hbonds>
donor molecule, donor type, donor heavy atom, donor atom, acceptor molecule, acceptor atom, score
      P1  H  6896  6908       L1    22  0.76
      P1  H  8011  8017       L1     3  0.29
      P1  H 10752 10763       L1    20  0.16
      P1  H 10752 10765       L1    19  0.39

> <Gold.Chemscore.Hbond.Weighted>
-5.4343

> <Gold.Chemscore.Metal.Weighted>
-0.0000

> <Gold.Chemscore.Lipo.Weighted>
-10.4610

> <Gold.Chemscore.Internal_Hbond.Weighted>
0.0000

> <Gold.Chemscore.DEClash.Weighted>
1.6903

> <Gold.Chemscore.DEInternal.Weighted>
1.4554

> <Gold.Chemscore.Rot.Weighted>
5.3737

> <Gold.Chemscore.Internal.Correction.Weighted>
   9.000000E+99

> <Gold.Protein.RotatedTorsions>
[ 6907 6896 6895 6894 ] final  -58.14 input  -60.11 | X-H torsion
[ 7974 7965 7964 7962 ] final   21.13 input  175.53 | X-H torsion
[ 8008 7997 7996 7995 ] final -169.82 input   59.86 | X-H torsion
[ 10167 10162 10161 10158 ] final   -8.74 input  -65.29 | X-H torsion
[ 10718 10713 10712 10709 ] final  173.34 input   66.30 | X-H torsion
[ 10763 10752 10751 10750 ] final  134.39 input  -60.55 | X-H torsion
[ 11005 11000 10999 10996 ] final  -27.79 input  -57.11 | X-H torsion

> <Gold.Protein.ActiveResidues>
 VAL166  LYS551  ARG553  GLY616  TRP617  ASP618  TYR619  PRO620  LYS621  CYS622 
 ASP623  PHE694  ASN695  SER759  ASP760  ASP761  ALA762  ILE779  LEU786  VAL792 
 PHE793  MET794  SER795  GLU796  ALA797  LYS798  CYS799  TRP800  GLU811  SER814 

> <Gold.Protein.RotatedAtoms>
  150.8030  134.7137  159.6617 H   0  0  0  0  0  0  0  0  0  0  0  0  # atno 6907 bound_to 6896
  152.4148  134.6057  160.0022 H   0  0  0  0  0  0  0  0  0  0  0  0  # atno 6908 bound_to 6896
  151.6290  133.3296  159.3140 H   0  0  0  0  0  0  0  0  0  0  0  0  # atno 6909 bound_to 6896
  146.2083  139.8070  142.8708 H   0  0  0  0  0  0  0  0  0  0  0  0  # atno 7974 bound_to 7965
  155.9101  140.1056  157.1286 H   0  0  0  0  0  0  0  0  0  0  0  0  # atno 8008 bound_to 7997
  154.4038  140.1276  156.4610 H   0  0  0  0  0  0  0  0  0  0  0  0  # atno 8009 bound_to 7997
  155.7321  140.3468  155.5066 H   0  0  0  0  0  0  0  0  0  0  0  0  # atno 8010 bound_to 7997
  140.7068  143.5935  150.8869 H   0  0  0  0  0  0  0  0  0  0  0  0  # atno 10167 bound_to 10162
  156.9657  131.0074  151.2917 H   0  0  0  0  0  0  0  0  0  0  0  0  # atno 10718 bound_to 10713
  153.8227  135.3114  155.3411 H   0  0  0  0  0  0  0  0  0  0  0  0  # atno 10763 bound_to 10752
  154.8006  135.4729  154.0269 H   0  0  0  0  0  0  0  0  0  0  0  0  # atno 10764 bound_to 10752
  153.1683  135.6873  153.8733 H   0  0  0  0  0  0  0  0  0  0  0  0  # atno 10765 bound_to 10752
  140.9151  133.7435  156.0723 H   0  0  0  0  0  0  0  0  0  0  0  0  # atno 11005 bound_to 11000
  145.3236  141.0250  143.3486 LP  0  0  0  0  0  0  0  0  0  0  0  0  # atno 17320 bound_to 7965
  144.8849  139.4853  143.6705 LP  0  0  0  0  0  0  0  0  0  0  0  0  # atno 17321 bound_to 7965
  139.9660  143.6110  152.2988 LP  0  0  0  0  0  0  0  0  0  0  0  0  # atno 17342 bound_to 10162
  139.6679  144.7662  151.1837 LP  0  0  0  0  0  0  0  0  0  0  0  0  # atno 17343 bound_to 10162
  157.5627  130.8257  149.8287 LP  0  0  0  0  0  0  0  0  0  0  0  0  # atno 17370 bound_to 10713
  156.0304  130.3766  150.1705 LP  0  0  0  0  0  0  0  0  0  0  0  0  # atno 17371 bound_to 10713
  140.8061  134.3453  157.5425 LP  0  0  0  0  0  0  0  0  0  0  0  0  # atno 17394 bound_to 11000
  139.8764  134.9226  156.3305 LP  0  0  0  0  0  0  0  0  0  0  0  0  # atno 17395 bound_to 11000

$$$$
