AV-unprocessed.smi:2278|AV-procd|sdf|9179|dock3
  -GOLD-   2272012393D 1   1.00000     0.00000
 Structure written by MMmdl.
 46 47  0  0  0  0  0  0  0  0  2 V2000
  151.5443  141.2886  156.8152 C   0  0  0  0  0  0  0  0  0  0  0  0
  150.2688  141.0028  156.0428 C   0  0  0  0  0  0  0  0  0  0  0  0
  150.4287  140.2758  154.8598 N   0  0  0  0  0  0  0  0  0  0  0  0
  149.3964  139.9808  154.1400 C   0  0  0  0  0  0  0  0  0  0  0  0
  148.0987  140.3685  154.5140 N   0  0  0  0  0  0  0  0  0  0  0  0
  147.0124  139.9501  153.6098 C   0  0  0  0  0  0  0  0  0  0  0  0
  147.2059  138.5159  153.0666 C   0  0  2  0  0  0  0  0  0  0  0  0
  147.7037  138.6205  151.7478 O   0  0  0  0  0  0  0  0  0  0  0  0
  145.9037  137.6861  153.0312 C   0  0  0  0  0  0  0  0  0  0  0  0
  146.1256  136.2911  152.5732 N   0  3  2  0  0  0  0  0  0  0  0  0
  145.3868  135.9870  151.3208 C   0  0  0  0  0  0  0  0  0  0  0  0
  145.7417  134.5873  150.7917 C   0  0  0  0  0  0  0  0  0  0  0  0
  145.4700  133.5041  151.8489 C   0  0  1  0  0  0  0  0  0  0  0  0
  145.8518  132.1063  151.3419 C   0  0  0  0  0  0  0  0  0  0  0  0
  146.2159  133.8632  153.1449 C   0  0  0  0  0  0  0  0  0  0  0  0
  145.8512  135.2774  153.6264 C   0  0  0  0  0  0  0  0  0  0  0  0
  147.8560  141.0899  155.6471 C   0  0  0  0  0  0  0  0  0  0  0  0
  146.7148  141.4275  155.9677 O   0  0  0  0  0  0  0  0  0  0  0  0
  149.0403  141.4156  156.4581 C   0  0  0  0  0  0  0  0  0  0  0  0
  148.8045  142.2041  157.7405 C   0  0  0  0  0  0  0  0  0  0  0  0
  151.6907  142.3631  156.9286 H   0  0  0  0  0  0  0  0  0  0  0  0
  152.4187  140.8858  156.3020 H   0  0  0  0  0  0  0  0  0  0  0  0
  151.5001  140.8358  157.8060 H   0  0  0  0  0  0  0  0  0  0  0  0
  149.4662  139.4143  153.2095 H   0  0  0  0  0  0  0  0  0  0  0  0
  146.0379  140.0340  154.0944 H   0  0  0  0  0  0  0  0  0  0  0  0
  146.9562  140.6506  152.7737 H   0  0  0  0  0  0  0  0  0  0  0  0
  147.9665  138.0137  153.6633 H   0  0  0  0  0  0  0  0  0  0  0  0
  148.4657  139.1802  151.7545 H   0  0  0  0  0  0  0  0  0  0  0  0
  145.4303  137.6528  154.0122 H   0  0  0  0  0  0  0  0  0  0  0  0
  145.1952  138.1879  152.3700 H   0  0  0  0  0  0  0  0  0  0  0  0
  144.3132  136.0616  151.5023 H   0  0  0  0  0  0  0  0  0  0  0  0
  145.6322  136.7275  150.5585 H   0  0  0  0  0  0  0  0  0  0  0  0
  145.1663  134.3807  149.8885 H   0  0  0  0  0  0  0  0  0  0  0  0
  146.7929  134.5649  150.4995 H   0  0  0  0  0  0  0  0  0  0  0  0
  144.4001  133.4985  152.0629 H   0  0  0  0  0  0  0  0  0  0  0  0
  146.9145  132.0458  151.1051 H   0  0  0  0  0  0  0  0  0  0  0  0
  145.2950  131.8507  150.4399 H   0  0  0  0  0  0  0  0  0  0  0  0
  145.6336  131.3437  152.0899 H   0  0  0  0  0  0  0  0  0  0  0  0
  145.9780  133.1390  153.9249 H   0  0  0  0  0  0  0  0  0  0  0  0
  147.2932  133.8004  152.9838 H   0  0  0  0  0  0  0  0  0  0  0  0
  146.4208  135.5000  154.5279 H   0  0  0  0  0  0  0  0  0  0  0  0
  144.7967  135.3165  153.9046 H   0  0  0  0  0  0  0  0  0  0  0  0
  148.1377  141.6521  158.4035 H   0  0  0  0  0  0  0  0  0  0  0  0
  148.3380  143.1628  157.5123 H   0  0  0  0  0  0  0  0  0  0  0  0
  149.7193  142.4088  158.2939 H   0  0  0  0  0  0  0  0  0  0  0  0
  147.1073  136.2248  152.3431 H   0  0  0  0  0  0  0  0  0  0  0  0
  1  2  1  0  0  0  0
  1 21  1  0  0  0  0
  1 22  1  0  0  0  0
  1 23  1  0  0  0  0
  2 19  2  0  0  0  0
  2  3  1  0  0  0  0
  3  4  2  0  0  0  0
  4  5  1  0  0  0  0
  4 24  1  0  0  0  0
  5  6  1  0  0  0  0
  5 17  1  0  0  0  0
  6  7  1  0  0  0  0
  6 25  1  0  0  0  0
  6 26  1  0  0  0  0
  7  8  1  0  0  0  0
  7  9  1  0  0  0  0
  7 27  1  0  0  0  0
  8 28  1  0  0  0  0
  9 10  1  0  0  0  0
  9 29  1  0  0  0  0
  9 30  1  0  0  0  0
 10 16  1  0  0  0  0
 10 11  1  0  0  0  0
 10 46  1  0  0  0  0
 11 12  1  0  0  0  0
 11 31  1  0  0  0  0
 11 32  1  0  0  0  0
 12 13  1  0  0  0  0
 12 33  1  0  0  0  0
 12 34  1  0  0  0  0
 13 14  1  0  0  0  0
 13 15  1  0  0  0  0
 13 35  1  0  0  0  0
 14 36  1  0  0  0  0
 14 37  1  0  0  0  0
 14 38  1  0  0  0  0
 15 16  1  0  0  0  0
 15 39  1  0  0  0  0
 15 40  1  0  0  0  0
 16 41  1  0  0  0  0
 16 42  1  0  0  0  0
 17 18  2  0  0  0  0
 17 19  1  0  0  0  0
 19 20  1  0  0  0  0
 20 43  1  0  0  0  0
 20 44  1  0  0  0  0
 20 45  1  0  0  0  0
M  CHG  1  10   1
M  END
> <s_m_source_file>
AV-unprocessed.smi

> <i_m_source_file_index>
2278

> <i_lp_mmshare_version>
43012

> <i_f3d_flags>
0

> <s_epik_input>
W0NIM11jMW5bY0hdbihjKD1PKWMxW0NIM10pW0NIMl1bQ0BIXShbT0hdKVtDSDJdTjJbQ0gyXVtDSDJdW0NIXShbQ0gzXSlbQ0gyXVtDSDJdMg==

> <s_epik_cmdline>
J2VwaWtfcHl0aG9uJywgJy1waCcsICc3LjAnLCAnLXRuJywgJzgnLCAnLW1hJywgJzIwMCcsICctbWV0YWxfYmluZGluZycsICctaW1hZScsICc8aW5maWxlLm1hZT4nLCAnLW9tYWUnLCAnPG91dGZpbGUubWFlPic=

> <r_lp_tautomer_probability>
1

> <r_epik_Ionization_Penalty>
0.00139489

> <r_epik_Ionization_Penalty_Charging>
0.00136819

> <r_epik_Ionization_Penalty_Neutral>
2.66975e-05

> <r_epik_State_Penalty>
0.000910892

> <r_epik_Charging_Adjusted_Penalty>
0.00227908

> <i_epik_Tot_Q>
1

> <i_epik_Tot_abs_Q>
1

> <r_epik_Metal_State_Penalty>
-0

> <b_epik_Metal_Only>
0

> <s_lp_Force_Field>
OPLS_2005

> <r_lp_Energy>
28.1947

> <b_lp_Chiralities_Consistent>
1

> <s_lp_Variant>
AV-unprocessed.smi:2278-1

> <Gold.Version>
5.8.1

> <Gold.Id.Protein>
6NUR|6NUR_protein|mol2

> <Gold.PLP.Fitness>
43.4493

> <Gold.PLP.PLP>
-30.0860

> <Gold.PLP.part.hbond>
-4.6278

> <Gold.PLP.part.metal>
0.0000

> <Gold.PLP.part.buried>
-1.8431

> <Gold.PLP.part.nonpolar>
-23.2908

> <Gold.PLP.part.repulsive>
0.1642

> <Gold.PLP.ligand.clash>
0.0000

> <Gold.PLP.ligand.torsion>
1.6130

> <Gold.PLP.Chemscore.Hbond>
4.4975

> <Gold.PLP.Chemscore.CHOScore>
1.0000

> <Gold.PLP.Chemscore.Metal>
0.0000

> <Gold.Chemscore.Hbonds>
donor molecule, donor type, donor heavy atom, donor atom, acceptor molecule, acceptor atom, score
      L1  H     8    28       P1  7957  0.98
      L1  H    10    46       P1  7948  2.00
      P1  H  7954  7966       L1     8  0.50
      P1  H  7989  7998       L1     3  1.00
      L1  C     4    24       P1  7957  1.00

> <Gold.PLP.Chemscore.Internal.Correction>
0.0969

> <Gold.Rescore>
     Score         DG    S(hbond)    S(metal)    S(lipo)     H(rot)  DE(clash)    DE(int)     intcor
     13.55     -15.66       2.36        0.00      67.85       2.20       0.51       1.60       ----

> <Gold.Chemscore.Fitness>
13.5480

> <Gold.Chemscore.DG>
-15.6594

> <Gold.Chemscore.ZeroCoef>
-5.4800

> <Gold.Chemscore.Hbond>
2.3560

> <Gold.Chemscore.Metal>
0.0000

> <Gold.Chemscore.Lipo>
67.8546

> <Gold.Chemscore.Internal_Hbond>
0.0000

> <Gold.Chemscore.DEClash>
0.5099

> <Gold.Chemscore.DEInternal>
1.6015

> <Gold.Chemscore.Rot>
2.1986

> <Gold.Chemscore.Internal.Correction>
   9.000000E+99

> <Gold.Chemscore.Hbonds>
donor molecule, donor type, donor heavy atom, donor atom, acceptor molecule, acceptor atom, score
      L1  H     8    28       P1  7957  0.86
      L1  H    10    46       P1  7948  1.00
      P1  H  7954  7966       L1     8  0.03
      P1  H  7989  7998       L1     3  0.25

> <Gold.Chemscore.Hbond.Weighted>
-7.8689

> <Gold.Chemscore.Metal.Weighted>
-0.0000

> <Gold.Chemscore.Lipo.Weighted>
-7.9390

> <Gold.Chemscore.Internal_Hbond.Weighted>
0.0000

> <Gold.Chemscore.DEClash.Weighted>
0.5099

> <Gold.Chemscore.DEInternal.Weighted>
1.6015

> <Gold.Chemscore.Rot.Weighted>
5.6285

> <Gold.Chemscore.Internal.Correction.Weighted>
   9.000000E+99

> <Gold.Protein.RotatedTorsions>
[ 6907 6896 6895 6894 ] final  -33.81 input  -60.11 | X-H torsion
[ 7974 7965 7964 7962 ] final   65.37 input  175.53 | X-H torsion
[ 8008 7997 7996 7995 ] final  140.58 input   59.86 | X-H torsion
[ 10167 10162 10161 10158 ] final -166.52 input  -65.29 | X-H torsion
[ 10718 10713 10712 10709 ] final   42.82 input   66.30 | X-H torsion
[ 10763 10752 10751 10750 ] final -108.01 input  -60.55 | X-H torsion
[ 11005 11000 10999 10996 ] final  155.41 input  -57.11 | X-H torsion

> <Gold.Protein.ActiveResidues>
 VAL166  LYS551  ARG553  GLY616  TRP617  ASP618  TYR619  PRO620  LYS621  CYS622 
 ASP623  PHE694  ASN695  SER759  ASP760  ASP761  ALA762  ILE779  LEU786  VAL792 
 PHE793  MET794  SER795  GLU796  ALA797  LYS798  CYS799  TRP800  GLU811  SER814 

> <Gold.Protein.RotatedAtoms>
  151.0608  134.9735  159.8258 H   0  0  0  0  0  0  0  0  0  0  0  0  # atno 6907 bound_to 6896
  152.5395  134.2420  159.8876 H   0  0  0  0  0  0  0  0  0  0  0  0  # atno 6908 bound_to 6896
  151.2440  133.4341  159.2642 H   0  0  0  0  0  0  0  0  0  0  0  0  # atno 6909 bound_to 6896
  145.8393  139.3185  143.0941 H   0  0  0  0  0  0  0  0  0  0  0  0  # atno 7974 bound_to 7965
  156.2977  140.2337  156.4425 H   0  0  0  0  0  0  0  0  0  0  0  0  # atno 8008 bound_to 7997
  154.8173  140.0440  157.1406 H   0  0  0  0  0  0  0  0  0  0  0  0  # atno 8009 bound_to 7997
  154.9355  140.3022  155.5150 H   0  0  0  0  0  0  0  0  0  0  0  0  # atno 8010 bound_to 7997
  139.6110  144.0816  152.1841 H   0  0  0  0  0  0  0  0  0  0  0  0  # atno 10167 bound_to 10162
  157.4091  130.7904  149.7415 H   0  0  0  0  0  0  0  0  0  0  0  0  # atno 10718 bound_to 10713
  154.8110  135.4653  154.0516 H   0  0  0  0  0  0  0  0  0  0  0  0  # atno 10763 bound_to 10752
  153.1947  135.6860  153.8314 H   0  0  0  0  0  0  0  0  0  0  0  0  # atno 10764 bound_to 10752
  153.7820  135.3255  155.3344 H   0  0  0  0  0  0  0  0  0  0  0  0  # atno 10765 bound_to 10752
  140.1579  134.8630  157.2537 H   0  0  0  0  0  0  0  0  0  0  0  0  # atno 11005 bound_to 11000
  145.9483  140.8928  143.0272 LP  0  0  0  0  0  0  0  0  0  0  0  0  # atno 17320 bound_to 7965
  144.6734  140.1645  143.7419 LP  0  0  0  0  0  0  0  0  0  0  0  0  # atno 17321 bound_to 7965
  140.0434  144.5989  150.7393 LP  0  0  0  0  0  0  0  0  0  0  0  0  # atno 17342 bound_to 10162
  140.7318  143.2699  151.3922 LP  0  0  0  0  0  0  0  0  0  0  0  0  # atno 17343 bound_to 10162
  155.9845  130.3991  150.3307 LP  0  0  0  0  0  0  0  0  0  0  0  0  # atno 17370 bound_to 10713
  157.1443  131.0304  151.2913 LP  0  0  0  0  0  0  0  0  0  0  0  0  # atno 17371 bound_to 10713
  140.2525  134.3666  155.7436 LP  0  0  0  0  0  0  0  0  0  0  0  0  # atno 17394 bound_to 11000
  141.2206  133.7325  156.8958 LP  0  0  0  0  0  0  0  0  0  0  0  0  # atno 17395 bound_to 11000

$$$$
