AV-unprocessed.smi:1966|AV-procd|sdf|7949|dock4
  -GOLD-   2272010113D 1   1.00000     0.00000
 Structure written by MMmdl.
 53 54  0  0  0  0  0  0  0  0  1 V2000
  158.5438  135.8420  156.0479 C   0  0  0  0  0  0  0  0  0  0  0  0
  157.2919  135.3712  156.7793 C   0  0  0  0  0  0  0  0  0  0  0  0
  156.1877  135.4756  156.2459 O   0  0  0  0  0  0  0  0  0  0  0  0
  157.4786  134.8546  158.0044 N   0  0  0  0  0  0  0  0  0  0  0  0
  156.4226  134.3326  158.8750 C   0  0  1  0  0  0  0  0  0  0  0  0
  155.3752  135.4405  159.1019 C   0  0  0  0  0  0  0  0  0  0  0  0
  154.1753  135.1646  159.0749 O   0  0  0  0  0  0  0  0  0  0  0  0
  155.8736  136.6643  159.3580 N   0  0  0  0  0  0  0  0  0  0  0  0
  155.1782  137.8774  159.6123 C   0  0  0  0  0  0  0  0  0  0  0  0
  155.8639  138.8963  160.3015 C   0  0  0  0  0  0  0  0  0  0  0  0
  155.2114  140.1172  160.5560 C   0  0  0  0  0  0  0  0  0  0  0  0
  153.8827  140.2962  160.1049 C   0  0  0  0  0  0  0  0  0  0  0  0
  153.2086  141.5127  160.3484 N   0  0  0  0  0  0  0  0  0  0  0  0
  153.4736  142.1288  161.6454 C   0  0  0  0  0  0  0  0  0  0  0  0
  152.4664  143.2619  161.9205 C   0  0  1  0  0  0  0  0  0  0  0  0
  152.7904  144.0167  163.2137 C   0  0  0  0  0  0  0  0  0  0  0  0
  152.4966  144.1921  160.8415 O   0  0  0  0  0  0  0  0  0  0  0  0
  152.1246  143.5978  159.6012 C   0  0  1  0  0  0  0  0  0  0  0  0
  152.0929  144.6951  158.5324 C   0  0  0  0  0  0  0  0  0  0  0  0
  153.1280  142.4814  159.2569 C   0  0  0  0  0  0  0  0  0  0  0  0
  153.2251  139.3182  159.4351 N   0  0  0  0  0  0  0  0  0  0  0  0
  153.8545  138.1490  159.1919 C   0  0  0  0  0  0  0  0  0  0  0  0
  155.7611  133.1025  158.1854 C   0  0  0  0  0  0  0  0  0  0  0  0
  154.6785  132.4310  159.0563 C   0  0  0  0  0  0  0  0  0  0  0  0
  156.8049  132.0444  157.7767 C   0  0  0  0  0  0  0  0  0  0  0  0
  159.2522  135.0206  155.9362 H   0  0  0  0  0  0  0  0  0  0  0  0
  159.0290  136.6454  156.6029 H   0  0  0  0  0  0  0  0  0  0  0  0
  158.2945  136.2151  155.0538 H   0  0  0  0  0  0  0  0  0  0  0  0
  158.4231  134.8020  158.3571 H   0  0  0  0  0  0  0  0  0  0  0  0
  156.8539  134.0227  159.8295 H   0  0  0  0  0  0  0  0  0  0  0  0
  156.8795  136.7226  159.4217 H   0  0  0  0  0  0  0  0  0  0  0  0
  156.8788  138.7456  160.6395 H   0  0  0  0  0  0  0  0  0  0  0  0
  155.7294  140.8913  161.1019 H   0  0  0  0  0  0  0  0  0  0  0  0
  153.4188  141.4011  162.4537 H   0  0  0  0  0  0  0  0  0  0  0  0
  154.4910  142.5226  161.6427 H   0  0  0  0  0  0  0  0  0  0  0  0
  151.4607  142.8461  162.0048 H   0  0  0  0  0  0  0  0  0  0  0  0
  152.7639  143.3485  164.0746 H   0  0  0  0  0  0  0  0  0  0  0  0
  152.0693  144.8152  163.3896 H   0  0  0  0  0  0  0  0  0  0  0  0
  153.7824  144.4674  163.1693 H   0  0  0  0  0  0  0  0  0  0  0  0
  151.1223  143.1750  159.6932 H   0  0  0  0  0  0  0  0  0  0  0  0
  151.8054  144.2892  157.5623 H   0  0  0  0  0  0  0  0  0  0  0  0
  153.0694  145.1676  158.4229 H   0  0  0  0  0  0  0  0  0  0  0  0
  151.3742  145.4723  158.7942 H   0  0  0  0  0  0  0  0  0  0  0  0
  154.1173  142.9059  159.0800 H   0  0  0  0  0  0  0  0  0  0  0  0
  152.8162  141.9847  158.3371 H   0  0  0  0  0  0  0  0  0  0  0  0
  153.2718  137.4367  158.6299 H   0  0  0  0  0  0  0  0  0  0  0  0
  155.2737  133.4395  157.2686 H   0  0  0  0  0  0  0  0  0  0  0  0
  155.0867  132.1126  160.0160 H   0  0  0  0  0  0  0  0  0  0  0  0
  154.2694  131.5489  158.5628 H   0  0  0  0  0  0  0  0  0  0  0  0
  153.8379  133.0958  159.2549 H   0  0  0  0  0  0  0  0  0  0  0  0
  157.3612  131.6853  158.6430 H   0  0  0  0  0  0  0  0  0  0  0  0
  157.5247  132.4358  157.0578 H   0  0  0  0  0  0  0  0  0  0  0  0
  156.3279  131.1826  157.3093 H   0  0  0  0  0  0  0  0  0  0  0  0
  1  2  1  0  0  0  0
  1 26  1  0  0  0  0
  1 27  1  0  0  0  0
  1 28  1  0  0  0  0
  2  3  2  0  0  0  0
  2  4  1  0  0  0  0
  4  5  1  0  0  0  0
  4 29  1  0  0  0  0
  5  6  1  0  0  0  0
  5 23  1  0  0  0  0
  5 30  1  0  0  0  0
  6  7  2  0  0  0  0
  6  8  1  0  0  0  0
  8  9  1  0  0  0  0
  8 31  1  0  0  0  0
  9 22  1  0  0  0  0
  9 10  2  0  0  0  0
 10 11  1  0  0  0  0
 10 32  1  0  0  0  0
 11 12  2  0  0  0  0
 11 33  1  0  0  0  0
 12 13  1  0  0  0  0
 12 21  1  0  0  0  0
 13 20  1  0  0  0  0
 13 14  1  0  0  0  0
 14 15  1  0  0  0  0
 14 34  1  0  0  0  0
 14 35  1  0  0  0  0
 15 16  1  0  0  0  0
 15 17  1  0  0  0  0
 15 36  1  0  0  0  0
 16 37  1  0  0  0  0
 16 38  1  0  0  0  0
 16 39  1  0  0  0  0
 17 18  1  0  0  0  0
 18 19  1  0  0  0  0
 18 20  1  0  0  0  0
 18 40  1  0  0  0  0
 19 41  1  0  0  0  0
 19 42  1  0  0  0  0
 19 43  1  0  0  0  0
 20 44  1  0  0  0  0
 20 45  1  0  0  0  0
 21 22  2  0  0  0  0
 22 46  1  0  0  0  0
 23 24  1  0  0  0  0
 23 25  1  0  0  0  0
 23 47  1  0  0  0  0
 24 48  1  0  0  0  0
 24 49  1  0  0  0  0
 24 50  1  0  0  0  0
 25 51  1  0  0  0  0
 25 52  1  0  0  0  0
 25 53  1  0  0  0  0
M  END
> <s_m_source_file>
AV-unprocessed.smi

> <i_m_source_file_index>
1966

> <i_lp_mmshare_version>
43012

> <i_f3d_flags>
0

> <s_epik_input>
W0NIM11DKD1PKVtOSF1bQ0BASF0oW0NIXShbQ0gzXSlbQ0gzXSlDKD1PKVtOSF1jMVtjSF1bY0hdYyhuW2NIXTEpTjJbQ0gyXVtDQEBIXShbQ0gzXSlPW0NAQEhdKFtDSDNdKVtDSDJdMg==

> <s_epik_cmdline>
J2VwaWtfcHl0aG9uJywgJy1waCcsICc3LjAnLCAnLXRuJywgJzgnLCAnLW1hJywgJzIwMCcsICctbWV0YWxfYmluZGluZycsICctaW1hZScsICc8aW5maWxlLm1hZT4nLCAnLW9tYWUnLCAnPG91dGZpbGUubWFlPic=

> <r_lp_tautomer_probability>
1

> <r_epik_Ionization_Penalty>
0.000679699

> <r_epik_Ionization_Penalty_Charging>
0

> <r_epik_Ionization_Penalty_Neutral>
0.000679699

> <r_epik_State_Penalty>
0.000430485

> <r_epik_Charging_Adjusted_Penalty>
0.000430485

> <i_epik_Tot_Q>
0

> <i_epik_Tot_abs_Q>
0

> <r_epik_Metal_State_Penalty>
-0

> <b_epik_Metal_Only>
0

> <s_lp_Force_Field>
OPLS_2005

> <r_lp_Energy>
24.6084

> <b_lp_Chiralities_Consistent>
1

> <s_lp_Variant>
AV-unprocessed.smi:1966-2

> <Gold.Version>
5.8.1

> <Gold.Id.Protein>
6NUR|6NUR_protein|mol2

> <Gold.PLP.Fitness>
40.0405

> <Gold.PLP.PLP>
-36.1215

> <Gold.PLP.part.hbond>
-2.0000

> <Gold.PLP.part.metal>
0.0000

> <Gold.PLP.part.buried>
-2.8195

> <Gold.PLP.part.nonpolar>
-30.6421

> <Gold.PLP.part.repulsive>
0.0986

> <Gold.PLP.ligand.clash>
0.0000

> <Gold.PLP.ligand.torsion>
1.2113

> <Gold.PLP.Chemscore.Hbond>
1.9920

> <Gold.PLP.Chemscore.CHOScore>
0.0000

> <Gold.PLP.Chemscore.Metal>
0.0000

> <Gold.Chemscore.Hbonds>
donor molecule, donor type, donor heavy atom, donor atom, acceptor molecule, acceptor atom, score
      P1  H  6896  6909       L1     7  1.00
      P1  H 10752 10765       L1     3  1.00

> <Gold.PLP.Chemscore.Internal.Correction>
0.3656

> <Gold.Rescore>
     Score         DG    S(hbond)    S(metal)    S(lipo)     H(rot)  DE(clash)    DE(int)     intcor
     14.62     -19.54       1.96        0.00     100.84       1.68       0.07       4.86       ----

> <Gold.Chemscore.Fitness>
14.6199

> <Gold.Chemscore.DG>
-19.5445

> <Gold.Chemscore.ZeroCoef>
-5.4800

> <Gold.Chemscore.Hbond>
1.9630

> <Gold.Chemscore.Metal>
0.0000

> <Gold.Chemscore.Lipo>
100.8388

> <Gold.Chemscore.Internal_Hbond>
0.0000

> <Gold.Chemscore.DEClash>
0.0661

> <Gold.Chemscore.DEInternal>
4.8585

> <Gold.Chemscore.Rot>
1.6759

> <Gold.Chemscore.Internal.Correction>
   9.000000E+99

> <Gold.Chemscore.Hbonds>
donor molecule, donor type, donor heavy atom, donor atom, acceptor molecule, acceptor atom, score
      P1  H  6896  6909       L1     7  0.95
      P1  H 10752 10765       L1     3  0.94

> <Gold.Chemscore.Hbond.Weighted>
-6.5566

> <Gold.Chemscore.Metal.Weighted>
-0.0000

> <Gold.Chemscore.Lipo.Weighted>
-11.7981

> <Gold.Chemscore.Internal_Hbond.Weighted>
0.0000

> <Gold.Chemscore.DEClash.Weighted>
0.0661

> <Gold.Chemscore.DEInternal.Weighted>
4.8585

> <Gold.Chemscore.Rot.Weighted>
4.2902

> <Gold.Chemscore.Internal.Correction.Weighted>
   9.000000E+99

> <Gold.Protein.RotatedTorsions>
[ 6907 6896 6895 6894 ] final -155.83 input  -60.11 | X-H torsion
[ 7974 7965 7964 7962 ] final  -15.00 input  175.53 | X-H torsion
[ 8008 7997 7996 7995 ] final  110.88 input   59.86 | X-H torsion
[ 10167 10162 10161 10158 ] final  169.27 input  -65.29 | X-H torsion
[ 10718 10713 10712 10709 ] final  -71.41 input   66.30 | X-H torsion
[ 10763 10752 10751 10750 ] final  -67.76 input  -60.55 | X-H torsion
[ 11005 11000 10999 10996 ] final -115.13 input  -57.11 | X-H torsion

> <Gold.Protein.ActiveResidues>
 VAL166  LYS551  ARG553  GLY616  TRP617  ASP618  TYR619  PRO620  LYS621  CYS622 
 ASP623  PHE694  ASN695  SER759  ASP760  ASP761  ALA762  ILE779  LEU786  VAL792 
 PHE793  MET794  SER795  GLU796  ALA797  LYS798  CYS799  TRP800  GLU811  SER814 

> <Gold.Protein.RotatedAtoms>
  151.2784  133.4221  159.2625 H   0  0  0  0  0  0  0  0  0  0  0  0  # atno 6907 bound_to 6896
  151.0382  134.9589  159.8158 H   0  0  0  0  0  0  0  0  0  0  0  0  # atno 6908 bound_to 6896
  152.5360  134.2743  159.9036 H   0  0  0  0  0  0  0  0  0  0  0  0  # atno 6909 bound_to 6896
  146.2051  140.3430  142.8410 H   0  0  0  0  0  0  0  0  0  0  0  0  # atno 7974 bound_to 7965
  156.2084  140.3030  155.9678 H   0  0  0  0  0  0  0  0  0  0  0  0  # atno 8008 bound_to 7997
  155.2784  140.0436  157.3030 H   0  0  0  0  0  0  0  0  0  0  0  0  # atno 8009 bound_to 7997
  154.5665  140.2336  155.8264 H   0  0  0  0  0  0  0  0  0  0  0  0  # atno 8010 bound_to 7997
  139.4988  144.3724  151.9710 H   0  0  0  0  0  0  0  0  0  0  0  0  # atno 10167 bound_to 10162
  156.0364  130.4351  150.2440 H   0  0  0  0  0  0  0  0  0  0  0  0  # atno 10718 bound_to 10713
  154.3791  135.6078  153.5781 H   0  0  0  0  0  0  0  0  0  0  0  0  # atno 10763 bound_to 10752
  152.9788  135.5856  154.4431 H   0  0  0  0  0  0  0  0  0  0  0  0  # atno 10764 bound_to 10752
  154.4197  135.2845  155.1961 H   0  0  0  0  0  0  0  0  0  0  0  0  # atno 10765 bound_to 10752
  141.0507  133.9691  157.2841 H   0  0  0  0  0  0  0  0  0  0  0  0  # atno 11005 bound_to 11000
  144.8772  140.7353  143.6009 LP  0  0  0  0  0  0  0  0  0  0  0  0  # atno 17320 bound_to 7965
  145.3349  139.1748  143.4517 LP  0  0  0  0  0  0  0  0  0  0  0  0  # atno 17321 bound_to 7965
  140.3160  144.3483  150.6021 LP  0  0  0  0  0  0  0  0  0  0  0  0  # atno 17342 bound_to 10162
  140.5761  143.2176  151.7513 LP  0  0  0  0  0  0  0  0  0  0  0  0  # atno 17343 bound_to 10162
  157.0539  131.0070  151.3245 LP  0  0  0  0  0  0  0  0  0  0  0  0  # atno 17370 bound_to 10713
  157.5120  130.7944  149.7715 LP  0  0  0  0  0  0  0  0  0  0  0  0  # atno 17371 bound_to 10713
  139.9348  135.0197  156.8520 LP  0  0  0  0  0  0  0  0  0  0  0  0  # atno 17394 bound_to 11000
  140.6060  134.0127  155.7557 LP  0  0  0  0  0  0  0  0  0  0  0  0  # atno 17395 bound_to 11000

$$$$
