AV-unprocessed.smi:275|AV-procd|sdf|2068|dock6
  -GOLD-   2262021323D 1   1.00000     0.00000
 Structure written by MMmdl.
 65 69  0  0  0  0  0  0  0  0  1 V2000
  153.1020  138.7329  158.8312 C   0  0  0  0  0  0  0  0  0  0  0  0
  153.1247  140.2694  158.9093 C   0  0  0  0  0  0  0  0  0  0  0  0
  153.3694  140.6954  160.3668 C   0  0  0  0  0  0  0  0  0  0  0  0
  151.8351  140.8982  158.3550 C   0  0  2  0  0  0  0  0  0  0  0  0
  151.8303  141.0311  156.9000 N   0  0  0  0  0  0  0  0  0  0  0  0
  151.2474  139.9584  156.1720 C   0  0  0  0  0  0  0  0  0  0  0  0
  151.2437  139.9386  154.8110 N   0  0  0  0  0  0  0  0  0  0  0  0
  150.6836  138.9260  154.1425 C   0  0  0  0  0  0  0  0  0  0  0  0
  150.0758  137.8420  154.6271 N   0  0  0  0  0  0  0  0  0  0  0  0
  150.0752  137.8509  155.9902 C   0  0  0  0  0  0  0  0  0  0  0  0
  150.6334  138.8577  156.8267 C   0  0  0  0  0  0  0  0  0  0  0  0
  150.4383  138.5284  158.1620 N   0  0  0  0  0  0  0  0  0  0  0  0
  149.7989  137.3914  158.1185 C   0  0  0  0  0  0  0  0  0  0  0  0
  149.5343  136.9151  156.8546 N   0  0  0  0  0  0  0  0  0  0  0  0
  148.8407  135.6828  156.5227 C   0  0  0  0  0  0  0  0  0  0  0  0
  149.6849  134.7181  155.6515 C   0  0  1  0  0  0  0  0  0  0  0  0
  150.8548  134.1110  156.4688 C   0  0  0  0  0  0  0  0  0  0  0  0
  150.3947  133.3033  157.5315 O   0  0  0  0  0  0  0  0  0  0  0  0
  148.7797  133.6236  155.0203 C   0  0  1  0  0  0  0  0  0  0  0  0
  147.7184  134.1416  154.0628 C   0  0  0  0  0  0  0  0  0  0  0  0
  147.3276  132.8849  153.2943 C   0  0  0  0  0  0  0  0  0  0  0  0
  148.5101  132.0990  153.2205 O   0  0  0  0  0  0  0  0  0  0  0  0
  149.4951  132.6192  154.1077 C   0  0  0  0  0  0  0  0  0  0  0  0
  150.9881  142.2136  156.9883 C   0  0  0  0  0  0  0  0  0  0  0  0
  151.5713  142.4236  158.3952 C   0  0  0  0  0  0  0  0  0  0  0  0
  150.5784  142.8948  159.4695 C   0  0  0  0  0  0  0  0  0  0  0  0
  150.1501  144.3598  159.2811 C   0  0  0  0  0  0  0  0  0  0  0  0
  151.3639  145.2985  159.2775 C   0  0  0  0  0  0  0  0  0  0  0  0
  152.4136  144.8459  158.2543 C   0  0  0  0  0  0  0  0  0  0  0  0
  152.7923  143.3694  158.4622 C   0  0  0  0  0  0  0  0  0  0  0  0
  152.2364  138.3216  159.3515 H   0  0  0  0  0  0  0  0  0  0  0  0
  153.9966  138.3030  159.2825 H   0  0  0  0  0  0  0  0  0  0  0  0
  153.0688  138.3842  157.7997 H   0  0  0  0  0  0  0  0  0  0  0  0
  153.9766  140.6141  158.3221 H   0  0  0  0  0  0  0  0  0  0  0  0
  152.5595  140.3591  161.0149 H   0  0  0  0  0  0  0  0  0  0  0  0
  153.4432  141.7763  160.4719 H   0  0  0  0  0  0  0  0  0  0  0  0
  154.2977  140.2707  160.7497 H   0  0  0  0  0  0  0  0  0  0  0  0
  150.9471  140.3697  158.7073 H   0  0  0  0  0  0  0  0  0  0  0  0
  150.7278  138.9962  153.0657 H   0  0  0  0  0  0  0  0  0  0  0  0
  149.4963  136.8665  159.0130 H   0  0  0  0  0  0  0  0  0  0  0  0
  148.5376  135.1889  157.4466 H   0  0  0  0  0  0  0  0  0  0  0  0
  147.9221  135.9672  156.0102 H   0  0  0  0  0  0  0  0  0  0  0  0
  150.1139  135.3125  154.8430 H   0  0  0  0  0  0  0  0  0  0  0  0
  151.4826  133.4672  155.8543 H   0  0  0  0  0  0  0  0  0  0  0  0
  151.5022  134.8965  156.8600 H   0  0  0  0  0  0  0  0  0  0  0  0
  149.7148  132.7344  157.2038 H   0  0  0  0  0  0  0  0  0  0  0  0
  148.2782  133.0700  155.8161 H   0  0  0  0  0  0  0  0  0  0  0  0
  146.8637  134.5940  154.5665 H   0  0  0  0  0  0  0  0  0  0  0  0
  148.1455  134.8795  153.3820 H   0  0  0  0  0  0  0  0  0  0  0  0
  146.5709  132.3234  153.8437 H   0  0  0  0  0  0  0  0  0  0  0  0
  146.9319  133.1073  152.3029 H   0  0  0  0  0  0  0  0  0  0  0  0
  150.2597  133.1159  153.5090 H   0  0  0  0  0  0  0  0  0  0  0  0
  149.9727  131.8142  154.6669 H   0  0  0  0  0  0  0  0  0  0  0  0
  151.2461  142.9852  156.2631 H   0  0  0  0  0  0  0  0  0  0  0  0
  149.9179  141.9992  156.9917 H   0  0  0  0  0  0  0  0  0  0  0  0
  149.6883  142.2648  159.4630 H   0  0  0  0  0  0  0  0  0  0  0  0
  151.0158  142.7732  160.4612 H   0  0  0  0  0  0  0  0  0  0  0  0
  149.6054  144.4625  158.3417 H   0  0  0  0  0  0  0  0  0  0  0  0
  149.4587  144.6506  160.0723 H   0  0  0  0  0  0  0  0  0  0  0  0
  151.0481  146.3202  159.0643 H   0  0  0  0  0  0  0  0  0  0  0  0
  151.8119  145.3143  160.2719 H   0  0  0  0  0  0  0  0  0  0  0  0
  152.0262  144.9894  157.2452 H   0  0  0  0  0  0  0  0  0  0  0  0
  153.3024  145.4722  158.3333 H   0  0  0  0  0  0  0  0  0  0  0  0
  153.2968  143.2765  159.4231 H   0  0  0  0  0  0  0  0  0  0  0  0
  153.5350  143.0903  157.7140 H   0  0  0  0  0  0  0  0  0  0  0  0
  1  2  1  0  0  0  0
  1 31  1  0  0  0  0
  1 32  1  0  0  0  0
  1 33  1  0  0  0  0
  2  3  1  0  0  0  0
  2  4  1  0  0  0  0
  2 34  1  0  0  0  0
  3 35  1  0  0  0  0
  3 36  1  0  0  0  0
  3 37  1  0  0  0  0
  4 25  1  0  0  0  0
  4  5  1  0  0  0  0
  4 38  1  0  0  0  0
  5  6  1  0  0  0  0
  5 24  1  0  0  0  0
  6 11  1  0  0  0  0
  6  7  2  0  0  0  0
  7  8  1  0  0  0  0
  8  9  2  0  0  0  0
  8 39  1  0  0  0  0
  9 10  1  0  0  0  0
 10 14  1  0  0  0  0
 10 11  2  0  0  0  0
 11 12  1  0  0  0  0
 12 13  2  0  0  0  0
 13 14  1  0  0  0  0
 13 40  1  0  0  0  0
 14 15  1  0  0  0  0
 15 16  1  0  0  0  0
 15 41  1  0  0  0  0
 15 42  1  0  0  0  0
 16 17  1  0  0  0  0
 16 19  1  0  0  0  0
 16 43  1  0  0  0  0
 17 18  1  0  0  0  0
 17 44  1  0  0  0  0
 17 45  1  0  0  0  0
 18 46  1  0  0  0  0
 19 23  1  0  0  0  0
 19 20  1  0  0  0  0
 19 47  1  0  0  0  0
 20 21  1  0  0  0  0
 20 48  1  0  0  0  0
 20 49  1  0  0  0  0
 21 22  1  0  0  0  0
 21 50  1  0  0  0  0
 21 51  1  0  0  0  0
 22 23  1  0  0  0  0
 23 52  1  0  0  0  0
 23 53  1  0  0  0  0
 24 25  1  0  0  0  0
 24 54  1  0  0  0  0
 24 55  1  0  0  0  0
 25 30  1  0  0  0  0
 25 26  1  0  0  0  0
 26 27  1  0  0  0  0
 26 56  1  0  0  0  0
 26 57  1  0  0  0  0
 27 28  1  0  0  0  0
 27 58  1  0  0  0  0
 27 59  1  0  0  0  0
 28 29  1  0  0  0  0
 28 60  1  0  0  0  0
 28 61  1  0  0  0  0
 29 30  1  0  0  0  0
 29 62  1  0  0  0  0
 29 63  1  0  0  0  0
 30 64  1  0  0  0  0
 30 65  1  0  0  0  0
M  END
> <s_m_source_file>
AV-unprocessed.smi

> <i_m_source_file_index>
275

> <i_lp_mmshare_version>
43012

> <i_f3d_flags>
0

> <s_epik_input>
W0NIMl0xW0NIMl1bQ0gyXVtDSDJdW0NIMl1DMTJbQ0BIXShbQ0hdKFtDSDNdKVtDSDNdKU4oW0NIMl0yKWMobltjSF1uMyljKGMzNCluW2NIXW40W0NIMl1bQ0BIXShbQ0gyXVtPSF0pW0NAQEhdNVtDSDJdW0NIMl1PW0NIMl01

> <s_epik_cmdline>
J2VwaWtfcHl0aG9uJywgJy1waCcsICc3LjAnLCAnLXRuJywgJzgnLCAnLW1hJywgJzIwMCcsICctbWV0YWxfYmluZGluZycsICctaW1hZScsICc8aW5maWxlLm1hZT4nLCAnLW9tYWUnLCAnPG91dGZpbGUubWFlPic=

> <r_lp_tautomer_probability>
1

> <r_epik_Ionization_Penalty>
0.00375122

> <r_epik_Ionization_Penalty_Charging>
0

> <r_epik_Ionization_Penalty_Neutral>
0.00375122

> <r_epik_State_Penalty>
0.00260593

> <r_epik_Charging_Adjusted_Penalty>
0.00260593

> <i_epik_Tot_Q>
0

> <i_epik_Tot_abs_Q>
0

> <r_epik_Metal_State_Penalty>
-0

> <b_epik_Metal_Only>
0

> <s_lp_Force_Field>
OPLS_2005

> <r_lp_Energy>
64.3005

> <b_lp_Chiralities_Consistent>
1

> <s_lp_Variant>
AV-unprocessed.smi:275-7

> <Gold.Version>
5.8.1

> <Gold.Id.Protein>
6NUR|6NUR_protein|mol2

> <Gold.PLP.Fitness>
52.9612

> <Gold.PLP.PLP>
-44.9150

> <Gold.PLP.part.hbond>
-2.0000

> <Gold.PLP.part.metal>
0.0000

> <Gold.PLP.part.buried>
-4.4381

> <Gold.PLP.part.nonpolar>
-37.8699

> <Gold.PLP.part.repulsive>
0.3918

> <Gold.PLP.ligand.clash>
0.0000

> <Gold.PLP.ligand.torsion>
0.6646

> <Gold.PLP.Chemscore.Hbond>
1.9000

> <Gold.PLP.Chemscore.CHOScore>
1.0000

> <Gold.PLP.Chemscore.Metal>
0.0000

> <Gold.Chemscore.Hbonds>
donor molecule, donor type, donor heavy atom, donor atom, acceptor molecule, acceptor atom, score
      P1  H  6896  6909       L1    18  1.00
      P1  H  7989  7998       L1     7  0.90
      L1  C     8    39       P1  7957  1.00

> <Gold.PLP.Chemscore.Internal.Correction>
0.6756

> <Gold.Rescore>
     Score         DG    S(hbond)    S(metal)    S(lipo)     H(rot)  DE(clash)    DE(int)     intcor
     14.17     -18.10       1.06        0.00     133.00       2.54       0.31       3.62       ----

> <Gold.Chemscore.Fitness>
14.1651

> <Gold.Chemscore.DG>
-18.0962

> <Gold.Chemscore.ZeroCoef>
-5.4800

> <Gold.Chemscore.Hbond>
1.0636

> <Gold.Chemscore.Metal>
0.0000

> <Gold.Chemscore.Lipo>
132.9951

> <Gold.Chemscore.Internal_Hbond>
0.0000

> <Gold.Chemscore.DEClash>
0.3126

> <Gold.Chemscore.DEInternal>
3.6185

> <Gold.Chemscore.Rot>
2.5377

> <Gold.Chemscore.Internal.Correction>
   9.000000E+99

> <Gold.Chemscore.Hbonds>
donor molecule, donor type, donor heavy atom, donor atom, acceptor molecule, acceptor atom, score
      P1  H  6896  6909       L1    18  0.95
      P1  H  7989  7998       L1     7  0.18

> <Gold.Chemscore.Hbond.Weighted>
-3.5524

> <Gold.Chemscore.Metal.Weighted>
-0.0000

> <Gold.Chemscore.Lipo.Weighted>
-15.5604

> <Gold.Chemscore.Internal_Hbond.Weighted>
0.0000

> <Gold.Chemscore.DEClash.Weighted>
0.3126

> <Gold.Chemscore.DEInternal.Weighted>
3.6185

> <Gold.Chemscore.Rot.Weighted>
6.4966

> <Gold.Chemscore.Internal.Correction.Weighted>
   9.000000E+99

> <Gold.Protein.RotatedTorsions>
[ 6907 6896 6895 6894 ] final  -18.40 input  -60.11 | X-H torsion
[ 7974 7965 7964 7962 ] final  -38.09 input  175.53 | X-H torsion
[ 8008 7997 7996 7995 ] final  120.36 input   59.86 | X-H torsion
[ 10167 10162 10161 10158 ] final  152.56 input  -65.29 | X-H torsion
[ 10718 10713 10712 10709 ] final   18.18 input   66.30 | X-H torsion
[ 10763 10752 10751 10750 ] final  -13.69 input  -60.55 | X-H torsion
[ 11005 11000 10999 10996 ] final -166.88 input  -57.11 | X-H torsion

> <Gold.Protein.ActiveResidues>
 VAL166  LYS551  ARG553  GLY616  TRP617  ASP618  TYR619  PRO620  LYS621  CYS622 
 ASP623  PHE694  ASN695  SER759  ASP760  ASP761  ALA762  ILE779  LEU786  VAL792 
 PHE793  MET794  SER795  GLU796  ALA797  LYS798  CYS799  TRP800  GLU811  SER814 

> <Gold.Protein.RotatedAtoms>
  151.2787  135.0707  159.9161 H   0  0  0  0  0  0  0  0  0  0  0  0  # atno 6907 bound_to 6896
  152.5338  134.0053  159.7924 H   0  0  0  0  0  0  0  0  0  0  0  0  # atno 6908 bound_to 6896
  151.0304  133.5745  159.2692 H   0  0  0  0  0  0  0  0  0  0  0  0  # atno 6909 bound_to 6896
  146.0517  140.6472  142.9039 H   0  0  0  0  0  0  0  0  0  0  0  0  # atno 7974 bound_to 7965
  156.2639  140.2832  156.1137 H   0  0  0  0  0  0  0  0  0  0  0  0  # atno 8008 bound_to 7997
  155.1229  140.0392  157.2772 H   0  0  0  0  0  0  0  0  0  0  0  0  # atno 8009 bound_to 7997
  154.6657  140.2576  155.7067 H   0  0  0  0  0  0  0  0  0  0  0  0  # atno 8010 bound_to 7997
  139.4832  144.5347  151.7664 H   0  0  0  0  0  0  0  0  0  0  0  0  # atno 10167 bound_to 10162
  157.0926  130.6434  149.5852 H   0  0  0  0  0  0  0  0  0  0  0  0  # atno 10718 bound_to 10713
  153.5170  135.7016  153.5751 H   0  0  0  0  0  0  0  0  0  0  0  0  # atno 10763 bound_to 10752
  153.3816  135.3918  155.1861 H   0  0  0  0  0  0  0  0  0  0  0  0  # atno 10764 bound_to 10752
  154.8698  135.3836  154.4655 H   0  0  0  0  0  0  0  0  0  0  0  0  # atno 10765 bound_to 10752
  140.5595  134.5348  157.5140 H   0  0  0  0  0  0  0  0  0  0  0  0  # atno 11005 bound_to 11000
  144.7126  140.4094  143.7069 LP  0  0  0  0  0  0  0  0  0  0  0  0  # atno 17320 bound_to 7965
  145.6713  139.1600  143.2753 LP  0  0  0  0  0  0  0  0  0  0  0  0  # atno 17321 bound_to 7965
  140.4878  144.1355  150.5944 LP  0  0  0  0  0  0  0  0  0  0  0  0  # atno 17342 bound_to 10162
  140.4205  143.2614  151.9721 LP  0  0  0  0  0  0  0  0  0  0  0  0  # atno 17343 bound_to 10162
  155.9894  130.4941  150.7212 LP  0  0  0  0  0  0  0  0  0  0  0  0  # atno 17370 bound_to 10713
  157.4708  131.0893  151.0644 LP  0  0  0  0  0  0  0  0  0  0  0  0  # atno 17371 bound_to 10713
  139.9415  134.7779  156.0667 LP  0  0  0  0  0  0  0  0  0  0  0  0  # atno 17394 bound_to 11000
  141.1123  133.6639  156.3009 LP  0  0  0  0  0  0  0  0  0  0  0  0  # atno 17395 bound_to 11000

$$$$
