AV-unprocessed.smi:2635|AV-procd|sdf|10256|dock2
  -GOLD-   2272014263D 1   1.00000     0.00000
 Structure written by MMmdl.
 31 32  0  0  0  0  0  0  0  0  2 V2000
  148.3872  136.5339  155.6182 C   0  0  0  0  0  0  0  0  0  0  0  0
  149.5829  137.4505  155.4345 C   0  0  0  0  0  0  0  0  0  0  0  0
  149.5131  138.7852  155.6186 C   0  0  0  0  0  0  0  0  0  0  0  0
  150.6263  139.6240  155.4454 N   0  0  0  0  0  0  0  0  0  0  0  0
  150.4566  141.0563  155.6217 C   0  0  0  0  0  0  0  0  0  0  0  0
  151.3298  141.4972  156.6096 O   0  0  0  0  0  0  0  0  0  0  0  0
  151.2445  142.8939  156.8394 C   0  0  0  0  0  0  0  0  0  0  0  0
  151.7067  143.2600  158.2360 C   0  0  0  0  0  0  0  0  0  0  0  0
  152.2315  142.2656  159.0883 C   0  0  0  0  0  0  0  0  0  0  0  0
  152.6487  142.5985  160.3920 C   0  0  0  0  0  0  0  0  0  0  0  0
  152.5394  143.9260  160.8495 C   0  0  0  0  0  0  0  0  0  0  0  0
  152.0106  144.9201  160.0036 C   0  0  0  0  0  0  0  0  0  0  0  0
  151.5921  144.5876  158.7003 C   0  0  0  0  0  0  0  0  0  0  0  0
  151.8230  139.1062  155.0374 C   0  0  0  0  0  0  0  0  0  0  0  0
  152.7765  139.8646  154.8539 O   0  0  0  0  0  0  0  0  0  0  0  0
  151.9193  137.7538  154.8531 N   0  5  0  0  0  0  0  0  0  0  0  0
  150.8762  136.8911  155.0321 C   0  0  0  0  0  0  0  0  0  0  0  0
  150.9893  135.6769  154.8661 O   0  0  0  0  0  0  0  0  0  0  0  0
  147.5072  137.0939  155.9357 H   0  0  0  0  0  0  0  0  0  0  0  0
  148.5986  135.7777  156.3748 H   0  0  0  0  0  0  0  0  0  0  0  0
  148.1481  136.0284  154.6820 H   0  0  0  0  0  0  0  0  0  0  0  0
  148.6018  139.2895  155.9050 H   0  0  0  0  0  0  0  0  0  0  0  0
  150.6639  141.5670  154.6801 H   0  0  0  0  0  0  0  0  0  0  0  0
  149.4187  141.2564  155.8968 H   0  0  0  0  0  0  0  0  0  0  0  0
  151.8450  143.4267  156.1004 H   0  0  0  0  0  0  0  0  0  0  0  0
  150.2126  143.2282  156.7225 H   0  0  0  0  0  0  0  0  0  0  0  0
  152.3154  141.2455  158.7422 H   0  0  0  0  0  0  0  0  0  0  0  0
  153.0516  141.8354  161.0414 H   0  0  0  0  0  0  0  0  0  0  0  0
  152.8594  144.1809  161.8489 H   0  0  0  0  0  0  0  0  0  0  0  0
  151.9247  145.9378  160.3543 H   0  0  0  0  0  0  0  0  0  0  0  0
  151.1856  145.3560  158.0593 H   0  0  0  0  0  0  0  0  0  0  0  0
  1  2  1  0  0  0  0
  1 19  1  0  0  0  0
  1 20  1  0  0  0  0
  1 21  1  0  0  0  0
  2 17  1  0  0  0  0
  2  3  2  0  0  0  0
  3  4  1  0  0  0  0
  3 22  1  0  0  0  0
  4  5  1  0  0  0  0
  4 14  1  0  0  0  0
  5  6  1  0  0  0  0
  5 23  1  0  0  0  0
  5 24  1  0  0  0  0
  6  7  1  0  0  0  0
  7  8  1  0  0  0  0
  7 25  1  0  0  0  0
  7 26  1  0  0  0  0
  8 13  1  0  0  0  0
  8  9  2  0  0  0  0
  9 10  1  0  0  0  0
  9 27  1  0  0  0  0
 10 11  2  0  0  0  0
 10 28  1  0  0  0  0
 11 12  1  0  0  0  0
 11 29  1  0  0  0  0
 12 13  2  0  0  0  0
 12 30  1  0  0  0  0
 13 31  1  0  0  0  0
 14 15  2  0  0  0  0
 14 16  1  0  0  0  0
 16 17  1  0  0  0  0
 17 18  2  0  0  0  0
M  CHG  1  16  -1
M  END
> <s_m_source_file>
AV-unprocessed.smi

> <i_m_source_file_index>
2635

> <i_lp_mmshare_version>
43012

> <i_f3d_flags>
0

> <s_epik_input>
Tz1jMVtuSF1jKD1PKW4oW2NIXWMxW0NIM10pW0NIMl1PW0NIMl1jMltjSF1bY0hdW2NIXVtjSF1bY0hdMg==

> <s_epik_cmdline>
J2VwaWtfcHl0aG9uJywgJy1waCcsICc3LjAnLCAnLXRuJywgJzgnLCAnLW1hJywgJzIwMCcsICctbWV0YWxfYmluZGluZycsICctaW1hZScsICc8aW5maWxlLm1hZT4nLCAnLW9tYWUnLCAnPG91dGZpbGUubWFlPic=

> <r_lp_tautomer_probability>
0.999537

> <r_epik_Ionization_Penalty>
3.41553

> <r_epik_Ionization_Penalty_Charging>
6.94296e-08

> <r_epik_Ionization_Penalty_Neutral>
3.41553

> <r_epik_State_Penalty>
3.41493

> <r_epik_Charging_Adjusted_Penalty>
3.41493

> <i_epik_Tot_Q>
-1

> <i_epik_Tot_abs_Q>
1

> <r_epik_Metal_State_Penalty>
0.16353

> <b_epik_Metal_Only>
1

> <s_epik_Chemistry_Notes>
This compound contains an acetal/aminal-like group ( X-CH(R)-Y where X, Y are N, S, or O) that may be acid/base labile, releasing an aldehyde.

> <s_lp_Force_Field>
OPLS_2005

> <r_lp_Energy>
15.2245

> <b_lp_Chiralities_Consistent>
1

> <s_lp_Variant>
AV-unprocessed.smi:2635-2

> <Gold.Version>
5.8.1

> <Gold.Id.Protein>
6NUR|6NUR_protein|mol2

> <Gold.PLP.Fitness>
44.6907

> <Gold.PLP.PLP>
-38.3787

> <Gold.PLP.part.hbond>
-3.3249

> <Gold.PLP.part.metal>
0.0000

> <Gold.PLP.part.buried>
-2.3455

> <Gold.PLP.part.nonpolar>
-31.6862

> <Gold.PLP.part.repulsive>
0.3369

> <Gold.PLP.ligand.clash>
0.0000

> <Gold.PLP.ligand.torsion>
0.1618

> <Gold.PLP.Chemscore.Hbond>
2.2016

> <Gold.PLP.Chemscore.CHOScore>
0.0000

> <Gold.PLP.Chemscore.Metal>
0.0000

> <Gold.Chemscore.Hbonds>
donor molecule, donor type, donor heavy atom, donor atom, acceptor molecule, acceptor atom, score
      P1  H  7989  7998       L1    15  0.22
      P1  H  7997  8010       L1    15  1.00
      P1  H 10752 10765       L1    18  1.00

> <Gold.PLP.Chemscore.Internal.Correction>
0.0307

> <Gold.Rescore>
     Score         DG    S(hbond)    S(metal)    S(lipo)     H(rot)  DE(clash)    DE(int)     intcor
     13.73     -15.59       1.35        0.00      89.59       1.90       0.30       1.57       ----

> <Gold.Chemscore.Fitness>
13.7253

> <Gold.Chemscore.DG>
-15.5924

> <Gold.Chemscore.ZeroCoef>
-5.4800

> <Gold.Chemscore.Hbond>
1.3459

> <Gold.Chemscore.Metal>
0.0000

> <Gold.Chemscore.Lipo>
89.5920

> <Gold.Chemscore.Internal_Hbond>
0.0000

> <Gold.Chemscore.DEClash>
0.3014

> <Gold.Chemscore.DEInternal>
1.5657

> <Gold.Chemscore.Rot>
1.9004

> <Gold.Chemscore.Internal.Correction>
   9.000000E+99

> <Gold.Chemscore.Hbonds>
donor molecule, donor type, donor heavy atom, donor atom, acceptor molecule, acceptor atom, score
      P1  H  7989  7998       L1    15  0.01
      P1  H  7997  8010       L1    15  0.94
      P1  H 10752 10765       L1    18  0.24

> <Gold.Chemscore.Hbond.Weighted>
-4.4953

> <Gold.Chemscore.Metal.Weighted>
-0.0000

> <Gold.Chemscore.Lipo.Weighted>
-10.4823

> <Gold.Chemscore.Internal_Hbond.Weighted>
0.0000

> <Gold.Chemscore.DEClash.Weighted>
0.3014

> <Gold.Chemscore.DEInternal.Weighted>
1.5657

> <Gold.Chemscore.Rot.Weighted>
4.8651

> <Gold.Chemscore.Internal.Correction.Weighted>
   9.000000E+99

> <Gold.Protein.RotatedTorsions>
[ 6907 6896 6895 6894 ] final    1.26 input  -60.11 | X-H torsion
[ 7974 7965 7964 7962 ] final   73.33 input  175.53 | X-H torsion
[ 8008 7997 7996 7995 ] final  117.02 input   59.86 | X-H torsion
[ 10167 10162 10161 10158 ] final -156.30 input  -65.29 | X-H torsion
[ 10718 10713 10712 10709 ] final   73.36 input   66.30 | X-H torsion
[ 10763 10752 10751 10750 ] final -170.39 input  -60.55 | X-H torsion
[ 11005 11000 10999 10996 ] final  -41.81 input  -57.11 | X-H torsion

> <Gold.Protein.ActiveResidues>
 VAL166  LYS551  ARG553  GLY616  TRP617  ASP618  TYR619  PRO620  LYS621  CYS622 
 ASP623  PHE694  ASN695  SER759  ASP760  ASP761  ALA762  ILE779  LEU786  VAL792 
 PHE793  MET794  SER795  GLU796  ALA797  LYS798  CYS799  TRP800  GLU811  SER814 

> <Gold.Protein.RotatedAtoms>
  151.5897  135.1054  160.0035 H   0  0  0  0  0  0  0  0  0  0  0  0  # atno 6907 bound_to 6896
  152.4312  133.7277  159.6580 H   0  0  0  0  0  0  0  0  0  0  0  0  # atno 6908 bound_to 6896
  150.8205  133.8190  159.3164 H   0  0  0  0  0  0  0  0  0  0  0  0  # atno 6909 bound_to 6896
  145.7422  139.2726  143.1479 H   0  0  0  0  0  0  0  0  0  0  0  0  # atno 7974 bound_to 7965
  156.2471  140.2905  156.0614 H   0  0  0  0  0  0  0  0  0  0  0  0  # atno 8008 bound_to 7997
  155.1772  140.0403  157.2892 H   0  0  0  0  0  0  0  0  0  0  0  0  # atno 8009 bound_to 7997
  154.6285  140.2493  155.7469 H   0  0  0  0  0  0  0  0  0  0  0  0  # atno 8010 bound_to 7997
  139.6861  143.9499  152.2362 H   0  0  0  0  0  0  0  0  0  0  0  0  # atno 10167 bound_to 10162
  157.6544  130.9624  150.1058 H   0  0  0  0  0  0  0  0  0  0  0  0  # atno 10718 bound_to 10713
  154.6421  135.2900  155.0091 H   0  0  0  0  0  0  0  0  0  0  0  0  # atno 10763 bound_to 10752
  154.1214  135.6547  153.4908 H   0  0  0  0  0  0  0  0  0  0  0  0  # atno 10764 bound_to 10752
  153.0331  135.5288  154.7292 H   0  0  0  0  0  0  0  0  0  0  0  0  # atno 10765 bound_to 10752
  141.0272  133.6836  156.2509 H   0  0  0  0  0  0  0  0  0  0  0  0  # atno 11005 bound_to 11000
  146.0437  140.8140  142.9816 LP  0  0  0  0  0  0  0  0  0  0  0  0  # atno 17320 bound_to 7965
  144.6868  140.2948  143.7272 LP  0  0  0  0  0  0  0  0  0  0  0  0  # atno 17321 bound_to 7965
  139.9302  144.6746  150.8370 LP  0  0  0  0  0  0  0  0  0  0  0  0  # atno 17342 bound_to 10162
  140.7668  143.3314  151.2403 LP  0  0  0  0  0  0  0  0  0  0  0  0  # atno 17343 bound_to 10162
  156.1968  130.3658  149.8839 LP  0  0  0  0  0  0  0  0  0  0  0  0  # atno 17370 bound_to 10713
  156.6753  130.8836  151.3568 LP  0  0  0  0  0  0  0  0  0  0  0  0  # atno 17371 bound_to 10713
  140.6470  134.5106  157.5574 LP  0  0  0  0  0  0  0  0  0  0  0  0  # atno 17394 bound_to 11000
  139.9184  134.8199  156.1292 LP  0  0  0  0  0  0  0  0  0  0  0  0  # atno 17395 bound_to 11000

$$$$
