AV-unprocessed.smi:232|AV-procd|sdf|1782|dock5
  -GOLD-   2262020333D 1   1.00000     0.00000
 Structure written by MMmdl.
 52 55  0  0  0  0  0  0  0  0  1 V2000
  154.6185  141.8062  159.5011 C   0  0  0  0  0  0  0  0  0  0  0  0
  154.1086  140.9936  158.3044 C   0  0  0  0  0  0  0  0  0  0  0  0
  152.5818  141.1084  158.1014 C   0  0  1  0  0  0  0  0  0  0  0  0
  151.9889  142.4122  158.6704 C   0  0  0  0  0  0  0  0  0  0  0  0
  151.1070  142.9879  157.5561 C   0  0  0  0  0  0  0  0  0  0  0  0
  150.9489  141.8453  156.5518 C   0  0  2  0  0  0  0  0  0  0  0  0
  149.6958  140.9949  156.8484 C   0  0  0  0  0  0  0  0  0  0  0  0
  152.1950  141.0989  156.6905 N   0  0  0  0  0  0  0  0  0  0  0  0
  152.3319  139.9803  155.9294 C   0  0  0  0  0  0  0  0  0  0  0  0
  153.1235  140.0017  154.8237 N   0  0  0  0  0  0  0  0  0  0  0  0
  153.2861  138.9002  154.0857 C   0  0  0  0  0  0  0  0  0  0  0  0
  152.7655  137.6866  154.2734 N   0  0  0  0  0  0  0  0  0  0  0  0
  151.9693  137.6569  155.3800 C   0  0  0  0  0  0  0  0  0  0  0  0
  151.6962  138.7484  156.2526 C   0  0  0  0  0  0  0  0  0  0  0  0
  150.8299  138.3403  157.2601 N   0  0  0  0  0  0  0  0  0  0  0  0
  150.6157  137.0785  157.0069 C   0  0  0  0  0  0  0  0  0  0  0  0
  151.2809  136.5794  155.9101 N   0  0  0  0  0  0  0  0  0  0  0  0
  151.2330  135.2159  155.4116 C   0  0  0  0  0  0  0  0  0  0  0  0
  149.8195  134.7647  154.9761 C   0  0  1  0  0  0  0  0  0  0  0  0
  149.1639  135.9359  154.5342 O   0  0  0  0  0  0  0  0  0  0  0  0
  149.7712  133.7466  153.8121 C   0  0  1  0  0  0  0  0  0  0  0  0
  150.5361  132.4368  154.0233 C   0  0  0  0  0  0  0  0  0  0  0  0
  149.8214  131.4422  153.1242 C   0  0  0  0  0  0  0  0  0  0  0  0
  148.4815  132.1154  152.8261 C   0  0  0  0  0  0  0  0  0  0  0  0
  148.4459  133.2524  153.6764 O   0  0  0  0  0  0  0  0  0  0  0  0
  155.6918  141.6676  159.6324 H   0  0  0  0  0  0  0  0  0  0  0  0
  154.1282  141.4947  160.4236 H   0  0  0  0  0  0  0  0  0  0  0  0
  154.4378  142.8728  159.3680 H   0  0  0  0  0  0  0  0  0  0  0  0
  154.6265  141.3103  157.3984 H   0  0  0  0  0  0  0  0  0  0  0  0
  154.3918  139.9535  158.4613 H   0  0  0  0  0  0  0  0  0  0  0  0
  152.0927  140.2669  158.5946 H   0  0  0  0  0  0  0  0  0  0  0  0
  151.4004  142.1982  159.5631 H   0  0  0  0  0  0  0  0  0  0  0  0
  152.7571  143.1337  158.9514 H   0  0  0  0  0  0  0  0  0  0  0  0
  150.1557  143.3741  157.9239 H   0  0  0  0  0  0  0  0  0  0  0  0
  151.6313  143.8165  157.0778 H   0  0  0  0  0  0  0  0  0  0  0  0
  150.8647  142.2666  155.5506 H   0  0  0  0  0  0  0  0  0  0  0  0
  148.7932  141.6035  156.7918 H   0  0  0  0  0  0  0  0  0  0  0  0
  149.7325  140.5508  157.8436 H   0  0  0  0  0  0  0  0  0  0  0  0
  149.5823  140.1855  156.1265 H   0  0  0  0  0  0  0  0  0  0  0  0
  153.9301  139.0057  153.2254 H   0  0  0  0  0  0  0  0  0  0  0  0
  149.9715  136.4706  157.6256 H   0  0  0  0  0  0  0  0  0  0  0  0
  151.9182  135.1644  154.5642 H   0  0  0  0  0  0  0  0  0  0  0  0
  151.6301  134.5399  156.1699 H   0  0  0  0  0  0  0  0  0  0  0  0
  149.2735  134.3753  155.8362 H   0  0  0  0  0  0  0  0  0  0  0  0
  149.0347  135.8728  153.6003 H   0  0  0  0  0  0  0  0  0  0  0  0
  150.0887  134.2091  152.8752 H   0  0  0  0  0  0  0  0  0  0  0  0
  151.5947  132.5212  153.7797 H   0  0  0  0  0  0  0  0  0  0  0  0
  150.4488  132.1099  155.0602 H   0  0  0  0  0  0  0  0  0  0  0  0
  150.3767  131.2693  152.2019 H   0  0  0  0  0  0  0  0  0  0  0  0
  149.6932  130.4823  153.6257 H   0  0  0  0  0  0  0  0  0  0  0  0
  148.4366  132.4399  151.7855 H   0  0  0  0  0  0  0  0  0  0  0  0
  147.6317  131.4595  153.0165 H   0  0  0  0  0  0  0  0  0  0  0  0
  1  2  1  0  0  0  0
  1 26  1  0  0  0  0
  1 27  1  0  0  0  0
  1 28  1  0  0  0  0
  2  3  1  0  0  0  0
  2 29  1  0  0  0  0
  2 30  1  0  0  0  0
  3  8  1  0  0  0  0
  3  4  1  0  0  0  0
  3 31  1  0  0  0  0
  4  5  1  0  0  0  0
  4 32  1  0  0  0  0
  4 33  1  0  0  0  0
  5  6  1  0  0  0  0
  5 34  1  0  0  0  0
  5 35  1  0  0  0  0
  6  7  1  0  0  0  0
  6  8  1  0  0  0  0
  6 36  1  0  0  0  0
  7 37  1  0  0  0  0
  7 38  1  0  0  0  0
  7 39  1  0  0  0  0
  8  9  1  0  0  0  0
  9 14  1  0  0  0  0
  9 10  2  0  0  0  0
 10 11  1  0  0  0  0
 11 12  2  0  0  0  0
 11 40  1  0  0  0  0
 12 13  1  0  0  0  0
 13 17  1  0  0  0  0
 13 14  2  0  0  0  0
 14 15  1  0  0  0  0
 15 16  2  0  0  0  0
 16 17  1  0  0  0  0
 16 41  1  0  0  0  0
 17 18  1  0  0  0  0
 18 19  1  0  0  0  0
 18 42  1  0  0  0  0
 18 43  1  0  0  0  0
 19 20  1  0  0  0  0
 19 21  1  0  0  0  0
 19 44  1  0  0  0  0
 20 45  1  0  0  0  0
 21 25  1  0  0  0  0
 21 22  1  0  0  0  0
 21 46  1  0  0  0  0
 22 23  1  0  0  0  0
 22 47  1  0  0  0  0
 22 48  1  0  0  0  0
 23 24  1  0  0  0  0
 23 49  1  0  0  0  0
 23 50  1  0  0  0  0
 24 25  1  0  0  0  0
 24 51  1  0  0  0  0
 24 52  1  0  0  0  0
M  END
> <s_m_source_file>
AV-unprocessed.smi

> <i_m_source_file_index>
232

> <i_lp_mmshare_version>
43012

> <i_f3d_flags>
0

> <s_epik_input>
W0NIM11bQ0gyXVtDQEBIXTFbQ0gyXVtDSDJdW0NAQEhdKFtDSDNdKU4xYyhuW2NIXW4yKWMoYzIzKW5bY0hdbjNbQ0gyXVtDQEhdKFtPSF0pW0NAQEhdNFtDSDJdW0NIMl1bQ0gyXU80

> <s_epik_cmdline>
J2VwaWtfcHl0aG9uJywgJy1waCcsICc3LjAnLCAnLXRuJywgJzgnLCAnLW1hJywgJzIwMCcsICctbWV0YWxfYmluZGluZycsICctaW1hZScsICc8aW5maWxlLm1hZT4nLCAnLW9tYWUnLCAnPG91dGZpbGUubWFlPic=

> <r_lp_tautomer_probability>
1

> <r_epik_Ionization_Penalty>
0.00258048

> <r_epik_Ionization_Penalty_Charging>
0

> <r_epik_Ionization_Penalty_Neutral>
0.00258048

> <r_epik_State_Penalty>
0.00168551

> <r_epik_Charging_Adjusted_Penalty>
0.00168551

> <i_epik_Tot_Q>
0

> <i_epik_Tot_abs_Q>
0

> <r_epik_Metal_State_Penalty>
-0

> <b_epik_Metal_Only>
0

> <s_lp_Force_Field>
OPLS_2005

> <r_lp_Energy>
55.4366

> <b_lp_Chiralities_Consistent>
1

> <s_lp_Variant>
AV-unprocessed.smi:232-16

> <Gold.Version>
5.8.1

> <Gold.Id.Protein>
6NUR|6NUR_protein|mol2

> <Gold.PLP.Fitness>
44.6727

> <Gold.PLP.PLP>
-38.4837

> <Gold.PLP.part.hbond>
-3.0000

> <Gold.PLP.part.metal>
0.0000

> <Gold.PLP.part.buried>
-3.1823

> <Gold.PLP.part.nonpolar>
-32.9486

> <Gold.PLP.part.repulsive>
0.1754

> <Gold.PLP.ligand.clash>
0.0000

> <Gold.PLP.ligand.torsion>
1.1632

> <Gold.PLP.Chemscore.Hbond>
2.7360

> <Gold.PLP.Chemscore.CHOScore>
0.0000

> <Gold.PLP.Chemscore.Metal>
0.0000

> <Gold.Chemscore.Hbonds>
donor molecule, donor type, donor heavy atom, donor atom, acceptor molecule, acceptor atom, score
      L1  H    20    45       P1  7948  1.00
      P1  H  7989  7998       L1    10  0.12
      P1  H  7997  8010       L1    10  0.50
      P1  H 10752 10765       L1    12  0.07

> <Gold.PLP.Chemscore.Internal.Correction>
0.3073

> <Gold.Rescore>
     Score         DG    S(hbond)    S(metal)    S(lipo)     H(rot)  DE(clash)    DE(int)     intcor
     16.81     -18.20       2.50        0.00      90.34       2.43       0.03       1.36       ----

> <Gold.Chemscore.Fitness>
16.8139

> <Gold.Chemscore.DG>
-18.2024

> <Gold.Chemscore.ZeroCoef>
-5.4800

> <Gold.Chemscore.Hbond>
2.5039

> <Gold.Chemscore.Metal>
0.0000

> <Gold.Chemscore.Lipo>
90.3428

> <Gold.Chemscore.Internal_Hbond>
0.0000

> <Gold.Chemscore.DEClash>
0.0276

> <Gold.Chemscore.DEInternal>
1.3608

> <Gold.Chemscore.Rot>
2.4260

> <Gold.Chemscore.Internal.Correction>
   9.000000E+99

> <Gold.Chemscore.Hbonds>
donor molecule, donor type, donor heavy atom, donor atom, acceptor molecule, acceptor atom, score
      L1  H    20    45       P1  7948  0.91
      P1  H  7997  8010       L1    10  0.02

> <Gold.Chemscore.Hbond.Weighted>
-8.3630

> <Gold.Chemscore.Metal.Weighted>
-0.0000

> <Gold.Chemscore.Lipo.Weighted>
-10.5701

> <Gold.Chemscore.Internal_Hbond.Weighted>
0.0000

> <Gold.Chemscore.DEClash.Weighted>
0.0276

> <Gold.Chemscore.DEInternal.Weighted>
1.3608

> <Gold.Chemscore.Rot.Weighted>
6.2107

> <Gold.Chemscore.Internal.Correction.Weighted>
   9.000000E+99

> <Gold.Protein.RotatedTorsions>
[ 6907 6896 6895 6894 ] final -105.68 input  -60.11 | X-H torsion
[ 7974 7965 7964 7962 ] final -133.54 input  175.53 | X-H torsion
[ 8008 7997 7996 7995 ] final  110.01 input   59.86 | X-H torsion
[ 10167 10162 10161 10158 ] final   17.62 input  -65.29 | X-H torsion
[ 10718 10713 10712 10709 ] final   -9.99 input   66.30 | X-H torsion
[ 10763 10752 10751 10750 ] final -178.08 input  -60.55 | X-H torsion
[ 11005 11000 10999 10996 ] final -141.20 input  -57.11 | X-H torsion

> <Gold.Protein.ActiveResidues>
 VAL166  LYS551  ARG553  GLY616  TRP617  ASP618  TYR619  PRO620  LYS621  CYS622 
 ASP623  PHE694  ASN695  SER759  ASP760  ASP761  ALA762  ILE779  LEU786  VAL792 
 PHE793  MET794  SER795  GLU796  ALA797  LYS798  CYS799  TRP800  GLU811  SER814 

> <Gold.Protein.RotatedAtoms>
  150.7349  134.0089  159.3662 H   0  0  0  0  0  0  0  0  0  0  0  0  # atno 6907 bound_to 6896
  151.8048  135.0696  160.0414 H   0  0  0  0  0  0  0  0  0  0  0  0  # atno 6908 bound_to 6896
  152.3115  133.5721  159.5720 H   0  0  0  0  0  0  0  0  0  0  0  0  # atno 6909 bound_to 6896
  144.9184  140.6983  143.4981 H   0  0  0  0  0  0  0  0  0  0  0  0  # atno 7974 bound_to 7965
  156.2021  140.3047  155.9549 H   0  0  0  0  0  0  0  0  0  0  0  0  # atno 8008 bound_to 7997
  155.2928  140.0443  157.3041 H   0  0  0  0  0  0  0  0  0  0  0  0  # atno 8009 bound_to 7997
  154.5585  140.2313  155.8382 H   0  0  0  0  0  0  0  0  0  0  0  0  # atno 8010 bound_to 7997
  140.5713  143.9156  150.6715 H   0  0  0  0  0  0  0  0  0  0  0  0  # atno 10167 bound_to 10162
  156.6800  130.5034  149.5974 H   0  0  0  0  0  0  0  0  0  0  0  0  # atno 10718 bound_to 10713
  154.5521  135.2813  155.0998 H   0  0  0  0  0  0  0  0  0  0  0  0  # atno 10763 bound_to 10752
  154.2440  135.6351  153.5221 H   0  0  0  0  0  0  0  0  0  0  0  0  # atno 10764 bound_to 10752
  153.0006  135.5567  154.6091 H   0  0  0  0  0  0  0  0  0  0  0  0  # atno 10765 bound_to 10752
  140.8347  134.2474  157.4839 H   0  0  0  0  0  0  0  0  0  0  0  0  # atno 11005 bound_to 11000
  145.3337  139.1752  143.4523 LP  0  0  0  0  0  0  0  0  0  0  0  0  # atno 17320 bound_to 7965
  146.3193  140.3370  142.8645 LP  0  0  0  0  0  0  0  0  0  0  0  0  # atno 17321 bound_to 7965
  140.2632  143.3509  152.1304 LP  0  0  0  0  0  0  0  0  0  0  0  0  # atno 17342 bound_to 10162
  139.5119  144.6908  151.5765 LP  0  0  0  0  0  0  0  0  0  0  0  0  # atno 17343 bound_to 10162
  156.1874  130.6538  151.1022 LP  0  0  0  0  0  0  0  0  0  0  0  0  # atno 17370 bound_to 10713
  157.7047  131.0761  150.6707 LP  0  0  0  0  0  0  0  0  0  0  0  0  # atno 17371 bound_to 10713
  139.8704  134.9604  156.4365 LP  0  0  0  0  0  0  0  0  0  0  0  0  # atno 17394 bound_to 11000
  140.8960  133.7814  155.9625 LP  0  0  0  0  0  0  0  0  0  0  0  0  # atno 17395 bound_to 11000

$$$$
