AV-unprocessed.smi:1429|AV-procd|sdf|5821|dock2
  -GOLD-   22720 5473D 1   1.00000     0.00000
 Structure written by MMmdl.
 29 30  0  0  0  0  0  0  0  0  2 V2000
  149.0176  141.0051  154.6676 C   0  0  0  0  0  0  0  0  0  0  0  0
  149.9073  139.8116  154.7364 C   0  0  0  0  0  0  0  0  0  0  0  0
  151.2380  139.9069  154.7867 N   0  0  0  0  0  0  0  0  0  0  0  0
  151.8490  138.6629  154.8468 N   0  0  0  0  0  0  0  0  0  0  0  0
  150.9753  137.6462  154.8311 C   0  0  0  0  0  0  0  0  0  0  0  0
  151.3660  136.3620  154.8857 N   0  5  0  0  0  0  0  0  0  0  0  0
  150.4982  135.4077  155.2928 C   0  0  0  0  0  0  0  0  0  0  0  0
  150.5259  134.8039  156.3678 O   0  0  0  0  0  0  0  0  0  0  0  0
  149.5384  135.1348  154.3992 N   0  0  0  0  0  0  0  0  0  0  0  0
  148.4725  134.1573  154.5806 C   0  0  0  0  0  0  0  0  0  0  0  0
  148.8546  132.8061  153.9546 C   0  0  1  0  0  0  0  0  0  0  0  0
  149.9423  132.0655  154.7045 C   0  0  0  0  0  0  0  0  0  0  0  0
  149.7730  130.6450  154.1757 C   0  0  0  0  0  0  0  0  0  0  0  0
  148.3800  130.4925  153.9198 O   0  0  0  0  0  0  0  0  0  0  0  0
  147.7344  131.7629  153.9513 C   0  0  0  0  0  0  0  0  0  0  0  0
  149.2920  138.1675  154.7595 S   0  0  0  0  0  0  0  0  0  0  0  0
  149.1591  141.5218  153.7183 H   0  0  0  0  0  0  0  0  0  0  0  0
  149.2492  141.6924  155.4816 H   0  0  0  0  0  0  0  0  0  0  0  0
  147.9729  140.7052  154.7499 H   0  0  0  0  0  0  0  0  0  0  0  0
  149.5488  135.6495  153.5309 H   0  0  0  0  0  0  0  0  0  0  0  0
  148.2839  134.0337  155.6479 H   0  0  0  0  0  0  0  0  0  0  0  0
  147.5503  134.5315  154.1329 H   0  0  0  0  0  0  0  0  0  0  0  0
  149.1903  132.9634  152.9278 H   0  0  0  0  0  0  0  0  0  0  0  0
  150.9393  132.4692  154.5251 H   0  0  0  0  0  0  0  0  0  0  0  0
  149.7510  132.0895  155.7783 H   0  0  0  0  0  0  0  0  0  0  0  0
  150.3136  130.5226  153.2363 H   0  0  0  0  0  0  0  0  0  0  0  0
  150.1353  129.8924  154.8763 H   0  0  0  0  0  0  0  0  0  0  0  0
  147.1455  131.8243  154.8676 H   0  0  0  0  0  0  0  0  0  0  0  0
  147.0557  131.8838  153.1066 H   0  0  0  0  0  0  0  0  0  0  0  0
  1  2  1  0  0  0  0
  1 17  1  0  0  0  0
  1 18  1  0  0  0  0
  1 19  1  0  0  0  0
  2 16  1  0  0  0  0
  2  3  2  0  0  0  0
  3  4  1  0  0  0  0
  4  5  2  0  0  0  0
  5  6  1  0  0  0  0
  5 16  1  0  0  0  0
  6  7  1  0  0  0  0
  7  8  2  0  0  0  0
  7  9  1  0  0  0  0
  9 10  1  0  0  0  0
  9 20  1  0  0  0  0
 10 11  1  0  0  0  0
 10 21  1  0  0  0  0
 10 22  1  0  0  0  0
 11 15  1  0  0  0  0
 11 12  1  0  0  0  0
 11 23  1  0  0  0  0
 12 13  1  0  0  0  0
 12 24  1  0  0  0  0
 12 25  1  0  0  0  0
 13 14  1  0  0  0  0
 13 26  1  0  0  0  0
 13 27  1  0  0  0  0
 14 15  1  0  0  0  0
 15 28  1  0  0  0  0
 15 29  1  0  0  0  0
M  CHG  1   6  -1
M  END
> <s_m_source_file>
AV-unprocessed.smi

> <i_m_source_file_index>
1429

> <i_lp_mmshare_version>
43012

> <i_f3d_flags>
0

> <s_epik_input>
W0NIM11jMW5uYyhzMSlbTkhdQyg9TylbTkhdW0NIMl1bQ0BASF0yW0NIMl1bQ0gyXU9bQ0gyXTI=

> <s_epik_cmdline>
J2VwaWtfcHl0aG9uJywgJy1waCcsICc3LjAnLCAnLXRuJywgJzgnLCAnLW1hJywgJzIwMCcsICctbWV0YWxfYmluZGluZycsICctaW1hZScsICc8aW5maWxlLm1hZT4nLCAnLW9tYWUnLCAnPG91dGZpbGUubWFlPic=

> <r_lp_tautomer_probability>
1

> <r_epik_Ionization_Penalty>
4.4122

> <r_epik_Ionization_Penalty_Charging>
4.26477

> <r_epik_Ionization_Penalty_Neutral>
0.147429

> <r_epik_State_Penalty>
4.26433

> <r_epik_Charging_Adjusted_Penalty>
8.5291

> <i_epik_Tot_Q>
-1

> <i_epik_Tot_abs_Q>
1

> <r_epik_Metal_State_Penalty>
0.713483

> <b_epik_Metal_Only>
1

> <s_lp_Force_Field>
OPLS_2005

> <r_lp_Energy>
16.2384

> <b_lp_Chiralities_Consistent>
1

> <s_lp_Variant>
AV-unprocessed.smi:1429-4

> <Gold.Version>
5.8.1

> <Gold.Id.Protein>
6NUR|6NUR_protein|mol2

> <Gold.PLP.Fitness>
36.7211

> <Gold.PLP.PLP>
-26.9650

> <Gold.PLP.part.hbond>
-3.0000

> <Gold.PLP.part.metal>
0.0000

> <Gold.PLP.part.buried>
-5.4800

> <Gold.PLP.part.nonpolar>
-19.6563

> <Gold.PLP.part.repulsive>
0.4047

> <Gold.PLP.ligand.clash>
0.0000

> <Gold.PLP.ligand.torsion>
0.9880

> <Gold.PLP.Chemscore.Hbond>
3.9000

> <Gold.PLP.Chemscore.CHOScore>
0.0000

> <Gold.PLP.Chemscore.Metal>
0.0000

> <Gold.Chemscore.Hbonds>
donor molecule, donor type, donor heavy atom, donor atom, acceptor molecule, acceptor atom, score
      L1  H     9    20       P1  7948  0.90
      P1  H  7989  7998       L1     3  1.00
      P1  H 10752 10764       L1     6  2.00

> <Gold.PLP.Chemscore.Internal.Correction>
0.0322

> <Gold.Rescore>
     Score         DG    S(hbond)    S(metal)    S(lipo)     H(rot)  DE(clash)    DE(int)     intcor
     14.48     -15.55       2.67        0.00      38.21       1.30       0.11       0.96       ----

> <Gold.Chemscore.Fitness>
14.4765

> <Gold.Chemscore.DG>
-15.5520

> <Gold.Chemscore.ZeroCoef>
-5.4800

> <Gold.Chemscore.Hbond>
2.6720

> <Gold.Chemscore.Metal>
0.0000

> <Gold.Chemscore.Lipo>
38.2084

> <Gold.Chemscore.Internal_Hbond>
0.0000

> <Gold.Chemscore.DEClash>
0.1117

> <Gold.Chemscore.DEInternal>
0.9638

> <Gold.Chemscore.Rot>
1.2980

> <Gold.Chemscore.Internal.Correction>
   9.000000E+99

> <Gold.Chemscore.Hbonds>
donor molecule, donor type, donor heavy atom, donor atom, acceptor molecule, acceptor atom, score
      L1  H     9    20       P1  7948  0.18
      P1  H  7989  7998       L1     3  0.46
      P1  H 10752 10764       L1     6  0.70

> <Gold.Chemscore.Hbond.Weighted>
-8.9245

> <Gold.Chemscore.Metal.Weighted>
-0.0000

> <Gold.Chemscore.Lipo.Weighted>
-4.4704

> <Gold.Chemscore.Internal_Hbond.Weighted>
0.0000

> <Gold.Chemscore.DEClash.Weighted>
0.1117

> <Gold.Chemscore.DEInternal.Weighted>
0.9638

> <Gold.Chemscore.Rot.Weighted>
3.3229

> <Gold.Chemscore.Internal.Correction.Weighted>
   9.000000E+99

> <Gold.Protein.RotatedTorsions>
[ 6907 6896 6895 6894 ] final  -28.85 input  -60.11 | X-H torsion
[ 7974 7965 7964 7962 ] final   69.74 input  175.53 | X-H torsion
[ 8008 7997 7996 7995 ] final   80.02 input   59.86 | X-H torsion
[ 10167 10162 10161 10158 ] final   32.19 input  -65.29 | X-H torsion
[ 10718 10713 10712 10709 ] final   90.72 input   66.30 | X-H torsion
[ 10763 10752 10751 10750 ] final  -63.36 input  -60.55 | X-H torsion
[ 11005 11000 10999 10996 ] final   44.88 input  -57.11 | X-H torsion

> <Gold.Protein.ActiveResidues>
 VAL166  LYS551  ARG553  GLY616  TRP617  ASP618  TYR619  PRO620  LYS621  CYS622 
 ASP623  PHE694  ASN695  SER759  ASP760  ASP761  ALA762  ILE779  LEU786  VAL792 
 PHE793  MET794  SER795  GLU796  ALA797  LYS798  CYS799  TRP800  GLU811  SER814 

> <Gold.Protein.RotatedAtoms>
  151.1273  135.0111  159.8565 H   0  0  0  0  0  0  0  0  0  0  0  0  # atno 6907 bound_to 6896
  152.5450  134.1652  159.8584 H   0  0  0  0  0  0  0  0  0  0  0  0  # atno 6908 bound_to 6896
  151.1715  133.4736  159.2627 H   0  0  0  0  0  0  0  0  0  0  0  0  # atno 6909 bound_to 6896
  145.7868  139.2914  143.1234 H   0  0  0  0  0  0  0  0  0  0  0  0  # atno 7974 bound_to 7965
  155.8777  140.3445  155.5865 H   0  0  0  0  0  0  0  0  0  0  0  0  # atno 8008 bound_to 7997
  155.7755  140.0851  157.2105 H   0  0  0  0  0  0  0  0  0  0  0  0  # atno 8009 bound_to 7997
  154.4022  140.1510  156.2979 H   0  0  0  0  0  0  0  0  0  0  0  0  # atno 8010 bound_to 7997
  140.4520  144.1033  150.6194 H   0  0  0  0  0  0  0  0  0  0  0  0  # atno 10167 bound_to 10162
  157.6959  131.0381  150.3620 H   0  0  0  0  0  0  0  0  0  0  0  0  # atno 10718 bound_to 10713
  154.3138  135.6210  153.5477 H   0  0  0  0  0  0  0  0  0  0  0  0  # atno 10763 bound_to 10752
  152.9827  135.5707  154.5147 H   0  0  0  0  0  0  0  0  0  0  0  0  # atno 10764 bound_to 10752
  154.4802  135.2863  155.1553 H   0  0  0  0  0  0  0  0  0  0  0  0  # atno 10765 bound_to 10752
  140.1511  134.4461  155.8381 H   0  0  0  0  0  0  0  0  0  0  0  0  # atno 11005 bound_to 11000
  146.0018  140.8513  143.0015 LP  0  0  0  0  0  0  0  0  0  0  0  0  # atno 17320 bound_to 7965
  144.6788  140.2363  143.7349 LP  0  0  0  0  0  0  0  0  0  0  0  0  # atno 17321 bound_to 7965
  140.4195  143.2618  151.9733 LP  0  0  0  0  0  0  0  0  0  0  0  0  # atno 17342 bound_to 10162
  139.4797  144.5843  151.7879 LP  0  0  0  0  0  0  0  0  0  0  0  0  # atno 17343 bound_to 10162
  156.4055  130.3924  149.6928 LP  0  0  0  0  0  0  0  0  0  0  0  0  # atno 17370 bound_to 10713
  156.4231  130.7778  151.2796 LP  0  0  0  0  0  0  0  0  0  0  0  0  # atno 17371 bound_to 10713
  141.2199  133.6872  156.7423 LP  0  0  0  0  0  0  0  0  0  0  0  0  # atno 17394 bound_to 11000
  140.2604  134.8471  157.3753 LP  0  0  0  0  0  0  0  0  0  0  0  0  # atno 17395 bound_to 11000

$$$$
