AV-unprocessed.smi:3337|AV-procd|sdf|12863|dock4
  -GOLD-   2272019263D 1   1.00000     0.00000
 Structure written by MMmdl.
 46 47  0  0  0  0  0  0  0  0  2 V2000
  152.7538  145.1447  157.6843 C   0  0  0  0  0  0  0  0  0  0  0  0
  152.1263  144.0303  158.5339 C   0  0  2  0  0  0  0  0  0  0  0  0
  153.2019  143.1322  159.1675 C   0  0  0  0  0  0  0  0  0  0  0  0
  152.5518  142.0121  159.9967 C   0  0  2  0  0  0  0  0  0  0  0  0
  153.6079  141.0893  160.6211 C   0  0  0  0  0  0  0  0  0  0  0  0
  151.5537  141.2193  159.1308 C   0  0  0  0  0  0  0  0  0  0  0  0
  150.5239  142.1100  158.5360 N   0  3  2  0  0  0  0  0  0  0  0  0
  149.4745  141.3483  157.8128 C   0  0  0  0  0  0  0  0  0  0  0  0
  148.4191  142.2688  157.1695 C   0  0  0  0  0  0  0  0  0  0  0  0
  147.8788  143.2205  158.1328 N   0  0  0  0  0  0  0  0  0  0  0  0
  146.9530  142.9298  159.0609 C   0  0  0  0  0  0  0  0  0  0  0  0
  146.4794  141.8015  159.2017 O   0  0  0  0  0  0  0  0  0  0  0  0
  146.4972  144.0901  159.9596 C   0  0  2  0  0  0  0  0  0  0  0  0
  147.6507  144.6800  160.7959 C   0  0  0  0  0  0  0  0  0  0  0  0
  145.3741  143.6739  160.7904 N   0  0  0  0  0  0  0  0  0  0  0  0
  145.2145  143.7416  162.1140 C   0  0  0  0  0  0  0  0  0  0  0  0
  144.0363  143.3067  162.5378 N   0  0  0  0  0  0  0  0  0  0  0  0
  143.4734  142.9690  161.3399 C   0  0  0  0  0  0  0  0  0  0  0  0
  144.2272  143.1795  160.2609 N   0  0  0  0  0  0  0  0  0  0  0  0
  151.1422  143.1797  157.7082 C   0  0  0  0  0  0  0  0  0  0  0  0
  153.3305  144.7347  156.8546 H   0  0  0  0  0  0  0  0  0  0  0  0
  153.4239  145.7641  158.2812 H   0  0  0  0  0  0  0  0  0  0  0  0
  151.9880  145.7985  157.2661 H   0  0  0  0  0  0  0  0  0  0  0  0
  151.5665  144.5083  159.3393 H   0  0  0  0  0  0  0  0  0  0  0  0
  153.8292  142.6987  158.3869 H   0  0  0  0  0  0  0  0  0  0  0  0
  153.8604  143.7297  159.7995 H   0  0  0  0  0  0  0  0  0  0  0  0
  151.9969  142.4751  160.8141 H   0  0  0  0  0  0  0  0  0  0  0  0
  154.1969  140.5838  159.8548 H   0  0  0  0  0  0  0  0  0  0  0  0
  153.1424  140.3234  161.2421 H   0  0  0  0  0  0  0  0  0  0  0  0
  154.2961  141.6508  161.2533 H   0  0  0  0  0  0  0  0  0  0  0  0
  152.0779  140.6878  158.3346 H   0  0  0  0  0  0  0  0  0  0  0  0
  151.0670  140.4638  159.7491 H   0  0  0  0  0  0  0  0  0  0  0  0
  149.9422  140.7008  157.0695 H   0  0  0  0  0  0  0  0  0  0  0  0
  148.9593  140.6879  158.5119 H   0  0  0  0  0  0  0  0  0  0  0  0
  148.8689  142.8332  156.3522 H   0  0  0  0  0  0  0  0  0  0  0  0
  147.5976  141.6983  156.7357 H   0  0  0  0  0  0  0  0  0  0  0  0
  148.2179  144.1705  158.0800 H   0  0  0  0  0  0  0  0  0  0  0  0
  146.1347  144.8865  159.3071 H   0  0  0  0  0  0  0  0  0  0  0  0
  148.4605  145.0313  160.1556 H   0  0  0  0  0  0  0  0  0  0  0  0
  148.0710  143.9509  161.4897 H   0  0  0  0  0  0  0  0  0  0  0  0
  147.3062  145.5319  161.3829 H   0  0  0  0  0  0  0  0  0  0  0  0
  145.9746  144.1201  162.7814 H   0  0  0  0  0  0  0  0  0  0  0  0
  142.4760  142.5623  161.2602 H   0  0  0  0  0  0  0  0  0  0  0  0
  150.3702  143.8302  157.2987 H   0  0  0  0  0  0  0  0  0  0  0  0
  151.6559  142.7288  156.8572 H   0  0  0  0  0  0  0  0  0  0  0  0
  150.0648  142.5646  159.3122 H   0  0  0  0  0  0  0  0  0  0  0  0
  1  2  1  0  0  0  0
  1 21  1  0  0  0  0
  1 22  1  0  0  0  0
  1 23  1  0  0  0  0
  2 20  1  0  0  0  0
  2  3  1  0  0  0  0
  2 24  1  0  0  0  0
  3  4  1  0  0  0  0
  3 25  1  0  0  0  0
  3 26  1  0  0  0  0
  4  5  1  0  0  0  0
  4  6  1  0  0  0  0
  4 27  1  0  0  0  0
  5 28  1  0  0  0  0
  5 29  1  0  0  0  0
  5 30  1  0  0  0  0
  6  7  1  0  0  0  0
  6 31  1  0  0  0  0
  6 32  1  0  0  0  0
  7  8  1  0  0  0  0
  7 20  1  0  0  0  0
  7 46  1  0  0  0  0
  8  9  1  0  0  0  0
  8 33  1  0  0  0  0
  8 34  1  0  0  0  0
  9 10  1  0  0  0  0
  9 35  1  0  0  0  0
  9 36  1  0  0  0  0
 10 11  1  0  0  0  0
 10 37  1  0  0  0  0
 11 12  2  0  0  0  0
 11 13  1  0  0  0  0
 13 14  1  0  0  0  0
 13 15  1  0  0  0  0
 13 38  1  0  0  0  0
 14 39  1  0  0  0  0
 14 40  1  0  0  0  0
 14 41  1  0  0  0  0
 15 19  1  0  0  0  0
 15 16  1  0  0  0  0
 16 17  2  0  0  0  0
 16 42  1  0  0  0  0
 17 18  1  0  0  0  0
 18 19  2  0  0  0  0
 18 43  1  0  0  0  0
 20 44  1  0  0  0  0
 20 45  1  0  0  0  0
M  CHG  1   7   1
M  END
> <s_m_source_file>
AV-unprocessed.smi

> <i_m_source_file_index>
3337

> <i_lp_mmshare_version>
43012

> <i_f3d_flags>
0

> <s_epik_input>
W0NIM11bQ0BASF0xW0NIMl1bQ0BASF0oW0NIM10pW0NIMl1OKFtDSDJdMSlbQ0gyXVtDSDJdW05IXUMoPU8pW0NASF0oW0NIM10pbjJbY0hdbltjSF1uMg==

> <s_epik_cmdline>
J2VwaWtfcHl0aG9uJywgJy1waCcsICc3LjAnLCAnLXRuJywgJzgnLCAnLW1hJywgJzIwMCcsICctbWV0YWxfYmluZGluZycsICctaW1hZScsICc8aW5maWxlLm1hZT4nLCAnLW9tYWUnLCAnPG91dGZpbGUubWFlPic=

> <r_lp_tautomer_probability>
1

> <r_epik_Ionization_Penalty>
0.00175613

> <r_epik_Ionization_Penalty_Charging>
0.00174812

> <r_epik_Ionization_Penalty_Neutral>
8.01354e-06

> <r_epik_State_Penalty>
0.00118332

> <r_epik_Charging_Adjusted_Penalty>
0.00293143

> <i_epik_Tot_Q>
1

> <i_epik_Tot_abs_Q>
1

> <r_epik_Metal_State_Penalty>
-0

> <b_epik_Metal_Only>
0

> <s_lp_Force_Field>
OPLS_2005

> <r_lp_Energy>
22.1479

> <b_lp_Chiralities_Consistent>
1

> <s_lp_Variant>
AV-unprocessed.smi:3337-3

> <Gold.Version>
5.8.1

> <Gold.Id.Protein>
6NUR|6NUR_protein|mol2

> <Gold.PLP.Fitness>
45.5148

> <Gold.PLP.PLP>
-40.5771

> <Gold.PLP.part.hbond>
-3.1343

> <Gold.PLP.part.metal>
0.0000

> <Gold.PLP.part.buried>
-5.6152

> <Gold.PLP.part.nonpolar>
-32.1635

> <Gold.PLP.part.repulsive>
0.3275

> <Gold.PLP.ligand.clash>
0.0000

> <Gold.PLP.ligand.torsion>
0.2515

> <Gold.PLP.Chemscore.Hbond>
1.7760

> <Gold.PLP.Chemscore.CHOScore>
0.0000

> <Gold.PLP.Chemscore.Metal>
0.0000

> <Gold.Chemscore.Hbonds>
donor molecule, donor type, donor heavy atom, donor atom, acceptor molecule, acceptor atom, score
      L1  H    10    37       P1  8029  0.78
      P1  H  6934  6946       L1    12  0.86

> <Gold.PLP.Chemscore.Internal.Correction>
0.1128

> <Gold.Rescore>
     Score         DG    S(hbond)    S(metal)    S(lipo)     H(rot)  DE(clash)    DE(int)     intcor
     11.81     -13.83       1.19        0.00      92.48       2.51       0.47       1.56       ----

> <Gold.Chemscore.Fitness>
11.8076

> <Gold.Chemscore.DG>
-13.8330

> <Gold.Chemscore.ZeroCoef>
-5.4800

> <Gold.Chemscore.Hbond>
1.1873

> <Gold.Chemscore.Metal>
0.0000

> <Gold.Chemscore.Lipo>
92.4826

> <Gold.Chemscore.Internal_Hbond>
0.0000

> <Gold.Chemscore.DEClash>
0.4702

> <Gold.Chemscore.DEInternal>
1.5552

> <Gold.Chemscore.Rot>
2.5129

> <Gold.Chemscore.Internal.Correction>
   9.000000E+99

> <Gold.Chemscore.Hbonds>
donor molecule, donor type, donor heavy atom, donor atom, acceptor molecule, acceptor atom, score
      L1  H    10    37       P1  8029  0.15
      P1  H  6934  6946       L1    12  0.82

> <Gold.Chemscore.Hbond.Weighted>
-3.9656

> <Gold.Chemscore.Metal.Weighted>
-0.0000

> <Gold.Chemscore.Lipo.Weighted>
-10.8205

> <Gold.Chemscore.Internal_Hbond.Weighted>
0.0000

> <Gold.Chemscore.DEClash.Weighted>
0.4702

> <Gold.Chemscore.DEInternal.Weighted>
1.5552

> <Gold.Chemscore.Rot.Weighted>
6.4331

> <Gold.Chemscore.Internal.Correction.Weighted>
   9.000000E+99

> <Gold.Protein.RotatedTorsions>
[ 6907 6896 6895 6894 ] final -125.99 input  -60.11 | X-H torsion
[ 7974 7965 7964 7962 ] final   11.26 input  175.53 | X-H torsion
[ 8008 7997 7996 7995 ] final  -87.40 input   59.86 | X-H torsion
[ 10167 10162 10161 10158 ] final   30.80 input  -65.29 | X-H torsion
[ 10718 10713 10712 10709 ] final -139.59 input   66.30 | X-H torsion
[ 10763 10752 10751 10750 ] final  -71.77 input  -60.55 | X-H torsion
[ 11005 11000 10999 10996 ] final -108.15 input  -57.11 | X-H torsion

> <Gold.Protein.ActiveResidues>
 VAL166  LYS551  ARG553  GLY616  TRP617  ASP618  TYR619  PRO620  LYS621  CYS622 
 ASP623  PHE694  ASN695  SER759  ASP760  ASP761  ALA762  ILE779  LEU786  VAL792 
 PHE793  MET794  SER795  GLU796  ALA797  LYS798  CYS799  TRP800  GLU811  SER814 

> <Gold.Protein.RotatedAtoms>
  150.8923  133.7227  159.2901 H   0  0  0  0  0  0  0  0  0  0  0  0  # atno 6907 bound_to 6896
  151.4773  135.1048  159.9777 H   0  0  0  0  0  0  0  0  0  0  0  0  # atno 6908 bound_to 6896
  152.4827  133.8248  159.7128 H   0  0  0  0  0  0  0  0  0  0  0  0  # atno 6909 bound_to 6896
  146.2374  139.9512  142.8470 H   0  0  0  0  0  0  0  0  0  0  0  0  # atno 7974 bound_to 7965
  154.6628  140.0566  157.0080 H   0  0  0  0  0  0  0  0  0  0  0  0  # atno 8008 bound_to 7997
  155.1204  140.3247  155.4480 H   0  0  0  0  0  0  0  0  0  0  0  0  # atno 8009 bound_to 7997
  156.2625  140.1998  156.6326 H   0  0  0  0  0  0  0  0  0  0  0  0  # atno 8010 bound_to 7997
  140.4646  144.0855  150.6221 H   0  0  0  0  0  0  0  0  0  0  0  0  # atno 10167 bound_to 10162
  156.3125  130.7490  151.1569 H   0  0  0  0  0  0  0  0  0  0  0  0  # atno 10718 bound_to 10713
  154.4364  135.5951  153.6101 H   0  0  0  0  0  0  0  0  0  0  0  0  # atno 10763 bound_to 10752
  152.9802  135.5987  154.3776 H   0  0  0  0  0  0  0  0  0  0  0  0  # atno 10764 bound_to 10752
  154.3620  135.2841  155.2293 H   0  0  0  0  0  0  0  0  0  0  0  0  # atno 10765 bound_to 10752
  141.0916  133.9044  157.2061 H   0  0  0  0  0  0  0  0  0  0  0  0  # atno 11005 bound_to 11000
  145.1860  140.9789  143.4238 LP  0  0  0  0  0  0  0  0  0  0  0  0  # atno 17320 bound_to 7965
  144.9900  139.3699  143.6220 LP  0  0  0  0  0  0  0  0  0  0  0  0  # atno 17321 bound_to 7965
  140.4052  143.2684  151.9899 LP  0  0  0  0  0  0  0  0  0  0  0  0  # atno 17342 bound_to 10162
  139.4810  144.5963  151.7684 LP  0  0  0  0  0  0  0  0  0  0  0  0  # atno 17343 bound_to 10162
  157.7394  131.0529  150.5233 LP  0  0  0  0  0  0  0  0  0  0  0  0  # atno 17370 bound_to 10713
  156.5374  130.4199  149.6171 LP  0  0  0  0  0  0  0  0  0  0  0  0  # atno 17371 bound_to 10713
  139.9744  135.0118  156.9593 LP  0  0  0  0  0  0  0  0  0  0  0  0  # atno 17394 bound_to 11000
  140.5237  134.0882  155.7298 LP  0  0  0  0  0  0  0  0  0  0  0  0  # atno 17395 bound_to 11000

$$$$
