AV-unprocessed.smi:3311|AV-procd|sdf|12719|dock3
  -GOLD-   2272019 53D 1   1.00000     0.00000
 Structure written by MMmdl.
 44 45  0  0  0  0  0  0  0  0  2 V2000
  147.0717  142.0920  155.2763 C   0  0  0  0  0  0  0  0  0  0  0  0
  148.2934  141.1905  155.5192 C   0  0  2  0  0  0  0  0  0  0  0  0
  149.3941  142.0196  156.0616 N   0  3  0  0  0  0  0  0  0  0  0  0
  149.4624  142.0847  157.5375 C   0  0  0  0  0  0  0  0  0  0  0  0
  150.6419  142.9523  158.0279 C   0  0  0  0  0  0  0  0  0  0  0  0
  151.1562  143.6347  156.8972 O   0  0  0  0  0  0  0  0  0  0  0  0
  150.1961  143.9810  159.0969 C   0  0  0  0  0  0  0  0  0  0  0  0
  151.3737  144.7676  159.6999 C   0  0  0  0  0  0  0  0  0  0  0  0
  152.4446  143.8255  160.2668 C   0  0  0  0  0  0  0  0  0  0  0  0
  152.9350  142.8438  159.1937 C   0  0  0  0  0  0  0  0  0  0  0  0
  151.7650  142.0473  158.5880 C   0  0  0  0  0  0  0  0  0  0  0  0
  148.7650  140.4486  154.2395 C   0  0  2  0  0  0  0  0  0  0  0  0
  147.6502  139.6272  153.5643 C   0  0  0  0  0  0  0  0  0  0  0  0
  149.9123  139.5911  154.5167 N   0  0  0  0  0  0  0  0  0  0  0  0
  150.0118  138.2231  154.3657 C   0  0  0  0  0  0  0  0  0  0  0  0
  151.2760  137.8620  154.7337 C   0  0  0  0  0  0  0  0  0  0  0  0
  151.8854  139.0926  155.1043 C   0  0  0  0  0  0  0  0  0  0  0  0
  151.0680  140.1245  154.9738 N   0  0  0  0  0  0  0  0  0  0  0  0
  146.1945  141.5126  154.9892 H   0  0  0  0  0  0  0  0  0  0  0  0
  147.2641  142.8224  154.4897 H   0  0  0  0  0  0  0  0  0  0  0  0
  146.8056  142.6399  156.1811 H   0  0  0  0  0  0  0  0  0  0  0  0
  148.0054  140.4466  156.2643 H   0  0  0  0  0  0  0  0  0  0  0  0
  150.2686  141.6342  155.7342 H   0  0  0  0  0  0  0  0  0  0  0  0
  148.5194  142.4807  157.9171 H   0  0  0  0  0  0  0  0  0  0  0  0
  149.5615  141.0726  157.9325 H   0  0  0  0  0  0  0  0  0  0  0  0
  150.4308  143.8968  156.3503 H   0  0  0  0  0  0  0  0  0  0  0  0
  149.4737  144.6829  158.6793 H   0  0  0  0  0  0  0  0  0  0  0  0
  149.6783  143.4583  159.9023 H   0  0  0  0  0  0  0  0  0  0  0  0
  151.8173  145.4107  158.9388 H   0  0  0  0  0  0  0  0  0  0  0  0
  151.0110  145.4299  160.4865 H   0  0  0  0  0  0  0  0  0  0  0  0
  153.2838  144.4048  160.6530 H   0  0  0  0  0  0  0  0  0  0  0  0
  152.0359  143.2712  161.1128 H   0  0  0  0  0  0  0  0  0  0  0  0
  153.4586  143.3903  158.4084 H   0  0  0  0  0  0  0  0  0  0  0  0
  153.6640  142.1579  159.6262 H   0  0  0  0  0  0  0  0  0  0  0  0
  151.3517  141.3980  159.3611 H   0  0  0  0  0  0  0  0  0  0  0  0
  152.1402  141.3830  157.8081 H   0  0  0  0  0  0  0  0  0  0  0  0
  149.0979  141.1968  153.5180 H   0  0  0  0  0  0  0  0  0  0  0  0
  146.8500  140.2646  153.1893 H   0  0  0  0  0  0  0  0  0  0  0  0
  147.2087  138.9075  154.2542 H   0  0  0  0  0  0  0  0  0  0  0  0
  148.0389  139.0711  152.7105 H   0  0  0  0  0  0  0  0  0  0  0  0
  149.1852  137.6255  154.0100 H   0  0  0  0  0  0  0  0  0  0  0  0
  151.7010  136.8693  154.7389 H   0  0  0  0  0  0  0  0  0  0  0  0
  152.8899  139.2660  155.4612 H   0  0  0  0  0  0  0  0  0  0  0  0
  149.3045  142.9580  155.6999 H   0  0  0  0  0  0  0  0  0  0  0  0
  1  2  1  0  0  0  0
  1 19  1  0  0  0  0
  1 20  1  0  0  0  0
  1 21  1  0  0  0  0
  2  3  1  0  0  0  0
  2 12  1  0  0  0  0
  2 22  1  0  0  0  0
  3  4  1  0  0  0  0
  3 23  1  0  0  0  0
  3 44  1  0  0  0  0
  4  5  1  0  0  0  0
  4 24  1  0  0  0  0
  4 25  1  0  0  0  0
  5 11  1  0  0  0  0
  5  6  1  0  0  0  0
  5  7  1  0  0  0  0
  6 26  1  0  0  0  0
  7  8  1  0  0  0  0
  7 27  1  0  0  0  0
  7 28  1  0  0  0  0
  8  9  1  0  0  0  0
  8 29  1  0  0  0  0
  8 30  1  0  0  0  0
  9 10  1  0  0  0  0
  9 31  1  0  0  0  0
  9 32  1  0  0  0  0
 10 11  1  0  0  0  0
 10 33  1  0  0  0  0
 10 34  1  0  0  0  0
 11 35  1  0  0  0  0
 11 36  1  0  0  0  0
 12 13  1  0  0  0  0
 12 14  1  0  0  0  0
 12 37  1  0  0  0  0
 13 38  1  0  0  0  0
 13 39  1  0  0  0  0
 13 40  1  0  0  0  0
 14 18  1  0  0  0  0
 14 15  1  0  0  0  0
 15 16  2  0  0  0  0
 15 41  1  0  0  0  0
 16 17  1  0  0  0  0
 16 42  1  0  0  0  0
 17 18  2  0  0  0  0
 17 43  1  0  0  0  0
M  CHG  1   3   1
M  END
> <s_m_source_file>
AV-unprocessed.smi

> <i_m_source_file_index>
3311

> <i_lp_mmshare_version>
43012

> <i_f3d_flags>
0

> <s_epik_input>
bjFbY0hdW2NIXVtjSF1uMVtDQEBIXShbQ0gzXSlbQ0BIXShbQ0gzXSlbTkhdW0NIMl1DMihbT0hdKVtDSDJdW0NIMl1bQ0gyXVtDSDJdW0NIMl0y

> <s_epik_cmdline>
J2VwaWtfcHl0aG9uJywgJy1waCcsICc3LjAnLCAnLXRuJywgJzgnLCAnLW1hJywgJzIwMCcsICctbWV0YWxfYmluZGluZycsICctaW1hZScsICc8aW5maWxlLm1hZT4nLCAnLW9tYWUnLCAnPG91dGZpbGUubWFlPic=

> <r_lp_tautomer_probability>
1

> <r_epik_Ionization_Penalty>
0.0141403

> <r_epik_Ionization_Penalty_Charging>
0.0141276

> <r_epik_Ionization_Penalty_Neutral>
1.27139e-05

> <r_epik_State_Penalty>
0.0110334

> <r_epik_Charging_Adjusted_Penalty>
0.025161

> <i_epik_Tot_Q>
1

> <i_epik_Tot_abs_Q>
1

> <r_epik_Metal_State_Penalty>
0.0110573

> <b_epik_Metal_Only>
0

> <s_lp_Force_Field>
OPLS_2005

> <r_lp_Energy>
21.8269

> <b_lp_Chiralities_Consistent>
1

> <s_lp_Variant>
AV-unprocessed.smi:3311-1

> <Gold.Version>
5.8.1

> <Gold.Id.Protein>
6NUR|6NUR_protein|mol2

> <Gold.PLP.Fitness>
52.9478

> <Gold.PLP.PLP>
-40.9552

> <Gold.PLP.part.hbond>
-3.0000

> <Gold.PLP.part.metal>
0.0000

> <Gold.PLP.part.buried>
-4.2919

> <Gold.PLP.part.nonpolar>
-34.5787

> <Gold.PLP.part.repulsive>
0.1448

> <Gold.PLP.ligand.clash>
0.0000

> <Gold.PLP.ligand.torsion>
1.5372

> <Gold.PLP.Chemscore.Hbond>
4.0000

> <Gold.PLP.Chemscore.CHOScore>
1.0000

> <Gold.PLP.Chemscore.Metal>
0.0000

> <Gold.Chemscore.Hbonds>
donor molecule, donor type, donor heavy atom, donor atom, acceptor molecule, acceptor atom, score
      L1  H     3    44       P1  8028  2.00
      L1  H     6    26       P1  8028  1.00
      P1  H  7989  7998       L1    18  1.00
      L1  C    15    41       P1  7948  0.93

> <Gold.PLP.Chemscore.Internal.Correction>
0.0671

> <Gold.Rescore>
     Score         DG    S(hbond)    S(metal)    S(lipo)     H(rot)  DE(clash)    DE(int)     intcor
     20.25     -22.39       2.94        0.00     107.35       2.14       0.05       2.09       ----

> <Gold.Chemscore.Fitness>
20.2459

> <Gold.Chemscore.DG>
-22.3867

> <Gold.Chemscore.ZeroCoef>
-5.4800

> <Gold.Chemscore.Hbond>
2.9434

> <Gold.Chemscore.Metal>
0.0000

> <Gold.Chemscore.Lipo>
107.3548

> <Gold.Chemscore.Internal_Hbond>
0.0000

> <Gold.Chemscore.DEClash>
0.0509

> <Gold.Chemscore.DEInternal>
2.0899

> <Gold.Chemscore.Rot>
2.1424

> <Gold.Chemscore.Internal.Correction>
   9.000000E+99

> <Gold.Chemscore.Hbonds>
donor molecule, donor type, donor heavy atom, donor atom, acceptor molecule, acceptor atom, score
      L1  H     3    44       P1  8028  0.99
      L1  H     6    26       P1  8028  1.00
      P1  H  7989  7998       L1    18  0.09

> <Gold.Chemscore.Hbond.Weighted>
-9.8308

> <Gold.Chemscore.Metal.Weighted>
-0.0000

> <Gold.Chemscore.Lipo.Weighted>
-12.5605

> <Gold.Chemscore.Internal_Hbond.Weighted>
0.0000

> <Gold.Chemscore.DEClash.Weighted>
0.0509

> <Gold.Chemscore.DEInternal.Weighted>
2.0899

> <Gold.Chemscore.Rot.Weighted>
5.4846

> <Gold.Chemscore.Internal.Correction.Weighted>
   9.000000E+99

> <Gold.Protein.RotatedTorsions>
[ 6907 6896 6895 6894 ] final  -35.37 input  -60.11 | X-H torsion
[ 7974 7965 7964 7962 ] final  136.22 input  175.53 | X-H torsion
[ 8008 7997 7996 7995 ] final  -98.99 input   59.86 | X-H torsion
[ 10167 10162 10161 10158 ] final -139.58 input  -65.29 | X-H torsion
[ 10718 10713 10712 10709 ] final   84.80 input   66.30 | X-H torsion
[ 10763 10752 10751 10750 ] final -146.18 input  -60.55 | X-H torsion
[ 11005 11000 10999 10996 ] final  129.77 input  -57.11 | X-H torsion

> <Gold.Protein.ActiveResidues>
 VAL166  LYS551  ARG553  GLY616  TRP617  ASP618  TYR619  PRO620  LYS621  CYS622 
 ASP623  PHE694  ASN695  SER759  ASP760  ASP761  ALA762  ILE779  LEU786  VAL792 
 PHE793  MET794  SER795  GLU796  ALA797  LYS798  CYS799  TRP800  GLU811  SER814 

> <Gold.Protein.RotatedAtoms>
  151.0407  134.9605  159.8159 H   0  0  0  0  0  0  0  0  0  0  0  0  # atno 6907 bound_to 6896
  152.5363  134.2662  159.8964 H   0  0  0  0  0  0  0  0  0  0  0  0  # atno 6908 bound_to 6896
  151.2674  133.4229  159.2653 H   0  0  0  0  0  0  0  0  0  0  0  0  # atno 6909 bound_to 6896
  144.9586  139.4735  143.5490 H   0  0  0  0  0  0  0  0  0  0  0  0  # atno 7974 bound_to 7965
  154.8087  140.0451  157.1326 H   0  0  0  0  0  0  0  0  0  0  0  0  # atno 8008 bound_to 7997
  154.9394  140.3050  155.5108 H   0  0  0  0  0  0  0  0  0  0  0  0  # atno 8009 bound_to 7997
  156.2969  140.2308  156.4462 H   0  0  0  0  0  0  0  0  0  0  0  0  # atno 8010 bound_to 7997
  139.8366  143.7377  152.2664 H   0  0  0  0  0  0  0  0  0  0  0  0  # atno 10167 bound_to 10162
  157.6904  131.0148  150.2727 H   0  0  0  0  0  0  0  0  0  0  0  0  # atno 10718 bound_to 10713
  154.8348  135.3393  154.6622 H   0  0  0  0  0  0  0  0  0  0  0  0  # atno 10763 bound_to 10752
  153.7238  135.6956  153.5011 H   0  0  0  0  0  0  0  0  0  0  0  0  # atno 10764 bound_to 10752
  153.2362  135.4400  155.0602 H   0  0  0  0  0  0  0  0  0  0  0  0  # atno 10765 bound_to 10752
  139.9634  134.9597  156.9196 H   0  0  0  0  0  0  0  0  0  0  0  0  # atno 11005 bound_to 11000
  146.3346  139.8721  142.8838 LP  0  0  0  0  0  0  0  0  0  0  0  0  # atno 17320 bound_to 7965
  145.2734  141.0116  143.3759 LP  0  0  0  0  0  0  0  0  0  0  0  0  # atno 17321 bound_to 7965
  139.7601  144.7509  151.0377 LP  0  0  0  0  0  0  0  0  0  0  0  0  # atno 17342 bound_to 10162
  140.7802  143.4761  151.0081 LP  0  0  0  0  0  0  0  0  0  0  0  0  # atno 17343 bound_to 10162
  156.3287  130.3797  149.7510 LP  0  0  0  0  0  0  0  0  0  0  0  0  # atno 17370 bound_to 10713
  156.5056  130.8149  151.3149 LP  0  0  0  0  0  0  0  0  0  0  0  0  # atno 17371 bound_to 10713
  140.5450  134.0682  155.7352 LP  0  0  0  0  0  0  0  0  0  0  0  0  # atno 17394 bound_to 11000
  141.1312  133.9298  157.2531 LP  0  0  0  0  0  0  0  0  0  0  0  0  # atno 17395 bound_to 11000

$$$$
