AV-unprocessed.smi:1933|AV-procd|sdf|7822|dock7
  -GOLD-   22720 9563D 1   1.00000     0.00000
 Structure written by MMmdl.
 48 50  0  0  0  0  0  0  0  0  2 V2000
  145.0256  137.7157  151.8156 O   0  0  0  0  0  0  0  0  0  0  0  0
  146.2056  137.3833  151.7027 C   0  0  0  0  0  0  0  0  0  0  0  0
  147.2331  138.2211  151.9044 N   0  0  0  0  0  0  0  0  0  0  0  0
  147.1176  139.6288  152.2730 C   0  0  0  0  0  0  0  0  0  0  0  0
  146.7547  139.8286  153.7694 C   0  0  1  0  0  0  0  0  0  0  0  0
  147.9737  139.7258  154.7306 C   0  0  1  0  0  0  0  0  0  0  0  0
  148.7093  138.3959  154.6634 C   0  0  0  0  0  0  0  0  0  0  0  0
  150.0464  138.7362  155.3062 C   0  0  0  0  0  0  0  0  0  0  0  0
  150.3325  140.0533  154.8601 O   0  0  0  0  0  0  0  0  0  0  0  0
  149.1296  140.7004  154.4553 C   0  0  0  0  0  0  0  0  0  0  0  0
  146.0367  141.1193  153.9990 N   0  3  0  0  0  0  0  0  0  0  0  0
  145.5011  141.3380  155.3673 C   0  0  0  0  0  0  0  0  0  0  0  0
  144.6383  142.6103  155.3945 C   0  0  0  0  0  0  0  0  0  0  0  0
  145.4152  143.7203  154.9597 O   0  0  0  0  0  0  0  0  0  0  0  0
  145.8765  143.5615  153.6229 C   0  0  0  0  0  0  0  0  0  0  0  0
  146.7748  142.3164  153.5276 C   0  0  0  0  0  0  0  0  0  0  0  0
  146.6391  136.1565  151.3632 N   0  0  0  0  0  0  0  0  0  0  0  0
  145.8637  135.0084  151.0488 C   0  0  0  0  0  0  0  0  0  0  0  0
  146.5846  133.7938  151.0000 C   0  0  0  0  0  0  0  0  0  0  0  0
  145.9064  132.5973  150.6965 C   0  0  0  0  0  0  0  0  0  0  0  0
  144.5229  132.6460  150.4492 C   0  0  0  0  0  0  0  0  0  0  0  0
  143.8815  133.8965  150.5162 C   0  0  0  0  0  0  0  0  0  0  0  0
  144.5294  135.0443  150.8069 N   0  0  0  0  0  0  0  0  0  0  0  0
  148.1678  137.8564  151.7929 H   0  0  0  0  0  0  0  0  0  0  0  0
  148.0458  140.1556  152.0472 H   0  0  0  0  0  0  0  0  0  0  0  0
  146.3521  140.0619  151.6298 H   0  0  0  0  0  0  0  0  0  0  0  0
  146.0637  139.0334  154.0543 H   0  0  0  0  0  0  0  0  0  0  0  0
  147.6442  139.8785  155.7594 H   0  0  0  0  0  0  0  0  0  0  0  0
  148.1922  137.5902  155.1856 H   0  0  0  0  0  0  0  0  0  0  0  0
  148.8605  138.0917  153.6264 H   0  0  0  0  0  0  0  0  0  0  0  0
  149.9576  138.7425  156.3933 H   0  0  0  0  0  0  0  0  0  0  0  0
  150.8374  138.0382  155.0309 H   0  0  0  0  0  0  0  0  0  0  0  0
  149.2118  140.9262  153.3916 H   0  0  0  0  0  0  0  0  0  0  0  0
  149.0080  141.6413  154.9918 H   0  0  0  0  0  0  0  0  0  0  0  0
  144.9025  140.4852  155.6859 H   0  0  0  0  0  0  0  0  0  0  0  0
  146.3175  141.4462  156.0822 H   0  0  0  0  0  0  0  0  0  0  0  0
  143.7553  142.4972  154.7631 H   0  0  0  0  0  0  0  0  0  0  0  0
  144.2837  142.8022  156.4073 H   0  0  0  0  0  0  0  0  0  0  0  0
  145.0287  143.4834  152.9403 H   0  0  0  0  0  0  0  0  0  0  0  0
  146.4364  144.4513  153.3343 H   0  0  0  0  0  0  0  0  0  0  0  0
  147.6739  142.4642  154.1265 H   0  0  0  0  0  0  0  0  0  0  0  0
  147.0950  142.1777  152.4944 H   0  0  0  0  0  0  0  0  0  0  0  0
  147.6391  136.0282  151.3191 H   0  0  0  0  0  0  0  0  0  0  0  0
  147.6473  133.7734  151.1927 H   0  0  0  0  0  0  0  0  0  0  0  0
  146.4391  131.6589  150.6549 H   0  0  0  0  0  0  0  0  0  0  0  0
  143.9682  131.7497  150.2140 H   0  0  0  0  0  0  0  0  0  0  0  0
  142.8206  133.9781  150.3317 H   0  0  0  0  0  0  0  0  0  0  0  0
  145.2261  141.0664  153.3988 H   0  0  0  0  0  0  0  0  0  0  0  0
  1  2  2  0  0  0  0
  2  3  1  0  0  0  0
  2 17  1  0  0  0  0
  3  4  1  0  0  0  0
  3 24  1  0  0  0  0
  4  5  1  0  0  0  0
  4 25  1  0  0  0  0
  4 26  1  0  0  0  0
  5  6  1  0  0  0  0
  5 11  1  0  0  0  0
  5 27  1  0  0  0  0
  6 10  1  0  0  0  0
  6  7  1  0  0  0  0
  6 28  1  0  0  0  0
  7  8  1  0  0  0  0
  7 29  1  0  0  0  0
  7 30  1  0  0  0  0
  8  9  1  0  0  0  0
  8 31  1  0  0  0  0
  8 32  1  0  0  0  0
  9 10  1  0  0  0  0
 10 33  1  0  0  0  0
 10 34  1  0  0  0  0
 11 16  1  0  0  0  0
 11 12  1  0  0  0  0
 11 48  1  0  0  0  0
 12 13  1  0  0  0  0
 12 35  1  0  0  0  0
 12 36  1  0  0  0  0
 13 14  1  0  0  0  0
 13 37  1  0  0  0  0
 13 38  1  0  0  0  0
 14 15  1  0  0  0  0
 15 16  1  0  0  0  0
 15 39  1  0  0  0  0
 15 40  1  0  0  0  0
 16 41  1  0  0  0  0
 16 42  1  0  0  0  0
 17 18  1  0  0  0  0
 17 43  1  0  0  0  0
 18 23  1  0  0  0  0
 18 19  2  0  0  0  0
 19 20  1  0  0  0  0
 19 44  1  0  0  0  0
 20 21  2  0  0  0  0
 20 45  1  0  0  0  0
 21 22  1  0  0  0  0
 21 46  1  0  0  0  0
 22 23  2  0  0  0  0
 22 47  1  0  0  0  0
M  CHG  1  11   1
M  END
> <s_m_source_file>
AV-unprocessed.smi

> <i_m_source_file_index>
1933

> <i_lp_mmshare_version>
43012

> <i_f3d_flags>
0

> <s_epik_input>
bjFbY0hdW2NIXVtjSF1bY0hdYzFbTkhdQyg9TylbTkhdW0NIMl1bQ0BIXShbQ0BASF0yW0NIMl1bQ0gyXU9bQ0gyXTIpTjNbQ0gyXVtDSDJdT1tDSDJdW0NIMl0z

> <s_epik_cmdline>
J2VwaWtfcHl0aG9uJywgJy1waCcsICc3LjAnLCAnLXRuJywgJzgnLCAnLW1hJywgJzIwMCcsICctbWV0YWxfYmluZGluZycsICctaW1hZScsICc8aW5maWxlLm1hZT4nLCAnLW9tYWUnLCAnPG91dGZpbGUubWFlPic=

> <r_epik_Ionization_Penalty>
0.983294

> <r_epik_Ionization_Penalty_Charging>
0.98326

> <r_epik_Ionization_Penalty_Neutral>
3.39688e-05

> <r_epik_State_Penalty>
1.0303

> <r_epik_Charging_Adjusted_Penalty>
2.01356

> <i_epik_Tot_Q>
1

> <i_epik_Tot_abs_Q>
1

> <r_epik_Metal_State_Penalty>
1.0303

> <b_epik_Metal_Only>
0

> <s_lp_Force_Field>
OPLS_2005

> <r_lp_Energy>
40.1163

> <b_lp_Chiralities_Consistent>
1

> <s_lp_Variant>
AV-unprocessed.smi:1933-8

> <Gold.Version>
5.8.1

> <Gold.Id.Protein>
6NUR|6NUR_protein|mol2

> <Gold.PLP.Fitness>
55.3430

> <Gold.PLP.PLP>
-38.9280

> <Gold.PLP.part.hbond>
-3.9436

> <Gold.PLP.part.metal>
0.0000

> <Gold.PLP.part.buried>
-6.2913

> <Gold.PLP.part.nonpolar>
-31.7796

> <Gold.PLP.part.repulsive>
2.1057

> <Gold.PLP.ligand.clash>
0.0000

> <Gold.PLP.ligand.torsion>
0.4778

> <Gold.PLP.Chemscore.Hbond>
4.7280

> <Gold.PLP.Chemscore.CHOScore>
0.9935

> <Gold.PLP.Chemscore.Metal>
0.0000

> <Gold.Chemscore.Hbonds>
donor molecule, donor type, donor heavy atom, donor atom, acceptor molecule, acceptor atom, score
      L1  H     3    24       P1  7948  0.75
      L1  H    11    48       P1 10175  2.00
      L1  H    17    43       P1  7948  0.63
      P1  H  7989  7998       L1     9  0.90
      L1  C    22    47       P1 10186  0.98

> <Gold.PLP.Chemscore.Internal.Correction>
0.2060

> <Gold.Rescore>
     Score         DG    S(hbond)    S(metal)    S(lipo)     H(rot)  DE(clash)    DE(int)     intcor
     19.66     -23.17       3.70        0.00      84.26       1.77       1.66       1.85       ----

> <Gold.Chemscore.Fitness>
19.6638

> <Gold.Chemscore.DG>
-23.1728

> <Gold.Chemscore.ZeroCoef>
-5.4800

> <Gold.Chemscore.Hbond>
3.6999

> <Gold.Chemscore.Metal>
0.0000

> <Gold.Chemscore.Lipo>
84.2631

> <Gold.Chemscore.Internal_Hbond>
0.0000

> <Gold.Chemscore.DEClash>
1.6562

> <Gold.Chemscore.DEInternal>
1.8528

> <Gold.Chemscore.Rot>
1.7671

> <Gold.Chemscore.Internal.Correction>
   9.000000E+99

> <Gold.Chemscore.Hbonds>
donor molecule, donor type, donor heavy atom, donor atom, acceptor molecule, acceptor atom, score
      L1  H     3    24       P1  7948  0.76
      L1  H    11    48       P1 10175  0.50
      L1  H    17    43       P1  7948  0.61
      P1  H  7989  7998       L1     9  0.19

> <Gold.Chemscore.Hbond.Weighted>
-12.3578

> <Gold.Chemscore.Metal.Weighted>
-0.0000

> <Gold.Chemscore.Lipo.Weighted>
-9.8588

> <Gold.Chemscore.Internal_Hbond.Weighted>
0.0000

> <Gold.Chemscore.DEClash.Weighted>
1.6562

> <Gold.Chemscore.DEInternal.Weighted>
1.8528

> <Gold.Chemscore.Rot.Weighted>
4.5238

> <Gold.Chemscore.Internal.Correction.Weighted>
   9.000000E+99

> <Gold.Protein.RotatedTorsions>
[ 6907 6896 6895 6894 ] final   -3.38 input  -60.11 | X-H torsion
[ 7974 7965 7964 7962 ] final  -13.96 input  175.53 | X-H torsion
[ 8008 7997 7996 7995 ] final  171.46 input   59.86 | X-H torsion
[ 10167 10162 10161 10158 ] final   27.46 input  -65.29 | X-H torsion
[ 10718 10713 10712 10709 ] final   23.06 input   66.30 | X-H torsion
[ 10763 10752 10751 10750 ] final -126.08 input  -60.55 | X-H torsion
[ 11005 11000 10999 10996 ] final  -38.55 input  -57.11 | X-H torsion

> <Gold.Protein.ActiveResidues>
 VAL166  LYS551  ARG553  GLY616  TRP617  ASP618  TYR619  PRO620  LYS621  CYS622 
 ASP623  PHE694  ASN695  SER759  ASP760  ASP761  ALA762  ILE779  LEU786  VAL792 
 PHE793  MET794  SER795  GLU796  ALA797  LYS798  CYS799  TRP800  GLU811  SER814 

> <Gold.Protein.RotatedAtoms>
  151.5147  135.1066  159.9862 H   0  0  0  0  0  0  0  0  0  0  0  0  # atno 6907 bound_to 6896
  152.4646  133.7892  159.6903 H   0  0  0  0  0  0  0  0  0  0  0  0  # atno 6908 bound_to 6896
  150.8624  133.7560  159.3013 H   0  0  0  0  0  0  0  0  0  0  0  0  # atno 6909 bound_to 6896
  146.2093  140.3280  142.8396 H   0  0  0  0  0  0  0  0  0  0  0  0  # atno 7974 bound_to 7965
  156.1269  140.1511  156.9123 H   0  0  0  0  0  0  0  0  0  0  0  0  # atno 8008 bound_to 7997
  154.4878  140.0860  156.7568 H   0  0  0  0  0  0  0  0  0  0  0  0  # atno 8009 bound_to 7997
  155.4327  140.3428  155.4284 H   0  0  0  0  0  0  0  0  0  0  0  0  # atno 8010 bound_to 7997
  140.4936  144.0427  150.6306 H   0  0  0  0  0  0  0  0  0  0  0  0  # atno 10167 bound_to 10162
  157.1608  130.6716  149.6043 H   0  0  0  0  0  0  0  0  0  0  0  0  # atno 10718 bound_to 10713
  154.8742  135.4007  154.3373 H   0  0  0  0  0  0  0  0  0  0  0  0  # atno 10763 bound_to 10752
  153.4177  135.7022  153.6320 H   0  0  0  0  0  0  0  0  0  0  0  0  # atno 10764 bound_to 10752
  153.4996  135.3730  155.2503 H   0  0  0  0  0  0  0  0  0  0  0  0  # atno 10765 bound_to 10752
  141.0036  133.6943  156.2068 H   0  0  0  0  0  0  0  0  0  0  0  0  # atno 11005 bound_to 11000
  144.8873  140.7478  143.5949 LP  0  0  0  0  0  0  0  0  0  0  0  0  # atno 17320 bound_to 7965
  145.3201  139.1791  143.4592 LP  0  0  0  0  0  0  0  0  0  0  0  0  # atno 17321 bound_to 7965
  140.3703  143.2858  152.0285 LP  0  0  0  0  0  0  0  0  0  0  0  0  # atno 17342 bound_to 10162
  139.4856  144.6235  151.7210 LP  0  0  0  0  0  0  0  0  0  0  0  0  # atno 17343 bound_to 10162
  155.9754  130.4712  150.6457 LP  0  0  0  0  0  0  0  0  0  0  0  0  # atno 17370 bound_to 10713
  157.4134  131.0827  151.1200 LP  0  0  0  0  0  0  0  0  0  0  0  0  # atno 17371 bound_to 10713
  140.6850  134.4727  157.5589 LP  0  0  0  0  0  0  0  0  0  0  0  0  # atno 17394 bound_to 11000
  139.9051  134.8467  156.1737 LP  0  0  0  0  0  0  0  0  0  0  0  0  # atno 17395 bound_to 11000

$$$$
