AV-unprocessed.smi:1072|AV-procd|sdf|4687|dock10
  -GOLD-   22720 3203D 1   1.00000     0.00000
 Structure written by MMmdl.
 45 46  0  0  0  0  0  0  0  0  2 V2000
  147.4080  137.4101  163.6313 C   0  0  0  0  0  0  0  0  0  0  0  0
  147.4735  136.5201  162.4086 C   0  0  0  0  0  0  0  0  0  0  0  0
  147.2216  135.2725  162.5295 N   0  0  0  0  0  0  0  0  0  0  0  0
  147.2787  134.4426  161.3970 C   0  0  0  0  0  0  0  0  0  0  0  0
  146.9669  132.9748  161.6326 C   0  0  0  0  0  0  0  0  0  0  0  0
  147.5959  134.9447  160.1692 C   0  0  0  0  0  0  0  0  0  0  0  0
  147.6708  134.0824  158.9090 C   0  0  0  0  0  0  0  0  0  0  0  0
  148.7903  134.4314  157.9256 C   0  0  0  0  0  0  0  0  0  0  0  0
  149.8116  134.9928  158.3212 O   0  0  0  0  0  0  0  0  0  0  0  0
  148.5696  134.0908  156.6438 N   0  0  0  0  0  0  0  0  0  0  0  0
  149.4366  134.3013  155.4753 C   0  0  1  0  0  0  0  0  0  0  0  0
  149.8191  135.7936  155.3707 C   0  0  0  0  0  0  0  0  0  0  0  0
  150.7120  133.4202  155.5415 C   0  0  0  0  0  0  0  0  0  0  0  0
  150.3983  131.9138  155.5042 C   0  0  0  0  0  0  0  0  0  0  0  0
  149.5895  131.5386  154.2494 C   0  0  1  0  0  0  0  0  0  0  0  0
  149.2659  130.0382  154.2170 C   0  0  0  0  0  0  0  0  0  0  0  0
  148.3125  132.3942  154.1582 C   0  0  0  0  0  0  0  0  0  0  0  0
  148.6307  133.9011  154.2160 C   0  0  0  0  0  0  0  0  0  0  0  0
  147.8755  136.3886  160.0718 C   0  0  0  0  0  0  0  0  0  0  0  0
  148.1538  136.8958  158.9859 O   0  0  0  0  0  0  0  0  0  0  0  0
  147.8100  137.1243  161.2181 N   0  5  0  0  0  0  0  0  0  0  0  0
  146.9337  136.8944  164.4673 H   0  0  0  0  0  0  0  0  0  0  0  0
  146.8317  138.3108  163.4169 H   0  0  0  0  0  0  0  0  0  0  0  0
  148.4123  137.7065  163.9347 H   0  0  0  0  0  0  0  0  0  0  0  0
  147.8364  132.3581  161.4046 H   0  0  0  0  0  0  0  0  0  0  0  0
  146.1364  132.6522  161.0047 H   0  0  0  0  0  0  0  0  0  0  0  0
  146.6899  132.7923  162.6714 H   0  0  0  0  0  0  0  0  0  0  0  0
  147.7600  133.0263  159.1645 H   0  0  0  0  0  0  0  0  0  0  0  0
  146.7147  134.1593  158.3902 H   0  0  0  0  0  0  0  0  0  0  0  0
  147.6917  133.6310  156.4509 H   0  0  0  0  0  0  0  0  0  0  0  0
  150.3814  135.9937  154.4581 H   0  0  0  0  0  0  0  0  0  0  0  0
  150.4426  136.1168  156.2044 H   0  0  0  0  0  0  0  0  0  0  0  0
  148.9334  136.4298  155.3554 H   0  0  0  0  0  0  0  0  0  0  0  0
  151.3572  133.6609  154.6956 H   0  0  0  0  0  0  0  0  0  0  0  0
  151.3021  133.6487  156.4289 H   0  0  0  0  0  0  0  0  0  0  0  0
  151.3316  131.3500  155.5259 H   0  0  0  0  0  0  0  0  0  0  0  0
  149.8495  131.6279  156.4024 H   0  0  0  0  0  0  0  0  0  0  0  0
  150.2038  131.7615  153.3757 H   0  0  0  0  0  0  0  0  0  0  0  0
  148.6508  129.7465  155.0688 H   0  0  0  0  0  0  0  0  0  0  0  0
  150.1768  129.4396  154.2442 H   0  0  0  0  0  0  0  0  0  0  0  0
  148.7245  129.7724  153.3087 H   0  0  0  0  0  0  0  0  0  0  0  0
  147.7841  132.1717  153.2304 H   0  0  0  0  0  0  0  0  0  0  0  0
  147.6301  132.1280  154.9665 H   0  0  0  0  0  0  0  0  0  0  0  0
  147.7014  134.4708  154.1672 H   0  0  0  0  0  0  0  0  0  0  0  0
  149.1936  134.1714  153.3213 H   0  0  0  0  0  0  0  0  0  0  0  0
  1  2  1  0  0  0  0
  1 22  1  0  0  0  0
  1 23  1  0  0  0  0
  1 24  1  0  0  0  0
  2 21  1  0  0  0  0
  2  3  2  0  0  0  0
  3  4  1  0  0  0  0
  4  5  1  0  0  0  0
  4  6  2  0  0  0  0
  5 25  1  0  0  0  0
  5 26  1  0  0  0  0
  5 27  1  0  0  0  0
  6  7  1  0  0  0  0
  6 19  1  0  0  0  0
  7  8  1  0  0  0  0
  7 28  1  0  0  0  0
  7 29  1  0  0  0  0
  8  9  2  0  0  0  0
  8 10  1  0  0  0  0
 10 11  1  0  0  0  0
 10 30  1  0  0  0  0
 11 18  1  0  0  0  0
 11 12  1  0  0  0  0
 11 13  1  0  0  0  0
 12 31  1  0  0  0  0
 12 32  1  0  0  0  0
 12 33  1  0  0  0  0
 13 14  1  0  0  0  0
 13 34  1  0  0  0  0
 13 35  1  0  0  0  0
 14 15  1  0  0  0  0
 14 36  1  0  0  0  0
 14 37  1  0  0  0  0
 15 16  1  0  0  0  0
 15 17  1  0  0  0  0
 15 38  1  0  0  0  0
 16 39  1  0  0  0  0
 16 40  1  0  0  0  0
 16 41  1  0  0  0  0
 17 18  1  0  0  0  0
 17 42  1  0  0  0  0
 17 43  1  0  0  0  0
 18 44  1  0  0  0  0
 18 45  1  0  0  0  0
 19 20  2  0  0  0  0
 19 21  1  0  0  0  0
M  CHG  1  21  -1
M  END
> <s_m_source_file>
AV-unprocessed.smi

> <i_m_source_file_index>
1072

> <i_lp_mmshare_version>
43012

> <i_f3d_flags>
0

> <s_epik_input>
W0NIM11jMW5jKFtDSDNdKWMoYyg9TylbbkhdMSlbQ0gyXUMoPU8pW05IXVtDQEBdMihbQ0gzXSlbQ0gyXVtDSDJdW0NAQEhdKFtDSDNdKVtDSDJdW0NIMl0y

> <s_epik_cmdline>
J2VwaWtfcHl0aG9uJywgJy1waCcsICc3LjAnLCAnLXRuJywgJzgnLCAnLW1hJywgJzIwMCcsICctbWV0YWxfYmluZGluZycsICctaW1hZScsICc8aW5maWxlLm1hZT4nLCAnLW9tYWUnLCAnPG91dGZpbGUubWFlPic=

> <r_lp_tautomer_probability>
0.839158

> <r_epik_Ionization_Penalty>
6.73882

> <r_epik_Ionization_Penalty_Charging>
8.02239e-08

> <r_epik_Ionization_Penalty_Neutral>
6.73882

> <r_epik_State_Penalty>
4.55873

> <r_epik_Charging_Adjusted_Penalty>
4.55873

> <i_epik_Tot_Q>
-1

> <i_epik_Tot_abs_Q>
1

> <r_epik_Metal_State_Penalty>
0.872514

> <b_epik_Metal_Only>
1

> <s_lp_Force_Field>
OPLS_2005

> <r_lp_Energy>
14.8033

> <b_lp_Chiralities_Consistent>
1

> <s_lp_Variant>
AV-unprocessed.smi:1072-5

> <Gold.Version>
5.8.1

> <Gold.Id.Protein>
6NUR|6NUR_protein|mol2

> <Gold.PLP.Fitness>
45.4756

> <Gold.PLP.PLP>
-33.1858

> <Gold.PLP.part.hbond>
-2.8451

> <Gold.PLP.part.metal>
0.0000

> <Gold.PLP.part.buried>
-3.7966

> <Gold.PLP.part.nonpolar>
-27.4090

> <Gold.PLP.part.repulsive>
0.0273

> <Gold.PLP.ligand.clash>
0.0000

> <Gold.PLP.ligand.torsion>
0.7480

> <Gold.PLP.Chemscore.Hbond>
4.5937

> <Gold.PLP.Chemscore.CHOScore>
0.0000

> <Gold.PLP.Chemscore.Metal>
0.0000

> <Gold.Chemscore.Hbonds>
donor molecule, donor type, donor heavy atom, donor atom, acceptor molecule, acceptor atom, score
      P1  H  6896  6909       L1     9  0.93
      P1  H  6931  6943       L1    21  1.60
      P1  H  6934  6947       L1    21  1.60

> <Gold.PLP.Chemscore.Internal.Correction>
0.0047

> <Gold.Rescore>
     Score         DG    S(hbond)    S(metal)    S(lipo)     H(rot)  DE(clash)    DE(int)     intcor
      9.71     -15.26       1.53        0.00      71.27       1.43       0.30       5.25       ----

> <Gold.Chemscore.Fitness>
9.7056

> <Gold.Chemscore.DG>
-15.2566

> <Gold.Chemscore.ZeroCoef>
-5.4800

> <Gold.Chemscore.Hbond>
1.5297

> <Gold.Chemscore.Metal>
0.0000

> <Gold.Chemscore.Lipo>
71.2658

> <Gold.Chemscore.Internal_Hbond>
0.0000

> <Gold.Chemscore.DEClash>
0.3027

> <Gold.Chemscore.DEInternal>
5.2483

> <Gold.Chemscore.Rot>
1.4339

> <Gold.Chemscore.Internal.Correction>
   9.000000E+99

> <Gold.Chemscore.Hbonds>
donor molecule, donor type, donor heavy atom, donor atom, acceptor molecule, acceptor atom, score
      P1  H  6896  6909       L1     9  0.79
      P1  H  6931  6943       L1    21  0.11
      P1  H  6934  6947       L1    21  0.63

> <Gold.Chemscore.Hbond.Weighted>
-5.1093

> <Gold.Chemscore.Metal.Weighted>
-0.0000

> <Gold.Chemscore.Lipo.Weighted>
-8.3381

> <Gold.Chemscore.Internal_Hbond.Weighted>
0.0000

> <Gold.Chemscore.DEClash.Weighted>
0.3027

> <Gold.Chemscore.DEInternal.Weighted>
5.2483

> <Gold.Chemscore.Rot.Weighted>
3.6708

> <Gold.Chemscore.Internal.Correction.Weighted>
   9.000000E+99

> <Gold.Protein.RotatedTorsions>
[ 6907 6896 6895 6894 ] final   22.29 input  -60.11 | X-H torsion
[ 7974 7965 7964 7962 ] final   18.32 input  175.53 | X-H torsion
[ 8008 7997 7996 7995 ] final -144.63 input   59.86 | X-H torsion
[ 10167 10162 10161 10158 ] final -128.55 input  -65.29 | X-H torsion
[ 10718 10713 10712 10709 ] final   90.68 input   66.30 | X-H torsion
[ 10763 10752 10751 10750 ] final  -89.43 input  -60.55 | X-H torsion
[ 11005 11000 10999 10996 ] final -112.30 input  -57.11 | X-H torsion

> <Gold.Protein.ActiveResidues>
 VAL166  LYS551  ARG553  GLY616  TRP617  ASP618  TYR619  PRO620  LYS621  CYS622 
 ASP623  PHE694  ASN695  SER759  ASP760  ASP761  ALA762  ILE779  LEU786  VAL792 
 PHE793  MET794  SER795  GLU796  ALA797  LYS798  CYS799  TRP800  GLU811  SER814 

> <Gold.Protein.RotatedAtoms>
  151.9249  135.0282  160.0524 H   0  0  0  0  0  0  0  0  0  0  0  0  # atno 6907 bound_to 6896
  152.2168  133.4948  159.5148 H   0  0  0  0  0  0  0  0  0  0  0  0  # atno 6908 bound_to 6896
  150.6989  134.1312  159.4113 H   0  0  0  0  0  0  0  0  0  0  0  0  # atno 6909 bound_to 6896
  146.2189  139.8474  142.8629 H   0  0  0  0  0  0  0  0  0  0  0  0  # atno 7974 bound_to 7965
  155.5300  140.0599  157.2890 H   0  0  0  0  0  0  0  0  0  0  0  0  # atno 8008 bound_to 7997
  154.4487  140.1937  156.0530 H   0  0  0  0  0  0  0  0  0  0  0  0  # atno 8009 bound_to 7997
  156.0659  140.3266  155.7521 H   0  0  0  0  0  0  0  0  0  0  0  0  # atno 8010 bound_to 7997
  139.9491  143.6076  152.2481 H   0  0  0  0  0  0  0  0  0  0  0  0  # atno 10167 bound_to 10162
  157.6959  131.0380  150.3615 H   0  0  0  0  0  0  0  0  0  0  0  0  # atno 10718 bound_to 10713
  154.6552  135.5341  153.7949 H   0  0  0  0  0  0  0  0  0  0  0  0  # atno 10763 bound_to 10752
  153.0409  135.6492  154.0957 H   0  0  0  0  0  0  0  0  0  0  0  0  # atno 10764 bound_to 10752
  154.0870  135.2943  155.3259 H   0  0  0  0  0  0  0  0  0  0  0  0  # atno 10765 bound_to 10752
  141.0683  133.9422  157.2535 H   0  0  0  0  0  0  0  0  0  0  0  0  # atno 11005 bound_to 11000
  145.2836  141.0146  143.3703 LP  0  0  0  0  0  0  0  0  0  0  0  0  # atno 17320 bound_to 7965
  144.9131  139.4504  143.6577 LP  0  0  0  0  0  0  0  0  0  0  0  0  # atno 17321 bound_to 7965
  139.6643  144.7662  151.1904 LP  0  0  0  0  0  0  0  0  0  0  0  0  # atno 17342 bound_to 10162
  140.7588  143.5963  150.8745 LP  0  0  0  0  0  0  0  0  0  0  0  0  # atno 17343 bound_to 10162
  156.4051  130.3923  149.6932 LP  0  0  0  0  0  0  0  0  0  0  0  0  # atno 17370 bound_to 10713
  156.4236  130.7780  151.2798 LP  0  0  0  0  0  0  0  0  0  0  0  0  # atno 17371 bound_to 10713
  139.9498  135.0177  156.8960 LP  0  0  0  0  0  0  0  0  0  0  0  0  # atno 17394 bound_to 11000
  140.5727  134.0428  155.7436 LP  0  0  0  0  0  0  0  0  0  0  0  0  # atno 17395 bound_to 11000

$$$$
