AV-unprocessed.smi:1205|AV-procd|sdf|5044|dock10
  -GOLD-   22720 4 73D 1   1.00000     0.00000
 Structure written by MMmdl.
 49 50  0  0  0  0  0  0  0  0  2 V2000
  150.2945  142.1321  155.8769 C   0  0  0  0  0  0  0  0  0  0  0  0
  150.1248  140.7570  155.3013 C   0  0  0  0  0  0  0  0  0  0  0  0
  148.9102  140.0813  154.9868 C   0  0  0  0  0  0  0  0  0  0  0  0
  149.3499  138.8797  154.5025 C   0  0  0  0  0  0  0  0  0  0  0  0
  148.6202  137.8236  154.0539 N   0  0  0  0  0  0  0  0  0  0  0  0
  147.5119  137.2798  154.5862 C   0  0  0  0  0  0  0  0  0  0  0  0
  146.9270  137.6866  155.5900 O   0  0  0  0  0  0  0  0  0  0  0  0
  147.1081  136.2143  153.8785 N   0  0  0  0  0  0  0  0  0  0  0  0
  145.9270  135.4031  154.1632 C   0  0  0  0  0  0  0  0  0  0  0  0
  144.9202  135.3824  152.9836 C   0  0  1  0  0  0  0  0  0  0  0  0
  145.1533  136.5082  151.9576 C   0  0  0  0  0  0  0  0  0  0  0  0
  144.8570  134.0614  152.2919 N   0  3  1  0  0  0  0  0  0  0  0  0
  143.7568  133.9092  151.3012 C   0  0  0  0  0  0  0  0  0  0  0  0
  143.6248  132.4441  150.8571 C   0  0  0  0  0  0  0  0  0  0  0  0
  144.9546  131.9171  150.2968 C   0  0  0  0  0  0  0  0  0  0  0  0
  146.1115  132.1394  151.2899 C   0  0  2  0  0  0  0  0  0  0  0  0
  146.0657  131.1707  152.4850 C   0  0  0  0  0  0  0  0  0  0  0  0
  146.1639  133.6147  151.7388 C   0  0  0  0  0  0  0  0  0  0  0  0
  150.7279  138.8627  154.5393 N   0  0  0  0  0  0  0  0  0  0  0  0
  151.6612  137.8272  154.1387 C   0  0  0  0  0  0  0  0  0  0  0  0
  151.2015  140.0281  155.0299 N   0  0  0  0  0  0  0  0  0  0  0  0
  149.3355  142.5535  156.1790 H   0  0  0  0  0  0  0  0  0  0  0  0
  150.7402  142.8098  155.1484 H   0  0  0  0  0  0  0  0  0  0  0  0
  150.9393  142.1143  156.7559 H   0  0  0  0  0  0  0  0  0  0  0  0
  147.8981  140.4373  155.1070 H   0  0  0  0  0  0  0  0  0  0  0  0
  148.9666  137.3921  153.2098 H   0  0  0  0  0  0  0  0  0  0  0  0
  147.6520  135.9528  153.0689 H   0  0  0  0  0  0  0  0  0  0  0  0
  146.2314  134.3918  154.4366 H   0  0  0  0  0  0  0  0  0  0  0  0
  145.4575  135.8272  155.0503 H   0  0  0  0  0  0  0  0  0  0  0  0
  143.9279  135.5671  153.3979 H   0  0  0  0  0  0  0  0  0  0  0  0
  144.9792  137.4897  152.3987 H   0  0  0  0  0  0  0  0  0  0  0  0
  144.4722  136.4159  151.1110 H   0  0  0  0  0  0  0  0  0  0  0  0
  146.1717  136.5017  151.5693 H   0  0  0  0  0  0  0  0  0  0  0  0
  142.8102  134.2384  151.7286 H   0  0  0  0  0  0  0  0  0  0  0  0
  143.9482  134.5358  150.4293 H   0  0  0  0  0  0  0  0  0  0  0  0
  143.3037  131.8301  151.6992 H   0  0  0  0  0  0  0  0  0  0  0  0
  142.8447  132.3554  150.1005 H   0  0  0  0  0  0  0  0  0  0  0  0
  144.8660  130.8609  150.0403 H   0  0  0  0  0  0  0  0  0  0  0  0
  145.1785  132.4387  149.3652 H   0  0  0  0  0  0  0  0  0  0  0  0
  147.0402  131.9262  150.7588 H   0  0  0  0  0  0  0  0  0  0  0  0
  145.1783  131.3217  153.0997 H   0  0  0  0  0  0  0  0  0  0  0  0
  146.9365  131.3031  153.1274 H   0  0  0  0  0  0  0  0  0  0  0  0
  146.0635  130.1335  152.1488 H   0  0  0  0  0  0  0  0  0  0  0  0
  146.4344  134.2461  150.8916 H   0  0  0  0  0  0  0  0  0  0  0  0
  146.9520  133.7383  152.4828 H   0  0  0  0  0  0  0  0  0  0  0  0
  151.1450  136.8770  154.0031 H   0  0  0  0  0  0  0  0  0  0  0  0
  152.4269  137.7012  154.9048 H   0  0  0  0  0  0  0  0  0  0  0  0
  152.1387  138.1088  153.2000 H   0  0  0  0  0  0  0  0  0  0  0  0
  144.6511  133.3997  153.0268 H   0  0  0  0  0  0  0  0  0  0  0  0
  1  2  1  0  0  0  0
  1 22  1  0  0  0  0
  1 23  1  0  0  0  0
  1 24  1  0  0  0  0
  2 21  2  0  0  0  0
  2  3  1  0  0  0  0
  3  4  2  0  0  0  0
  3 25  1  0  0  0  0
  4  5  1  0  0  0  0
  4 19  1  0  0  0  0
  5  6  1  0  0  0  0
  5 26  1  0  0  0  0
  6  7  2  0  0  0  0
  6  8  1  0  0  0  0
  8  9  1  0  0  0  0
  8 27  1  0  0  0  0
  9 10  1  0  0  0  0
  9 28  1  0  0  0  0
  9 29  1  0  0  0  0
 10 11  1  0  0  0  0
 10 12  1  0  0  0  0
 10 30  1  0  0  0  0
 11 31  1  0  0  0  0
 11 32  1  0  0  0  0
 11 33  1  0  0  0  0
 12 18  1  0  0  0  0
 12 13  1  0  0  0  0
 12 49  1  0  0  0  0
 13 14  1  0  0  0  0
 13 34  1  0  0  0  0
 13 35  1  0  0  0  0
 14 15  1  0  0  0  0
 14 36  1  0  0  0  0
 14 37  1  0  0  0  0
 15 16  1  0  0  0  0
 15 38  1  0  0  0  0
 15 39  1  0  0  0  0
 16 17  1  0  0  0  0
 16 18  1  0  0  0  0
 16 40  1  0  0  0  0
 17 41  1  0  0  0  0
 17 42  1  0  0  0  0
 17 43  1  0  0  0  0
 18 44  1  0  0  0  0
 18 45  1  0  0  0  0
 19 20  1  0  0  0  0
 19 21  1  0  0  0  0
 20 46  1  0  0  0  0
 20 47  1  0  0  0  0
 20 48  1  0  0  0  0
M  CHG  1  12   1
M  END
> <s_m_source_file>
AV-unprocessed.smi

> <i_m_source_file_index>
1205

> <i_lp_mmshare_version>
43012

> <i_f3d_flags>
0

> <s_epik_input>
W0NIM11jMVtjSF1jKG4objEpW0NIM10pW05IXUMoPU8pW05IXVtDSDJdW0NASF0oW0NIM10pTjJbQ0gyXVtDSDJdW0NIMl1bQ0BASF0oW0NIM10pW0NIMl0y

> <s_epik_cmdline>
J2VwaWtfcHl0aG9uJywgJy1waCcsICc3LjAnLCAnLXRuJywgJzgnLCAnLW1hJywgJzIwMCcsICctbWV0YWxfYmluZGluZycsICctaW1hZScsICc8aW5maWxlLm1hZT4nLCAnLW9tYWUnLCAnPG91dGZpbGUubWFlPic=

> <r_lp_tautomer_probability>
1

> <r_epik_Ionization_Penalty>
0.0020309

> <r_epik_Ionization_Penalty_Charging>
0.00195276

> <r_epik_Ionization_Penalty_Neutral>
7.81448e-05

> <r_epik_State_Penalty>
0.00133177

> <r_epik_Charging_Adjusted_Penalty>
0.00328452

> <i_epik_Tot_Q>
1

> <i_epik_Tot_abs_Q>
1

> <r_epik_Metal_State_Penalty>
-0

> <b_epik_Metal_Only>
0

> <s_lp_Force_Field>
OPLS_2005

> <r_lp_Energy>
25.114

> <b_lp_Chiralities_Consistent>
1

> <s_lp_Variant>
AV-unprocessed.smi:1205-6

> <Gold.Version>
5.8.1

> <Gold.Id.Protein>
6NUR|6NUR_protein|mol2

> <Gold.PLP.Fitness>
41.5964

> <Gold.PLP.PLP>
-34.7475

> <Gold.PLP.part.hbond>
-3.0000

> <Gold.PLP.part.metal>
0.0000

> <Gold.PLP.part.buried>
-3.6264

> <Gold.PLP.part.nonpolar>
-28.6531

> <Gold.PLP.part.repulsive>
0.0661

> <Gold.PLP.ligand.clash>
0.0000

> <Gold.PLP.ligand.torsion>
1.0596

> <Gold.PLP.Chemscore.Hbond>
2.9500

> <Gold.PLP.Chemscore.CHOScore>
0.0000

> <Gold.PLP.Chemscore.Metal>
0.0000

> <Gold.Chemscore.Hbonds>
donor molecule, donor type, donor heavy atom, donor atom, acceptor molecule, acceptor atom, score
      L1  H     5    26       P1  7948  1.00
      L1  H     8    27       P1  7948  1.00
      P1  H  7989  7998       L1    21  0.85

> <Gold.PLP.Chemscore.Internal.Correction>
0.1181

> <Gold.Rescore>
     Score         DG    S(hbond)    S(metal)    S(lipo)     H(rot)  DE(clash)    DE(int)     intcor
     17.17     -18.24       1.98        0.00      84.51       1.47       0.06       1.01       ----

> <Gold.Chemscore.Fitness>
17.1733

> <Gold.Chemscore.DG>
-18.2442

> <Gold.Chemscore.ZeroCoef>
-5.4800

> <Gold.Chemscore.Hbond>
1.9849

> <Gold.Chemscore.Metal>
0.0000

> <Gold.Chemscore.Lipo>
84.5057

> <Gold.Chemscore.Internal_Hbond>
0.0000

> <Gold.Chemscore.DEClash>
0.0560

> <Gold.Chemscore.DEInternal>
1.0148

> <Gold.Chemscore.Rot>
1.4658

> <Gold.Chemscore.Internal.Correction>
   9.000000E+99

> <Gold.Chemscore.Hbonds>
donor molecule, donor type, donor heavy atom, donor atom, acceptor molecule, acceptor atom, score
      L1  H     5    26       P1  7948  0.99
      L1  H     8    27       P1  7948  0.98
      P1  H  7989  7998       L1    21  0.04

> <Gold.Chemscore.Hbond.Weighted>
-6.6296

> <Gold.Chemscore.Metal.Weighted>
-0.0000

> <Gold.Chemscore.Lipo.Weighted>
-9.8872

> <Gold.Chemscore.Internal_Hbond.Weighted>
0.0000

> <Gold.Chemscore.DEClash.Weighted>
0.0560

> <Gold.Chemscore.DEInternal.Weighted>
1.0148

> <Gold.Chemscore.Rot.Weighted>
3.7526

> <Gold.Chemscore.Internal.Correction.Weighted>
   9.000000E+99

> <Gold.Protein.RotatedTorsions>
[ 6907 6896 6895 6894 ] final -103.69 input  -60.11 | X-H torsion
[ 7974 7965 7964 7962 ] final -123.47 input  175.53 | X-H torsion
[ 8008 7997 7996 7995 ] final -164.31 input   59.86 | X-H torsion
[ 10167 10162 10161 10158 ] final  -32.35 input  -65.29 | X-H torsion
[ 10718 10713 10712 10709 ] final  164.09 input   66.30 | X-H torsion
[ 10763 10752 10751 10750 ] final   27.09 input  -60.55 | X-H torsion
[ 11005 11000 10999 10996 ] final   41.68 input  -57.11 | X-H torsion

> <Gold.Protein.ActiveResidues>
 VAL166  LYS551  ARG553  GLY616  TRP617  ASP618  TYR619  PRO620  LYS621  CYS622 
 ASP623  PHE694  ASN695  SER759  ASP760  ASP761  ALA762  ILE779  LEU786  VAL792 
 PHE793  MET794  SER795  GLU796  ALA797  LYS798  CYS799  TRP800  GLU811  SER814 

> <Gold.Protein.RotatedAtoms>
  150.7252  134.0391  159.3759 H   0  0  0  0  0  0  0  0  0  0  0  0  # atno 6907 bound_to 6896
  151.8364  135.0602  160.0452 H   0  0  0  0  0  0  0  0  0  0  0  0  # atno 6908 bound_to 6896
  152.2896  133.5512  159.5585 H   0  0  0  0  0  0  0  0  0  0  0  0  # atno 6909 bound_to 6896
  145.0183  140.7966  143.4396 H   0  0  0  0  0  0  0  0  0  0  0  0  # atno 7974 bound_to 7965
  155.8338  140.0938  157.1776 H   0  0  0  0  0  0  0  0  0  0  0  0  # atno 8008 bound_to 7997
  154.3980  140.1414  156.3707 H   0  0  0  0  0  0  0  0  0  0  0  0  # atno 8009 bound_to 7997
  155.8138  140.3449  155.5475 H   0  0  0  0  0  0  0  0  0  0  0  0  # atno 8010 bound_to 7997
  140.7222  143.3701  151.1794 H   0  0  0  0  0  0  0  0  0  0  0  0  # atno 10167 bound_to 10162
  157.0993  131.0438  151.2504 H   0  0  0  0  0  0  0  0  0  0  0  0  # atno 10718 bound_to 10713
  153.0578  135.6545  154.0534 H   0  0  0  0  0  0  0  0  0  0  0  0  # atno 10763 bound_to 10752
  154.0208  135.2920  155.3382 H   0  0  0  0  0  0  0  0  0  0  0  0  # atno 10764 bound_to 10752
  154.6902  135.5285  153.8450 H   0  0  0  0  0  0  0  0  0  0  0  0  # atno 10765 bound_to 10752
  140.1811  134.4103  155.8200 H   0  0  0  0  0  0  0  0  0  0  0  0  # atno 11005 bound_to 11000
  145.1930  139.2291  143.5233 LP  0  0  0  0  0  0  0  0  0  0  0  0  # atno 17320 bound_to 7965
  146.3481  140.1730  142.8589 LP  0  0  0  0  0  0  0  0  0  0  0  0  # atno 17321 bound_to 7965
  139.7271  143.9132  152.3006 LP  0  0  0  0  0  0  0  0  0  0  0  0  # atno 17342 bound_to 10162
  139.8908  144.6966  150.8773 LP  0  0  0  0  0  0  0  0  0  0  0  0  # atno 17343 bound_to 10162
  157.4654  130.7677  149.7274 LP  0  0  0  0  0  0  0  0  0  0  0  0  # atno 17370 bound_to 10713
  155.9877  130.3964  150.3150 LP  0  0  0  0  0  0  0  0  0  0  0  0  # atno 17371 bound_to 10713
  141.2223  133.7001  156.7932 LP  0  0  0  0  0  0  0  0  0  0  0  0  # atno 17394 bound_to 11000
  140.2267  134.8717  157.3434 LP  0  0  0  0  0  0  0  0  0  0  0  0  # atno 17395 bound_to 11000

$$$$
