AV-unprocessed.smi:832|AV-procd|sdf|3877|dock1
  -GOLD-   22720 1333D 1   1.00000     0.00000
 Structure written by MMmdl.
 42 43  0  0  0  0  0  0  0  0  2 V2000
  150.5572  141.9796  156.1063 C   0  0  0  0  0  0  0  0  0  0  0  0
  150.1762  140.8060  155.2705 C   0  0  0  0  0  0  0  0  0  0  0  0
  148.9762  140.3437  154.8090 C   0  0  0  0  0  0  0  0  0  0  0  0
  149.3444  139.1797  154.0730 C   0  0  0  0  0  0  0  0  0  0  0  0
  148.4642  138.3106  153.3780 N   0  0  0  0  0  0  0  0  0  0  0  0
  147.1338  138.4190  153.2237 C   0  0  0  0  0  0  0  0  0  0  0  0
  146.4328  139.3210  153.6819 O   0  0  0  0  0  0  0  0  0  0  0  0
  146.6449  137.4044  152.4958 N   0  0  0  0  0  0  0  0  0  0  0  0
  145.2428  137.2393  152.1252 C   0  0  0  0  0  0  0  0  0  0  0  0
  144.7805  135.7717  152.2137 C   0  0  1  0  0  0  0  0  0  0  0  0
  143.3782  135.5974  152.7863 C   0  0  0  0  0  0  0  0  0  0  0  0
  142.9945  134.2076  152.2912 C   0  0  0  0  0  0  0  0  0  0  0  0
  143.5487  134.1165  150.9216 N   0  3  2  0  0  0  0  0  0  0  0  0
  143.7921  132.7364  150.4137 C   0  0  0  0  0  0  0  0  0  0  0  0
  145.0752  132.1406  151.0238 C   0  0  0  0  0  0  0  0  0  0  0  0
  143.8942  132.7018  148.8763 C   0  0  0  0  0  0  0  0  0  0  0  0
  144.7203  135.0291  150.8680 C   0  0  0  0  0  0  0  0  0  0  0  0
  150.6454  138.9564  154.0916 N   0  0  0  0  0  0  0  0  0  0  0  0
  151.1872  139.9958  154.8566 O   0  0  0  0  0  0  0  0  0  0  0  0
  149.7274  142.6811  156.1933 H   0  0  0  0  0  0  0  0  0  0  0  0
  151.4027  142.5101  155.6682 H   0  0  0  0  0  0  0  0  0  0  0  0
  150.8389  141.6624  157.1104 H   0  0  0  0  0  0  0  0  0  0  0  0
  148.0044  140.7812  154.9799 H   0  0  0  0  0  0  0  0  0  0  0  0
  148.9047  137.5163  152.9374 H   0  0  0  0  0  0  0  0  0  0  0  0
  147.2921  136.7083  152.1547 H   0  0  0  0  0  0  0  0  0  0  0  0
  144.6189  137.8704  152.7604 H   0  0  0  0  0  0  0  0  0  0  0  0
  145.1181  137.6102  151.1074 H   0  0  0  0  0  0  0  0  0  0  0  0
  145.4625  135.2235  152.8661 H   0  0  0  0  0  0  0  0  0  0  0  0
  143.3505  135.6817  153.8732 H   0  0  0  0  0  0  0  0  0  0  0  0
  142.6983  136.3424  152.3704 H   0  0  0  0  0  0  0  0  0  0  0  0
  143.4591  133.4538  152.9295 H   0  0  0  0  0  0  0  0  0  0  0  0
  141.9159  134.0484  152.3044 H   0  0  0  0  0  0  0  0  0  0  0  0
  142.9470  132.1122  150.7092 H   0  0  0  0  0  0  0  0  0  0  0  0
  145.2610  131.1377  150.6382 H   0  0  0  0  0  0  0  0  0  0  0  0
  145.0172  132.0555  152.1087 H   0  0  0  0  0  0  0  0  0  0  0  0
  145.9467  132.7509  150.7844 H   0  0  0  0  0  0  0  0  0  0  0  0
  144.1227  131.6956  148.5236 H   0  0  0  0  0  0  0  0  0  0  0  0
  144.6823  133.3639  148.5156 H   0  0  0  0  0  0  0  0  0  0  0  0
  142.9616  132.9973  148.3959 H   0  0  0  0  0  0  0  0  0  0  0  0
  144.5771  135.7191  150.0358 H   0  0  0  0  0  0  0  0  0  0  0  0
  145.6573  134.4969  150.6985 H   0  0  0  0  0  0  0  0  0  0  0  0
  142.8515  134.5296  150.3186 H   0  0  0  0  0  0  0  0  0  0  0  0
  1  2  1  0  0  0  0
  1 20  1  0  0  0  0
  1 21  1  0  0  0  0
  1 22  1  0  0  0  0
  2 19  1  0  0  0  0
  2  3  2  0  0  0  0
  3  4  1  0  0  0  0
  3 23  1  0  0  0  0
  4  5  1  0  0  0  0
  4 18  2  0  0  0  0
  5  6  1  0  0  0  0
  5 24  1  0  0  0  0
  6  7  2  0  0  0  0
  6  8  1  0  0  0  0
  8  9  1  0  0  0  0
  8 25  1  0  0  0  0
  9 10  1  0  0  0  0
  9 26  1  0  0  0  0
  9 27  1  0  0  0  0
 10 17  1  0  0  0  0
 10 11  1  0  0  0  0
 10 28  1  0  0  0  0
 11 12  1  0  0  0  0
 11 29  1  0  0  0  0
 11 30  1  0  0  0  0
 12 13  1  0  0  0  0
 12 31  1  0  0  0  0
 12 32  1  0  0  0  0
 13 14  1  0  0  0  0
 13 17  1  0  0  0  0
 13 42  1  0  0  0  0
 14 15  1  0  0  0  0
 14 16  1  0  0  0  0
 14 33  1  0  0  0  0
 15 34  1  0  0  0  0
 15 35  1  0  0  0  0
 15 36  1  0  0  0  0
 16 37  1  0  0  0  0
 16 38  1  0  0  0  0
 16 39  1  0  0  0  0
 17 40  1  0  0  0  0
 17 41  1  0  0  0  0
 18 19  1  0  0  0  0
M  CHG  1  13   1
M  END
> <s_m_source_file>
AV-unprocessed.smi

> <i_m_source_file_index>
832

> <i_lp_mmshare_version>
43012

> <i_f3d_flags>
0

> <s_epik_input>
W0NIM11jMVtjSF1jKG5vMSlbTkhdQyg9TylbTkhdW0NIMl1bQ0BASF0yW0NIMl1bQ0gyXU4oW0NIMl0yKVtDSF0oW0NIM10pW0NIM10=

> <s_epik_cmdline>
J2VwaWtfcHl0aG9uJywgJy1waCcsICc3LjAnLCAnLXRuJywgJzgnLCAnLW1hJywgJzIwMCcsICctbWV0YWxfYmluZGluZycsICctaW1hZScsICc8aW5maWxlLm1hZT4nLCAnLW9tYWUnLCAnPG91dGZpbGUubWFlPic=

> <r_lp_tautomer_probability>
1

> <r_epik_Ionization_Penalty>
0.000242791

> <r_epik_Ionization_Penalty_Charging>
0.000220876

> <r_epik_Ionization_Penalty_Neutral>
2.19143e-05

> <r_epik_State_Penalty>
-0

> <r_epik_Charging_Adjusted_Penalty>
0.000220876

> <i_epik_Tot_Q>
1

> <i_epik_Tot_abs_Q>
1

> <r_epik_Metal_State_Penalty>
-0

> <b_epik_Metal_Only>
0

> <s_lp_Force_Field>
OPLS_2005

> <r_lp_Energy>
29.9722

> <b_lp_Chiralities_Consistent>
1

> <s_lp_Variant>
AV-unprocessed.smi:832-2

> <Gold.Version>
5.8.1

> <Gold.Id.Protein>
6NUR|6NUR_protein|mol2

> <Gold.PLP.Fitness>
47.6235

> <Gold.PLP.PLP>
-35.8499

> <Gold.PLP.part.hbond>
-5.4413

> <Gold.PLP.part.metal>
0.0000

> <Gold.PLP.part.buried>
-2.4913

> <Gold.PLP.part.nonpolar>
-28.8046

> <Gold.PLP.part.repulsive>
0.5298

> <Gold.PLP.ligand.clash>
0.0000

> <Gold.PLP.ligand.torsion>
0.9534

> <Gold.PLP.Chemscore.Hbond>
4.5455

> <Gold.PLP.Chemscore.CHOScore>
0.0000

> <Gold.PLP.Chemscore.Metal>
0.0000

> <Gold.Chemscore.Hbonds>
donor molecule, donor type, donor heavy atom, donor atom, acceptor molecule, acceptor atom, score
      L1  H     5    24       P1  7948  1.00
      L1  H     8    25       P1  7948  0.98
      L1  H    13    42       P1 10186  1.92
      P1  H  7989  7998       L1    19  0.58

> <Gold.PLP.Chemscore.Internal.Correction>
0.0440

> <Gold.Rescore>
     Score         DG    S(hbond)    S(metal)    S(lipo)     H(rot)  DE(clash)    DE(int)     intcor
     17.52     -19.86       2.72        0.00      78.29       1.51       0.19       2.15       ----

> <Gold.Chemscore.Fitness>
17.5215

> <Gold.Chemscore.DG>
-19.8593

> <Gold.Chemscore.ZeroCoef>
-5.4800

> <Gold.Chemscore.Hbond>
2.7235

> <Gold.Chemscore.Metal>
0.0000

> <Gold.Chemscore.Lipo>
78.2916

> <Gold.Chemscore.Internal_Hbond>
0.0000

> <Gold.Chemscore.DEClash>
0.1875

> <Gold.Chemscore.DEInternal>
2.1502

> <Gold.Chemscore.Rot>
1.5146

> <Gold.Chemscore.Internal.Correction>
   9.000000E+99

> <Gold.Chemscore.Hbonds>
donor molecule, donor type, donor heavy atom, donor atom, acceptor molecule, acceptor atom, score
      L1  H     5    24       P1  7948  0.97
      L1  H     8    25       P1  7948  0.93
      L1  H    13    42       P1 10186  0.54
      P1  H  7989  7998       L1    19  0.01

> <Gold.Chemscore.Hbond.Weighted>
-9.0966

> <Gold.Chemscore.Metal.Weighted>
-0.0000

> <Gold.Chemscore.Lipo.Weighted>
-9.1601

> <Gold.Chemscore.Internal_Hbond.Weighted>
0.0000

> <Gold.Chemscore.DEClash.Weighted>
0.1875

> <Gold.Chemscore.DEInternal.Weighted>
2.1502

> <Gold.Chemscore.Rot.Weighted>
3.8774

> <Gold.Chemscore.Internal.Correction.Weighted>
   9.000000E+99

> <Gold.Protein.RotatedTorsions>
[ 6907 6896 6895 6894 ] final  114.44 input  -60.11 | X-H torsion
[ 7974 7965 7964 7962 ] final  112.10 input  175.53 | X-H torsion
[ 8008 7997 7996 7995 ] final   24.11 input   59.86 | X-H torsion
[ 10167 10162 10161 10158 ] final  -26.18 input  -65.29 | X-H torsion
[ 10718 10713 10712 10709 ] final  -32.59 input   66.30 | X-H torsion
[ 10763 10752 10751 10750 ] final   74.54 input  -60.55 | X-H torsion
[ 11005 11000 10999 10996 ] final -165.03 input  -57.11 | X-H torsion

> <Gold.Protein.ActiveResidues>
 VAL166  LYS551  ARG553  GLY616  TRP617  ASP618  TYR619  PRO620  LYS621  CYS622 
 ASP623  PHE694  ASN695  SER759  ASP760  ASP761  ALA762  ILE779  LEU786  VAL792 
 PHE793  MET794  SER795  GLU796  ALA797  LYS798  CYS799  TRP800  GLU811  SER814 

> <Gold.Protein.RotatedAtoms>
  152.4802  133.8236  159.7066 H   0  0  0  0  0  0  0  0  0  0  0  0  # atno 6907 bound_to 6896
  150.8847  133.7315  159.2928 H   0  0  0  0  0  0  0  0  0  0  0  0  # atno 6908 bound_to 6896
  151.4808  135.1055  159.9829 H   0  0  0  0  0  0  0  0  0  0  0  0  # atno 6909 bound_to 6896
  145.2338  139.2808  143.4154 H   0  0  0  0  0  0  0  0  0  0  0  0  # atno 7974 bound_to 7965
  154.9912  140.3114  155.4905 H   0  0  0  0  0  0  0  0  0  0  0  0  # atno 8008 bound_to 7997
  156.2939  140.2249  156.4957 H   0  0  0  0  0  0  0  0  0  0  0  0  # atno 8009 bound_to 7997
  154.7701  140.0453  157.1033 H   0  0  0  0  0  0  0  0  0  0  0  0  # atno 8010 bound_to 7997
  140.7284  143.4200  151.0966 H   0  0  0  0  0  0  0  0  0  0  0  0  # atno 10167 bound_to 10162
  156.3730  130.4343  149.7529 H   0  0  0  0  0  0  0  0  0  0  0  0  # atno 10718 bound_to 10713
  153.0594  135.5022  154.8058 H   0  0  0  0  0  0  0  0  0  0  0  0  # atno 10763 bound_to 10752
  154.6858  135.2976  154.9551 H   0  0  0  0  0  0  0  0  0  0  0  0  # atno 10764 bound_to 10752
  154.0322  135.6728  153.4834 H   0  0  0  0  0  0  0  0  0  0  0  0  # atno 10765 bound_to 10752
  140.5803  134.5149  157.5177 H   0  0  0  0  0  0  0  0  0  0  0  0  # atno 11005 bound_to 11000
  146.3346  140.2680  142.8604 LP  0  0  0  0  0  0  0  0  0  0  0  0  # atno 17320 bound_to 7965
  144.9652  140.8315  143.5489 LP  0  0  0  0  0  0  0  0  0  0  0  0  # atno 17321 bound_to 7965
  139.7845  143.8307  152.3143 LP  0  0  0  0  0  0  0  0  0  0  0  0  # atno 17342 bound_to 10162
  139.8270  144.7271  150.9499 LP  0  0  0  0  0  0  0  0  0  0  0  0  # atno 17343 bound_to 10162
  156.4649  130.7969  151.2989 LP  0  0  0  0  0  0  0  0  0  0  0  0  # atno 17370 bound_to 10713
  157.7485  131.0054  150.3112 LP  0  0  0  0  0  0  0  0  0  0  0  0  # atno 17371 bound_to 10713
  139.9320  134.7945  156.0904 LP  0  0  0  0  0  0  0  0  0  0  0  0  # atno 17394 bound_to 11000
  141.1001  133.6680  156.2734 LP  0  0  0  0  0  0  0  0  0  0  0  0  # atno 17395 bound_to 11000

$$$$
