AV-unprocessed.smi:1726|AV-procd|sdf|6958|dock1
  -GOLD-   22720 8173D 1   1.00000     0.00000
 Structure written by MMmdl.
 43 44  0  0  0  0  0  0  0  0  2 V2000
  142.1434  137.2201  157.5935 C   0  0  0  0  0  0  0  0  0  0  0  0
  141.6454  138.6728  157.5899 C   0  0  0  0  0  0  0  0  0  0  0  0
  141.4318  139.1919  156.2162 N   0  3  2  0  0  0  0  0  0  0  0  0
  141.1008  140.6407  156.2010 C   0  0  0  0  0  0  0  0  0  0  0  0
  141.0369  141.1825  154.7619 C   0  0  0  0  0  0  0  0  0  0  0  0
  140.0615  140.3670  153.8964 C   0  0  0  0  0  0  0  0  0  0  0  0
  140.3895  138.8647  153.9646 C   0  0  1  0  0  0  0  0  0  0  0  0
  141.6531  138.5998  153.2755 N   0  0  0  0  0  0  0  0  0  0  0  0
  142.1839  137.3869  153.0648 C   0  0  0  0  0  0  0  0  0  0  0  0
  141.6516  136.3444  153.4442 O   0  0  0  0  0  0  0  0  0  0  0  0
  143.3622  137.4838  152.4228 N   0  0  0  0  0  0  0  0  0  0  0  0
  144.2365  136.4636  152.0120 C   0  0  0  0  0  0  0  0  0  0  0  0
  143.8622  135.3416  151.3433 C   0  0  0  0  0  0  0  0  0  0  0  0
  144.8229  134.3296  150.9366 C   0  0  0  0  0  0  0  0  0  0  0  0
  144.3825  133.0387  150.2643 C   0  0  0  0  0  0  0  0  0  0  0  0
  143.8094  133.2788  149.0839 F   0  0  0  0  0  0  0  0  0  0  0  0
  145.4193  132.2236  150.0685 F   0  0  0  0  0  0  0  0  0  0  0  0
  143.4977  132.4066  151.0343 F   0  0  0  0  0  0  0  0  0  0  0  0
  146.1087  134.5575  151.2621 C   0  0  0  0  0  0  0  0  0  0  0  0
  146.5047  135.7189  151.9292 N   0  0  0  0  0  0  0  0  0  0  0  0
  145.6560  136.6925  152.3284 C   0  0  0  0  0  0  0  0  0  0  0  0
  146.0817  137.6863  152.9163 O   0  0  0  0  0  0  0  0  0  0  0  0
  140.4349  138.4076  155.4397 C   0  0  0  0  0  0  0  0  0  0  0  0
  147.4902  135.8232  152.1237 H   0  0  0  0  0  0  0  0  0  0  0  0
  142.3801  136.8989  158.6080 H   0  0  0  0  0  0  0  0  0  0  0  0
  143.0486  137.1128  156.9947 H   0  0  0  0  0  0  0  0  0  0  0  0
  141.3981  136.5281  157.2025 H   0  0  0  0  0  0  0  0  0  0  0  0
  140.7301  138.7711  158.1756 H   0  0  0  0  0  0  0  0  0  0  0  0
  142.3991  139.2813  158.0912 H   0  0  0  0  0  0  0  0  0  0  0  0
  140.1476  140.8021  156.7075 H   0  0  0  0  0  0  0  0  0  0  0  0
  141.8539  141.1990  156.7582 H   0  0  0  0  0  0  0  0  0  0  0  0
  140.7351  142.2304  154.7728 H   0  0  0  0  0  0  0  0  0  0  0  0
  142.0333  141.1574  154.3188 H   0  0  0  0  0  0  0  0  0  0  0  0
  139.0432  140.5304  154.2519 H   0  0  0  0  0  0  0  0  0  0  0  0
  140.0850  140.7189  152.8641 H   0  0  0  0  0  0  0  0  0  0  0  0
  139.5999  138.3176  153.4463 H   0  0  0  0  0  0  0  0  0  0  0  0
  142.1549  139.4022  152.9231 H   0  0  0  0  0  0  0  0  0  0  0  0
  143.6979  138.4180  152.2381 H   0  0  0  0  0  0  0  0  0  0  0  0
  142.8330  135.1750  151.0702 H   0  0  0  0  0  0  0  0  0  0  0  0
  146.9203  133.8778  151.0470 H   0  0  0  0  0  0  0  0  0  0  0  0
  140.6648  137.3440  155.4874 H   0  0  0  0  0  0  0  0  0  0  0  0
  139.4504  138.5242  155.8956 H   0  0  0  0  0  0  0  0  0  0  0  0
  142.3163  139.0996  155.7377 H   0  0  0  0  0  0  0  0  0  0  0  0
  1  2  1  0  0  0  0
  1 25  1  0  0  0  0
  1 26  1  0  0  0  0
  1 27  1  0  0  0  0
  2  3  1  0  0  0  0
  2 28  1  0  0  0  0
  2 29  1  0  0  0  0
  3 23  1  0  0  0  0
  3  4  1  0  0  0  0
  3 43  1  0  0  0  0
  4  5  1  0  0  0  0
  4 30  1  0  0  0  0
  4 31  1  0  0  0  0
  5  6  1  0  0  0  0
  5 32  1  0  0  0  0
  5 33  1  0  0  0  0
  6  7  1  0  0  0  0
  6 34  1  0  0  0  0
  6 35  1  0  0  0  0
  7  8  1  0  0  0  0
  7 23  1  0  0  0  0
  7 36  1  0  0  0  0
  8  9  1  0  0  0  0
  8 37  1  0  0  0  0
  9 10  2  0  0  0  0
  9 11  1  0  0  0  0
 11 12  1  0  0  0  0
 11 38  1  0  0  0  0
 12 21  1  0  0  0  0
 12 13  2  0  0  0  0
 13 14  1  0  0  0  0
 13 39  1  0  0  0  0
 14 15  1  0  0  0  0
 14 19  2  0  0  0  0
 15 16  1  0  0  0  0
 15 17  1  0  0  0  0
 15 18  1  0  0  0  0
 19 20  1  0  0  0  0
 19 40  1  0  0  0  0
 20 24  1  0  0  0  0
 20 21  1  0  0  0  0
 21 22  2  0  0  0  0
 23 41  1  0  0  0  0
 23 42  1  0  0  0  0
M  CHG  1   3   1
M  END
> <s_m_source_file>
AV-unprocessed.smi

> <i_m_source_file_index>
1726

> <i_lp_mmshare_version>
43012

> <i_f3d_flags>
0

> <s_epik_input>
W0NIM11bQ0gyXU4xW0NIMl1bQ0gyXVtDSDJdW0NASF0oW0NIMl0xKVtOSF1DKD1PKVtOSF1jMltjSF1jKEMoRikoRilGKVtjSF1bbkhdYzI9Tw==

> <s_epik_cmdline>
J2VwaWtfcHl0aG9uJywgJy1waCcsICc3LjAnLCAnLXRuJywgJzgnLCAnLW1hJywgJzIwMCcsICctbWV0YWxfYmluZGluZycsICctaW1hZScsICc8aW5maWxlLm1hZT4nLCAnLW9tYWUnLCAnPG91dGZpbGUubWFlPic=

> <r_lp_tautomer_probability>
1

> <r_epik_Ionization_Penalty>
0.00745721

> <r_epik_Ionization_Penalty_Charging>
0.00743804

> <r_epik_Ionization_Penalty_Neutral>
1.91703e-05

> <r_epik_State_Penalty>
-0

> <r_epik_Charging_Adjusted_Penalty>
0.00743804

> <i_epik_Tot_Q>
1

> <i_epik_Tot_abs_Q>
1

> <r_epik_Metal_State_Penalty>
0.37929

> <b_epik_Metal_Only>
0

> <s_lp_Force_Field>
OPLS_2005

> <r_lp_Energy>
34.544

> <b_lp_Chiralities_Consistent>
1

> <s_lp_Variant>
AV-unprocessed.smi:1726-2

> <Gold.Version>
5.8.1

> <Gold.Id.Protein>
6NUR|6NUR_protein|mol2

> <Gold.PLP.Fitness>
39.2568

> <Gold.PLP.PLP>
-32.5085

> <Gold.PLP.part.hbond>
-3.9975

> <Gold.PLP.part.metal>
0.0000

> <Gold.PLP.part.buried>
-2.7526

> <Gold.PLP.part.nonpolar>
-26.3909

> <Gold.PLP.part.repulsive>
0.4881

> <Gold.PLP.ligand.clash>
1.4241

> <Gold.PLP.ligand.torsion>
0.4539

> <Gold.PLP.Chemscore.Hbond>
2.9913

> <Gold.PLP.Chemscore.CHOScore>
0.0000

> <Gold.PLP.Chemscore.Metal>
0.0000

> <Gold.Chemscore.Hbonds>
donor molecule, donor type, donor heavy atom, donor atom, acceptor molecule, acceptor atom, score
      L1  H     8    37       P1 10175  1.00
      L1  H    11    38       P1 10175  1.00
      L1  H    20    24       P1  7948  0.98

> <Gold.PLP.Chemscore.Internal.Correction>
0.1066

> <Gold.Rescore>
     Score         DG    S(hbond)    S(metal)    S(lipo)     H(rot)  DE(clash)    DE(int)     intcor
     16.11     -16.69       2.79        0.00      44.30       1.29       0.17       0.41       ----

> <Gold.Chemscore.Fitness>
16.1060

> <Gold.Chemscore.DG>
-16.6917

> <Gold.Chemscore.ZeroCoef>
-5.4800

> <Gold.Chemscore.Hbond>
2.7925

> <Gold.Chemscore.Metal>
0.0000

> <Gold.Chemscore.Lipo>
44.2993

> <Gold.Chemscore.Internal_Hbond>
0.0000

> <Gold.Chemscore.DEClash>
0.1707

> <Gold.Chemscore.DEInternal>
0.4150

> <Gold.Chemscore.Rot>
1.2884

> <Gold.Chemscore.Internal.Correction>
   9.000000E+99

> <Gold.Chemscore.Hbonds>
donor molecule, donor type, donor heavy atom, donor atom, acceptor molecule, acceptor atom, score
      L1  H     8    37       P1 10175  0.88
      L1  H    11    38       P1 10175  0.91
      L1  H    20    24       P1  7948  0.90

> <Gold.Chemscore.Hbond.Weighted>
-9.3270

> <Gold.Chemscore.Metal.Weighted>
-0.0000

> <Gold.Chemscore.Lipo.Weighted>
-5.1830

> <Gold.Chemscore.Internal_Hbond.Weighted>
0.0000

> <Gold.Chemscore.DEClash.Weighted>
0.1707

> <Gold.Chemscore.DEInternal.Weighted>
0.4150

> <Gold.Chemscore.Rot.Weighted>
3.2983

> <Gold.Chemscore.Internal.Correction.Weighted>
   9.000000E+99

> <Gold.Protein.RotatedTorsions>
[ 6907 6896 6895 6894 ] final -161.18 input  -60.11 | X-H torsion
[ 7974 7965 7964 7962 ] final  103.37 input  175.53 | X-H torsion
[ 8008 7997 7996 7995 ] final  -77.47 input   59.86 | X-H torsion
[ 10167 10162 10161 10158 ] final   57.42 input  -65.29 | X-H torsion
[ 10718 10713 10712 10709 ] final -177.72 input   66.30 | X-H torsion
[ 10763 10752 10751 10750 ] final  114.20 input  -60.55 | X-H torsion
[ 11005 11000 10999 10996 ] final  -86.47 input  -57.11 | X-H torsion

> <Gold.Protein.ActiveResidues>
 VAL166  LYS551  ARG553  GLY616  TRP617  ASP618  TYR619  PRO620  LYS621  CYS622 
 ASP623  PHE694  ASN695  SER759  ASP760  ASP761  ALA762  ILE779  LEU786  VAL792 
 PHE793  MET794  SER795  GLU796  ALA797  LYS798  CYS799  TRP800  GLU811  SER814 

> <Gold.Protein.RotatedAtoms>
  151.3606  133.3891  159.2689 H   0  0  0  0  0  0  0  0  0  0  0  0  # atno 6907 bound_to 6896
  150.9728  134.9099  159.7809 H   0  0  0  0  0  0  0  0  0  0  0  0  # atno 6908 bound_to 6896
  152.5190  134.3569  159.9323 H   0  0  0  0  0  0  0  0  0  0  0  0  # atno 6909 bound_to 6896
  145.3468  139.2449  143.3580 H   0  0  0  0  0  0  0  0  0  0  0  0  # atno 7974 bound_to 7965
  154.5599  140.0710  156.8803 H   0  0  0  0  0  0  0  0  0  0  0  0  # atno 8008 bound_to 7997
  155.2830  140.3373  155.4239 H   0  0  0  0  0  0  0  0  0  0  0  0  # atno 8009 bound_to 7997
  156.2034  140.1730  156.7838 H   0  0  0  0  0  0  0  0  0  0  0  0  # atno 8010 bound_to 7997
  140.1982  144.4016  150.6541 H   0  0  0  0  0  0  0  0  0  0  0  0  # atno 10167 bound_to 10162
  156.8337  130.9662  151.3105 H   0  0  0  0  0  0  0  0  0  0  0  0  # atno 10718 bound_to 10713
  153.5037  135.3632  155.2552 H   0  0  0  0  0  0  0  0  0  0  0  0  # atno 10763 bound_to 10752
  154.8746  135.4006  154.3449 H   0  0  0  0  0  0  0  0  0  0  0  0  # atno 10764 bound_to 10752
  153.4089  135.7077  153.6439 H   0  0  0  0  0  0  0  0  0  0  0  0  # atno 10765 bound_to 10752
  141.1629  133.7456  156.9165 H   0  0  0  0  0  0  0  0  0  0  0  0  # atno 11005 bound_to 11000
  146.2985  140.4076  142.8713 LP  0  0  0  0  0  0  0  0  0  0  0  0  # atno 17320 bound_to 7965
  144.8748  140.7322  143.6024 LP  0  0  0  0  0  0  0  0  0  0  0  0  # atno 17321 bound_to 7965
  140.6409  143.2203  151.6292 LP  0  0  0  0  0  0  0  0  0  0  0  0  # atno 17342 bound_to 10162
  139.5228  144.3152  152.0958 LP  0  0  0  0  0  0  0  0  0  0  0  0  # atno 17343 bound_to 10162
  157.6393  130.8792  149.9418 LP  0  0  0  0  0  0  0  0  0  0  0  0  # atno 17370 bound_to 10713
  156.0920  130.3662  150.0377 LP  0  0  0  0  0  0  0  0  0  0  0  0  # atno 17371 bound_to 10713
  140.1480  134.9249  157.2556 LP  0  0  0  0  0  0  0  0  0  0  0  0  # atno 17394 bound_to 11000
  140.2756  134.3409  155.7359 LP  0  0  0  0  0  0  0  0  0  0  0  0  # atno 17395 bound_to 11000

$$$$
