AV-unprocessed.smi:2165|AV-procd|sdf|8812|dock1
  -GOLD-   2272012 03D 1   1.00000     0.00000
 Structure written by MMmdl.
 36 37  0  0  0  0  0  0  0  0  1 V2000
  153.4014  142.2861  160.4833 C   0  0  0  0  0  0  0  0  0  0  0  0
  152.5781  142.3695  159.2951 N   0  0  0  0  0  0  0  0  0  0  0  0
  152.2322  143.6427  158.7807 C   0  0  0  0  0  0  0  0  0  0  0  0
  152.6020  144.6943  159.3040 O   0  0  0  0  0  0  0  0  0  0  0  0
  151.3986  143.6030  157.5849 C   0  0  0  0  0  0  0  0  0  0  0  0
  151.0085  142.4260  157.0482 C   0  0  0  0  0  0  0  0  0  0  0  0
  151.3570  141.1954  157.5744 N   0  0  0  0  0  0  0  0  0  0  0  0
  150.8960  139.9638  156.9211 C   0  0  0  0  0  0  0  0  0  0  0  0
  150.2690  140.2262  155.5458 C   0  0  0  0  0  0  0  0  0  0  0  0
  150.9020  139.9915  154.5155 O   0  0  0  0  0  0  0  0  0  0  0  0
  149.0246  140.7266  155.5480 N   0  0  0  0  0  0  0  0  0  0  0  0
  148.2309  141.0056  154.3573 C   0  0  0  0  0  0  0  0  0  0  0  0
  147.4640  142.3319  154.4918 C   0  0  2  0  0  0  0  0  0  0  0  0
  146.6445  142.4500  155.7751 C   0  0  0  0  0  0  0  0  0  0  0  0
  145.5389  143.4276  155.4038 C   0  0  0  0  0  0  0  0  0  0  0  0
  145.6045  143.5060  153.8755 C   0  0  0  0  0  0  0  0  0  0  0  0
  146.4673  142.4463  153.4889 O   0  0  0  0  0  0  0  0  0  0  0  0
  152.1624  141.1430  158.7326 C   0  0  0  0  0  0  0  0  0  0  0  0
  152.4844  140.0597  159.2280 O   0  0  0  0  0  0  0  0  0  0  0  0
  153.7456  143.2706  160.7982 H   0  0  0  0  0  0  0  0  0  0  0  0
  154.2638  141.6627  160.2404 H   0  0  0  0  0  0  0  0  0  0  0  0
  152.7898  141.8323  161.2651 H   0  0  0  0  0  0  0  0  0  0  0  0
  151.0899  144.5291  157.1226 H   0  0  0  0  0  0  0  0  0  0  0  0
  150.3940  142.4513  156.1599 H   0  0  0  0  0  0  0  0  0  0  0  0
  151.7261  139.2606  156.8290 H   0  0  0  0  0  0  0  0  0  0  0  0
  150.1530  139.4635  157.5433 H   0  0  0  0  0  0  0  0  0  0  0  0
  148.5805  140.8915  156.4397 H   0  0  0  0  0  0  0  0  0  0  0  0
  148.9018  141.0438  153.4985 H   0  0  0  0  0  0  0  0  0  0  0  0
  147.5371  140.1836  154.1745 H   0  0  0  0  0  0  0  0  0  0  0  0
  148.1442  143.1826  154.4149 H   0  0  0  0  0  0  0  0  0  0  0  0
  146.2054  141.4855  156.0339 H   0  0  0  0  0  0  0  0  0  0  0  0
  147.2415  142.7852  156.6236 H   0  0  0  0  0  0  0  0  0  0  0  0
  144.5694  143.0647  155.7468 H   0  0  0  0  0  0  0  0  0  0  0  0
  145.7060  144.4101  155.8469 H   0  0  0  0  0  0  0  0  0  0  0  0
  144.6254  143.4090  153.4065 H   0  0  0  0  0  0  0  0  0  0  0  0
  146.0406  144.4547  153.5592 H   0  0  0  0  0  0  0  0  0  0  0  0
  1  2  1  0  0  0  0
  1 20  1  0  0  0  0
  1 21  1  0  0  0  0
  1 22  1  0  0  0  0
  2 18  1  0  0  0  0
  2  3  1  0  0  0  0
  3  4  2  0  0  0  0
  3  5  1  0  0  0  0
  5  6  2  0  0  0  0
  5 23  1  0  0  0  0
  6  7  1  0  0  0  0
  6 24  1  0  0  0  0
  7  8  1  0  0  0  0
  7 18  1  0  0  0  0
  8  9  1  0  0  0  0
  8 25  1  0  0  0  0
  8 26  1  0  0  0  0
  9 10  2  0  0  0  0
  9 11  1  0  0  0  0
 11 12  1  0  0  0  0
 11 27  1  0  0  0  0
 12 13  1  0  0  0  0
 12 28  1  0  0  0  0
 12 29  1  0  0  0  0
 13 17  1  0  0  0  0
 13 14  1  0  0  0  0
 13 30  1  0  0  0  0
 14 15  1  0  0  0  0
 14 31  1  0  0  0  0
 14 32  1  0  0  0  0
 15 16  1  0  0  0  0
 15 33  1  0  0  0  0
 15 34  1  0  0  0  0
 16 17  1  0  0  0  0
 16 35  1  0  0  0  0
 16 36  1  0  0  0  0
 18 19  2  0  0  0  0
M  END
> <s_m_source_file>
AV-unprocessed.smi

> <i_m_source_file_index>
2165

> <i_lp_mmshare_version>
43012

> <i_f3d_flags>
0

> <s_epik_input>
W0NIM11uMWMoPU8pW2NIXVtjSF1uKGMxPU8pW0NIMl1DKD1PKVtOSF1bQ0gyXVtDQEBIXTJbQ0gyXVtDSDJdW0NIMl1PMg==

> <s_epik_cmdline>
J2VwaWtfcHl0aG9uJywgJy1waCcsICc3LjAnLCAnLXRuJywgJzgnLCAnLW1hJywgJzIwMCcsICctbWV0YWxfYmluZGluZycsICctaW1hZScsICc8aW5maWxlLm1hZT4nLCAnLW9tYWUnLCAnPG91dGZpbGUubWFlPic=

> <r_lp_tautomer_probability>
1

> <r_epik_Ionization_Penalty>
3.89869e-08

> <r_epik_Ionization_Penalty_Charging>
1.21279e-08

> <r_epik_Ionization_Penalty_Neutral>
2.6859e-08

> <r_epik_State_Penalty>
-0

> <r_epik_Charging_Adjusted_Penalty>
1.21279e-08

> <i_epik_Tot_Q>
0

> <i_epik_Tot_abs_Q>
0

> <r_epik_Metal_State_Penalty>
-0

> <b_epik_Metal_Only>
0

> <s_lp_Force_Field>
OPLS_2005

> <r_lp_Energy>
24.9398

> <b_lp_Chiralities_Consistent>
1

> <s_lp_Variant>
AV-unprocessed.smi:2165-1

> <Gold.Version>
5.8.1

> <Gold.Id.Protein>
6NUR|6NUR_protein|mol2

> <Gold.PLP.Fitness>
41.0708

> <Gold.PLP.PLP>
-38.1396

> <Gold.PLP.part.hbond>
-0.9960

> <Gold.PLP.part.metal>
0.0000

> <Gold.PLP.part.buried>
-4.2661

> <Gold.PLP.part.nonpolar>
-34.2566

> <Gold.PLP.part.repulsive>
0.3815

> <Gold.PLP.ligand.clash>
0.0000

> <Gold.PLP.ligand.torsion>
0.5263

> <Gold.PLP.Chemscore.Hbond>
0.9913

> <Gold.PLP.Chemscore.CHOScore>
0.3208

> <Gold.PLP.Chemscore.Metal>
0.0000

> <Gold.Chemscore.Hbonds>
donor molecule, donor type, donor heavy atom, donor atom, acceptor molecule, acceptor atom, score
      P1  H  7989  7998       L1    10  0.99
      L1  C     6    24       P1  8028  0.31

> <Gold.PLP.Chemscore.Internal.Correction>
0.0475

> <Gold.Rescore>
     Score         DG    S(hbond)    S(metal)    S(lipo)     H(rot)  DE(clash)    DE(int)     intcor
     10.76     -11.22       1.00        0.00      61.37       1.87       0.02       0.44       ----

> <Gold.Chemscore.Fitness>
10.7603

> <Gold.Chemscore.DG>
-11.2185

> <Gold.Chemscore.ZeroCoef>
-5.4800

> <Gold.Chemscore.Hbond>
1.0000

> <Gold.Chemscore.Metal>
0.0000

> <Gold.Chemscore.Lipo>
61.3744

> <Gold.Chemscore.Internal_Hbond>
0.0000

> <Gold.Chemscore.DEClash>
0.0153

> <Gold.Chemscore.DEInternal>
0.4430

> <Gold.Chemscore.Rot>
1.8681

> <Gold.Chemscore.Internal.Correction>
   9.000000E+99

> <Gold.Chemscore.Hbonds>
donor molecule, donor type, donor heavy atom, donor atom, acceptor molecule, acceptor atom, score
      P1  H  7989  7998       L1    10  0.92

> <Gold.Chemscore.Hbond.Weighted>
-3.3399

> <Gold.Chemscore.Metal.Weighted>
-0.0000

> <Gold.Chemscore.Lipo.Weighted>
-7.1808

> <Gold.Chemscore.Internal_Hbond.Weighted>
0.0000

> <Gold.Chemscore.DEClash.Weighted>
0.0153

> <Gold.Chemscore.DEInternal.Weighted>
0.4430

> <Gold.Chemscore.Rot.Weighted>
4.7822

> <Gold.Chemscore.Internal.Correction.Weighted>
   9.000000E+99

> <Gold.Protein.RotatedTorsions>
[ 6907 6896 6895 6894 ] final    4.67 input  -60.11 | X-H torsion
[ 7974 7965 7964 7962 ] final -133.50 input  175.53 | X-H torsion
[ 8008 7997 7996 7995 ] final  143.31 input   59.86 | X-H torsion
[ 10167 10162 10161 10158 ] final -114.87 input  -65.29 | X-H torsion
[ 10718 10713 10712 10709 ] final  -50.66 input   66.30 | X-H torsion
[ 10763 10752 10751 10750 ] final  176.69 input  -60.55 | X-H torsion
[ 11005 11000 10999 10996 ] final  145.32 input  -57.11 | X-H torsion

> <Gold.Protein.ActiveResidues>
 VAL166  LYS551  ARG553  GLY616  TRP617  ASP618  TYR619  PRO620  LYS621  CYS622 
 ASP623  PHE694  ASN695  SER759  ASP760  ASP761  ALA762  ILE779  LEU786  VAL792 
 PHE793  MET794  SER795  GLU796  ALA797  LYS798  CYS799  TRP800  GLU811  SER814 

> <Gold.Protein.RotatedAtoms>
  151.6450  135.1008  160.0148 H   0  0  0  0  0  0  0  0  0  0  0  0  # atno 6907 bound_to 6896
  152.4033  133.6846  159.6343 H   0  0  0  0  0  0  0  0  0  0  0  0  # atno 6908 bound_to 6896
  150.7930  133.8671  159.3289 H   0  0  0  0  0  0  0  0  0  0  0  0  # atno 6909 bound_to 6896
  144.9187  140.6987  143.4979 H   0  0  0  0  0  0  0  0  0  0  0  0  # atno 7974 bound_to 7965
  156.2932  140.2265  156.4870 H   0  0  0  0  0  0  0  0  0  0  0  0  # atno 8008 bound_to 7997
  154.7803  140.0460  157.1143 H   0  0  0  0  0  0  0  0  0  0  0  0  # atno 8009 bound_to 7997
  154.9766  140.3073  155.4968 H   0  0  0  0  0  0  0  0  0  0  0  0  # atno 8010 bound_to 7997
  140.0963  143.4653  152.1839 H   0  0  0  0  0  0  0  0  0  0  0  0  # atno 10167 bound_to 10162
  156.1780  130.4150  149.9548 H   0  0  0  0  0  0  0  0  0  0  0  0  # atno 10718 bound_to 10713
  154.4845  135.2776  155.1545 H   0  0  0  0  0  0  0  0  0  0  0  0  # atno 10763 bound_to 10752
  154.3241  135.6203  153.5525 H   0  0  0  0  0  0  0  0  0  0  0  0  # atno 10764 bound_to 10752
  152.9879  135.5750  154.5253 H   0  0  0  0  0  0  0  0  0  0  0  0  # atno 10765 bound_to 10752
  140.0703  134.9155  157.1333 H   0  0  0  0  0  0  0  0  0  0  0  0  # atno 11005 bound_to 11000
  145.3331  139.1753  143.4526 LP  0  0  0  0  0  0  0  0  0  0  0  0  # atno 17320 bound_to 7965
  146.3194  140.3363  142.8644 LP  0  0  0  0  0  0  0  0  0  0  0  0  # atno 17321 bound_to 7965
  139.5696  144.7455  151.3927 LP  0  0  0  0  0  0  0  0  0  0  0  0  # atno 17342 bound_to 10162
  140.7002  143.7651  150.7390 LP  0  0  0  0  0  0  0  0  0  0  0  0  # atno 17343 bound_to 10162
  156.7327  130.9049  151.3627 LP  0  0  0  0  0  0  0  0  0  0  0  0  # atno 17370 bound_to 10713
  157.6849  130.9176  150.0361 LP  0  0  0  0  0  0  0  0  0  0  0  0  # atno 17371 bound_to 10713
  140.3637  134.2465  155.7184 LP  0  0  0  0  0  0  0  0  0  0  0  0  # atno 17394 bound_to 11000
  141.2009  133.7976  157.0467 LP  0  0  0  0  0  0  0  0  0  0  0  0  # atno 17395 bound_to 11000

$$$$
