AV-unprocessed.smi:2037|AV-procd|sdf|8278|dock8
  -GOLD-   2272010543D 1   1.00000     0.00000
 Structure written by MMmdl.
 38 39  0  0  0  0  0  0  0  0  3 V2000
  145.9440  132.4824  150.3442 C   0  0  0  0  0  0  0  0  0  0  0  0
  146.0390  133.2277  151.6827 C   0  0  2  0  0  0  0  0  0  0  0  0
  145.7759  134.7334  151.5174 C   0  0  0  0  0  0  0  0  0  0  0  0
  145.8953  135.4704  152.8619 C   0  0  0  0  0  0  0  0  0  0  0  0
  147.2248  135.2463  153.4875 N   0  3  1  0  0  0  0  0  0  0  0  0
  147.3962  136.0477  154.7255 C   0  0  0  0  0  0  0  0  0  0  0  0
  146.8608  135.3301  155.9745 C   0  0  0  0  0  0  0  0  0  0  0  0
  147.1680  136.1041  157.1690 N   0  0  0  0  0  0  0  0  0  0  0  0
  147.5183  135.5887  158.3542 C   0  0  0  0  0  0  0  0  0  0  0  0
  147.6009  134.3661  158.4913 O   0  0  0  0  0  0  0  0  0  0  0  0
  147.7504  136.5230  159.3033 N   0  5  0  0  0  0  0  0  0  0  0  0
  147.6005  136.2151  160.6020 C   0  0  0  0  0  0  0  0  0  0  0  0
  147.5677  137.1387  161.5692 N   0  0  0  0  0  0  0  0  0  0  0  0
  147.4139  136.5990  162.8476 C   0  0  0  0  0  0  0  0  0  0  0  0
  147.3346  135.2317  162.8544 C   0  0  0  0  0  0  0  0  0  0  0  0
  147.4535  134.5771  161.2459 S   0  0  0  0  0  0  0  0  0  0  0  0
  147.4981  133.7969  153.6817 C   0  0  0  0  0  0  0  0  0  0  0  0
  147.4085  133.0283  152.3522 C   0  0  0  0  0  0  0  0  0  0  0  0
  146.6819  132.8499  149.6304 H   0  0  0  0  0  0  0  0  0  0  0  0
  144.9575  132.6054  149.8961 H   0  0  0  0  0  0  0  0  0  0  0  0
  146.1127  131.4133  150.4773 H   0  0  0  0  0  0  0  0  0  0  0  0
  145.2739  132.8185  152.3443 H   0  0  0  0  0  0  0  0  0  0  0  0
  146.4847  135.1583  150.8049 H   0  0  0  0  0  0  0  0  0  0  0  0
  144.7822  134.8953  151.0983 H   0  0  0  0  0  0  0  0  0  0  0  0
  145.7405  136.5375  152.6969 H   0  0  0  0  0  0  0  0  0  0  0  0
  145.1110  135.1382  153.5439 H   0  0  0  0  0  0  0  0  0  0  0  0
  148.4585  136.2427  154.8806 H   0  0  0  0  0  0  0  0  0  0  0  0
  146.9188  137.0217  154.6042 H   0  0  0  0  0  0  0  0  0  0  0  0
  145.7810  135.1936  155.9144 H   0  0  0  0  0  0  0  0  0  0  0  0
  147.3101  134.3400  156.0641 H   0  0  0  0  0  0  0  0  0  0  0  0
  147.1123  137.1097  157.0985 H   0  0  0  0  0  0  0  0  0  0  0  0
  147.3713  137.2637  163.6974 H   0  0  0  0  0  0  0  0  0  0  0  0
  147.2160  134.5733  163.7015 H   0  0  0  0  0  0  0  0  0  0  0  0
  148.4921  133.6491  154.1017 H   0  0  0  0  0  0  0  0  0  0  0  0
  146.7881  133.3849  154.4006 H   0  0  0  0  0  0  0  0  0  0  0  0
  147.5857  131.9672  152.5309 H   0  0  0  0  0  0  0  0  0  0  0  0
  148.2017  133.3646  151.6827 H   0  0  0  0  0  0  0  0  0  0  0  0
  147.9086  135.5906  152.8287 H   0  0  0  0  0  0  0  0  0  0  0  0
  1  2  1  0  0  0  0
  1 19  1  0  0  0  0
  1 20  1  0  0  0  0
  1 21  1  0  0  0  0
  2 18  1  0  0  0  0
  2  3  1  0  0  0  0
  2 22  1  0  0  0  0
  3  4  1  0  0  0  0
  3 23  1  0  0  0  0
  3 24  1  0  0  0  0
  4  5  1  0  0  0  0
  4 25  1  0  0  0  0
  4 26  1  0  0  0  0
  5  6  1  0  0  0  0
  5 17  1  0  0  0  0
  5 38  1  0  0  0  0
  6  7  1  0  0  0  0
  6 27  1  0  0  0  0
  6 28  1  0  0  0  0
  7  8  1  0  0  0  0
  7 29  1  0  0  0  0
  7 30  1  0  0  0  0
  8  9  1  0  0  0  0
  8 31  1  0  0  0  0
  9 10  2  0  0  0  0
  9 11  1  0  0  0  0
 11 12  1  0  0  0  0
 12 16  1  0  0  0  0
 12 13  2  0  0  0  0
 13 14  1  0  0  0  0
 14 15  2  0  0  0  0
 14 32  1  0  0  0  0
 15 16  1  0  0  0  0
 15 33  1  0  0  0  0
 17 18  1  0  0  0  0
 17 34  1  0  0  0  0
 17 35  1  0  0  0  0
 18 36  1  0  0  0  0
 18 37  1  0  0  0  0
M  CHG  1   5   1
M  CHG  1  11  -1
M  END
> <s_m_source_file>
AV-unprocessed.smi

> <i_m_source_file_index>
2037

> <i_lp_mmshare_version>
43012

> <i_f3d_flags>
0

> <s_epik_input>
W0NIM11bQ0hdMVtDSDJdW0NIMl1OKFtDSDJdW0NIMl0xKVtDSDJdW0NIMl1bTkhdQyg9TylbTkhdYzJuW2NIXVtjSF1zMg==

> <s_epik_cmdline>
J2VwaWtfcHl0aG9uJywgJy1waCcsICc3LjAnLCAnLXRuJywgJzgnLCAnLW1hJywgJzIwMCcsICctbWV0YWxfYmluZGluZycsICctaW1hZScsICc8aW5maWxlLm1hZT4nLCAnLW9tYWUnLCAnPG91dGZpbGUubWFlPic=

> <r_lp_tautomer_probability>
0.999

> <r_epik_Ionization_Penalty>
6.22113

> <r_epik_Ionization_Penalty_Charging>
5.39005

> <r_epik_Ionization_Penalty_Neutral>
0.831074

> <r_epik_State_Penalty>
5.38997

> <r_epik_Charging_Adjusted_Penalty>
10.78

> <i_epik_Tot_Q>
0

> <i_epik_Tot_abs_Q>
2

> <r_epik_Metal_State_Penalty>
1.41601

> <b_epik_Metal_Only>
1

> <s_lp_Force_Field>
OPLS_2005

> <r_lp_Energy>
7.40316

> <b_lp_Chiralities_Consistent>
1

> <s_lp_Variant>
AV-unprocessed.smi:2037-3

> <Gold.Version>
5.8.1

> <Gold.Id.Protein>
6NUR|6NUR_protein|mol2

> <Gold.PLP.Fitness>
40.1989

> <Gold.PLP.PLP>
-30.1502

> <Gold.PLP.part.hbond>
-3.0000

> <Gold.PLP.part.metal>
0.0000

> <Gold.PLP.part.buried>
-3.7357

> <Gold.PLP.part.nonpolar>
-23.7102

> <Gold.PLP.part.repulsive>
0.0000

> <Gold.PLP.ligand.clash>
0.0000

> <Gold.PLP.ligand.torsion>
0.6047

> <Gold.PLP.Chemscore.Hbond>
3.7300

> <Gold.PLP.Chemscore.CHOScore>
0.0000

> <Gold.PLP.Chemscore.Metal>
0.0000

> <Gold.Chemscore.Hbonds>
donor molecule, donor type, donor heavy atom, donor atom, acceptor molecule, acceptor atom, score
      L1  H     5    38       P1  7948  2.00
      P1  H  6931  6943       L1    13  0.94
      P1  H  6934  6947       L1    13  0.82

> <Gold.PLP.Chemscore.Internal.Correction>
0.0680

> <Gold.Rescore>
     Score         DG    S(hbond)    S(metal)    S(lipo)     H(rot)  DE(clash)    DE(int)     intcor
     13.47     -15.44       1.95        0.00      63.86       1.57       0.01       1.96       ----

> <Gold.Chemscore.Fitness>
13.4651

> <Gold.Chemscore.DG>
-15.4355

> <Gold.Chemscore.ZeroCoef>
-5.4800

> <Gold.Chemscore.Hbond>
1.9450

> <Gold.Chemscore.Metal>
0.0000

> <Gold.Chemscore.Lipo>
63.8645

> <Gold.Chemscore.Internal_Hbond>
0.0000

> <Gold.Chemscore.DEClash>
0.0106

> <Gold.Chemscore.DEInternal>
1.9597

> <Gold.Chemscore.Rot>
1.5676

> <Gold.Chemscore.Internal.Correction>
   9.000000E+99

> <Gold.Chemscore.Hbonds>
donor molecule, donor type, donor heavy atom, donor atom, acceptor molecule, acceptor atom, score
      L1  H     5    38       P1  7948  0.95
      P1  H  6931  6943       L1    13  0.20
      P1  H  6934  6947       L1    13  0.70

> <Gold.Chemscore.Hbond.Weighted>
-6.4963

> <Gold.Chemscore.Metal.Weighted>
-0.0000

> <Gold.Chemscore.Lipo.Weighted>
-7.4721

> <Gold.Chemscore.Internal_Hbond.Weighted>
0.0000

> <Gold.Chemscore.DEClash.Weighted>
0.0106

> <Gold.Chemscore.DEInternal.Weighted>
1.9597

> <Gold.Chemscore.Rot.Weighted>
4.0130

> <Gold.Chemscore.Internal.Correction.Weighted>
   9.000000E+99

> <Gold.Protein.RotatedTorsions>
[ 6907 6896 6895 6894 ] final   14.11 input  -60.11 | X-H torsion
[ 7974 7965 7964 7962 ] final -122.49 input  175.53 | X-H torsion
[ 8008 7997 7996 7995 ] final  -79.47 input   59.86 | X-H torsion
[ 10167 10162 10161 10158 ] final  -90.62 input  -65.29 | X-H torsion
[ 10718 10713 10712 10709 ] final  -36.28 input   66.30 | X-H torsion
[ 10763 10752 10751 10750 ] final  -62.08 input  -60.55 | X-H torsion
[ 11005 11000 10999 10996 ] final    8.89 input  -57.11 | X-H torsion

> <Gold.Protein.ActiveResidues>
 VAL166  LYS551  ARG553  GLY616  TRP617  ASP618  TYR619  PRO620  LYS621  CYS622 
 ASP623  PHE694  ASN695  SER759  ASP760  ASP761  ALA762  ILE779  LEU786  VAL792 
 PHE793  MET794  SER795  GLU796  ALA797  LYS798  CYS799  TRP800  GLU811  SER814 

> <Gold.Protein.RotatedAtoms>
  151.7970  135.0720  160.0394 H   0  0  0  0  0  0  0  0  0  0  0  0  # atno 6907 bound_to 6896
  152.3116  133.5755  159.5693 H   0  0  0  0  0  0  0  0  0  0  0  0  # atno 6908 bound_to 6896
  150.7323  134.0059  159.3695 H   0  0  0  0  0  0  0  0  0  0  0  0  # atno 6909 bound_to 6896
  145.0289  140.8051  143.4336 H   0  0  0  0  0  0  0  0  0  0  0  0  # atno 7974 bound_to 7965
  154.5788  140.0678  156.9074 H   0  0  0  0  0  0  0  0  0  0  0  0  # atno 8008 bound_to 7997
  155.2500  140.3351  155.4265 H   0  0  0  0  0  0  0  0  0  0  0  0  # atno 8009 bound_to 7997
  156.2174  140.1784  156.7542 H   0  0  0  0  0  0  0  0  0  0  0  0  # atno 8010 bound_to 7997
  140.3530  143.2881  151.9704 H   0  0  0  0  0  0  0  0  0  0  0  0  # atno 10167 bound_to 10162
  156.3287  130.4276  149.7892 H   0  0  0  0  0  0  0  0  0  0  0  0  # atno 10718 bound_to 10713
  154.2944  135.6247  153.5398 H   0  0  0  0  0  0  0  0  0  0  0  0  # atno 10763 bound_to 10752
  152.9848  135.5663  154.5354 H   0  0  0  0  0  0  0  0  0  0  0  0  # atno 10764 bound_to 10752
  154.4971  135.2870  155.1426 H   0  0  0  0  0  0  0  0  0  0  0  0  # atno 10765 bound_to 10752
  140.5319  134.0458  155.7876 H   0  0  0  0  0  0  0  0  0  0  0  0  # atno 11005 bound_to 11000
  145.1797  139.2358  143.5299 LP  0  0  0  0  0  0  0  0  0  0  0  0  # atno 17320 bound_to 7965
  146.3496  140.1568  142.8591 LP  0  0  0  0  0  0  0  0  0  0  0  0  # atno 17321 bound_to 7965
  139.4824  144.6059  151.7522 LP  0  0  0  0  0  0  0  0  0  0  0  0  # atno 17342 bound_to 10162
  140.5200  144.0893  150.6020 LP  0  0  0  0  0  0  0  0  0  0  0  0  # atno 17343 bound_to 10162
  156.5173  130.8199  151.3191 LP  0  0  0  0  0  0  0  0  0  0  0  0  # atno 17370 bound_to 10713
  157.7426  130.9894  150.2530 LP  0  0  0  0  0  0  0  0  0  0  0  0  # atno 17371 bound_to 10713
  141.1276  133.9356  157.2603 LP  0  0  0  0  0  0  0  0  0  0  0  0  # atno 17394 bound_to 11000
  139.9549  135.0167  156.9100 LP  0  0  0  0  0  0  0  0  0  0  0  0  # atno 17395 bound_to 11000

$$$$
