AV-unprocessed.smi:2859|AV-procd|sdf|11005|dock4
  -GOLD-   2272015463D 1   1.00000     0.00000
 Structure written by MMmdl.
 51 52  0  0  0  0  0  0  0  0  1 V2000
  153.4247  142.9568  160.0067 C   0  0  0  0  0  0  0  0  0  0  0  0
  152.1897  143.4369  159.2169 C   0  0  0  0  0  0  0  0  0  0  0  0
  151.0747  143.8634  160.1941 C   0  0  0  0  0  0  0  0  0  0  0  0
  152.6083  144.6879  158.4128 C   0  0  0  0  0  0  0  0  0  0  0  0
  151.6787  142.3015  158.3136 C   0  0  0  0  0  0  0  0  0  0  0  0
  150.5208  142.4048  157.5058 C   0  0  0  0  0  0  0  0  0  0  0  0
  150.1554  141.2661  156.7459 C   0  0  0  0  0  0  0  0  0  0  0  0
  149.0185  141.2378  155.9072 N   0  0  0  0  0  0  0  0  0  0  0  0
  149.1532  141.7172  154.5355 C   0  0  0  0  0  0  0  0  0  0  0  0
  147.9314  141.3044  153.7005 C   0  0  0  0  0  0  0  0  0  0  0  0
  146.7443  141.7687  154.3312 O   0  0  0  0  0  0  0  0  0  0  0  0
  146.5544  141.1843  155.6201 C   0  0  2  0  0  0  0  0  0  0  0  0
  145.2069  141.6562  156.1876 C   0  0  0  0  0  0  0  0  0  0  0  0
  144.1204  141.4600  155.4351 N   0  0  0  0  0  0  0  0  0  0  0  0
  145.1377  142.1779  157.2991 O   0  0  0  0  0  0  0  0  0  0  0  0
  147.7392  141.5683  156.5356 C   0  0  0  0  0  0  0  0  0  0  0  0
  150.9078  140.1431  156.8018 N   0  0  0  0  0  0  0  0  0  0  0  0
  152.0111  140.1461  157.5566 C   0  0  0  0  0  0  0  0  0  0  0  0
  152.7599  138.8129  157.7183 C   0  0  0  0  0  0  0  0  0  0  0  0
  153.8695  138.9298  158.7891 C   0  0  0  0  0  0  0  0  0  0  0  0
  153.4702  138.4074  156.4048 C   0  0  0  0  0  0  0  0  0  0  0  0
  151.7624  137.7115  158.1212 C   0  0  0  0  0  0  0  0  0  0  0  0
  152.4031  141.1596  158.3346 N   0  0  0  0  0  0  0  0  0  0  0  0
  153.8198  143.7471  160.6458 H   0  0  0  0  0  0  0  0  0  0  0  0
  154.2258  142.6454  159.3350 H   0  0  0  0  0  0  0  0  0  0  0  0
  153.1892  142.1098  160.6521 H   0  0  0  0  0  0  0  0  0  0  0  0
  150.7698  143.0428  160.8445 H   0  0  0  0  0  0  0  0  0  0  0  0
  150.1880  144.2031  159.6576 H   0  0  0  0  0  0  0  0  0  0  0  0
  151.4017  144.6793  160.8395 H   0  0  0  0  0  0  0  0  0  0  0  0
  152.9678  145.4791  159.0718 H   0  0  0  0  0  0  0  0  0  0  0  0
  151.7727  145.1014  157.8465 H   0  0  0  0  0  0  0  0  0  0  0  0
  153.4145  144.4659  157.7124 H   0  0  0  0  0  0  0  0  0  0  0  0
  149.9306  143.3064  157.4854 H   0  0  0  0  0  0  0  0  0  0  0  0
  149.2561  142.8030  154.5407 H   0  0  0  0  0  0  0  0  0  0  0  0
  150.0493  141.3011  154.0741 H   0  0  0  0  0  0  0  0  0  0  0  0
  147.9956  141.7373  152.7024 H   0  0  0  0  0  0  0  0  0  0  0  0
  147.8918  140.2211  153.5757 H   0  0  0  0  0  0  0  0  0  0  0  0
  146.5043  140.0987  155.5169 H   0  0  0  0  0  0  0  0  0  0  0  0
  143.2156  141.7480  155.7789 H   0  0  0  0  0  0  0  0  0  0  0  0
  144.2071  141.0168  154.5322 H   0  0  0  0  0  0  0  0  0  0  0  0
  147.6262  141.0520  157.4891 H   0  0  0  0  0  0  0  0  0  0  0  0
  147.7240  142.6382  156.7488 H   0  0  0  0  0  0  0  0  0  0  0  0
  154.4374  138.0026  158.8752 H   0  0  0  0  0  0  0  0  0  0  0  0
  153.4628  139.1420  159.7783 H   0  0  0  0  0  0  0  0  0  0  0  0
  154.5749  139.7249  158.5448 H   0  0  0  0  0  0  0  0  0  0  0  0
  154.1637  139.1808  156.0725 H   0  0  0  0  0  0  0  0  0  0  0  0
  152.7612  138.2284  155.5955 H   0  0  0  0  0  0  0  0  0  0  0  0
  154.0417  137.4871  156.5303 H   0  0  0  0  0  0  0  0  0  0  0  0
  152.2605  136.7498  158.2465 H   0  0  0  0  0  0  0  0  0  0  0  0
  150.9866  137.5852  157.3653 H   0  0  0  0  0  0  0  0  0  0  0  0
  151.2673  137.9511  159.0630 H   0  0  0  0  0  0  0  0  0  0  0  0
  1  2  1  0  0  0  0
  1 24  1  0  0  0  0
  1 25  1  0  0  0  0
  1 26  1  0  0  0  0
  2  3  1  0  0  0  0
  2  4  1  0  0  0  0
  2  5  1  0  0  0  0
  3 27  1  0  0  0  0
  3 28  1  0  0  0  0
  3 29  1  0  0  0  0
  4 30  1  0  0  0  0
  4 31  1  0  0  0  0
  4 32  1  0  0  0  0
  5 23  1  0  0  0  0
  5  6  2  0  0  0  0
  6  7  1  0  0  0  0
  6 33  1  0  0  0  0
  7  8  1  0  0  0  0
  7 17  2  0  0  0  0
  8 16  1  0  0  0  0
  8  9  1  0  0  0  0
  9 10  1  0  0  0  0
  9 34  1  0  0  0  0
  9 35  1  0  0  0  0
 10 11  1  0  0  0  0
 10 36  1  0  0  0  0
 10 37  1  0  0  0  0
 11 12  1  0  0  0  0
 12 13  1  0  0  0  0
 12 16  1  0  0  0  0
 12 38  1  0  0  0  0
 13 14  1  0  0  0  0
 13 15  2  0  0  0  0
 14 39  1  0  0  0  0
 14 40  1  0  0  0  0
 16 41  1  0  0  0  0
 16 42  1  0  0  0  0
 17 18  1  0  0  0  0
 18 19  1  0  0  0  0
 18 23  2  0  0  0  0
 19 20  1  0  0  0  0
 19 21  1  0  0  0  0
 19 22  1  0  0  0  0
 20 43  1  0  0  0  0
 20 44  1  0  0  0  0
 20 45  1  0  0  0  0
 21 46  1  0  0  0  0
 21 47  1  0  0  0  0
 21 48  1  0  0  0  0
 22 49  1  0  0  0  0
 22 50  1  0  0  0  0
 22 51  1  0  0  0  0
M  END
> <s_m_source_file>
AV-unprocessed.smi

> <i_m_source_file_index>
2859

> <i_lp_mmshare_version>
43012

> <i_f3d_flags>
0

> <s_epik_input>
W0NIM11DKFtDSDNdKShbQ0gzXSljMVtjSF1jKG5jKG4xKUMoW0NIM10pKFtDSDNdKVtDSDNdKU4yW0NIMl1bQ0gyXU9bQ0BIXShbQ0gyXTIpQyg9TylbTkgyXQ==

> <s_epik_cmdline>
J2VwaWtfcHl0aG9uJywgJy1waCcsICc3LjAnLCAnLXRuJywgJzgnLCAnLW1hJywgJzIwMCcsICctbWV0YWxfYmluZGluZycsICctaW1hZScsICc8aW5maWxlLm1hZT4nLCAnLW9tYWUnLCAnPG91dGZpbGUubWFlPic=

> <r_lp_tautomer_probability>
1

> <r_epik_Ionization_Penalty>
0.0011326

> <r_epik_Ionization_Penalty_Charging>
0

> <r_epik_Ionization_Penalty_Neutral>
0.0011326

> <r_epik_State_Penalty>
0.000721507

> <r_epik_Charging_Adjusted_Penalty>
0.000721507

> <i_epik_Tot_Q>
0

> <i_epik_Tot_abs_Q>
0

> <r_epik_Metal_State_Penalty>
-0

> <b_epik_Metal_Only>
0

> <s_lp_Force_Field>
OPLS_2005

> <r_lp_Energy>
9.68103

> <b_lp_Chiralities_Consistent>
1

> <s_lp_Variant>
AV-unprocessed.smi:2859-2

> <Gold.Version>
5.8.1

> <Gold.Id.Protein>
6NUR|6NUR_protein|mol2

> <Gold.PLP.Fitness>
41.3005

> <Gold.PLP.PLP>
-38.9461

> <Gold.PLP.part.hbond>
-1.2671

> <Gold.PLP.part.metal>
0.0000

> <Gold.PLP.part.buried>
-5.7472

> <Gold.PLP.part.nonpolar>
-33.3414

> <Gold.PLP.part.repulsive>
0.3298

> <Gold.PLP.ligand.clash>
0.0000

> <Gold.PLP.ligand.torsion>
0.6219

> <Gold.PLP.Chemscore.Hbond>
1.0000

> <Gold.PLP.Chemscore.CHOScore>
0.0000

> <Gold.PLP.Chemscore.Metal>
0.0000

> <Gold.Chemscore.Hbonds>
donor molecule, donor type, donor heavy atom, donor atom, acceptor molecule, acceptor atom, score
      L1  H    14    40       P1 10175  0.68

> <Gold.PLP.Chemscore.Internal.Correction>
0.5983

> <Gold.Rescore>
     Score         DG    S(hbond)    S(metal)    S(lipo)     H(rot)  DE(clash)    DE(int)     intcor
     15.80     -16.29       0.89        0.00     107.07       1.83       0.09       0.40       ----

> <Gold.Chemscore.Fitness>
15.7960

> <Gold.Chemscore.DG>
-16.2863

> <Gold.Chemscore.ZeroCoef>
-5.4800

> <Gold.Chemscore.Hbond>
0.8890

> <Gold.Chemscore.Metal>
0.0000

> <Gold.Chemscore.Lipo>
107.0747

> <Gold.Chemscore.Internal_Hbond>
0.0000

> <Gold.Chemscore.DEClash>
0.0862

> <Gold.Chemscore.DEInternal>
0.4041

> <Gold.Chemscore.Rot>
1.8323

> <Gold.Chemscore.Internal.Correction>
   9.000000E+99

> <Gold.Chemscore.Hbonds>
donor molecule, donor type, donor heavy atom, donor atom, acceptor molecule, acceptor atom, score
      L1  H    14    40       P1 10175  0.60

> <Gold.Chemscore.Hbond.Weighted>
-2.9693

> <Gold.Chemscore.Metal.Weighted>
-0.0000

> <Gold.Chemscore.Lipo.Weighted>
-12.5277

> <Gold.Chemscore.Internal_Hbond.Weighted>
0.0000

> <Gold.Chemscore.DEClash.Weighted>
0.0862

> <Gold.Chemscore.DEInternal.Weighted>
0.4041

> <Gold.Chemscore.Rot.Weighted>
4.6907

> <Gold.Chemscore.Internal.Correction.Weighted>
   9.000000E+99

> <Gold.Protein.RotatedTorsions>
[ 6907 6896 6895 6894 ] final -145.28 input  -60.11 | X-H torsion
[ 7974 7965 7964 7962 ] final   22.22 input  175.53 | X-H torsion
[ 8008 7997 7996 7995 ] final   17.29 input   59.86 | X-H torsion
[ 10167 10162 10161 10158 ] final -177.67 input  -65.29 | X-H torsion
[ 10718 10713 10712 10709 ] final -119.14 input   66.30 | X-H torsion
[ 10763 10752 10751 10750 ] final  -70.58 input  -60.55 | X-H torsion
[ 11005 11000 10999 10996 ] final -178.00 input  -57.11 | X-H torsion

> <Gold.Protein.ActiveResidues>
 VAL166  LYS551  ARG553  GLY616  TRP617  ASP618  TYR619  PRO620  LYS621  CYS622 
 ASP623  PHE694  ASN695  SER759  ASP760  ASP761  ALA762  ILE779  LEU786  VAL792 
 PHE793  MET794  SER795  GLU796  ALA797  LYS798  CYS799  TRP800  GLU811  SER814 

> <Gold.Protein.RotatedAtoms>
  151.1256  133.5073  159.2600 H   0  0  0  0  0  0  0  0  0  0  0  0  # atno 6907 bound_to 6896
  151.1814  135.0362  159.8804 H   0  0  0  0  0  0  0  0  0  0  0  0  # atno 6908 bound_to 6896
  152.5458  134.1107  159.8411 H   0  0  0  0  0  0  0  0  0  0  0  0  # atno 6909 bound_to 6896
  146.2038  139.7917  142.8741 H   0  0  0  0  0  0  0  0  0  0  0  0  # atno 7974 bound_to 7965
  154.8893  140.2984  155.5380 H   0  0  0  0  0  0  0  0  0  0  0  0  # atno 8008 bound_to 7997
  156.3021  140.2427  156.3840 H   0  0  0  0  0  0  0  0  0  0  0  0  # atno 8009 bound_to 7997
  154.8636  140.0404  157.1669 H   0  0  0  0  0  0  0  0  0  0  0  0  # atno 8010 bound_to 7997
  139.5469  144.2212  152.1004 H   0  0  0  0  0  0  0  0  0  0  0  0  # atno 10167 bound_to 10162
  156.1159  130.6285  150.9379 H   0  0  0  0  0  0  0  0  0  0  0  0  # atno 10718 bound_to 10713
  154.4197  135.5989  153.6002 H   0  0  0  0  0  0  0  0  0  0  0  0  # atno 10763 bound_to 10752
  152.9793  135.5949  154.3970 H   0  0  0  0  0  0  0  0  0  0  0  0  # atno 10764 bound_to 10752
  154.3794  135.2841  155.2199 H   0  0  0  0  0  0  0  0  0  0  0  0  # atno 10765 bound_to 10752
  140.4346  134.6487  157.4728 H   0  0  0  0  0  0  0  0  0  0  0  0  # atno 11005 bound_to 11000
  145.3391  141.0283  143.3403 LP  0  0  0  0  0  0  0  0  0  0  0  0  # atno 17320 bound_to 7965
  144.8745  139.4991  143.6752 LP  0  0  0  0  0  0  0  0  0  0  0  0  # atno 17321 bound_to 7965
  140.1700  144.4944  150.6584 LP  0  0  0  0  0  0  0  0  0  0  0  0  # atno 17342 bound_to 10162
  140.6720  143.2289  151.5602 LP  0  0  0  0  0  0  0  0  0  0  0  0  # atno 17343 bound_to 10162
  157.6342  131.0918  150.8381 LP  0  0  0  0  0  0  0  0  0  0  0  0  # atno 17370 bound_to 10713
  156.8485  130.5072  149.5314 LP  0  0  0  0  0  0  0  0  0  0  0  0  # atno 17371 bound_to 10713
  140.0111  134.6689  155.9380 LP  0  0  0  0  0  0  0  0  0  0  0  0  # atno 17394 bound_to 11000
  141.1731  133.6538  156.4726 LP  0  0  0  0  0  0  0  0  0  0  0  0  # atno 17395 bound_to 11000

$$$$
