AV-unprocessed.smi:427|AV-procd|sdf|2542|dock5
  -GOLD-   2262022503D 1   1.00000     0.00000
 Structure written by MMmdl.
 51 52  0  0  0  0  0  0  0  0  1 V2000
  153.4686  139.2433  159.9452 C   0  0  0  0  0  0  0  0  0  0  0  0
  152.5185  140.1390  159.1717 C   0  0  0  0  0  0  0  0  0  0  0  0
  152.5219  141.5291  159.4118 C   0  0  0  0  0  0  0  0  0  0  0  0
  151.6448  142.3938  158.7133 C   0  0  0  0  0  0  0  0  0  0  0  0
  151.6209  143.9160  158.9508 C   0  0  0  0  0  0  0  0  0  0  0  0
  150.1740  144.3700  159.2328 C   0  0  0  0  0  0  0  0  0  0  0  0
  152.1400  144.7248  157.7404 C   0  0  0  0  0  0  0  0  0  0  0  0
  152.5107  144.2684  160.1615 C   0  0  0  0  0  0  0  0  0  0  0  0
  150.7670  141.8230  157.7635 C   0  0  0  0  0  0  0  0  0  0  0  0
  150.7577  140.4372  157.5208 C   0  0  0  0  0  0  0  0  0  0  0  0
  151.6335  139.5773  158.2257 C   0  0  0  0  0  0  0  0  0  0  0  0
  151.6785  138.2115  158.0427 O   0  0  0  0  0  0  0  0  0  0  0  0
  150.4890  137.5375  157.6542 C   0  0  0  0  0  0  0  0  0  0  0  0
  149.6569  137.2617  158.9150 C   0  0  2  0  0  0  0  0  0  0  0  0
  150.5505  136.8339  159.9226 O   0  0  0  0  0  0  0  0  0  0  0  0
  148.6007  136.1571  158.6832 C   0  0  0  0  0  0  0  0  0  0  0  0
  148.1922  135.4946  159.9097 N   0  0  0  0  0  0  0  0  0  0  0  0
  147.6201  136.2874  160.9349 C   0  0  0  0  0  0  0  0  0  0  0  0
  147.4621  137.5030  160.8151 O   0  0  0  0  0  0  0  0  0  0  0  0
  147.2220  135.5478  162.1280 C   0  0  0  0  0  0  0  0  0  0  0  0
  147.3871  134.2092  162.2028 C   0  0  0  0  0  0  0  0  0  0  0  0
  147.9304  133.4631  161.1753 N   0  0  0  0  0  0  0  0  0  0  0  0
  148.0869  132.0395  161.2557 C   0  0  0  0  0  0  0  0  0  0  0  0
  148.3487  134.0896  159.9816 C   0  0  0  0  0  0  0  0  0  0  0  0
  148.8180  133.4355  159.0459 O   0  0  0  0  0  0  0  0  0  0  0  0
  154.1515  139.8235  160.5664 H   0  0  0  0  0  0  0  0  0  0  0  0
  154.0659  138.6393  159.2616 H   0  0  0  0  0  0  0  0  0  0  0  0
  152.9065  138.5720  160.5949 H   0  0  0  0  0  0  0  0  0  0  0  0
  153.2132  141.9116  160.1461 H   0  0  0  0  0  0  0  0  0  0  0  0
  150.1195  145.4477  159.3899 H   0  0  0  0  0  0  0  0  0  0  0  0
  149.7616  143.8960  160.1237 H   0  0  0  0  0  0  0  0  0  0  0  0
  149.5160  144.1272  158.3976 H   0  0  0  0  0  0  0  0  0  0  0  0
  151.5315  144.5569  156.8508 H   0  0  0  0  0  0  0  0  0  0  0  0
  153.1725  144.4696  157.4984 H   0  0  0  0  0  0  0  0  0  0  0  0
  152.1161  145.7964  157.9419 H   0  0  0  0  0  0  0  0  0  0  0  0
  152.5314  145.3445  160.3387 H   0  0  0  0  0  0  0  0  0  0  0  0
  153.5396  143.9437  160.0017 H   0  0  0  0  0  0  0  0  0  0  0  0
  152.1589  143.8024  161.0819 H   0  0  0  0  0  0  0  0  0  0  0  0
  150.0859  142.4477  157.2054 H   0  0  0  0  0  0  0  0  0  0  0  0
  150.0669  140.0584  156.7834 H   0  0  0  0  0  0  0  0  0  0  0  0
  149.9130  138.1400  156.9494 H   0  0  0  0  0  0  0  0  0  0  0  0
  150.7484  136.5961  157.1665 H   0  0  0  0  0  0  0  0  0  0  0  0
  149.1889  138.1922  159.2394 H   0  0  0  0  0  0  0  0  0  0  0  0
  150.4391  137.3908  160.6781 H   0  0  0  0  0  0  0  0  0  0  0  0
  147.6890  136.5610  158.2394 H   0  0  0  0  0  0  0  0  0  0  0  0
  148.9274  135.4036  157.9643 H   0  0  0  0  0  0  0  0  0  0  0  0
  146.7858  136.0794  162.9610 H   0  0  0  0  0  0  0  0  0  0  0  0
  147.0752  133.7041  163.1053 H   0  0  0  0  0  0  0  0  0  0  0  0
  149.1487  131.8166  161.1364 H   0  0  0  0  0  0  0  0  0  0  0  0
  147.4813  131.5971  160.4626 H   0  0  0  0  0  0  0  0  0  0  0  0
  147.7334  131.7167  162.2356 H   0  0  0  0  0  0  0  0  0  0  0  0
  1  2  1  0  0  0  0
  1 26  1  0  0  0  0
  1 27  1  0  0  0  0
  1 28  1  0  0  0  0
  2 11  1  0  0  0  0
  2  3  2  0  0  0  0
  3  4  1  0  0  0  0
  3 29  1  0  0  0  0
  4  5  1  0  0  0  0
  4  9  2  0  0  0  0
  5  6  1  0  0  0  0
  5  7  1  0  0  0  0
  5  8  1  0  0  0  0
  6 30  1  0  0  0  0
  6 31  1  0  0  0  0
  6 32  1  0  0  0  0
  7 33  1  0  0  0  0
  7 34  1  0  0  0  0
  7 35  1  0  0  0  0
  8 36  1  0  0  0  0
  8 37  1  0  0  0  0
  8 38  1  0  0  0  0
  9 10  1  0  0  0  0
  9 39  1  0  0  0  0
 10 11  2  0  0  0  0
 10 40  1  0  0  0  0
 11 12  1  0  0  0  0
 12 13  1  0  0  0  0
 13 14  1  0  0  0  0
 13 41  1  0  0  0  0
 13 42  1  0  0  0  0
 14 15  1  0  0  0  0
 14 16  1  0  0  0  0
 14 43  1  0  0  0  0
 15 44  1  0  0  0  0
 16 17  1  0  0  0  0
 16 45  1  0  0  0  0
 16 46  1  0  0  0  0
 17 24  1  0  0  0  0
 17 18  1  0  0  0  0
 18 19  2  0  0  0  0
 18 20  1  0  0  0  0
 20 21  2  0  0  0  0
 20 47  1  0  0  0  0
 21 22  1  0  0  0  0
 21 48  1  0  0  0  0
 22 23  1  0  0  0  0
 22 24  1  0  0  0  0
 23 49  1  0  0  0  0
 23 50  1  0  0  0  0
 23 51  1  0  0  0  0
 24 25  2  0  0  0  0
M  END
> <s_m_source_file>
AV-unprocessed.smi

> <i_m_source_file_index>
427

> <i_lp_mmshare_version>
43012

> <i_f3d_flags>
0

> <s_epik_input>
W0NIM11jMVtjSF1jKEMoW0NIM10pKFtDSDNdKVtDSDNdKVtjSF1bY0hdYzFPW0NIMl1bQ0BIXShbT0hdKVtDSDJdbjJjKD1PKVtjSF1bY0hdbihbQ0gzXSljMj1P

> <s_epik_cmdline>
J2VwaWtfcHl0aG9uJywgJy1waCcsICc3LjAnLCAnLXRuJywgJzgnLCAnLW1hJywgJzIwMCcsICctbWV0YWxfYmluZGluZycsICctaW1hZScsICc8aW5maWxlLm1hZT4nLCAnLW9tYWUnLCAnPG91dGZpbGUubWFlPic=

> <r_lp_tautomer_probability>
1

> <r_epik_Ionization_Penalty>
2.02112e-07

> <r_epik_Ionization_Penalty_Charging>
8.49383e-08

> <r_epik_Ionization_Penalty_Neutral>
1.17174e-07

> <r_epik_State_Penalty>
-0

> <r_epik_Charging_Adjusted_Penalty>
8.49383e-08

> <i_epik_Tot_Q>
0

> <i_epik_Tot_abs_Q>
0

> <r_epik_Metal_State_Penalty>
-0

> <b_epik_Metal_Only>
0

> <s_lp_Force_Field>
OPLS_2005

> <r_lp_Energy>
25.5029

> <b_lp_Chiralities_Consistent>
1

> <s_lp_Variant>
AV-unprocessed.smi:427-1

> <Gold.Version>
5.8.1

> <Gold.Id.Protein>
6NUR|6NUR_protein|mol2

> <Gold.PLP.Fitness>
56.0132

> <Gold.PLP.PLP>
-47.7246

> <Gold.PLP.part.hbond>
-4.1145

> <Gold.PLP.part.metal>
0.0000

> <Gold.PLP.part.buried>
-4.0851

> <Gold.PLP.part.nonpolar>
-37.9368

> <Gold.PLP.part.repulsive>
0.0000

> <Gold.PLP.ligand.clash>
0.0000

> <Gold.PLP.ligand.torsion>
1.0978

> <Gold.PLP.Chemscore.Hbond>
3.4597

> <Gold.PLP.Chemscore.CHOScore>
0.0000

> <Gold.PLP.Chemscore.Metal>
0.0000

> <Gold.Chemscore.Hbonds>
donor molecule, donor type, donor heavy atom, donor atom, acceptor molecule, acceptor atom, score
      P1  H  6896  6908       L1    25  0.85
      P1  H  6896  6909       L1    15  1.00
      P1  H  6931  6943       L1    19  0.63
      P1  H  6934  6947       L1    19  1.00

> <Gold.PLP.Chemscore.Internal.Correction>
0.1051

> <Gold.Rescore>
     Score         DG    S(hbond)    S(metal)    S(lipo)     H(rot)  DE(clash)    DE(int)     intcor
     20.83     -22.85       2.71        0.00     125.58       2.49       0.15       1.87       ----

> <Gold.Chemscore.Fitness>
20.8267

> <Gold.Chemscore.DG>
-22.8475

> <Gold.Chemscore.ZeroCoef>
-5.4800

> <Gold.Chemscore.Hbond>
2.7089

> <Gold.Chemscore.Metal>
0.0000

> <Gold.Chemscore.Lipo>
125.5775

> <Gold.Chemscore.Internal_Hbond>
0.0000

> <Gold.Chemscore.DEClash>
0.1475

> <Gold.Chemscore.DEInternal>
1.8733

> <Gold.Chemscore.Rot>
2.4894

> <Gold.Chemscore.Internal.Correction>
   9.000000E+99

> <Gold.Chemscore.Hbonds>
donor molecule, donor type, donor heavy atom, donor atom, acceptor molecule, acceptor atom, score
      P1  H  6896  6908       L1    25  0.24
      P1  H  6896  6909       L1    15  0.95
      P1  H  6931  6943       L1    19  0.24
      P1  H  6934  6947       L1    19  0.91

> <Gold.Chemscore.Hbond.Weighted>
-9.0477

> <Gold.Chemscore.Metal.Weighted>
-0.0000

> <Gold.Chemscore.Lipo.Weighted>
-14.6926

> <Gold.Chemscore.Internal_Hbond.Weighted>
0.0000

> <Gold.Chemscore.DEClash.Weighted>
0.1475

> <Gold.Chemscore.DEInternal.Weighted>
1.8733

> <Gold.Chemscore.Rot.Weighted>
6.3728

> <Gold.Chemscore.Internal.Correction.Weighted>
   9.000000E+99

> <Gold.Protein.RotatedTorsions>
[ 6907 6896 6895 6894 ] final  116.80 input  -60.11 | X-H torsion
[ 7974 7965 7964 7962 ] final   41.50 input  175.53 | X-H torsion
[ 8008 7997 7996 7995 ] final  117.57 input   59.86 | X-H torsion
[ 10167 10162 10161 10158 ] final   48.05 input  -65.29 | X-H torsion
[ 10718 10713 10712 10709 ] final  -67.90 input   66.30 | X-H torsion
[ 10763 10752 10751 10750 ] final  -25.62 input  -60.55 | X-H torsion
[ 11005 11000 10999 10996 ] final  -65.29 input  -57.11 | X-H torsion

> <Gold.Protein.ActiveResidues>
 VAL166  LYS551  ARG553  GLY616  TRP617  ASP618  TYR619  PRO620  LYS621  CYS622 
 ASP623  PHE694  ASN695  SER759  ASP760  ASP761  ALA762  ILE779  LEU786  VAL792 
 PHE793  MET794  SER795  GLU796  ALA797  LYS798  CYS799  TRP800  GLU811  SER814 

> <Gold.Protein.RotatedAtoms>
  152.4654  133.7911  159.6902 H   0  0  0  0  0  0  0  0  0  0  0  0  # atno 6907 bound_to 6896
  150.8616  133.7626  159.2997 H   0  0  0  0  0  0  0  0  0  0  0  0  # atno 6908 bound_to 6896
  151.5189  135.1070  159.9925 H   0  0  0  0  0  0  0  0  0  0  0  0  # atno 6909 bound_to 6896
  146.0819  139.5409  142.9532 H   0  0  0  0  0  0  0  0  0  0  0  0  # atno 7974 bound_to 7965
  156.2501  140.2893  156.0698 H   0  0  0  0  0  0  0  0  0  0  0  0  # atno 8008 bound_to 7997
  155.1683  140.0401  157.2875 H   0  0  0  0  0  0  0  0  0  0  0  0  # atno 8009 bound_to 7997
  154.6344  140.2507  155.7403 H   0  0  0  0  0  0  0  0  0  0  0  0  # atno 8010 bound_to 7997
  140.2973  144.2976  150.6227 H   0  0  0  0  0  0  0  0  0  0  0  0  # atno 10167 bound_to 10162
  156.0533  130.4285  150.1923 H   0  0  0  0  0  0  0  0  0  0  0  0  # atno 10718 bound_to 10713
  153.7028  135.6955  153.5058 H   0  0  0  0  0  0  0  0  0  0  0  0  # atno 10763 bound_to 10752
  153.2330  135.4331  155.0615 H   0  0  0  0  0  0  0  0  0  0  0  0  # atno 10764 bound_to 10752
  154.8339  135.3489  154.6567 H   0  0  0  0  0  0  0  0  0  0  0  0  # atno 10765 bound_to 10752
  141.1450  133.6679  156.5964 H   0  0  0  0  0  0  0  0  0  0  0  0  # atno 11005 bound_to 11000
  145.6203  141.0324  143.1919 LP  0  0  0  0  0  0  0  0  0  0  0  0  # atno 17320 bound_to 7965
  144.7299  139.7759  143.7351 LP  0  0  0  0  0  0  0  0  0  0  0  0  # atno 17321 bound_to 7965
  140.5681  143.2184  151.7647 LP  0  0  0  0  0  0  0  0  0  0  0  0  # atno 17342 bound_to 10162
  139.4923  144.4255  151.9931 LP  0  0  0  0  0  0  0  0  0  0  0  0  # atno 17343 bound_to 10162
  157.0003  130.9920  151.3392 LP  0  0  0  0  0  0  0  0  0  0  0  0  # atno 17370 bound_to 10713
  157.5480  130.8163  149.8109 LP  0  0  0  0  0  0  0  0  0  0  0  0  # atno 17371 bound_to 10713
  140.3723  134.7595  157.4606 LP  0  0  0  0  0  0  0  0  0  0  0  0  # atno 17394 bound_to 11000
  140.0701  134.5874  155.8651 LP  0  0  0  0  0  0  0  0  0  0  0  0  # atno 17395 bound_to 11000

$$$$
