AV-unprocessed.smi:1099|AV-procd|sdf|4758|dock10
  -GOLD-   22720 3293D 1   1.00000     0.00000
 Structure written by MMmdl.
 41 43  0  0  0  0  0  0  0  0  1 V2000
  146.2442  137.4377  154.1503 C   0  0  0  0  0  0  0  0  0  0  0  0
  146.3650  138.7918  153.4453 C   0  0  0  0  0  0  0  0  0  0  0  0
  147.4751  139.6285  153.9878 C   0  0  0  0  0  0  0  0  0  0  0  0
  148.7197  139.1775  154.1646 N   0  0  0  0  0  0  0  0  0  0  0  0
  149.5760  140.1502  154.6913 C   0  0  0  0  0  0  0  0  0  0  0  0
  151.0193  139.8222  154.9454 C   0  0  0  0  0  0  0  0  0  0  0  0
  151.3975  139.7712  156.4385 C   0  0  0  0  0  0  0  0  0  0  0  0
  151.1754  141.0418  157.1262 N   0  0  0  0  0  0  0  0  0  0  0  0
  151.3702  141.2622  158.4367 C   0  0  0  0  0  0  0  0  0  0  0  0
  151.7587  140.3887  159.2130 O   0  0  0  0  0  0  0  0  0  0  0  0
  151.0730  142.6863  158.9383 C   0  0  1  0  0  0  0  0  0  0  0  0
  151.7899  143.0317  160.2664 C   0  0  0  0  0  0  0  0  0  0  0  0
  152.5797  144.3097  159.9222 C   0  0  2  0  0  0  0  0  0  0  0  0
  151.5962  145.4758  159.7094 C   0  0  0  0  0  0  0  0  0  0  0  0
  150.9440  145.1269  158.3571 C   0  0  0  0  0  0  0  0  0  0  0  0
  151.6168  143.7888  157.9945 C   0  0  1  0  0  0  0  0  0  0  0  0
  153.0397  144.0274  158.4990 C   0  0  0  0  0  0  0  0  0  0  0  0
  148.9622  141.3624  154.8859 C   0  0  0  0  0  0  0  0  0  0  0  0
  147.2870  141.3262  154.4103 S   0  0  0  0  0  0  0  0  0  0  0  0
  145.4374  136.8451  153.7186 H   0  0  0  0  0  0  0  0  0  0  0  0
  146.0276  137.5702  155.2100 H   0  0  0  0  0  0  0  0  0  0  0  0
  147.1665  136.8625  154.0625 H   0  0  0  0  0  0  0  0  0  0  0  0
  146.5327  138.6398  152.3788 H   0  0  0  0  0  0  0  0  0  0  0  0
  145.4295  139.3445  153.5381 H   0  0  0  0  0  0  0  0  0  0  0  0
  151.2656  138.8649  154.4852 H   0  0  0  0  0  0  0  0  0  0  0  0
  151.6556  140.5552  154.4474 H   0  0  0  0  0  0  0  0  0  0  0  0
  150.8424  138.9704  156.9297 H   0  0  0  0  0  0  0  0  0  0  0  0
  152.4507  139.5084  156.5385 H   0  0  0  0  0  0  0  0  0  0  0  0
  150.8465  141.8123  156.5626 H   0  0  0  0  0  0  0  0  0  0  0  0
  149.9934  142.7948  159.0572 H   0  0  0  0  0  0  0  0  0  0  0  0
  151.0810  143.2043  161.0763 H   0  0  0  0  0  0  0  0  0  0  0  0
  152.4682  142.2403  160.5902 H   0  0  0  0  0  0  0  0  0  0  0  0
  153.3782  144.5338  160.6298 H   0  0  0  0  0  0  0  0  0  0  0  0
  150.8671  145.5541  160.5169 H   0  0  0  0  0  0  0  0  0  0  0  0
  152.1272  146.4264  159.6445 H   0  0  0  0  0  0  0  0  0  0  0  0
  149.8584  145.0465  158.4239 H   0  0  0  0  0  0  0  0  0  0  0  0
  151.1757  145.8901  157.6129 H   0  0  0  0  0  0  0  0  0  0  0  0
  151.5465  143.5432  156.9339 H   0  0  0  0  0  0  0  0  0  0  0  0
  153.5281  144.8813  158.0260 H   0  0  0  0  0  0  0  0  0  0  0  0
  153.6974  143.1616  158.4208 H   0  0  0  0  0  0  0  0  0  0  0  0
  149.3976  142.2764  155.2617 H   0  0  0  0  0  0  0  0  0  0  0  0
  1  2  1  0  0  0  0
  1 20  1  0  0  0  0
  1 21  1  0  0  0  0
  1 22  1  0  0  0  0
  2  3  1  0  0  0  0
  2 23  1  0  0  0  0
  2 24  1  0  0  0  0
  3 19  1  0  0  0  0
  3  4  2  0  0  0  0
  4  5  1  0  0  0  0
  5  6  1  0  0  0  0
  5 18  2  0  0  0  0
  6  7  1  0  0  0  0
  6 25  1  0  0  0  0
  6 26  1  0  0  0  0
  7  8  1  0  0  0  0
  7 27  1  0  0  0  0
  7 28  1  0  0  0  0
  8  9  1  0  0  0  0
  8 29  1  0  0  0  0
  9 10  2  0  0  0  0
  9 11  1  0  0  0  0
 11 16  1  0  0  0  0
 11 12  1  0  0  0  0
 11 30  1  0  0  0  0
 12 13  1  0  0  0  0
 12 31  1  0  0  0  0
 12 32  1  0  0  0  0
 13 17  1  0  0  0  0
 13 14  1  0  0  0  0
 13 33  1  0  0  0  0
 14 15  1  0  0  0  0
 14 34  1  0  0  0  0
 14 35  1  0  0  0  0
 15 16  1  0  0  0  0
 15 36  1  0  0  0  0
 15 37  1  0  0  0  0
 16 17  1  0  0  0  0
 16 38  1  0  0  0  0
 17 39  1  0  0  0  0
 17 40  1  0  0  0  0
 18 19  1  0  0  0  0
 18 41  1  0  0  0  0
M  END
> <s_m_source_file>
AV-unprocessed.smi

> <i_m_source_file_index>
1099

> <i_lp_mmshare_version>
43012

> <i_f3d_flags>
0

> <s_epik_input>
W0NIM11bQ0gyXWMxbmMoW2NIXXMxKVtDSDJdW0NIMl1bTkhdQyg9TylbQ0BIXShbQ0gyXVtDQEBIXTIzKVtDQEBIXShbQ0gyXTMpW0NIMl1bQ0gyXTI=

> <s_epik_cmdline>
J2VwaWtfcHl0aG9uJywgJy1waCcsICc3LjAnLCAnLXRuJywgJzgnLCAnLW1hJywgJzIwMCcsICctbWV0YWxfYmluZGluZycsICctaW1hZScsICc8aW5maWxlLm1hZT4nLCAnLW9tYWUnLCAnPG91dGZpbGUubWFlPic=

> <r_epik_Ionization_Penalty>
0.00110131

> <r_epik_Ionization_Penalty_Charging>
0

> <r_epik_Ionization_Penalty_Neutral>
0.00110131

> <r_epik_State_Penalty>
0.00072257

> <r_epik_Charging_Adjusted_Penalty>
0.00072257

> <i_epik_Tot_Q>
0

> <i_epik_Tot_abs_Q>
0

> <r_epik_Metal_State_Penalty>
-0

> <b_epik_Metal_Only>
0

> <s_lp_Force_Field>
OPLS_2005

> <r_lp_Energy>
38.7505

> <b_lp_Chiralities_Consistent>
1

> <s_lp_Variant>
AV-unprocessed.smi:1099-4

> <Gold.Version>
5.8.1

> <Gold.Id.Protein>
6NUR|6NUR_protein|mol2

> <Gold.PLP.Fitness>
40.6957

> <Gold.PLP.PLP>
-39.1248

> <Gold.PLP.part.hbond>
0.0000

> <Gold.PLP.part.metal>
0.0000

> <Gold.PLP.part.buried>
-1.3786

> <Gold.PLP.part.nonpolar>
-39.4129

> <Gold.PLP.part.repulsive>
1.2957

> <Gold.PLP.ligand.clash>
0.0000

> <Gold.PLP.ligand.torsion>
0.7424

> <Gold.PLP.Chemscore.Hbond>
0.0000

> <Gold.PLP.Chemscore.CHOScore>
1.0000

> <Gold.PLP.Chemscore.Metal>
0.0000

> <Gold.Chemscore.Hbonds>
donor molecule, donor type, donor heavy atom, donor atom, acceptor molecule, acceptor atom, score
      L1  C    18    41       P1  8028  1.00

> <Gold.PLP.Chemscore.Internal.Correction>
0.0557

> <Gold.Rescore>
     Score         DG    S(hbond)    S(metal)    S(lipo)     H(rot)  DE(clash)    DE(int)     intcor
     14.91     -17.05       0.00        0.00     129.89       1.42       1.48       0.66       ----

> <Gold.Chemscore.Fitness>
14.9111

> <Gold.Chemscore.DG>
-17.0506

> <Gold.Chemscore.ZeroCoef>
-5.4800

> <Gold.Chemscore.Hbond>
0.0000

> <Gold.Chemscore.Metal>
0.0000

> <Gold.Chemscore.Lipo>
129.8872

> <Gold.Chemscore.Internal_Hbond>
0.0000

> <Gold.Chemscore.DEClash>
1.4773

> <Gold.Chemscore.DEInternal>
0.6622

> <Gold.Chemscore.Rot>
1.4165

> <Gold.Chemscore.Internal.Correction>
   9.000000E+99

> <Gold.Chemscore.Hbond.Weighted>
-0.0000

> <Gold.Chemscore.Metal.Weighted>
-0.0000

> <Gold.Chemscore.Lipo.Weighted>
-15.1968

> <Gold.Chemscore.Internal_Hbond.Weighted>
0.0000

> <Gold.Chemscore.DEClash.Weighted>
1.4773

> <Gold.Chemscore.DEInternal.Weighted>
0.6622

> <Gold.Chemscore.Rot.Weighted>
3.6262

> <Gold.Chemscore.Internal.Correction.Weighted>
   9.000000E+99

> <Gold.Protein.RotatedTorsions>
[ 6907 6896 6895 6894 ] final -106.18 input  -60.11 | X-H torsion
[ 7974 7965 7964 7962 ] final   22.08 input  175.53 | X-H torsion
[ 8008 7997 7996 7995 ] final -121.49 input   59.86 | X-H torsion
[ 10167 10162 10161 10158 ] final  -85.00 input  -65.29 | X-H torsion
[ 10718 10713 10712 10709 ] final  -87.93 input   66.30 | X-H torsion
[ 10763 10752 10751 10750 ] final  -31.17 input  -60.55 | X-H torsion
[ 11005 11000 10999 10996 ] final    1.93 input  -57.11 | X-H torsion

> <Gold.Protein.ActiveResidues>
 VAL166  LYS551  ARG553  GLY616  TRP617  ASP618  TYR619  PRO620  LYS621  CYS622 
 ASP623  PHE694  ASN695  SER759  ASP760  ASP761  ALA762  ILE779  LEU786  VAL792 
 PHE793  MET794  SER795  GLU796  ALA797  LYS798  CYS799  TRP800  GLU811  SER814 

> <Gold.Protein.RotatedAtoms>
  150.7376  134.0014  159.3639 H   0  0  0  0  0  0  0  0  0  0  0  0  # atno 6907 bound_to 6896
  151.7968  135.0718  160.0404 H   0  0  0  0  0  0  0  0  0  0  0  0  # atno 6908 bound_to 6896
  152.3169  133.5775  159.5754 H   0  0  0  0  0  0  0  0  0  0  0  0  # atno 6909 bound_to 6896
  146.2044  139.7936  142.8737 H   0  0  0  0  0  0  0  0  0  0  0  0  # atno 7974 bound_to 7965
  155.1489  140.0403  157.2816 H   0  0  0  0  0  0  0  0  0  0  0  0  # atno 8008 bound_to 7997
  154.6418  140.2549  155.7286 H   0  0  0  0  0  0  0  0  0  0  0  0  # atno 8009 bound_to 7997
  156.2536  140.2854  156.0815 H   0  0  0  0  0  0  0  0  0  0  0  0  # atno 8010 bound_to 7997
  140.4079  143.2635  151.9056 H   0  0  0  0  0  0  0  0  0  0  0  0  # atno 10167 bound_to 10162
  155.9984  130.4817  150.4941 H   0  0  0  0  0  0  0  0  0  0  0  0  # atno 10718 bound_to 10713
  153.7929  135.6896  153.4868 H   0  0  0  0  0  0  0  0  0  0  0  0  # atno 10763 bound_to 10752
  153.1737  135.4532  154.9936 H   0  0  0  0  0  0  0  0  0  0  0  0  # atno 10764 bound_to 10752
  154.8037  135.3348  154.7424 H   0  0  0  0  0  0  0  0  0  0  0  0  # atno 10765 bound_to 10752
  140.6100  133.9757  155.8172 H   0  0  0  0  0  0  0  0  0  0  0  0  # atno 11005 bound_to 11000
  145.3371  141.0279  143.3413 LP  0  0  0  0  0  0  0  0  0  0  0  0  # atno 17320 bound_to 7965
  144.8758  139.4973  143.6746 LP  0  0  0  0  0  0  0  0  0  0  0  0  # atno 17321 bound_to 7965
  139.4783  144.5567  151.8303 LP  0  0  0  0  0  0  0  0  0  0  0  0  # atno 17342 bound_to 10162
  140.4669  144.1642  150.5913 LP  0  0  0  0  0  0  0  0  0  0  0  0  # atno 17343 bound_to 10162
  157.2933  131.0630  151.2119 LP  0  0  0  0  0  0  0  0  0  0  0  0  # atno 17370 bound_to 10713
  157.3124  130.6896  149.6223 LP  0  0  0  0  0  0  0  0  0  0  0  0  # atno 17371 bound_to 10713
  141.0814  134.0056  157.3379 LP  0  0  0  0  0  0  0  0  0  0  0  0  # atno 17394 bound_to 11000
  139.9196  135.0199  156.8014 LP  0  0  0  0  0  0  0  0  0  0  0  0  # atno 17395 bound_to 11000

$$$$
