AV-unprocessed.smi:1284|AV-procd|sdf|5366|dock4
  -GOLD-   22720 4503D 1   1.00000     0.00000
 Structure written by MMmdl.
 40 42  0  0  0  0  0  0  0  0  2 V2000
  154.3288  137.5333  158.6458 N   0  0  0  0  0  0  0  0  0  0  0  0
  153.2233  137.3165  157.9287 C   0  0  0  0  0  0  0  0  0  0  0  0
  153.2420  136.6786  156.8776 O   0  0  0  0  0  0  0  0  0  0  0  0
  151.9170  137.9053  158.4709 C   0  0  0  0  0  0  0  0  0  0  0  0
  151.9977  139.3970  158.5859 C   0  0  0  0  0  0  0  0  0  0  0  0
  152.8878  140.0890  159.3528 N   0  3  0  0  0  0  0  0  0  0  0  0
  152.6690  141.4595  159.2123 C   0  0  0  0  0  0  0  0  0  0  0  0
  153.3181  142.5475  159.7876 C   0  0  0  0  0  0  0  0  0  0  0  0
  152.8475  143.8274  159.4290 C   0  0  0  0  0  0  0  0  0  0  0  0
  151.7710  143.9885  158.5332 C   0  0  0  0  0  0  0  0  0  0  0  0
  151.1186  142.8777  157.9599 C   0  0  0  0  0  0  0  0  0  0  0  0
  151.5913  141.6143  158.3165 C   0  0  0  0  0  0  0  0  0  0  0  0
  151.2126  140.3159  157.9510 N   0  0  0  0  0  0  0  0  0  0  0  0
  150.1028  140.1188  157.0032 C   0  0  0  0  0  0  0  0  0  0  0  0
  150.2972  140.9003  155.6877 C   0  0  1  0  0  0  0  0  0  0  0  0
  151.3462  140.2896  154.9650 O   0  0  0  0  0  0  0  0  0  0  0  0
  149.0155  141.0024  154.8724 C   0  0  0  0  0  0  0  0  0  0  0  0
  148.4323  142.2591  154.5961 C   0  0  0  0  0  0  0  0  0  0  0  0
  147.2616  142.3423  153.8175 C   0  0  0  0  0  0  0  0  0  0  0  0
  146.6671  141.1708  153.3108 C   0  0  0  0  0  0  0  0  0  0  0  0
  147.2434  139.9156  153.5835 C   0  0  0  0  0  0  0  0  0  0  0  0
  148.4135  139.8317  154.3627 C   0  0  0  0  0  0  0  0  0  0  0  0
  155.2135  137.1694  158.3215 H   0  0  0  0  0  0  0  0  0  0  0  0
  154.2824  138.0641  159.5036 H   0  0  0  0  0  0  0  0  0  0  0  0
  151.0825  137.6437  157.8188 H   0  0  0  0  0  0  0  0  0  0  0  0
  151.7067  137.4683  159.4470 H   0  0  0  0  0  0  0  0  0  0  0  0
  154.1433  142.4266  160.4740 H   0  0  0  0  0  0  0  0  0  0  0  0
  153.3213  144.7027  159.8491 H   0  0  0  0  0  0  0  0  0  0  0  0
  151.4376  144.9842  158.2793 H   0  0  0  0  0  0  0  0  0  0  0  0
  150.2977  143.0175  157.2728 H   0  0  0  0  0  0  0  0  0  0  0  0
  150.0545  139.0494  156.7945 H   0  0  0  0  0  0  0  0  0  0  0  0
  149.1579  140.3717  157.4843 H   0  0  0  0  0  0  0  0  0  0  0  0
  150.6364  141.9101  155.9212 H   0  0  0  0  0  0  0  0  0  0  0  0
  151.2860  139.3537  155.0819 H   0  0  0  0  0  0  0  0  0  0  0  0
  148.8860  143.1645  154.9724 H   0  0  0  0  0  0  0  0  0  0  0  0
  146.8205  143.3056  153.6072 H   0  0  0  0  0  0  0  0  0  0  0  0
  145.7697  141.2348  152.7133 H   0  0  0  0  0  0  0  0  0  0  0  0
  146.7887  139.0168  153.1939 H   0  0  0  0  0  0  0  0  0  0  0  0
  148.8533  138.8650  154.5604 H   0  0  0  0  0  0  0  0  0  0  0  0
  153.5920  139.6521  159.9332 H   0  0  0  0  0  0  0  0  0  0  0  0
  1  2  1  0  0  0  0
  1 23  1  0  0  0  0
  1 24  1  0  0  0  0
  2  3  2  0  0  0  0
  2  4  1  0  0  0  0
  4  5  1  0  0  0  0
  4 25  1  0  0  0  0
  4 26  1  0  0  0  0
  5 13  1  0  0  0  0
  5  6  2  0  0  0  0
  6  7  1  0  0  0  0
  6 40  1  0  0  0  0
  7 12  2  0  0  0  0
  7  8  1  0  0  0  0
  8  9  2  0  0  0  0
  8 27  1  0  0  0  0
  9 10  1  0  0  0  0
  9 28  1  0  0  0  0
 10 11  2  0  0  0  0
 10 29  1  0  0  0  0
 11 12  1  0  0  0  0
 11 30  1  0  0  0  0
 12 13  1  0  0  0  0
 13 14  1  0  0  0  0
 14 15  1  0  0  0  0
 14 31  1  0  0  0  0
 14 32  1  0  0  0  0
 15 16  1  0  0  0  0
 15 17  1  0  0  0  0
 15 33  1  0  0  0  0
 16 34  1  0  0  0  0
 17 22  1  0  0  0  0
 17 18  2  0  0  0  0
 18 19  1  0  0  0  0
 18 35  1  0  0  0  0
 19 20  2  0  0  0  0
 19 36  1  0  0  0  0
 20 21  1  0  0  0  0
 20 37  1  0  0  0  0
 21 22  2  0  0  0  0
 21 38  1  0  0  0  0
 22 39  1  0  0  0  0
M  CHG  1   6   1
M  END
> <s_m_source_file>
AV-unprocessed.smi

> <i_m_source_file_index>
1284

> <i_lp_mmshare_version>
43012

> <i_f3d_flags>
0

> <s_epik_input>
W2NIXTFbY0hdW2NIXVtjSF1jKGMxMiluKGMobjIpW0NIMl1DKD1PKVtOSDJdKVtDSDJdW0NASF0oW09IXSljM1tjSF1bY0hdW2NIXVtjSF1bY0hdMw==

> <s_epik_cmdline>
J2VwaWtfcHl0aG9uJywgJy1waCcsICc3LjAnLCAnLXRuJywgJzgnLCAnLW1hJywgJzIwMCcsICctbWV0YWxfYmluZGluZycsICctaW1hZScsICc8aW5maWxlLm1hZT4nLCAnLW9tYWUnLCAnPG91dGZpbGUubWFlPic=

> <r_epik_Ionization_Penalty>
1.66646

> <r_epik_Ionization_Penalty_Charging>
1.66645

> <r_epik_Ionization_Penalty_Neutral>
1.67657e-06

> <r_epik_State_Penalty>
1.76975

> <r_epik_Charging_Adjusted_Penalty>
3.43621

> <i_epik_Tot_Q>
1

> <i_epik_Tot_abs_Q>
1

> <r_epik_Metal_State_Penalty>
1.80493

> <b_epik_Metal_Only>
0

> <s_lp_Force_Field>
OPLS_2005

> <r_lp_Energy>
14.9388

> <b_lp_Chiralities_Consistent>
1

> <s_lp_Variant>
AV-unprocessed.smi:1284-4

> <Gold.Version>
5.8.1

> <Gold.Id.Protein>
6NUR|6NUR_protein|mol2

> <Gold.PLP.Fitness>
49.4311

> <Gold.PLP.PLP>
-43.8286

> <Gold.PLP.part.hbond>
-2.0000

> <Gold.PLP.part.metal>
0.0000

> <Gold.PLP.part.buried>
-4.1575

> <Gold.PLP.part.nonpolar>
-37.7300

> <Gold.PLP.part.repulsive>
0.1585

> <Gold.PLP.ligand.clash>
0.0000

> <Gold.PLP.ligand.torsion>
0.1319

> <Gold.PLP.Chemscore.Hbond>
1.9440

> <Gold.PLP.Chemscore.CHOScore>
0.0000

> <Gold.PLP.Chemscore.Metal>
0.0000

> <Gold.Chemscore.Hbonds>
donor molecule, donor type, donor heavy atom, donor atom, acceptor molecule, acceptor atom, score
      P1  H  7989  7998       L1    16  1.00
      P1  H 10752 10765       L1     3  0.69

> <Gold.PLP.Chemscore.Internal.Correction>
0.0343

> <Gold.Rescore>
     Score         DG    S(hbond)    S(metal)    S(lipo)     H(rot)  DE(clash)    DE(int)     intcor
     15.82     -16.06       1.59        0.00     109.00       2.92       0.01       0.23       ----

> <Gold.Chemscore.Fitness>
15.8249

> <Gold.Chemscore.DG>
-16.0602

> <Gold.Chemscore.ZeroCoef>
-5.4800

> <Gold.Chemscore.Hbond>
1.5892

> <Gold.Chemscore.Metal>
0.0000

> <Gold.Chemscore.Lipo>
109.0042

> <Gold.Chemscore.Internal_Hbond>
0.0000

> <Gold.Chemscore.DEClash>
0.0089

> <Gold.Chemscore.DEInternal>
0.2265

> <Gold.Chemscore.Rot>
2.9223

> <Gold.Chemscore.Internal.Correction>
   9.000000E+99

> <Gold.Chemscore.Hbonds>
donor molecule, donor type, donor heavy atom, donor atom, acceptor molecule, acceptor atom, score
      P1  H  7989  7998       L1    16  0.88
      P1  H 10752 10765       L1     3  0.68

> <Gold.Chemscore.Hbond.Weighted>
-5.3079

> <Gold.Chemscore.Metal.Weighted>
-0.0000

> <Gold.Chemscore.Lipo.Weighted>
-12.7535

> <Gold.Chemscore.Internal_Hbond.Weighted>
0.0000

> <Gold.Chemscore.DEClash.Weighted>
0.0089

> <Gold.Chemscore.DEInternal.Weighted>
0.2265

> <Gold.Chemscore.Rot.Weighted>
7.4812

> <Gold.Chemscore.Internal.Correction.Weighted>
   9.000000E+99

> <Gold.Protein.RotatedTorsions>
[ 6907 6896 6895 6894 ] final   71.05 input  -60.11 | X-H torsion
[ 7974 7965 7964 7962 ] final  -54.88 input  175.53 | X-H torsion
[ 8008 7997 7996 7995 ] final -168.75 input   59.86 | X-H torsion
[ 10167 10162 10161 10158 ] final  156.07 input  -65.29 | X-H torsion
[ 10718 10713 10712 10709 ] final   85.33 input   66.30 | X-H torsion
[ 10763 10752 10751 10750 ] final  -99.59 input  -60.55 | X-H torsion
[ 11005 11000 10999 10996 ] final -110.97 input  -57.11 | X-H torsion

> <Gold.Protein.ActiveResidues>
 VAL166  LYS551  ARG553  GLY616  TRP617  ASP618  TYR619  PRO620  LYS621  CYS622 
 ASP623  PHE694  ASN695  SER759  ASP760  ASP761  ALA762  ILE779  LEU786  VAL792 
 PHE793  MET794  SER795  GLU796  ALA797  LYS798  CYS799  TRP800  GLU811  SER814 

> <Gold.Protein.RotatedAtoms>
  152.4787  134.4778  159.9655 H   0  0  0  0  0  0  0  0  0  0  0  0  # atno 6907 bound_to 6896
  151.4788  133.3545  159.2843 H   0  0  0  0  0  0  0  0  0  0  0  0  # atno 6908 bound_to 6896
  150.8843  134.8265  159.7308 H   0  0  0  0  0  0  0  0  0  0  0  0  # atno 6909 bound_to 6896
  145.8805  140.8148  142.9842 H   0  0  0  0  0  0  0  0  0  0  0  0  # atno 7974 bound_to 7965
  155.8956  140.1032  157.1387 H   0  0  0  0  0  0  0  0  0  0  0  0  # atno 8008 bound_to 7997
  154.4020  140.1302  156.4435 H   0  0  0  0  0  0  0  0  0  0  0  0  # atno 8009 bound_to 7997
  155.7483  140.3465  155.5140 H   0  0  0  0  0  0  0  0  0  0  0  0  # atno 8010 bound_to 7997
  139.4821  144.5042  151.8123 H   0  0  0  0  0  0  0  0  0  0  0  0  # atno 10167 bound_to 10162
  157.6913  131.0170  150.2806 H   0  0  0  0  0  0  0  0  0  0  0  0  # atno 10718 bound_to 10713
  154.7511  135.4966  153.9290 H   0  0  0  0  0  0  0  0  0  0  0  0  # atno 10763 bound_to 10752
  153.1144  135.6717  153.9452 H   0  0  0  0  0  0  0  0  0  0  0  0  # atno 10764 bound_to 10752
  153.9202  135.3089  155.3426 H   0  0  0  0  0  0  0  0  0  0  0  0  # atno 10765 bound_to 10752
  141.0761  133.9299  157.2386 H   0  0  0  0  0  0  0  0  0  0  0  0  # atno 11005 bound_to 11000
  144.6727  140.1377  143.7439 LP  0  0  0  0  0  0  0  0  0  0  0  0  # atno 17320 bound_to 7965
  145.9029  139.2441  143.1483 LP  0  0  0  0  0  0  0  0  0  0  0  0  # atno 17321 bound_to 7965
  140.4538  144.1818  150.5899 LP  0  0  0  0  0  0  0  0  0  0  0  0  # atno 17342 bound_to 10162
  140.4557  143.2469  151.9288 LP  0  0  0  0  0  0  0  0  0  0  0  0  # atno 17343 bound_to 10162
  156.3353  130.3807  149.7455 LP  0  0  0  0  0  0  0  0  0  0  0  0  # atno 17370 bound_to 10713
  156.4982  130.8116  151.3122 LP  0  0  0  0  0  0  0  0  0  0  0  0  # atno 17371 bound_to 10713
  139.9573  135.0162  156.9165 LP  0  0  0  0  0  0  0  0  0  0  0  0  # atno 17394 bound_to 11000
  140.5570  134.0572  155.7387 LP  0  0  0  0  0  0  0  0  0  0  0  0  # atno 17395 bound_to 11000

$$$$
