AV-unprocessed.smi:2270|AV-procd|sdf|9154|dock9
  -GOLD-   2272012363D 1   1.00000     0.00000
 Structure written by MMmdl.
 53 54  0  0  0  0  0  0  0  0  2 V2000
  147.3402  137.3062  163.2566 C   0  0  0  0  0  0  0  0  0  0  0  0
  147.6454  136.2631  162.2023 C   0  0  0  0  0  0  0  0  0  0  0  0
  147.1622  134.9461  162.3253 C   0  0  0  0  0  0  0  0  0  0  0  0
  147.4764  134.0277  161.3081 C   0  0  0  0  0  0  0  0  0  0  0  0
  148.2611  134.4580  160.2211 C   0  0  0  0  0  0  0  0  0  0  0  0
  148.7232  135.7986  160.1843 C   0  0  0  0  0  0  0  0  0  0  0  0
  149.4911  136.2675  159.0857 N   0  0  0  0  0  0  0  0  0  0  0  0
  149.7422  137.5395  158.7301 C   0  0  0  0  0  0  0  0  0  0  0  0
  149.3288  138.5372  159.3212 O   0  0  0  0  0  0  0  0  0  0  0  0
  150.5017  137.5937  157.6269 N   0  0  0  0  0  0  0  0  0  0  0  0
  150.9807  138.8171  156.9951 C   0  0  0  0  0  0  0  0  0  0  0  0
  150.4855  138.9712  155.5242 C   0  0  2  0  0  0  0  0  0  0  0  0
  151.2972  138.0997  154.5027 C   0  0  0  0  0  0  0  0  0  0  0  0
  151.1628  136.5855  154.7472 C   0  0  0  0  0  0  0  0  0  0  0  0
  152.7746  138.5128  154.3656 C   0  0  0  0  0  0  0  0  0  0  0  0
  150.4836  140.3826  155.0668 N   0  0  0  0  0  0  0  0  0  0  0  0
  149.2189  140.8356  154.4595 C   0  0  0  0  0  0  0  0  0  0  0  0
  148.1049  141.0608  155.5055 C   0  0  0  0  0  0  0  0  0  0  0  0
  148.5387  142.0447  156.5226 N   0  3  0  0  0  0  0  0  0  0  0  0
  147.4920  142.3315  157.5260 C   0  0  0  0  0  0  0  0  0  0  0  0
  149.8201  141.6237  157.1309 C   0  0  0  0  0  0  0  0  0  0  0  0
  150.8829  141.4196  156.0306 C   0  0  0  0  0  0  0  0  0  0  0  0
  148.3962  136.6785  161.1588 N   0  0  0  0  0  0  0  0  0  0  0  0
  146.7151  136.8955  164.0501 H   0  0  0  0  0  0  0  0  0  0  0  0
  146.8147  138.1523  162.8129 H   0  0  0  0  0  0  0  0  0  0  0  0
  148.2637  137.6716  163.7064 H   0  0  0  0  0  0  0  0  0  0  0  0
  146.5625  134.6458  163.1721 H   0  0  0  0  0  0  0  0  0  0  0  0
  147.1177  133.0104  161.3573 H   0  0  0  0  0  0  0  0  0  0  0  0
  148.4854  133.7591  159.4293 H   0  0  0  0  0  0  0  0  0  0  0  0
  149.8046  135.5545  158.4439 H   0  0  0  0  0  0  0  0  0  0  0  0
  150.7891  136.7223  157.2056 H   0  0  0  0  0  0  0  0  0  0  0  0
  150.6050  139.6216  157.6252 H   0  0  0  0  0  0  0  0  0  0  0  0
  152.0696  138.8777  157.0339 H   0  0  0  0  0  0  0  0  0  0  0  0
  149.4523  138.6271  155.5145 H   0  0  0  0  0  0  0  0  0  0  0  0
  150.8800  138.2328  153.5083 H   0  0  0  0  0  0  0  0  0  0  0  0
  151.6965  136.2530  155.6356 H   0  0  0  0  0  0  0  0  0  0  0  0
  151.5717  136.0240  153.9067 H   0  0  0  0  0  0  0  0  0  0  0  0
  150.1176  136.2936  154.8527 H   0  0  0  0  0  0  0  0  0  0  0  0
  153.3482  138.2904  155.2651 H   0  0  0  0  0  0  0  0  0  0  0  0
  152.8679  139.5802  154.1637 H   0  0  0  0  0  0  0  0  0  0  0  0
  153.2513  137.9822  153.5408 H   0  0  0  0  0  0  0  0  0  0  0  0
  149.4096  141.7734  153.9356 H   0  0  0  0  0  0  0  0  0  0  0  0
  148.8585  140.1515  153.6952 H   0  0  0  0  0  0  0  0  0  0  0  0
  147.2132  141.4392  155.0044 H   0  0  0  0  0  0  0  0  0  0  0  0
  147.8160  140.1255  155.9854 H   0  0  0  0  0  0  0  0  0  0  0  0
  147.2460  141.4388  158.1029 H   0  0  0  0  0  0  0  0  0  0  0  0
  146.5824  142.6868  157.0409 H   0  0  0  0  0  0  0  0  0  0  0  0
  147.8247  143.1059  158.2179 H   0  0  0  0  0  0  0  0  0  0  0  0
  150.1588  142.3946  157.8238 H   0  0  0  0  0  0  0  0  0  0  0  0
  149.6731  140.7150  157.7158 H   0  0  0  0  0  0  0  0  0  0  0  0
  151.8602  141.2067  156.4618 H   0  0  0  0  0  0  0  0  0  0  0  0
  151.0179  142.3573  155.4893 H   0  0  0  0  0  0  0  0  0  0  0  0
  148.7208  142.9092  156.0330 H   0  0  0  0  0  0  0  0  0  0  0  0
  1  2  1  0  0  0  0
  1 24  1  0  0  0  0
  1 25  1  0  0  0  0
  1 26  1  0  0  0  0
  2 23  1  0  0  0  0
  2  3  2  0  0  0  0
  3  4  1  0  0  0  0
  3 27  1  0  0  0  0
  4  5  2  0  0  0  0
  4 28  1  0  0  0  0
  5  6  1  0  0  0  0
  5 29  1  0  0  0  0
  6  7  1  0  0  0  0
  6 23  2  0  0  0  0
  7  8  1  0  0  0  0
  7 30  1  0  0  0  0
  8  9  2  0  0  0  0
  8 10  1  0  0  0  0
 10 11  1  0  0  0  0
 10 31  1  0  0  0  0
 11 12  1  0  0  0  0
 11 32  1  0  0  0  0
 11 33  1  0  0  0  0
 12 13  1  0  0  0  0
 12 16  1  0  0  0  0
 12 34  1  0  0  0  0
 13 14  1  0  0  0  0
 13 15  1  0  0  0  0
 13 35  1  0  0  0  0
 14 36  1  0  0  0  0
 14 37  1  0  0  0  0
 14 38  1  0  0  0  0
 15 39  1  0  0  0  0
 15 40  1  0  0  0  0
 15 41  1  0  0  0  0
 16 22  1  0  0  0  0
 16 17  1  0  0  0  0
 17 18  1  0  0  0  0
 17 42  1  0  0  0  0
 17 43  1  0  0  0  0
 18 19  1  0  0  0  0
 18 44  1  0  0  0  0
 18 45  1  0  0  0  0
 19 20  1  0  0  0  0
 19 21  1  0  0  0  0
 19 53  1  0  0  0  0
 20 46  1  0  0  0  0
 20 47  1  0  0  0  0
 20 48  1  0  0  0  0
 21 22  1  0  0  0  0
 21 49  1  0  0  0  0
 21 50  1  0  0  0  0
 22 51  1  0  0  0  0
 22 52  1  0  0  0  0
M  CHG  1  19   1
M  END
> <s_m_source_file>
AV-unprocessed.smi

> <i_m_source_file_index>
2270

> <i_lp_mmshare_version>
43012

> <i_f3d_flags>
0

> <s_epik_input>
W0NIM11jMVtjSF1bY0hdW2NIXWMobjEpW05IXUMoPU8pW05IXVtDSDJdW0NASF0oW0NIXShbQ0gzXSlbQ0gzXSlOMltDSDJdW0NIMl1OKFtDSDNdKVtDSDJdW0NIMl0y

> <s_epik_cmdline>
J2VwaWtfcHl0aG9uJywgJy1waCcsICc3LjAnLCAnLXRuJywgJzgnLCAnLW1hJywgJzIwMCcsICctbWV0YWxfYmluZGluZycsICctaW1hZScsICc8aW5maWxlLm1hZT4nLCAnLW9tYWUnLCAnPG91dGZpbGUubWFlPic=

> <r_epik_Ionization_Penalty>
0.0278292

> <r_epik_Ionization_Penalty_Charging>
0.0272987

> <r_epik_Ionization_Penalty_Neutral>
0.000530468

> <r_epik_State_Penalty>
0.0776825

> <r_epik_Charging_Adjusted_Penalty>
0.104981

> <i_epik_Tot_Q>
1

> <i_epik_Tot_abs_Q>
1

> <r_epik_Metal_State_Penalty>
0.0776809

> <b_epik_Metal_Only>
0

> <s_lp_Force_Field>
OPLS_2005

> <r_lp_Energy>
34.9975

> <b_lp_Chiralities_Consistent>
1

> <s_lp_Variant>
AV-unprocessed.smi:2270-1

> <Gold.Version>
5.8.1

> <Gold.Id.Protein>
6NUR|6NUR_protein|mol2

> <Gold.PLP.Fitness>
47.5125

> <Gold.PLP.PLP>
-39.6466

> <Gold.PLP.part.hbond>
-5.0000

> <Gold.PLP.part.metal>
0.0000

> <Gold.PLP.part.buried>
-2.6787

> <Gold.PLP.part.nonpolar>
-33.1271

> <Gold.PLP.part.repulsive>
0.2803

> <Gold.PLP.ligand.clash>
0.0000

> <Gold.PLP.ligand.torsion>
1.6867

> <Gold.PLP.Chemscore.Hbond>
3.6760

> <Gold.PLP.Chemscore.CHOScore>
0.0000

> <Gold.PLP.Chemscore.Metal>
0.0000

> <Gold.Chemscore.Hbonds>
donor molecule, donor type, donor heavy atom, donor atom, acceptor molecule, acceptor atom, score
      L1  H    19    53       P1  8028  2.00
      P1  H  6931  6943       L1    23  0.90
      P1  H  7989  7998       L1    16  0.75

> <Gold.PLP.Chemscore.Internal.Correction>
0.2113

> <Gold.Rescore>
     Score         DG    S(hbond)    S(metal)    S(lipo)     H(rot)  DE(clash)    DE(int)     intcor
     13.80     -17.83       1.39        0.00     101.08       1.61       1.29       2.74       ----

> <Gold.Chemscore.Fitness>
13.7990

> <Gold.Chemscore.DG>
-17.8348

> <Gold.Chemscore.ZeroCoef>
-5.4800

> <Gold.Chemscore.Hbond>
1.3898

> <Gold.Chemscore.Metal>
0.0000

> <Gold.Chemscore.Lipo>
101.0823

> <Gold.Chemscore.Internal_Hbond>
0.0000

> <Gold.Chemscore.DEClash>
1.2949

> <Gold.Chemscore.DEInternal>
2.7408

> <Gold.Chemscore.Rot>
1.6070

> <Gold.Chemscore.Internal.Correction>
   9.000000E+99

> <Gold.Chemscore.Hbonds>
donor molecule, donor type, donor heavy atom, donor atom, acceptor molecule, acceptor atom, score
      L1  H    19    53       P1  8028  0.99
      P1  H  6931  6943       L1    23  0.18
      P1  H  7989  7998       L1    16  0.02

> <Gold.Chemscore.Hbond.Weighted>
-4.6421

> <Gold.Chemscore.Metal.Weighted>
-0.0000

> <Gold.Chemscore.Lipo.Weighted>
-11.8266

> <Gold.Chemscore.Internal_Hbond.Weighted>
0.0000

> <Gold.Chemscore.DEClash.Weighted>
1.2949

> <Gold.Chemscore.DEInternal.Weighted>
2.7408

> <Gold.Chemscore.Rot.Weighted>
4.1140

> <Gold.Chemscore.Internal.Correction.Weighted>
   9.000000E+99

> <Gold.Protein.RotatedTorsions>
[ 6907 6896 6895 6894 ] final   44.27 input  -60.11 | X-H torsion
[ 7974 7965 7964 7962 ] final  164.41 input  175.53 | X-H torsion
[ 8008 7997 7996 7995 ] final  -63.63 input   59.86 | X-H torsion
[ 10167 10162 10161 10158 ] final -111.72 input  -65.29 | X-H torsion
[ 10718 10713 10712 10709 ] final   86.35 input   66.30 | X-H torsion
[ 10763 10752 10751 10750 ] final -119.05 input  -60.55 | X-H torsion
[ 11005 11000 10999 10996 ] final   32.14 input  -57.11 | X-H torsion

> <Gold.Protein.ActiveResidues>
 VAL166  LYS551  ARG553  GLY616  TRP617  ASP618  TYR619  PRO620  LYS621  CYS622 
 ASP623  PHE694  ASN695  SER759  ASP760  ASP761  ALA762  ILE779  LEU786  VAL792 
 PHE793  MET794  SER795  GLU796  ALA797  LYS798  CYS799  TRP800  GLU811  SER814 

> <Gold.Protein.RotatedAtoms>
  152.2304  134.8327  160.0474 H   0  0  0  0  0  0  0  0  0  0  0  0  # atno 6907 bound_to 6896
  151.9078  133.3548  159.3861 H   0  0  0  0  0  0  0  0  0  0  0  0  # atno 6908 bound_to 6896
  150.7024  134.4688  159.5460 H   0  0  0  0  0  0  0  0  0  0  0  0  # atno 6909 bound_to 6896
  144.7546  139.8323  143.6354 H   0  0  0  0  0  0  0  0  0  0  0  0  # atno 7974 bound_to 7965
  154.4565  140.0970  156.6773 H   0  0  0  0  0  0  0  0  0  0  0  0  # atno 8008 bound_to 7997
  155.5122  140.3476  155.4372 H   0  0  0  0  0  0  0  0  0  0  0  0  # atno 8009 bound_to 7997
  156.0788  140.1368  156.9727 H   0  0  0  0  0  0  0  0  0  0  0  0  # atno 8010 bound_to 7997
  140.1305  143.4364  152.1630 H   0  0  0  0  0  0  0  0  0  0  0  0  # atno 10167 bound_to 10162
  157.6927  131.0212  150.2959 H   0  0  0  0  0  0  0  0  0  0  0  0  # atno 10718 bound_to 10713
  154.8606  135.4252  154.2237 H   0  0  0  0  0  0  0  0  0  0  0  0  # atno 10763 bound_to 10752
  153.3236  135.6984  153.7014 H   0  0  0  0  0  0  0  0  0  0  0  0  # atno 10764 bound_to 10752
  153.6059  135.3528  155.2935 H   0  0  0  0  0  0  0  0  0  0  0  0  # atno 10765 bound_to 10752
  140.2766  134.3021  155.7812 H   0  0  0  0  0  0  0  0  0  0  0  0  # atno 11005 bound_to 11000
  146.1540  139.4633  143.0030 LP  0  0  0  0  0  0  0  0  0  0  0  0  # atno 17320 bound_to 7965
  145.6823  141.0187  143.1599 LP  0  0  0  0  0  0  0  0  0  0  0  0  # atno 17321 bound_to 7965
  139.5522  144.7346  151.4401 LP  0  0  0  0  0  0  0  0  0  0  0  0  # atno 17342 bound_to 10162
  140.6819  143.8061  150.7133 LP  0  0  0  0  0  0  0  0  0  0  0  0  # atno 17343 bound_to 10162
  156.3482  130.3826  149.7351 LP  0  0  0  0  0  0  0  0  0  0  0  0  # atno 17370 bound_to 10713
  156.4837  130.8053  151.3066 LP  0  0  0  0  0  0  0  0  0  0  0  0  # atno 17371 bound_to 10713
  141.2169  133.7499  156.9416 LP  0  0  0  0  0  0  0  0  0  0  0  0  # atno 17394 bound_to 11000
  140.1323  134.9348  157.2354 LP  0  0  0  0  0  0  0  0  0  0  0  0  # atno 17395 bound_to 11000

$$$$
