AV-unprocessed.smi:17|AV-procd|sdf|103|dock5
  -GOLD-   2262015253D 1   1.00000     0.00000
 Structure written by MMmdl.
 57 59  0  0  0  0  0  0  0  0  1 V2000
  149.6554  141.3843  155.8580 C   0  0  0  0  0  0  0  0  0  0  0  0
  150.8726  140.5470  156.2819 C   0  0  0  0  0  0  0  0  0  0  0  0
  150.7471  139.9859  157.6304 N   0  0  0  0  0  0  0  0  0  0  0  0
  150.5475  138.6441  157.7467 C   0  0  0  0  0  0  0  0  0  0  0  0
  151.6038  137.8025  157.5871 N   0  0  0  0  0  0  0  0  0  0  0  0
  151.4425  136.4806  157.6869 C   0  0  0  0  0  0  0  0  0  0  0  0
  150.3278  135.7942  157.9385 N   0  0  0  0  0  0  0  0  0  0  0  0
  149.2622  136.6278  158.1035 C   0  0  0  0  0  0  0  0  0  0  0  0
  149.2802  138.0502  158.0213 C   0  0  0  0  0  0  0  0  0  0  0  0
  148.0021  138.5458  158.2567 N   0  0  0  0  0  0  0  0  0  0  0  0
  147.2747  137.4831  158.4650 C   0  0  0  0  0  0  0  0  0  0  0  0
  147.9531  136.2890  158.3985 N   0  0  0  0  0  0  0  0  0  0  0  0
  147.3912  134.9642  158.5977 C   0  0  0  0  0  0  0  0  0  0  0  0
  146.6629  134.8067  159.9594 C   0  0  2  0  0  0  0  0  0  0  0  0
  145.4027  135.7069  160.0360 C   0  0  0  0  0  0  0  0  0  0  0  0
  144.5135  135.4421  158.9706 O   0  0  0  0  0  0  0  0  0  0  0  0
  147.6422  135.0082  161.1564 C   0  0  2  0  0  0  0  0  0  0  0  0
  146.9535  135.0280  162.5183 C   0  0  0  0  0  0  0  0  0  0  0  0
  146.5393  136.4905  162.6995 C   0  0  0  0  0  0  0  0  0  0  0  0
  147.3346  137.2402  161.7876 O   0  0  0  0  0  0  0  0  0  0  0  0
  148.3165  136.3848  161.2227 C   0  0  0  0  0  0  0  0  0  0  0  0
  151.1944  140.7473  158.8059 C   0  0  1  0  0  0  0  0  0  0  0  0
  152.4743  140.1511  159.4164 C   0  0  0  0  0  0  0  0  0  0  0  0
  151.3550  142.2546  158.5123 C   0  0  0  0  0  0  0  0  0  0  0  0
  152.2367  143.1704  159.8591 S   0  0  0  0  0  0  0  0  0  0  0  0
  152.1814  144.9132  159.2707 C   0  0  0  0  0  0  0  0  0  0  0  0
  151.4545  143.0817  161.1018 O   0  0  0  0  0  0  0  0  0  0  0  0
  153.6443  142.7448  159.8490 O   0  0  0  0  0  0  0  0  0  0  0  0
  149.7750  141.7437  154.8361 H   0  0  0  0  0  0  0  0  0  0  0  0
  149.5256  142.2571  156.4981 H   0  0  0  0  0  0  0  0  0  0  0  0
  148.7353  140.8015  155.8969 H   0  0  0  0  0  0  0  0  0  0  0  0
  150.9935  139.7356  155.5656 H   0  0  0  0  0  0  0  0  0  0  0  0
  151.7823  141.1389  156.1999 H   0  0  0  0  0  0  0  0  0  0  0  0
  152.3345  135.8881  157.5464 H   0  0  0  0  0  0  0  0  0  0  0  0
  146.2178  137.5408  158.6815 H   0  0  0  0  0  0  0  0  0  0  0  0
  146.7191  134.7766  157.7625 H   0  0  0  0  0  0  0  0  0  0  0  0
  148.1916  134.2283  158.5113 H   0  0  0  0  0  0  0  0  0  0  0  0
  146.2994  133.7791  160.0070 H   0  0  0  0  0  0  0  0  0  0  0  0
  144.8702  135.5630  160.9756 H   0  0  0  0  0  0  0  0  0  0  0  0
  145.6664  136.7630  160.0241 H   0  0  0  0  0  0  0  0  0  0  0  0
  145.0033  135.4457  158.1623 H   0  0  0  0  0  0  0  0  0  0  0  0
  148.4013  134.2254  161.1236 H   0  0  0  0  0  0  0  0  0  0  0  0
  146.1146  134.3430  162.6261 H   0  0  0  0  0  0  0  0  0  0  0  0
  147.6788  134.7638  163.2895 H   0  0  0  0  0  0  0  0  0  0  0  0
  145.4877  136.6366  162.4515 H   0  0  0  0  0  0  0  0  0  0  0  0
  146.6969  136.8283  163.7239 H   0  0  0  0  0  0  0  0  0  0  0  0
  149.1688  136.3462  161.9032 H   0  0  0  0  0  0  0  0  0  0  0  0
  148.6928  136.7646  160.2752 H   0  0  0  0  0  0  0  0  0  0  0  0
  150.4313  140.6830  159.5816 H   0  0  0  0  0  0  0  0  0  0  0  0
  152.7396  140.6622  160.3422 H   0  0  0  0  0  0  0  0  0  0  0  0
  153.3228  140.2394  158.7377 H   0  0  0  0  0  0  0  0  0  0  0  0
  152.3434  139.0950  159.6534 H   0  0  0  0  0  0  0  0  0  0  0  0
  151.9652  142.3738  157.6168 H   0  0  0  0  0  0  0  0  0  0  0  0
  150.4077  142.7516  158.3075 H   0  0  0  0  0  0  0  0  0  0  0  0
  152.7816  145.5350  159.9342 H   0  0  0  0  0  0  0  0  0  0  0  0
  151.1569  145.2774  159.2802 H   0  0  0  0  0  0  0  0  0  0  0  0
  152.5830  144.9736  158.2596 H   0  0  0  0  0  0  0  0  0  0  0  0
  1  2  1  0  0  0  0
  1 29  1  0  0  0  0
  1 30  1  0  0  0  0
  1 31  1  0  0  0  0
  2  3  1  0  0  0  0
  2 32  1  0  0  0  0
  2 33  1  0  0  0  0
  3  4  1  0  0  0  0
  3 22  1  0  0  0  0
  4  9  1  0  0  0  0
  4  5  2  0  0  0  0
  5  6  1  0  0  0  0
  6  7  2  0  0  0  0
  6 34  1  0  0  0  0
  7  8  1  0  0  0  0
  8 12  1  0  0  0  0
  8  9  2  0  0  0  0
  9 10  1  0  0  0  0
 10 11  2  0  0  0  0
 11 12  1  0  0  0  0
 11 35  1  0  0  0  0
 12 13  1  0  0  0  0
 13 14  1  0  0  0  0
 13 36  1  0  0  0  0
 13 37  1  0  0  0  0
 14 15  1  0  0  0  0
 14 17  1  0  0  0  0
 14 38  1  0  0  0  0
 15 16  1  0  0  0  0
 15 39  1  0  0  0  0
 15 40  1  0  0  0  0
 16 41  1  0  0  0  0
 17 21  1  0  0  0  0
 17 18  1  0  0  0  0
 17 42  1  0  0  0  0
 18 19  1  0  0  0  0
 18 43  1  0  0  0  0
 18 44  1  0  0  0  0
 19 20  1  0  0  0  0
 19 45  1  0  0  0  0
 19 46  1  0  0  0  0
 20 21  1  0  0  0  0
 21 47  1  0  0  0  0
 21 48  1  0  0  0  0
 22 23  1  0  0  0  0
 22 24  1  0  0  0  0
 22 49  1  0  0  0  0
 23 50  1  0  0  0  0
 23 51  1  0  0  0  0
 23 52  1  0  0  0  0
 24 25  1  0  0  0  0
 24 53  1  0  0  0  0
 24 54  1  0  0  0  0
 25 26  1  0  0  0  0
 25 27  2  0  0  0  0
 25 28  2  0  0  0  0
 26 55  1  0  0  0  0
 26 56  1  0  0  0  0
 26 57  1  0  0  0  0
M  END
> <s_m_source_file>
AV-unprocessed.smi

> <i_m_source_file_index>
17

> <i_lp_mmshare_version>
43012

> <i_f3d_flags>
0

> <s_epik_input>
W0NIM11TKD1PKSg9TylbQ0gyXVtDQEBIXShbQ0gzXSlOKFtDSDJdW0NIM10pYyhuW2NIXW4xKWMoYzEyKW5bY0hdbjJbQ0gyXVtDQEhdKFtDSDJdW09IXSlbQ0BASF0zW0NIMl1bQ0gyXU9bQ0gyXTM=

> <s_epik_cmdline>
J2VwaWtfcHl0aG9uJywgJy1waCcsICc3LjAnLCAnLXRuJywgJzgnLCAnLW1hJywgJzIwMCcsICctbWV0YWxfYmluZGluZycsICctaW1hZScsICc8aW5maWxlLm1hZT4nLCAnLW9tYWUnLCAnPG91dGZpbGUubWFlPic=

> <r_lp_tautomer_probability>
1

> <r_epik_Ionization_Penalty>
0.00119955

> <r_epik_Ionization_Penalty_Charging>
0

> <r_epik_Ionization_Penalty_Neutral>
0.00119955

> <r_epik_State_Penalty>
0.000665399

> <r_epik_Charging_Adjusted_Penalty>
0.000665399

> <i_epik_Tot_Q>
0

> <i_epik_Tot_abs_Q>
0

> <r_epik_Metal_State_Penalty>
-0

> <b_epik_Metal_Only>
0

> <s_lp_Force_Field>
OPLS_2005

> <r_lp_Energy>
34.7732

> <b_lp_Chiralities_Consistent>
1

> <s_lp_Variant>
AV-unprocessed.smi:17-5

> <Gold.Version>
5.8.1

> <Gold.Id.Protein>
6NUR|6NUR_protein|mol2

> <Gold.PLP.Fitness>
43.5371

> <Gold.PLP.PLP>
-41.4225

> <Gold.PLP.part.hbond>
-4.6351

> <Gold.PLP.part.metal>
0.0000

> <Gold.PLP.part.buried>
-6.0683

> <Gold.PLP.part.nonpolar>
-32.1037

> <Gold.PLP.part.repulsive>
0.1168

> <Gold.PLP.ligand.clash>
0.0011

> <Gold.PLP.ligand.torsion>
2.1724

> <Gold.PLP.Chemscore.Hbond>
1.6155

> <Gold.PLP.Chemscore.CHOScore>
0.0000

> <Gold.PLP.Chemscore.Metal>
0.0000

> <Gold.Chemscore.Hbonds>
donor molecule, donor type, donor heavy atom, donor atom, acceptor molecule, acceptor atom, score
      P1  H  6896  6908       L1     7  0.74
      P1  H  6933  6945       L1    27  0.16
      P1  H  6934  6947       L1    20  0.80

> <Gold.PLP.Chemscore.Internal.Correction>
1.6141

> <Gold.Rescore>
     Score         DG    S(hbond)    S(metal)    S(lipo)     H(rot)  DE(clash)    DE(int)     intcor
      4.74     -11.72       1.50        0.00      87.16       3.51       0.03       6.96       ----

> <Gold.Chemscore.Fitness>
4.7384

> <Gold.Chemscore.DG>
-11.7245

> <Gold.Chemscore.ZeroCoef>
-5.4800

> <Gold.Chemscore.Hbond>
1.5037

> <Gold.Chemscore.Metal>
0.0000

> <Gold.Chemscore.Lipo>
87.1556

> <Gold.Chemscore.Internal_Hbond>
0.0000

> <Gold.Chemscore.DEClash>
0.0294

> <Gold.Chemscore.DEInternal>
6.9567

> <Gold.Chemscore.Rot>
3.5059

> <Gold.Chemscore.Internal.Correction>
   9.000000E+99

> <Gold.Chemscore.Hbonds>
donor molecule, donor type, donor heavy atom, donor atom, acceptor molecule, acceptor atom, score
      P1  H  6896  6908       L1     7  0.34
      P1  H  6933  6945       L1    27  0.16
      P1  H  6934  6947       L1    20  0.72

> <Gold.Chemscore.Hbond.Weighted>
-5.0223

> <Gold.Chemscore.Metal.Weighted>
-0.0000

> <Gold.Chemscore.Lipo.Weighted>
-10.1972

> <Gold.Chemscore.Internal_Hbond.Weighted>
0.0000

> <Gold.Chemscore.DEClash.Weighted>
0.0294

> <Gold.Chemscore.DEInternal.Weighted>
6.9567

> <Gold.Chemscore.Rot.Weighted>
8.9750

> <Gold.Chemscore.Internal.Correction.Weighted>
   9.000000E+99

> <Gold.Protein.RotatedTorsions>
[ 6907 6896 6895 6894 ] final  173.50 input  -60.11 | X-H torsion
[ 7974 7965 7964 7962 ] final   57.95 input  175.53 | X-H torsion
[ 8008 7997 7996 7995 ] final  -66.76 input   59.86 | X-H torsion
[ 10167 10162 10161 10158 ] final  167.55 input  -65.29 | X-H torsion
[ 10718 10713 10712 10709 ] final -159.06 input   66.30 | X-H torsion
[ 10763 10752 10751 10750 ] final  141.73 input  -60.55 | X-H torsion
[ 11005 11000 10999 10996 ] final -118.22 input  -57.11 | X-H torsion

> <Gold.Protein.ActiveResidues>
 VAL166  LYS551  ARG553  GLY616  TRP617  ASP618  TYR619  PRO620  LYS621  CYS622 
 ASP623  PHE694  ASN695  SER759  ASP760  ASP761  ALA762  ILE779  LEU786  VAL792 
 PHE793  MET794  SER795  GLU796  ALA797  LYS798  CYS799  TRP800  GLU811  SER814 

> <Gold.Protein.RotatedAtoms>
  151.7673  133.3338  159.3434 H   0  0  0  0  0  0  0  0  0  0  0  0  # atno 6907 bound_to 6896
  150.7475  134.6051  159.6066 H   0  0  0  0  0  0  0  0  0  0  0  0  # atno 6908 bound_to 6896
  152.3365  134.7193  160.0327 H   0  0  0  0  0  0  0  0  0  0  0  0  # atno 6909 bound_to 6896
  145.9235  139.3748  143.0464 H   0  0  0  0  0  0  0  0  0  0  0  0  # atno 7974 bound_to 7965
  154.4755  140.0906  156.7252 H   0  0  0  0  0  0  0  0  0  0  0  0  # atno 8008 bound_to 7997
  155.4607  140.3461  155.4294 H   0  0  0  0  0  0  0  0  0  0  0  0  # atno 8009 bound_to 7997
  156.1110  140.1448  156.9327 H   0  0  0  0  0  0  0  0  0  0  0  0  # atno 8010 bound_to 7997
  139.4948  144.3909  151.9518 H   0  0  0  0  0  0  0  0  0  0  0  0  # atno 10167 bound_to 10162
  156.5629  130.8655  151.2815 H   0  0  0  0  0  0  0  0  0  0  0  0  # atno 10718 bound_to 10713
  153.9441  135.2977  155.3441 H   0  0  0  0  0  0  0  0  0  0  0  0  # atno 10763 bound_to 10752
  154.7461  135.5002  153.9210 H   0  0  0  0  0  0  0  0  0  0  0  0  # atno 10764 bound_to 10752
  153.1027  135.6738  153.9750 H   0  0  0  0  0  0  0  0  0  0  0  0  # atno 10765 bound_to 10752
  141.0301  133.9994  157.3156 H   0  0  0  0  0  0  0  0  0  0  0  0  # atno 11005 bound_to 11000
  145.8519  140.9524  143.0745 LP  0  0  0  0  0  0  0  0  0  0  0  0  # atno 17320 bound_to 7965
  144.6756  140.0418  143.7480 LP  0  0  0  0  0  0  0  0  0  0  0  0  # atno 17321 bound_to 7965
  140.3347  144.3275  150.5980 LP  0  0  0  0  0  0  0  0  0  0  0  0  # atno 17342 bound_to 10162
  140.5616  143.2191  151.7755 LP  0  0  0  0  0  0  0  0  0  0  0  0  # atno 17343 bound_to 10162
  157.7365  130.9779  150.2138 LP  0  0  0  0  0  0  0  0  0  0  0  0  # atno 17370 bound_to 10713
  156.2783  130.3730  149.7961 LP  0  0  0  0  0  0  0  0  0  0  0  0  # atno 17371 bound_to 10713
  139.9202  135.0200  156.8035 LP  0  0  0  0  0  0  0  0  0  0  0  0  # atno 17394 bound_to 11000
  140.6422  133.9808  155.7713 LP  0  0  0  0  0  0  0  0  0  0  0  0  # atno 17395 bound_to 11000

$$$$
