AV-unprocessed.smi:1272|AV-procd|sdf|5334|dock7
  -GOLD-   22720 4463D 1   1.00000     0.00000
 Structure written by MMmdl.
 45 47  0  0  0  0  0  0  0  0  1 V2000
  155.3204  140.3028  161.0255 C   0  0  0  0  0  0  0  0  0  0  0  0
  153.9539  139.7260  160.6348 C   0  0  0  0  0  0  0  0  0  0  0  0
  153.1505  140.7108  159.9145 N   0  0  0  0  0  0  0  0  0  0  0  0
  152.6754  140.5972  158.6519 C   0  0  0  0  0  0  0  0  0  0  0  0
  152.8422  139.6372  157.8994 O   0  0  0  0  0  0  0  0  0  0  0  0
  151.9966  141.7303  158.3545 N   0  0  0  0  0  0  0  0  0  0  0  0
  151.3244  142.0350  157.0923 C   0  0  0  0  0  0  0  0  0  0  0  0
  149.9319  141.3779  157.0128 C   0  0  2  0  0  0  0  0  0  0  0  0
  149.0926  142.0153  157.9549 O   0  0  0  0  0  0  0  0  0  0  0  0
  149.9935  139.8843  157.3933 C   0  0  0  0  0  0  0  0  0  0  0  0
  150.2840  138.9619  156.2936 N   0  0  0  0  0  0  0  0  0  0  0  0
  151.4702  139.3444  155.5291 C   0  0  0  0  0  0  0  0  0  0  0  0
  151.7732  138.3429  154.4007 C   0  0  0  0  0  0  0  0  0  0  0  0
  151.9192  137.0356  154.9449 O   0  0  0  0  0  0  0  0  0  0  0  0
  150.7640  136.6071  155.6578 C   0  0  0  0  0  0  0  0  0  0  0  0
  150.4626  137.6020  156.7917 C   0  0  0  0  0  0  0  0  0  0  0  0
  152.0606  142.6045  159.4492 C   0  0  0  0  0  0  0  0  0  0  0  0
  151.5448  143.8995  159.6319 C   0  0  0  0  0  0  0  0  0  0  0  0
  151.7980  144.5275  160.8739 C   0  0  0  0  0  0  0  0  0  0  0  0
  152.5440  143.8665  161.8841 C   0  0  0  0  0  0  0  0  0  0  0  0
  153.0537  142.5639  161.6731 C   0  0  0  0  0  0  0  0  0  0  0  0
  152.7867  141.9627  160.4306 C   0  0  0  0  0  0  0  0  0  0  0  0
  155.9065  139.5689  161.5788 H   0  0  0  0  0  0  0  0  0  0  0  0
  155.2103  141.1850  161.6569 H   0  0  0  0  0  0  0  0  0  0  0  0
  155.8939  140.5901  160.1436 H   0  0  0  0  0  0  0  0  0  0  0  0
  154.0900  138.8351  160.0199 H   0  0  0  0  0  0  0  0  0  0  0  0
  153.4177  139.3988  161.5256 H   0  0  0  0  0  0  0  0  0  0  0  0
  151.2200  143.1194  157.0296 H   0  0  0  0  0  0  0  0  0  0  0  0
  151.9451  141.7547  156.2403 H   0  0  0  0  0  0  0  0  0  0  0  0
  149.5222  141.5039  156.0113 H   0  0  0  0  0  0  0  0  0  0  0  0
  148.7293  142.7891  157.5514 H   0  0  0  0  0  0  0  0  0  0  0  0
  150.7408  139.7454  158.1761 H   0  0  0  0  0  0  0  0  0  0  0  0
  149.0391  139.6129  157.8473 H   0  0  0  0  0  0  0  0  0  0  0  0
  151.3384  140.3300  155.0853 H   0  0  0  0  0  0  0  0  0  0  0  0
  152.3333  139.4121  156.1931 H   0  0  0  0  0  0  0  0  0  0  0  0
  150.9750  138.3472  153.6568 H   0  0  0  0  0  0  0  0  0  0  0  0
  152.6929  138.6194  153.8851 H   0  0  0  0  0  0  0  0  0  0  0  0
  149.9152  136.5278  154.9769 H   0  0  0  0  0  0  0  0  0  0  0  0
  150.9440  135.6117  156.0639 H   0  0  0  0  0  0  0  0  0  0  0  0
  151.2775  137.5776  157.5172 H   0  0  0  0  0  0  0  0  0  0  0  0
  149.5651  137.2807  157.3213 H   0  0  0  0  0  0  0  0  0  0  0  0
  150.9828  144.4006  158.8578 H   0  0  0  0  0  0  0  0  0  0  0  0
  151.4209  145.5233  161.0542 H   0  0  0  0  0  0  0  0  0  0  0  0
  152.7272  144.3648  162.8246 H   0  0  0  0  0  0  0  0  0  0  0  0
  153.6265  142.0582  162.4362 H   0  0  0  0  0  0  0  0  0  0  0  0
  1  2  1  0  0  0  0
  1 23  1  0  0  0  0
  1 24  1  0  0  0  0
  1 25  1  0  0  0  0
  2  3  1  0  0  0  0
  2 26  1  0  0  0  0
  2 27  1  0  0  0  0
  3 22  1  0  0  0  0
  3  4  1  0  0  0  0
  4  5  2  0  0  0  0
  4  6  1  0  0  0  0
  6  7  1  0  0  0  0
  6 17  1  0  0  0  0
  7  8  1  0  0  0  0
  7 28  1  0  0  0  0
  7 29  1  0  0  0  0
  8  9  1  0  0  0  0
  8 10  1  0  0  0  0
  8 30  1  0  0  0  0
  9 31  1  0  0  0  0
 10 11  1  0  0  0  0
 10 32  1  0  0  0  0
 10 33  1  0  0  0  0
 11 16  1  0  0  0  0
 11 12  1  0  0  0  0
 12 13  1  0  0  0  0
 12 34  1  0  0  0  0
 12 35  1  0  0  0  0
 13 14  1  0  0  0  0
 13 36  1  0  0  0  0
 13 37  1  0  0  0  0
 14 15  1  0  0  0  0
 15 16  1  0  0  0  0
 15 38  1  0  0  0  0
 15 39  1  0  0  0  0
 16 40  1  0  0  0  0
 16 41  1  0  0  0  0
 17 22  2  0  0  0  0
 17 18  1  0  0  0  0
 18 19  2  0  0  0  0
 18 42  1  0  0  0  0
 19 20  1  0  0  0  0
 19 43  1  0  0  0  0
 20 21  2  0  0  0  0
 20 44  1  0  0  0  0
 21 22  1  0  0  0  0
 21 45  1  0  0  0  0
M  END
> <s_m_source_file>
AV-unprocessed.smi

> <i_m_source_file_index>
1272

> <i_lp_mmshare_version>
43012

> <i_f3d_flags>
0

> <s_epik_input>
W2NIXTFbY0hdW2NIXVtjSF1jKGMxMiluKFtDSDJdW0NIM10pYyg9TyluMltDSDJdW0NASF0oW09IXSlbQ0gyXU4zW0NIMl1bQ0gyXU9bQ0gyXVtDSDJdMw==

> <s_epik_cmdline>
J2VwaWtfcHl0aG9uJywgJy1waCcsICc3LjAnLCAnLXRuJywgJzgnLCAnLW1hJywgJzIwMCcsICctbWV0YWxfYmluZGluZycsICctaW1hZScsICc8aW5maWxlLm1hZT4nLCAnLW9tYWUnLCAnPG91dGZpbGUubWFlPic=

> <r_epik_Ionization_Penalty>
0.214359

> <r_epik_Ionization_Penalty_Charging>
2.31431e-09

> <r_epik_Ionization_Penalty_Neutral>
0.214359

> <r_epik_State_Penalty>
0.204533

> <r_epik_Charging_Adjusted_Penalty>
0.204533

> <i_epik_Tot_Q>
0

> <i_epik_Tot_abs_Q>
0

> <r_epik_Metal_State_Penalty>
0.204533

> <b_epik_Metal_Only>
0

> <s_lp_Force_Field>
OPLS_2005

> <r_lp_Energy>
61.4886

> <b_lp_Chiralities_Consistent>
1

> <s_lp_Variant>
AV-unprocessed.smi:1272-1

> <Gold.Version>
5.8.1

> <Gold.Id.Protein>
6NUR|6NUR_protein|mol2

> <Gold.PLP.Fitness>
50.9560

> <Gold.PLP.PLP>
-46.2560

> <Gold.PLP.part.hbond>
-2.0000

> <Gold.PLP.part.metal>
0.0000

> <Gold.PLP.part.buried>
-6.8146

> <Gold.PLP.part.nonpolar>
-37.3089

> <Gold.PLP.part.repulsive>
0.1047

> <Gold.PLP.ligand.clash>
0.0000

> <Gold.PLP.ligand.torsion>
0.6857

> <Gold.PLP.Chemscore.Hbond>
1.9920

> <Gold.PLP.Chemscore.CHOScore>
0.0000

> <Gold.PLP.Chemscore.Metal>
0.0000

> <Gold.Chemscore.Hbonds>
donor molecule, donor type, donor heavy atom, donor atom, acceptor molecule, acceptor atom, score
      P1  H  7997  8010       L1     5  1.00
      P1  H 10752 10763       L1    14  1.00

> <Gold.PLP.Chemscore.Internal.Correction>
0.0955

> <Gold.Rescore>
     Score         DG    S(hbond)    S(metal)    S(lipo)     H(rot)  DE(clash)    DE(int)     intcor
     18.83     -19.80       1.85        0.00     116.39       2.14       0.17       0.80       ----

> <Gold.Chemscore.Fitness>
18.8289

> <Gold.Chemscore.DG>
-19.8045

> <Gold.Chemscore.ZeroCoef>
-5.4800

> <Gold.Chemscore.Hbond>
1.8509

> <Gold.Chemscore.Metal>
0.0000

> <Gold.Chemscore.Lipo>
116.3887

> <Gold.Chemscore.Internal_Hbond>
0.0000

> <Gold.Chemscore.DEClash>
0.1740

> <Gold.Chemscore.DEInternal>
0.8017

> <Gold.Chemscore.Rot>
2.1386

> <Gold.Chemscore.Internal.Correction>
   9.000000E+99

> <Gold.Chemscore.Hbonds>
donor molecule, donor type, donor heavy atom, donor atom, acceptor molecule, acceptor atom, score
      P1  H  7997  8010       L1     5  0.57
      P1  H 10752 10763       L1    14  0.70

> <Gold.Chemscore.Hbond.Weighted>
-6.1819

> <Gold.Chemscore.Metal.Weighted>
-0.0000

> <Gold.Chemscore.Lipo.Weighted>
-13.6175

> <Gold.Chemscore.Internal_Hbond.Weighted>
0.0000

> <Gold.Chemscore.DEClash.Weighted>
0.1740

> <Gold.Chemscore.DEInternal.Weighted>
0.8017

> <Gold.Chemscore.Rot.Weighted>
5.4749

> <Gold.Chemscore.Internal.Correction.Weighted>
   9.000000E+99

> <Gold.Protein.RotatedTorsions>
[ 6907 6896 6895 6894 ] final  -56.89 input  -60.11 | X-H torsion
[ 7974 7965 7964 7962 ] final  -18.64 input  175.53 | X-H torsion
[ 8008 7997 7996 7995 ] final   57.47 input   59.86 | X-H torsion
[ 10167 10162 10161 10158 ] final  104.07 input  -65.29 | X-H torsion
[ 10718 10713 10712 10709 ] final   55.21 input   66.30 | X-H torsion
[ 10763 10752 10751 10750 ] final   55.80 input  -60.55 | X-H torsion
[ 11005 11000 10999 10996 ] final  -58.57 input  -57.11 | X-H torsion

> <Gold.Protein.ActiveResidues>
 VAL166  LYS551  ARG553  GLY616  TRP617  ASP618  TYR619  PRO620  LYS621  CYS622 
 ASP623  PHE694  ASN695  SER759  ASP760  ASP761  ALA762  ILE779  LEU786  VAL792 
 PHE793  MET794  SER795  GLU796  ALA797  LYS798  CYS799  TRP800  GLU811  SER814 

> <Gold.Protein.RotatedAtoms>
  150.8130  134.7296  159.6704 H   0  0  0  0  0  0  0  0  0  0  0  0  # atno 6907 bound_to 6896
  152.4250  134.5882  159.9976 H   0  0  0  0  0  0  0  0  0  0  0  0  # atno 6908 bound_to 6896
  151.6086  133.3312  159.3098 H   0  0  0  0  0  0  0  0  0  0  0  0  # atno 6909 bound_to 6896
  146.1882  140.3950  142.8468 H   0  0  0  0  0  0  0  0  0  0  0  0  # atno 7974 bound_to 7965
  155.5344  140.3483  155.4433 H   0  0  0  0  0  0  0  0  0  0  0  0  # atno 8008 bound_to 7997
  156.0696  140.1360  156.9871 H   0  0  0  0  0  0  0  0  0  0  0  0  # atno 8009 bound_to 7997
  154.4521  140.0968  156.6623 H   0  0  0  0  0  0  0  0  0  0  0  0  # atno 8010 bound_to 7997
  139.7209  144.7058  151.0874 H   0  0  0  0  0  0  0  0  0  0  0  0  # atno 10167 bound_to 10162
  157.5325  130.8640  149.8707 H   0  0  0  0  0  0  0  0  0  0  0  0  # atno 10718 bound_to 10713
  152.9822  135.5698  154.5126 H   0  0  0  0  0  0  0  0  0  0  0  0  # atno 10763 bound_to 10752
  154.4627  135.2782  155.1703 H   0  0  0  0  0  0  0  0  0  0  0  0  # atno 10764 bound_to 10752
  154.3284  135.6254  153.5593 H   0  0  0  0  0  0  0  0  0  0  0  0  # atno 10765 bound_to 10752
  141.1213  133.6613  156.4941 H   0  0  0  0  0  0  0  0  0  0  0  0  # atno 11005 bound_to 11000
  144.8436  140.6895  143.6213 LP  0  0  0  0  0  0  0  0  0  0  0  0  # atno 17320 bound_to 7965
  145.3874  139.1623  143.4247 LP  0  0  0  0  0  0  0  0  0  0  0  0  # atno 17321 bound_to 7965
  140.7753  143.5168  150.9585 LP  0  0  0  0  0  0  0  0  0  0  0  0  # atno 17342 bound_to 10162
  139.8854  143.7019  152.3152 LP  0  0  0  0  0  0  0  0  0  0  0  0  # atno 17343 bound_to 10162
  156.0433  130.3734  150.1380 LP  0  0  0  0  0  0  0  0  0  0  0  0  # atno 17370 bound_to 10713
  156.9564  130.9791  151.3488 LP  0  0  0  0  0  0  0  0  0  0  0  0  # atno 17371 bound_to 10713
  140.4499  134.6938  157.5034 LP  0  0  0  0  0  0  0  0  0  0  0  0  # atno 17394 bound_to 11000
  140.0172  134.6601  155.9292 LP  0  0  0  0  0  0  0  0  0  0  0  0  # atno 17395 bound_to 11000

$$$$
