AV-unprocessed.smi:1473|AV-procd|sdf|5966|dock2
  -GOLD-   22720 6 53D 1   1.00000     0.00000
 Structure written by MMmdl.
 34 35  0  0  0  0  0  0  0  0  1 V2000
  146.2827  139.3623  152.3925 N   0  0  0  0  0  0  0  0  0  0  0  0
  146.8796  139.3319  154.0037 S   0  0  0  0  0  0  0  0  0  0  0  0
  146.0758  140.2479  154.8269 O   0  0  0  0  0  0  0  0  0  0  0  0
  147.1031  137.9341  154.4021 O   0  0  0  0  0  0  0  0  0  0  0  0
  148.4125  140.0616  153.7263 N   0  0  0  0  0  0  0  0  0  0  0  0
  148.7884  141.2701  154.4541 C   0  0  0  0  0  0  0  0  0  0  0  0
  149.8690  141.0036  155.4809 C   0  0  0  0  0  0  0  0  0  0  0  0
  150.6075  139.8052  155.4459 C   0  0  0  0  0  0  0  0  0  0  0  0
  151.5895  139.5990  156.4323 C   0  0  0  0  0  0  0  0  0  0  0  0
  151.8577  140.4931  157.4069 N   0  0  0  0  0  0  0  0  0  0  0  0
  151.1554  141.6531  157.4474 C   0  0  0  0  0  0  0  0  0  0  0  0
  151.4495  142.5780  158.4730 N   0  0  0  0  0  0  0  0  0  0  0  0
  152.3775  142.1656  159.5247 C   0  0  0  0  0  0  0  0  0  0  0  0
  152.3460  143.1681  160.6909 C   0  0  0  0  0  0  0  0  0  0  0  0
  152.6160  144.4781  160.2037 O   0  0  0  0  0  0  0  0  0  0  0  0
  151.6373  144.9038  159.2614 C   0  0  0  0  0  0  0  0  0  0  0  0
  151.6386  143.9620  158.0448 C   0  0  0  0  0  0  0  0  0  0  0  0
  150.1448  141.9398  156.4982 C   0  0  0  0  0  0  0  0  0  0  0  0
  145.3266  139.7129  152.3395 H   0  0  0  0  0  0  0  0  0  0  0  0
  146.4197  138.4735  151.9117 H   0  0  0  0  0  0  0  0  0  0  0  0
  148.7448  140.0115  152.7636 H   0  0  0  0  0  0  0  0  0  0  0  0
  149.1570  142.0146  153.7476 H   0  0  0  0  0  0  0  0  0  0  0  0
  147.9016  141.6937  154.9269 H   0  0  0  0  0  0  0  0  0  0  0  0
  150.4245  139.0599  154.6857 H   0  0  0  0  0  0  0  0  0  0  0  0
  152.1744  138.6913  156.4404 H   0  0  0  0  0  0  0  0  0  0  0  0
  152.1142  141.1737  159.8944 H   0  0  0  0  0  0  0  0  0  0  0  0
  153.3856  142.1045  159.1127 H   0  0  0  0  0  0  0  0  0  0  0  0
  151.3788  143.1479  161.1957 H   0  0  0  0  0  0  0  0  0  0  0  0
  153.0982  142.9029  161.4341 H   0  0  0  0  0  0  0  0  0  0  0  0
  150.6525  144.9299  159.7308 H   0  0  0  0  0  0  0  0  0  0  0  0
  151.8661  145.9222  158.9471 H   0  0  0  0  0  0  0  0  0  0  0  0
  152.5887  144.0392  157.5146 H   0  0  0  0  0  0  0  0  0  0  0  0
  150.8622  144.2812  157.3511 H   0  0  0  0  0  0  0  0  0  0  0  0
  149.5722  142.8538  156.5515 H   0  0  0  0  0  0  0  0  0  0  0  0
  1  2  1  0  0  0  0
  1 19  1  0  0  0  0
  1 20  1  0  0  0  0
  2  3  2  0  0  0  0
  2  4  2  0  0  0  0
  2  5  1  0  0  0  0
  5  6  1  0  0  0  0
  5 21  1  0  0  0  0
  6  7  1  0  0  0  0
  6 22  1  0  0  0  0
  6 23  1  0  0  0  0
  7 18  1  0  0  0  0
  7  8  2  0  0  0  0
  8  9  1  0  0  0  0
  8 24  1  0  0  0  0
  9 10  2  0  0  0  0
  9 25  1  0  0  0  0
 10 11  1  0  0  0  0
 11 12  1  0  0  0  0
 11 18  2  0  0  0  0
 12 17  1  0  0  0  0
 12 13  1  0  0  0  0
 13 14  1  0  0  0  0
 13 26  1  0  0  0  0
 13 27  1  0  0  0  0
 14 15  1  0  0  0  0
 14 28  1  0  0  0  0
 14 29  1  0  0  0  0
 15 16  1  0  0  0  0
 16 17  1  0  0  0  0
 16 30  1  0  0  0  0
 16 31  1  0  0  0  0
 17 32  1  0  0  0  0
 17 33  1  0  0  0  0
 18 34  1  0  0  0  0
M  END
> <s_m_source_file>
AV-unprocessed.smi

> <i_m_source_file_index>
1473

> <i_lp_mmshare_version>
43012

> <i_f3d_flags>
0

> <s_epik_input>
W05IMl1TKD1PKSg9TylbTkhdW0NIMl1jMVtjSF1bY0hdbmMoW2NIXTEpTjJbQ0gyXVtDSDJdT1tDSDJdW0NIMl0y

> <s_epik_cmdline>
J2VwaWtfcHl0aG9uJywgJy1waCcsICc3LjAnLCAnLXRuJywgJzgnLCAnLW1hJywgJzIwMCcsICctbWV0YWxfYmluZGluZycsICctaW1hZScsICc8aW5maWxlLm1hZT4nLCAnLW9tYWUnLCAnPG91dGZpbGUubWFlPic=

> <r_lp_tautomer_probability>
1

> <r_epik_Ionization_Penalty>
0.222057

> <r_epik_Ionization_Penalty_Charging>
0

> <r_epik_Ionization_Penalty_Neutral>
0.222057

> <r_epik_State_Penalty>
0.236233

> <r_epik_Charging_Adjusted_Penalty>
0.236233

> <i_epik_Tot_Q>
0

> <i_epik_Tot_abs_Q>
0

> <r_epik_Metal_State_Penalty>
0.788435

> <b_epik_Metal_Only>
0

> <s_lp_Force_Field>
OPLS_2005

> <r_lp_Energy>
17.6675

> <b_lp_Chiralities_Consistent>
1

> <s_lp_Variant>
AV-unprocessed.smi:1473-1

> <Gold.Version>
5.8.1

> <Gold.Id.Protein>
6NUR|6NUR_protein|mol2

> <Gold.PLP.Fitness>
40.0557

> <Gold.PLP.PLP>
-34.6299

> <Gold.PLP.part.hbond>
-2.2439

> <Gold.PLP.part.metal>
0.0000

> <Gold.PLP.part.buried>
-2.1243

> <Gold.PLP.part.nonpolar>
-30.8221

> <Gold.PLP.part.repulsive>
0.4730

> <Gold.PLP.ligand.clash>
0.0000

> <Gold.PLP.ligand.torsion>
0.9530

> <Gold.PLP.Chemscore.Hbond>
2.0000

> <Gold.PLP.Chemscore.CHOScore>
0.0000

> <Gold.PLP.Chemscore.Metal>
0.0000

> <Gold.Chemscore.Hbonds>
donor molecule, donor type, donor heavy atom, donor atom, acceptor molecule, acceptor atom, score
      L1  H     1    19       P1 10175  1.00
      L1  H     5    21       P1  7957  1.00

> <Gold.PLP.Chemscore.Internal.Correction>
1.3318

> <Gold.Rescore>
     Score         DG    S(hbond)    S(metal)    S(lipo)     H(rot)  DE(clash)    DE(int)     intcor
     15.69     -16.85       2.00        0.00      81.75       1.90       0.15       1.01       ----

> <Gold.Chemscore.Fitness>
15.6946

> <Gold.Chemscore.DG>
-16.8537

> <Gold.Chemscore.ZeroCoef>
-5.4800

> <Gold.Chemscore.Hbond>
1.9973

> <Gold.Chemscore.Metal>
0.0000

> <Gold.Chemscore.Lipo>
81.7511

> <Gold.Chemscore.Internal_Hbond>
0.0000

> <Gold.Chemscore.DEClash>
0.1485

> <Gold.Chemscore.DEInternal>
1.0106

> <Gold.Chemscore.Rot>
1.8993

> <Gold.Chemscore.Internal.Correction>
   9.000000E+99

> <Gold.Chemscore.Hbonds>
donor molecule, donor type, donor heavy atom, donor atom, acceptor molecule, acceptor atom, score
      L1  H     1    19       P1 10175  0.98
      L1  H     5    21       P1  7957  1.00

> <Gold.Chemscore.Hbond.Weighted>
-6.6710

> <Gold.Chemscore.Metal.Weighted>
-0.0000

> <Gold.Chemscore.Lipo.Weighted>
-9.5649

> <Gold.Chemscore.Internal_Hbond.Weighted>
0.0000

> <Gold.Chemscore.DEClash.Weighted>
0.1485

> <Gold.Chemscore.DEInternal.Weighted>
1.0106

> <Gold.Chemscore.Rot.Weighted>
4.8622

> <Gold.Chemscore.Internal.Correction.Weighted>
   9.000000E+99

> <Gold.Protein.RotatedTorsions>
[ 6907 6896 6895 6894 ] final -145.88 input  -60.11 | X-H torsion
[ 7974 7965 7964 7962 ] final   26.11 input  175.53 | X-H torsion
[ 8008 7997 7996 7995 ] final  -96.23 input   59.86 | X-H torsion
[ 10167 10162 10161 10158 ] final -132.32 input  -65.29 | X-H torsion
[ 10718 10713 10712 10709 ] final  158.52 input   66.30 | X-H torsion
[ 10763 10752 10751 10750 ] final  156.48 input  -60.55 | X-H torsion
[ 11005 11000 10999 10996 ] final -114.09 input  -57.11 | X-H torsion

> <Gold.Protein.ActiveResidues>
 VAL166  LYS551  ARG553  GLY616  TRP617  ASP618  TYR619  PRO620  LYS621  CYS622 
 ASP623  PHE694  ASN695  SER759  ASP760  ASP761  ALA762  ILE779  LEU786  VAL792 
 PHE793  MET794  SER795  GLU796  ALA797  LYS798  CYS799  TRP800  GLU811  SER814 

> <Gold.Protein.RotatedAtoms>
  151.1339  133.5017  159.2598 H   0  0  0  0  0  0  0  0  0  0  0  0  # atno 6907 bound_to 6896
  151.1727  135.0325  159.8768 H   0  0  0  0  0  0  0  0  0  0  0  0  # atno 6908 bound_to 6896
  152.5460  134.1201  159.8448 H   0  0  0  0  0  0  0  0  0  0  0  0  # atno 6909 bound_to 6896
  146.1854  139.7373  142.8870 H   0  0  0  0  0  0  0  0  0  0  0  0  # atno 7974 bound_to 7965
  154.7717  140.0473  157.1057 H   0  0  0  0  0  0  0  0  0  0  0  0  # atno 8008 bound_to 7997
  154.9812  140.3101  155.4926 H   0  0  0  0  0  0  0  0  0  0  0  0  # atno 8009 bound_to 7997
  156.2922  140.2235  156.4911 H   0  0  0  0  0  0  0  0  0  0  0  0  # atno 8010 bound_to 7997
  139.9097  143.6508  152.2578 H   0  0  0  0  0  0  0  0  0  0  0  0  # atno 10167 bound_to 10162
  157.1768  131.0623  151.2153 H   0  0  0  0  0  0  0  0  0  0  0  0  # atno 10718 bound_to 10713
  154.1850  135.2797  155.3040 H   0  0  0  0  0  0  0  0  0  0  0  0  # atno 10763 bound_to 10752
  154.5973  135.5541  153.7342 H   0  0  0  0  0  0  0  0  0  0  0  0  # atno 10764 bound_to 10752
  153.0127  135.6383  154.1989 H   0  0  0  0  0  0  0  0  0  0  0  0  # atno 10765 bound_to 10752
  141.0573  133.9591  157.2730 H   0  0  0  0  0  0  0  0  0  0  0  0  # atno 11005 bound_to 11000
  145.3953  141.0378  143.3101 LP  0  0  0  0  0  0  0  0  0  0  0  0  # atno 17320 bound_to 7965
  144.8389  139.5505  143.6909 LP  0  0  0  0  0  0  0  0  0  0  0  0  # atno 17321 bound_to 7965
  139.6953  144.7642  151.1367 LP  0  0  0  0  0  0  0  0  0  0  0  0  # atno 17342 bound_to 10162
  140.7688  143.5532  150.9181 LP  0  0  0  0  0  0  0  0  0  0  0  0  # atno 17343 bound_to 10162
  157.3991  130.7323  149.6753 LP  0  0  0  0  0  0  0  0  0  0  0  0  # atno 17370 bound_to 10713
  155.9730  130.4126  150.4038 LP  0  0  0  0  0  0  0  0  0  0  0  0  # atno 17371 bound_to 10713
  139.9402  135.0192  156.8683 LP  0  0  0  0  0  0  0  0  0  0  0  0  # atno 17394 bound_to 11000
  140.5938  134.0237  155.7510 LP  0  0  0  0  0  0  0  0  0  0  0  0  # atno 17395 bound_to 11000

$$$$
