AV-unprocessed.smi:2808|AV-procd|sdf|10824|dock6
  -GOLD-   2272015263D 1   1.00000     0.00000
 Structure written by MMmdl.
 43 44  0  0  0  0  0  0  0  0  1 V2000
  144.1513  145.4077  153.6987 C   0  0  0  0  0  0  0  0  0  0  0  0
  144.9282  144.2776  154.3485 C   0  0  0  0  0  0  0  0  0  0  0  0
  145.8753  143.5068  153.5700 C   0  0  0  0  0  0  0  0  0  0  0  0
  146.5538  142.5112  154.1598 C   0  0  0  0  0  0  0  0  0  0  0  0
  146.3740  142.1906  155.5168 N   0  0  0  0  0  0  0  0  0  0  0  0
  147.1681  141.0734  156.0551 C   0  0  0  0  0  0  0  0  0  0  0  0
  148.6799  141.2717  155.8788 C   0  0  0  0  0  0  0  0  0  0  0  0
  149.1309  141.7622  154.8435 O   0  0  0  0  0  0  0  0  0  0  0  0
  149.4470  140.8940  156.9150 N   0  0  0  0  0  0  0  0  0  0  0  0
  150.9087  140.9661  157.0091 C   0  0  0  0  0  0  0  0  0  0  0  0
  151.5325  140.2555  155.8751 C   0  0  0  0  0  0  0  0  0  0  0  0
  152.0218  139.6994  154.9860 N   0  0  0  0  0  0  0  0  0  0  0  0
  151.3069  142.4576  156.8866 C   0  0  0  0  0  0  0  0  0  0  0  0
  151.2093  143.2928  158.1758 C   0  0  0  0  0  0  0  0  0  0  0  0
  152.5088  143.2572  159.0005 C   0  0  0  0  0  0  0  0  0  0  0  0
  152.7827  141.9286  159.7230 C   0  0  0  0  0  0  0  0  0  0  0  0
  152.7770  140.6842  158.8174 C   0  0  0  0  0  0  0  0  0  0  0  0
  151.3620  140.3143  158.3424 C   0  0  0  0  0  0  0  0  0  0  0  0
  145.4951  142.8727  156.3115 C   0  0  0  0  0  0  0  0  0  0  0  0
  145.3398  142.5840  157.4999 O   0  0  0  0  0  0  0  0  0  0  0  0
  144.7562  143.9628  155.6548 C   0  0  0  0  0  0  0  0  0  0  0  0
  143.8383  144.6744  156.4848 C   0  0  0  0  0  0  0  0  0  0  0  0
  143.1071  145.2691  157.1569 N   0  0  0  0  0  0  0  0  0  0  0  0
  144.4250  145.5228  152.6496 H   0  0  0  0  0  0  0  0  0  0  0  0
  144.3542  146.3510  154.2063 H   0  0  0  0  0  0  0  0  0  0  0  0
  143.0797  145.2119  153.7491 H   0  0  0  0  0  0  0  0  0  0  0  0
  146.0343  143.7242  152.5240 H   0  0  0  0  0  0  0  0  0  0  0  0
  147.2671  141.8959  153.6307 H   0  0  0  0  0  0  0  0  0  0  0  0
  146.9675  140.9344  157.1182 H   0  0  0  0  0  0  0  0  0  0  0  0
  146.8619  140.1382  155.5820 H   0  0  0  0  0  0  0  0  0  0  0  0
  148.9734  140.5090  157.7191 H   0  0  0  0  0  0  0  0  0  0  0  0
  152.3233  142.5361  156.4977 H   0  0  0  0  0  0  0  0  0  0  0  0
  150.6885  142.9241  156.1177 H   0  0  0  0  0  0  0  0  0  0  0  0
  151.0296  144.3301  157.8914 H   0  0  0  0  0  0  0  0  0  0  0  0
  150.3492  142.9969  158.7771 H   0  0  0  0  0  0  0  0  0  0  0  0
  153.3560  143.5042  158.3595 H   0  0  0  0  0  0  0  0  0  0  0  0
  152.4686  144.0495  159.7488 H   0  0  0  0  0  0  0  0  0  0  0  0
  153.7547  142.0005  160.2119 H   0  0  0  0  0  0  0  0  0  0  0  0
  152.0597  141.7966  160.5289 H   0  0  0  0  0  0  0  0  0  0  0  0
  153.4595  140.8022  157.9752 H   0  0  0  0  0  0  0  0  0  0  0  0
  153.1666  139.8496  159.4016 H   0  0  0  0  0  0  0  0  0  0  0  0
  150.6488  140.5364  159.1379 H   0  0  0  0  0  0  0  0  0  0  0  0
  151.3192  139.2306  158.2258 H   0  0  0  0  0  0  0  0  0  0  0  0
  1  2  1  0  0  0  0
  1 24  1  0  0  0  0
  1 25  1  0  0  0  0
  1 26  1  0  0  0  0
  2 21  2  0  0  0  0
  2  3  1  0  0  0  0
  3  4  2  0  0  0  0
  3 27  1  0  0  0  0
  4  5  1  0  0  0  0
  4 28  1  0  0  0  0
  5  6  1  0  0  0  0
  5 19  1  0  0  0  0
  6  7  1  0  0  0  0
  6 29  1  0  0  0  0
  6 30  1  0  0  0  0
  7  8  2  0  0  0  0
  7  9  1  0  0  0  0
  9 10  1  0  0  0  0
  9 31  1  0  0  0  0
 10 18  1  0  0  0  0
 10 11  1  0  0  0  0
 10 13  1  0  0  0  0
 11 12  3  0  0  0  0
 13 14  1  0  0  0  0
 13 32  1  0  0  0  0
 13 33  1  0  0  0  0
 14 15  1  0  0  0  0
 14 34  1  0  0  0  0
 14 35  1  0  0  0  0
 15 16  1  0  0  0  0
 15 36  1  0  0  0  0
 15 37  1  0  0  0  0
 16 17  1  0  0  0  0
 16 38  1  0  0  0  0
 16 39  1  0  0  0  0
 17 18  1  0  0  0  0
 17 40  1  0  0  0  0
 17 41  1  0  0  0  0
 18 42  1  0  0  0  0
 18 43  1  0  0  0  0
 19 20  2  0  0  0  0
 19 21  1  0  0  0  0
 21 22  1  0  0  0  0
 22 23  3  0  0  0  0
M  END
> <s_m_source_file>
AV-unprocessed.smi

> <i_m_source_file_index>
2808

> <i_lp_mmshare_version>
43012

> <i_f3d_flags>
0

> <s_epik_input>
W0NIM11jMVtjSF1bY0hdbihjKD1PKWMxQyNOKVtDSDJdQyg9TylbTkhdQzIoQyNOKVtDSDJdW0NIMl1bQ0gyXVtDSDJdW0NIMl1bQ0gyXTI=

> <s_epik_cmdline>
J2VwaWtfcHl0aG9uJywgJy1waCcsICc3LjAnLCAnLXRuJywgJzgnLCAnLW1hJywgJzIwMCcsICctbWV0YWxfYmluZGluZycsICctaW1hZScsICc8aW5maWxlLm1hZT4nLCAnLW9tYWUnLCAnPG91dGZpbGUubWFlPic=

> <r_lp_tautomer_probability>
1

> <r_epik_Ionization_Penalty>
4.51384e-07

> <r_epik_Ionization_Penalty_Charging>
2.41788e-10

> <r_epik_Ionization_Penalty_Neutral>
4.51142e-07

> <r_epik_State_Penalty>
-0

> <r_epik_Charging_Adjusted_Penalty>
2.41788e-10

> <i_epik_Tot_Q>
0

> <i_epik_Tot_abs_Q>
0

> <r_epik_Metal_State_Penalty>
-0

> <b_epik_Metal_Only>
0

> <s_lp_Force_Field>
OPLS_2005

> <r_lp_Energy>
25.2429

> <b_lp_Chiralities_Consistent>
1

> <s_lp_Variant>
AV-unprocessed.smi:2808-1

> <Gold.Version>
5.8.1

> <Gold.Id.Protein>
6NUR|6NUR_protein|mol2

> <Gold.PLP.Fitness>
45.3415

> <Gold.PLP.PLP>
-43.2269

> <Gold.PLP.part.hbond>
-1.0808

> <Gold.PLP.part.metal>
0.0000

> <Gold.PLP.part.buried>
-8.5505

> <Gold.PLP.part.nonpolar>
-34.3559

> <Gold.PLP.part.repulsive>
0.2923

> <Gold.PLP.ligand.clash>
0.0000

> <Gold.PLP.ligand.torsion>
0.3164

> <Gold.PLP.Chemscore.Hbond>
0.9120

> <Gold.PLP.Chemscore.CHOScore>
0.0000

> <Gold.PLP.Chemscore.Metal>
0.0000

> <Gold.Chemscore.Hbonds>
donor molecule, donor type, donor heavy atom, donor atom, acceptor molecule, acceptor atom, score
      P1  H  7989  7998       L1    12  0.90

> <Gold.PLP.Chemscore.Internal.Correction>
0.0114

> <Gold.Rescore>
     Score         DG    S(hbond)    S(metal)    S(lipo)     H(rot)  DE(clash)    DE(int)     intcor
     11.53     -14.62       0.78        0.00      89.05       1.52       0.02       3.07       ----

> <Gold.Chemscore.Fitness>
11.5266

> <Gold.Chemscore.DG>
-14.6178

> <Gold.Chemscore.ZeroCoef>
-5.4800

> <Gold.Chemscore.Hbond>
0.7839

> <Gold.Chemscore.Metal>
0.0000

> <Gold.Chemscore.Lipo>
89.0514

> <Gold.Chemscore.Internal_Hbond>
0.0000

> <Gold.Chemscore.DEClash>
0.0164

> <Gold.Chemscore.DEInternal>
3.0747

> <Gold.Chemscore.Rot>
1.5232

> <Gold.Chemscore.Internal.Correction>
   9.000000E+99

> <Gold.Chemscore.Hbonds>
donor molecule, donor type, donor heavy atom, donor atom, acceptor molecule, acceptor atom, score
      P1  H  7989  7998       L1    12  0.35

> <Gold.Chemscore.Hbond.Weighted>
-2.6183

> <Gold.Chemscore.Metal.Weighted>
-0.0000

> <Gold.Chemscore.Lipo.Weighted>
-10.4190

> <Gold.Chemscore.Internal_Hbond.Weighted>
0.0000

> <Gold.Chemscore.DEClash.Weighted>
0.0164

> <Gold.Chemscore.DEInternal.Weighted>
3.0747

> <Gold.Chemscore.Rot.Weighted>
3.8995

> <Gold.Chemscore.Internal.Correction.Weighted>
   9.000000E+99

> <Gold.Protein.RotatedTorsions>
[ 6907 6896 6895 6894 ] final    8.53 input  -60.11 | X-H torsion
[ 7974 7965 7964 7962 ] final -144.44 input  175.53 | X-H torsion
[ 8008 7997 7996 7995 ] final  -25.11 input   59.86 | X-H torsion
[ 10167 10162 10161 10158 ] final  102.95 input  -65.29 | X-H torsion
[ 10718 10713 10712 10709 ] final  148.45 input   66.30 | X-H torsion
[ 10763 10752 10751 10750 ] final   66.98 input  -60.55 | X-H torsion
[ 11005 11000 10999 10996 ] final  -70.07 input  -57.11 | X-H torsion

> <Gold.Protein.ActiveResidues>
 VAL166  LYS551  ARG553  GLY616  TRP617  ASP618  TYR619  PRO620  LYS621  CYS622 
 ASP623  PHE694  ASN695  SER759  ASP760  ASP761  ALA762  ILE779  LEU786  VAL792 
 PHE793  MET794  SER795  GLU796  ALA797  LYS798  CYS799  TRP800  GLU811  SER814 

> <Gold.Protein.RotatedAtoms>
  151.7075  135.0919  160.0261 H   0  0  0  0  0  0  0  0  0  0  0  0  # atno 6907 bound_to 6896
  152.3682  133.6380  159.6075 H   0  0  0  0  0  0  0  0  0  0  0  0  # atno 6908 bound_to 6896
  150.7654  133.9229  159.3445 H   0  0  0  0  0  0  0  0  0  0  0  0  # atno 6909 bound_to 6896
  144.8298  140.5710  143.5523 H   0  0  0  0  0  0  0  0  0  0  0  0  # atno 7974 bound_to 7965
  154.4493  140.1935  156.0568 H   0  0  0  0  0  0  0  0  0  0  0  0  # atno 8008 bound_to 7997
  156.0613  140.3296  155.7437 H   0  0  0  0  0  0  0  0  0  0  0  0  # atno 8009 bound_to 7997
  155.5408  140.0586  157.2861 H   0  0  0  0  0  0  0  0  0  0  0  0  # atno 8010 bound_to 7997
  139.7305  144.7037  151.0730 H   0  0  0  0  0  0  0  0  0  0  0  0  # atno 10167 bound_to 10162
  157.3084  131.0883  151.1335 H   0  0  0  0  0  0  0  0  0  0  0  0  # atno 10718 bound_to 10713
  153.0165  135.5301  154.6908 H   0  0  0  0  0  0  0  0  0  0  0  0  # atno 10763 bound_to 10752
  154.6043  135.2871  155.0504 H   0  0  0  0  0  0  0  0  0  0  0  0  # atno 10764 bound_to 10752
  154.1549  135.6557  153.5024 H   0  0  0  0  0  0  0  0  0  0  0  0  # atno 10765 bound_to 10752
  141.1567  133.6780  156.6696 H   0  0  0  0  0  0  0  0  0  0  0  0  # atno 11005 bound_to 11000
  145.4921  139.1488  143.3704 LP  0  0  0  0  0  0  0  0  0  0  0  0  # atno 17320 bound_to 7965
  146.2601  140.5059  142.8857 LP  0  0  0  0  0  0  0  0  0  0  0  0  # atno 17321 bound_to 7965
  140.7770  143.5050  150.9724 LP  0  0  0  0  0  0  0  0  0  0  0  0  # atno 17342 bound_to 10162
  139.8738  143.7159  152.3164 LP  0  0  0  0  0  0  0  0  0  0  0  0  # atno 17343 bound_to 10162
  157.2667  130.6684  149.6000 LP  0  0  0  0  0  0  0  0  0  0  0  0  # atno 17370 bound_to 10713
  155.9676  130.4492  150.5648 LP  0  0  0  0  0  0  0  0  0  0  0  0  # atno 17371 bound_to 10713
  140.3185  134.8028  157.4233 LP  0  0  0  0  0  0  0  0  0  0  0  0  # atno 17394 bound_to 11000
  140.1117  134.5336  155.8260 LP  0  0  0  0  0  0  0  0  0  0  0  0  # atno 17395 bound_to 11000

$$$$
