AV-unprocessed.smi:1834|AV-procd|sdf|7471|dock5
  -GOLD-   22720 9163D 1   1.00000     0.00000
 Structure written by MMmdl.
 46 47  0  0  0  0  0  0  0  0  2 V2000
  145.3471  140.0656  158.0670 C   0  0  0  0  0  0  0  0  0  0  0  0
  145.5678  141.1940  157.0495 C   0  0  0  0  0  0  0  0  0  0  0  0
  146.3626  140.7587  155.8723 N   0  3  1  0  0  0  0  0  0  0  0  0
  145.6636  139.7068  155.0886 C   0  0  0  0  0  0  0  0  0  0  0  0
  146.5405  139.1816  153.9401 C   0  0  0  0  0  0  0  0  0  0  0  0
  147.0229  140.3286  153.0392 C   0  0  0  0  0  0  0  0  0  0  0  0
  147.7191  141.4288  153.8619 C   0  0  2  0  0  0  0  0  0  0  0  0
  149.1310  140.9963  154.3264 C   0  0  0  0  0  0  0  0  0  0  0  0
  149.7246  141.9361  155.2735 N   0  0  0  0  0  0  0  0  0  0  0  0
  150.5598  141.6033  156.2684 C   0  0  0  0  0  0  0  0  0  0  0  0
  150.9277  140.4480  156.4823 O   0  0  0  0  0  0  0  0  0  0  0  0
  150.9204  142.6813  156.9855 N   0  0  0  0  0  0  0  0  0  0  0  0
  151.6887  142.7342  158.1060 C   0  0  0  0  0  0  0  0  0  0  0  0
  152.1885  141.7042  158.8552 C   0  0  0  0  0  0  0  0  0  0  0  0
  152.8918  142.3835  159.8923 C   0  0  0  0  0  0  0  0  0  0  0  0
  153.6612  141.7851  161.0328 C   0  0  0  0  0  0  0  0  0  0  0  0
  152.8184  143.7049  159.7805 N   0  0  0  0  0  0  0  0  0  0  0  0
  152.0724  143.9271  158.6768 N   0  0  0  0  0  0  0  0  0  0  0  0
  151.7858  145.2846  158.2549 C   0  0  0  0  0  0  0  0  0  0  0  0
  146.7830  141.8916  155.0038 C   0  0  0  0  0  0  0  0  0  0  0  0
  144.7302  140.4139  158.8956 H   0  0  0  0  0  0  0  0  0  0  0  0
  146.2820  139.7015  158.4916 H   0  0  0  0  0  0  0  0  0  0  0  0
  144.8318  139.2206  157.6104 H   0  0  0  0  0  0  0  0  0  0  0  0
  144.5854  141.5322  156.7173 H   0  0  0  0  0  0  0  0  0  0  0  0
  146.0435  142.0530  157.5247 H   0  0  0  0  0  0  0  0  0  0  0  0
  145.3971  138.8749  155.7416 H   0  0  0  0  0  0  0  0  0  0  0  0
  144.7303  140.1101  154.6922 H   0  0  0  0  0  0  0  0  0  0  0  0
  147.3938  138.6386  154.3473 H   0  0  0  0  0  0  0  0  0  0  0  0
  145.9786  138.4591  153.3475 H   0  0  0  0  0  0  0  0  0  0  0  0
  147.6892  139.9477  152.2644 H   0  0  0  0  0  0  0  0  0  0  0  0
  146.1651  140.7571  152.5188 H   0  0  0  0  0  0  0  0  0  0  0  0
  147.8614  142.2830  153.1984 H   0  0  0  0  0  0  0  0  0  0  0  0
  149.1131  139.9895  154.7453 H   0  0  0  0  0  0  0  0  0  0  0  0
  149.7957  140.9451  153.4635 H   0  0  0  0  0  0  0  0  0  0  0  0
  149.4786  142.9094  155.1635 H   0  0  0  0  0  0  0  0  0  0  0  0
  150.5659  143.5706  156.6655 H   0  0  0  0  0  0  0  0  0  0  0  0
  152.0814  140.6404  158.7073 H   0  0  0  0  0  0  0  0  0  0  0  0
  153.6002  140.6966  161.0214 H   0  0  0  0  0  0  0  0  0  0  0  0
  153.2733  142.1284  161.9922 H   0  0  0  0  0  0  0  0  0  0  0  0
  154.7152  142.0581  160.9810 H   0  0  0  0  0  0  0  0  0  0  0  0
  150.7067  145.4362  158.2171 H   0  0  0  0  0  0  0  0  0  0  0  0
  152.2056  145.4560  157.2632 H   0  0  0  0  0  0  0  0  0  0  0  0
  152.2192  146.0035  158.9516 H   0  0  0  0  0  0  0  0  0  0  0  0
  145.8914  142.3519  154.5753 H   0  0  0  0  0  0  0  0  0  0  0  0
  147.2628  142.6724  155.5912 H   0  0  0  0  0  0  0  0  0  0  0  0
  147.2045  140.3339  156.2352 H   0  0  0  0  0  0  0  0  0  0  0  0
  1  2  1  0  0  0  0
  1 21  1  0  0  0  0
  1 22  1  0  0  0  0
  1 23  1  0  0  0  0
  2  3  1  0  0  0  0
  2 24  1  0  0  0  0
  2 25  1  0  0  0  0
  3 20  1  0  0  0  0
  3  4  1  0  0  0  0
  3 46  1  0  0  0  0
  4  5  1  0  0  0  0
  4 26  1  0  0  0  0
  4 27  1  0  0  0  0
  5  6  1  0  0  0  0
  5 28  1  0  0  0  0
  5 29  1  0  0  0  0
  6  7  1  0  0  0  0
  6 30  1  0  0  0  0
  6 31  1  0  0  0  0
  7  8  1  0  0  0  0
  7 20  1  0  0  0  0
  7 32  1  0  0  0  0
  8  9  1  0  0  0  0
  8 33  1  0  0  0  0
  8 34  1  0  0  0  0
  9 10  1  0  0  0  0
  9 35  1  0  0  0  0
 10 11  2  0  0  0  0
 10 12  1  0  0  0  0
 12 13  1  0  0  0  0
 12 36  1  0  0  0  0
 13 18  1  0  0  0  0
 13 14  2  0  0  0  0
 14 15  1  0  0  0  0
 14 37  1  0  0  0  0
 15 16  1  0  0  0  0
 15 17  2  0  0  0  0
 16 38  1  0  0  0  0
 16 39  1  0  0  0  0
 16 40  1  0  0  0  0
 17 18  1  0  0  0  0
 18 19  1  0  0  0  0
 19 41  1  0  0  0  0
 19 42  1  0  0  0  0
 19 43  1  0  0  0  0
 20 44  1  0  0  0  0
 20 45  1  0  0  0  0
M  CHG  1   3   1
M  END
> <s_m_source_file>
AV-unprocessed.smi

> <i_m_source_file_index>
1834

> <i_lp_mmshare_version>
43012

> <i_f3d_flags>
0

> <s_epik_input>
W0NIM11bQ0gyXU4xW0NIMl1bQ0gyXVtDSDJdW0NASF0oW0NIMl0xKVtDSDJdW05IXUMoPU8pW05IXWMyW2NIXWMoW0NIM10pbm4yW0NIM10=

> <s_epik_cmdline>
J2VwaWtfcHl0aG9uJywgJy1waCcsICc3LjAnLCAnLXRuJywgJzgnLCAnLW1hJywgJzIwMCcsICctbWV0YWxfYmluZGluZycsICctaW1hZScsICc8aW5maWxlLm1hZT4nLCAnLW9tYWUnLCAnPG91dGZpbGUubWFlPic=

> <r_lp_tautomer_probability>
1

> <r_epik_Ionization_Penalty>
0.000466842

> <r_epik_Ionization_Penalty_Charging>
0.000378984

> <r_epik_Ionization_Penalty_Neutral>
8.78572e-05

> <r_epik_State_Penalty>
0.000231434

> <r_epik_Charging_Adjusted_Penalty>
0.000610418

> <i_epik_Tot_Q>
1

> <i_epik_Tot_abs_Q>
1

> <r_epik_Metal_State_Penalty>
-0

> <b_epik_Metal_Only>
0

> <s_lp_Force_Field>
OPLS_2005

> <r_lp_Energy>
21.0152

> <b_lp_Chiralities_Consistent>
1

> <s_lp_Variant>
AV-unprocessed.smi:1834-3

> <Gold.Version>
5.8.1

> <Gold.Id.Protein>
6NUR|6NUR_protein|mol2

> <Gold.PLP.Fitness>
43.3806

> <Gold.PLP.PLP>
-38.0303

> <Gold.PLP.part.hbond>
-2.0000

> <Gold.PLP.part.metal>
0.0000

> <Gold.PLP.part.buried>
-2.5158

> <Gold.PLP.part.nonpolar>
-31.9879

> <Gold.PLP.part.repulsive>
0.2569

> <Gold.PLP.ligand.clash>
0.0000

> <Gold.PLP.ligand.torsion>
0.2906

> <Gold.PLP.Chemscore.Hbond>
1.9672

> <Gold.PLP.Chemscore.CHOScore>
0.0000

> <Gold.PLP.Chemscore.Metal>
0.0000

> <Gold.Chemscore.Hbonds>
donor molecule, donor type, donor heavy atom, donor atom, acceptor molecule, acceptor atom, score
      L1  H     9    35       P1  8028  1.00
      L1  H    12    36       P1  8028  0.43

> <Gold.PLP.Chemscore.Internal.Correction>
0.0299

> <Gold.Rescore>
     Score         DG    S(hbond)    S(metal)    S(lipo)     H(rot)  DE(clash)    DE(int)     intcor
     15.87     -17.45       1.93        0.00      78.35       1.43       0.04       1.54       ----

> <Gold.Chemscore.Fitness>
15.8688

> <Gold.Chemscore.DG>
-17.4500

> <Gold.Chemscore.ZeroCoef>
-5.4800

> <Gold.Chemscore.Hbond>
1.9346

> <Gold.Chemscore.Metal>
0.0000

> <Gold.Chemscore.Lipo>
78.3496

> <Gold.Chemscore.Internal_Hbond>
0.0000

> <Gold.Chemscore.DEClash>
0.0390

> <Gold.Chemscore.DEInternal>
1.5422

> <Gold.Chemscore.Rot>
1.4291

> <Gold.Chemscore.Internal.Correction>
   9.000000E+99

> <Gold.Chemscore.Hbonds>
donor molecule, donor type, donor heavy atom, donor atom, acceptor molecule, acceptor atom, score
      L1  H     9    35       P1  8028  0.98
      L1  H    12    36       P1  8028  0.41

> <Gold.Chemscore.Hbond.Weighted>
-6.4615

> <Gold.Chemscore.Metal.Weighted>
-0.0000

> <Gold.Chemscore.Lipo.Weighted>
-9.1669

> <Gold.Chemscore.Internal_Hbond.Weighted>
0.0000

> <Gold.Chemscore.DEClash.Weighted>
0.0390

> <Gold.Chemscore.DEInternal.Weighted>
1.5422

> <Gold.Chemscore.Rot.Weighted>
3.6584

> <Gold.Chemscore.Internal.Correction.Weighted>
   9.000000E+99

> <Gold.Protein.RotatedTorsions>
[ 6907 6896 6895 6894 ] final   47.40 input  -60.11 | X-H torsion
[ 7974 7965 7964 7962 ] final -178.27 input  175.53 | X-H torsion
[ 8008 7997 7996 7995 ] final -100.54 input   59.86 | X-H torsion
[ 10167 10162 10161 10158 ] final   65.95 input  -65.29 | X-H torsion
[ 10718 10713 10712 10709 ] final  -10.38 input   66.30 | X-H torsion
[ 10763 10752 10751 10750 ] final -170.56 input  -60.55 | X-H torsion
[ 11005 11000 10999 10996 ] final -138.44 input  -57.11 | X-H torsion

> <Gold.Protein.ActiveResidues>
 VAL166  LYS551  ARG553  GLY616  TRP617  ASP618  TYR619  PRO620  LYS621  CYS622 
 ASP623  PHE694  ASN695  SER759  ASP760  ASP761  ALA762  ILE779  LEU786  VAL792 
 PHE793  MET794  SER795  GLU796  ALA797  LYS798  CYS799  TRP800  GLU811  SER814 

> <Gold.Protein.RotatedAtoms>
  152.2677  134.7967  160.0419 H   0  0  0  0  0  0  0  0  0  0  0  0  # atno 6907 bound_to 6896
  151.8591  133.3448  159.3706 H   0  0  0  0  0  0  0  0  0  0  0  0  # atno 6908 bound_to 6896
  150.7140  134.5152  159.5671 H   0  0  0  0  0  0  0  0  0  0  0  0  # atno 6909 bound_to 6896
  144.7130  140.0894  143.6422 H   0  0  0  0  0  0  0  0  0  0  0  0  # atno 7974 bound_to 7965
  154.8300  140.0440  157.1470 H   0  0  0  0  0  0  0  0  0  0  0  0  # atno 8008 bound_to 7997
  154.9163  140.3020  155.5219 H   0  0  0  0  0  0  0  0  0  0  0  0  # atno 8009 bound_to 7997
  156.2986  140.2349  156.4208 H   0  0  0  0  0  0  0  0  0  0  0  0  # atno 8010 bound_to 7997
  140.1058  144.4863  150.7009 H   0  0  0  0  0  0  0  0  0  0  0  0  # atno 10167 bound_to 10162
  156.6743  130.5018  149.5990 H   0  0  0  0  0  0  0  0  0  0  0  0  # atno 10718 bound_to 10713
  154.6402  135.2897  155.0113 H   0  0  0  0  0  0  0  0  0  0  0  0  # atno 10763 bound_to 10752
  154.1242  135.6543  153.4913 H   0  0  0  0  0  0  0  0  0  0  0  0  # atno 10764 bound_to 10752
  153.0322  135.5295  154.7265 H   0  0  0  0  0  0  0  0  0  0  0  0  # atno 10765 bound_to 10752
  140.8615  134.2163  157.4704 H   0  0  0  0  0  0  0  0  0  0  0  0  # atno 11005 bound_to 11000
  145.9633  139.2816  143.1142 LP  0  0  0  0  0  0  0  0  0  0  0  0  # atno 17320 bound_to 7965
  145.9196  140.9124  143.0412 LP  0  0  0  0  0  0  0  0  0  0  0  0  # atno 17321 bound_to 7965
  140.6953  143.2400  151.5018 LP  0  0  0  0  0  0  0  0  0  0  0  0  # atno 17342 bound_to 10162
  139.5646  144.2073  152.1745 LP  0  0  0  0  0  0  0  0  0  0  0  0  # atno 17343 bound_to 10162
  156.1915  130.6563  151.1066 LP  0  0  0  0  0  0  0  0  0  0  0  0  # atno 17370 bound_to 10713
  157.7066  131.0753  150.6645 LP  0  0  0  0  0  0  0  0  0  0  0  0  # atno 17371 bound_to 10713
  139.8707  134.9732  156.4800 LP  0  0  0  0  0  0  0  0  0  0  0  0  # atno 17394 bound_to 11000
  140.8677  133.8012  155.9331 LP  0  0  0  0  0  0  0  0  0  0  0  0  # atno 17395 bound_to 11000

$$$$
