AV-unprocessed.smi:2750|AV-procd|sdf|10592|dock10
  -GOLD-   2272015 43D 1   1.00000     0.00000
 Structure written by MMmdl.
 24 25  0  0  0  0  0  0  0  0  3 V2000
  146.5463  137.1929  160.8765 O   0  0  0  0  0  0  0  0  0  0  0  0
  147.5198  136.4374  161.0908 C   0  0  0  0  0  0  0  0  0  0  0  0
  148.2585  136.4691  162.0994 O   0  5  0  0  0  0  0  0  0  0  0  0
  147.8312  135.3811  160.0304 C   0  0  0  0  0  0  0  0  0  0  0  0
  148.8285  135.8401  159.0812 N   0  0  0  0  0  0  0  0  0  0  0  0
  149.3130  137.1183  158.8944 C   0  0  0  0  0  0  0  0  0  0  0  0
  150.2203  136.9689  157.8848 C   0  0  0  0  0  0  0  0  0  0  0  0
  151.0786  138.0041  157.2220 C   0  0  0  0  0  0  0  0  0  0  0  0
  150.9190  138.0136  155.6887 C   0  0  1  0  0  0  0  0  0  0  0  0
  149.5505  138.2900  155.3060 N   0  0  0  0  0  0  0  0  0  0  0  0
  149.4703  139.3737  154.5371 C   0  0  0  0  0  0  0  0  0  0  0  0
  148.3966  139.7711  154.0906 O   0  0  0  0  0  0  0  0  0  0  0  0
  150.6936  139.9098  154.3618 N   0  5  0  0  0  0  0  0  0  0  0  0
  151.6299  139.1843  155.0111 C   0  0  0  0  0  0  0  0  0  0  0  0
  152.8459  139.3486  155.0946 O   0  0  0  0  0  0  0  0  0  0  0  0
  150.2513  135.6275  157.5049 N   0  0  0  0  0  0  0  0  0  0  0  0
  149.4124  134.9593  158.2328 N   0  0  0  0  0  0  0  0  0  0  0  0
  148.1798  134.4625  160.5051 H   0  0  0  0  0  0  0  0  0  0  0  0
  146.9198  135.1300  159.4862 H   0  0  0  0  0  0  0  0  0  0  0  0
  148.9861  137.9734  159.4673 H   0  0  0  0  0  0  0  0  0  0  0  0
  150.8530  138.9918  157.6273 H   0  0  0  0  0  0  0  0  0  0  0  0
  152.1233  137.8157  157.4724 H   0  0  0  0  0  0  0  0  0  0  0  0
  151.2515  137.0733  155.2464 H   0  0  0  0  0  0  0  0  0  0  0  0
  148.7685  137.7135  155.5795 H   0  0  0  0  0  0  0  0  0  0  0  0
  1  2  2  0  0  0  0
  2  3  1  0  0  0  0
  2  4  1  0  0  0  0
  4  5  1  0  0  0  0
  4 18  1  0  0  0  0
  4 19  1  0  0  0  0
  5 17  1  0  0  0  0
  5  6  1  0  0  0  0
  6  7  2  0  0  0  0
  6 20  1  0  0  0  0
  7  8  1  0  0  0  0
  7 16  1  0  0  0  0
  8  9  1  0  0  0  0
  8 21  1  0  0  0  0
  8 22  1  0  0  0  0
  9 14  1  0  0  0  0
  9 10  1  0  0  0  0
  9 23  1  0  0  0  0
 10 11  1  0  0  0  0
 10 24  1  0  0  0  0
 11 12  2  0  0  0  0
 11 13  1  0  0  0  0
 13 14  1  0  0  0  0
 14 15  2  0  0  0  0
 16 17  2  0  0  0  0
M  CHG  1   3  -1
M  CHG  1  13  -1
M  END
> <s_m_source_file>
AV-unprocessed.smi

> <i_m_source_file_index>
2750

> <i_lp_mmshare_version>
43012

> <i_f3d_flags>
0

> <s_epik_input>
Tz1DKFtPSF0pW0NIMl1uMVtjSF1jKG5uMSlbQ0gyXVtDQEBIXTJbTkhdQyg9TylbTkhdQzI9Tw==

> <s_epik_cmdline>
J2VwaWtfcHl0aG9uJywgJy1waCcsICc3LjAnLCAnLXRuJywgJzgnLCAnLW1hJywgJzIwMCcsICctbWV0YWxfYmluZGluZycsICctaW1hZScsICc8aW5maWxlLm1hZT4nLCAnLW9tYWUnLCAnPG91dGZpbGUubWFlPic=

> <r_lp_tautomer_probability>
1

> <r_epik_Ionization_Penalty>
2.03209

> <r_epik_Ionization_Penalty_Charging>
2.03208

> <r_epik_Ionization_Penalty_Neutral>
1.30912e-05

> <r_epik_State_Penalty>
2.16313

> <r_epik_Charging_Adjusted_Penalty>
4.19521

> <i_epik_Tot_Q>
-2

> <i_epik_Tot_abs_Q>
2

> <r_epik_Metal_State_Penalty>
0.529162

> <b_epik_Metal_Only>
0

> <s_lp_Force_Field>
OPLS_2005

> <r_lp_Energy>
6.41301

> <b_lp_Chiralities_Consistent>
1

> <s_lp_Variant>
AV-unprocessed.smi:2750-4

> <Gold.Version>
5.8.1

> <Gold.Id.Protein>
6NUR|6NUR_protein|mol2

> <Gold.PLP.Fitness>
43.6073

> <Gold.PLP.PLP>
-23.6983

> <Gold.PLP.part.hbond>
-6.5464

> <Gold.PLP.part.metal>
0.0000

> <Gold.PLP.part.buried>
-4.3771

> <Gold.PLP.part.nonpolar>
-13.4370

> <Gold.PLP.part.repulsive>
0.2596

> <Gold.PLP.ligand.clash>
0.0000

> <Gold.PLP.ligand.torsion>
0.5543

> <Gold.PLP.Chemscore.Hbond>
7.0000

> <Gold.PLP.Chemscore.CHOScore>
0.0000

> <Gold.PLP.Chemscore.Metal>
0.0000

> <Gold.Chemscore.Hbonds>
donor molecule, donor type, donor heavy atom, donor atom, acceptor molecule, acceptor atom, score
      P1  H  6896  6908       L1    17  0.60
      P1  H  6931  6943       L1     3  2.00
      P1  H  6934  6947       L1     1  2.00
      P1  H  7989  7998       L1    13  1.00
      P1  H  7997  8008       L1    15  1.00

> <Gold.PLP.Chemscore.Internal.Correction>
0.0176

> <Gold.Rescore>
     Score         DG    S(hbond)    S(metal)    S(lipo)     H(rot)  DE(clash)    DE(int)     intcor
     10.24     -10.76       2.98        0.00      21.26       2.80       0.00       0.52       ----

> <Gold.Chemscore.Fitness>
10.2368

> <Gold.Chemscore.DG>
-10.7564

> <Gold.Chemscore.ZeroCoef>
-5.4800

> <Gold.Chemscore.Hbond>
2.9791

> <Gold.Chemscore.Metal>
0.0000

> <Gold.Chemscore.Lipo>
21.2579

> <Gold.Chemscore.Internal_Hbond>
0.0000

> <Gold.Chemscore.DEClash>
0.0000

> <Gold.Chemscore.DEInternal>
0.5196

> <Gold.Chemscore.Rot>
2.7973

> <Gold.Chemscore.Internal.Correction>
   9.000000E+99

> <Gold.Chemscore.Hbonds>
donor molecule, donor type, donor heavy atom, donor atom, acceptor molecule, acceptor atom, score
      P1  H  6896  6908       L1    17  0.01
      P1  H  6931  6943       L1     3  0.30
      P1  H  6934  6947       L1     1  0.70
      P1  H  7989  7998       L1    13  0.25
      P1  H  7997  8008       L1    15  0.97

> <Gold.Chemscore.Hbond.Weighted>
-9.9503

> <Gold.Chemscore.Metal.Weighted>
-0.0000

> <Gold.Chemscore.Lipo.Weighted>
-2.4872

> <Gold.Chemscore.Internal_Hbond.Weighted>
0.0000

> <Gold.Chemscore.DEClash.Weighted>
0.0000

> <Gold.Chemscore.DEInternal.Weighted>
0.5196

> <Gold.Chemscore.Rot.Weighted>
7.1611

> <Gold.Chemscore.Internal.Correction.Weighted>
   9.000000E+99

> <Gold.Protein.RotatedTorsions>
[ 6907 6896 6895 6894 ] final  155.17 input  -60.11 | X-H torsion
[ 7974 7965 7964 7962 ] final -163.54 input  175.53 | X-H torsion
[ 8008 7997 7996 7995 ] final  -25.60 input   59.86 | X-H torsion
[ 10167 10162 10161 10158 ] final -105.88 input  -65.29 | X-H torsion
[ 10718 10713 10712 10709 ] final   66.34 input   66.30 | X-H torsion
[ 10763 10752 10751 10750 ] final  -66.60 input  -60.55 | X-H torsion
[ 11005 11000 10999 10996 ] final -102.58 input  -57.11 | X-H torsion

> <Gold.Protein.ActiveResidues>
 VAL166  LYS551  ARG553  GLY616  TRP617  ASP618  TYR619  PRO620  LYS621  CYS622 
 ASP623  PHE694  ASN695  SER759  ASP760  ASP761  ALA762  ILE779  LEU786  VAL792 
 PHE793  MET794  SER795  GLU796  ALA797  LYS798  CYS799  TRP800  GLU811  SER814 

> <Gold.Protein.RotatedAtoms>
  152.0479  133.4006  159.4364 H   0  0  0  0  0  0  0  0  0  0  0  0  # atno 6907 bound_to 6896
  150.6872  134.3340  159.4849 H   0  0  0  0  0  0  0  0  0  0  0  0  # atno 6908 bound_to 6896
  152.1147  134.9249  160.0616 H   0  0  0  0  0  0  0  0  0  0  0  0  # atno 6909 bound_to 6896
  144.7323  140.3092  143.6191 H   0  0  0  0  0  0  0  0  0  0  0  0  # atno 7974 bound_to 7965
  154.4468  140.1922  156.0644 H   0  0  0  0  0  0  0  0  0  0  0  0  # atno 8008 bound_to 7997
  156.0558  140.3303  155.7377 H   0  0  0  0  0  0  0  0  0  0  0  0  # atno 8009 bound_to 7997
  155.5487  140.0593  157.2845 H   0  0  0  0  0  0  0  0  0  0  0  0  # atno 8010 bound_to 7997
  140.1937  143.3872  152.1185 H   0  0  0  0  0  0  0  0  0  0  0  0  # atno 10167 bound_to 10162
  157.6163  130.9263  150.0096 H   0  0  0  0  0  0  0  0  0  0  0  0  # atno 10718 bound_to 10713
  154.3622  135.6113  153.5696 H   0  0  0  0  0  0  0  0  0  0  0  0  # atno 10763 bound_to 10752
  152.9793  135.5818  154.4620 H   0  0  0  0  0  0  0  0  0  0  0  0  # atno 10764 bound_to 10752
  154.4359  135.2849  155.1858 H   0  0  0  0  0  0  0  0  0  0  0  0  # atno 10765 bound_to 10752
  141.1183  133.8570  157.1377 H   0  0  0  0  0  0  0  0  0  0  0  0  # atno 11005 bound_to 11000
  145.7682  139.1848  143.2228 LP  0  0  0  0  0  0  0  0  0  0  0  0  # atno 17320 bound_to 7965
  146.0932  140.7631  142.9585 LP  0  0  0  0  0  0  0  0  0  0  0  0  # atno 17321 bound_to 7965
  139.5245  144.7085  151.5281 LP  0  0  0  0  0  0  0  0  0  0  0  0  # atno 17342 bound_to 10162
  140.6438  143.8836  150.6717 LP  0  0  0  0  0  0  0  0  0  0  0  0  # atno 17343 bound_to 10162
  156.1287  130.3644  149.9767 LP  0  0  0  0  0  0  0  0  0  0  0  0  # atno 17370 bound_to 10713
  156.7833  130.9229  151.3646 LP  0  0  0  0  0  0  0  0  0  0  0  0  # atno 17371 bound_to 10713
  140.0121  134.9983  157.0417 LP  0  0  0  0  0  0  0  0  0  0  0  0  # atno 17394 bound_to 11000
  140.4582  134.1512  155.7188 LP  0  0  0  0  0  0  0  0  0  0  0  0  # atno 17395 bound_to 11000

$$$$
