AV-unprocessed.smi:2027|AV-procd|sdf|8219|dock2
  -GOLD-   2272010483D 1   1.00000     0.00000
 Structure written by MMmdl.
 51 53  0  0  0  0  0  0  0  0  3 V2000
  152.5297  143.6633  159.6169 C   0  0  0  0  0  0  0  0  0  0  0  0
  152.1186  142.6404  158.5718 C   0  0  0  0  0  0  0  0  0  0  0  0
  151.1606  143.0141  157.6031 C   0  0  0  0  0  0  0  0  0  0  0  0
  150.8065  142.0579  156.6591 C   0  0  0  0  0  0  0  0  0  0  0  0
  149.9083  142.1185  155.5923 N   0  3  0  0  0  0  0  0  0  0  0  0
  149.8987  140.9249  154.9380 C   0  0  0  0  0  0  0  0  0  0  0  0
  150.7735  140.0982  155.5747 N   0  0  0  0  0  0  0  0  0  0  0  0
  151.1417  138.7060  155.2648 C   0  0  0  0  0  0  0  0  0  0  0  0
  149.9986  137.6907  155.4838 C   0  0  2  0  0  0  0  0  0  0  0  0
  149.7383  137.5821  156.8701 O   0  0  0  0  0  0  0  0  0  0  0  0
  150.3016  136.2839  154.9241 C   0  0  0  0  0  0  0  0  0  0  0  0
  149.1039  135.6006  154.3670 N   0  3  2  0  0  0  0  0  0  0  0  0
  147.8671  135.9854  155.0841 C   0  0  0  0  0  0  0  0  0  0  0  0
  149.2406  134.1263  154.2276 C   0  0  0  0  0  0  0  0  0  0  0  0
  148.0711  133.5599  153.4696 C   0  0  0  0  0  0  0  0  0  0  0  0
  146.7075  133.4934  153.8772 C   0  0  0  0  0  0  0  0  0  0  0  0
  145.9271  132.9236  152.9747 N   0  0  0  0  0  0  0  0  0  0  0  0
  146.7573  132.6180  151.9571 N   0  0  0  0  0  0  0  0  0  0  0  0
  146.2290  131.9701  150.7757 C   0  0  0  0  0  0  0  0  0  0  0  0
  148.0556  132.9939  152.2254 C   0  0  0  0  0  0  0  0  0  0  0  0
  151.3682  140.7656  156.6537 C   0  0  0  0  0  0  0  0  0  0  0  0
  152.3130  140.3816  157.6035 C   0  0  0  0  0  0  0  0  0  0  0  0
  152.6864  141.3401  158.5726 C   0  0  0  0  0  0  0  0  0  0  0  0
  153.7155  140.9489  159.6198 C   0  0  0  0  0  0  0  0  0  0  0  0
  152.0430  144.6242  159.4477 H   0  0  0  0  0  0  0  0  0  0  0  0
  153.6072  143.8279  159.5906 H   0  0  0  0  0  0  0  0  0  0  0  0
  152.2552  143.3211  160.6149 H   0  0  0  0  0  0  0  0  0  0  0  0
  150.7239  144.0025  157.5967 H   0  0  0  0  0  0  0  0  0  0  0  0
  149.3027  140.6781  154.0711 H   0  0  0  0  0  0  0  0  0  0  0  0
  151.4605  138.6847  154.2216 H   0  0  0  0  0  0  0  0  0  0  0  0
  152.0196  138.4271  155.8469 H   0  0  0  0  0  0  0  0  0  0  0  0
  149.1086  138.0956  155.0053 H   0  0  0  0  0  0  0  0  0  0  0  0
  149.1020  138.2394  157.1093 H   0  0  0  0  0  0  0  0  0  0  0  0
  151.0717  136.3405  154.1534 H   0  0  0  0  0  0  0  0  0  0  0  0
  150.7139  135.6677  155.7243 H   0  0  0  0  0  0  0  0  0  0  0  0
  147.8905  135.6365  156.1174 H   0  0  0  0  0  0  0  0  0  0  0  0
  146.9905  135.5580  154.5958 H   0  0  0  0  0  0  0  0  0  0  0  0
  147.7413  137.0687  155.0906 H   0  0  0  0  0  0  0  0  0  0  0  0
  150.1862  133.8776  153.7438 H   0  0  0  0  0  0  0  0  0  0  0  0
  149.2991  133.6577  155.2110 H   0  0  0  0  0  0  0  0  0  0  0  0
  146.2643  133.8357  154.8007 H   0  0  0  0  0  0  0  0  0  0  0  0
  146.9878  131.9421  149.9936 H   0  0  0  0  0  0  0  0  0  0  0  0
  145.3616  132.5186  150.4073 H   0  0  0  0  0  0  0  0  0  0  0  0
  145.9312  130.9498  151.0184 H   0  0  0  0  0  0  0  0  0  0  0  0
  148.8547  132.8242  151.5186 H   0  0  0  0  0  0  0  0  0  0  0  0
  152.7504  139.3947  157.6081 H   0  0  0  0  0  0  0  0  0  0  0  0
  154.0115  139.9043  159.5188 H   0  0  0  0  0  0  0  0  0  0  0  0
  153.3131  141.0839  160.6241 H   0  0  0  0  0  0  0  0  0  0  0  0
  154.6123  141.5610  159.5206 H   0  0  0  0  0  0  0  0  0  0  0  0
  148.9928  135.9599  153.4292 H   0  0  0  0  0  0  0  0  0  0  0  0
  149.3451  142.9162  155.3252 H   0  0  0  0  0  0  0  0  0  0  0  0
  1  2  1  0  0  0  0
  1 25  1  0  0  0  0
  1 26  1  0  0  0  0
  1 27  1  0  0  0  0
  2 23  1  0  0  0  0
  2  3  2  0  0  0  0
  3  4  1  0  0  0  0
  3 28  1  0  0  0  0
  4 21  2  0  0  0  0
  4  5  1  0  0  0  0
  5  6  2  0  0  0  0
  5 51  1  0  0  0  0
  6  7  1  0  0  0  0
  6 29  1  0  0  0  0
  7  8  1  0  0  0  0
  7 21  1  0  0  0  0
  8  9  1  0  0  0  0
  8 30  1  0  0  0  0
  8 31  1  0  0  0  0
  9 10  1  0  0  0  0
  9 11  1  0  0  0  0
  9 32  1  0  0  0  0
 10 33  1  0  0  0  0
 11 12  1  0  0  0  0
 11 34  1  0  0  0  0
 11 35  1  0  0  0  0
 12 13  1  0  0  0  0
 12 14  1  0  0  0  0
 12 50  1  0  0  0  0
 13 36  1  0  0  0  0
 13 37  1  0  0  0  0
 13 38  1  0  0  0  0
 14 15  1  0  0  0  0
 14 39  1  0  0  0  0
 14 40  1  0  0  0  0
 15 20  2  0  0  0  0
 15 16  1  0  0  0  0
 16 17  2  0  0  0  0
 16 41  1  0  0  0  0
 17 18  1  0  0  0  0
 18 19  1  0  0  0  0
 18 20  1  0  0  0  0
 19 42  1  0  0  0  0
 19 43  1  0  0  0  0
 19 44  1  0  0  0  0
 20 45  1  0  0  0  0
 21 22  1  0  0  0  0
 22 23  2  0  0  0  0
 22 46  1  0  0  0  0
 23 24  1  0  0  0  0
 24 47  1  0  0  0  0
 24 48  1  0  0  0  0
 24 49  1  0  0  0  0
M  CHG  1   5   1
M  CHG  1  12   1
M  END
> <s_m_source_file>
AV-unprocessed.smi

> <i_m_source_file_index>
2027

> <i_lp_mmshare_version>
43012

> <i_f3d_flags>
0

> <s_epik_input>
W0NIM11jKFtjSF0xKWMoW0NIM10pW2NIXWMoYzEyKW4oW2NIXW4yKVtDSDJdW0NASF0oW09IXSlbQ0gyXU4oW0NIM10pW0NIMl1jM1tjSF1ubihbQ0gzXSlbY0hdMw==

> <s_epik_cmdline>
J2VwaWtfcHl0aG9uJywgJy1waCcsICc3LjAnLCAnLXRuJywgJzgnLCAnLW1hJywgJzIwMCcsICctbWV0YWxfYmluZGluZycsICctaW1hZScsICc8aW5maWxlLm1hZT4nLCAnLW9tYWUnLCAnPG91dGZpbGUubWFlPic=

> <r_lp_tautomer_probability>
1

> <r_epik_Ionization_Penalty>
1.77469

> <r_epik_Ionization_Penalty_Charging>
1.77463

> <r_epik_Ionization_Penalty_Neutral>
6.41153e-05

> <r_epik_State_Penalty>
1.85225

> <r_epik_Charging_Adjusted_Penalty>
3.62688

> <i_epik_Tot_Q>
2

> <i_epik_Tot_abs_Q>
2

> <r_epik_Metal_State_Penalty>
1.92669

> <b_epik_Metal_Only>
0

> <s_lp_Force_Field>
OPLS_2005

> <r_lp_Energy>
22.3184

> <b_lp_Chiralities_Consistent>
1

> <s_lp_Variant>
AV-unprocessed.smi:2027-11

> <Gold.Version>
5.8.1

> <Gold.Id.Protein>
6NUR|6NUR_protein|mol2

> <Gold.PLP.Fitness>
56.2026

> <Gold.PLP.PLP>
-42.7912

> <Gold.PLP.part.hbond>
-2.0000

> <Gold.PLP.part.metal>
0.0000

> <Gold.PLP.part.buried>
-3.6179

> <Gold.PLP.part.nonpolar>
-38.3988

> <Gold.PLP.part.repulsive>
0.2705

> <Gold.PLP.ligand.clash>
0.0000

> <Gold.PLP.ligand.torsion>
0.8840

> <Gold.PLP.Chemscore.Hbond>
3.9840

> <Gold.PLP.Chemscore.CHOScore>
1.0000

> <Gold.PLP.Chemscore.Metal>
0.0000

> <Gold.Chemscore.Hbonds>
donor molecule, donor type, donor heavy atom, donor atom, acceptor molecule, acceptor atom, score
      L1  H     5    51       P1  8028  1.92
      L1  H    12    50       P1  7948  2.00
      L1  C    20    45       P1 10747  0.85

> <Gold.PLP.Chemscore.Internal.Correction>
0.2273

> <Gold.Rescore>
     Score         DG    S(hbond)    S(metal)    S(lipo)     H(rot)  DE(clash)    DE(int)     intcor
     17.10     -19.04       1.97        0.00     116.25       2.58       0.15       1.79       ----

> <Gold.Chemscore.Fitness>
17.1028

> <Gold.Chemscore.DG>
-19.0371

> <Gold.Chemscore.ZeroCoef>
-5.4800

> <Gold.Chemscore.Hbond>
1.9670

> <Gold.Chemscore.Metal>
0.0000

> <Gold.Chemscore.Lipo>
116.2494

> <Gold.Chemscore.Internal_Hbond>
0.0000

> <Gold.Chemscore.DEClash>
0.1475

> <Gold.Chemscore.DEInternal>
1.7868

> <Gold.Chemscore.Rot>
2.5836

> <Gold.Chemscore.Internal.Correction>
   9.000000E+99

> <Gold.Chemscore.Hbonds>
donor molecule, donor type, donor heavy atom, donor atom, acceptor molecule, acceptor atom, score
      L1  H     5    51       P1  8028  0.92
      L1  H    12    50       P1  7948  0.91

> <Gold.Chemscore.Hbond.Weighted>
-6.5698

> <Gold.Chemscore.Metal.Weighted>
-0.0000

> <Gold.Chemscore.Lipo.Weighted>
-13.6012

> <Gold.Chemscore.Internal_Hbond.Weighted>
0.0000

> <Gold.Chemscore.DEClash.Weighted>
0.1475

> <Gold.Chemscore.DEInternal.Weighted>
1.7868

> <Gold.Chemscore.Rot.Weighted>
6.6139

> <Gold.Chemscore.Internal.Correction.Weighted>
   9.000000E+99

> <Gold.Protein.RotatedTorsions>
[ 6907 6896 6895 6894 ] final   13.45 input  -60.11 | X-H torsion
[ 7974 7965 7964 7962 ] final   42.62 input  175.53 | X-H torsion
[ 8008 7997 7996 7995 ] final    3.70 input   59.86 | X-H torsion
[ 10167 10162 10161 10158 ] final   67.35 input  -65.29 | X-H torsion
[ 10718 10713 10712 10709 ] final   87.13 input   66.30 | X-H torsion
[ 10763 10752 10751 10750 ] final  104.65 input  -60.55 | X-H torsion
[ 11005 11000 10999 10996 ] final   98.33 input  -57.11 | X-H torsion

> <Gold.Protein.ActiveResidues>
 VAL166  LYS551  ARG553  GLY616  TRP617  ASP618  TYR619  PRO620  LYS621  CYS622 
 ASP623  PHE694  ASN695  SER759  ASP760  ASP761  ALA762  ILE779  LEU786  VAL792 
 PHE793  MET794  SER795  GLU796  ALA797  LYS798  CYS799  TRP800  GLU811  SER814 

> <Gold.Protein.RotatedAtoms>
  151.7865  135.0747  160.0380 H   0  0  0  0  0  0  0  0  0  0  0  0  # atno 6907 bound_to 6896
  152.3187  133.5825  159.5738 H   0  0  0  0  0  0  0  0  0  0  0  0  # atno 6908 bound_to 6896
  150.7358  133.9960  159.3664 H   0  0  0  0  0  0  0  0  0  0  0  0  # atno 6909 bound_to 6896
  146.0725  139.5280  142.9589 H   0  0  0  0  0  0  0  0  0  0  0  0  # atno 7974 bound_to 7965
  154.7069  140.2684  155.6666 H   0  0  0  0  0  0  0  0  0  0  0  0  # atno 8008 bound_to 7997
  156.2783  140.2761  156.1622 H   0  0  0  0  0  0  0  0  0  0  0  0  # atno 8009 bound_to 7997
  155.0688  140.0372  157.2591 H   0  0  0  0  0  0  0  0  0  0  0  0  # atno 8010 bound_to 7997
  140.0905  144.4992  150.7102 H   0  0  0  0  0  0  0  0  0  0  0  0  # atno 10167 bound_to 10162
  157.6937  131.0243  150.3077 H   0  0  0  0  0  0  0  0  0  0  0  0  # atno 10718 bound_to 10713
  153.3688  135.3936  155.1773 H   0  0  0  0  0  0  0  0  0  0  0  0  # atno 10763 bound_to 10752
  154.8691  135.3697  154.5004 H   0  0  0  0  0  0  0  0  0  0  0  0  # atno 10764 bound_to 10752
  153.5470  135.7083  153.5670 H   0  0  0  0  0  0  0  0  0  0  0  0  # atno 10765 bound_to 10752
  139.8773  134.9044  156.4440 H   0  0  0  0  0  0  0  0  0  0  0  0  # atno 11005 bound_to 11000
  145.6366  141.0293  143.1834 LP  0  0  0  0  0  0  0  0  0  0  0  0  # atno 17320 bound_to 7965
  144.7240  139.7934  143.7371 LP  0  0  0  0  0  0  0  0  0  0  0  0  # atno 17321 bound_to 7965
  140.7031  143.2448  151.4807 LP  0  0  0  0  0  0  0  0  0  0  0  0  # atno 17342 bound_to 10162
  139.5727  144.1890  152.1860 LP  0  0  0  0  0  0  0  0  0  0  0  0  # atno 17343 bound_to 10162
  156.3583  130.3842  149.7272 LP  0  0  0  0  0  0  0  0  0  0  0  0  # atno 17370 bound_to 10713
  156.4727  130.8004  151.3021 LP  0  0  0  0  0  0  0  0  0  0  0  0  # atno 17371 bound_to 10713
  140.8979  133.7800  155.9647 LP  0  0  0  0  0  0  0  0  0  0  0  0  # atno 17394 bound_to 11000
  140.8682  134.2758  157.5203 LP  0  0  0  0  0  0  0  0  0  0  0  0  # atno 17395 bound_to 11000

$$$$
