AV-unprocessed.smi:2198|AV-procd|sdf|8922|dock4
  -GOLD-   2272012143D 1   1.00000     0.00000
 Structure written by MMmdl.
 42 43  0  0  0  0  0  0  0  0  2 V2000
  154.7629  140.6116  161.2678 C   0  0  0  0  0  0  0  0  0  0  0  0
  153.7526  141.1503  160.2773 C   0  0  0  0  0  0  0  0  0  0  0  0
  153.4771  142.3986  160.2819 N   0  0  0  0  0  0  0  0  0  0  0  0
  152.5372  142.9032  159.3673 C   0  0  0  0  0  0  0  0  0  0  0  0
  152.2696  144.3960  159.4510 C   0  0  0  0  0  0  0  0  0  0  0  0
  151.9153  142.0850  158.4699 C   0  0  0  0  0  0  0  0  0  0  0  0
  150.8810  142.5824  157.4608 C   0  0  0  0  0  0  0  0  0  0  0  0
  149.5734  141.7903  157.4190 C   0  0  0  0  0  0  0  0  0  0  0  0
  149.4410  140.7812  158.1110 O   0  0  0  0  0  0  0  0  0  0  0  0
  148.6167  142.2572  156.6021 N   0  0  0  0  0  0  0  0  0  0  0  0
  147.2997  141.6555  156.4032 C   0  0  1  0  0  0  0  0  0  0  0  0
  146.3807  142.5746  155.5710 C   0  0  0  0  0  0  0  0  0  0  0  0
  146.8311  142.6657  154.1034 C   0  0  0  0  0  0  0  0  0  0  0  0
  146.9425  141.2718  153.4665 C   0  0  0  0  0  0  0  0  0  0  0  0
  147.8887  140.3565  154.2668 C   0  0  2  0  0  0  0  0  0  0  0  0
  147.9914  138.9635  153.6295 C   0  0  0  0  0  0  0  0  0  0  0  0
  147.4404  140.2699  155.7415 C   0  0  0  0  0  0  0  0  0  0  0  0
  152.2675  140.6534  158.4922 C   0  0  0  0  0  0  0  0  0  0  0  0
  151.7489  139.8729  157.6950 O   0  0  0  0  0  0  0  0  0  0  0  0
  153.1801  140.2405  159.4174 N   0  5  0  0  0  0  0  0  0  0  0  0
  155.2906  141.4227  161.7712 H   0  0  0  0  0  0  0  0  0  0  0  0
  155.5009  139.9898  160.7598 H   0  0  0  0  0  0  0  0  0  0  0  0
  154.2622  140.0063  162.0237 H   0  0  0  0  0  0  0  0  0  0  0  0
  151.2145  144.5885  159.6454 H   0  0  0  0  0  0  0  0  0  0  0  0
  152.5497  144.8880  158.5198 H   0  0  0  0  0  0  0  0  0  0  0  0
  152.8450  144.8551  160.2557 H   0  0  0  0  0  0  0  0  0  0  0  0
  150.6370  143.6298  157.6404 H   0  0  0  0  0  0  0  0  0  0  0  0
  151.3358  142.5792  156.4698 H   0  0  0  0  0  0  0  0  0  0  0  0
  148.8173  143.0930  156.0724 H   0  0  0  0  0  0  0  0  0  0  0  0
  146.8455  141.5085  157.3848 H   0  0  0  0  0  0  0  0  0  0  0  0
  145.3626  142.1850  155.6059 H   0  0  0  0  0  0  0  0  0  0  0  0
  146.3359  143.5717  156.0108 H   0  0  0  0  0  0  0  0  0  0  0  0
  146.1267  143.2762  153.5379 H   0  0  0  0  0  0  0  0  0  0  0  0
  147.7942  143.1739  154.0439 H   0  0  0  0  0  0  0  0  0  0  0  0
  145.9515  140.8191  153.4101 H   0  0  0  0  0  0  0  0  0  0  0  0
  147.2966  141.3679  152.4395 H   0  0  0  0  0  0  0  0  0  0  0  0
  148.8854  140.7993  154.2397 H   0  0  0  0  0  0  0  0  0  0  0  0
  147.0240  138.4603  153.6171 H   0  0  0  0  0  0  0  0  0  0  0  0
  148.6890  138.3306  154.1784 H   0  0  0  0  0  0  0  0  0  0  0  0
  148.3463  139.0280  152.6005 H   0  0  0  0  0  0  0  0  0  0  0  0
  148.1405  139.6573  156.3116 H   0  0  0  0  0  0  0  0  0  0  0  0
  146.4796  139.7557  155.7935 H   0  0  0  0  0  0  0  0  0  0  0  0
  1  2  1  0  0  0  0
  1 21  1  0  0  0  0
  1 22  1  0  0  0  0
  1 23  1  0  0  0  0
  2 20  1  0  0  0  0
  2  3  2  0  0  0  0
  3  4  1  0  0  0  0
  4  5  1  0  0  0  0
  4  6  2  0  0  0  0
  5 24  1  0  0  0  0
  5 25  1  0  0  0  0
  5 26  1  0  0  0  0
  6  7  1  0  0  0  0
  6 18  1  0  0  0  0
  7  8  1  0  0  0  0
  7 27  1  0  0  0  0
  7 28  1  0  0  0  0
  8  9  2  0  0  0  0
  8 10  1  0  0  0  0
 10 11  1  0  0  0  0
 10 29  1  0  0  0  0
 11 17  1  0  0  0  0
 11 12  1  0  0  0  0
 11 30  1  0  0  0  0
 12 13  1  0  0  0  0
 12 31  1  0  0  0  0
 12 32  1  0  0  0  0
 13 14  1  0  0  0  0
 13 33  1  0  0  0  0
 13 34  1  0  0  0  0
 14 15  1  0  0  0  0
 14 35  1  0  0  0  0
 14 36  1  0  0  0  0
 15 16  1  0  0  0  0
 15 17  1  0  0  0  0
 15 37  1  0  0  0  0
 16 38  1  0  0  0  0
 16 39  1  0  0  0  0
 16 40  1  0  0  0  0
 17 41  1  0  0  0  0
 17 42  1  0  0  0  0
 18 19  2  0  0  0  0
 18 20  1  0  0  0  0
M  CHG  1  20  -1
M  END
> <s_m_source_file>
AV-unprocessed.smi

> <i_m_source_file_index>
2198

> <i_lp_mmshare_version>
43012

> <i_f3d_flags>
0

> <s_epik_input>
W0NIM11jMW5jKFtDSDNdKWMoYyg9TylbbkhdMSlbQ0gyXUMoPU8pW05IXVtDQEBIXTJbQ0gyXVtDSDJdW0NIMl1bQ0BASF0oW0NIM10pW0NIMl0y

> <s_epik_cmdline>
J2VwaWtfcHl0aG9uJywgJy1waCcsICc3LjAnLCAnLXRuJywgJzgnLCAnLW1hJywgJzIwMCcsICctbWV0YWxfYmluZGluZycsICctaW1hZScsICc8aW5maWxlLm1hZT4nLCAnLW9tYWUnLCAnPG91dGZpbGUubWFlPic=

> <r_lp_tautomer_probability>
0.839158

> <r_epik_Ionization_Penalty>
6.67193

> <r_epik_Ionization_Penalty_Charging>
7.66837e-08

> <r_epik_Ionization_Penalty_Neutral>
6.67193

> <r_epik_State_Penalty>
4.51643

> <r_epik_Charging_Adjusted_Penalty>
4.51643

> <i_epik_Tot_Q>
-1

> <i_epik_Tot_abs_Q>
1

> <r_epik_Metal_State_Penalty>
0.851582

> <b_epik_Metal_Only>
1

> <s_lp_Force_Field>
OPLS_2005

> <r_lp_Energy>
13.9181

> <b_lp_Chiralities_Consistent>
1

> <s_lp_Variant>
AV-unprocessed.smi:2198-12

> <Gold.Version>
5.8.1

> <Gold.Id.Protein>
6NUR|6NUR_protein|mol2

> <Gold.PLP.Fitness>
39.5371

> <Gold.PLP.PLP>
-36.8530

> <Gold.PLP.part.hbond>
-1.0000

> <Gold.PLP.part.metal>
0.0000

> <Gold.PLP.part.buried>
-5.2218

> <Gold.PLP.part.nonpolar>
-30.6113

> <Gold.PLP.part.repulsive>
0.0270

> <Gold.PLP.ligand.clash>
0.0000

> <Gold.PLP.ligand.torsion>
0.1616

> <Gold.PLP.Chemscore.Hbond>
1.0000

> <Gold.PLP.Chemscore.CHOScore>
0.0000

> <Gold.PLP.Chemscore.Metal>
0.0000

> <Gold.Chemscore.Hbonds>
donor molecule, donor type, donor heavy atom, donor atom, acceptor molecule, acceptor atom, score
      L1  H    10    29       P1  8028  1.00

> <Gold.PLP.Chemscore.Internal.Correction>
0.0073

> <Gold.Rescore>
     Score         DG    S(hbond)    S(metal)    S(lipo)     H(rot)  DE(clash)    DE(int)     intcor
     14.64     -14.76       0.98        0.00      83.04       1.45       0.00       0.12       ----

> <Gold.Chemscore.Fitness>
14.6386

> <Gold.Chemscore.DG>
-14.7642

> <Gold.Chemscore.ZeroCoef>
-5.4800

> <Gold.Chemscore.Hbond>
0.9783

> <Gold.Chemscore.Metal>
0.0000

> <Gold.Chemscore.Lipo>
83.0418

> <Gold.Chemscore.Internal_Hbond>
0.0000

> <Gold.Chemscore.DEClash>
0.0048

> <Gold.Chemscore.DEInternal>
0.1207

> <Gold.Chemscore.Rot>
1.4450

> <Gold.Chemscore.Internal.Correction>
   9.000000E+99

> <Gold.Chemscore.Hbonds>
donor molecule, donor type, donor heavy atom, donor atom, acceptor molecule, acceptor atom, score
      L1  H    10    29       P1  8028  0.99

> <Gold.Chemscore.Hbond.Weighted>
-3.2675

> <Gold.Chemscore.Metal.Weighted>
-0.0000

> <Gold.Chemscore.Lipo.Weighted>
-9.7159

> <Gold.Chemscore.Internal_Hbond.Weighted>
0.0000

> <Gold.Chemscore.DEClash.Weighted>
0.0048

> <Gold.Chemscore.DEInternal.Weighted>
0.1207

> <Gold.Chemscore.Rot.Weighted>
3.6992

> <Gold.Chemscore.Internal.Correction.Weighted>
   9.000000E+99

> <Gold.Protein.RotatedTorsions>
[ 6907 6896 6895 6894 ] final  -47.31 input  -60.11 | X-H torsion
[ 7974 7965 7964 7962 ] final  -30.78 input  175.53 | X-H torsion
[ 8008 7997 7996 7995 ] final   59.82 input   59.86 | X-H torsion
[ 10167 10162 10161 10158 ] final    2.24 input  -65.29 | X-H torsion
[ 10718 10713 10712 10709 ] final    6.96 input   66.30 | X-H torsion
[ 10763 10752 10751 10750 ] final -139.82 input  -60.55 | X-H torsion
[ 11005 11000 10999 10996 ] final  157.42 input  -57.11 | X-H torsion

> <Gold.Protein.ActiveResidues>
 VAL166  LYS551  ARG553  GLY616  TRP617  ASP618  TYR619  PRO620  LYS621  CYS622 
 ASP623  PHE694  ASN695  SER759  ASP760  ASP761  ALA762  ILE779  LEU786  VAL792 
 PHE793  MET794  SER795  GLU796  ALA797  LYS798  CYS799  TRP800  GLU811  SER814 

> <Gold.Protein.RotatedAtoms>
  150.9021  134.8434  159.7366 H   0  0  0  0  0  0  0  0  0  0  0  0  # atno 6907 bound_to 6896
  152.4898  134.4487  159.9577 H   0  0  0  0  0  0  0  0  0  0  0  0  # atno 6908 bound_to 6896
  151.4538  133.3571  159.2834 H   0  0  0  0  0  0  0  0  0  0  0  0  # atno 6909 bound_to 6896
  146.1117  140.5584  142.8775 H   0  0  0  0  0  0  0  0  0  0  0  0  # atno 7974 bound_to 7965
  155.5724  140.3490  155.4519 H   0  0  0  0  0  0  0  0  0  0  0  0  # atno 8008 bound_to 7997
  156.0434  140.1301  157.0156 H   0  0  0  0  0  0  0  0  0  0  0  0  # atno 8009 bound_to 7997
  154.4402  140.1019  156.6256 H   0  0  0  0  0  0  0  0  0  0  0  0  # atno 8010 bound_to 7997
  140.6645  143.7217  150.7800 H   0  0  0  0  0  0  0  0  0  0  0  0  # atno 10167 bound_to 10162
  156.9299  130.5822  149.5649 H   0  0  0  0  0  0  0  0  0  0  0  0  # atno 10718 bound_to 10713
  154.8598  135.3571  154.5608 H   0  0  0  0  0  0  0  0  0  0  0  0  # atno 10763 bound_to 10752
  153.6223  135.7005  153.5311 H   0  0  0  0  0  0  0  0  0  0  0  0  # atno 10764 bound_to 10752
  153.3118  135.4176  155.1303 H   0  0  0  0  0  0  0  0  0  0  0  0  # atno 10765 bound_to 10752
  140.1768  134.8504  157.2755 H   0  0  0  0  0  0  0  0  0  0  0  0  # atno 11005 bound_to 11000
  144.7517  140.5207  143.6797 LP  0  0  0  0  0  0  0  0  0  0  0  0  # atno 17320 bound_to 7965
  145.5650  139.1481  143.3320 LP  0  0  0  0  0  0  0  0  0  0  0  0  # atno 17321 bound_to 7965
  140.0892  143.4894  152.2488 LP  0  0  0  0  0  0  0  0  0  0  0  0  # atno 17342 bound_to 10162
  139.5889  144.7542  151.3451 LP  0  0  0  0  0  0  0  0  0  0  0  0  # atno 17343 bound_to 10162
  156.0452  130.5529  150.8864 LP  0  0  0  0  0  0  0  0  0  0  0  0  # atno 17370 bound_to 10713
  157.5853  131.0945  150.9205 LP  0  0  0  0  0  0  0  0  0  0  0  0  # atno 17371 bound_to 10713
  140.2314  134.3905  155.7520 LP  0  0  0  0  0  0  0  0  0  0  0  0  # atno 17394 bound_to 11000
  141.2221  133.7217  156.8646 LP  0  0  0  0  0  0  0  0  0  0  0  0  # atno 17395 bound_to 11000

$$$$
