AV-unprocessed.smi:1990|AV-procd|sdf|8061|dock3
  -GOLD-   2272010263D 1   1.00000     0.00000
 Structure written by MMmdl.
 46 47  0  0  0  0  0  0  0  0  1 V2000
  150.7402  139.9812  158.3525 C   0  0  0  0  0  0  0  0  0  0  0  0
  151.2003  140.8639  157.1788 C   0  0  2  0  0  0  0  0  0  0  0  0
  150.0697  141.7223  156.5768 C   0  0  0  0  0  0  0  0  0  0  0  0
  149.1799  140.9142  155.7481 N   0  0  0  0  0  0  0  0  0  0  0  0
  147.9679  141.5362  155.3813 C   0  0  0  0  0  0  0  0  0  0  0  0
  147.6531  141.7233  154.0150 C   0  0  0  0  0  0  0  0  0  0  0  0
  146.4401  142.3474  153.6655 C   0  0  0  0  0  0  0  0  0  0  0  0
  145.5628  142.7632  154.6943 C   0  0  0  0  0  0  0  0  0  0  0  0
  144.3221  143.4233  154.4830 N   0  0  0  0  0  0  0  0  0  0  0  0
  143.7617  144.4264  155.1847 C   0  0  0  0  0  0  0  0  0  0  0  0
  144.2975  144.9995  156.1327 O   0  0  0  0  0  0  0  0  0  0  0  0
  142.3710  144.8697  154.7092 C   0  0  2  0  0  0  0  0  0  0  0  0
  141.9917  146.2575  155.2526 C   0  0  0  0  0  0  0  0  0  0  0  0
  141.0982  143.6220  155.2209 S   0  0  0  0  0  0  0  0  0  0  0  0
  139.9994  144.5794  156.3487 C   0  0  0  0  0  0  0  0  0  0  0  0
  140.3104  143.2309  154.0417 O   0  0  0  0  0  0  0  0  0  0  0  0
  141.7739  142.5827  156.0127 O   0  0  0  0  0  0  0  0  0  0  0  0
  145.9702  142.5451  156.0254 C   0  0  0  0  0  0  0  0  0  0  0  0
  147.1327  141.9510  156.3647 N   0  0  0  0  0  0  0  0  0  0  0  0
  149.8872  140.1380  154.7338 C   0  0  0  0  0  0  0  0  0  0  0  0
  150.9803  139.2743  155.3869 C   0  0  1  0  0  0  0  0  0  0  0  0
  151.8258  138.5379  154.3424 C   0  0  0  0  0  0  0  0  0  0  0  0
  151.8490  140.1058  156.1550 O   0  0  0  0  0  0  0  0  0  0  0  0
  150.3746  140.5949  159.1760 H   0  0  0  0  0  0  0  0  0  0  0  0
  151.5652  139.3779  158.7317 H   0  0  0  0  0  0  0  0  0  0  0  0
  149.9323  139.3058  158.0713 H   0  0  0  0  0  0  0  0  0  0  0  0
  151.9547  141.5439  157.5753 H   0  0  0  0  0  0  0  0  0  0  0  0
  149.5326  142.2283  157.3781 H   0  0  0  0  0  0  0  0  0  0  0  0
  150.5000  142.5037  155.9490 H   0  0  0  0  0  0  0  0  0  0  0  0
  148.3347  141.4138  153.2364 H   0  0  0  0  0  0  0  0  0  0  0  0
  146.2218  142.5067  152.6214 H   0  0  0  0  0  0  0  0  0  0  0  0
  143.8035  143.1086  153.6759 H   0  0  0  0  0  0  0  0  0  0  0  0
  142.3594  144.9110  153.6195 H   0  0  0  0  0  0  0  0  0  0  0  0
  142.7441  147.0039  154.9957 H   0  0  0  0  0  0  0  0  0  0  0  0
  141.8852  146.2475  156.3382 H   0  0  0  0  0  0  0  0  0  0  0  0
  141.0424  146.5919  154.8338 H   0  0  0  0  0  0  0  0  0  0  0  0
  139.2657  143.9060  156.7913 H   0  0  0  0  0  0  0  0  0  0  0  0
  139.4755  145.3542  155.7896 H   0  0  0  0  0  0  0  0  0  0  0  0
  140.5931  145.0353  157.1405 H   0  0  0  0  0  0  0  0  0  0  0  0
  145.3441  142.8579  156.8482 H   0  0  0  0  0  0  0  0  0  0  0  0
  149.1890  139.4934  154.1983 H   0  0  0  0  0  0  0  0  0  0  0  0
  150.3290  140.8184  154.0046 H   0  0  0  0  0  0  0  0  0  0  0  0
  150.5189  138.5280  156.0338 H   0  0  0  0  0  0  0  0  0  0  0  0
  151.2084  137.8765  153.7342 H   0  0  0  0  0  0  0  0  0  0  0  0
  152.5930  137.9292  154.8211 H   0  0  0  0  0  0  0  0  0  0  0  0
  152.3256  139.2384  153.6731 H   0  0  0  0  0  0  0  0  0  0  0  0
  1  2  1  0  0  0  0
  1 24  1  0  0  0  0
  1 25  1  0  0  0  0
  1 26  1  0  0  0  0
  2 23  1  0  0  0  0
  2  3  1  0  0  0  0
  2 27  1  0  0  0  0
  3  4  1  0  0  0  0
  3 28  1  0  0  0  0
  3 29  1  0  0  0  0
  4  5  1  0  0  0  0
  4 20  1  0  0  0  0
  5 19  1  0  0  0  0
  5  6  2  0  0  0  0
  6  7  1  0  0  0  0
  6 30  1  0  0  0  0
  7  8  2  0  0  0  0
  7 31  1  0  0  0  0
  8  9  1  0  0  0  0
  8 18  1  0  0  0  0
  9 10  1  0  0  0  0
  9 32  1  0  0  0  0
 10 11  2  0  0  0  0
 10 12  1  0  0  0  0
 12 13  1  0  0  0  0
 12 14  1  0  0  0  0
 12 33  1  0  0  0  0
 13 34  1  0  0  0  0
 13 35  1  0  0  0  0
 13 36  1  0  0  0  0
 14 15  1  0  0  0  0
 14 16  2  0  0  0  0
 14 17  2  0  0  0  0
 15 37  1  0  0  0  0
 15 38  1  0  0  0  0
 15 39  1  0  0  0  0
 18 19  2  0  0  0  0
 18 40  1  0  0  0  0
 20 21  1  0  0  0  0
 20 41  1  0  0  0  0
 20 42  1  0  0  0  0
 21 22  1  0  0  0  0
 21 23  1  0  0  0  0
 21 43  1  0  0  0  0
 22 44  1  0  0  0  0
 22 45  1  0  0  0  0
 22 46  1  0  0  0  0
M  END
> <s_m_source_file>
AV-unprocessed.smi

> <i_m_source_file_index>
1990

> <i_lp_mmshare_version>
43012

> <i_f3d_flags>
0

> <s_epik_input>
W0NIM11bQ0BASF0xW0NIMl1OKFtDSDJdW0NASF0oTzEpW0NIM10pYzJbY0hdW2NIXWMoW2NIXW4yKVtOSF1DKD1PKVtDQEhdKFtDSDNdKVMoPU8pKD1PKVtDSDNd

> <s_epik_cmdline>
J2VwaWtfcHl0aG9uJywgJy1waCcsICc3LjAnLCAnLXRuJywgJzgnLCAnLW1hJywgJzIwMCcsICctbWV0YWxfYmluZGluZycsICctaW1hZScsICc8aW5maWxlLm1hZT4nLCAnLW9tYWUnLCAnPG91dGZpbGUubWFlPic=

> <r_lp_tautomer_probability>
1

> <r_epik_Ionization_Penalty>
0.000334888

> <r_epik_Ionization_Penalty_Charging>
0

> <r_epik_Ionization_Penalty_Neutral>
0.000334888

> <r_epik_State_Penalty>
0.000200905

> <r_epik_Charging_Adjusted_Penalty>
0.000200905

> <i_epik_Tot_Q>
0

> <i_epik_Tot_abs_Q>
0

> <r_epik_Metal_State_Penalty>
-0

> <b_epik_Metal_Only>
0

> <s_lp_Force_Field>
OPLS_2005

> <r_lp_Energy>
21.5885

> <b_lp_Chiralities_Consistent>
1

> <s_lp_Variant>
AV-unprocessed.smi:1990-1

> <Gold.Version>
5.8.1

> <Gold.Id.Protein>
6NUR|6NUR_protein|mol2

> <Gold.PLP.Fitness>
38.9805

> <Gold.PLP.PLP>
-34.5774

> <Gold.PLP.part.hbond>
-2.0000

> <Gold.PLP.part.metal>
0.0000

> <Gold.PLP.part.buried>
-6.2652

> <Gold.PLP.part.nonpolar>
-27.5492

> <Gold.PLP.part.repulsive>
0.8193

> <Gold.PLP.ligand.clash>
0.0000

> <Gold.PLP.ligand.torsion>
1.0309

> <Gold.PLP.Chemscore.Hbond>
2.0000

> <Gold.PLP.Chemscore.CHOScore>
0.0000

> <Gold.PLP.Chemscore.Metal>
0.0000

> <Gold.Chemscore.Hbonds>
donor molecule, donor type, donor heavy atom, donor atom, acceptor molecule, acceptor atom, score
      L1  H     9    32       P1 10174  0.95
      P1  H 10162 10167       L1    16  1.00

> <Gold.PLP.Chemscore.Internal.Correction>
0.4649

> <Gold.Rescore>
     Score         DG    S(hbond)    S(metal)    S(lipo)     H(rot)  DE(clash)    DE(int)     intcor
     13.02     -15.06       1.40        0.00      75.10       1.52       0.00       2.03       ----

> <Gold.Chemscore.Fitness>
13.0249

> <Gold.Chemscore.DG>
-15.0613

> <Gold.Chemscore.ZeroCoef>
-5.4800

> <Gold.Chemscore.Hbond>
1.4011

> <Gold.Chemscore.Metal>
0.0000

> <Gold.Chemscore.Lipo>
75.1012

> <Gold.Chemscore.Internal_Hbond>
0.0000

> <Gold.Chemscore.DEClash>
0.0015

> <Gold.Chemscore.DEInternal>
2.0349

> <Gold.Chemscore.Rot>
1.5177

> <Gold.Chemscore.Internal.Correction>
   9.000000E+99

> <Gold.Chemscore.Hbonds>
donor molecule, donor type, donor heavy atom, donor atom, acceptor molecule, acceptor atom, score
      L1  H     9    32       P1 10174  0.21
      P1  H  7997  8009       L1    23  0.01
      P1  H 10162 10167       L1    16  1.00

> <Gold.Chemscore.Hbond.Weighted>
-4.6797

> <Gold.Chemscore.Metal.Weighted>
-0.0000

> <Gold.Chemscore.Lipo.Weighted>
-8.7868

> <Gold.Chemscore.Internal_Hbond.Weighted>
0.0000

> <Gold.Chemscore.DEClash.Weighted>
0.0015

> <Gold.Chemscore.DEInternal.Weighted>
2.0349

> <Gold.Chemscore.Rot.Weighted>
3.8853

> <Gold.Chemscore.Internal.Correction.Weighted>
   9.000000E+99

> <Gold.Protein.RotatedTorsions>
[ 6907 6896 6895 6894 ] final -139.41 input  -60.11 | X-H torsion
[ 7974 7965 7964 7962 ] final  -14.31 input  175.53 | X-H torsion
[ 8008 7997 7996 7995 ] final -167.83 input   59.86 | X-H torsion
[ 10167 10162 10161 10158 ] final -127.07 input  -65.29 | X-H torsion
[ 10718 10713 10712 10709 ] final  127.95 input   66.30 | X-H torsion
[ 10763 10752 10751 10750 ] final   92.58 input  -60.55 | X-H torsion
[ 11005 11000 10999 10996 ] final  -35.51 input  -57.11 | X-H torsion

> <Gold.Protein.ActiveResidues>
 VAL166  LYS551  ARG553  GLY616  TRP617  ASP618  TYR619  PRO620  LYS621  CYS622 
 ASP623  PHE694  ASN695  SER759  ASP760  ASP761  ALA762  ILE779  LEU786  VAL792 
 PHE793  MET794  SER795  GLU796  ALA797  LYS798  CYS799  TRP800  GLU811  SER814 

> <Gold.Protein.RotatedAtoms>
  151.0474  133.5653  159.2645 H   0  0  0  0  0  0  0  0  0  0  0  0  # atno 6907 bound_to 6896
  151.2677  135.0673  159.9132 H   0  0  0  0  0  0  0  0  0  0  0  0  # atno 6908 bound_to 6896
  152.5376  134.0210  159.8035 H   0  0  0  0  0  0  0  0  0  0  0  0  # atno 6909 bound_to 6896
  146.2079  140.3330  142.8401 H   0  0  0  0  0  0  0  0  0  0  0  0  # atno 7974 bound_to 7965
  155.8831  140.1012  157.1471 H   0  0  0  0  0  0  0  0  0  0  0  0  # atno 8008 bound_to 7997
  154.4007  140.1325  156.4285 H   0  0  0  0  0  0  0  0  0  0  0  0  # atno 8009 bound_to 7997
  155.7620  140.3463  155.5205 H   0  0  0  0  0  0  0  0  0  0  0  0  # atno 8010 bound_to 7997
  139.9647  143.5911  152.2433 H   0  0  0  0  0  0  0  0  0  0  0  0  # atno 10167 bound_to 10162
  157.5288  131.1098  150.9041 H   0  0  0  0  0  0  0  0  0  0  0  0  # atno 10718 bound_to 10713
  153.2208  135.4356  155.0486 H   0  0  0  0  0  0  0  0  0  0  0  0  # atno 10763 bound_to 10752
  154.8249  135.3355  154.6931 H   0  0  0  0  0  0  0  0  0  0  0  0  # atno 10764 bound_to 10752
  153.7363  135.7007  153.5033 H   0  0  0  0  0  0  0  0  0  0  0  0  # atno 10765 bound_to 10752
  140.9802  133.7061  156.1670 H   0  0  0  0  0  0  0  0  0  0  0  0  # atno 11005 bound_to 11000
  144.8839  140.7436  143.5969 LP  0  0  0  0  0  0  0  0  0  0  0  0  # atno 17320 bound_to 7965
  145.3251  139.1776  143.4567 LP  0  0  0  0  0  0  0  0  0  0  0  0  # atno 17321 bound_to 7965
  139.6527  144.7661  151.2117 LP  0  0  0  0  0  0  0  0  0  0  0  0  # atno 17342 bound_to 10162
  140.7542  143.6135  150.8582 LP  0  0  0  0  0  0  0  0  0  0  0  0  # atno 17343 bound_to 10162
  156.9629  130.5462  149.5287 LP  0  0  0  0  0  0  0  0  0  0  0  0  # atno 17370 bound_to 10713
  156.0407  130.5489  150.8763 LP  0  0  0  0  0  0  0  0  0  0  0  0  # atno 17371 bound_to 10713
  140.7199  134.4370  157.5575 LP  0  0  0  0  0  0  0  0  0  0  0  0  # atno 17394 bound_to 11000
  139.8947  134.8701  156.2166 LP  0  0  0  0  0  0  0  0  0  0  0  0  # atno 17395 bound_to 11000

$$$$
