AV-unprocessed.smi:3258|AV-procd|sdf|12470|dock4
  -GOLD-   2272018373D 1   1.00000     0.00000
 Structure written by MMmdl.
 38 39  0  0  0  0  0  0  0  0  1 V2000
  147.0057  132.5351  154.4302 C   0  0  0  0  0  0  0  0  0  0  0  0
  146.7357  133.5434  153.3012 C   0  0  2  0  0  0  0  0  0  0  0  0
  147.0925  133.0004  151.9000 C   0  0  0  0  0  0  0  0  0  0  0  0
  145.9203  132.7443  151.0828 N   0  0  0  0  0  0  0  0  0  0  0  0
  145.8504  132.0823  149.8752 C   0  0  0  0  0  0  0  0  0  0  0  0
  144.5423  132.0880  149.4839 C   0  0  0  0  0  0  0  0  0  0  0  0
  143.8790  132.7838  150.5331 C   0  0  0  0  0  0  0  0  0  0  0  0
  144.7059  133.1741  151.4897 N   0  0  0  0  0  0  0  0  0  0  0  0
  147.4791  134.7714  153.5685 N   0  0  0  0  0  0  0  0  0  0  0  0
  147.4659  135.4463  154.7268 C   0  0  0  0  0  0  0  0  0  0  0  0
  146.8173  135.1055  155.7162 O   0  0  0  0  0  0  0  0  0  0  0  0
  148.2380  136.5407  154.6728 N   0  0  0  0  0  0  0  0  0  0  0  0
  148.4300  137.4934  155.7619 C   0  0  0  0  0  0  0  0  0  0  0  0
  149.7771  138.2320  155.6491 C   0  0  1  0  0  0  0  0  0  0  0  0
  150.8791  137.4663  154.9416 C   0  0  0  0  0  0  0  0  0  0  0  0
  151.8503  138.5812  154.5646 C   0  0  0  0  0  0  0  0  0  0  0  0
  151.0546  139.7493  154.3817 O   0  0  0  0  0  0  0  0  0  0  0  0
  149.7154  139.4979  154.7956 C   0  0  0  0  0  0  0  0  0  0  0  0
  146.3961  131.6382  154.3193 H   0  0  0  0  0  0  0  0  0  0  0  0
  146.7710  132.9651  155.4044 H   0  0  0  0  0  0  0  0  0  0  0  0
  148.0516  132.2269  154.4447 H   0  0  0  0  0  0  0  0  0  0  0  0
  145.6688  133.7745  153.3218 H   0  0  0  0  0  0  0  0  0  0  0  0
  147.7219  133.7124  151.3647 H   0  0  0  0  0  0  0  0  0  0  0  0
  147.6722  132.0797  151.9866 H   0  0  0  0  0  0  0  0  0  0  0  0
  146.7284  131.6691  149.4005 H   0  0  0  0  0  0  0  0  0  0  0  0
  144.1230  131.6601  148.5855 H   0  0  0  0  0  0  0  0  0  0  0  0
  142.8281  133.0147  150.6278 H   0  0  0  0  0  0  0  0  0  0  0  0
  148.0428  135.1341  152.8135 H   0  0  0  0  0  0  0  0  0  0  0  0
  148.7289  136.7322  153.8117 H   0  0  0  0  0  0  0  0  0  0  0  0
  147.6028  138.2039  155.8070 H   0  0  0  0  0  0  0  0  0  0  0  0
  148.4008  136.9345  156.6974 H   0  0  0  0  0  0  0  0  0  0  0  0
  150.1263  138.5047  156.6465 H   0  0  0  0  0  0  0  0  0  0  0  0
  151.3395  136.6983  155.5638 H   0  0  0  0  0  0  0  0  0  0  0  0
  150.4920  136.9886  154.0404 H   0  0  0  0  0  0  0  0  0  0  0  0
  152.5526  138.7657  155.3784 H   0  0  0  0  0  0  0  0  0  0  0  0
  152.4250  138.3456  153.6687 H   0  0  0  0  0  0  0  0  0  0  0  0
  149.1058  139.3349  153.9055 H   0  0  0  0  0  0  0  0  0  0  0  0
  149.3004  140.3480  155.3376 H   0  0  0  0  0  0  0  0  0  0  0  0
  1  2  1  0  0  0  0
  1 19  1  0  0  0  0
  1 20  1  0  0  0  0
  1 21  1  0  0  0  0
  2  3  1  0  0  0  0
  2  9  1  0  0  0  0
  2 22  1  0  0  0  0
  3  4  1  0  0  0  0
  3 23  1  0  0  0  0
  3 24  1  0  0  0  0
  4  8  1  0  0  0  0
  4  5  1  0  0  0  0
  5  6  2  0  0  0  0
  5 25  1  0  0  0  0
  6  7  1  0  0  0  0
  6 26  1  0  0  0  0
  7  8  2  0  0  0  0
  7 27  1  0  0  0  0
  9 10  1  0  0  0  0
  9 28  1  0  0  0  0
 10 11  2  0  0  0  0
 10 12  1  0  0  0  0
 12 13  1  0  0  0  0
 12 29  1  0  0  0  0
 13 14  1  0  0  0  0
 13 30  1  0  0  0  0
 13 31  1  0  0  0  0
 14 18  1  0  0  0  0
 14 15  1  0  0  0  0
 14 32  1  0  0  0  0
 15 16  1  0  0  0  0
 15 33  1  0  0  0  0
 15 34  1  0  0  0  0
 16 17  1  0  0  0  0
 16 35  1  0  0  0  0
 16 36  1  0  0  0  0
 17 18  1  0  0  0  0
 18 37  1  0  0  0  0
 18 38  1  0  0  0  0
M  END
> <s_m_source_file>
AV-unprocessed.smi

> <i_m_source_file_index>
3258

> <i_lp_mmshare_version>
43012

> <i_f3d_flags>
0

> <s_epik_input>
bjFbY0hdW2NIXVtjSF1uMVtDSDJdW0NAQEhdKFtDSDNdKVtOSF1DKD1PKVtOSF1bQ0gyXVtDQEBIXTJbQ0gyXVtDSDJdT1tDSDJdMg==

> <s_epik_cmdline>
J2VwaWtfcHl0aG9uJywgJy1waCcsICc3LjAnLCAnLXRuJywgJzgnLCAnLW1hJywgJzIwMCcsICctbWV0YWxfYmluZGluZycsICctaW1hZScsICc8aW5maWxlLm1hZT4nLCAnLW9tYWUnLCAnPG91dGZpbGUubWFlPic=

> <r_lp_tautomer_probability>
1

> <r_epik_Ionization_Penalty>
6.85079e-05

> <r_epik_Ionization_Penalty_Charging>
0

> <r_epik_Ionization_Penalty_Neutral>
6.85079e-05

> <r_epik_State_Penalty>
-0

> <r_epik_Charging_Adjusted_Penalty>
0

> <i_epik_Tot_Q>
0

> <i_epik_Tot_abs_Q>
0

> <r_epik_Metal_State_Penalty>
-0

> <b_epik_Metal_Only>
0

> <s_lp_Force_Field>
OPLS_2005

> <r_lp_Energy>
15.6708

> <b_lp_Chiralities_Consistent>
1

> <s_lp_Variant>
AV-unprocessed.smi:3258-3

> <Gold.Version>
5.8.1

> <Gold.Id.Protein>
6NUR|6NUR_protein|mol2

> <Gold.PLP.Fitness>
41.2705

> <Gold.PLP.PLP>
-29.2706

> <Gold.PLP.part.hbond>
-3.0000

> <Gold.PLP.part.metal>
0.0000

> <Gold.PLP.part.buried>
-4.3452

> <Gold.PLP.part.nonpolar>
-22.9029

> <Gold.PLP.part.repulsive>
0.2458

> <Gold.PLP.ligand.clash>
0.0000

> <Gold.PLP.ligand.torsion>
1.4126

> <Gold.PLP.Chemscore.Hbond>
2.9280

> <Gold.PLP.Chemscore.CHOScore>
2.0000

> <Gold.PLP.Chemscore.Metal>
0.0000

> <Gold.Chemscore.Hbonds>
donor molecule, donor type, donor heavy atom, donor atom, acceptor molecule, acceptor atom, score
      L1  H     9    28       P1  7948  1.00
      L1  H    12    29       P1  7948  0.93
      P1  H  7989  7998       L1    17  1.00
      L1  C     5    25       P1 10747  1.00
      L1  C     7    27       P1 10186  0.98

> <Gold.PLP.Chemscore.Internal.Correction>
0.0411

> <Gold.Rescore>
     Score         DG    S(hbond)    S(metal)    S(lipo)     H(rot)  DE(clash)    DE(int)     intcor
     16.05     -18.80       2.86        0.00      73.21       1.87       0.08       2.67       ----

> <Gold.Chemscore.Fitness>
16.0481

> <Gold.Chemscore.DG>
-18.8031

> <Gold.Chemscore.ZeroCoef>
-5.4800

> <Gold.Chemscore.Hbond>
2.8596

> <Gold.Chemscore.Metal>
0.0000

> <Gold.Chemscore.Lipo>
73.2070

> <Gold.Chemscore.Internal_Hbond>
0.0000

> <Gold.Chemscore.DEClash>
0.0825

> <Gold.Chemscore.DEInternal>
2.6724

> <Gold.Chemscore.Rot>
1.8724

> <Gold.Chemscore.Internal.Correction>
   9.000000E+99

> <Gold.Chemscore.Hbonds>
donor molecule, donor type, donor heavy atom, donor atom, acceptor molecule, acceptor atom, score
      L1  H     9    28       P1  7948  0.97
      L1  H    12    29       P1  7948  0.86
      P1  H  7989  7998       L1    17  0.88

> <Gold.Chemscore.Hbond.Weighted>
-9.5511

> <Gold.Chemscore.Metal.Weighted>
-0.0000

> <Gold.Chemscore.Lipo.Weighted>
-8.5652

> <Gold.Chemscore.Internal_Hbond.Weighted>
0.0000

> <Gold.Chemscore.DEClash.Weighted>
0.0825

> <Gold.Chemscore.DEInternal.Weighted>
2.6724

> <Gold.Chemscore.Rot.Weighted>
4.7933

> <Gold.Chemscore.Internal.Correction.Weighted>
   9.000000E+99

> <Gold.Protein.RotatedTorsions>
[ 6907 6896 6895 6894 ] final -148.45 input  -60.11 | X-H torsion
[ 7974 7965 7964 7962 ] final  132.53 input  175.53 | X-H torsion
[ 8008 7997 7996 7995 ] final  109.53 input   59.86 | X-H torsion
[ 10167 10162 10161 10158 ] final  113.98 input  -65.29 | X-H torsion
[ 10718 10713 10712 10709 ] final   41.99 input   66.30 | X-H torsion
[ 10763 10752 10751 10750 ] final  106.07 input  -60.55 | X-H torsion
[ 11005 11000 10999 10996 ] final   37.16 input  -57.11 | X-H torsion

> <Gold.Protein.ActiveResidues>
 VAL166  LYS551  ARG553  GLY616  TRP617  ASP618  TYR619  PRO620  LYS621  CYS622 
 ASP623  PHE694  ASN695  SER759  ASP760  ASP761  ALA762  ILE779  LEU786  VAL792 
 PHE793  MET794  SER795  GLU796  ALA797  LYS798  CYS799  TRP800  GLU811  SER814 

> <Gold.Protein.RotatedAtoms>
  151.1700  133.4790  159.2593 H   0  0  0  0  0  0  0  0  0  0  0  0  # atno 6907 bound_to 6896
  151.1366  135.0158  159.8616 H   0  0  0  0  0  0  0  0  0  0  0  0  # atno 6908 bound_to 6896
  152.5461  134.1598  159.8606 H   0  0  0  0  0  0  0  0  0  0  0  0  # atno 6909 bound_to 6896
  144.9959  139.4360  143.5316 H   0  0  0  0  0  0  0  0  0  0  0  0  # atno 7974 bound_to 7965
  156.1986  140.3056  155.9478 H   0  0  0  0  0  0  0  0  0  0  0  0  # atno 8008 bound_to 7997
  155.3008  140.0446  157.3046 H   0  0  0  0  0  0  0  0  0  0  0  0  # atno 8009 bound_to 7997
  154.5541  140.2300  155.8447 H   0  0  0  0  0  0  0  0  0  0  0  0  # atno 8010 bound_to 7997
  139.6421  144.7124  151.2215 H   0  0  0  0  0  0  0  0  0  0  0  0  # atno 10167 bound_to 10162
  157.3998  130.7853  149.7339 H   0  0  0  0  0  0  0  0  0  0  0  0  # atno 10718 bound_to 10713
  153.3879  135.3889  155.1903 H   0  0  0  0  0  0  0  0  0  0  0  0  # atno 10763 bound_to 10752
  154.8716  135.3741  154.4774 H   0  0  0  0  0  0  0  0  0  0  0  0  # atno 10764 bound_to 10752
  153.5258  135.7086  153.5770 H   0  0  0  0  0  0  0  0  0  0  0  0  # atno 10765 bound_to 10752
  140.2253  134.3592  155.7987 H   0  0  0  0  0  0  0  0  0  0  0  0  # atno 11005 bound_to 11000
  146.3442  139.9319  142.8752 LP  0  0  0  0  0  0  0  0  0  0  0  0  # atno 17320 bound_to 7965
  145.2220  140.9939  143.4040 LP  0  0  0  0  0  0  0  0  0  0  0  0  # atno 17321 bound_to 7965
  140.7496  143.6293  150.8438 LP  0  0  0  0  0  0  0  0  0  0  0  0  # atno 17342 bound_to 10162
  139.9932  143.5825  152.2903 LP  0  0  0  0  0  0  0  0  0  0  0  0  # atno 17343 bound_to 10162
  155.9820  130.4014  150.3440 LP  0  0  0  0  0  0  0  0  0  0  0  0  # atno 17370 bound_to 10713
  157.1566  131.0334  151.2860 LP  0  0  0  0  0  0  0  0  0  0  0  0  # atno 17371 bound_to 10713
  141.2221  133.7215  156.8642 LP  0  0  0  0  0  0  0  0  0  0  0  0  # atno 17394 bound_to 11000
  140.1807  134.9035  157.2945 LP  0  0  0  0  0  0  0  0  0  0  0  0  # atno 17395 bound_to 11000

$$$$
