AV-unprocessed.smi:83|AV-procd|sdf|802|dock3
  -GOLD-   2262017183D 1   1.00000     0.00000
 Structure written by MMmdl.
 56 59  0  0  0  0  0  0  0  0  1 V2000
  142.9978  135.1900  162.5618 C   0  0  0  0  0  0  0  0  0  0  0  0
  144.0153  136.2330  162.0971 C   0  0  0  0  0  0  0  0  0  0  0  0
  143.6092  137.3198  161.6868 O   0  0  0  0  0  0  0  0  0  0  0  0
  145.3266  135.9233  162.1540 N   0  0  0  0  0  0  0  0  0  0  0  0
  145.8407  134.6461  162.6410 C   0  0  0  0  0  0  0  0  0  0  0  0
  147.3665  134.7745  162.5925 C   0  0  0  0  0  0  0  0  0  0  0  0
  147.6263  135.8231  161.5114 C   0  0  1  0  0  0  0  0  0  0  0  0
  147.7030  135.1461  160.1207 C   0  0  0  0  0  0  0  0  0  0  0  0
  147.1415  135.9452  159.0301 N   0  0  0  0  0  0  0  0  0  0  0  0
  146.1971  135.2766  158.1365 C   0  0  0  0  0  0  0  0  0  0  0  0
  147.7256  137.1120  158.6192 C   0  0  0  0  0  0  0  0  0  0  0  0
  146.9404  138.0340  157.9969 N   0  0  0  0  0  0  0  0  0  0  0  0
  147.4507  139.1752  157.5292 C   0  0  0  0  0  0  0  0  0  0  0  0
  148.7123  139.6002  157.5700 N   0  0  0  0  0  0  0  0  0  0  0  0
  149.5130  138.6990  158.2036 C   0  0  0  0  0  0  0  0  0  0  0  0
  149.1104  137.4488  158.7624 C   0  0  0  0  0  0  0  0  0  0  0  0
  150.2213  136.8317  159.3306 N   0  0  0  0  0  0  0  0  0  0  0  0
  151.2134  137.6445  159.0993 C   0  0  0  0  0  0  0  0  0  0  0  0
  150.8764  138.7900  158.4214 N   0  0  0  0  0  0  0  0  0  0  0  0
  151.7819  139.8533  158.0242 C   0  0  0  0  0  0  0  0  0  0  0  0
  152.6385  140.3587  159.2016 C   0  0  1  0  0  0  0  0  0  0  0  0
  153.9517  139.8483  159.0734 O   0  0  0  0  0  0  0  0  0  0  0  0
  152.7074  141.8954  159.2566 C   0  0  2  0  0  0  0  0  0  0  0  0
  153.0776  142.4658  160.6273 C   0  0  0  0  0  0  0  0  0  0  0  0
  152.4607  143.8559  160.6194 C   0  0  0  0  0  0  0  0  0  0  0  0
  151.4877  143.8254  159.4381 C   0  0  0  0  0  0  0  0  0  0  0  0
  151.4224  142.4611  159.0481 O   0  0  0  0  0  0  0  0  0  0  0  0
  146.4292  136.7682  161.7016 C   0  0  0  0  0  0  0  0  0  0  0  0
  143.1225  134.2564  162.0128 H   0  0  0  0  0  0  0  0  0  0  0  0
  141.9796  135.5443  162.3985 H   0  0  0  0  0  0  0  0  0  0  0  0
  143.1139  134.9875  163.6260 H   0  0  0  0  0  0  0  0  0  0  0  0
  145.4896  134.4237  163.6495 H   0  0  0  0  0  0  0  0  0  0  0  0
  145.5009  133.8482  161.9786 H   0  0  0  0  0  0  0  0  0  0  0  0
  147.7282  135.1470  163.5520 H   0  0  0  0  0  0  0  0  0  0  0  0
  147.8642  133.8227  162.4038 H   0  0  0  0  0  0  0  0  0  0  0  0
  148.5628  136.3482  161.7035 H   0  0  0  0  0  0  0  0  0  0  0  0
  148.7552  134.9865  159.8828 H   0  0  0  0  0  0  0  0  0  0  0  0
  147.2954  134.1418  160.1532 H   0  0  0  0  0  0  0  0  0  0  0  0
  145.3928  135.9530  157.8449 H   0  0  0  0  0  0  0  0  0  0  0  0
  145.7406  134.4138  158.6224 H   0  0  0  0  0  0  0  0  0  0  0  0
  146.7015  134.9244  157.2361 H   0  0  0  0  0  0  0  0  0  0  0  0
  146.7484  139.8394  157.0475 H   0  0  0  0  0  0  0  0  0  0  0  0
  152.2240  137.4256  159.4126 H   0  0  0  0  0  0  0  0  0  0  0  0
  152.4142  139.4963  157.2100 H   0  0  0  0  0  0  0  0  0  0  0  0
  151.1825  140.6681  157.6163 H   0  0  0  0  0  0  0  0  0  0  0  0
  152.2210  139.9841  160.1373 H   0  0  0  0  0  0  0  0  0  0  0  0
  153.9711  138.9767  159.4382 H   0  0  0  0  0  0  0  0  0  0  0  0
  153.3909  142.2775  158.4954 H   0  0  0  0  0  0  0  0  0  0  0  0
  152.6216  141.8701  161.4194 H   0  0  0  0  0  0  0  0  0  0  0  0
  154.1544  142.4818  160.7980 H   0  0  0  0  0  0  0  0  0  0  0  0
  151.9477  144.0581  161.5602 H   0  0  0  0  0  0  0  0  0  0  0  0
  153.2161  144.6290  160.4755 H   0  0  0  0  0  0  0  0  0  0  0  0
  150.5001  144.2069  159.6979 H   0  0  0  0  0  0  0  0  0  0  0  0
  151.8744  144.4176  158.6073 H   0  0  0  0  0  0  0  0  0  0  0  0
  146.1971  137.3448  160.8099 H   0  0  0  0  0  0  0  0  0  0  0  0
  146.6470  137.4870  162.4928 H   0  0  0  0  0  0  0  0  0  0  0  0
  1  2  1  0  0  0  0
  1 29  1  0  0  0  0
  1 30  1  0  0  0  0
  1 31  1  0  0  0  0
  2  3  2  0  0  0  0
  2  4  1  0  0  0  0
  4 28  1  0  0  0  0
  4  5  1  0  0  0  0
  5  6  1  0  0  0  0
  5 32  1  0  0  0  0
  5 33  1  0  0  0  0
  6  7  1  0  0  0  0
  6 34  1  0  0  0  0
  6 35  1  0  0  0  0
  7  8  1  0  0  0  0
  7 28  1  0  0  0  0
  7 36  1  0  0  0  0
  8  9  1  0  0  0  0
  8 37  1  0  0  0  0
  8 38  1  0  0  0  0
  9 10  1  0  0  0  0
  9 11  1  0  0  0  0
 10 39  1  0  0  0  0
 10 40  1  0  0  0  0
 10 41  1  0  0  0  0
 11 16  1  0  0  0  0
 11 12  2  0  0  0  0
 12 13  1  0  0  0  0
 13 14  2  0  0  0  0
 13 42  1  0  0  0  0
 14 15  1  0  0  0  0
 15 19  1  0  0  0  0
 15 16  2  0  0  0  0
 16 17  1  0  0  0  0
 17 18  2  0  0  0  0
 18 19  1  0  0  0  0
 18 43  1  0  0  0  0
 19 20  1  0  0  0  0
 20 21  1  0  0  0  0
 20 44  1  0  0  0  0
 20 45  1  0  0  0  0
 21 22  1  0  0  0  0
 21 23  1  0  0  0  0
 21 46  1  0  0  0  0
 22 47  1  0  0  0  0
 23 27  1  0  0  0  0
 23 24  1  0  0  0  0
 23 48  1  0  0  0  0
 24 25  1  0  0  0  0
 24 49  1  0  0  0  0
 24 50  1  0  0  0  0
 25 26  1  0  0  0  0
 25 51  1  0  0  0  0
 25 52  1  0  0  0  0
 26 27  1  0  0  0  0
 26 53  1  0  0  0  0
 26 54  1  0  0  0  0
 28 55  1  0  0  0  0
 28 56  1  0  0  0  0
M  END
> <s_m_source_file>
AV-unprocessed.smi

> <i_m_source_file_index>
83

> <i_lp_mmshare_version>
43012

> <i_f3d_flags>
0

> <s_epik_input>
W0NIM11DKD1PKU4xW0NIMl1bQ0gyXVtDQEhdKFtDSDJdMSlbQ0gyXU4oW0NIM10pYyhuW2NIXW4yKWMoYzIzKW5bY0hdbjNbQ0gyXVtDQEhdKFtPSF0pW0NAQEhdNFtDSDJdW0NIMl1bQ0gyXU80

> <s_epik_cmdline>
J2VwaWtfcHl0aG9uJywgJy1waCcsICc3LjAnLCAnLXRuJywgJzgnLCAnLW1hJywgJzIwMCcsICctbWV0YWxfYmluZGluZycsICctaW1hZScsICc8aW5maWxlLm1hZT4nLCAnLW9tYWUnLCAnPG91dGZpbGUubWFlPic=

> <r_lp_tautomer_probability>
1

> <r_epik_Ionization_Penalty>
0.00109752

> <r_epik_Ionization_Penalty_Charging>
0

> <r_epik_Ionization_Penalty_Neutral>
0.00109752

> <r_epik_State_Penalty>
0.000634803

> <r_epik_Charging_Adjusted_Penalty>
0.000634803

> <i_epik_Tot_Q>
0

> <i_epik_Tot_abs_Q>
0

> <r_epik_Metal_State_Penalty>
-0

> <b_epik_Metal_Only>
0

> <s_lp_Force_Field>
OPLS_2005

> <r_lp_Energy>
53.2546

> <b_lp_Chiralities_Consistent>
1

> <s_lp_Variant>
AV-unprocessed.smi:83-3

> <Gold.Version>
5.8.1

> <Gold.Id.Protein>
6NUR|6NUR_protein|mol2

> <Gold.PLP.Fitness>
50.7358

> <Gold.PLP.PLP>
-48.3563

> <Gold.PLP.part.hbond>
-2.0000

> <Gold.PLP.part.metal>
0.0000

> <Gold.PLP.part.buried>
-8.0794

> <Gold.PLP.part.nonpolar>
-38.3256

> <Gold.PLP.part.repulsive>
0.0161

> <Gold.PLP.ligand.clash>
0.0000

> <Gold.PLP.ligand.torsion>
2.0169

> <Gold.PLP.Chemscore.Hbond>
1.9913

> <Gold.PLP.Chemscore.CHOScore>
0.0000

> <Gold.PLP.Chemscore.Metal>
0.0000

> <Gold.Chemscore.Hbonds>
donor molecule, donor type, donor heavy atom, donor atom, acceptor molecule, acceptor atom, score
      P1  H  6896  6907       L1    17  0.96
      P1  H  7997  8009       L1    22  0.93

> <Gold.PLP.Chemscore.Internal.Correction>
0.4395

> <Gold.Rescore>
     Score         DG    S(hbond)    S(metal)    S(lipo)     H(rot)  DE(clash)    DE(int)     intcor
     15.81     -17.87       1.82        0.00     111.07       2.62       0.03       2.03       ----

> <Gold.Chemscore.Fitness>
15.8093

> <Gold.Chemscore.DG>
-17.8665

> <Gold.Chemscore.ZeroCoef>
-5.4800

> <Gold.Chemscore.Hbond>
1.8221

> <Gold.Chemscore.Metal>
0.0000

> <Gold.Chemscore.Lipo>
111.0729

> <Gold.Chemscore.Internal_Hbond>
0.0000

> <Gold.Chemscore.DEClash>
0.0315

> <Gold.Chemscore.DEInternal>
2.0257

> <Gold.Chemscore.Rot>
2.6152

> <Gold.Chemscore.Internal.Correction>
   9.000000E+99

> <Gold.Chemscore.Hbonds>
donor molecule, donor type, donor heavy atom, donor atom, acceptor molecule, acceptor atom, score
      P1  H  6896  6907       L1    17  0.31
      P1  H  7997  8009       L1    22  0.75

> <Gold.Chemscore.Hbond.Weighted>
-6.0858

> <Gold.Chemscore.Metal.Weighted>
-0.0000

> <Gold.Chemscore.Lipo.Weighted>
-12.9955

> <Gold.Chemscore.Internal_Hbond.Weighted>
0.0000

> <Gold.Chemscore.DEClash.Weighted>
0.0315

> <Gold.Chemscore.DEInternal.Weighted>
2.0257

> <Gold.Chemscore.Rot.Weighted>
6.6949

> <Gold.Chemscore.Internal.Correction.Weighted>
   9.000000E+99

> <Gold.Protein.RotatedTorsions>
[ 6907 6896 6895 6894 ] final  -22.00 input  -60.11 | X-H torsion
[ 7974 7965 7964 7962 ] final  -60.71 input  175.53 | X-H torsion
[ 8008 7997 7996 7995 ] final  126.57 input   59.86 | X-H torsion
[ 10167 10162 10161 10158 ] final -114.22 input  -65.29 | X-H torsion
[ 10718 10713 10712 10709 ] final   92.86 input   66.30 | X-H torsion
[ 10763 10752 10751 10750 ] final   38.99 input  -60.55 | X-H torsion
[ 11005 11000 10999 10996 ] final  122.27 input  -57.11 | X-H torsion

> <Gold.Protein.ActiveResidues>
 VAL166  LYS551  ARG553  GLY616  TRP617  ASP618  TYR619  PRO620  LYS621  CYS622 
 ASP623  PHE694  ASN695  SER759  ASP760  ASP761  ALA762  ILE779  LEU786  VAL792 
 PHE793  MET794  SER795  GLU796  ALA797  LYS798  CYS799  TRP800  GLU811  SER814 

> <Gold.Protein.RotatedAtoms>
  151.2250  135.0533  159.8964 H   0  0  0  0  0  0  0  0  0  0  0  0  # atno 6907 bound_to 6896
  152.5411  134.0599  159.8158 H   0  0  0  0  0  0  0  0  0  0  0  0  # atno 6908 bound_to 6896
  151.0771  133.5371  159.2655 H   0  0  0  0  0  0  0  0  0  0  0  0  # atno 6909 bound_to 6896
  145.8122  140.8591  143.0176 H   0  0  0  0  0  0  0  0  0  0  0  0  # atno 7974 bound_to 7965
  156.2867  140.2689  156.2132 H   0  0  0  0  0  0  0  0  0  0  0  0  # atno 8008 bound_to 7997
  155.0243  140.0386  157.2467 H   0  0  0  0  0  0  0  0  0  0  0  0  # atno 8009 bound_to 7997
  154.7409  140.2725  155.6379 H   0  0  0  0  0  0  0  0  0  0  0  0  # atno 8010 bound_to 7997
  140.1034  143.4593  152.1798 H   0  0  0  0  0  0  0  0  0  0  0  0  # atno 10167 bound_to 10162
  157.6957  131.0458  150.3946 H   0  0  0  0  0  0  0  0  0  0  0  0  # atno 10718 bound_to 10713
  152.9982  135.6233  154.2394 H   0  0  0  0  0  0  0  0  0  0  0  0  # atno 10763 bound_to 10752
  154.2135  135.2799  155.2952 H   0  0  0  0  0  0  0  0  0  0  0  0  # atno 10764 bound_to 10752
  154.5587  135.5711  153.7046 H   0  0  0  0  0  0  0  0  0  0  0  0  # atno 10765 bound_to 10752
  139.9261  134.9641  156.8084 H   0  0  0  0  0  0  0  0  0  0  0  0  # atno 11005 bound_to 11000
  144.6756  140.0412  143.7481 LP  0  0  0  0  0  0  0  0  0  0  0  0  # atno 17320 bound_to 7965
  145.9765  139.2908  143.1068 LP  0  0  0  0  0  0  0  0  0  0  0  0  # atno 17321 bound_to 7965
  139.5659  144.7434  151.4025 LP  0  0  0  0  0  0  0  0  0  0  0  0  # atno 17342 bound_to 10162
  140.6965  143.7735  150.7335 LP  0  0  0  0  0  0  0  0  0  0  0  0  # atno 17343 bound_to 10162
  156.4346  130.3979  149.6737 LP  0  0  0  0  0  0  0  0  0  0  0  0  # atno 17370 bound_to 10713
  156.3942  130.7642  151.2646 LP  0  0  0  0  0  0  0  0  0  0  0  0  # atno 17371 bound_to 10713
  140.6332  133.9886  155.7672 LP  0  0  0  0  0  0  0  0  0  0  0  0  # atno 17394 bound_to 11000
  141.0820  134.0048  157.3372 LP  0  0  0  0  0  0  0  0  0  0  0  0  # atno 17395 bound_to 11000

$$$$
