AV-unprocessed.smi:500|AV-procd|sdf|2735|dock9
  -GOLD-   2262023193D 1   1.00000     0.00000
 Structure written by MMmdl.
 45 47  0  0  0  0  0  0  0  0  1 V2000
  151.8867  140.4962  156.0405 C   0  0  0  0  0  0  0  0  0  0  0  0
  151.8189  139.4202  157.1267 C   0  0  0  0  0  0  0  0  0  0  0  0
  150.4879  138.9320  157.2038 O   0  0  0  0  0  0  0  0  0  0  0  0
  150.3535  137.7377  157.9601 C   0  0  0  0  0  0  0  0  0  0  0  0
  148.8756  137.3921  158.2086 C   0  0  0  0  0  0  0  0  0  0  0  0
  148.7223  136.0332  158.7032 N   0  0  0  0  0  0  0  0  0  0  0  0
  149.0876  134.8701  158.1043 C   0  0  0  0  0  0  0  0  0  0  0  0
  149.7502  134.8359  156.7486 C   0  0  1  0  0  0  0  0  0  0  0  0
  151.2666  135.0470  156.8468 C   0  0  0  0  0  0  0  0  0  0  0  0
  149.4635  133.5496  156.1155 N   0  0  0  0  0  0  0  0  0  0  0  0
  150.0567  132.3834  156.4179 C   0  0  0  0  0  0  0  0  0  0  0  0
  150.8973  132.2591  157.3083 O   0  0  0  0  0  0  0  0  0  0  0  0
  149.6334  131.2220  155.6137 C   0  0  0  0  0  0  0  0  0  0  0  0
  149.8657  129.8801  155.7678 C   0  0  0  0  0  0  0  0  0  0  0  0
  149.1927  129.2253  154.6995 C   0  0  0  0  0  0  0  0  0  0  0  0
  148.5929  130.2127  153.9720 C   0  0  0  0  0  0  0  0  0  0  0  0
  148.8477  131.4329  154.5177 O   0  0  0  0  0  0  0  0  0  0  0  0
  148.8457  133.7614  158.8102 N   0  0  0  0  0  0  0  0  0  0  0  0
  148.2430  134.2480  159.9526 C   0  0  0  0  0  0  0  0  0  0  0  0
  147.7388  133.5695  161.0850 C   0  0  0  0  0  0  0  0  0  0  0  0
  147.1541  134.2901  162.1469 C   0  0  0  0  0  0  0  0  0  0  0  0
  147.0663  135.6963  162.0920 C   0  0  0  0  0  0  0  0  0  0  0  0
  147.5649  136.3917  160.9736 C   0  0  0  0  0  0  0  0  0  0  0  0
  148.1476  135.6674  159.9162 C   0  0  0  0  0  0  0  0  0  0  0  0
  152.8983  140.8915  155.9468 H   0  0  0  0  0  0  0  0  0  0  0  0
  151.2224  141.3290  156.2724 H   0  0  0  0  0  0  0  0  0  0  0  0
  151.5939  140.0924  155.0708 H   0  0  0  0  0  0  0  0  0  0  0  0
  152.5036  138.6063  156.8834 H   0  0  0  0  0  0  0  0  0  0  0  0
  152.1355  139.8427  158.0803 H   0  0  0  0  0  0  0  0  0  0  0  0
  150.8130  136.9334  157.3847 H   0  0  0  0  0  0  0  0  0  0  0  0
  150.9128  137.8045  158.8937 H   0  0  0  0  0  0  0  0  0  0  0  0
  148.4095  138.0803  158.9123 H   0  0  0  0  0  0  0  0  0  0  0  0
  148.3131  137.4893  157.2798 H   0  0  0  0  0  0  0  0  0  0  0  0
  149.3415  135.6224  156.1141 H   0  0  0  0  0  0  0  0  0  0  0  0
  151.4966  136.0111  157.3009 H   0  0  0  0  0  0  0  0  0  0  0  0
  151.7307  135.0280  155.8603 H   0  0  0  0  0  0  0  0  0  0  0  0
  151.7383  134.2730  157.4534 H   0  0  0  0  0  0  0  0  0  0  0  0
  148.7868  133.5542  155.3661 H   0  0  0  0  0  0  0  0  0  0  0  0
  150.4473  129.4226  156.5546 H   0  0  0  0  0  0  0  0  0  0  0  0
  149.1503  128.1665  154.4914 H   0  0  0  0  0  0  0  0  0  0  0  0
  147.9766  130.2233  153.0849 H   0  0  0  0  0  0  0  0  0  0  0  0
  147.8002  132.4925  161.1358 H   0  0  0  0  0  0  0  0  0  0  0  0
  146.7702  133.7614  163.0070 H   0  0  0  0  0  0  0  0  0  0  0  0
  146.6155  136.2404  162.9091 H   0  0  0  0  0  0  0  0  0  0  0  0
  147.4980  137.4685  160.9283 H   0  0  0  0  0  0  0  0  0  0  0  0
  1  2  1  0  0  0  0
  1 25  1  0  0  0  0
  1 26  1  0  0  0  0
  1 27  1  0  0  0  0
  2  3  1  0  0  0  0
  2 28  1  0  0  0  0
  2 29  1  0  0  0  0
  3  4  1  0  0  0  0
  4  5  1  0  0  0  0
  4 30  1  0  0  0  0
  4 31  1  0  0  0  0
  5  6  1  0  0  0  0
  5 32  1  0  0  0  0
  5 33  1  0  0  0  0
  6 24  1  0  0  0  0
  6  7  1  0  0  0  0
  7  8  1  0  0  0  0
  7 18  2  0  0  0  0
  8  9  1  0  0  0  0
  8 10  1  0  0  0  0
  8 34  1  0  0  0  0
  9 35  1  0  0  0  0
  9 36  1  0  0  0  0
  9 37  1  0  0  0  0
 10 11  1  0  0  0  0
 10 38  1  0  0  0  0
 11 12  2  0  0  0  0
 11 13  1  0  0  0  0
 13 17  1  0  0  0  0
 13 14  2  0  0  0  0
 14 15  1  0  0  0  0
 14 39  1  0  0  0  0
 15 16  2  0  0  0  0
 15 40  1  0  0  0  0
 16 17  1  0  0  0  0
 16 41  1  0  0  0  0
 18 19  1  0  0  0  0
 19 24  2  0  0  0  0
 19 20  1  0  0  0  0
 20 21  2  0  0  0  0
 20 42  1  0  0  0  0
 21 22  1  0  0  0  0
 21 43  1  0  0  0  0
 22 23  2  0  0  0  0
 22 44  1  0  0  0  0
 23 24  1  0  0  0  0
 23 45  1  0  0  0  0
M  END
> <s_m_source_file>
AV-unprocessed.smi

> <i_m_source_file_index>
500

> <i_lp_mmshare_version>
43012

> <i_f3d_flags>
0

> <s_epik_input>
W0NIM11bQ0gyXU9bQ0gyXVtDSDJdbihjKGMxMilbY0hdW2NIXVtjSF1bY0hdMiljKG4xKVtDQEhdKFtDSDNdKVtOSF1DKD1PKWMzW2NIXVtjSF1bY0hdbzM=

> <s_epik_cmdline>
J2VwaWtfcHl0aG9uJywgJy1waCcsICc3LjAnLCAnLXRuJywgJzgnLCAnLW1hJywgJzIwMCcsICctbWV0YWxfYmluZGluZycsICctaW1hZScsICc8aW5maWxlLm1hZT4nLCAnLW9tYWUnLCAnPG91dGZpbGUubWFlPic=

> <r_epik_Ionization_Penalty>
0.109801

> <r_epik_Ionization_Penalty_Charging>
0

> <r_epik_Ionization_Penalty_Neutral>
0.109801

> <r_epik_State_Penalty>
0.0995533

> <r_epik_Charging_Adjusted_Penalty>
0.0995533

> <i_epik_Tot_Q>
0

> <i_epik_Tot_abs_Q>
0

> <r_epik_Metal_State_Penalty>
0.0918163

> <b_epik_Metal_Only>
0

> <s_lp_Force_Field>
OPLS_2005

> <r_lp_Energy>
7.77682

> <b_lp_Chiralities_Consistent>
1

> <s_lp_Variant>
AV-unprocessed.smi:500-2

> <Gold.Version>
5.8.1

> <Gold.Id.Protein>
6NUR|6NUR_protein|mol2

> <Gold.PLP.Fitness>
40.3564

> <Gold.PLP.PLP>
-36.4123

> <Gold.PLP.part.hbond>
-2.0000

> <Gold.PLP.part.metal>
0.0000

> <Gold.PLP.part.buried>
-5.1097

> <Gold.PLP.part.nonpolar>
-29.7141

> <Gold.PLP.part.repulsive>
0.1231

> <Gold.PLP.ligand.clash>
0.0000

> <Gold.PLP.ligand.torsion>
1.0606

> <Gold.PLP.Chemscore.Hbond>
1.0000

> <Gold.PLP.Chemscore.CHOScore>
1.0000

> <Gold.PLP.Chemscore.Metal>
0.0000

> <Gold.Chemscore.Hbonds>
donor molecule, donor type, donor heavy atom, donor atom, acceptor molecule, acceptor atom, score
      P1  H  6896  6907       L1    18  0.14

> <Gold.PLP.Chemscore.Internal.Correction>
0.0652

> <Gold.Rescore>
     Score         DG    S(hbond)    S(metal)    S(lipo)     H(rot)  DE(clash)    DE(int)     intcor
     10.39     -12.96       0.73        0.00      85.10       1.92       0.08       2.49       ----

> <Gold.Chemscore.Fitness>
10.3867

> <Gold.Chemscore.DG>
-12.9581

> <Gold.Chemscore.ZeroCoef>
-5.4800

> <Gold.Chemscore.Hbond>
0.7262

> <Gold.Chemscore.Metal>
0.0000

> <Gold.Chemscore.Lipo>
85.1004

> <Gold.Chemscore.Internal_Hbond>
0.0000

> <Gold.Chemscore.DEClash>
0.0837

> <Gold.Chemscore.DEInternal>
2.4877

> <Gold.Chemscore.Rot>
1.9156

> <Gold.Chemscore.Internal.Correction>
   9.000000E+99

> <Gold.Chemscore.Hbond.Weighted>
-2.4254

> <Gold.Chemscore.Metal.Weighted>
-0.0000

> <Gold.Chemscore.Lipo.Weighted>
-9.9568

> <Gold.Chemscore.Internal_Hbond.Weighted>
0.0000

> <Gold.Chemscore.DEClash.Weighted>
0.0837

> <Gold.Chemscore.DEInternal.Weighted>
2.4877

> <Gold.Chemscore.Rot.Weighted>
4.9041

> <Gold.Chemscore.Internal.Correction.Weighted>
   9.000000E+99

> <Gold.Protein.RotatedTorsions>
[ 6907 6896 6895 6894 ] final -108.69 input  -60.11 | X-H torsion
[ 7974 7965 7964 7962 ] final   54.51 input  175.53 | X-H torsion
[ 8008 7997 7996 7995 ] final -166.25 input   59.86 | X-H torsion
[ 10167 10162 10161 10158 ] final  -30.87 input  -65.29 | X-H torsion
[ 10718 10713 10712 10709 ] final   23.68 input   66.30 | X-H torsion
[ 10763 10752 10751 10750 ] final  100.68 input  -60.55 | X-H torsion
[ 11005 11000 10999 10996 ] final  -14.97 input  -57.11 | X-H torsion

> <Gold.Protein.ActiveResidues>
 VAL166  LYS551  ARG553  GLY616  TRP617  ASP618  TYR619  PRO620  LYS621  CYS622 
 ASP623  PHE694  ASN695  SER759  ASP760  ASP761  ALA762  ILE779  LEU786  VAL792 
 PHE793  MET794  SER795  GLU796  ALA797  LYS798  CYS799  TRP800  GLU811  SER814 

> <Gold.Protein.RotatedAtoms>
  150.7517  133.9640  159.3524 H   0  0  0  0  0  0  0  0  0  0  0  0  # atno 6907 bound_to 6896
  151.7568  135.0818  160.0349 H   0  0  0  0  0  0  0  0  0  0  0  0  # atno 6908 bound_to 6896
  152.3430  133.6052  159.5926 H   0  0  0  0  0  0  0  0  0  0  0  0  # atno 6909 bound_to 6896
  145.9601  139.4051  143.0253 H   0  0  0  0  0  0  0  0  0  0  0  0  # atno 7974 bound_to 7965
  155.8612  140.0978  157.1612 H   0  0  0  0  0  0  0  0  0  0  0  0  # atno 8008 bound_to 7997
  154.3990  140.1365  156.4025 H   0  0  0  0  0  0  0  0  0  0  0  0  # atno 8009 bound_to 7997
  155.7855  140.3457  155.5323 H   0  0  0  0  0  0  0  0  0  0  0  0  # atno 8010 bound_to 7997
  140.7244  143.3815  151.1592 H   0  0  0  0  0  0  0  0  0  0  0  0  # atno 10167 bound_to 10162
  157.1694  130.6753  149.6072 H   0  0  0  0  0  0  0  0  0  0  0  0  # atno 10718 bound_to 10713
  153.3171  135.4070  155.1385 H   0  0  0  0  0  0  0  0  0  0  0  0  # atno 10763 bound_to 10752
  154.8591  135.3578  154.5646 H   0  0  0  0  0  0  0  0  0  0  0  0  # atno 10764 bound_to 10752
  153.6078  135.7069  153.5418 H   0  0  0  0  0  0  0  0  0  0  0  0  # atno 10765 bound_to 10752
  140.7918  133.8282  155.9387 H   0  0  0  0  0  0  0  0  0  0  0  0  # atno 11005 bound_to 11000
  145.8051  140.9752  143.0978 LP  0  0  0  0  0  0  0  0  0  0  0  0  # atno 17320 bound_to 7965
  144.6813  139.9851  143.7484 LP  0  0  0  0  0  0  0  0  0  0  0  0  # atno 17321 bound_to 7965
  139.7405  143.8932  152.3048 LP  0  0  0  0  0  0  0  0  0  0  0  0  # atno 17342 bound_to 10162
  139.8752  144.7047  150.8942 LP  0  0  0  0  0  0  0  0  0  0  0  0  # atno 17343 bound_to 10162
  155.9741  130.4684  150.6359 LP  0  0  0  0  0  0  0  0  0  0  0  0  # atno 17370 bound_to 10713
  157.4057  131.0816  151.1267 LP  0  0  0  0  0  0  0  0  0  0  0  0  # atno 17371 bound_to 10713
  140.9382  134.1935  157.4817 LP  0  0  0  0  0  0  0  0  0  0  0  0  # atno 17394 bound_to 11000
  139.8730  134.9861  156.5309 LP  0  0  0  0  0  0  0  0  0  0  0  0  # atno 17395 bound_to 11000

$$$$
