AV-unprocessed.smi:3008|AV-procd|sdf|11448|dock1
  -GOLD-   2272016373D 1   1.00000     0.00000
 Structure written by MMmdl.
 38 39  0  0  0  0  0  0  0  0  1 V2000
  147.7962  138.3621  152.4539 N   0  0  0  0  0  0  0  0  0  0  0  0
  147.5978  138.9786  153.6220 C   0  0  0  0  0  0  0  0  0  0  0  0
  146.9050  138.4937  154.5142 O   0  0  0  0  0  0  0  0  0  0  0  0
  148.2738  140.3364  153.8176 C   0  0  0  0  0  0  0  0  0  0  0  0
  149.4095  140.2315  154.7153 N   0  0  0  0  0  0  0  0  0  0  0  0
  149.8662  141.1655  155.6245 C   0  0  0  0  0  0  0  0  0  0  0  0
  150.9514  140.6017  156.2247 C   0  0  0  0  0  0  0  0  0  0  0  0
  151.7255  141.2228  157.2367 N   0  0  0  0  0  0  0  0  0  0  0  0
  151.6229  142.4850  157.6966 C   0  0  0  0  0  0  0  0  0  0  0  0
  150.8207  143.3003  157.2383 O   0  0  0  0  0  0  0  0  0  0  0  0
  152.5221  142.8067  158.6663 N   0  0  0  0  0  0  0  0  0  0  0  0
  153.2870  141.8171  159.4571 C   0  0  0  0  0  0  0  0  0  0  0  0
  153.5039  142.1922  160.9391 C   0  0  0  0  0  0  0  0  0  0  0  0
  152.2610  142.7611  161.6486 C   0  0  0  0  0  0  0  0  0  0  0  0
  152.1125  144.2825  161.4757 C   0  0  0  0  0  0  0  0  0  0  0  0
  151.7840  144.7396  160.0453 C   0  0  0  0  0  0  0  0  0  0  0  0
  152.7742  144.2204  158.9868 C   0  0  0  0  0  0  0  0  0  0  0  0
  151.1029  139.3182  155.6270 C   0  0  0  0  0  0  0  0  0  0  0  0
  150.1650  139.1046  154.7161 N   0  0  0  0  0  0  0  0  0  0  0  0
  147.3630  137.4671  152.2786 H   0  0  0  0  0  0  0  0  0  0  0  0
  148.3725  138.7962  151.7473 H   0  0  0  0  0  0  0  0  0  0  0  0
  148.6223  140.7157  152.8561 H   0  0  0  0  0  0  0  0  0  0  0  0
  147.5629  141.0658  154.2101 H   0  0  0  0  0  0  0  0  0  0  0  0
  149.3888  142.1249  155.7602 H   0  0  0  0  0  0  0  0  0  0  0  0
  152.4318  140.6443  157.6677 H   0  0  0  0  0  0  0  0  0  0  0  0
  152.7815  140.8508  159.4709 H   0  0  0  0  0  0  0  0  0  0  0  0
  154.2500  141.6481  158.9735 H   0  0  0  0  0  0  0  0  0  0  0  0
  153.8257  141.2929  161.4657 H   0  0  0  0  0  0  0  0  0  0  0  0
  154.3372  142.8889  161.0368 H   0  0  0  0  0  0  0  0  0  0  0  0
  151.3585  142.2423  161.3229 H   0  0  0  0  0  0  0  0  0  0  0  0
  152.3543  142.5562  162.7157 H   0  0  0  0  0  0  0  0  0  0  0  0
  151.3264  144.6386  162.1423 H   0  0  0  0  0  0  0  0  0  0  0  0
  153.0274  144.7733  161.8102 H   0  0  0  0  0  0  0  0  0  0  0  0
  150.7665  144.4443  159.7860 H   0  0  0  0  0  0  0  0  0  0  0  0
  151.7888  145.8299  160.0261 H   0  0  0  0  0  0  0  0  0  0  0  0
  153.8035  144.3671  159.3158 H   0  0  0  0  0  0  0  0  0  0  0  0
  152.6899  144.8301  158.0852 H   0  0  0  0  0  0  0  0  0  0  0  0
  151.8351  138.5463  155.8116 H   0  0  0  0  0  0  0  0  0  0  0  0
  1  2  1  0  0  0  0
  1 20  1  0  0  0  0
  1 21  1  0  0  0  0
  2  3  2  0  0  0  0
  2  4  1  0  0  0  0
  4  5  1  0  0  0  0
  4 22  1  0  0  0  0
  4 23  1  0  0  0  0
  5 19  1  0  0  0  0
  5  6  1  0  0  0  0
  6  7  2  0  0  0  0
  6 24  1  0  0  0  0
  7  8  1  0  0  0  0
  7 18  1  0  0  0  0
  8  9  1  0  0  0  0
  8 25  1  0  0  0  0
  9 10  2  0  0  0  0
  9 11  1  0  0  0  0
 11 17  1  0  0  0  0
 11 12  1  0  0  0  0
 12 13  1  0  0  0  0
 12 26  1  0  0  0  0
 12 27  1  0  0  0  0
 13 14  1  0  0  0  0
 13 28  1  0  0  0  0
 13 29  1  0  0  0  0
 14 15  1  0  0  0  0
 14 30  1  0  0  0  0
 14 31  1  0  0  0  0
 15 16  1  0  0  0  0
 15 32  1  0  0  0  0
 15 33  1  0  0  0  0
 16 17  1  0  0  0  0
 16 34  1  0  0  0  0
 16 35  1  0  0  0  0
 17 36  1  0  0  0  0
 17 37  1  0  0  0  0
 18 19  2  0  0  0  0
 18 38  1  0  0  0  0
M  END
> <s_m_source_file>
AV-unprocessed.smi

> <i_m_source_file_index>
3008

> <i_lp_mmshare_version>
43012

> <i_f3d_flags>
0

> <s_epik_input>
W05IMl1DKD1PKVtDSDJdbjFbY0hdYyhbY0hdbjEpW05IXUMoPU8pTjJbQ0gyXVtDSDJdW0NIMl1bQ0gyXVtDSDJdW0NIMl0y

> <s_epik_cmdline>
J2VwaWtfcHl0aG9uJywgJy1waCcsICc3LjAnLCAnLXRuJywgJzgnLCAnLW1hJywgJzIwMCcsICctbWV0YWxfYmluZGluZycsICctaW1hZScsICc8aW5maWxlLm1hZT4nLCAnLW9tYWUnLCAnPG91dGZpbGUubWFlPic=

> <r_lp_tautomer_probability>
1

> <r_epik_Ionization_Penalty>
4.99812e-05

> <r_epik_Ionization_Penalty_Charging>
0

> <r_epik_Ionization_Penalty_Neutral>
4.99812e-05

> <r_epik_State_Penalty>
-0

> <r_epik_Charging_Adjusted_Penalty>
0

> <i_epik_Tot_Q>
0

> <i_epik_Tot_abs_Q>
0

> <r_epik_Metal_State_Penalty>
-0

> <b_epik_Metal_Only>
0

> <s_lp_Force_Field>
OPLS_2005

> <r_lp_Energy>
37.733

> <b_lp_Chiralities_Consistent>
1

> <s_lp_Variant>
AV-unprocessed.smi:3008-1

> <Gold.Version>
5.8.1

> <Gold.Id.Protein>
6NUR|6NUR_protein|mol2

> <Gold.PLP.Fitness>
48.3616

> <Gold.PLP.PLP>
-43.6474

> <Gold.PLP.part.hbond>
-2.0474

> <Gold.PLP.part.metal>
0.0000

> <Gold.PLP.part.buried>
-4.7081

> <Gold.PLP.part.nonpolar>
-39.4027

> <Gold.PLP.part.repulsive>
2.6571

> <Gold.PLP.ligand.clash>
0.0000

> <Gold.PLP.ligand.torsion>
0.6493

> <Gold.PLP.Chemscore.Hbond>
0.9920

> <Gold.PLP.Chemscore.CHOScore>
1.0000

> <Gold.PLP.Chemscore.Metal>
0.0000

> <Gold.Chemscore.Hbonds>
donor molecule, donor type, donor heavy atom, donor atom, acceptor molecule, acceptor atom, score
      L1  H     1    20       P1  7948  0.06
      L1  H     1    21       P1  7957  1.00
      L1  C     6    24       P1  8028  0.72

> <Gold.PLP.Chemscore.Internal.Correction>
0.0366

> <Gold.Rescore>
     Score         DG    S(hbond)    S(metal)    S(lipo)     H(rot)  DE(clash)    DE(int)     intcor
     14.55     -16.38       0.98        0.00      98.44       1.52       0.04       1.79       ----

> <Gold.Chemscore.Fitness>
14.5527

> <Gold.Chemscore.DG>
-16.3816

> <Gold.Chemscore.ZeroCoef>
-5.4800

> <Gold.Chemscore.Hbond>
0.9790

> <Gold.Chemscore.Metal>
0.0000

> <Gold.Chemscore.Lipo>
98.4350

> <Gold.Chemscore.Internal_Hbond>
0.0000

> <Gold.Chemscore.DEClash>
0.0437

> <Gold.Chemscore.DEInternal>
1.7852

> <Gold.Chemscore.Rot>
1.5176

> <Gold.Chemscore.Internal.Correction>
   9.000000E+99

> <Gold.Chemscore.Hbonds>
donor molecule, donor type, donor heavy atom, donor atom, acceptor molecule, acceptor atom, score
      L1  H     1    20       P1  7948  0.08
      L1  H     1    21       P1  7957  0.73

> <Gold.Chemscore.Hbond.Weighted>
-3.2698

> <Gold.Chemscore.Metal.Weighted>
-0.0000

> <Gold.Chemscore.Lipo.Weighted>
-11.5169

> <Gold.Chemscore.Internal_Hbond.Weighted>
0.0000

> <Gold.Chemscore.DEClash.Weighted>
0.0437

> <Gold.Chemscore.DEInternal.Weighted>
1.7852

> <Gold.Chemscore.Rot.Weighted>
3.8851

> <Gold.Chemscore.Internal.Correction.Weighted>
   9.000000E+99

> <Gold.Protein.RotatedTorsions>
[ 6907 6896 6895 6894 ] final  169.21 input  -60.11 | X-H torsion
[ 7974 7965 7964 7962 ] final   54.59 input  175.53 | X-H torsion
[ 8008 7997 7996 7995 ] final  168.01 input   59.86 | X-H torsion
[ 10167 10162 10161 10158 ] final  178.98 input  -65.29 | X-H torsion
[ 10718 10713 10712 10709 ] final   24.73 input   66.30 | X-H torsion
[ 10763 10752 10751 10750 ] final  -86.52 input  -60.55 | X-H torsion
[ 11005 11000 10999 10996 ] final -123.24 input  -57.11 | X-H torsion

> <Gold.Protein.ActiveResidues>
 VAL166  LYS551  ARG553  GLY616  TRP617  ASP618  TYR619  PRO620  LYS621  CYS622 
 ASP623  PHE694  ASN695  SER759  ASP760  ASP761  ALA762  ILE779  LEU786  VAL792 
 PHE793  MET794  SER795  GLU796  ALA797  LYS798  CYS799  TRP800  GLU811  SER814 

> <Gold.Protein.RotatedAtoms>
  151.8355  133.3415  159.3626 H   0  0  0  0  0  0  0  0  0  0  0  0  # atno 6907 bound_to 6896
  150.7251  134.5441  159.5771 H   0  0  0  0  0  0  0  0  0  0  0  0  # atno 6908 bound_to 6896
  152.2904  134.7729  160.0430 H   0  0  0  0  0  0  0  0  0  0  0  0  # atno 6909 bound_to 6896
  145.9593  139.4044  143.0258 H   0  0  0  0  0  0  0  0  0  0  0  0  # atno 7974 bound_to 7965
  156.1584  140.1601  156.8654 H   0  0  0  0  0  0  0  0  0  0  0  0  # atno 8008 bound_to 7997
  154.5137  140.0795  156.8075 H   0  0  0  0  0  0  0  0  0  0  0  0  # atno 8009 bound_to 7997
  155.3757  140.3402  155.4247 H   0  0  0  0  0  0  0  0  0  0  0  0  # atno 8010 bound_to 7997
  139.5317  144.2615  152.0703 H   0  0  0  0  0  0  0  0  0  0  0  0  # atno 10167 bound_to 10162
  157.1838  130.6815  149.6123 H   0  0  0  0  0  0  0  0  0  0  0  0  # atno 10718 bound_to 10713
  154.6234  135.5446  153.7600 H   0  0  0  0  0  0  0  0  0  0  0  0  # atno 10763 bound_to 10752
  153.0249  135.6418  154.1408 H   0  0  0  0  0  0  0  0  0  0  0  0  # atno 10764 bound_to 10752
  154.1341  135.2912  155.3157 H   0  0  0  0  0  0  0  0  0  0  0  0  # atno 10765 bound_to 10752
  140.9934  134.0507  157.3627 H   0  0  0  0  0  0  0  0  0  0  0  0  # atno 11005 bound_to 11000
  145.8062  140.9747  143.0973 LP  0  0  0  0  0  0  0  0  0  0  0  0  # atno 17320 bound_to 7965
  144.6811  139.9864  143.7484 LP  0  0  0  0  0  0  0  0  0  0  0  0  # atno 17321 bound_to 7965
  140.2080  144.4592  150.6399 LP  0  0  0  0  0  0  0  0  0  0  0  0  # atno 17342 bound_to 10162
  140.6499  143.2222  151.6101 LP  0  0  0  0  0  0  0  0  0  0  0  0  # atno 17343 bound_to 10162
  155.9721  130.4637  150.6193 LP  0  0  0  0  0  0  0  0  0  0  0  0  # atno 17370 bound_to 10713
  157.3927  131.0798  151.1379 LP  0  0  0  0  0  0  0  0  0  0  0  0  # atno 17371 bound_to 10713
  139.9003  135.0162  156.7235 LP  0  0  0  0  0  0  0  0  0  0  0  0  # atno 17394 bound_to 11000
  140.7004  133.9311  155.8021 LP  0  0  0  0  0  0  0  0  0  0  0  0  # atno 17395 bound_to 11000

$$$$
