AV-unprocessed.smi:2334|AV-procd|sdf|9321|dock10
  -GOLD-   2272012543D 1   1.00000     0.00000
 Structure written by MMmdl.
 49 51  0  0  0  0  0  0  0  0  1 V2000
  148.7619  139.3606  154.0845 C   0  0  0  0  0  0  0  0  0  0  0  0
  149.8776  139.1474  155.0928 C   0  0  0  0  0  0  0  0  0  0  0  0
  150.3076  140.2615  155.7245 N   0  0  0  0  0  0  0  0  0  0  0  0
  151.2950  140.1604  156.6451 C   0  0  0  0  0  0  0  0  0  0  0  0
  151.7158  141.3471  157.2772 N   0  0  0  0  0  0  0  0  0  0  0  0
  151.0132  142.6070  157.0884 C   0  0  0  0  0  0  0  0  0  0  0  0
  151.6937  143.5769  158.0530 C   0  0  0  0  0  0  0  0  0  0  0  0
  152.1060  142.6752  159.2167 C   0  0  0  0  0  0  0  0  0  0  0  0
  152.4154  141.3275  158.5546 C   0  0  0  0  0  0  0  0  0  0  0  0
  151.8920  138.9179  156.9592 C   0  0  0  0  0  0  0  0  0  0  0  0
  151.4456  137.7569  156.3011 C   0  0  0  0  0  0  0  0  0  0  0  0
  150.4193  137.8628  155.3332 C   0  0  0  0  0  0  0  0  0  0  0  0
  149.8867  136.7434  154.6342 N   0  0  0  0  0  0  0  0  0  0  0  0
  149.6199  135.5138  155.1064 C   0  0  0  0  0  0  0  0  0  0  0  0
  149.8256  135.1399  156.2604 O   0  0  0  0  0  0  0  0  0  0  0  0
  149.1156  134.7297  154.1389 N   0  0  0  0  0  0  0  0  0  0  0  0
  148.7130  133.3173  154.2208 C   0  0  0  0  0  0  0  0  0  0  0  0
  149.8760  132.4700  154.7809 C   0  0  0  0  0  0  0  0  0  0  0  0
  147.5077  133.2247  155.1817 C   0  0  0  0  0  0  0  0  0  0  0  0
  146.2423  133.8745  154.5897 C   0  0  0  0  0  0  0  0  0  0  0  0
  145.9266  133.2784  153.3372 O   0  0  0  0  0  0  0  0  0  0  0  0
  146.9529  133.4514  152.3669 C   0  0  0  0  0  0  0  0  0  0  0  0
  148.2481  132.7726  152.8479 C   0  0  0  0  0  0  0  0  0  0  0  0
  149.0739  139.0215  153.0961 H   0  0  0  0  0  0  0  0  0  0  0  0
  148.4864  140.4134  154.0072 H   0  0  0  0  0  0  0  0  0  0  0  0
  147.8734  138.8007  154.3783 H   0  0  0  0  0  0  0  0  0  0  0  0
  151.0766  142.9531  156.0560 H   0  0  0  0  0  0  0  0  0  0  0  0
  149.9611  142.4804  157.3479 H   0  0  0  0  0  0  0  0  0  0  0  0
  152.5823  144.0022  157.5843 H   0  0  0  0  0  0  0  0  0  0  0  0
  151.0449  144.3988  158.3563 H   0  0  0  0  0  0  0  0  0  0  0  0
  152.9484  143.0705  159.7848 H   0  0  0  0  0  0  0  0  0  0  0  0
  151.2652  142.5595  159.9019 H   0  0  0  0  0  0  0  0  0  0  0  0
  152.0952  140.5002  159.1890 H   0  0  0  0  0  0  0  0  0  0  0  0
  153.4848  141.2238  158.3682 H   0  0  0  0  0  0  0  0  0  0  0  0
  152.6830  138.8389  157.6900 H   0  0  0  0  0  0  0  0  0  0  0  0
  151.8895  136.8089  156.5619 H   0  0  0  0  0  0  0  0  0  0  0  0
  149.7552  136.8765  153.6423 H   0  0  0  0  0  0  0  0  0  0  0  0
  148.9996  135.1564  153.2314 H   0  0  0  0  0  0  0  0  0  0  0  0
  149.5699  131.4356  154.9405 H   0  0  0  0  0  0  0  0  0  0  0  0
  150.2245  132.8587  155.7383 H   0  0  0  0  0  0  0  0  0  0  0  0
  150.7294  132.4465  154.1033 H   0  0  0  0  0  0  0  0  0  0  0  0
  147.2886  132.1775  155.3949 H   0  0  0  0  0  0  0  0  0  0  0  0
  147.7473  133.6847  156.1413 H   0  0  0  0  0  0  0  0  0  0  0  0
  145.3995  133.7317  155.2661 H   0  0  0  0  0  0  0  0  0  0  0  0
  146.3693  134.9514  154.4694 H   0  0  0  0  0  0  0  0  0  0  0  0
  146.6248  133.0044  151.4285 H   0  0  0  0  0  0  0  0  0  0  0  0
  147.1123  134.5128  152.1715 H   0  0  0  0  0  0  0  0  0  0  0  0
  149.0263  132.8776  152.0924 H   0  0  0  0  0  0  0  0  0  0  0  0
  148.0628  131.7007  152.9309 H   0  0  0  0  0  0  0  0  0  0  0  0
  1  2  1  0  0  0  0
  1 24  1  0  0  0  0
  1 25  1  0  0  0  0
  1 26  1  0  0  0  0
  2 12  1  0  0  0  0
  2  3  2  0  0  0  0
  3  4  1  0  0  0  0
  4  5  1  0  0  0  0
  4 10  2  0  0  0  0
  5  9  1  0  0  0  0
  5  6  1  0  0  0  0
  6  7  1  0  0  0  0
  6 27  1  0  0  0  0
  6 28  1  0  0  0  0
  7  8  1  0  0  0  0
  7 29  1  0  0  0  0
  7 30  1  0  0  0  0
  8  9  1  0  0  0  0
  8 31  1  0  0  0  0
  8 32  1  0  0  0  0
  9 33  1  0  0  0  0
  9 34  1  0  0  0  0
 10 11  1  0  0  0  0
 10 35  1  0  0  0  0
 11 12  2  0  0  0  0
 11 36  1  0  0  0  0
 12 13  1  0  0  0  0
 13 14  1  0  0  0  0
 13 37  1  0  0  0  0
 14 15  2  0  0  0  0
 14 16  1  0  0  0  0
 16 17  1  0  0  0  0
 16 38  1  0  0  0  0
 17 23  1  0  0  0  0
 17 18  1  0  0  0  0
 17 19  1  0  0  0  0
 18 39  1  0  0  0  0
 18 40  1  0  0  0  0
 18 41  1  0  0  0  0
 19 20  1  0  0  0  0
 19 42  1  0  0  0  0
 19 43  1  0  0  0  0
 20 21  1  0  0  0  0
 20 44  1  0  0  0  0
 20 45  1  0  0  0  0
 21 22  1  0  0  0  0
 22 23  1  0  0  0  0
 22 46  1  0  0  0  0
 22 47  1  0  0  0  0
 23 48  1  0  0  0  0
 23 49  1  0  0  0  0
M  END
> <s_m_source_file>
AV-unprocessed.smi

> <i_m_source_file_index>
2334

> <i_lp_mmshare_version>
43012

> <i_f3d_flags>
0

> <s_epik_input>
W0NIMl0xW0NIMl1bQ0gyXVtDSDJdTjFjKG5jMltDSDNdKVtjSF1bY0hdYzJbTkhdQyg9TylbTkhdQzMoW0NIM10pW0NIMl1bQ0gyXU9bQ0gyXVtDSDJdMw==

> <s_epik_cmdline>
J2VwaWtfcHl0aG9uJywgJy1waCcsICc3LjAnLCAnLXRuJywgJzgnLCAnLW1hJywgJzIwMCcsICctbWV0YWxfYmluZGluZycsICctaW1hZScsICc8aW5maWxlLm1hZT4nLCAnLW9tYWUnLCAnPG91dGZpbGUubWFlPic=

> <r_lp_tautomer_probability>
1

> <r_epik_Ionization_Penalty>
0.314437

> <r_epik_Ionization_Penalty_Charging>
0

> <r_epik_Ionization_Penalty_Neutral>
0.314437

> <r_epik_State_Penalty>
0.308039

> <r_epik_Charging_Adjusted_Penalty>
0.308039

> <i_epik_Tot_Q>
0

> <i_epik_Tot_abs_Q>
0

> <r_epik_Metal_State_Penalty>
0.200041

> <b_epik_Metal_Only>
0

> <s_lp_Force_Field>
OPLS_2005

> <r_lp_Energy>
36.0775

> <b_lp_Chiralities_Consistent>
1

> <s_lp_Variant>
AV-unprocessed.smi:2334-1

> <Gold.Version>
5.8.1

> <Gold.Id.Protein>
6NUR|6NUR_protein|mol2

> <Gold.PLP.Fitness>
39.4647

> <Gold.PLP.PLP>
-34.2031

> <Gold.PLP.part.hbond>
-2.0000

> <Gold.PLP.part.metal>
0.0000

> <Gold.PLP.part.buried>
-4.1147

> <Gold.PLP.part.nonpolar>
-28.1491

> <Gold.PLP.part.repulsive>
0.1991

> <Gold.PLP.ligand.clash>
0.0000

> <Gold.PLP.ligand.torsion>
0.4654

> <Gold.PLP.Chemscore.Hbond>
2.0000

> <Gold.PLP.Chemscore.CHOScore>
0.0000

> <Gold.PLP.Chemscore.Metal>
0.0000

> <Gold.Chemscore.Hbonds>
donor molecule, donor type, donor heavy atom, donor atom, acceptor molecule, acceptor atom, score
      L1  H    13    37       P1  7948  1.00
      L1  H    16    38       P1  7948  1.00

> <Gold.PLP.Chemscore.Internal.Correction>
0.1924

> <Gold.Rescore>
     Score         DG    S(hbond)    S(metal)    S(lipo)     H(rot)  DE(clash)    DE(int)     intcor
     17.23     -19.14       1.83        0.00      86.44       1.00       0.03       1.87       ----

> <Gold.Chemscore.Fitness>
17.2323

> <Gold.Chemscore.DG>
-19.1369

> <Gold.Chemscore.ZeroCoef>
-5.4800

> <Gold.Chemscore.Hbond>
1.8275

> <Gold.Chemscore.Metal>
0.0000

> <Gold.Chemscore.Lipo>
86.4368

> <Gold.Chemscore.Internal_Hbond>
0.0000

> <Gold.Chemscore.DEClash>
0.0323

> <Gold.Chemscore.DEInternal>
1.8724

> <Gold.Chemscore.Rot>
1.0000

> <Gold.Chemscore.Internal.Correction>
   9.000000E+99

> <Gold.Chemscore.Hbonds>
donor molecule, donor type, donor heavy atom, donor atom, acceptor molecule, acceptor atom, score
      L1  H    13    37       P1  7948  0.54
      L1  H    16    38       P1  7948  0.30

> <Gold.Chemscore.Hbond.Weighted>
-6.1038

> <Gold.Chemscore.Metal.Weighted>
-0.0000

> <Gold.Chemscore.Lipo.Weighted>
-10.1131

> <Gold.Chemscore.Internal_Hbond.Weighted>
0.0000

> <Gold.Chemscore.DEClash.Weighted>
0.0323

> <Gold.Chemscore.DEInternal.Weighted>
1.8724

> <Gold.Chemscore.Rot.Weighted>
2.5600

> <Gold.Chemscore.Internal.Correction.Weighted>
   9.000000E+99

> <Gold.Protein.RotatedTorsions>
[ 6907 6896 6895 6894 ] final   51.09 input  -60.11 | X-H torsion
[ 7974 7965 7964 7962 ] final -147.31 input  175.53 | X-H torsion
[ 8008 7997 7996 7995 ] final  161.22 input   59.86 | X-H torsion
[ 10167 10162 10161 10158 ] final  -14.86 input  -65.29 | X-H torsion
[ 10718 10713 10712 10709 ] final  -51.07 input   66.30 | X-H torsion
[ 10763 10752 10751 10750 ] final -112.97 input  -60.55 | X-H torsion
[ 11005 11000 10999 10996 ] final   20.04 input  -57.11 | X-H torsion

> <Gold.Protein.ActiveResidues>
 VAL166  LYS551  ARG553  GLY616  TRP617  ASP618  TYR619  PRO620  LYS621  CYS622 
 ASP623  PHE694  ASN695  SER759  ASP760  ASP761  ALA762  ILE779  LEU786  VAL792 
 PHE793  MET794  SER795  GLU796  ALA797  LYS798  CYS799  TRP800  GLU811  SER814 

> <Gold.Protein.RotatedAtoms>
  152.3089  134.7522  160.0340 H   0  0  0  0  0  0  0  0  0  0  0  0  # atno 6907 bound_to 6896
  151.8010  133.3364  159.3535 H   0  0  0  0  0  0  0  0  0  0  0  0  # atno 6908 bound_to 6896
  150.7310  134.5684  159.5922 H   0  0  0  0  0  0  0  0  0  0  0  0  # atno 6909 bound_to 6896
  144.8102  140.5344  143.5648 H   0  0  0  0  0  0  0  0  0  0  0  0  # atno 7974 bound_to 7965
  156.2118  140.1783  156.7678 H   0  0  0  0  0  0  0  0  0  0  0  0  # atno 8008 bound_to 7997
  154.5733  140.0678  156.9027 H   0  0  0  0  0  0  0  0  0  0  0  0  # atno 8009 bound_to 7997
  155.2632  140.3337  155.4274 H   0  0  0  0  0  0  0  0  0  0  0  0  # atno 8010 bound_to 7997
  140.7208  143.5278  150.9556 H   0  0  0  0  0  0  0  0  0  0  0  0  # atno 10167 bound_to 10162
  156.1743  130.4149  149.9600 H   0  0  0  0  0  0  0  0  0  0  0  0  # atno 10718 bound_to 10713
  154.8374  135.4471  154.1276 H   0  0  0  0  0  0  0  0  0  0  0  0  # atno 10763 bound_to 10752
  153.2495  135.6925  153.7701 H   0  0  0  0  0  0  0  0  0  0  0  0  # atno 10764 bound_to 10752
  153.7019  135.3370  155.3202 H   0  0  0  0  0  0  0  0  0  0  0  0  # atno 10765 bound_to 10752
  140.4070  134.1658  155.7665 H   0  0  0  0  0  0  0  0  0  0  0  0  # atno 11005 bound_to 11000
  145.5342  139.1475  143.3483 LP  0  0  0  0  0  0  0  0  0  0  0  0  # atno 17320 bound_to 7965
  146.2399  140.5482  142.8938 LP  0  0  0  0  0  0  0  0  0  0  0  0  # atno 17321 bound_to 7965
  139.8997  143.6850  152.3133 LP  0  0  0  0  0  0  0  0  0  0  0  0  # atno 17342 bound_to 10162
  139.7196  144.7605  151.0977 LP  0  0  0  0  0  0  0  0  0  0  0  0  # atno 17343 bound_to 10162
  156.7390  130.9072  151.3631 LP  0  0  0  0  0  0  0  0  0  0  0  0  # atno 17370 bound_to 10713
  157.6825  130.9153  150.0302 LP  0  0  0  0  0  0  0  0  0  0  0  0  # atno 17371 bound_to 10713
  141.1835  133.8362  157.1171 LP  0  0  0  0  0  0  0  0  0  0  0  0  # atno 17394 bound_to 11000
  140.0295  134.9908  157.0752 LP  0  0  0  0  0  0  0  0  0  0  0  0  # atno 17395 bound_to 11000

$$$$
