AV-unprocessed.smi:826|AV-procd|sdf|3853|dock3
  -GOLD-   22720 1303D 1   1.00000     0.00000
 Structure written by MMmdl.
 39 40  0  0  0  0  0  0  0  0  1 V2000
  137.3749  137.2770  154.9291 C   0  0  0  0  0  0  0  0  0  0  0  0
  138.8352  137.2869  154.6316 C   0  0  0  0  0  0  0  0  0  0  0  0
  139.7540  136.9034  155.5259 N   0  0  0  0  0  0  0  0  0  0  0  0
  141.0457  137.0005  155.0278 N   0  0  0  0  0  0  0  0  0  0  0  0
  141.0626  137.4561  153.7675 C   0  0  0  0  0  0  0  0  0  0  0  0
  142.2513  137.6608  153.0184 N   0  0  0  0  0  0  0  0  0  0  0  0
  143.5208  137.4201  153.3899 C   0  0  0  0  0  0  0  0  0  0  0  0
  143.8678  136.9242  154.4624 O   0  0  0  0  0  0  0  0  0  0  0  0
  144.3866  137.7939  152.4351 N   0  0  0  0  0  0  0  0  0  0  0  0
  145.8425  137.7071  152.5402 C   0  0  1  0  0  0  0  0  0  0  0  0
  146.4503  138.1930  151.2140 C   0  0  0  0  0  0  0  0  0  0  0  0
  146.3525  138.6129  153.6724 C   0  0  0  0  0  0  0  0  0  0  0  0
  147.0568  138.1532  154.5728 O   0  0  0  0  0  0  0  0  0  0  0  0
  145.9848  139.9014  153.6106 N   0  0  0  0  0  0  0  0  0  0  0  0
  146.3840  140.9353  154.5610 C   0  0  0  0  0  0  0  0  0  0  0  0
  145.1503  141.5647  155.2361 C   0  0  0  0  0  0  0  0  0  0  0  0
  145.3431  143.0794  155.1443 C   0  0  0  0  0  0  0  0  0  0  0  0
  146.1596  143.2787  153.8718 C   0  0  0  0  0  0  0  0  0  0  0  0
  147.1232  142.0919  153.8572 C   0  0  0  0  0  0  0  0  0  0  0  0
  139.4854  137.8051  153.0805 S   0  0  0  0  0  0  0  0  0  0  0  0
  137.0587  136.2752  155.2212 H   0  0  0  0  0  0  0  0  0  0  0  0
  136.8055  137.5808  154.0507 H   0  0  0  0  0  0  0  0  0  0  0  0
  137.1548  137.9671  155.7440 H   0  0  0  0  0  0  0  0  0  0  0  0
  142.1210  138.0570  152.0992 H   0  0  0  0  0  0  0  0  0  0  0  0
  144.0169  138.1956  151.5860 H   0  0  0  0  0  0  0  0  0  0  0  0
  146.1387  136.6714  152.7189 H   0  0  0  0  0  0  0  0  0  0  0  0
  147.5399  138.1491  151.2393 H   0  0  0  0  0  0  0  0  0  0  0  0
  146.1641  139.2213  150.9871 H   0  0  0  0  0  0  0  0  0  0  0  0
  146.1204  137.5689  150.3829 H   0  0  0  0  0  0  0  0  0  0  0  0
  145.4066  140.1924  152.8357 H   0  0  0  0  0  0  0  0  0  0  0  0
  147.0319  140.5002  155.3242 H   0  0  0  0  0  0  0  0  0  0  0  0
  144.2382  141.2916  154.7031 H   0  0  0  0  0  0  0  0  0  0  0  0
  145.0309  141.2317  156.2674 H   0  0  0  0  0  0  0  0  0  0  0  0
  144.3981  143.6229  155.1277 H   0  0  0  0  0  0  0  0  0  0  0  0
  145.9147  143.4305  156.0042 H   0  0  0  0  0  0  0  0  0  0  0  0
  145.5030  143.2295  153.0022 H   0  0  0  0  0  0  0  0  0  0  0  0
  146.6746  144.2394  153.8480 H   0  0  0  0  0  0  0  0  0  0  0  0
  148.0159  142.3468  154.4297 H   0  0  0  0  0  0  0  0  0  0  0  0
  147.4528  141.8488  152.8458 H   0  0  0  0  0  0  0  0  0  0  0  0
  1  2  1  0  0  0  0
  1 21  1  0  0  0  0
  1 22  1  0  0  0  0
  1 23  1  0  0  0  0
  2 20  1  0  0  0  0
  2  3  2  0  0  0  0
  3  4  1  0  0  0  0
  4  5  2  0  0  0  0
  5  6  1  0  0  0  0
  5 20  1  0  0  0  0
  6  7  1  0  0  0  0
  6 24  1  0  0  0  0
  7  8  2  0  0  0  0
  7  9  1  0  0  0  0
  9 10  1  0  0  0  0
  9 25  1  0  0  0  0
 10 11  1  0  0  0  0
 10 12  1  0  0  0  0
 10 26  1  0  0  0  0
 11 27  1  0  0  0  0
 11 28  1  0  0  0  0
 11 29  1  0  0  0  0
 12 13  2  0  0  0  0
 12 14  1  0  0  0  0
 14 15  1  0  0  0  0
 14 30  1  0  0  0  0
 15 19  1  0  0  0  0
 15 16  1  0  0  0  0
 15 31  1  0  0  0  0
 16 17  1  0  0  0  0
 16 32  1  0  0  0  0
 16 33  1  0  0  0  0
 17 18  1  0  0  0  0
 17 34  1  0  0  0  0
 17 35  1  0  0  0  0
 18 19  1  0  0  0  0
 18 36  1  0  0  0  0
 18 37  1  0  0  0  0
 19 38  1  0  0  0  0
 19 39  1  0  0  0  0
M  END
> <s_m_source_file>
AV-unprocessed.smi

> <i_m_source_file_index>
826

> <i_lp_mmshare_version>
43012

> <i_f3d_flags>
0

> <s_epik_input>
W0NIM11jMW5uYyhzMSlbTkhdQyg9TylbTkhdW0NASF0oW0NIM10pQyg9TylbTkhdW0NIXTJbQ0gyXVtDSDJdW0NIMl1bQ0gyXTI=

> <s_epik_cmdline>
J2VwaWtfcHl0aG9uJywgJy1waCcsICc3LjAnLCAnLXRuJywgJzgnLCAnLW1hJywgJzIwMCcsICctbWV0YWxfYmluZGluZycsICctaW1hZScsICc8aW5maWxlLm1hZT4nLCAnLW9tYWUnLCAnPG91dGZpbGUubWFlPic=

> <r_lp_tautomer_probability>
1

> <r_epik_Ionization_Penalty>
0.00368568

> <r_epik_Ionization_Penalty_Charging>
0

> <r_epik_Ionization_Penalty_Neutral>
0.00368568

> <r_epik_State_Penalty>
-0

> <r_epik_Charging_Adjusted_Penalty>
0

> <i_epik_Tot_Q>
0

> <i_epik_Tot_abs_Q>
0

> <r_epik_Metal_State_Penalty>
0.369753

> <b_epik_Metal_Only>
0

> <s_lp_Force_Field>
OPLS_2005

> <r_lp_Energy>
15.8717

> <b_lp_Chiralities_Consistent>
1

> <s_lp_Variant>
AV-unprocessed.smi:826-2

> <Gold.Version>
5.8.1

> <Gold.Id.Protein>
6NUR|6NUR_protein|mol2

> <Gold.PLP.Fitness>
41.5977

> <Gold.PLP.PLP>
-33.0075

> <Gold.PLP.part.hbond>
-4.8251

> <Gold.PLP.part.metal>
0.0000

> <Gold.PLP.part.buried>
-2.9959

> <Gold.PLP.part.nonpolar>
-26.4090

> <Gold.PLP.part.repulsive>
0.2094

> <Gold.PLP.ligand.clash>
0.0000

> <Gold.PLP.ligand.torsion>
0.0518

> <Gold.PLP.Chemscore.Hbond>
2.8960

> <Gold.PLP.Chemscore.CHOScore>
0.0000

> <Gold.PLP.Chemscore.Metal>
0.0000

> <Gold.Chemscore.Hbonds>
donor molecule, donor type, donor heavy atom, donor atom, acceptor molecule, acceptor atom, score
      L1  H     9    25       P1 10171  1.00
      L1  H    14    30       P1 10175  0.80
      P1  H 11000 11005       L1     3  0.68

> <Gold.PLP.Chemscore.Internal.Correction>
0.0058

> <Gold.Rescore>
     Score         DG    S(hbond)    S(metal)    S(lipo)     H(rot)  DE(clash)    DE(int)     intcor
     15.24     -17.06       2.57        0.00      61.48       1.65       0.47       1.34       ----

> <Gold.Chemscore.Fitness>
15.2448

> <Gold.Chemscore.DG>
-17.0556

> <Gold.Chemscore.ZeroCoef>
-5.4800

> <Gold.Chemscore.Hbond>
2.5735

> <Gold.Chemscore.Metal>
0.0000

> <Gold.Chemscore.Lipo>
61.4836

> <Gold.Chemscore.Internal_Hbond>
0.0000

> <Gold.Chemscore.DEClash>
0.4749

> <Gold.Chemscore.DEInternal>
1.3360

> <Gold.Chemscore.Rot>
1.6458

> <Gold.Chemscore.Internal.Correction>
   9.000000E+99

> <Gold.Chemscore.Hbonds>
donor molecule, donor type, donor heavy atom, donor atom, acceptor molecule, acceptor atom, score
      L1  H     9    25       P1 10171  0.99
      L1  H    14    30       P1 10175  0.77
      P1  H 11000 11005       L1     3  0.17

> <Gold.Chemscore.Hbond.Weighted>
-8.5953

> <Gold.Chemscore.Metal.Weighted>
-0.0000

> <Gold.Chemscore.Lipo.Weighted>
-7.1936

> <Gold.Chemscore.Internal_Hbond.Weighted>
0.0000

> <Gold.Chemscore.DEClash.Weighted>
0.4749

> <Gold.Chemscore.DEInternal.Weighted>
1.3360

> <Gold.Chemscore.Rot.Weighted>
4.2133

> <Gold.Chemscore.Internal.Correction.Weighted>
   9.000000E+99

> <Gold.Protein.RotatedTorsions>
[ 6907 6896 6895 6894 ] final  169.06 input  -60.11 | X-H torsion
[ 7974 7965 7964 7962 ] final  122.84 input  175.53 | X-H torsion
[ 8008 7997 7996 7995 ] final  -67.83 input   59.86 | X-H torsion
[ 10167 10162 10161 10158 ] final   65.09 input  -65.29 | X-H torsion
[ 10718 10713 10712 10709 ] final   77.79 input   66.30 | X-H torsion
[ 10763 10752 10751 10750 ] final  110.84 input  -60.55 | X-H torsion
[ 11005 11000 10999 10996 ] final  105.88 input  -57.11 | X-H torsion

> <Gold.Protein.ActiveResidues>
 VAL166  LYS551  ARG553  GLY616  TRP617  ASP618  TYR619  PRO620  LYS621  CYS622 
 ASP623  PHE694  ASN695  SER759  ASP760  ASP761  ALA762  ILE779  LEU786  VAL792 
 PHE793  MET794  SER795  GLU796  ALA797  LYS798  CYS799  TRP800  GLU811  SER814 

> <Gold.Protein.RotatedAtoms>
  151.8378  133.3419  159.3633 H   0  0  0  0  0  0  0  0  0  0  0  0  # atno 6907 bound_to 6896
  150.7244  134.5420  159.5761 H   0  0  0  0  0  0  0  0  0  0  0  0  # atno 6908 bound_to 6896
  152.2887  134.7747  160.0433 H   0  0  0  0  0  0  0  0  0  0  0  0  # atno 6909 bound_to 6896
  145.1029  139.3506  143.4803 H   0  0  0  0  0  0  0  0  0  0  0  0  # atno 7974 bound_to 7965
  154.4826  140.0885  156.7413 H   0  0  0  0  0  0  0  0  0  0  0  0  # atno 8008 bound_to 7997
  155.4431  140.3454  155.4274 H   0  0  0  0  0  0  0  0  0  0  0  0  # atno 8009 bound_to 7997
  156.1214  140.1475  156.9187 H   0  0  0  0  0  0  0  0  0  0  0  0  # atno 8010 bound_to 7997
  140.1151  144.4783  150.6954 H   0  0  0  0  0  0  0  0  0  0  0  0  # atno 10167 bound_to 10162
  157.6723  130.9838  150.1692 H   0  0  0  0  0  0  0  0  0  0  0  0  # atno 10718 bound_to 10713
  153.4547  135.3736  155.2304 H   0  0  0  0  0  0  0  0  0  0  0  0  # atno 10763 bound_to 10752
  154.8757  135.3894  154.3996 H   0  0  0  0  0  0  0  0  0  0  0  0  # atno 10764 bound_to 10752
  153.4560  135.7086  153.6143 H   0  0  0  0  0  0  0  0  0  0  0  0  # atno 10765 bound_to 10752
  139.8807  134.9351  156.5581 H   0  0  0  0  0  0  0  0  0  0  0  0  # atno 11005 bound_to 11000
  146.3529  140.0914  142.8612 LP  0  0  0  0  0  0  0  0  0  0  0  0  # atno 17320 bound_to 7965
  145.0935  140.9300  143.4755 LP  0  0  0  0  0  0  0  0  0  0  0  0  # atno 17321 bound_to 7965
  140.6904  143.2373  151.5147 LP  0  0  0  0  0  0  0  0  0  0  0  0  # atno 17342 bound_to 10162
  139.5598  144.2184  152.1673 LP  0  0  0  0  0  0  0  0  0  0  0  0  # atno 17343 bound_to 10162
  156.2450  130.3695  149.8295 LP  0  0  0  0  0  0  0  0  0  0  0  0  # atno 17370 bound_to 10713
  156.6084  130.8576  151.3448 LP  0  0  0  0  0  0  0  0  0  0  0  0  # atno 17371 bound_to 10713
  140.8190  133.8369  155.8878 LP  0  0  0  0  0  0  0  0  0  0  0  0  # atno 17394 bound_to 11000
  140.9436  134.1869  157.4779 LP  0  0  0  0  0  0  0  0  0  0  0  0  # atno 17395 bound_to 11000

$$$$
