AV-unprocessed.smi:1964|AV-procd|sdf|7930|dock8
  -GOLD-   2272010103D 1   1.00000     0.00000
 Structure written by MMmdl.
 46 48  0  0  0  0  0  0  0  0  1 V2000
  153.5891  141.9358  160.9566 C   0  0  0  0  0  0  0  0  0  0  0  0
  153.4498  143.2378  160.1485 C   0  0  2  0  0  0  0  0  0  0  0  0
  152.4345  144.2001  160.7992 C   0  0  0  0  0  0  0  0  0  0  0  0
  152.3411  145.5281  160.0309 C   0  0  0  0  0  0  0  0  0  0  0  0
  151.9986  145.2953  158.5519 C   0  0  0  0  0  0  0  0  0  0  0  0
  153.0029  144.3349  157.8913 C   0  0  0  0  0  0  0  0  0  0  0  0
  153.1215  142.9985  158.6514 C   0  0  2  0  0  0  0  0  0  0  0  0
  151.8930  142.2204  158.4814 N   0  0  0  0  0  0  0  0  0  0  0  0
  151.8145  140.9354  158.1028 C   0  0  0  0  0  0  0  0  0  0  0  0
  152.7979  140.2498  157.8197 O   0  0  0  0  0  0  0  0  0  0  0  0
  150.3988  140.3442  158.0380 C   0  0  0  0  0  0  0  0  0  0  0  0
  150.0792  139.7490  156.7223 N   0  0  0  0  0  0  0  0  0  0  0  0
  150.4806  138.4114  156.4737 C   0  0  0  0  0  0  0  0  0  0  0  0
  151.0564  137.7504  157.3400 O   0  0  0  0  0  0  0  0  0  0  0  0
  150.1786  137.9017  155.1384 C   0  0  0  0  0  0  0  0  0  0  0  0
  150.5974  136.5726  154.8390 C   0  0  0  0  0  0  0  0  0  0  0  0
  150.9433  135.4900  154.6192 N   0  0  0  0  0  0  0  0  0  0  0  0
  149.5365  138.6666  154.2317 C   0  0  0  0  0  0  0  0  0  0  0  0
  149.1191  139.9504  154.5071 N   0  0  0  0  0  0  0  0  0  0  0  0
  148.5783  140.7976  153.4818 C   0  0  0  0  0  0  0  0  0  0  0  0
  147.3389  141.6292  153.7498 C   0  0  0  0  0  0  0  0  0  0  0  0
  147.2578  140.4249  152.8438 C   0  0  0  0  0  0  0  0  0  0  0  0
  149.4296  140.5465  155.7492 C   0  0  0  0  0  0  0  0  0  0  0  0
  149.1545  141.7272  155.9766 O   0  0  0  0  0  0  0  0  0  0  0  0
  152.6396  141.4061  161.0393 H   0  0  0  0  0  0  0  0  0  0  0  0
  153.9377  142.1408  161.9689 H   0  0  0  0  0  0  0  0  0  0  0  0
  154.3083  141.2607  160.4921 H   0  0  0  0  0  0  0  0  0  0  0  0
  154.4236  143.7286  160.1834 H   0  0  0  0  0  0  0  0  0  0  0  0
  151.4503  143.7317  160.8407 H   0  0  0  0  0  0  0  0  0  0  0  0
  152.7214  144.3997  161.8321 H   0  0  0  0  0  0  0  0  0  0  0  0
  151.5892  146.1707  160.4900 H   0  0  0  0  0  0  0  0  0  0  0  0
  153.2899  146.0609  160.1060 H   0  0  0  0  0  0  0  0  0  0  0  0
  150.9893  144.8905  158.4692 H   0  0  0  0  0  0  0  0  0  0  0  0
  151.9912  146.2468  158.0196 H   0  0  0  0  0  0  0  0  0  0  0  0
  152.7199  144.1549  156.8533 H   0  0  0  0  0  0  0  0  0  0  0  0
  153.9822  144.8140  157.8576 H   0  0  0  0  0  0  0  0  0  0  0  0
  153.9547  142.4515  158.2064 H   0  0  0  0  0  0  0  0  0  0  0  0
  151.0286  142.6993  158.6893 H   0  0  0  0  0  0  0  0  0  0  0  0
  150.2839  139.5984  158.8268 H   0  0  0  0  0  0  0  0  0  0  0  0
  149.6905  141.1279  158.3101 H   0  0  0  0  0  0  0  0  0  0  0  0
  149.3356  138.2574  153.2518 H   0  0  0  0  0  0  0  0  0  0  0  0
  149.3143  141.2473  152.8175 H   0  0  0  0  0  0  0  0  0  0  0  0
  146.8640  141.5482  154.7257 H   0  0  0  0  0  0  0  0  0  0  0  0
  147.2869  142.6126  153.2873 H   0  0  0  0  0  0  0  0  0  0  0  0
  147.1496  140.6042  151.7761 H   0  0  0  0  0  0  0  0  0  0  0  0
  146.7320  139.5513  153.2243 H   0  0  0  0  0  0  0  0  0  0  0  0
  1  2  1  0  0  0  0
  1 25  1  0  0  0  0
  1 26  1  0  0  0  0
  1 27  1  0  0  0  0
  2  7  1  0  0  0  0
  2  3  1  0  0  0  0
  2 28  1  0  0  0  0
  3  4  1  0  0  0  0
  3 29  1  0  0  0  0
  3 30  1  0  0  0  0
  4  5  1  0  0  0  0
  4 31  1  0  0  0  0
  4 32  1  0  0  0  0
  5  6  1  0  0  0  0
  5 33  1  0  0  0  0
  5 34  1  0  0  0  0
  6  7  1  0  0  0  0
  6 35  1  0  0  0  0
  6 36  1  0  0  0  0
  7  8  1  0  0  0  0
  7 37  1  0  0  0  0
  8  9  1  0  0  0  0
  8 38  1  0  0  0  0
  9 10  2  0  0  0  0
  9 11  1  0  0  0  0
 11 12  1  0  0  0  0
 11 39  1  0  0  0  0
 11 40  1  0  0  0  0
 12 23  1  0  0  0  0
 12 13  1  0  0  0  0
 13 14  2  0  0  0  0
 13 15  1  0  0  0  0
 15 16  1  0  0  0  0
 15 18  2  0  0  0  0
 16 17  3  0  0  0  0
 18 19  1  0  0  0  0
 18 41  1  0  0  0  0
 19 20  1  0  0  0  0
 19 23  1  0  0  0  0
 20 22  1  0  0  0  0
 20 21  1  0  0  0  0
 20 42  1  0  0  0  0
 21 22  1  0  0  0  0
 21 43  1  0  0  0  0
 21 44  1  0  0  0  0
 22 45  1  0  0  0  0
 22 46  1  0  0  0  0
 23 24  2  0  0  0  0
M  END
> <s_m_source_file>
AV-unprocessed.smi

> <i_m_source_file_index>
1964

> <i_lp_mmshare_version>
43012

> <i_f3d_flags>
0

> <s_epik_input>
W0NIM11bQ0BASF0xW0NIMl1bQ0gyXVtDSDJdW0NIMl1bQ0BIXTFbTkhdQyg9TylbQ0gyXW4yYyg9TyljKEMjTilbY0hdbihjMj1PKVtDSF0zW0NIMl1bQ0gyXTM=

> <s_epik_cmdline>
J2VwaWtfcHl0aG9uJywgJy1waCcsICc3LjAnLCAnLXRuJywgJzgnLCAnLW1hJywgJzIwMCcsICctbWV0YWxfYmluZGluZycsICctaW1hZScsICc8aW5maWxlLm1hZT4nLCAnLW9tYWUnLCAnPG91dGZpbGUubWFlPic=

> <r_lp_tautomer_probability>
1

> <r_epik_Ionization_Penalty>
1.91372e-08

> <r_epik_Ionization_Penalty_Charging>
9.0283e-11

> <r_epik_Ionization_Penalty_Neutral>
1.90469e-08

> <r_epik_State_Penalty>
-0

> <r_epik_Charging_Adjusted_Penalty>
9.0283e-11

> <i_epik_Tot_Q>
0

> <i_epik_Tot_abs_Q>
0

> <r_epik_Metal_State_Penalty>
-0

> <b_epik_Metal_Only>
0

> <s_lp_Force_Field>
OPLS_2005

> <r_lp_Energy>
35.1398

> <b_lp_Chiralities_Consistent>
1

> <s_lp_Variant>
AV-unprocessed.smi:1964-3

> <Gold.Version>
5.8.1

> <Gold.Id.Protein>
6NUR|6NUR_protein|mol2

> <Gold.PLP.Fitness>
54.2734

> <Gold.PLP.PLP>
-47.6720

> <Gold.PLP.part.hbond>
-1.9822

> <Gold.PLP.part.metal>
0.0000

> <Gold.PLP.part.buried>
-0.8525

> <Gold.PLP.part.nonpolar>
-45.6302

> <Gold.PLP.part.repulsive>
2.3916

> <Gold.PLP.ligand.clash>
0.0000

> <Gold.PLP.ligand.torsion>
0.6557

> <Gold.PLP.Chemscore.Hbond>
1.0000

> <Gold.PLP.Chemscore.CHOScore>
1.5652

> <Gold.PLP.Chemscore.Metal>
0.0000

> <Gold.Chemscore.Hbonds>
donor molecule, donor type, donor heavy atom, donor atom, acceptor molecule, acceptor atom, score
      P1  H  7997  8009       L1    10  0.01
      P1  H 10752 10763       L1    17  0.99
      L1  C    18    41       P1  7948  1.00
      L1  C    18    41       P1  7957  0.33

> <Gold.PLP.Chemscore.Internal.Correction>
0.2174

> <Gold.Rescore>
     Score         DG    S(hbond)    S(metal)    S(lipo)     H(rot)  DE(clash)    DE(int)     intcor
     16.63     -18.70       0.99        0.00     121.98       1.70       0.18       1.88       ----

> <Gold.Chemscore.Fitness>
16.6328

> <Gold.Chemscore.DG>
-18.6954

> <Gold.Chemscore.ZeroCoef>
-5.4800

> <Gold.Chemscore.Hbond>
0.9897

> <Gold.Chemscore.Metal>
0.0000

> <Gold.Chemscore.Lipo>
121.9785

> <Gold.Chemscore.Internal_Hbond>
0.0000

> <Gold.Chemscore.DEClash>
0.1786

> <Gold.Chemscore.DEInternal>
1.8840

> <Gold.Chemscore.Rot>
1.7038

> <Gold.Chemscore.Internal.Correction>
   9.000000E+99

> <Gold.Chemscore.Hbonds>
donor molecule, donor type, donor heavy atom, donor atom, acceptor molecule, acceptor atom, score
      P1  H  7997  8009       L1    10  0.01
      P1  H 10752 10763       L1    17  0.50

> <Gold.Chemscore.Hbond.Weighted>
-3.3056

> <Gold.Chemscore.Metal.Weighted>
-0.0000

> <Gold.Chemscore.Lipo.Weighted>
-14.2715

> <Gold.Chemscore.Internal_Hbond.Weighted>
0.0000

> <Gold.Chemscore.DEClash.Weighted>
0.1786

> <Gold.Chemscore.DEInternal.Weighted>
1.8840

> <Gold.Chemscore.Rot.Weighted>
4.3618

> <Gold.Chemscore.Internal.Correction.Weighted>
   9.000000E+99

> <Gold.Protein.RotatedTorsions>
[ 6907 6896 6895 6894 ] final -174.56 input  -60.11 | X-H torsion
[ 7974 7965 7964 7962 ] final  175.43 input  175.53 | X-H torsion
[ 8008 7997 7996 7995 ] final -140.91 input   59.86 | X-H torsion
[ 10167 10162 10161 10158 ] final  135.12 input  -65.29 | X-H torsion
[ 10718 10713 10712 10709 ] final  -60.68 input   66.30 | X-H torsion
[ 10763 10752 10751 10750 ] final   64.04 input  -60.55 | X-H torsion
[ 11005 11000 10999 10996 ] final  -30.69 input  -57.11 | X-H torsion

> <Gold.Protein.ActiveResidues>
 VAL166  LYS551  ARG553  GLY616  TRP617  ASP618  TYR619  PRO620  LYS621  CYS622 
 ASP623  PHE694  ASN695  SER759  ASP760  ASP761  ALA762  ILE779  LEU786  VAL792 
 PHE793  MET794  SER795  GLU796  ALA797  LYS798  CYS799  TRP800  GLU811  SER814 

> <Gold.Protein.RotatedAtoms>
  151.5744  133.3385  159.2995 H   0  0  0  0  0  0  0  0  0  0  0  0  # atno 6907 bound_to 6896
  150.8349  134.7621  159.6896 H   0  0  0  0  0  0  0  0  0  0  0  0  # atno 6908 bound_to 6896
  152.4427  134.5565  159.9933 H   0  0  0  0  0  0  0  0  0  0  0  0  # atno 6909 bound_to 6896
  144.7202  139.9946  143.6440 H   0  0  0  0  0  0  0  0  0  0  0  0  # atno 7974 bound_to 7965
  155.4691  140.0551  157.2982 H   0  0  0  0  0  0  0  0  0  0  0  0  # atno 8008 bound_to 7997
  154.4706  140.2038  155.9959 H   0  0  0  0  0  0  0  0  0  0  0  0  # atno 8009 bound_to 7997
  156.1049  140.3213  155.7996 H   0  0  0  0  0  0  0  0  0  0  0  0  # atno 8010 bound_to 7997
  139.5229  144.6533  151.5238 H   0  0  0  0  0  0  0  0  0  0  0  0  # atno 10167 bound_to 10162
  156.0974  130.4191  150.0888 H   0  0  0  0  0  0  0  0  0  0  0  0  # atno 10718 bound_to 10713
  153.0040  135.5407  154.6446 H   0  0  0  0  0  0  0  0  0  0  0  0  # atno 10763 bound_to 10752
  154.5693  135.2840  155.0845 H   0  0  0  0  0  0  0  0  0  0  0  0  # atno 10764 bound_to 10752
  154.2017  135.6483  153.5141 H   0  0  0  0  0  0  0  0  0  0  0  0  # atno 10765 bound_to 10752
  140.9404  133.7282  156.1067 H   0  0  0  0  0  0  0  0  0  0  0  0  # atno 11005 bound_to 11000
  146.0384  139.3399  143.0712 LP  0  0  0  0  0  0  0  0  0  0  0  0  # atno 17320 bound_to 7965
  145.8365  140.9603  143.0821 LP  0  0  0  0  0  0  0  0  0  0  0  0  # atno 17321 bound_to 7965
  140.6347  143.9007  150.6637 LP  0  0  0  0  0  0  0  0  0  0  0  0  # atno 17342 bound_to 10162
  140.2322  143.3727  152.1556 LP  0  0  0  0  0  0  0  0  0  0  0  0  # atno 17343 bound_to 10162
  156.8883  130.9580  151.3591 LP  0  0  0  0  0  0  0  0  0  0  0  0  # atno 17370 bound_to 10713
  157.6137  130.8602  149.8994 LP  0  0  0  0  0  0  0  0  0  0  0  0  # atno 17371 bound_to 10713
  140.7742  134.3798  157.5501 LP  0  0  0  0  0  0  0  0  0  0  0  0  # atno 17394 bound_to 11000
  139.8819  134.9041  156.2870 LP  0  0  0  0  0  0  0  0  0  0  0  0  # atno 17395 bound_to 11000

$$$$
