AV-unprocessed.smi:1893|AV-procd|sdf|7676|dock7
  -GOLD-   22720 9413D 1   1.00000     0.00000
 Structure written by MMmdl.
 43 44  0  0  0  0  0  0  0  0  2 V2000
  144.6266  135.1664  153.8634 C   0  0  0  0  0  0  0  0  0  0  0  0
  146.0841  135.1595  153.3527 C   0  0  1  0  0  0  0  0  0  0  0  0
  146.5951  133.7340  153.0553 C   0  0  0  0  0  0  0  0  0  0  0  0
  145.9703  133.1520  151.7788 C   0  0  0  0  0  0  0  0  0  0  0  0
  146.1928  134.1089  150.6014 C   0  0  0  0  0  0  0  0  0  0  0  0
  145.6782  135.5211  150.9257 C   0  0  0  0  0  0  0  0  0  0  0  0
  146.3030  136.0469  152.1708 N   0  3  1  0  0  0  0  0  0  0  0  0
  146.0006  137.4773  152.4361 C   0  0  0  0  0  0  0  0  0  0  0  0
  146.7133  138.4191  151.4474 C   0  0  0  0  0  0  0  0  0  0  0  0
  147.7415  139.2115  152.1109 N   0  0  0  0  0  0  0  0  0  0  0  0
  147.5314  140.0123  153.1687 C   0  0  0  0  0  0  0  0  0  0  0  0
  146.4165  140.1792  153.6649 O   0  0  0  0  0  0  0  0  0  0  0  0
  148.7657  140.7348  153.7379 C   0  0  1  0  0  0  0  0  0  0  0  0
  148.4069  141.8135  154.7802 C   0  0  0  0  0  0  0  0  0  0  0  0
  149.7277  139.7760  154.2690 N   0  0  0  0  0  0  0  0  0  0  0  0
  149.7056  138.4415  154.2610 C   0  0  0  0  0  0  0  0  0  0  0  0
  150.7405  137.8820  154.8717 N   0  0  0  0  0  0  0  0  0  0  0  0
  151.4088  139.0067  155.2652 C   0  0  0  0  0  0  0  0  0  0  0  0
  150.8420  140.1673  154.9364 N   0  0  0  0  0  0  0  0  0  0  0  0
  144.5225  134.5212  154.7359 H   0  0  0  0  0  0  0  0  0  0  0  0
  143.9207  134.8103  153.1138 H   0  0  0  0  0  0  0  0  0  0  0  0
  144.3095  136.1633  154.1690 H   0  0  0  0  0  0  0  0  0  0  0  0
  146.7040  135.5482  154.1620 H   0  0  0  0  0  0  0  0  0  0  0  0
  147.6796  133.7598  152.9389 H   0  0  0  0  0  0  0  0  0  0  0  0
  146.3990  133.0759  153.9026 H   0  0  0  0  0  0  0  0  0  0  0  0
  146.4074  132.1778  151.5580 H   0  0  0  0  0  0  0  0  0  0  0  0
  144.9029  132.9846  151.9251 H   0  0  0  0  0  0  0  0  0  0  0  0
  147.2565  134.1537  150.3635 H   0  0  0  0  0  0  0  0  0  0  0  0
  145.6939  133.7253  149.7110 H   0  0  0  0  0  0  0  0  0  0  0  0
  145.9081  136.1736  150.0844 H   0  0  0  0  0  0  0  0  0  0  0  0
  144.5921  135.5170  151.0224 H   0  0  0  0  0  0  0  0  0  0  0  0
  144.9221  137.6410  152.4126 H   0  0  0  0  0  0  0  0  0  0  0  0
  146.3298  137.7273  153.4457 H   0  0  0  0  0  0  0  0  0  0  0  0
  147.1527  137.8506  150.6260 H   0  0  0  0  0  0  0  0  0  0  0  0
  146.0092  139.1180  150.9976 H   0  0  0  0  0  0  0  0  0  0  0  0
  148.6846  139.1261  151.7597 H   0  0  0  0  0  0  0  0  0  0  0  0
  149.2465  141.2413  152.8995 H   0  0  0  0  0  0  0  0  0  0  0  0
  147.7437  142.5683  154.3560 H   0  0  0  0  0  0  0  0  0  0  0  0
  149.3023  142.3282  155.1301 H   0  0  0  0  0  0  0  0  0  0  0  0
  147.9095  141.3876  155.6526 H   0  0  0  0  0  0  0  0  0  0  0  0
  148.9140  137.8670  153.8025 H   0  0  0  0  0  0  0  0  0  0  0  0
  152.3376  138.9691  155.8149 H   0  0  0  0  0  0  0  0  0  0  0  0
  147.2996  136.0146  152.0091 H   0  0  0  0  0  0  0  0  0  0  0  0
  1  2  1  0  0  0  0
  1 20  1  0  0  0  0
  1 21  1  0  0  0  0
  1 22  1  0  0  0  0
  2  7  1  0  0  0  0
  2  3  1  0  0  0  0
  2 23  1  0  0  0  0
  3  4  1  0  0  0  0
  3 24  1  0  0  0  0
  3 25  1  0  0  0  0
  4  5  1  0  0  0  0
  4 26  1  0  0  0  0
  4 27  1  0  0  0  0
  5  6  1  0  0  0  0
  5 28  1  0  0  0  0
  5 29  1  0  0  0  0
  6  7  1  0  0  0  0
  6 30  1  0  0  0  0
  6 31  1  0  0  0  0
  7  8  1  0  0  0  0
  7 43  1  0  0  0  0
  8  9  1  0  0  0  0
  8 32  1  0  0  0  0
  8 33  1  0  0  0  0
  9 10  1  0  0  0  0
  9 34  1  0  0  0  0
  9 35  1  0  0  0  0
 10 11  1  0  0  0  0
 10 36  1  0  0  0  0
 11 12  2  0  0  0  0
 11 13  1  0  0  0  0
 13 14  1  0  0  0  0
 13 15  1  0  0  0  0
 13 37  1  0  0  0  0
 14 38  1  0  0  0  0
 14 39  1  0  0  0  0
 14 40  1  0  0  0  0
 15 19  1  0  0  0  0
 15 16  1  0  0  0  0
 16 17  2  0  0  0  0
 16 41  1  0  0  0  0
 17 18  1  0  0  0  0
 18 19  2  0  0  0  0
 18 42  1  0  0  0  0
M  CHG  1   7   1
M  END
> <s_m_source_file>
AV-unprocessed.smi

> <i_m_source_file_index>
1893

> <i_lp_mmshare_version>
43012

> <i_f3d_flags>
0

> <s_epik_input>
W0NIM11bQ0BASF0xW0NIMl1bQ0gyXVtDSDJdW0NIMl1OMVtDSDJdW0NIMl1bTkhdQyg9TylbQ0BIXShbQ0gzXSluMltjSF1uW2NIXW4y

> <s_epik_cmdline>
J2VwaWtfcHl0aG9uJywgJy1waCcsICc3LjAnLCAnLXRuJywgJzgnLCAnLW1hJywgJzIwMCcsICctbWV0YWxfYmluZGluZycsICctaW1hZScsICc8aW5maWxlLm1hZT4nLCAnLW9tYWUnLCAnPG91dGZpbGUubWFlPic=

> <r_lp_tautomer_probability>
1

> <r_epik_Ionization_Penalty>
0.00266409

> <r_epik_Ionization_Penalty_Charging>
0.00265606

> <r_epik_Ionization_Penalty_Neutral>
8.02794e-06

> <r_epik_State_Penalty>
0.00184955

> <r_epik_Charging_Adjusted_Penalty>
0.00450561

> <i_epik_Tot_Q>
1

> <i_epik_Tot_abs_Q>
1

> <r_epik_Metal_State_Penalty>
-0

> <b_epik_Metal_Only>
0

> <s_lp_Force_Field>
OPLS_2005

> <r_lp_Energy>
24.9679

> <b_lp_Chiralities_Consistent>
1

> <s_lp_Variant>
AV-unprocessed.smi:1893-6

> <Gold.Version>
5.8.1

> <Gold.Id.Protein>
6NUR|6NUR_protein|mol2

> <Gold.PLP.Fitness>
46.8795

> <Gold.PLP.PLP>
-33.2733

> <Gold.PLP.part.hbond>
-3.0319

> <Gold.PLP.part.metal>
0.0000

> <Gold.PLP.part.buried>
-3.2742

> <Gold.PLP.part.nonpolar>
-27.5831

> <Gold.PLP.part.repulsive>
0.4140

> <Gold.PLP.ligand.clash>
0.0000

> <Gold.PLP.ligand.torsion>
0.7605

> <Gold.PLP.Chemscore.Hbond>
4.0000

> <Gold.PLP.Chemscore.CHOScore>
0.9928

> <Gold.PLP.Chemscore.Metal>
0.0000

> <Gold.Chemscore.Hbonds>
donor molecule, donor type, donor heavy atom, donor atom, acceptor molecule, acceptor atom, score
      L1  H     7    43       P1  7948  2.00
      L1  H    10    36       P1  7957  0.47
      P1  H  7989  7998       L1    19  0.75
      L1  C    16    41       P1  7948  1.00

> <Gold.PLP.Chemscore.Internal.Correction>
0.1489

> <Gold.Rescore>
     Score         DG    S(hbond)    S(metal)    S(lipo)     H(rot)  DE(clash)    DE(int)     intcor
     13.37     -14.21       2.81        0.00      50.09       2.54       0.04       0.80       ----

> <Gold.Chemscore.Fitness>
13.3700

> <Gold.Chemscore.DG>
-14.2146

> <Gold.Chemscore.ZeroCoef>
-5.4800

> <Gold.Chemscore.Hbond>
2.8057

> <Gold.Chemscore.Metal>
0.0000

> <Gold.Chemscore.Lipo>
50.0880

> <Gold.Chemscore.Internal_Hbond>
0.0000

> <Gold.Chemscore.DEClash>
0.0427

> <Gold.Chemscore.DEInternal>
0.8019

> <Gold.Chemscore.Rot>
2.5377

> <Gold.Chemscore.Internal.Correction>
   9.000000E+99

> <Gold.Chemscore.Hbonds>
donor molecule, donor type, donor heavy atom, donor atom, acceptor molecule, acceptor atom, score
      L1  H     7    43       P1  7948  1.00
      L1  H    10    36       P1  7957  0.42
      P1  H  7989  7998       L1    19  0.07

> <Gold.Chemscore.Hbond.Weighted>
-9.3709

> <Gold.Chemscore.Metal.Weighted>
-0.0000

> <Gold.Chemscore.Lipo.Weighted>
-5.8603

> <Gold.Chemscore.Internal_Hbond.Weighted>
0.0000

> <Gold.Chemscore.DEClash.Weighted>
0.0427

> <Gold.Chemscore.DEInternal.Weighted>
0.8019

> <Gold.Chemscore.Rot.Weighted>
6.4966

> <Gold.Chemscore.Internal.Correction.Weighted>
   9.000000E+99

> <Gold.Protein.RotatedTorsions>
[ 6907 6896 6895 6894 ] final  112.76 input  -60.11 | X-H torsion
[ 7974 7965 7964 7962 ] final -156.52 input  175.53 | X-H torsion
[ 8008 7997 7996 7995 ] final   17.71 input   59.86 | X-H torsion
[ 10167 10162 10161 10158 ] final  117.51 input  -65.29 | X-H torsion
[ 10718 10713 10712 10709 ] final   91.40 input   66.30 | X-H torsion
[ 10763 10752 10751 10750 ] final  167.91 input  -60.55 | X-H torsion
[ 11005 11000 10999 10996 ] final   25.69 input  -57.11 | X-H torsion

> <Gold.Protein.ActiveResidues>
 VAL166  LYS551  ARG553  GLY616  TRP617  ASP618  TYR619  PRO620  LYS621  CYS622 
 ASP623  PHE694  ASN695  SER759  ASP760  ASP761  ALA762  ILE779  LEU786  VAL792 
 PHE793  MET794  SER795  GLU796  ALA797  LYS798  CYS799  TRP800  GLU811  SER814 

> <Gold.Protein.RotatedAtoms>
  152.4898  133.8470  159.7181 H   0  0  0  0  0  0  0  0  0  0  0  0  # atno 6907 bound_to 6896
  150.9018  133.7100  159.2884 H   0  0  0  0  0  0  0  0  0  0  0  0  # atno 6908 bound_to 6896
  151.4539  135.1036  159.9758 H   0  0  0  0  0  0  0  0  0  0  0  0  # atno 6909 bound_to 6896
  144.7589  140.4098  143.5991 H   0  0  0  0  0  0  0  0  0  0  0  0  # atno 7974 bound_to 7965
  154.8954  140.2993  155.5347 H   0  0  0  0  0  0  0  0  0  0  0  0  # atno 8008 bound_to 7997
  156.3020  140.2417  156.3909 H   0  0  0  0  0  0  0  0  0  0  0  0  # atno 8009 bound_to 7997
  154.8576  140.0406  157.1633 H   0  0  0  0  0  0  0  0  0  0  0  0  # atno 8010 bound_to 7997
  139.6173  144.7094  151.2710 H   0  0  0  0  0  0  0  0  0  0  0  0  # atno 10167 bound_to 10162
  157.6960  131.0406  150.3724 H   0  0  0  0  0  0  0  0  0  0  0  0  # atno 10718 bound_to 10713
  154.3608  135.2753  155.2321 H   0  0  0  0  0  0  0  0  0  0  0  0  # atno 10763 bound_to 10752
  154.4509  135.5931  153.6195 H   0  0  0  0  0  0  0  0  0  0  0  0  # atno 10764 bound_to 10752
  152.9843  135.6041  154.3829 H   0  0  0  0  0  0  0  0  0  0  0  0  # atno 10765 bound_to 10752
  140.3451  134.2290  155.7685 H   0  0  0  0  0  0  0  0  0  0  0  0  # atno 11005 bound_to 11000
  145.6684  139.1594  143.2768 LP  0  0  0  0  0  0  0  0  0  0  0  0  # atno 17320 bound_to 7965
  146.1631  140.6758  142.9268 LP  0  0  0  0  0  0  0  0  0  0  0  0  # atno 17321 bound_to 7965
  140.7359  143.6722  150.8072 LP  0  0  0  0  0  0  0  0  0  0  0  0  # atno 17342 bound_to 10162
  140.0327  143.5427  152.2753 LP  0  0  0  0  0  0  0  0  0  0  0  0  # atno 17343 bound_to 10162
  156.4147  130.3941  149.6866 LP  0  0  0  0  0  0  0  0  0  0  0  0  # atno 17370 bound_to 10713
  156.4138  130.7735  151.2749 LP  0  0  0  0  0  0  0  0  0  0  0  0  # atno 17371 bound_to 10713
  141.2028  133.7929  157.0373 LP  0  0  0  0  0  0  0  0  0  0  0  0  # atno 17394 bound_to 11000
  140.0749  134.9681  157.1529 LP  0  0  0  0  0  0  0  0  0  0  0  0  # atno 17395 bound_to 11000

$$$$
