AV-unprocessed.smi:229|AV-procd|sdf|1762|dock10
  -GOLD-   2262020293D 1   1.00000     0.00000
 Structure written by MMmdl.
 58 62  0  0  0  0  0  0  0  0  1 V2000
  146.6838  133.8682  153.4973 C   0  0  0  0  0  0  0  0  0  0  0  0
  147.9290  133.0578  153.1163 C   0  0  0  0  0  0  0  0  0  0  0  0
  149.0458  133.1519  154.1665 C   0  0  1  0  0  0  0  0  0  0  0  0
  149.0171  134.4934  154.9169 C   0  0  0  0  0  0  0  0  0  0  0  0
  150.0421  134.4929  155.9501 N   0  0  0  0  0  0  0  0  0  0  0  0
  150.2701  135.6821  156.5454 C   0  0  0  0  0  0  0  0  0  0  0  0
  149.9136  135.7929  157.8485 N   0  0  0  0  0  0  0  0  0  0  0  0
  150.1061  136.9449  158.4987 C   0  0  0  0  0  0  0  0  0  0  0  0
  150.6242  138.0865  158.0399 N   0  0  0  0  0  0  0  0  0  0  0  0
  150.9734  137.9790  156.7258 C   0  0  0  0  0  0  0  0  0  0  0  0
  150.8311  136.8241  155.9062 C   0  0  0  0  0  0  0  0  0  0  0  0
  151.2846  137.0983  154.6211 N   0  0  0  0  0  0  0  0  0  0  0  0
  151.6797  138.3411  154.6799 C   0  0  0  0  0  0  0  0  0  0  0  0
  151.5326  138.9441  155.9085 N   0  0  0  0  0  0  0  0  0  0  0  0
  151.8847  140.3088  156.2602 C   0  0  0  0  0  0  0  0  0  0  0  0
  152.1255  140.4866  157.7751 C   0  0  1  0  0  0  0  0  0  0  0  0
  153.2741  139.7393  158.1274 O   0  0  0  0  0  0  0  0  0  0  0  0
  152.3737  141.9533  158.1808 C   0  0  1  0  0  0  0  0  0  0  0  0
  151.1404  142.8560  158.1120 C   0  0  0  0  0  0  0  0  0  0  0  0
  151.4684  143.9799  159.0801 C   0  0  0  0  0  0  0  0  0  0  0  0
  152.5598  143.3854  159.9731 C   0  0  0  0  0  0  0  0  0  0  0  0
  152.6803  142.0291  159.5655 O   0  0  0  0  0  0  0  0  0  0  0  0
  149.8857  133.3963  156.8937 C   0  0  0  0  0  0  0  0  0  0  0  0
  149.8490  132.0389  156.1519 C   0  0  2  0  0  0  0  0  0  0  0  0
  149.4594  130.9072  157.0983 C   0  0  0  0  0  0  0  0  0  0  0  0
  150.7987  130.3154  157.5101 C   0  0  0  0  0  0  0  0  0  0  0  0
  151.5284  130.3524  156.2984 O   0  0  0  0  0  0  0  0  0  0  0  0
  151.2389  131.5839  155.6473 C   0  0  0  0  0  0  0  0  0  0  0  0
  148.8706  132.0899  155.1080 O   0  0  0  0  0  0  0  0  0  0  0  0
  145.9096  133.7709  152.7359 H   0  0  0  0  0  0  0  0  0  0  0  0
  146.9166  134.9284  153.5997 H   0  0  0  0  0  0  0  0  0  0  0  0
  146.2646  133.5246  154.4435 H   0  0  0  0  0  0  0  0  0  0  0  0
  147.6408  132.0140  152.9876 H   0  0  0  0  0  0  0  0  0  0  0  0
  148.3030  133.3944  152.1486 H   0  0  0  0  0  0  0  0  0  0  0  0
  150.0060  133.0515  153.6599 H   0  0  0  0  0  0  0  0  0  0  0  0
  149.1893  135.3186  154.2245 H   0  0  0  0  0  0  0  0  0  0  0  0
  148.0335  134.6417  155.3634 H   0  0  0  0  0  0  0  0  0  0  0  0
  149.8008  136.9532  159.5346 H   0  0  0  0  0  0  0  0  0  0  0  0
  152.0945  138.8541  153.8242 H   0  0  0  0  0  0  0  0  0  0  0  0
  152.7734  140.5974  155.6970 H   0  0  0  0  0  0  0  0  0  0  0  0
  151.0761  140.9559  155.9199 H   0  0  0  0  0  0  0  0  0  0  0  0
  151.2691  140.0953  158.3262 H   0  0  0  0  0  0  0  0  0  0  0  0
  153.0876  138.8229  157.9909 H   0  0  0  0  0  0  0  0  0  0  0  0
  153.1847  142.3924  157.5960 H   0  0  0  0  0  0  0  0  0  0  0  0
  150.9325  143.2160  157.1039 H   0  0  0  0  0  0  0  0  0  0  0  0
  150.2609  142.3163  158.4661 H   0  0  0  0  0  0  0  0  0  0  0  0
  151.8463  144.8559  158.5518 H   0  0  0  0  0  0  0  0  0  0  0  0
  150.5896  144.2831  159.6500 H   0  0  0  0  0  0  0  0  0  0  0  0
  153.5095  143.8978  159.8129 H   0  0  0  0  0  0  0  0  0  0  0  0
  152.3126  143.4493  161.0332 H   0  0  0  0  0  0  0  0  0  0  0  0
  150.6942  133.4094  157.6265 H   0  0  0  0  0  0  0  0  0  0  0  0
  148.9560  133.5439  157.4453 H   0  0  0  0  0  0  0  0  0  0  0  0
  148.8580  131.2308  157.9484 H   0  0  0  0  0  0  0  0  0  0  0  0
  148.8881  130.1482  156.5614 H   0  0  0  0  0  0  0  0  0  0  0  0
  151.2917  130.9359  158.2601 H   0  0  0  0  0  0  0  0  0  0  0  0
  150.7122  129.3006  157.8991 H   0  0  0  0  0  0  0  0  0  0  0  0
  151.2728  131.4273  154.5696 H   0  0  0  0  0  0  0  0  0  0  0  0
  152.0116  132.3112  155.8999 H   0  0  0  0  0  0  0  0  0  0  0  0
  1  2  1  0  0  0  0
  1 30  1  0  0  0  0
  1 31  1  0  0  0  0
  1 32  1  0  0  0  0
  2  3  1  0  0  0  0
  2 33  1  0  0  0  0
  2 34  1  0  0  0  0
  3 29  1  0  0  0  0
  3  4  1  0  0  0  0
  3 35  1  0  0  0  0
  4  5  1  0  0  0  0
  4 36  1  0  0  0  0
  4 37  1  0  0  0  0
  5  6  1  0  0  0  0
  5 23  1  0  0  0  0
  6 11  1  0  0  0  0
  6  7  2  0  0  0  0
  7  8  1  0  0  0  0
  8  9  2  0  0  0  0
  8 38  1  0  0  0  0
  9 10  1  0  0  0  0
 10 14  1  0  0  0  0
 10 11  2  0  0  0  0
 11 12  1  0  0  0  0
 12 13  2  0  0  0  0
 13 14  1  0  0  0  0
 13 39  1  0  0  0  0
 14 15  1  0  0  0  0
 15 16  1  0  0  0  0
 15 40  1  0  0  0  0
 15 41  1  0  0  0  0
 16 17  1  0  0  0  0
 16 18  1  0  0  0  0
 16 42  1  0  0  0  0
 17 43  1  0  0  0  0
 18 22  1  0  0  0  0
 18 19  1  0  0  0  0
 18 44  1  0  0  0  0
 19 20  1  0  0  0  0
 19 45  1  0  0  0  0
 19 46  1  0  0  0  0
 20 21  1  0  0  0  0
 20 47  1  0  0  0  0
 20 48  1  0  0  0  0
 21 22  1  0  0  0  0
 21 49  1  0  0  0  0
 21 50  1  0  0  0  0
 23 24  1  0  0  0  0
 23 51  1  0  0  0  0
 23 52  1  0  0  0  0
 24 28  1  0  0  0  0
 24 25  1  0  0  0  0
 24 29  1  0  0  0  0
 25 26  1  0  0  0  0
 25 53  1  0  0  0  0
 25 54  1  0  0  0  0
 26 27  1  0  0  0  0
 26 55  1  0  0  0  0
 26 56  1  0  0  0  0
 27 28  1  0  0  0  0
 28 57  1  0  0  0  0
 28 58  1  0  0  0  0
M  END
> <s_m_source_file>
AV-unprocessed.smi

> <i_m_source_file_index>
229

> <i_lp_mmshare_version>
43012

> <i_f3d_flags>
0

> <s_epik_input>
W0NIMl0xT1tDSDJdW0NIMl1bQ0BdMTJbQ0gyXU4oW0NIMl1bQ0BIXShPMilbQ0gyXVtDSDNdKWMobltjSF1uMyljKGMzNCluW2NIXW40W0NIMl1bQ0BIXShbT0hdKVtDQEBIXTVbQ0gyXVtDSDJdW0NIMl1PNQ==

> <s_epik_cmdline>
J2VwaWtfcHl0aG9uJywgJy1waCcsICc3LjAnLCAnLXRuJywgJzgnLCAnLW1hJywgJzIwMCcsICctbWV0YWxfYmluZGluZycsICctaW1hZScsICc8aW5maWxlLm1hZT4nLCAnLW9tYWUnLCAnPG91dGZpbGUubWFlPic=

> <r_lp_tautomer_probability>
1

> <r_epik_Ionization_Penalty>
0.00318402

> <r_epik_Ionization_Penalty_Charging>
0

> <r_epik_Ionization_Penalty_Neutral>
0.00318402

> <r_epik_State_Penalty>
0.00215642

> <r_epik_Charging_Adjusted_Penalty>
0.00215642

> <i_epik_Tot_Q>
0

> <i_epik_Tot_abs_Q>
0

> <r_epik_Metal_State_Penalty>
-0

> <b_epik_Metal_Only>
0

> <s_lp_Force_Field>
OPLS_2005

> <r_lp_Energy>
58.1289

> <b_lp_Chiralities_Consistent>
1

> <s_lp_Variant>
AV-unprocessed.smi:229-16

> <Gold.Version>
5.8.1

> <Gold.Id.Protein>
6NUR|6NUR_protein|mol2

> <Gold.PLP.Fitness>
46.2981

> <Gold.PLP.PLP>
-42.4212

> <Gold.PLP.part.hbond>
-2.7360

> <Gold.PLP.part.metal>
0.0000

> <Gold.PLP.part.buried>
-8.2192

> <Gold.PLP.part.nonpolar>
-32.1559

> <Gold.PLP.part.repulsive>
0.1956

> <Gold.PLP.ligand.clash>
0.0000

> <Gold.PLP.ligand.torsion>
1.1225

> <Gold.PLP.Chemscore.Hbond>
1.9760

> <Gold.PLP.Chemscore.CHOScore>
0.0000

> <Gold.PLP.Chemscore.Metal>
0.0000

> <Gold.Chemscore.Hbonds>
donor molecule, donor type, donor heavy atom, donor atom, acceptor molecule, acceptor atom, score
      P1  H  7997  8008       L1    17  0.99
      P1  H 10752 10763       L1    12  0.52

> <Gold.PLP.Chemscore.Internal.Correction>
0.1939

> <Gold.Rescore>
     Score         DG    S(hbond)    S(metal)    S(lipo)     H(rot)  DE(clash)    DE(int)     intcor
     13.31     -16.01       1.58        0.00      98.79       2.46       0.08       2.62       ----

> <Gold.Chemscore.Fitness>
13.3084

> <Gold.Chemscore.DG>
-16.0065

> <Gold.Chemscore.ZeroCoef>
-5.4800

> <Gold.Chemscore.Hbond>
1.5757

> <Gold.Chemscore.Metal>
0.0000

> <Gold.Chemscore.Lipo>
98.7934

> <Gold.Chemscore.Internal_Hbond>
0.0000

> <Gold.Chemscore.DEClash>
0.0752

> <Gold.Chemscore.DEInternal>
2.6228

> <Gold.Chemscore.Rot>
2.4591

> <Gold.Chemscore.Internal.Correction>
   9.000000E+99

> <Gold.Chemscore.Hbonds>
donor molecule, donor type, donor heavy atom, donor atom, acceptor molecule, acceptor atom, score
      P1  H  7997  8008       L1    17  0.41
      P1  H 10752 10763       L1    12  0.24

> <Gold.Chemscore.Hbond.Weighted>
-5.2630

> <Gold.Chemscore.Metal.Weighted>
-0.0000

> <Gold.Chemscore.Lipo.Weighted>
-11.5588

> <Gold.Chemscore.Internal_Hbond.Weighted>
0.0000

> <Gold.Chemscore.DEClash.Weighted>
0.0752

> <Gold.Chemscore.DEInternal.Weighted>
2.6228

> <Gold.Chemscore.Rot.Weighted>
6.2953

> <Gold.Chemscore.Internal.Correction.Weighted>
   9.000000E+99

> <Gold.Protein.RotatedTorsions>
[ 6907 6896 6895 6894 ] final -133.03 input  -60.11 | X-H torsion
[ 7974 7965 7964 7962 ] final  -18.21 input  175.53 | X-H torsion
[ 8008 7997 7996 7995 ] final -101.66 input   59.86 | X-H torsion
[ 10167 10162 10161 10158 ] final -104.59 input  -65.29 | X-H torsion
[ 10718 10713 10712 10709 ] final   30.91 input   66.30 | X-H torsion
[ 10763 10752 10751 10750 ] final   38.71 input  -60.55 | X-H torsion
[ 11005 11000 10999 10996 ] final -175.24 input  -57.11 | X-H torsion

> <Gold.Protein.ActiveResidues>
 VAL166  LYS551  ARG553  GLY616  TRP617  ASP618  TYR619  PRO620  LYS621  CYS622 
 ASP623  PHE694  ASN695  SER759  ASP760  ASP761  ALA762  ILE779  LEU786  VAL792 
 PHE793  MET794  SER795  GLU796  ALA797  LYS798  CYS799  TRP800  GLU811  SER814 

> <Gold.Protein.RotatedAtoms>
  150.9693  133.6361  159.2740 H   0  0  0  0  0  0  0  0  0  0  0  0  # atno 6907 bound_to 6896
  151.3656  135.0911  159.9458 H   0  0  0  0  0  0  0  0  0  0  0  0  # atno 6908 bound_to 6896
  152.5177  133.9258  159.7611 H   0  0  0  0  0  0  0  0  0  0  0  0  # atno 6909 bound_to 6896
  146.1903  140.3889  142.8460 H   0  0  0  0  0  0  0  0  0  0  0  0  # atno 7974 bound_to 7965
  154.8458  140.0433  157.1571 H   0  0  0  0  0  0  0  0  0  0  0  0  # atno 8008 bound_to 7997
  154.8997  140.2998  155.5304 H   0  0  0  0  0  0  0  0  0  0  0  0  # atno 8009 bound_to 7997
  156.2994  140.2378  156.4023 H   0  0  0  0  0  0  0  0  0  0  0  0  # atno 8010 bound_to 7997
  140.2076  143.3771  152.1077 H   0  0  0  0  0  0  0  0  0  0  0  0  # atno 10167 bound_to 10162
  157.2657  130.7183  149.6477 H   0  0  0  0  0  0  0  0  0  0  0  0  # atno 10718 bound_to 10713
  152.9991  135.6241  154.2349 H   0  0  0  0  0  0  0  0  0  0  0  0  # atno 10763 bound_to 10752
  154.2091  135.2800  155.2966 H   0  0  0  0  0  0  0  0  0  0  0  0  # atno 10764 bound_to 10752
  154.5622  135.5702  153.7076 H   0  0  0  0  0  0  0  0  0  0  0  0  # atno 10765 bound_to 10752
  140.4655  134.6214  157.4860 H   0  0  0  0  0  0  0  0  0  0  0  0  # atno 11005 bound_to 11000
  144.8474  140.6950  143.6190 LP  0  0  0  0  0  0  0  0  0  0  0  0  # atno 17320 bound_to 7965
  145.3812  139.1636  143.4279 LP  0  0  0  0  0  0  0  0  0  0  0  0  # atno 17321 bound_to 7965
  139.5192  144.7017  151.5475 LP  0  0  0  0  0  0  0  0  0  0  0  0  # atno 17342 bound_to 10162
  140.6346  143.9009  150.6636 LP  0  0  0  0  0  0  0  0  0  0  0  0  # atno 17343 bound_to 10162
  155.9663  130.4383  150.5213 LP  0  0  0  0  0  0  0  0  0  0  0  0  # atno 17370 bound_to 10713
  157.3127  131.0667  151.1989 LP  0  0  0  0  0  0  0  0  0  0  0  0  # atno 17371 bound_to 10713
  139.9918  134.6973  155.9677 LP  0  0  0  0  0  0  0  0  0  0  0  0  # atno 17394 bound_to 11000
  141.1601  133.6539  156.4291 LP  0  0  0  0  0  0  0  0  0  0  0  0  # atno 17395 bound_to 11000

$$$$
