AV-unprocessed.smi:1548|AV-procd|sdf|6221|dock3
  -GOLD-   22720 6393D 1   1.00000     0.00000
 Structure written by MMmdl.
 45 46  0  0  0  0  0  0  0  0  1 V2000
  146.4821  133.0598  150.9967 C   0  0  0  0  0  0  0  0  0  0  0  0
  147.2603  132.3301  152.0942 C   0  0  0  0  0  0  0  0  0  0  0  0
  148.1951  133.2372  152.6706 O   0  0  0  0  0  0  0  0  0  0  0  0
  149.1027  132.7570  153.5958 C   0  0  0  0  0  0  0  0  0  0  0  0
  149.1676  131.4175  153.8023 N   0  0  0  0  0  0  0  0  0  0  0  0
  150.0558  130.9478  154.7022 C   0  0  0  0  0  0  0  0  0  0  0  0
  150.9235  131.7788  155.4344 C   0  0  0  0  0  0  0  0  0  0  0  0
  150.8572  133.1682  155.2235 C   0  0  0  0  0  0  0  0  0  0  0  0
  149.9203  133.6774  154.2921 C   0  0  0  0  0  0  0  0  0  0  0  0
  149.7939  135.0606  153.9894 N   0  0  0  0  0  0  0  0  0  0  0  0
  150.1988  136.1105  154.7233 C   0  0  0  0  0  0  0  0  0  0  0  0
  150.7119  136.0382  155.8399 O   0  0  0  0  0  0  0  0  0  0  0  0
  149.9498  137.2665  154.0916 N   0  0  0  0  0  0  0  0  0  0  0  0
  150.2424  138.6004  154.6096 C   0  0  0  0  0  0  0  0  0  0  0  0
  151.7434  138.7377  154.9068 C   0  0  0  0  0  0  0  0  0  0  0  0
  152.0681  140.1039  155.5365 C   0  0  0  0  0  0  0  0  0  0  0  0
  151.2386  140.3664  156.7300 N   0  0  0  0  0  0  0  0  0  0  0  0
  151.9099  140.1509  158.3212 S   0  0  0  0  0  0  0  0  0  0  0  0
  151.5834  141.7511  159.1675 C   0  0  0  0  0  0  0  0  0  0  0  0
  151.1303  139.1049  159.0006 O   0  0  0  0  0  0  0  0  0  0  0  0
  153.3657  139.9976  158.1776 O   0  0  0  0  0  0  0  0  0  0  0  0
  149.7855  140.2140  156.5160 C   0  0  0  0  0  0  0  0  0  0  0  0
  149.4421  138.8483  155.8960 C   0  0  0  0  0  0  0  0  0  0  0  0
  145.7441  132.4009  150.5389 H   0  0  0  0  0  0  0  0  0  0  0  0
  147.1505  133.4110  150.2106 H   0  0  0  0  0  0  0  0  0  0  0  0
  145.9541  133.9242  151.3999 H   0  0  0  0  0  0  0  0  0  0  0  0
  146.5663  131.9658  152.8532 H   0  0  0  0  0  0  0  0  0  0  0  0
  147.7769  131.4698  151.6658 H   0  0  0  0  0  0  0  0  0  0  0  0
  150.0801  129.8767  154.8376 H   0  0  0  0  0  0  0  0  0  0  0  0
  151.6281  131.3598  156.1375 H   0  0  0  0  0  0  0  0  0  0  0  0
  151.5328  133.8134  155.7639 H   0  0  0  0  0  0  0  0  0  0  0  0
  149.2846  135.2739  153.1442 H   0  0  0  0  0  0  0  0  0  0  0  0
  149.5197  137.2214  153.1794 H   0  0  0  0  0  0  0  0  0  0  0  0
  149.9581  139.3619  153.8807 H   0  0  0  0  0  0  0  0  0  0  0  0
  152.0653  137.9371  155.5723 H   0  0  0  0  0  0  0  0  0  0  0  0
  152.3168  138.6168  153.9871 H   0  0  0  0  0  0  0  0  0  0  0  0
  153.1266  140.1645  155.7878 H   0  0  0  0  0  0  0  0  0  0  0  0
  151.8802  140.8931  154.8077 H   0  0  0  0  0  0  0  0  0  0  0  0
  151.9824  141.7053  160.1804 H   0  0  0  0  0  0  0  0  0  0  0  0
  150.5112  141.9320  159.2184 H   0  0  0  0  0  0  0  0  0  0  0  0
  152.0745  142.5617  158.6320 H   0  0  0  0  0  0  0  0  0  0  0  0
  149.2465  140.3513  157.4530 H   0  0  0  0  0  0  0  0  0  0  0  0
  149.4510  141.0105  155.8503 H   0  0  0  0  0  0  0  0  0  0  0  0
  148.3735  138.8063  155.6813 H   0  0  0  0  0  0  0  0  0  0  0  0
  149.6381  138.0537  156.6151 H   0  0  0  0  0  0  0  0  0  0  0  0
  1  2  1  0  0  0  0
  1 24  1  0  0  0  0
  1 25  1  0  0  0  0
  1 26  1  0  0  0  0
  2  3  1  0  0  0  0
  2 27  1  0  0  0  0
  2 28  1  0  0  0  0
  3  4  1  0  0  0  0
  4  9  1  0  0  0  0
  4  5  2  0  0  0  0
  5  6  1  0  0  0  0
  6  7  2  0  0  0  0
  6 29  1  0  0  0  0
  7  8  1  0  0  0  0
  7 30  1  0  0  0  0
  8  9  2  0  0  0  0
  8 31  1  0  0  0  0
  9 10  1  0  0  0  0
 10 11  1  0  0  0  0
 10 32  1  0  0  0  0
 11 12  2  0  0  0  0
 11 13  1  0  0  0  0
 13 14  1  0  0  0  0
 13 33  1  0  0  0  0
 14 23  1  0  0  0  0
 14 15  1  0  0  0  0
 14 34  1  0  0  0  0
 15 16  1  0  0  0  0
 15 35  1  0  0  0  0
 15 36  1  0  0  0  0
 16 17  1  0  0  0  0
 16 37  1  0  0  0  0
 16 38  1  0  0  0  0
 17 18  1  0  0  0  0
 17 22  1  0  0  0  0
 18 19  1  0  0  0  0
 18 20  2  0  0  0  0
 18 21  2  0  0  0  0
 19 39  1  0  0  0  0
 19 40  1  0  0  0  0
 19 41  1  0  0  0  0
 22 23  1  0  0  0  0
 22 42  1  0  0  0  0
 22 43  1  0  0  0  0
 23 44  1  0  0  0  0
 23 45  1  0  0  0  0
M  END
> <s_m_source_file>
AV-unprocessed.smi

> <i_m_source_file_index>
1548

> <i_lp_mmshare_version>
43012

> <i_f3d_flags>
0

> <s_epik_input>
W0NIM11bQ0gyXU9jMW5bY0hdW2NIXVtjSF1jMVtOSF1DKD1PKVtOSF1bQ0hdMltDSDJdW0NIMl1OKFMoPU8pKD1PKVtDSDNdKVtDSDJdW0NIMl0y

> <s_epik_cmdline>
J2VwaWtfcHl0aG9uJywgJy1waCcsICc3LjAnLCAnLXRuJywgJzgnLCAnLW1hJywgJzIwMCcsICctbWV0YWxfYmluZGluZycsICctaW1hZScsICc8aW5maWxlLm1hZT4nLCAnLW9tYWUnLCAnPG91dGZpbGUubWFlPic=

> <r_lp_tautomer_probability>
1

> <r_epik_Ionization_Penalty>
0.000113093

> <r_epik_Ionization_Penalty_Charging>
0

> <r_epik_Ionization_Penalty_Neutral>
0.000113093

> <r_epik_State_Penalty>
-0

> <r_epik_Charging_Adjusted_Penalty>
0

> <i_epik_Tot_Q>
0

> <i_epik_Tot_abs_Q>
0

> <r_epik_Metal_State_Penalty>
-0

> <b_epik_Metal_Only>
0

> <s_lp_Force_Field>
OPLS_2005

> <r_lp_Energy>
3.39389

> <b_lp_Chiralities_Consistent>
1

> <s_lp_Variant>
AV-unprocessed.smi:1548-1

> <Gold.Version>
5.8.1

> <Gold.Id.Protein>
6NUR|6NUR_protein|mol2

> <Gold.PLP.Fitness>
44.2063

> <Gold.PLP.PLP>
-35.5371

> <Gold.PLP.part.hbond>
-3.8061

> <Gold.PLP.part.metal>
0.0000

> <Gold.PLP.part.buried>
-2.1857

> <Gold.PLP.part.nonpolar>
-29.3527

> <Gold.PLP.part.repulsive>
0.3668

> <Gold.PLP.ligand.clash>
0.0000

> <Gold.PLP.ligand.torsion>
1.2090

> <Gold.PLP.Chemscore.Hbond>
3.0000

> <Gold.PLP.Chemscore.CHOScore>
0.0000

> <Gold.PLP.Chemscore.Metal>
0.0000

> <Gold.Chemscore.Hbonds>
donor molecule, donor type, donor heavy atom, donor atom, acceptor molecule, acceptor atom, score
      L1  H    10    32       P1  7948  0.70
      L1  H    13    33       P1  7948  0.96
      P1  H  7997  8008       L1    21  0.98

> <Gold.PLP.Chemscore.Internal.Correction>
2.0872

> <Gold.Rescore>
     Score         DG    S(hbond)    S(metal)    S(lipo)     H(rot)  DE(clash)    DE(int)     intcor
     14.89     -18.42       2.55        0.00      69.66       1.45       0.03       3.50       ----

> <Gold.Chemscore.Fitness>
14.8863

> <Gold.Chemscore.DG>
-18.4159

> <Gold.Chemscore.ZeroCoef>
-5.4800

> <Gold.Chemscore.Hbond>
2.5479

> <Gold.Chemscore.Metal>
0.0000

> <Gold.Chemscore.Lipo>
69.6605

> <Gold.Chemscore.Internal_Hbond>
0.0000

> <Gold.Chemscore.DEClash>
0.0255

> <Gold.Chemscore.DEInternal>
3.5041

> <Gold.Chemscore.Rot>
1.4549

> <Gold.Chemscore.Internal.Correction>
   9.000000E+99

> <Gold.Chemscore.Hbonds>
donor molecule, donor type, donor heavy atom, donor atom, acceptor molecule, acceptor atom, score
      L1  H    10    32       P1  7948  0.07
      L1  H    13    33       P1  7948  0.76
      P1  H  7997  8008       L1    21  0.92

> <Gold.Chemscore.Hbond.Weighted>
-8.5100

> <Gold.Chemscore.Metal.Weighted>
-0.0000

> <Gold.Chemscore.Lipo.Weighted>
-8.1503

> <Gold.Chemscore.Internal_Hbond.Weighted>
0.0000

> <Gold.Chemscore.DEClash.Weighted>
0.0255

> <Gold.Chemscore.DEInternal.Weighted>
3.5041

> <Gold.Chemscore.Rot.Weighted>
3.7244

> <Gold.Chemscore.Internal.Correction.Weighted>
   9.000000E+99

> <Gold.Protein.RotatedTorsions>
[ 6907 6896 6895 6894 ] final    9.42 input  -60.11 | X-H torsion
[ 7974 7965 7964 7962 ] final  -21.99 input  175.53 | X-H torsion
[ 8008 7997 7996 7995 ] final  -74.25 input   59.86 | X-H torsion
[ 10167 10162 10161 10158 ] final  139.91 input  -65.29 | X-H torsion
[ 10718 10713 10712 10709 ] final   77.16 input   66.30 | X-H torsion
[ 10763 10752 10751 10750 ] final -134.95 input  -60.55 | X-H torsion
[ 11005 11000 10999 10996 ] final  151.50 input  -57.11 | X-H torsion

> <Gold.Protein.ActiveResidues>
 VAL166  LYS551  ARG553  GLY616  TRP617  ASP618  TYR619  PRO620  LYS621  CYS622 
 ASP623  PHE694  ASN695  SER759  ASP760  ASP761  ALA762  ILE779  LEU786  VAL792 
 PHE793  MET794  SER795  GLU796  ALA797  LYS798  CYS799  TRP800  GLU811  SER814 

> <Gold.Protein.RotatedAtoms>
  151.7219  135.0892  160.0285 H   0  0  0  0  0  0  0  0  0  0  0  0  # atno 6907 bound_to 6896
  152.3596  133.6276  159.6014 H   0  0  0  0  0  0  0  0  0  0  0  0  # atno 6908 bound_to 6896
  150.7595  133.9360  159.3483 H   0  0  0  0  0  0  0  0  0  0  0  0  # atno 6909 bound_to 6896
  146.1701  140.4417  142.8536 H   0  0  0  0  0  0  0  0  0  0  0  0  # atno 7974 bound_to 7965
  154.5315  140.0765  156.8353 H   0  0  0  0  0  0  0  0  0  0  0  0  # atno 8008 bound_to 7997
  155.3366  140.3405  155.4221 H   0  0  0  0  0  0  0  0  0  0  0  0  # atno 8009 bound_to 7997
  156.1786  140.1644  156.8304 H   0  0  0  0  0  0  0  0  0  0  0  0  # atno 8010 bound_to 7997
  139.5064  144.6266  151.5921 H   0  0  0  0  0  0  0  0  0  0  0  0  # atno 10167 bound_to 10162
  157.6700  130.9808  150.1601 H   0  0  0  0  0  0  0  0  0  0  0  0  # atno 10718 bound_to 10713
  154.8711  135.3718  154.4818 H   0  0  0  0  0  0  0  0  0  0  0  0  # atno 10763 bound_to 10752
  153.5471  135.7025  153.5614 H   0  0  0  0  0  0  0  0  0  0  0  0  # atno 10764 bound_to 10752
  153.3749  135.4011  155.1780 H   0  0  0  0  0  0  0  0  0  0  0  0  # atno 10765 bound_to 10752
  140.1225  134.8854  157.2092 H   0  0  0  0  0  0  0  0  0  0  0  0  # atno 11005 bound_to 11000
  144.8151  140.6454  143.6390 LP  0  0  0  0  0  0  0  0  0  0  0  0  # atno 17320 bound_to 7965
  145.4362  139.1542  143.3995 LP  0  0  0  0  0  0  0  0  0  0  0  0  # atno 17321 bound_to 7965
  140.5985  143.9652  150.6370 LP  0  0  0  0  0  0  0  0  0  0  0  0  # atno 17342 bound_to 10162
  140.2856  143.3359  152.1111 LP  0  0  0  0  0  0  0  0  0  0  0  0  # atno 17343 bound_to 10162
  156.2379  130.3688  149.8370 LP  0  0  0  0  0  0  0  0  0  0  0  0  # atno 17370 bound_to 10713
  156.6178  130.8613  151.3469 LP  0  0  0  0  0  0  0  0  0  0  0  0  # atno 17371 bound_to 10713
  140.2947  134.3200  155.7305 LP  0  0  0  0  0  0  0  0  0  0  0  0  # atno 17394 bound_to 11000
  141.2154  133.7555  156.9554 LP  0  0  0  0  0  0  0  0  0  0  0  0  # atno 17395 bound_to 11000

$$$$
