AV-unprocessed.smi:356|AV-procd|sdf|2413|dock9
  -GOLD-   2262022343D 1   1.00000     0.00000
 Structure written by MMmdl.
 42 44  0  0  0  0  0  0  0  0  2 V2000
  150.1785  141.3986  155.8372 C   0  0  0  0  0  0  0  0  0  0  0  0
  150.8244  141.9486  157.0643 C   0  0  0  0  0  0  0  0  0  0  0  0
  150.6470  143.2018  157.5705 N   0  3  0  0  0  0  0  0  0  0  0  0
  151.4137  143.3570  158.7265 C   0  0  0  0  0  0  0  0  0  0  0  0
  151.5624  144.4431  159.5838 C   0  0  0  0  0  0  0  0  0  0  0  0
  152.4298  144.2680  160.6822 C   0  0  0  0  0  0  0  0  0  0  0  0
  153.1093  143.0508  160.8951 C   0  0  0  0  0  0  0  0  0  0  0  0
  152.9509  141.9568  160.0189 C   0  0  0  0  0  0  0  0  0  0  0  0
  152.0914  142.1386  158.9361 C   0  0  0  0  0  0  0  0  0  0  0  0
  151.6964  141.3002  157.8885 N   0  0  0  0  0  0  0  0  0  0  0  0
  152.2318  139.9317  157.8220 C   0  0  0  0  0  0  0  0  0  0  0  0
  151.1291  138.8546  157.8152 C   0  0  1  0  0  0  0  0  0  0  0  0
  150.8008  138.5346  156.4779 O   0  0  0  0  0  0  0  0  0  0  0  0
  151.5940  137.5689  158.5267 C   0  0  0  0  0  0  0  0  0  0  0  0
  150.5395  136.6023  158.8394 N   0  0  0  0  0  0  0  0  0  0  0  0
  150.0641  135.8773  157.6617 C   0  0  0  0  0  0  0  0  0  0  0  0
  148.9338  134.8927  158.0101 C   0  0  0  0  0  0  0  0  0  0  0  0
  147.8660  135.5915  158.6411 O   0  0  0  0  0  0  0  0  0  0  0  0
  148.2789  136.2721  159.8213 C   0  0  0  0  0  0  0  0  0  0  0  0
  149.4039  137.2626  159.4757 C   0  0  0  0  0  0  0  0  0  0  0  0
  149.5094  142.1355  155.3924 H   0  0  0  0  0  0  0  0  0  0  0  0
  149.5993  140.5084  156.0824 H   0  0  0  0  0  0  0  0  0  0  0  0
  150.9366  141.1293  155.1015 H   0  0  0  0  0  0  0  0  0  0  0  0
  151.0430  145.3764  159.4229 H   0  0  0  0  0  0  0  0  0  0  0  0
  152.5769  145.0835  161.3754 H   0  0  0  0  0  0  0  0  0  0  0  0
  153.7656  142.9541  161.7479 H   0  0  0  0  0  0  0  0  0  0  0  0
  153.4752  141.0282  160.1900 H   0  0  0  0  0  0  0  0  0  0  0  0
  152.8399  139.8568  156.9196 H   0  0  0  0  0  0  0  0  0  0  0  0
  152.9128  139.7874  158.6618 H   0  0  0  0  0  0  0  0  0  0  0  0
  150.2424  139.2632  158.2975 H   0  0  0  0  0  0  0  0  0  0  0  0
  150.4096  139.2972  156.0786 H   0  0  0  0  0  0  0  0  0  0  0  0
  152.3443  137.0896  157.8957 H   0  0  0  0  0  0  0  0  0  0  0  0
  152.1133  137.8384  159.4477 H   0  0  0  0  0  0  0  0  0  0  0  0
  149.7073  136.5838  156.9109 H   0  0  0  0  0  0  0  0  0  0  0  0
  150.8778  135.3172  157.2035 H   0  0  0  0  0  0  0  0  0  0  0  0
  148.5595  134.4102  157.1071 H   0  0  0  0  0  0  0  0  0  0  0  0
  149.2989  134.1023  158.6678 H   0  0  0  0  0  0  0  0  0  0  0  0
  147.4249  136.8006  160.2454 H   0  0  0  0  0  0  0  0  0  0  0  0
  148.6142  135.5512  160.5685 H   0  0  0  0  0  0  0  0  0  0  0  0
  149.7306  137.7645  160.3871 H   0  0  0  0  0  0  0  0  0  0  0  0
  149.0101  138.0382  158.8169 H   0  0  0  0  0  0  0  0  0  0  0  0
  150.0431  143.8984  157.1533 H   0  0  0  0  0  0  0  0  0  0  0  0
  1  2  1  0  0  0  0
  1 21  1  0  0  0  0
  1 22  1  0  0  0  0
  1 23  1  0  0  0  0
  2 10  1  0  0  0  0
  2  3  2  0  0  0  0
  3  4  1  0  0  0  0
  3 42  1  0  0  0  0
  4  9  2  0  0  0  0
  4  5  1  0  0  0  0
  5  6  2  0  0  0  0
  5 24  1  0  0  0  0
  6  7  1  0  0  0  0
  6 25  1  0  0  0  0
  7  8  2  0  0  0  0
  7 26  1  0  0  0  0
  8  9  1  0  0  0  0
  8 27  1  0  0  0  0
  9 10  1  0  0  0  0
 10 11  1  0  0  0  0
 11 12  1  0  0  0  0
 11 28  1  0  0  0  0
 11 29  1  0  0  0  0
 12 13  1  0  0  0  0
 12 14  1  0  0  0  0
 12 30  1  0  0  0  0
 13 31  1  0  0  0  0
 14 15  1  0  0  0  0
 14 32  1  0  0  0  0
 14 33  1  0  0  0  0
 15 20  1  0  0  0  0
 15 16  1  0  0  0  0
 16 17  1  0  0  0  0
 16 34  1  0  0  0  0
 16 35  1  0  0  0  0
 17 18  1  0  0  0  0
 17 36  1  0  0  0  0
 17 37  1  0  0  0  0
 18 19  1  0  0  0  0
 19 20  1  0  0  0  0
 19 38  1  0  0  0  0
 19 39  1  0  0  0  0
 20 40  1  0  0  0  0
 20 41  1  0  0  0  0
M  CHG  1   3   1
M  END
> <s_m_source_file>
AV-unprocessed.smi

> <i_m_source_file_index>
356

> <i_lp_mmshare_version>
43012

> <i_f3d_flags>
0

> <s_epik_input>
W2NIXTFbY0hdW2NIXVtjSF1jKGMxMiluKGMobjIpW0NIM10pW0NIMl1bQ0BIXShbT0hdKVtDSDJdTjNbQ0gyXVtDSDJdT1tDSDJdW0NIMl0z

> <s_epik_cmdline>
J2VwaWtfcHl0aG9uJywgJy1waCcsICc3LjAnLCAnLXRuJywgJzgnLCAnLW1hJywgJzIwMCcsICctbWV0YWxfYmluZGluZycsICctaW1hZScsICc8aW5maWxlLm1hZT4nLCAnLW9tYWUnLCAnPG91dGZpbGUubWFlPic=

> <r_epik_Ionization_Penalty>
1.35865

> <r_epik_Ionization_Penalty_Charging>
1.14429

> <r_epik_Ionization_Penalty_Neutral>
0.214359

> <r_epik_State_Penalty>
1.39809

> <r_epik_Charging_Adjusted_Penalty>
2.54238

> <i_epik_Tot_Q>
1

> <i_epik_Tot_abs_Q>
1

> <r_epik_Metal_State_Penalty>
5.40564

> <b_epik_Metal_Only>
0

> <s_lp_Force_Field>
OPLS_2005

> <r_lp_Energy>
32.3817

> <b_lp_Chiralities_Consistent>
1

> <s_lp_Variant>
AV-unprocessed.smi:356-6

> <Gold.Version>
5.8.1

> <Gold.Id.Protein>
6NUR|6NUR_protein|mol2

> <Gold.PLP.Fitness>
45.3402

> <Gold.PLP.PLP>
-37.5691

> <Gold.PLP.part.hbond>
-2.0000

> <Gold.PLP.part.metal>
0.0000

> <Gold.PLP.part.buried>
-5.4659

> <Gold.PLP.part.nonpolar>
-30.3245

> <Gold.PLP.part.repulsive>
0.0028

> <Gold.PLP.ligand.clash>
0.0000

> <Gold.PLP.ligand.torsion>
0.6037

> <Gold.PLP.Chemscore.Hbond>
2.9913

> <Gold.PLP.Chemscore.CHOScore>
0.0000

> <Gold.PLP.Chemscore.Metal>
0.0000

> <Gold.Chemscore.Hbonds>
donor molecule, donor type, donor heavy atom, donor atom, acceptor molecule, acceptor atom, score
      L1  H     3    42       P1  8028  1.95
      P1  H  6896  6909       L1    15  0.80

> <Gold.PLP.Chemscore.Internal.Correction>
0.0049

> <Gold.Rescore>
     Score         DG    S(hbond)    S(metal)    S(lipo)     H(rot)  DE(clash)    DE(int)     intcor
     14.42     -15.28       1.00        0.00     100.14       2.05       0.08       0.78       ----

> <Gold.Chemscore.Fitness>
14.4241

> <Gold.Chemscore.DG>
-15.2808

> <Gold.Chemscore.ZeroCoef>
-5.4800

> <Gold.Chemscore.Hbond>
1.0007

> <Gold.Chemscore.Metal>
0.0000

> <Gold.Chemscore.Lipo>
100.1385

> <Gold.Chemscore.Internal_Hbond>
0.0000

> <Gold.Chemscore.DEClash>
0.0761

> <Gold.Chemscore.DEInternal>
0.7805

> <Gold.Chemscore.Rot>
2.0539

> <Gold.Chemscore.Internal.Correction>
   9.000000E+99

> <Gold.Chemscore.Hbonds>
donor molecule, donor type, donor heavy atom, donor atom, acceptor molecule, acceptor atom, score
      L1  H     3    42       P1  8028  0.84
      P1  H  6896  6909       L1    15  0.09

> <Gold.Chemscore.Hbond.Weighted>
-3.3424

> <Gold.Chemscore.Metal.Weighted>
-0.0000

> <Gold.Chemscore.Lipo.Weighted>
-11.7162

> <Gold.Chemscore.Internal_Hbond.Weighted>
0.0000

> <Gold.Chemscore.DEClash.Weighted>
0.0761

> <Gold.Chemscore.DEInternal.Weighted>
0.7805

> <Gold.Chemscore.Rot.Weighted>
5.2579

> <Gold.Chemscore.Internal.Correction.Weighted>
   9.000000E+99

> <Gold.Protein.RotatedTorsions>
[ 6907 6896 6895 6894 ] final   90.30 input  -60.11 | X-H torsion
[ 7974 7965 7964 7962 ] final -170.17 input  175.53 | X-H torsion
[ 8008 7997 7996 7995 ] final   51.26 input   59.86 | X-H torsion
[ 10167 10162 10161 10158 ] final   39.75 input  -65.29 | X-H torsion
[ 10718 10713 10712 10709 ] final   -8.83 input   66.30 | X-H torsion
[ 10763 10752 10751 10750 ] final  -42.10 input  -60.55 | X-H torsion
[ 11005 11000 10999 10996 ] final  -18.23 input  -57.11 | X-H torsion

> <Gold.Protein.ActiveResidues>
 VAL166  LYS551  ARG553  GLY616  TRP617  ASP618  TYR619  PRO620  LYS621  CYS622 
 ASP623  PHE694  ASN695  SER759  ASP760  ASP761  ALA762  ILE779  LEU786  VAL792 
 PHE793  MET794  SER795  GLU796  ALA797  LYS798  CYS799  TRP800  GLU811  SER814 

> <Gold.Protein.RotatedAtoms>
  152.5443  134.1834  159.8644 H   0  0  0  0  0  0  0  0  0  0  0  0  # atno 6907 bound_to 6896
  151.1834  133.4704  159.2602 H   0  0  0  0  0  0  0  0  0  0  0  0  # atno 6908 bound_to 6896
  151.1155  135.0062  159.8569 H   0  0  0  0  0  0  0  0  0  0  0  0  # atno 6909 bound_to 6896
  144.7174  140.2112  143.6327 H   0  0  0  0  0  0  0  0  0  0  0  0  # atno 7974 bound_to 7965
  155.4323  140.3451  155.4281 H   0  0  0  0  0  0  0  0  0  0  0  0  # atno 8008 bound_to 7997
  156.1329  140.1519  156.9069 H   0  0  0  0  0  0  0  0  0  0  0  0  # atno 8009 bound_to 7997
  154.4908  140.0841  156.7571 H   0  0  0  0  0  0  0  0  0  0  0  0  # atno 8010 bound_to 7997
  140.3809  144.1980  150.6131 H   0  0  0  0  0  0  0  0  0  0  0  0  # atno 10167 bound_to 10162
  156.6968  130.5081  149.5928 H   0  0  0  0  0  0  0  0  0  0  0  0  # atno 10718 bound_to 10713
  153.9734  135.6725  153.4748 H   0  0  0  0  0  0  0  0  0  0  0  0  # atno 10763 bound_to 10752
  153.0782  135.4937  154.8445 H   0  0  0  0  0  0  0  0  0  0  0  0  # atno 10764 bound_to 10752
  154.7206  135.3116  154.9015 H   0  0  0  0  0  0  0  0  0  0  0  0  # atno 10765 bound_to 10752
  140.8248  133.8041  155.9696 H   0  0  0  0  0  0  0  0  0  0  0  0  # atno 11005 bound_to 11000
  145.8589  139.2213  143.1728 LP  0  0  0  0  0  0  0  0  0  0  0  0  # atno 17320 bound_to 7965
  146.0192  140.8364  142.9932 LP  0  0  0  0  0  0  0  0  0  0  0  0  # atno 17321 bound_to 7965
  140.4938  143.2339  151.8780 LP  0  0  0  0  0  0  0  0  0  0  0  0  # atno 17342 bound_to 10162
  139.4795  144.5136  151.8898 LP  0  0  0  0  0  0  0  0  0  0  0  0  # atno 17343 bound_to 10162
  156.1757  130.6466  151.0891 LP  0  0  0  0  0  0  0  0  0  0  0  0  # atno 17370 bound_to 10713
  157.6988  131.0784  150.6886 LP  0  0  0  0  0  0  0  0  0  0  0  0  # atno 17371 bound_to 10713
  140.9061  134.2318  157.5013 LP  0  0  0  0  0  0  0  0  0  0  0  0  # atno 17394 bound_to 11000
  139.8707  134.9729  156.4789 LP  0  0  0  0  0  0  0  0  0  0  0  0  # atno 17395 bound_to 11000

$$$$
