AV-unprocessed.smi:3322|AV-procd|sdf|12774|dock10
  -GOLD-   2272019123D 1   1.00000     0.00000
 Structure written by MMmdl.
 39 40  0  0  0  0  0  0  0  0  2 V2000
  147.7298  140.1462  154.8308 C   0  0  0  0  0  0  0  0  0  0  0  0
  148.5366  138.9530  154.2915 C   0  0  1  0  0  0  0  0  0  0  0  0
  148.1302  138.6871  152.8905 N   0  3  0  0  0  0  0  0  0  0  0  0
  146.6771  138.7715  152.6303 C   0  0  0  0  0  0  0  0  0  0  0  0
  146.3045  138.0157  151.3475 C   0  0  0  0  0  0  0  0  0  0  0  0
  145.5411  136.8175  151.6358 N   0  0  0  0  0  0  0  0  0  0  0  0
  145.1558  135.8158  150.7699 C   0  0  0  0  0  0  0  0  0  0  0  0
  144.4561  134.8971  151.4984 C   0  0  0  0  0  0  0  0  0  0  0  0
  144.4646  135.4329  152.8167 C   0  0  0  0  0  0  0  0  0  0  0  0
  145.1149  136.5829  152.8954 N   0  0  0  0  0  0  0  0  0  0  0  0
  150.0512  139.2348  154.4065 C   0  0  0  0  0  0  0  0  0  0  0  0
  150.4256  140.4081  154.3552 O   0  0  0  0  0  0  0  0  0  0  0  0
  150.9276  138.2112  154.5656 N   0  0  0  0  0  0  0  0  0  0  0  0
  150.6017  136.7901  154.7353 C   0  0  0  0  0  0  0  0  0  0  0  0
  151.0991  136.3334  156.1195 C   0  0  0  0  0  0  0  0  0  0  0  0
  152.4983  136.5742  156.2349 O   0  0  0  0  0  0  0  0  0  0  0  0
  152.8427  137.9453  156.0593 C   0  0  0  0  0  0  0  0  0  0  0  0
  152.3768  138.4161  154.6706 C   0  0  0  0  0  0  0  0  0  0  0  0
  147.9645  140.3579  155.8740 H   0  0  0  0  0  0  0  0  0  0  0  0
  146.6586  139.9496  154.7750 H   0  0  0  0  0  0  0  0  0  0  0  0
  147.9286  141.0536  154.2588 H   0  0  0  0  0  0  0  0  0  0  0  0
  148.2745  138.0602  154.8583 H   0  0  0  0  0  0  0  0  0  0  0  0
  148.5844  139.3679  152.2988 H   0  0  0  0  0  0  0  0  0  0  0  0
  146.1250  138.3549  153.4737 H   0  0  0  0  0  0  0  0  0  0  0  0
  146.3904  139.8205  152.5448 H   0  0  0  0  0  0  0  0  0  0  0  0
  145.7170  138.6506  150.6825 H   0  0  0  0  0  0  0  0  0  0  0  0
  147.2044  137.7296  150.8011 H   0  0  0  0  0  0  0  0  0  0  0  0
  145.4090  135.8381  149.7199 H   0  0  0  0  0  0  0  0  0  0  0  0
  144.0060  133.9818  151.1435 H   0  0  0  0  0  0  0  0  0  0  0  0
  144.0208  135.0232  153.7123 H   0  0  0  0  0  0  0  0  0  0  0  0
  149.5426  136.5598  154.6512 H   0  0  0  0  0  0  0  0  0  0  0  0
  151.0956  136.2139  153.9515 H   0  0  0  0  0  0  0  0  0  0  0  0
  150.5660  136.8542  156.9165 H   0  0  0  0  0  0  0  0  0  0  0  0
  150.9135  135.2678  156.2546 H   0  0  0  0  0  0  0  0  0  0  0  0
  152.3914  138.5494  156.8482 H   0  0  0  0  0  0  0  0  0  0  0  0
  153.9234  138.0526  156.1522 H   0  0  0  0  0  0  0  0  0  0  0  0
  152.8794  137.8407  153.8918 H   0  0  0  0  0  0  0  0  0  0  0  0
  152.6768  139.4535  154.5174 H   0  0  0  0  0  0  0  0  0  0  0  0
  148.4587  137.7668  152.6342 H   0  0  0  0  0  0  0  0  0  0  0  0
  1  2  1  0  0  0  0
  1 19  1  0  0  0  0
  1 20  1  0  0  0  0
  1 21  1  0  0  0  0
  2  3  1  0  0  0  0
  2 11  1  0  0  0  0
  2 22  1  0  0  0  0
  3  4  1  0  0  0  0
  3 23  1  0  0  0  0
  3 39  1  0  0  0  0
  4  5  1  0  0  0  0
  4 24  1  0  0  0  0
  4 25  1  0  0  0  0
  5  6  1  0  0  0  0
  5 26  1  0  0  0  0
  5 27  1  0  0  0  0
  6 10  1  0  0  0  0
  6  7  1  0  0  0  0
  7  8  2  0  0  0  0
  7 28  1  0  0  0  0
  8  9  1  0  0  0  0
  8 29  1  0  0  0  0
  9 10  2  0  0  0  0
  9 30  1  0  0  0  0
 11 12  2  0  0  0  0
 11 13  1  0  0  0  0
 13 18  1  0  0  0  0
 13 14  1  0  0  0  0
 14 15  1  0  0  0  0
 14 31  1  0  0  0  0
 14 32  1  0  0  0  0
 15 16  1  0  0  0  0
 15 33  1  0  0  0  0
 15 34  1  0  0  0  0
 16 17  1  0  0  0  0
 17 18  1  0  0  0  0
 17 35  1  0  0  0  0
 17 36  1  0  0  0  0
 18 37  1  0  0  0  0
 18 38  1  0  0  0  0
M  CHG  1   3   1
M  END
> <s_m_source_file>
AV-unprocessed.smi

> <i_m_source_file_index>
3322

> <i_lp_mmshare_version>
43012

> <i_f3d_flags>
0

> <s_epik_input>
W0NIMl0xW0NIMl1PW0NIMl1bQ0gyXU4xQyg9TylbQ0BIXShbQ0gzXSlbTkhdW0NIMl1bQ0gyXW4yW2NIXVtjSF1bY0hdbjI=

> <s_epik_cmdline>
J2VwaWtfcHl0aG9uJywgJy1waCcsICc3LjAnLCAnLXRuJywgJzgnLCAnLW1hJywgJzIwMCcsICctbWV0YWxfYmluZGluZycsICctaW1hZScsICc8aW5maWxlLm1hZT4nLCAnLW9tYWUnLCAnPG91dGZpbGUubWFlPic=

> <r_lp_tautomer_probability>
1

> <r_epik_Ionization_Penalty>
0.3254

> <r_epik_Ionization_Penalty_Charging>
0.325398

> <r_epik_Ionization_Penalty_Neutral>
2.29478e-06

> <r_epik_State_Penalty>
0.320187

> <r_epik_Charging_Adjusted_Penalty>
0.645585

> <i_epik_Tot_Q>
1

> <i_epik_Tot_abs_Q>
1

> <r_epik_Metal_State_Penalty>
0.320558

> <b_epik_Metal_Only>
0

> <s_lp_Force_Field>
OPLS_2005

> <r_lp_Energy>
25.7531

> <b_lp_Chiralities_Consistent>
1

> <s_lp_Variant>
AV-unprocessed.smi:3322-2

> <Gold.Version>
5.8.1

> <Gold.Id.Protein>
6NUR|6NUR_protein|mol2

> <Gold.PLP.Fitness>
49.0408

> <Gold.PLP.PLP>
-33.8990

> <Gold.PLP.part.hbond>
-3.8077

> <Gold.PLP.part.metal>
0.0000

> <Gold.PLP.part.buried>
-2.0298

> <Gold.PLP.part.nonpolar>
-29.6788

> <Gold.PLP.part.repulsive>
0.3298

> <Gold.PLP.ligand.clash>
0.0000

> <Gold.PLP.ligand.torsion>
1.3901

> <Gold.PLP.Chemscore.Hbond>
4.9680

> <Gold.PLP.Chemscore.CHOScore>
1.0000

> <Gold.PLP.Chemscore.Metal>
0.0000

> <Gold.Chemscore.Hbonds>
donor molecule, donor type, donor heavy atom, donor atom, acceptor molecule, acceptor atom, score
      L1  H     3    23       P1  7957  1.00
      L1  H     3    39       P1  7948  2.00
      P1  H  7989  7998       L1    12  1.00
      P1  H 10752 10764       L1    16  1.00
      L1  C     7    28       P1  7921  1.00

> <Gold.PLP.Chemscore.Internal.Correction>
0.0180

> <Gold.Rescore>
     Score         DG    S(hbond)    S(metal)    S(lipo)     H(rot)  DE(clash)    DE(int)     intcor
     18.14     -20.36       3.65        0.00      64.74       1.91       0.95       1.27       ----

> <Gold.Chemscore.Fitness>
18.1354

> <Gold.Chemscore.DG>
-20.3597

> <Gold.Chemscore.ZeroCoef>
-5.4800

> <Gold.Chemscore.Hbond>
3.6509

> <Gold.Chemscore.Metal>
0.0000

> <Gold.Chemscore.Lipo>
64.7372

> <Gold.Chemscore.Internal_Hbond>
0.0000

> <Gold.Chemscore.DEClash>
0.9494

> <Gold.Chemscore.DEInternal>
1.2750

> <Gold.Chemscore.Rot>
1.9095

> <Gold.Chemscore.Internal.Correction>
   9.000000E+99

> <Gold.Chemscore.Hbonds>
donor molecule, donor type, donor heavy atom, donor atom, acceptor molecule, acceptor atom, score
      L1  H     3    23       P1  7957  0.99
      L1  H     3    39       P1  7948  1.00
      P1  H  7989  7998       L1    12  0.89
      P1  H 10752 10764       L1    16  0.45

> <Gold.Chemscore.Hbond.Weighted>
-12.1939

> <Gold.Chemscore.Metal.Weighted>
-0.0000

> <Gold.Chemscore.Lipo.Weighted>
-7.5743

> <Gold.Chemscore.Internal_Hbond.Weighted>
0.0000

> <Gold.Chemscore.DEClash.Weighted>
0.9494

> <Gold.Chemscore.DEInternal.Weighted>
1.2750

> <Gold.Chemscore.Rot.Weighted>
4.8884

> <Gold.Chemscore.Internal.Correction.Weighted>
   9.000000E+99

> <Gold.Protein.RotatedTorsions>
[ 6907 6896 6895 6894 ] final  172.72 input  -60.11 | X-H torsion
[ 7974 7965 7964 7962 ] final  147.14 input  175.53 | X-H torsion
[ 8008 7997 7996 7995 ] final -134.28 input   59.86 | X-H torsion
[ 10167 10162 10161 10158 ] final  -81.70 input  -65.29 | X-H torsion
[ 10718 10713 10712 10709 ] final   63.73 input   66.30 | X-H torsion
[ 10763 10752 10751 10750 ] final  -22.22 input  -60.55 | X-H torsion
[ 11005 11000 10999 10996 ] final -149.54 input  -57.11 | X-H torsion

> <Gold.Protein.ActiveResidues>
 VAL166  LYS551  ARG553  GLY616  TRP617  ASP618  TYR619  PRO620  LYS621  CYS622 
 ASP623  PHE694  ASN695  SER759  ASP760  ASP761  ALA762  ILE779  LEU786  VAL792 
 PHE793  MET794  SER795  GLU796  ALA797  LYS798  CYS799  TRP800  GLU811  SER814 

> <Gold.Protein.RotatedAtoms>
  151.7798  133.3348  159.3468 H   0  0  0  0  0  0  0  0  0  0  0  0  # atno 6907 bound_to 6896
  150.7430  134.5941  159.6012 H   0  0  0  0  0  0  0  0  0  0  0  0  # atno 6908 bound_to 6896
  152.3284  134.7293  160.0347 H   0  0  0  0  0  0  0  0  0  0  0  0  # atno 6909 bound_to 6896
  144.8615  139.5992  143.5928 H   0  0  0  0  0  0  0  0  0  0  0  0  # atno 7974 bound_to 7965
  155.3595  140.0482  157.3046 H   0  0  0  0  0  0  0  0  0  0  0  0  # atno 8008 bound_to 7997
  154.5185  140.2217  155.8983 H   0  0  0  0  0  0  0  0  0  0  0  0  # atno 8009 bound_to 7997
  156.1663  140.3105  155.8901 H   0  0  0  0  0  0  0  0  0  0  0  0  # atno 8010 bound_to 7997
  140.4388  143.2522  151.8655 H   0  0  0  0  0  0  0  0  0  0  0  0  # atno 10167 bound_to 10162
  157.5991  130.9121  149.9754 H   0  0  0  0  0  0  0  0  0  0  0  0  # atno 10718 bound_to 10713
  153.6484  135.6982  153.5217 H   0  0  0  0  0  0  0  0  0  0  0  0  # atno 10763 bound_to 10752
  153.2726  135.4210  155.1002 H   0  0  0  0  0  0  0  0  0  0  0  0  # atno 10764 bound_to 10752
  154.8482  135.3582  154.6029 H   0  0  0  0  0  0  0  0  0  0  0  0  # atno 10765 bound_to 10752
  140.7497  134.3421  157.5129 H   0  0  0  0  0  0  0  0  0  0  0  0  # atno 11005 bound_to 11000
  146.2864  139.7015  142.9192 LP  0  0  0  0  0  0  0  0  0  0  0  0  # atno 17320 bound_to 7965
  145.4304  141.0414  143.2914 LP  0  0  0  0  0  0  0  0  0  0  0  0  # atno 17321 bound_to 7965
  139.4788  144.5252  151.8744 LP  0  0  0  0  0  0  0  0  0  0  0  0  # atno 17342 bound_to 10162
  140.4343  144.2074  150.5889 LP  0  0  0  0  0  0  0  0  0  0  0  0  # atno 17343 bound_to 10162
  156.1060  130.3652  150.0132 LP  0  0  0  0  0  0  0  0  0  0  0  0  # atno 17370 bound_to 10713
  156.8239  130.9368  151.3640 LP  0  0  0  0  0  0  0  0  0  0  0  0  # atno 17371 bound_to 10713
  139.8790  134.9134  156.3082 LP  0  0  0  0  0  0  0  0  0  0  0  0  # atno 17394 bound_to 11000
  140.9762  133.7296  156.0606 LP  0  0  0  0  0  0  0  0  0  0  0  0  # atno 17395 bound_to 11000

$$$$
