AV-unprocessed.smi:2202|AV-procd|sdf|8933|dock4
  -GOLD-   2272012143D 1   1.00000     0.00000
 Structure written by MMmdl.
 43 45  0  0  0  0  0  0  0  0  2 V2000
  151.6536  135.9075  155.9594 O   0  0  0  0  0  0  0  0  0  0  0  0
  151.0608  136.3951  154.9953 C   0  0  0  0  0  0  0  0  0  0  0  0
  151.4722  137.7570  154.4182 C   0  0  0  0  0  0  0  0  0  0  0  0
  151.4752  138.8339  155.4165 N   0  0  0  0  0  0  0  0  0  0  0  0
  152.1858  138.8072  156.5614 C   0  0  0  0  0  0  0  0  0  0  0  0
  152.8404  137.8664  157.0091 O   0  0  0  0  0  0  0  0  0  0  0  0
  152.1355  140.1839  157.2068 C   0  0  2  0  0  0  0  0  0  0  0  0
  152.0924  140.3875  158.7260 C   0  0  0  0  0  0  0  0  0  0  0  0
  151.7875  141.8643  158.9980 C   0  0  0  0  0  0  0  0  0  0  0  0
  151.3039  142.7179  158.0621 C   0  0  0  0  0  0  0  0  0  0  0  0
  150.9630  142.3026  156.6271 C   0  0  0  0  0  0  0  0  0  0  0  0
  150.8860  140.7718  156.5821 C   0  0  1  0  0  0  0  0  0  0  0  0
  150.7973  139.9907  155.2801 C   0  0  0  0  0  0  0  0  0  0  0  0
  150.1515  140.3626  154.3008 O   0  0  0  0  0  0  0  0  0  0  0  0
  150.0271  135.7904  154.3910 N   0  0  0  0  0  0  0  0  0  0  0  0
  149.4816  134.4937  154.7734 C   0  0  0  0  0  0  0  0  0  0  0  0
  149.5770  133.4782  153.6217 C   0  0  0  0  0  0  0  0  0  0  0  0
  148.2130  133.0853  153.0894 C   0  0  0  0  0  0  0  0  0  0  0  0
  147.6831  131.7878  153.2592 C   0  0  0  0  0  0  0  0  0  0  0  0
  146.4092  131.4902  152.7312 C   0  0  0  0  0  0  0  0  0  0  0  0
  145.6937  132.4944  152.0462 C   0  0  0  0  0  0  0  0  0  0  0  0
  146.2709  133.7730  151.9058 C   0  0  0  0  0  0  0  0  0  0  0  0
  147.4941  134.0189  152.4244 N   0  3  0  0  0  0  0  0  0  0  0  0
  152.4646  137.6714  153.9718 H   0  0  0  0  0  0  0  0  0  0  0  0
  150.7972  138.0034  153.5971 H   0  0  0  0  0  0  0  0  0  0  0  0
  153.0140  140.7115  156.8273 H   0  0  0  0  0  0  0  0  0  0  0  0
  151.3328  139.7623  159.1967 H   0  0  0  0  0  0  0  0  0  0  0  0
  153.0546  140.1287  159.1687 H   0  0  0  0  0  0  0  0  0  0  0  0
  151.9816  142.2220  159.9985 H   0  0  0  0  0  0  0  0  0  0  0  0
  151.1366  143.7537  158.3191 H   0  0  0  0  0  0  0  0  0  0  0  0
  150.0042  142.7368  156.3421 H   0  0  0  0  0  0  0  0  0  0  0  0
  151.7183  142.6899  155.9424 H   0  0  0  0  0  0  0  0  0  0  0  0
  150.0118  140.4672  157.1624 H   0  0  0  0  0  0  0  0  0  0  0  0
  149.5912  136.2606  153.6104 H   0  0  0  0  0  0  0  0  0  0  0  0
  150.0003  134.1217  155.6588 H   0  0  0  0  0  0  0  0  0  0  0  0
  148.4390  134.6333  155.0606 H   0  0  0  0  0  0  0  0  0  0  0  0
  150.1745  133.8917  152.8080 H   0  0  0  0  0  0  0  0  0  0  0  0
  150.0927  132.5753  153.9519 H   0  0  0  0  0  0  0  0  0  0  0  0
  148.2436  131.0287  153.7854 H   0  0  0  0  0  0  0  0  0  0  0  0
  145.9864  130.5032  152.8496 H   0  0  0  0  0  0  0  0  0  0  0  0
  144.7170  132.2866  151.6342 H   0  0  0  0  0  0  0  0  0  0  0  0
  145.7962  134.5994  151.3970 H   0  0  0  0  0  0  0  0  0  0  0  0
  147.8939  134.9509  152.3099 H   0  0  0  0  0  0  0  0  0  0  0  0
  1  2  2  0  0  0  0
  2  3  1  0  0  0  0
  2 15  1  0  0  0  0
  3  4  1  0  0  0  0
  3 24  1  0  0  0  0
  3 25  1  0  0  0  0
  4 13  1  0  0  0  0
  4  5  1  0  0  0  0
  5  6  2  0  0  0  0
  5  7  1  0  0  0  0
  7 12  1  0  0  0  0
  7  8  1  0  0  0  0
  7 26  1  0  0  0  0
  8  9  1  0  0  0  0
  8 27  1  0  0  0  0
  8 28  1  0  0  0  0
  9 10  2  0  0  0  0
  9 29  1  0  0  0  0
 10 11  1  0  0  0  0
 10 30  1  0  0  0  0
 11 12  1  0  0  0  0
 11 31  1  0  0  0  0
 11 32  1  0  0  0  0
 12 13  1  0  0  0  0
 12 33  1  0  0  0  0
 13 14  2  0  0  0  0
 15 16  1  0  0  0  0
 15 34  1  0  0  0  0
 16 17  1  0  0  0  0
 16 35  1  0  0  0  0
 16 36  1  0  0  0  0
 17 18  1  0  0  0  0
 17 37  1  0  0  0  0
 17 38  1  0  0  0  0
 18 23  1  0  0  0  0
 18 19  2  0  0  0  0
 19 20  1  0  0  0  0
 19 39  1  0  0  0  0
 20 21  2  0  0  0  0
 20 40  1  0  0  0  0
 21 22  1  0  0  0  0
 21 41  1  0  0  0  0
 22 23  2  0  0  0  0
 22 42  1  0  0  0  0
 23 43  1  0  0  0  0
M  CHG  1  23   1
M  END
> <s_m_source_file>
AV-unprocessed.smi

> <i_m_source_file_index>
2202

> <i_lp_mmshare_version>
43012

> <i_f3d_flags>
0

> <s_epik_input>
W0NIMl0xW0NIXT1bQ0hdW0NIMl1bQ0BIXShbQ0BIXTEyKUMoPU8pTihDMj1PKVtDSDJdQyg9TylbTkhdW0NIMl1bQ0gyXWMzW2NIXVtjSF1bY0hdW2NIXW4z

> <s_epik_cmdline>
J2VwaWtfcHl0aG9uJywgJy1waCcsICc3LjAnLCAnLXRuJywgJzgnLCAnLW1hJywgJzIwMCcsICctbWV0YWxfYmluZGluZycsICctaW1hZScsICc8aW5maWxlLm1hZT4nLCAnLW9tYWUnLCAnPG91dGZpbGUubWFlPic=

> <r_lp_tautomer_probability>
1

> <r_epik_Ionization_Penalty>
1.90039

> <r_epik_Ionization_Penalty_Charging>
1.90039

> <r_epik_Ionization_Penalty_Neutral>
1.50224e-07

> <r_epik_State_Penalty>
2.02162

> <r_epik_Charging_Adjusted_Penalty>
3.922

> <i_epik_Tot_Q>
1

> <i_epik_Tot_abs_Q>
1

> <r_epik_Metal_State_Penalty>
2.04542

> <b_epik_Metal_Only>
0

> <s_lp_Force_Field>
OPLS_2005

> <r_lp_Energy>
26.3593

> <b_lp_Chiralities_Consistent>
1

> <s_lp_Variant>
AV-unprocessed.smi:2202-5

> <Gold.Version>
5.8.1

> <Gold.Id.Protein>
6NUR|6NUR_protein|mol2

> <Gold.PLP.Fitness>
54.4536

> <Gold.PLP.PLP>
-41.8615

> <Gold.PLP.part.hbond>
-4.5876

> <Gold.PLP.part.metal>
0.0000

> <Gold.PLP.part.buried>
-3.4576

> <Gold.PLP.part.nonpolar>
-34.1943

> <Gold.PLP.part.repulsive>
0.2177

> <Gold.PLP.ligand.clash>
0.0000

> <Gold.PLP.ligand.torsion>
0.4723

> <Gold.PLP.Chemscore.Hbond>
4.5024

> <Gold.PLP.Chemscore.CHOScore>
0.0000

> <Gold.PLP.Chemscore.Metal>
0.0000

> <Gold.Chemscore.Hbonds>
donor molecule, donor type, donor heavy atom, donor atom, acceptor molecule, acceptor atom, score
      L1  H    15    34       P1  7948  0.98
      L1  H    23    43       P1  7948  2.00
      P1  H  7989  7998       L1    14  0.56
      P1  H 10752 10765       L1     1  1.00

> <Gold.PLP.Chemscore.Internal.Correction>
0.0296

> <Gold.Rescore>
     Score         DG    S(hbond)    S(metal)    S(lipo)     H(rot)  DE(clash)    DE(int)     intcor
     16.87     -19.15       2.44        0.00      90.09       1.96       0.22       2.06       ----

> <Gold.Chemscore.Fitness>
16.8675

> <Gold.Chemscore.DG>
-19.1486

> <Gold.Chemscore.ZeroCoef>
-5.4800

> <Gold.Chemscore.Hbond>
2.4407

> <Gold.Chemscore.Metal>
0.0000

> <Gold.Chemscore.Lipo>
90.0907

> <Gold.Chemscore.Internal_Hbond>
0.0000

> <Gold.Chemscore.DEClash>
0.2198

> <Gold.Chemscore.DEInternal>
2.0613

> <Gold.Chemscore.Rot>
1.9625

> <Gold.Chemscore.Internal.Correction>
   9.000000E+99

> <Gold.Chemscore.Hbonds>
donor molecule, donor type, donor heavy atom, donor atom, acceptor molecule, acceptor atom, score
      L1  H    15    34       P1  7948  0.47
      L1  H    23    43       P1  7948  0.82
      P1  H  7989  7998       L1    14  0.04
      P1  H 10752 10765       L1     1  0.25

> <Gold.Chemscore.Hbond.Weighted>
-8.1520

> <Gold.Chemscore.Metal.Weighted>
-0.0000

> <Gold.Chemscore.Lipo.Weighted>
-10.5406

> <Gold.Chemscore.Internal_Hbond.Weighted>
0.0000

> <Gold.Chemscore.DEClash.Weighted>
0.2198

> <Gold.Chemscore.DEInternal.Weighted>
2.0613

> <Gold.Chemscore.Rot.Weighted>
5.0240

> <Gold.Chemscore.Internal.Correction.Weighted>
   9.000000E+99

> <Gold.Protein.RotatedTorsions>
[ 6907 6896 6895 6894 ] final -121.96 input  -60.11 | X-H torsion
[ 7974 7965 7964 7962 ] final  -11.32 input  175.53 | X-H torsion
[ 8008 7997 7996 7995 ] final  107.01 input   59.86 | X-H torsion
[ 10167 10162 10161 10158 ] final  -73.40 input  -65.29 | X-H torsion
[ 10718 10713 10712 10709 ] final  -76.71 input   66.30 | X-H torsion
[ 10763 10752 10751 10750 ] final -139.62 input  -60.55 | X-H torsion
[ 11005 11000 10999 10996 ] final  -47.17 input  -57.11 | X-H torsion

> <Gold.Protein.ActiveResidues>
 VAL166  LYS551  ARG553  GLY616  TRP617  ASP618  TYR619  PRO620  LYS621  CYS622 
 ASP623  PHE694  ASN695  SER759  ASP760  ASP761  ALA762  ILE779  LEU786  VAL792 
 PHE793  MET794  SER795  GLU796  ALA797  LYS798  CYS799  TRP800  GLU811  SER814 

> <Gold.Protein.RotatedAtoms>
  150.8531  133.7756  159.3018 H   0  0  0  0  0  0  0  0  0  0  0  0  # atno 6907 bound_to 6896
  151.5421  135.1067  159.9938 H   0  0  0  0  0  0  0  0  0  0  0  0  # atno 6908 bound_to 6896
  152.4569  133.7697  159.6848 H   0  0  0  0  0  0  0  0  0  0  0  0  # atno 6909 bound_to 6896
  146.2191  140.2894  142.8367 H   0  0  0  0  0  0  0  0  0  0  0  0  # atno 7974 bound_to 7965
  156.1789  140.3102  155.9111 H   0  0  0  0  0  0  0  0  0  0  0  0  # atno 8008 bound_to 7997
  155.3427  140.0466  157.3062 H   0  0  0  0  0  0  0  0  0  0  0  0  # atno 8009 bound_to 7997
  154.5321  140.2234  155.8797 H   0  0  0  0  0  0  0  0  0  0  0  0  # atno 8010 bound_to 7997
  140.5113  143.2344  151.7588 H   0  0  0  0  0  0  0  0  0  0  0  0  # atno 10167 bound_to 10162
  156.0167  130.4472  150.3235 H   0  0  0  0  0  0  0  0  0  0  0  0  # atno 10718 bound_to 10713
  154.8604  135.3577  154.5575 H   0  0  0  0  0  0  0  0  0  0  0  0  # atno 10763 bound_to 10752
  153.6191  135.7006  153.5322 H   0  0  0  0  0  0  0  0  0  0  0  0  # atno 10764 bound_to 10752
  153.3144  135.4169  155.1323 H   0  0  0  0  0  0  0  0  0  0  0  0  # atno 10765 bound_to 10752
  141.0624  133.6704  156.3260 H   0  0  0  0  0  0  0  0  0  0  0  0  # atno 11005 bound_to 11000
  144.9138  140.7788  143.5791 LP  0  0  0  0  0  0  0  0  0  0  0  0  # atno 17320 bound_to 7965
  145.2826  139.1912  143.4782 LP  0  0  0  0  0  0  0  0  0  0  0  0  # atno 17321 bound_to 7965
  139.4897  144.4386  151.9791 LP  0  0  0  0  0  0  0  0  0  0  0  0  # atno 17342 bound_to 10162
  140.3478  144.3125  150.5955 LP  0  0  0  0  0  0  0  0  0  0  0  0  # atno 17343 bound_to 10162
  157.1334  131.0278  151.2959 LP  0  0  0  0  0  0  0  0  0  0  0  0  # atno 17370 bound_to 10713
  157.4531  130.7610  149.7169 LP  0  0  0  0  0  0  0  0  0  0  0  0  # atno 17371 bound_to 10713
  140.5841  134.5716  157.5486 LP  0  0  0  0  0  0  0  0  0  0  0  0  # atno 17394 bound_to 11000
  139.9445  134.7727  156.0596 LP  0  0  0  0  0  0  0  0  0  0  0  0  # atno 17395 bound_to 11000

$$$$
