AV-unprocessed.smi:1718|AV-procd|sdf|6922|dock9
  -GOLD-   22720 8123D 1   1.00000     0.00000
 Structure written by MMmdl.
 40 41  0  0  0  0  0  0  0  0  1 V2000
  153.1750  139.1047  158.5119 C   0  0  0  0  0  0  0  0  0  0  0  0
  151.7190  138.8471  158.0959 C   0  0  2  0  0  0  0  0  0  0  0  0
  150.9829  140.0383  158.3575 O   0  0  0  0  0  0  0  0  0  0  0  0
  151.2429  141.1270  157.4770 C   0  0  0  0  0  0  0  0  0  0  0  0
  151.2448  142.4385  158.2745 C   0  0  2  0  0  0  0  0  0  0  0  0
  151.7561  143.6605  157.4960 C   0  0  0  0  0  0  0  0  0  0  0  0
  153.0466  144.0188  158.2068 C   0  0  0  0  0  0  0  0  0  0  0  0
  152.7834  143.5198  159.6209 C   0  0  0  0  0  0  0  0  0  0  0  0
  152.0920  142.2987  159.4121 O   0  0  0  0  0  0  0  0  0  0  0  0
  151.1109  137.6660  158.8699 C   0  0  0  0  0  0  0  0  0  0  0  0
  151.8203  137.0152  159.6368 O   0  0  0  0  0  0  0  0  0  0  0  0
  149.8043  137.4333  158.6343 N   0  0  0  0  0  0  0  0  0  0  0  0
  148.9461  136.4822  159.2113 C   0  0  0  0  0  0  0  0  0  0  0  0
  148.7308  136.3353  160.5450 C   0  0  0  0  0  0  0  0  0  0  0  0
  147.8138  135.3401  161.0738 C   0  0  0  0  0  0  0  0  0  0  0  0
  147.6431  135.1398  162.5716 C   0  0  0  0  0  0  0  0  0  0  0  0
  147.9981  133.9091  162.9434 F   0  0  0  0  0  0  0  0  0  0  0  0
  148.3841  136.0134  163.2534 F   0  0  0  0  0  0  0  0  0  0  0  0
  146.3683  135.3258  162.9105 F   0  0  0  0  0  0  0  0  0  0  0  0
  147.1881  134.5608  160.1723 C   0  0  0  0  0  0  0  0  0  0  0  0
  147.3874  134.7191  158.7990 N   0  0  0  0  0  0  0  0  0  0  0  0
  148.2234  135.6301  158.2523 C   0  0  0  0  0  0  0  0  0  0  0  0
  148.3429  135.7083  157.0301 O   0  0  0  0  0  0  0  0  0  0  0  0
  146.8686  134.1063  158.1864 H   0  0  0  0  0  0  0  0  0  0  0  0
  153.7953  138.2217  158.3539 H   0  0  0  0  0  0  0  0  0  0  0  0
  153.2497  139.3842  159.5638 H   0  0  0  0  0  0  0  0  0  0  0  0
  153.6047  139.9177  157.9264 H   0  0  0  0  0  0  0  0  0  0  0  0
  151.7031  138.6385  157.0242 H   0  0  0  0  0  0  0  0  0  0  0  0
  152.2142  140.9866  157.0007 H   0  0  0  0  0  0  0  0  0  0  0  0
  150.4967  141.1860  156.6841 H   0  0  0  0  0  0  0  0  0  0  0  0
  150.2344  142.6405  158.6326 H   0  0  0  0  0  0  0  0  0  0  0  0
  151.9070  143.4681  156.4331 H   0  0  0  0  0  0  0  0  0  0  0  0
  151.0426  144.4805  157.5859 H   0  0  0  0  0  0  0  0  0  0  0  0
  153.8795  143.4683  157.7676 H   0  0  0  0  0  0  0  0  0  0  0  0
  153.2782  145.0833  158.1648 H   0  0  0  0  0  0  0  0  0  0  0  0
  153.6983  143.3709  160.1945 H   0  0  0  0  0  0  0  0  0  0  0  0
  152.1416  144.2137  160.1657 H   0  0  0  0  0  0  0  0  0  0  0  0
  149.3726  138.0096  157.9258 H   0  0  0  0  0  0  0  0  0  0  0  0
  149.2200  136.9728  161.2628 H   0  0  0  0  0  0  0  0  0  0  0  0
  146.5019  133.7660  160.4253 H   0  0  0  0  0  0  0  0  0  0  0  0
  1  2  1  0  0  0  0
  1 25  1  0  0  0  0
  1 26  1  0  0  0  0
  1 27  1  0  0  0  0
  2  3  1  0  0  0  0
  2 10  1  0  0  0  0
  2 28  1  0  0  0  0
  3  4  1  0  0  0  0
  4  5  1  0  0  0  0
  4 29  1  0  0  0  0
  4 30  1  0  0  0  0
  5  9  1  0  0  0  0
  5  6  1  0  0  0  0
  5 31  1  0  0  0  0
  6  7  1  0  0  0  0
  6 32  1  0  0  0  0
  6 33  1  0  0  0  0
  7  8  1  0  0  0  0
  7 34  1  0  0  0  0
  7 35  1  0  0  0  0
  8  9  1  0  0  0  0
  8 36  1  0  0  0  0
  8 37  1  0  0  0  0
 10 11  2  0  0  0  0
 10 12  1  0  0  0  0
 12 13  1  0  0  0  0
 12 38  1  0  0  0  0
 13 22  1  0  0  0  0
 13 14  2  0  0  0  0
 14 15  1  0  0  0  0
 14 39  1  0  0  0  0
 15 16  1  0  0  0  0
 15 20  2  0  0  0  0
 16 17  1  0  0  0  0
 16 18  1  0  0  0  0
 16 19  1  0  0  0  0
 20 21  1  0  0  0  0
 20 40  1  0  0  0  0
 21 24  1  0  0  0  0
 21 22  1  0  0  0  0
 22 23  2  0  0  0  0
M  END
> <s_m_source_file>
AV-unprocessed.smi

> <i_m_source_file_index>
1718

> <i_lp_mmshare_version>
43012

> <i_f3d_flags>
0

> <s_epik_input>
TzFbQ0gyXVtDSDJdW0NIMl1bQ0BIXTFbQ0gyXU9bQ0BASF0oW0NIM10pQyg9TylbTkhdYzJbY0hdYyhDKEYpKEYpRilbY0hdW25IXWMyPU8=

> <s_epik_cmdline>
J2VwaWtfcHl0aG9uJywgJy1waCcsICc3LjAnLCAnLXRuJywgJzgnLCAnLW1hJywgJzIwMCcsICctbWV0YWxfYmluZGluZycsICctaW1hZScsICc8aW5maWxlLm1hZT4nLCAnLW9tYWUnLCAnPG91dGZpbGUubWFlPic=

> <r_lp_tautomer_probability>
0.999

> <r_epik_Ionization_Penalty>
0.00894336

> <r_epik_Ionization_Penalty_Charging>
0.00894326

> <r_epik_Ionization_Penalty_Neutral>
1.00145e-07

> <r_epik_State_Penalty>
0.00676626

> <r_epik_Charging_Adjusted_Penalty>
0.0157095

> <i_epik_Tot_Q>
0

> <i_epik_Tot_abs_Q>
0

> <r_epik_Metal_State_Penalty>
0.321145

> <b_epik_Metal_Only>
0

> <s_lp_Force_Field>
OPLS_2005

> <r_lp_Energy>
34.6519

> <b_lp_Chiralities_Consistent>
1

> <s_lp_Variant>
AV-unprocessed.smi:1718-1

> <Gold.Version>
5.8.1

> <Gold.Id.Protein>
6NUR|6NUR_protein|mol2

> <Gold.PLP.Fitness>
45.9768

> <Gold.PLP.PLP>
-44.7608

> <Gold.PLP.part.hbond>
-0.9825

> <Gold.PLP.part.metal>
0.0000

> <Gold.PLP.part.buried>
-6.6271

> <Gold.PLP.part.nonpolar>
-37.9658

> <Gold.PLP.part.repulsive>
0.1838

> <Gold.PLP.ligand.clash>
0.0198

> <Gold.PLP.ligand.torsion>
0.9422

> <Gold.PLP.Chemscore.Hbond>
0.9913

> <Gold.PLP.Chemscore.CHOScore>
0.0000

> <Gold.PLP.Chemscore.Metal>
0.0000

> <Gold.Chemscore.Hbonds>
donor molecule, donor type, donor heavy atom, donor atom, acceptor molecule, acceptor atom, score
      P1  H  6896  6907       L1    11  1.00

> <Gold.PLP.Chemscore.Internal.Correction>
0.1464

> <Gold.Rescore>
     Score         DG    S(hbond)    S(metal)    S(lipo)     H(rot)  DE(clash)    DE(int)     intcor
     13.27     -14.61       1.00        0.00      90.75       1.88       0.00       1.34       ----

> <Gold.Chemscore.Fitness>
13.2708

> <Gold.Chemscore.DG>
-14.6140

> <Gold.Chemscore.ZeroCoef>
-5.4800

> <Gold.Chemscore.Hbond>
0.9961

> <Gold.Chemscore.Metal>
0.0000

> <Gold.Chemscore.Lipo>
90.7455

> <Gold.Chemscore.Internal_Hbond>
0.0000

> <Gold.Chemscore.DEClash>
0.0038

> <Gold.Chemscore.DEInternal>
1.3394

> <Gold.Chemscore.Rot>
1.8790

> <Gold.Chemscore.Internal.Correction>
   9.000000E+99

> <Gold.Chemscore.Hbonds>
donor molecule, donor type, donor heavy atom, donor atom, acceptor molecule, acceptor atom, score
      P1  H  6896  6907       L1    11  0.98

> <Gold.Chemscore.Hbond.Weighted>
-3.3270

> <Gold.Chemscore.Metal.Weighted>
-0.0000

> <Gold.Chemscore.Lipo.Weighted>
-10.6172

> <Gold.Chemscore.Internal_Hbond.Weighted>
0.0000

> <Gold.Chemscore.DEClash.Weighted>
0.0038

> <Gold.Chemscore.DEInternal.Weighted>
1.3394

> <Gold.Chemscore.Rot.Weighted>
4.8102

> <Gold.Chemscore.Internal.Correction.Weighted>
   9.000000E+99

> <Gold.Protein.RotatedTorsions>
[ 6907 6896 6895 6894 ] final   -7.09 input  -60.11 | X-H torsion
[ 7974 7965 7964 7962 ] final  -51.19 input  175.53 | X-H torsion
[ 8008 7997 7996 7995 ] final   15.82 input   59.86 | X-H torsion
[ 10167 10162 10161 10158 ] final  -10.96 input  -65.29 | X-H torsion
[ 10718 10713 10712 10709 ] final  136.43 input   66.30 | X-H torsion
[ 10763 10752 10751 10750 ] final -172.19 input  -60.55 | X-H torsion
[ 11005 11000 10999 10996 ] final -109.83 input  -57.11 | X-H torsion

> <Gold.Protein.ActiveResidues>
 VAL166  LYS551  ARG553  GLY616  TRP617  ASP618  TYR619  PRO620  LYS621  CYS622 
 ASP623  PHE694  ASN695  SER759  ASP760  ASP761  ALA762  ILE779  LEU786  VAL792 
 PHE793  MET794  SER795  GLU796  ALA797  LYS798  CYS799  TRP800  GLU811  SER814 

> <Gold.Protein.RotatedAtoms>
  151.4551  135.1033  159.9708 H   0  0  0  0  0  0  0  0  0  0  0  0  # atno 6907 bound_to 6896
  152.4874  133.8405  159.7160 H   0  0  0  0  0  0  0  0  0  0  0  0  # atno 6908 bound_to 6896
  150.8995  133.7076  159.2910 H   0  0  0  0  0  0  0  0  0  0  0  0  # atno 6909 bound_to 6896
  145.9217  140.7828  142.9644 H   0  0  0  0  0  0  0  0  0  0  0  0  # atno 7974 bound_to 7965
  154.8682  140.2954  155.5497 H   0  0  0  0  0  0  0  0  0  0  0  0  # atno 8008 bound_to 7997
  156.3021  140.2465  156.3599 H   0  0  0  0  0  0  0  0  0  0  0  0  # atno 8009 bound_to 7997
  154.8846  140.0396  157.1791 H   0  0  0  0  0  0  0  0  0  0  0  0  # atno 8010 bound_to 7997
  140.7127  143.5692  150.9111 H   0  0  0  0  0  0  0  0  0  0  0  0  # atno 10167 bound_to 10162
  157.4468  131.1062  151.0080 H   0  0  0  0  0  0  0  0  0  0  0  0  # atno 10718 bound_to 10713
  154.6221  135.2876  155.0314 H   0  0  0  0  0  0  0  0  0  0  0  0  # atno 10763 bound_to 10752
  154.1506  135.6504  153.4966 H   0  0  0  0  0  0  0  0  0  0  0  0  # atno 10764 bound_to 10752
  153.0240  135.5354  154.7014 H   0  0  0  0  0  0  0  0  0  0  0  0  # atno 10765 bound_to 10752
  141.0826  133.9194  157.2256 H   0  0  0  0  0  0  0  0  0  0  0  0  # atno 11005 bound_to 11000
  144.6753  140.1986  143.7389 LP  0  0  0  0  0  0  0  0  0  0  0  0  # atno 17320 bound_to 7965
  145.8542  139.2190  143.1754 LP  0  0  0  0  0  0  0  0  0  0  0  0  # atno 17321 bound_to 7965
  139.9417  143.6374  152.3052 LP  0  0  0  0  0  0  0  0  0  0  0  0  # atno 17342 bound_to 10162
  139.6861  144.7651  151.1522 LP  0  0  0  0  0  0  0  0  0  0  0  0  # atno 17343 bound_to 10162
  157.0924  130.5948  149.5442 LP  0  0  0  0  0  0  0  0  0  0  0  0  # atno 17370 bound_to 10713
  155.9970  130.5041  150.7519 LP  0  0  0  0  0  0  0  0  0  0  0  0  # atno 17371 bound_to 10713
  139.9641  135.0146  156.9340 LP  0  0  0  0  0  0  0  0  0  0  0  0  # atno 17394 bound_to 11000
  140.5435  134.0697  155.7348 LP  0  0  0  0  0  0  0  0  0  0  0  0  # atno 17395 bound_to 11000

$$$$
