AV-unprocessed.smi:2132|AV-procd|sdf|8691|dock4
  -GOLD-   2272011443D 1   1.00000     0.00000
 Structure written by MMmdl.
 38 39  0  0  0  0  0  0  0  0  1 V2000
  152.4744  143.0583  160.0093 C   0  0  0  0  0  0  0  0  0  0  0  0
  151.0773  143.2183  159.8398 O   0  0  0  0  0  0  0  0  0  0  0  0
  150.7552  144.0600  158.7447 C   0  0  0  0  0  0  0  0  0  0  0  0
  151.3434  143.4626  157.4591 C   0  0  0  0  0  0  0  0  0  0  0  0
  150.3034  142.8914  156.6125 N   0  0  0  0  0  0  0  0  0  0  0  0
  150.2420  141.6101  156.2156 C   0  0  0  0  0  0  0  0  0  0  0  0
  151.0886  140.7674  156.5135 O   0  0  0  0  0  0  0  0  0  0  0  0
  149.1005  141.2563  155.2976 C   0  0  0  0  0  0  0  0  0  0  0  0
  148.2196  142.2855  154.8947 C   0  0  0  0  0  0  0  0  0  0  0  0
  147.1387  141.9855  154.0474 C   0  0  0  0  0  0  0  0  0  0  0  0
  146.9778  140.6564  153.6217 C   0  0  0  0  0  0  0  0  0  0  0  0
  147.8169  139.6632  153.9770 N   0  0  0  0  0  0  0  0  0  0  0  0
  148.8669  139.9419  154.7891 C   0  0  0  0  0  0  0  0  0  0  0  0
  149.7389  138.8706  155.0690 N   0  0  0  0  0  0  0  0  0  0  0  0
  151.0407  138.9802  154.4226 C   0  0  0  0  0  0  0  0  0  0  0  0
  152.0072  137.9421  155.0179 C   0  0  0  0  0  0  0  0  0  0  0  0
  151.4424  136.6383  154.9049 O   0  0  0  0  0  0  0  0  0  0  0  0
  150.2057  136.5255  155.6043 C   0  0  0  0  0  0  0  0  0  0  0  0
  149.1896  137.5202  155.0178 C   0  0  0  0  0  0  0  0  0  0  0  0
  152.6674  142.4019  160.8577 H   0  0  0  0  0  0  0  0  0  0  0  0
  152.9595  144.0149  160.2073 H   0  0  0  0  0  0  0  0  0  0  0  0
  152.9307  142.6101  159.1259 H   0  0  0  0  0  0  0  0  0  0  0  0
  149.6737  144.1748  158.6540 H   0  0  0  0  0  0  0  0  0  0  0  0
  151.1748  145.0532  158.9114 H   0  0  0  0  0  0  0  0  0  0  0  0
  151.8957  144.2256  156.9085 H   0  0  0  0  0  0  0  0  0  0  0  0
  152.0611  142.6796  157.7046 H   0  0  0  0  0  0  0  0  0  0  0  0
  149.5777  143.5190  156.2975 H   0  0  0  0  0  0  0  0  0  0  0  0
  148.3594  143.2996  155.2404 H   0  0  0  0  0  0  0  0  0  0  0  0
  146.4489  142.7550  153.7343 H   0  0  0  0  0  0  0  0  0  0  0  0
  146.1585  140.3841  152.9731 H   0  0  0  0  0  0  0  0  0  0  0  0
  150.9224  138.8113  153.3516 H   0  0  0  0  0  0  0  0  0  0  0  0
  151.4511  139.9828  154.5442 H   0  0  0  0  0  0  0  0  0  0  0  0
  152.9583  137.9653  154.4859 H   0  0  0  0  0  0  0  0  0  0  0  0
  152.2210  138.1673  156.0641 H   0  0  0  0  0  0  0  0  0  0  0  0
  149.8332  135.5058  155.5076 H   0  0  0  0  0  0  0  0  0  0  0  0
  150.3602  136.7102  156.6689 H   0  0  0  0  0  0  0  0  0  0  0  0
  148.2553  137.4774  155.5788 H   0  0  0  0  0  0  0  0  0  0  0  0
  148.9642  137.2518  153.9848 H   0  0  0  0  0  0  0  0  0  0  0  0
  1  2  1  0  0  0  0
  1 20  1  0  0  0  0
  1 21  1  0  0  0  0
  1 22  1  0  0  0  0
  2  3  1  0  0  0  0
  3  4  1  0  0  0  0
  3 23  1  0  0  0  0
  3 24  1  0  0  0  0
  4  5  1  0  0  0  0
  4 25  1  0  0  0  0
  4 26  1  0  0  0  0
  5  6  1  0  0  0  0
  5 27  1  0  0  0  0
  6  7  2  0  0  0  0
  6  8  1  0  0  0  0
  8 13  1  0  0  0  0
  8  9  2  0  0  0  0
  9 10  1  0  0  0  0
  9 28  1  0  0  0  0
 10 11  2  0  0  0  0
 10 29  1  0  0  0  0
 11 12  1  0  0  0  0
 11 30  1  0  0  0  0
 12 13  2  0  0  0  0
 13 14  1  0  0  0  0
 14 19  1  0  0  0  0
 14 15  1  0  0  0  0
 15 16  1  0  0  0  0
 15 31  1  0  0  0  0
 15 32  1  0  0  0  0
 16 17  1  0  0  0  0
 16 33  1  0  0  0  0
 16 34  1  0  0  0  0
 17 18  1  0  0  0  0
 18 19  1  0  0  0  0
 18 35  1  0  0  0  0
 18 36  1  0  0  0  0
 19 37  1  0  0  0  0
 19 38  1  0  0  0  0
M  END
> <s_m_source_file>
AV-unprocessed.smi

> <i_m_source_file_index>
2132

> <i_lp_mmshare_version>
43012

> <i_f3d_flags>
0

> <s_epik_input>
W0NIM11PW0NIMl1bQ0gyXVtOSF1DKD1PKWMxW2NIXVtjSF1bY0hdbmMxTjJbQ0gyXVtDSDJdT1tDSDJdW0NIMl0y

> <s_epik_cmdline>
J2VwaWtfcHl0aG9uJywgJy1waCcsICc3LjAnLCAnLXRuJywgJzgnLCAnLW1hJywgJzIwMCcsICctbWV0YWxfYmluZGluZycsICctaW1hZScsICc8aW5maWxlLm1hZT4nLCAnLW9tYWUnLCAnPG91dGZpbGUubWFlPic=

> <r_lp_tautomer_probability>
1

> <r_epik_Ionization_Penalty>
1.38099e-05

> <r_epik_Ionization_Penalty_Charging>
0

> <r_epik_Ionization_Penalty_Neutral>
1.38099e-05

> <r_epik_State_Penalty>
-0

> <r_epik_Charging_Adjusted_Penalty>
0

> <i_epik_Tot_Q>
0

> <i_epik_Tot_abs_Q>
0

> <r_epik_Metal_State_Penalty>
-0

> <b_epik_Metal_Only>
0

> <s_lp_Force_Field>
OPLS_2005

> <r_lp_Energy>
24.8445

> <b_lp_Chiralities_Consistent>
1

> <s_lp_Variant>
AV-unprocessed.smi:2132-1

> <Gold.Version>
5.8.1

> <Gold.Id.Protein>
6NUR|6NUR_protein|mol2

> <Gold.PLP.Fitness>
40.0679

> <Gold.PLP.PLP>
-32.3964

> <Gold.PLP.part.hbond>
-2.5008

> <Gold.PLP.part.metal>
0.0000

> <Gold.PLP.part.buried>
-2.8822

> <Gold.PLP.part.nonpolar>
-28.9996

> <Gold.PLP.part.repulsive>
0.4982

> <Gold.PLP.ligand.clash>
0.0000

> <Gold.PLP.ligand.torsion>
0.8015

> <Gold.PLP.Chemscore.Hbond>
2.0000

> <Gold.PLP.Chemscore.CHOScore>
1.0000

> <Gold.PLP.Chemscore.Metal>
0.0000

> <Gold.Chemscore.Hbonds>
donor molecule, donor type, donor heavy atom, donor atom, acceptor molecule, acceptor atom, score
      L1  H     5    27       P1  8028  0.99
      P1  H 10752 10764       L1    17  1.00
      L1  C    11    30       P1 10175  1.00

> <Gold.PLP.Chemscore.Internal.Correction>
0.2745

> <Gold.Rescore>
     Score         DG    S(hbond)    S(metal)    S(lipo)     H(rot)  DE(clash)    DE(int)     intcor
     12.79     -17.57       1.88        0.00      85.15       1.62       1.19       3.60       ----

> <Gold.Chemscore.Fitness>
12.7855

> <Gold.Chemscore.DG>
-17.5714

> <Gold.Chemscore.ZeroCoef>
-5.4800

> <Gold.Chemscore.Hbond>
1.8798

> <Gold.Chemscore.Metal>
0.0000

> <Gold.Chemscore.Lipo>
85.1489

> <Gold.Chemscore.Internal_Hbond>
0.0000

> <Gold.Chemscore.DEClash>
1.1868

> <Gold.Chemscore.DEInternal>
3.5991

> <Gold.Chemscore.Rot>
1.6209

> <Gold.Chemscore.Internal.Correction>
   9.000000E+99

> <Gold.Chemscore.Hbonds>
donor molecule, donor type, donor heavy atom, donor atom, acceptor molecule, acceptor atom, score
      L1  H     5    27       P1  8028  0.92
      P1  H 10752 10764       L1    17  0.34

> <Gold.Chemscore.Hbond.Weighted>
-6.2785

> <Gold.Chemscore.Metal.Weighted>
-0.0000

> <Gold.Chemscore.Lipo.Weighted>
-9.9624

> <Gold.Chemscore.Internal_Hbond.Weighted>
0.0000

> <Gold.Chemscore.DEClash.Weighted>
1.1868

> <Gold.Chemscore.DEInternal.Weighted>
3.5991

> <Gold.Chemscore.Rot.Weighted>
4.1496

> <Gold.Chemscore.Internal.Correction.Weighted>
   9.000000E+99

> <Gold.Protein.RotatedTorsions>
[ 6907 6896 6895 6894 ] final  178.79 input  -60.11 | X-H torsion
[ 7974 7965 7964 7962 ] final  154.79 input  175.53 | X-H torsion
[ 8008 7997 7996 7995 ] final -141.71 input   59.86 | X-H torsion
[ 10167 10162 10161 10158 ] final -139.66 input  -65.29 | X-H torsion
[ 10718 10713 10712 10709 ] final  -99.90 input   66.30 | X-H torsion
[ 10763 10752 10751 10750 ] final  -50.12 input  -60.55 | X-H torsion
[ 11005 11000 10999 10996 ] final  -17.79 input  -57.11 | X-H torsion

> <Gold.Protein.ActiveResidues>
 VAL166  LYS551  ARG553  GLY616  TRP617  ASP618  TYR619  PRO620  LYS621  CYS622 
 ASP623  PHE694  ASN695  SER759  ASP760  ASP761  ALA762  ILE779  LEU786  VAL792 
 PHE793  MET794  SER795  GLU796  ALA797  LYS798  CYS799  TRP800  GLU811  SER814 

> <Gold.Protein.RotatedAtoms>
  151.6821  133.3312  159.3221 H   0  0  0  0  0  0  0  0  0  0  0  0  # atno 6907 bound_to 6896
  150.7818  134.6772  159.6433 H   0  0  0  0  0  0  0  0  0  0  0  0  # atno 6908 bound_to 6896
  152.3877  134.6494  160.0171 H   0  0  0  0  0  0  0  0  0  0  0  0  # atno 6909 bound_to 6896
  144.8066  139.6980  143.6159 H   0  0  0  0  0  0  0  0  0  0  0  0  # atno 7974 bound_to 7965
  155.4823  140.0561  157.2965 H   0  0  0  0  0  0  0  0  0  0  0  0  # atno 8008 bound_to 7997
  154.4655  140.2016  156.0082 H   0  0  0  0  0  0  0  0  0  0  0  0  # atno 8009 bound_to 7997
  156.0967  140.3225  155.7891 H   0  0  0  0  0  0  0  0  0  0  0  0  # atno 8010 bound_to 7997
  139.8358  143.7387  152.2665 H   0  0  0  0  0  0  0  0  0  0  0  0  # atno 10167 bound_to 10162
  156.0147  130.5303  150.6738 H   0  0  0  0  0  0  0  0  0  0  0  0  # atno 10718 bound_to 10713
  154.1053  135.6557  153.4875 H   0  0  0  0  0  0  0  0  0  0  0  0  # atno 10763 bound_to 10752
  153.0275  135.5234  154.7246 H   0  0  0  0  0  0  0  0  0  0  0  0  # atno 10764 bound_to 10752
  154.6410  135.2988  155.0073 H   0  0  0  0  0  0  0  0  0  0  0  0  # atno 10765 bound_to 10752
  140.8203  133.8073  155.9652 H   0  0  0  0  0  0  0  0  0  0  0  0  # atno 11005 bound_to 11000
  146.2358  139.5903  142.9524 LP  0  0  0  0  0  0  0  0  0  0  0  0  # atno 17320 bound_to 7965
  145.5423  141.0420  143.2324 LP  0  0  0  0  0  0  0  0  0  0  0  0  # atno 17321 bound_to 7965
  139.7609  144.7507  151.0366 LP  0  0  0  0  0  0  0  0  0  0  0  0  # atno 17342 bound_to 10162
  140.7803  143.4752  151.0092 LP  0  0  0  0  0  0  0  0  0  0  0  0  # atno 17343 bound_to 10162
  157.4455  131.0866  151.0900 LP  0  0  0  0  0  0  0  0  0  0  0  0  # atno 17370 bound_to 10713
  157.1431  130.6152  149.5561 LP  0  0  0  0  0  0  0  0  0  0  0  0  # atno 17371 bound_to 10713
  140.9106  134.2265  157.4988 LP  0  0  0  0  0  0  0  0  0  0  0  0  # atno 17394 bound_to 11000
  139.8709  134.9748  156.4860 LP  0  0  0  0  0  0  0  0  0  0  0  0  # atno 17395 bound_to 11000

$$$$
