AV-unprocessed.smi:3151|AV-procd|sdf|12016|dock4
  -GOLD-   2272017423D 1   1.00000     0.00000
 Structure written by MMmdl.
 35 36  0  0  0  0  0  0  0  0  1 V2000
  150.0979  142.4985  158.9838 O   0  0  0  0  0  0  0  0  0  0  0  0
  151.0499  142.5846  158.2076 C   0  0  0  0  0  0  0  0  0  0  0  0
  152.1402  143.6375  158.4331 C   0  0  0  0  0  0  0  0  0  0  0  0
  152.8652  143.4897  159.7873 C   0  0  0  0  0  0  0  0  0  0  0  0
  153.3447  142.0689  160.1083 C   0  0  0  0  0  0  0  0  0  0  0  0
  153.5256  142.0372  161.6307 C   0  0  0  0  0  0  0  0  0  0  0  0
  152.6909  143.1989  162.1908 C   0  0  0  0  0  0  0  0  0  0  0  0
  151.9847  143.8358  160.9899 C   0  0  0  0  0  0  0  0  0  0  0  0
  151.2036  141.7839  157.1419 N   0  0  0  0  0  0  0  0  0  0  0  0
  150.2784  140.7269  156.7511 C   0  0  0  0  0  0  0  0  0  0  0  0
  150.1226  140.6479  155.2235 C   0  0  0  0  0  0  0  0  0  0  0  0
  148.7503  140.8756  154.8194 N   0  0  0  0  0  0  0  0  0  0  0  0
  147.9949  140.1075  153.9433 C   0  0  0  0  0  0  0  0  0  0  0  0
  146.7585  140.7073  153.8614 C   0  0  0  0  0  0  0  0  0  0  0  0
  146.7318  141.8395  154.6728 N   0  0  0  0  0  0  0  0  0  0  0  0
  147.9456  141.8743  155.2076 C   0  0  0  0  0  0  0  0  0  0  0  0
  152.8627  143.5495  157.6209 H   0  0  0  0  0  0  0  0  0  0  0  0
  151.7075  144.6361  158.3533 H   0  0  0  0  0  0  0  0  0  0  0  0
  153.7300  144.1555  159.8087 H   0  0  0  0  0  0  0  0  0  0  0  0
  152.5801  141.3459  159.8199 H   0  0  0  0  0  0  0  0  0  0  0  0
  154.2611  141.8065  159.5785 H   0  0  0  0  0  0  0  0  0  0  0  0
  153.2133  141.0776  162.0438 H   0  0  0  0  0  0  0  0  0  0  0  0
  154.5755  142.1770  161.8906 H   0  0  0  0  0  0  0  0  0  0  0  0
  151.9778  142.8661  162.9455 H   0  0  0  0  0  0  0  0  0  0  0  0
  153.3498  143.9279  162.6641 H   0  0  0  0  0  0  0  0  0  0  0  0
  151.8456  144.9105  161.1111 H   0  0  0  0  0  0  0  0  0  0  0  0
  150.9976  143.3866  160.8705 H   0  0  0  0  0  0  0  0  0  0  0  0
  152.0150  141.9211  156.5568 H   0  0  0  0  0  0  0  0  0  0  0  0
  150.6154  139.7693  157.1526 H   0  0  0  0  0  0  0  0  0  0  0  0
  149.3127  140.9337  157.2131 H   0  0  0  0  0  0  0  0  0  0  0  0
  150.7566  141.3890  154.7352 H   0  0  0  0  0  0  0  0  0  0  0  0
  150.4326  139.6700  154.8520 H   0  0  0  0  0  0  0  0  0  0  0  0
  148.3883  139.2232  153.4637 H   0  0  0  0  0  0  0  0  0  0  0  0
  145.8934  140.4144  153.2849 H   0  0  0  0  0  0  0  0  0  0  0  0
  148.2576  142.6457  155.8966 H   0  0  0  0  0  0  0  0  0  0  0  0
  1  2  2  0  0  0  0
  2  3  1  0  0  0  0
  2  9  1  0  0  0  0
  3  4  1  0  0  0  0
  3 17  1  0  0  0  0
  3 18  1  0  0  0  0
  4  8  1  0  0  0  0
  4  5  1  0  0  0  0
  4 19  1  0  0  0  0
  5  6  1  0  0  0  0
  5 20  1  0  0  0  0
  5 21  1  0  0  0  0
  6  7  1  0  0  0  0
  6 22  1  0  0  0  0
  6 23  1  0  0  0  0
  7  8  1  0  0  0  0
  7 24  1  0  0  0  0
  7 25  1  0  0  0  0
  8 26  1  0  0  0  0
  8 27  1  0  0  0  0
  9 10  1  0  0  0  0
  9 28  1  0  0  0  0
 10 11  1  0  0  0  0
 10 29  1  0  0  0  0
 10 30  1  0  0  0  0
 11 12  1  0  0  0  0
 11 31  1  0  0  0  0
 11 32  1  0  0  0  0
 12 16  1  0  0  0  0
 12 13  1  0  0  0  0
 13 14  2  0  0  0  0
 13 33  1  0  0  0  0
 14 15  1  0  0  0  0
 14 34  1  0  0  0  0
 15 16  2  0  0  0  0
 16 35  1  0  0  0  0
M  END
> <s_m_source_file>
AV-unprocessed.smi

> <i_m_source_file_index>
3151

> <i_lp_mmshare_version>
43012

> <i_f3d_flags>
0

> <s_epik_input>
W0NIMl0xW0NIMl1bQ0gyXVtDSDJdW0NIXTFbQ0gyXUMoPU8pW05IXVtDSDJdW0NIMl1uMltjSF1bY0hdbltjSF0y

> <s_epik_cmdline>
J2VwaWtfcHl0aG9uJywgJy1waCcsICc3LjAnLCAnLXRuJywgJzgnLCAnLW1hJywgJzIwMCcsICctbWV0YWxfYmluZGluZycsICctaW1hZScsICc8aW5maWxlLm1hZT4nLCAnLW9tYWUnLCAnPG91dGZpbGUubWFlPic=

> <r_lp_tautomer_probability>
1

> <r_epik_Ionization_Penalty>
0.596413

> <r_epik_Ionization_Penalty_Charging>
0.596413

> <r_epik_Ionization_Penalty_Neutral>
2.16921e-08

> <r_epik_State_Penalty>
0.610423

> <r_epik_Charging_Adjusted_Penalty>
1.20684

> <i_epik_Tot_Q>
0

> <i_epik_Tot_abs_Q>
0

> <r_epik_Metal_State_Penalty>
0.300145

> <b_epik_Metal_Only>
0

> <s_lp_Force_Field>
OPLS_2005

> <r_lp_Energy>
20.9474

> <b_lp_Chiralities_Consistent>
1

> <s_lp_Variant>
AV-unprocessed.smi:3151-2

> <Gold.Version>
5.8.1

> <Gold.Id.Protein>
6NUR|6NUR_protein|mol2

> <Gold.PLP.Fitness>
45.0789

> <Gold.PLP.PLP>
-38.2574

> <Gold.PLP.part.hbond>
-0.7514

> <Gold.PLP.part.metal>
0.0000

> <Gold.PLP.part.buried>
0.4657

> <Gold.PLP.part.nonpolar>
-37.1229

> <Gold.PLP.part.repulsive>
0.2831

> <Gold.PLP.ligand.clash>
0.0000

> <Gold.PLP.ligand.torsion>
0.6970

> <Gold.PLP.Chemscore.Hbond>
0.0000

> <Gold.PLP.Chemscore.CHOScore>
2.7097

> <Gold.PLP.Chemscore.Metal>
0.0000

> <Gold.Chemscore.Hbonds>
donor molecule, donor type, donor heavy atom, donor atom, acceptor molecule, acceptor atom, score
      L1  C    13    33       P1  7957  0.28
      L1  C    14    34       P1 10175  1.00
      L1  C    16    35       P1  8028  1.00

> <Gold.PLP.Chemscore.Internal.Correction>
0.0863

> <Gold.Rescore>
     Score         DG    S(hbond)    S(metal)    S(lipo)     H(rot)  DE(clash)    DE(int)     intcor
     10.71     -11.37       0.00        0.00      93.92       1.99       0.02       0.64       ----

> <Gold.Chemscore.Fitness>
10.7052

> <Gold.Chemscore.DG>
-11.3691

> <Gold.Chemscore.ZeroCoef>
-5.4800

> <Gold.Chemscore.Hbond>
0.0000

> <Gold.Chemscore.Metal>
0.0000

> <Gold.Chemscore.Lipo>
93.9203

> <Gold.Chemscore.Internal_Hbond>
0.0000

> <Gold.Chemscore.DEClash>
0.0247

> <Gold.Chemscore.DEInternal>
0.6392

> <Gold.Chemscore.Rot>
1.9920

> <Gold.Chemscore.Internal.Correction>
   9.000000E+99

> <Gold.Chemscore.Hbond.Weighted>
-0.0000

> <Gold.Chemscore.Metal.Weighted>
-0.0000

> <Gold.Chemscore.Lipo.Weighted>
-10.9887

> <Gold.Chemscore.Internal_Hbond.Weighted>
0.0000

> <Gold.Chemscore.DEClash.Weighted>
0.0247

> <Gold.Chemscore.DEInternal.Weighted>
0.6392

> <Gold.Chemscore.Rot.Weighted>
5.0996

> <Gold.Chemscore.Internal.Correction.Weighted>
   9.000000E+99

> <Gold.Protein.RotatedTorsions>
[ 6907 6896 6895 6894 ] final  113.09 input  -60.11 | X-H torsion
[ 7974 7965 7964 7962 ] final -177.30 input  175.53 | X-H torsion
[ 8008 7997 7996 7995 ] final -130.46 input   59.86 | X-H torsion
[ 10167 10162 10161 10158 ] final  164.81 input  -65.29 | X-H torsion
[ 10718 10713 10712 10709 ] final   56.00 input   66.30 | X-H torsion
[ 10763 10752 10751 10750 ] final  -91.55 input  -60.55 | X-H torsion
[ 11005 11000 10999 10996 ] final  -67.17 input  -57.11 | X-H torsion

> <Gold.Protein.ActiveResidues>
 VAL166  LYS551  ARG553  GLY616  TRP617  ASP618  TYR619  PRO620  LYS621  CYS622 
 ASP623  PHE694  ASN695  SER759  ASP760  ASP761  ALA762  ILE779  LEU786  VAL792 
 PHE793  MET794  SER795  GLU796  ALA797  LYS798  CYS799  TRP800  GLU811  SER814 

> <Gold.Protein.RotatedAtoms>
  152.4880  133.8424  159.7159 H   0  0  0  0  0  0  0  0  0  0  0  0  # atno 6907 bound_to 6896
  150.8984  133.7142  159.2892 H   0  0  0  0  0  0  0  0  0  0  0  0  # atno 6908 bound_to 6896
  151.4591  135.1040  159.9772 H   0  0  0  0  0  0  0  0  0  0  0  0  # atno 6909 bound_to 6896
  144.7127  140.1040  143.6415 H   0  0  0  0  0  0  0  0  0  0  0  0  # atno 7974 bound_to 7965
  155.2961  140.0450  157.3026 H   0  0  0  0  0  0  0  0  0  0  0  0  # atno 8008 bound_to 7997
  154.5513  140.2318  155.8448 H   0  0  0  0  0  0  0  0  0  0  0  0  # atno 8009 bound_to 7997
  156.1969  140.3036  155.9453 H   0  0  0  0  0  0  0  0  0  0  0  0  # atno 8010 bound_to 7997
  139.4895  144.4197  151.9201 H   0  0  0  0  0  0  0  0  0  0  0  0  # atno 10167 bound_to 10162
  157.5393  130.8686  149.8799 H   0  0  0  0  0  0  0  0  0  0  0  0  # atno 10718 bound_to 10713
  154.6772  135.5263  153.8215 H   0  0  0  0  0  0  0  0  0  0  0  0  # atno 10763 bound_to 10752
  153.0540  135.6543  154.0632 H   0  0  0  0  0  0  0  0  0  0  0  0  # atno 10764 bound_to 10752
  154.0524  135.2968  155.3318 H   0  0  0  0  0  0  0  0  0  0  0  0  # atno 10765 bound_to 10752
  141.1501  133.6713  156.6251 H   0  0  0  0  0  0  0  0  0  0  0  0  # atno 11005 bound_to 11000
  145.9513  139.2735  143.1211 LP  0  0  0  0  0  0  0  0  0  0  0  0  # atno 17320 bound_to 7965
  145.9320  140.9041  143.0351 LP  0  0  0  0  0  0  0  0  0  0  0  0  # atno 17321 bound_to 7965
  140.3641  144.2937  150.5929 LP  0  0  0  0  0  0  0  0  0  0  0  0  # atno 17342 bound_to 10162
  140.5377  143.2230  151.8136 LP  0  0  0  0  0  0  0  0  0  0  0  0  # atno 17343 bound_to 10162
  156.0484  130.3723  150.1261 LP  0  0  0  0  0  0  0  0  0  0  0  0  # atno 17370 bound_to 10713
  156.9442  130.9754  151.3510 LP  0  0  0  0  0  0  0  0  0  0  0  0  # atno 17371 bound_to 10713
  140.3510  134.7768  157.4467 LP  0  0  0  0  0  0  0  0  0  0  0  0  # atno 17394 bound_to 11000
  140.0861  134.5665  155.8491 LP  0  0  0  0  0  0  0  0  0  0  0  0  # atno 17395 bound_to 11000

$$$$
