AV-unprocessed.smi:3241|AV-procd|sdf|12392|dock5
  -GOLD-   2272018263D 1   1.00000     0.00000
 Structure written by MMmdl.
 43 44  0  0  0  0  0  0  0  0  1 V2000
  153.6812  141.0068  160.1184 C   0  0  0  0  0  0  0  0  0  0  0  0
  152.6117  142.0424  159.7344 C   0  0  1  0  0  0  0  0  0  0  0  0
  153.2518  143.4298  159.5268 C   0  0  0  0  0  0  0  0  0  0  0  0
  152.2082  144.4870  159.1379 C   0  0  0  0  0  0  0  0  0  0  0  0
  151.4345  144.0583  157.8843 C   0  0  0  0  0  0  0  0  0  0  0  0
  150.7793  142.6841  158.0850 C   0  0  0  0  0  0  0  0  0  0  0  0
  151.8161  141.6095  158.4808 C   0  0  2  0  0  0  0  0  0  0  0  0
  151.1556  140.3885  158.7927 O   0  0  0  0  0  0  0  0  0  0  0  0
  150.3365  139.8679  157.7557 C   0  0  0  0  0  0  0  0  0  0  0  0
  149.8666  138.4669  158.1603 C   0  0  0  0  0  0  0  0  0  0  0  0
  148.6032  138.5312  158.8866 N   0  0  0  0  0  0  0  0  0  0  0  0
  147.9032  137.2528  158.9643 C   0  0  0  0  0  0  0  0  0  0  0  0
  148.7762  136.1680  159.6163 C   0  0  0  0  0  0  0  0  0  0  0  0
  148.3658  135.8766  160.9785 N   0  0  0  0  0  0  0  0  0  0  0  0
  148.1516  134.6450  161.5610 C   0  0  0  0  0  0  0  0  0  0  0  0
  147.7862  134.8665  162.8578 C   0  0  0  0  0  0  0  0  0  0  0  0
  147.8069  136.2846  162.9770 C   0  0  0  0  0  0  0  0  0  0  0  0
  148.1496  136.8866  161.8495 N   0  0  0  0  0  0  0  0  0  0  0  0
  154.4062  140.8691  159.3156 H   0  0  0  0  0  0  0  0  0  0  0  0
  153.2353  140.0355  160.3341 H   0  0  0  0  0  0  0  0  0  0  0  0
  154.2266  141.3189  161.0093 H   0  0  0  0  0  0  0  0  0  0  0  0
  151.9118  142.1199  160.5681 H   0  0  0  0  0  0  0  0  0  0  0  0
  153.7643  143.7436  160.4368 H   0  0  0  0  0  0  0  0  0  0  0  0
  154.0145  143.3712  158.7488 H   0  0  0  0  0  0  0  0  0  0  0  0
  151.5127  144.6384  159.9645 H   0  0  0  0  0  0  0  0  0  0  0  0
  152.6964  145.4464  158.9639 H   0  0  0  0  0  0  0  0  0  0  0  0
  150.6740  144.8018  157.6443 H   0  0  0  0  0  0  0  0  0  0  0  0
  152.1115  144.0205  157.0298 H   0  0  0  0  0  0  0  0  0  0  0  0
  150.0149  142.7560  158.8598 H   0  0  0  0  0  0  0  0  0  0  0  0
  150.2623  142.4038  157.1681 H   0  0  0  0  0  0  0  0  0  0  0  0
  152.5181  141.4552  157.6590 H   0  0  0  0  0  0  0  0  0  0  0  0
  149.4794  140.5099  157.5524 H   0  0  0  0  0  0  0  0  0  0  0  0
  150.9192  139.8014  156.8361 H   0  0  0  0  0  0  0  0  0  0  0  0
  149.7379  137.8645  157.2605 H   0  0  0  0  0  0  0  0  0  0  0  0
  150.6315  137.9740  158.7617 H   0  0  0  0  0  0  0  0  0  0  0  0
  147.9992  139.2337  158.4720 H   0  0  0  0  0  0  0  0  0  0  0  0
  146.9908  137.3718  159.5495 H   0  0  0  0  0  0  0  0  0  0  0  0
  147.5938  136.9299  157.9695 H   0  0  0  0  0  0  0  0  0  0  0  0
  148.7602  135.2494  159.0270 H   0  0  0  0  0  0  0  0  0  0  0  0
  149.8142  136.5008  159.6438 H   0  0  0  0  0  0  0  0  0  0  0  0
  148.2772  133.7245  161.0103 H   0  0  0  0  0  0  0  0  0  0  0  0
  147.5434  134.1282  163.6077 H   0  0  0  0  0  0  0  0  0  0  0  0
  147.5817  136.8901  163.8426 H   0  0  0  0  0  0  0  0  0  0  0  0
  1  2  1  0  0  0  0
  1 19  1  0  0  0  0
  1 20  1  0  0  0  0
  1 21  1  0  0  0  0
  2  7  1  0  0  0  0
  2  3  1  0  0  0  0
  2 22  1  0  0  0  0
  3  4  1  0  0  0  0
  3 23  1  0  0  0  0
  3 24  1  0  0  0  0
  4  5  1  0  0  0  0
  4 25  1  0  0  0  0
  4 26  1  0  0  0  0
  5  6  1  0  0  0  0
  5 27  1  0  0  0  0
  5 28  1  0  0  0  0
  6  7  1  0  0  0  0
  6 29  1  0  0  0  0
  6 30  1  0  0  0  0
  7  8  1  0  0  0  0
  7 31  1  0  0  0  0
  8  9  1  0  0  0  0
  9 10  1  0  0  0  0
  9 32  1  0  0  0  0
  9 33  1  0  0  0  0
 10 11  1  0  0  0  0
 10 34  1  0  0  0  0
 10 35  1  0  0  0  0
 11 12  1  0  0  0  0
 11 36  1  0  0  0  0
 12 13  1  0  0  0  0
 12 37  1  0  0  0  0
 12 38  1  0  0  0  0
 13 14  1  0  0  0  0
 13 39  1  0  0  0  0
 13 40  1  0  0  0  0
 14 18  1  0  0  0  0
 14 15  1  0  0  0  0
 15 16  2  0  0  0  0
 15 41  1  0  0  0  0
 16 17  1  0  0  0  0
 16 42  1  0  0  0  0
 17 18  2  0  0  0  0
 17 43  1  0  0  0  0
M  END
> <s_m_source_file>
AV-unprocessed.smi

> <i_m_source_file_index>
3241

> <i_lp_mmshare_version>
43012

> <i_f3d_flags>
0

> <s_epik_input>
W0NIM11bQ0BASF0xW0NIMl1bQ0gyXVtDSDJdW0NIMl1bQ0BIXTFPW0NIMl1bQ0gyXVtOSF1bQ0gyXVtDSDJdbjJbY0hdW2NIXVtjSF1uMg==

> <s_epik_cmdline>
J2VwaWtfcHl0aG9uJywgJy1waCcsICc3LjAnLCAnLXRuJywgJzgnLCAnLW1hJywgJzIwMCcsICctbWV0YWxfYmluZGluZycsICctaW1hZScsICc8aW5maWxlLm1hZT4nLCAnLW9tYWUnLCAnPG91dGZpbGUubWFlPic=

> <r_lp_tautomer_probability>
1

> <r_epik_Ionization_Penalty>
2.47055

> <r_epik_Ionization_Penalty_Charging>
0

> <r_epik_Ionization_Penalty_Neutral>
2.47055

> <r_epik_State_Penalty>
2.6322

> <r_epik_Charging_Adjusted_Penalty>
2.6322

> <i_epik_Tot_Q>
0

> <i_epik_Tot_abs_Q>
0

> <r_epik_Metal_State_Penalty>
2.63108

> <b_epik_Metal_Only>
0

> <s_lp_Force_Field>
OPLS_2005

> <r_lp_Energy>
16.4595

> <b_lp_Chiralities_Consistent>
1

> <s_lp_Variant>
AV-unprocessed.smi:3241-8

> <Gold.Version>
5.8.1

> <Gold.Id.Protein>
6NUR|6NUR_protein|mol2

> <Gold.PLP.Fitness>
49.7358

> <Gold.PLP.PLP>
-45.8962

> <Gold.PLP.part.hbond>
-3.0000

> <Gold.PLP.part.metal>
0.0000

> <Gold.PLP.part.buried>
-5.2636

> <Gold.PLP.part.nonpolar>
-38.3703

> <Gold.PLP.part.repulsive>
0.0000

> <Gold.PLP.ligand.clash>
0.0000

> <Gold.PLP.ligand.torsion>
0.7283

> <Gold.PLP.Chemscore.Hbond>
1.7520

> <Gold.PLP.Chemscore.CHOScore>
0.0000

> <Gold.PLP.Chemscore.Metal>
0.0000

> <Gold.Chemscore.Hbonds>
donor molecule, donor type, donor heavy atom, donor atom, acceptor molecule, acceptor atom, score
      P1  H  6931  6943       L1    18  1.00

> <Gold.PLP.Chemscore.Internal.Correction>
0.0402

> <Gold.Rescore>
     Score         DG    S(hbond)    S(metal)    S(lipo)     H(rot)  DE(clash)    DE(int)     intcor
     19.12     -19.78       1.64        0.00     114.68       1.79       0.00       0.66       ----

> <Gold.Chemscore.Fitness>
19.1154

> <Gold.Chemscore.DG>
-19.7816

> <Gold.Chemscore.ZeroCoef>
-5.4800

> <Gold.Chemscore.Hbond>
1.6367

> <Gold.Chemscore.Metal>
0.0000

> <Gold.Chemscore.Lipo>
114.6831

> <Gold.Chemscore.Internal_Hbond>
0.0000

> <Gold.Chemscore.DEClash>
0.0048

> <Gold.Chemscore.DEInternal>
0.6615

> <Gold.Chemscore.Rot>
1.7901

> <Gold.Chemscore.Internal.Correction>
   9.000000E+99

> <Gold.Chemscore.Hbonds>
donor molecule, donor type, donor heavy atom, donor atom, acceptor molecule, acceptor atom, score
      P1  H  6931  6943       L1    18  0.96
      P1  H  6934  6947       L1    18  0.01

> <Gold.Chemscore.Hbond.Weighted>
-5.4664

> <Gold.Chemscore.Metal.Weighted>
-0.0000

> <Gold.Chemscore.Lipo.Weighted>
-13.4179

> <Gold.Chemscore.Internal_Hbond.Weighted>
0.0000

> <Gold.Chemscore.DEClash.Weighted>
0.0048

> <Gold.Chemscore.DEInternal.Weighted>
0.6615

> <Gold.Chemscore.Rot.Weighted>
4.5827

> <Gold.Chemscore.Internal.Correction.Weighted>
   9.000000E+99

> <Gold.Protein.RotatedTorsions>
[ 6907 6896 6895 6894 ] final  130.68 input  -60.11 | X-H torsion
[ 7974 7965 7964 7962 ] final -140.66 input  175.53 | X-H torsion
[ 8008 7997 7996 7995 ] final  128.05 input   59.86 | X-H torsion
[ 10167 10162 10161 10158 ] final -149.68 input  -65.29 | X-H torsion
[ 10718 10713 10712 10709 ] final   24.37 input   66.30 | X-H torsion
[ 10763 10752 10751 10750 ] final  155.11 input  -60.55 | X-H torsion
[ 11005 11000 10999 10996 ] final  -85.72 input  -57.11 | X-H torsion

> <Gold.Protein.ActiveResidues>
 VAL166  LYS551  ARG553  GLY616  TRP617  ASP618  TYR619  PRO620  LYS621  CYS622 
 ASP623  PHE694  ASN695  SER759  ASP760  ASP761  ALA762  ILE779  LEU786  VAL792 
 PHE793  MET794  SER795  GLU796  ALA797  LYS798  CYS799  TRP800  GLU811  SER814 

> <Gold.Protein.RotatedAtoms>
  152.3502  133.6170  159.5938 H   0  0  0  0  0  0  0  0  0  0  0  0  # atno 6907 bound_to 6896
  150.7533  133.9586  159.3517 H   0  0  0  0  0  0  0  0  0  0  0  0  # atno 6908 bound_to 6896
  151.7439  135.0849  160.0371 H   0  0  0  0  0  0  0  0  0  0  0  0  # atno 6909 bound_to 6896
  144.8580  140.6173  143.5347 H   0  0  0  0  0  0  0  0  0  0  0  0  # atno 7974 bound_to 7965
  156.2906  140.2654  156.2373 H   0  0  0  0  0  0  0  0  0  0  0  0  # atno 8008 bound_to 7997
  155.0013  140.0388  157.2379 H   0  0  0  0  0  0  0  0  0  0  0  0  # atno 8009 bound_to 7997
  154.7599  140.2759  155.6227 H   0  0  0  0  0  0  0  0  0  0  0  0  # atno 8010 bound_to 7997
  139.7421  143.8646  152.2565 H   0  0  0  0  0  0  0  0  0  0  0  0  # atno 10167 bound_to 10162
  157.1789  130.6793  149.6105 H   0  0  0  0  0  0  0  0  0  0  0  0  # atno 10718 bound_to 10713
  154.1630  135.2808  155.3103 H   0  0  0  0  0  0  0  0  0  0  0  0  # atno 10763 bound_to 10752
  154.6132  135.5492  153.7499 H   0  0  0  0  0  0  0  0  0  0  0  0  # atno 10764 bound_to 10752
  153.0186  135.6420  154.1772 H   0  0  0  0  0  0  0  0  0  0  0  0  # atno 10765 bound_to 10752
  141.1638  133.7415  156.9056 H   0  0  0  0  0  0  0  0  0  0  0  0  # atno 11005 bound_to 11000
  145.4369  139.1541  143.3992 LP  0  0  0  0  0  0  0  0  0  0  0  0  # atno 17320 bound_to 7965
  146.2838  140.4488  142.8766 LP  0  0  0  0  0  0  0  0  0  0  0  0  # atno 17321 bound_to 7965
  139.8600  144.7122  150.9111 LP  0  0  0  0  0  0  0  0  0  0  0  0  # atno 17342 bound_to 10162
  140.7787  143.3826  151.1450 LP  0  0  0  0  0  0  0  0  0  0  0  0  # atno 17343 bound_to 10162
  155.9727  130.4653  150.6250 LP  0  0  0  0  0  0  0  0  0  0  0  0  # atno 17370 bound_to 10713
  157.3972  131.0804  151.1341 LP  0  0  0  0  0  0  0  0  0  0  0  0  # atno 17371 bound_to 10713
  140.1552  134.9203  157.2644 LP  0  0  0  0  0  0  0  0  0  0  0  0  # atno 17394 bound_to 11000
  140.2676  134.3498  155.7384 LP  0  0  0  0  0  0  0  0  0  0  0  0  # atno 17395 bound_to 11000

$$$$
