AV-unprocessed.smi:304|AV-procd|sdf|2277|dock7
  -GOLD-   2262022173D 1   1.00000     0.00000
 Structure written by MMmdl.
 36 38  0  0  0  0  0  0  0  0  1 V2000
  149.2827  142.2561  154.9849 O   0  0  0  0  0  0  0  0  0  0  0  0
  149.5938  141.4867  156.1300 C   0  0  1  0  0  0  0  0  0  0  0  0
  148.6981  140.2381  156.1327 C   0  0  0  0  0  0  0  0  0  0  0  0
  147.3402  140.6433  156.1767 O   0  0  0  0  0  0  0  0  0  0  0  0
  146.7005  140.5534  154.9136 C   0  0  0  0  0  0  0  0  0  0  0  0
  146.1294  141.8979  154.5928 C   0  0  0  0  0  0  0  0  0  0  0  0
  146.4014  142.6669  153.4900 C   0  0  0  0  0  0  0  0  0  0  0  0
  145.6771  143.8950  153.4659 C   0  0  0  0  0  0  0  0  0  0  0  0
  144.8525  144.0462  154.5486 C   0  0  0  0  0  0  0  0  0  0  0  0
  144.9489  142.6771  155.6215 S   0  0  0  0  0  0  0  0  0  0  0  0
  151.0901  141.1194  156.0974 C   0  0  0  0  0  0  0  0  0  0  0  0
  151.6623  140.9894  157.4260 N   0  0  0  0  0  0  0  0  0  0  0  0
  152.1760  139.8742  157.9793 C   0  0  0  0  0  0  0  0  0  0  0  0
  152.6545  139.9721  159.2163 N   0  0  0  0  0  0  0  0  0  0  0  0
  152.4242  141.3073  159.5001 C   0  0  0  0  0  0  0  0  0  0  0  0
  152.7042  142.0583  160.6639 C   0  0  0  0  0  0  0  0  0  0  0  0
  152.3745  143.4281  160.7273 C   0  0  0  0  0  0  0  0  0  0  0  0
  152.6501  144.1330  161.8502 F   0  0  0  0  0  0  0  0  0  0  0  0
  151.7597  144.0666  159.6296 C   0  0  0  0  0  0  0  0  0  0  0  0
  151.4454  145.3819  159.6997 F   0  0  0  0  0  0  0  0  0  0  0  0
  151.4713  143.3388  158.4593 C   0  0  0  0  0  0  0  0  0  0  0  0
  151.8034  141.9726  158.3999 C   0  0  0  0  0  0  0  0  0  0  0  0
  149.1883  143.1587  155.2498 H   0  0  0  0  0  0  0  0  0  0  0  0
  149.3942  142.0824  157.0218 H   0  0  0  0  0  0  0  0  0  0  0  0
  148.8992  139.6063  155.2655 H   0  0  0  0  0  0  0  0  0  0  0  0
  148.9035  139.6402  157.0222 H   0  0  0  0  0  0  0  0  0  0  0  0
  147.4160  140.2529  154.1467 H   0  0  0  0  0  0  0  0  0  0  0  0
  145.9040  139.8086  154.9405 H   0  0  0  0  0  0  0  0  0  0  0  0
  147.0914  142.3930  152.7054 H   0  0  0  0  0  0  0  0  0  0  0  0
  145.7831  144.6125  152.6657 H   0  0  0  0  0  0  0  0  0  0  0  0
  144.1953  144.8717  154.7789 H   0  0  0  0  0  0  0  0  0  0  0  0
  151.2334  140.1728  155.5742 H   0  0  0  0  0  0  0  0  0  0  0  0
  151.6564  141.8687  155.5428 H   0  0  0  0  0  0  0  0  0  0  0  0
  152.1994  138.9369  157.4426 H   0  0  0  0  0  0  0  0  0  0  0  0
  153.1734  141.5798  161.5106 H   0  0  0  0  0  0  0  0  0  0  0  0
  150.9981  143.8245  157.6190 H   0  0  0  0  0  0  0  0  0  0  0  0
  1  2  1  0  0  0  0
  1 23  1  0  0  0  0
  2  3  1  0  0  0  0
  2 11  1  0  0  0  0
  2 24  1  0  0  0  0
  3  4  1  0  0  0  0
  3 25  1  0  0  0  0
  3 26  1  0  0  0  0
  4  5  1  0  0  0  0
  5  6  1  0  0  0  0
  5 27  1  0  0  0  0
  5 28  1  0  0  0  0
  6 10  1  0  0  0  0
  6  7  2  0  0  0  0
  7  8  1  0  0  0  0
  7 29  1  0  0  0  0
  8  9  2  0  0  0  0
  8 30  1  0  0  0  0
  9 10  1  0  0  0  0
  9 31  1  0  0  0  0
 11 12  1  0  0  0  0
 11 32  1  0  0  0  0
 11 33  1  0  0  0  0
 12 22  1  0  0  0  0
 12 13  1  0  0  0  0
 13 14  2  0  0  0  0
 13 34  1  0  0  0  0
 14 15  1  0  0  0  0
 15 22  2  0  0  0  0
 15 16  1  0  0  0  0
 16 17  2  0  0  0  0
 16 35  1  0  0  0  0
 17 18  1  0  0  0  0
 17 19  1  0  0  0  0
 19 20  1  0  0  0  0
 19 21  2  0  0  0  0
 21 22  1  0  0  0  0
 21 36  1  0  0  0  0
M  END
> <s_m_source_file>
AV-unprocessed.smi

> <i_m_source_file_index>
304

> <i_lp_mmshare_version>
43012

> <i_f3d_flags>
0

> <s_epik_input>
W2NIXTFjKEYpYyhGKVtjSF1jKGMxMiluKFtjSF1uMilbQ0gyXVtDQEhdKFtPSF0pW0NIMl1PW0NIMl1jM1tjSF1bY0hdW2NIXXMz

> <s_epik_cmdline>
J2VwaWtfcHl0aG9uJywgJy1waCcsICc3LjAnLCAnLXRuJywgJzgnLCAnLW1hJywgJzIwMCcsICctbWV0YWxfYmluZGluZycsICctaW1hZScsICc8aW5maWxlLm1hZT4nLCAnLW9tYWUnLCAnPG91dGZpbGUubWFlPic=

> <r_epik_Ionization_Penalty>
0.0152118

> <r_epik_Ionization_Penalty_Charging>
0

> <r_epik_Ionization_Penalty_Neutral>
0.0152118

> <r_epik_State_Penalty>
0.0119413

> <r_epik_Charging_Adjusted_Penalty>
0.0119413

> <i_epik_Tot_Q>
0

> <i_epik_Tot_abs_Q>
0

> <r_epik_Metal_State_Penalty>
1.20623e-05

> <b_epik_Metal_Only>
0

> <s_lp_Force_Field>
OPLS_2005

> <r_lp_Energy>
8.44111

> <b_lp_Chiralities_Consistent>
1

> <s_lp_Variant>
AV-unprocessed.smi:304-2

> <Gold.Version>
5.8.1

> <Gold.Id.Protein>
6NUR|6NUR_protein|mol2

> <Gold.PLP.Fitness>
49.2309

> <Gold.PLP.PLP>
-48.2209

> <Gold.PLP.part.hbond>
-1.5042

> <Gold.PLP.part.metal>
0.0000

> <Gold.PLP.part.buried>
-8.8752

> <Gold.PLP.part.nonpolar>
-37.9644

> <Gold.PLP.part.repulsive>
0.0267

> <Gold.PLP.ligand.clash>
0.0000

> <Gold.PLP.ligand.torsion>
1.0778

> <Gold.PLP.Chemscore.Hbond>
1.0000

> <Gold.PLP.Chemscore.CHOScore>
0.0000

> <Gold.PLP.Chemscore.Metal>
0.0000

> <Gold.Chemscore.Hbonds>
donor molecule, donor type, donor heavy atom, donor atom, acceptor molecule, acceptor atom, score
      L1  H     1    23       P1  8028  1.00

> <Gold.PLP.Chemscore.Internal.Correction>
0.1656

> <Gold.Rescore>
     Score         DG    S(hbond)    S(metal)    S(lipo)     H(rot)  DE(clash)    DE(int)     intcor
     13.30     -14.53       0.99        0.00     106.90       2.64       0.12       1.11       ----

> <Gold.Chemscore.Fitness>
13.2976

> <Gold.Chemscore.DG>
-14.5319

> <Gold.Chemscore.ZeroCoef>
-5.4800

> <Gold.Chemscore.Hbond>
0.9890

> <Gold.Chemscore.Metal>
0.0000

> <Gold.Chemscore.Lipo>
106.9043

> <Gold.Chemscore.Internal_Hbond>
0.0000

> <Gold.Chemscore.DEClash>
0.1218

> <Gold.Chemscore.DEInternal>
1.1125

> <Gold.Chemscore.Rot>
2.6403

> <Gold.Chemscore.Internal.Correction>
   9.000000E+99

> <Gold.Chemscore.Hbonds>
donor molecule, donor type, donor heavy atom, donor atom, acceptor molecule, acceptor atom, score
      L1  H     1    23       P1  8028  1.00

> <Gold.Chemscore.Hbond.Weighted>
-3.3032

> <Gold.Chemscore.Metal.Weighted>
-0.0000

> <Gold.Chemscore.Lipo.Weighted>
-12.5078

> <Gold.Chemscore.Internal_Hbond.Weighted>
0.0000

> <Gold.Chemscore.DEClash.Weighted>
0.1218

> <Gold.Chemscore.DEInternal.Weighted>
1.1125

> <Gold.Chemscore.Rot.Weighted>
6.7592

> <Gold.Chemscore.Internal.Correction.Weighted>
   9.000000E+99

> <Gold.Protein.RotatedTorsions>
[ 6907 6896 6895 6894 ] final -109.48 input  -60.11 | X-H torsion
[ 7974 7965 7964 7962 ] final  123.89 input  175.53 | X-H torsion
[ 8008 7997 7996 7995 ] final  177.94 input   59.86 | X-H torsion
[ 10167 10162 10161 10158 ] final   34.10 input  -65.29 | X-H torsion
[ 10718 10713 10712 10709 ] final   92.99 input   66.30 | X-H torsion
[ 10763 10752 10751 10750 ] final  -55.05 input  -60.55 | X-H torsion
[ 11005 11000 10999 10996 ] final  -37.60 input  -57.11 | X-H torsion

> <Gold.Protein.ActiveResidues>
 VAL166  LYS551  ARG553  GLY616  TRP617  ASP618  TYR619  PRO620  LYS621  CYS622 
 ASP623  PHE694  ASN695  SER759  ASP760  ASP761  ALA762  ILE779  LEU786  VAL792 
 PHE793  MET794  SER795  GLU796  ALA797  LYS798  CYS799  TRP800  GLU811  SER814 

> <Gold.Protein.RotatedAtoms>
  150.7565  133.9523  159.3489 H   0  0  0  0  0  0  0  0  0  0  0  0  # atno 6907 bound_to 6896
  151.7441  135.0845  160.0330 H   0  0  0  0  0  0  0  0  0  0  0  0  # atno 6908 bound_to 6896
  152.3509  133.6141  159.5980 H   0  0  0  0  0  0  0  0  0  0  0  0  # atno 6909 bound_to 6896
  145.0907  139.3589  143.4862 H   0  0  0  0  0  0  0  0  0  0  0  0  # atno 7974 bound_to 7965
  156.0601  140.1346  156.9950 H   0  0  0  0  0  0  0  0  0  0  0  0  # atno 8008 bound_to 7997
  154.4477  140.0993  156.6576 H   0  0  0  0  0  0  0  0  0  0  0  0  # atno 8009 bound_to 7997
  155.5390  140.3460  155.4445 H   0  0  0  0  0  0  0  0  0  0  0  0  # atno 8010 bound_to 7997
  140.4346  144.1276  150.6164 H   0  0  0  0  0  0  0  0  0  0  0  0  # atno 10167 bound_to 10162
  157.6956  131.0463  150.3966 H   0  0  0  0  0  0  0  0  0  0  0  0  # atno 10718 bound_to 10713
  154.1847  135.6437  153.5043 H   0  0  0  0  0  0  0  0  0  0  0  0  # atno 10763 bound_to 10752
  153.0050  135.5414  154.6478 H   0  0  0  0  0  0  0  0  0  0  0  0  # atno 10764 bound_to 10752
  154.5851  135.2929  155.0666 H   0  0  0  0  0  0  0  0  0  0  0  0  # atno 10765 bound_to 10752
  140.9964  133.6978  156.1943 H   0  0  0  0  0  0  0  0  0  0  0  0  # atno 11005 bound_to 11000
  146.3531  140.0739  142.8621 LP  0  0  0  0  0  0  0  0  0  0  0  0  # atno 17320 bound_to 7965
  145.1070  140.9381  143.4679 LP  0  0  0  0  0  0  0  0  0  0  0  0  # atno 17321 bound_to 7965
  140.4388  143.2535  151.9500 LP  0  0  0  0  0  0  0  0  0  0  0  0  # atno 17342 bound_to 10162
  139.4786  144.5674  151.8143 LP  0  0  0  0  0  0  0  0  0  0  0  0  # atno 17343 bound_to 10162
  156.4364  130.3982  149.6726 LP  0  0  0  0  0  0  0  0  0  0  0  0  # atno 17370 bound_to 10713
  156.3925  130.7634  151.2636 LP  0  0  0  0  0  0  0  0  0  0  0  0  # atno 17371 bound_to 10713
  140.6959  134.4616  157.5587 LP  0  0  0  0  0  0  0  0  0  0  0  0  # atno 17394 bound_to 11000
  139.9017  134.8541  156.1869 LP  0  0  0  0  0  0  0  0  0  0  0  0  # atno 17395 bound_to 11000

$$$$
