AV-unprocessed.smi:49|AV-procd|sdf|489|dock5
  -GOLD-   2262016353D 1   1.00000     0.00000
 Structure written by MMmdl.
 26 27  0  0  0  0  0  0  0  0  2 V2000
  152.0938  142.1083  159.1289 C   0  0  0  0  0  0  0  0  0  0  0  0
  151.9439  140.6496  158.6859 C   0  0  0  0  0  0  0  0  0  0  0  0
  151.5471  140.5338  157.2305 C   0  0  0  0  0  0  0  0  0  0  0  0
  150.3867  140.9159  156.7065 N   0  0  0  0  0  0  0  0  0  0  0  0
  150.4823  140.6764  155.3909 C   0  0  0  0  0  0  0  0  0  0  0  0
  149.3610  140.9265  154.3998 C   0  0  2  0  0  0  0  0  0  0  0  0
  148.0787  141.4254  155.0773 C   0  0  0  0  0  0  0  0  0  0  0  0
  146.9960  140.9491  154.1208 C   0  0  2  0  0  0  0  0  0  0  0  0
  145.7251  140.8511  154.7279 O   0  0  0  0  0  0  0  0  0  0  0  0
  147.5362  139.5926  153.6763 C   0  0  0  0  0  0  0  0  0  0  0  0
  148.9881  139.7435  153.6143 N   0  0  0  0  0  0  0  0  0  0  0  0
  151.6782  140.1430  155.0926 N   0  0  0  0  0  0  0  0  0  0  0  0
  152.3277  140.0744  156.2368 N   0  5  0  0  0  0  0  0  0  0  0  0
  149.6997  141.6987  153.7082 H   0  0  0  0  0  0  0  0  0  0  0  0
  146.9363  141.6233  153.2652 H   0  0  0  0  0  0  0  0  0  0  0  0
  152.3861  142.1688  160.1773 H   0  0  0  0  0  0  0  0  0  0  0  0
  151.1559  142.6518  159.0108 H   0  0  0  0  0  0  0  0  0  0  0  0
  152.8546  142.6207  158.5392 H   0  0  0  0  0  0  0  0  0  0  0  0
  152.8821  140.1152  158.8380 H   0  0  0  0  0  0  0  0  0  0  0  0
  151.1931  140.1487  159.2978 H   0  0  0  0  0  0  0  0  0  0  0  0
  147.9529  140.9358  156.0450 H   0  0  0  0  0  0  0  0  0  0  0  0
  148.0750  142.5030  155.2434 H   0  0  0  0  0  0  0  0  0  0  0  0
  145.0827  140.6932  154.0531 H   0  0  0  0  0  0  0  0  0  0  0  0
  147.2870  138.8352  154.4210 H   0  0  0  0  0  0  0  0  0  0  0  0
  147.1193  139.2669  152.7231 H   0  0  0  0  0  0  0  0  0  0  0  0
  149.2561  139.9056  152.6494 H   0  0  0  0  0  0  0  0  0  0  0  0
  1  2  1  0  0  0  0
  1 16  1  0  0  0  0
  1 17  1  0  0  0  0
  1 18  1  0  0  0  0
  2  3  1  0  0  0  0
  2 19  1  0  0  0  0
  2 20  1  0  0  0  0
  3 13  1  0  0  0  0
  3  4  2  0  0  0  0
  4  5  1  0  0  0  0
  5  6  1  0  0  0  0
  5 12  2  0  0  0  0
  6 14  1  0  0  0  0
  6 11  1  0  0  0  0
  6  7  1  0  0  0  0
  7  8  1  0  0  0  0
  7 21  1  0  0  0  0
  7 22  1  0  0  0  0
  8 15  1  0  0  0  0
  8  9  1  0  0  0  0
  8 10  1  0  0  0  0
  9 23  1  0  0  0  0
 10 11  1  0  0  0  0
 10 24  1  0  0  0  0
 10 25  1  0  0  0  0
 11 26  1  0  0  0  0
 12 13  1  0  0  0  0
M  CHG  1  13  -1
M  END
> <s_m_source_file>
AV-unprocessed.smi

> <i_m_source_file_index>
49

> <i_lp_mmshare_version>
43012

> <i_f3d_flags>
0

> <s_epik_input>
W0NIM11bQ0gyXWMxbmMobltuSF0xKVtDQEBIXTJbQ0gyXVtDQEBIXShbT0hdKVtDSDJdW05IXTI=

> <s_epik_cmdline>
J2VwaWtfcHl0aG9uJywgJy1waCcsICc3LjAnLCAnLXRuJywgJzgnLCAnLW1hJywgJzIwMCcsICctbWV0YWxfYmluZGluZycsICctaW1hZScsICc8aW5maWxlLm1hZT4nLCAnLW9tYWUnLCAnPG91dGZpbGUubWFlPic=

> <r_lp_tautomer_probability>
0.948284

> <r_epik_Ionization_Penalty>
20.726

> <r_epik_Ionization_Penalty_Charging>
17.6814

> <r_epik_Ionization_Penalty_Neutral>
3.04463

> <r_epik_State_Penalty>
7.95092

> <r_epik_Charging_Adjusted_Penalty>
25.6323

> <i_epik_Tot_Q>
-1

> <i_epik_Tot_abs_Q>
1

> <r_epik_Metal_State_Penalty>
4.146

> <b_epik_Metal_Only>
1

> <s_lp_Force_Field>
OPLS_2005

> <r_lp_Energy>
18.025

> <b_lp_Chiralities_Consistent>
1

> <s_lp_Variant>
AV-unprocessed.smi:49-27

> <Gold.Version>
5.8.1

> <Gold.Id.Protein>
6NUR|6NUR_protein|mol2

> <Gold.PLP.Fitness>
35.6295

> <Gold.PLP.PLP>
-22.2256

> <Gold.PLP.part.hbond>
-4.0000

> <Gold.PLP.part.metal>
0.0000

> <Gold.PLP.part.buried>
-1.6468

> <Gold.PLP.part.nonpolar>
-16.4219

> <Gold.PLP.part.repulsive>
0.0790

> <Gold.PLP.ligand.clash>
0.0000

> <Gold.PLP.ligand.torsion>
0.1141

> <Gold.PLP.Chemscore.Hbond>
4.5395

> <Gold.PLP.Chemscore.CHOScore>
0.0000

> <Gold.PLP.Chemscore.Metal>
0.0000

> <Gold.Chemscore.Hbonds>
donor molecule, donor type, donor heavy atom, donor atom, acceptor molecule, acceptor atom, score
      L1  H     9    23       P1 10175  0.80
      L1  H    11    26       P1  7957  1.00
      P1  H  7989  7998       L1    12  0.58
      P1  H  7997  8009       L1    13  2.00

> <Gold.PLP.Chemscore.Internal.Correction>
0.0137

> <Gold.Rescore>
     Score         DG    S(hbond)    S(metal)    S(lipo)     H(rot)  DE(clash)    DE(int)     intcor
     14.75     -15.17       2.85        0.00      41.23       1.82       0.15       0.27       ----

> <Gold.Chemscore.Fitness>
14.7545

> <Gold.Chemscore.DG>
-15.1722

> <Gold.Chemscore.ZeroCoef>
-5.4800

> <Gold.Chemscore.Hbond>
2.8544

> <Gold.Chemscore.Metal>
0.0000

> <Gold.Chemscore.Lipo>
41.2324

> <Gold.Chemscore.Internal_Hbond>
0.0000

> <Gold.Chemscore.DEClash>
0.1467

> <Gold.Chemscore.DEInternal>
0.2710

> <Gold.Chemscore.Rot>
1.8226

> <Gold.Chemscore.Internal.Correction>
   9.000000E+99

> <Gold.Chemscore.Hbonds>
donor molecule, donor type, donor heavy atom, donor atom, acceptor molecule, acceptor atom, score
      L1  H     9    23       P1 10175  0.77
      L1  H    11    26       P1  7957  0.93
      P1  H  7989  7998       L1    12  0.04
      P1  H  7997  8009       L1    13  0.92

> <Gold.Chemscore.Hbond.Weighted>
-9.5338

> <Gold.Chemscore.Metal.Weighted>
-0.0000

> <Gold.Chemscore.Lipo.Weighted>
-4.8242

> <Gold.Chemscore.Internal_Hbond.Weighted>
0.0000

> <Gold.Chemscore.DEClash.Weighted>
0.1467

> <Gold.Chemscore.DEInternal.Weighted>
0.2710

> <Gold.Chemscore.Rot.Weighted>
4.6658

> <Gold.Chemscore.Internal.Correction.Weighted>
   9.000000E+99

> <Gold.Protein.RotatedTorsions>
[ 6907 6896 6895 6894 ] final   64.78 input  -60.11 | X-H torsion
[ 7974 7965 7964 7962 ] final -129.73 input  175.53 | X-H torsion
[ 8008 7997 7996 7995 ] final -158.36 input   59.86 | X-H torsion
[ 10167 10162 10161 10158 ] final  -13.63 input  -65.29 | X-H torsion
[ 10718 10713 10712 10709 ] final  132.73 input   66.30 | X-H torsion
[ 10763 10752 10751 10750 ] final  -83.91 input  -60.55 | X-H torsion
[ 11005 11000 10999 10996 ] final   47.47 input  -57.11 | X-H torsion

> <Gold.Protein.ActiveResidues>
 VAL166  LYS551  ARG553  GLY616  TRP617  ASP618  TYR619  PRO620  LYS621  CYS622 
 ASP623  PHE694  ASN695  SER759  ASP760  ASP761  ALA762  ILE779  LEU786  VAL792 
 PHE793  MET794  SER795  GLU796  ALA797  LYS798  CYS799  TRP800  GLU811  SER814 

> <Gold.Protein.RotatedAtoms>
  152.4358  134.5689  159.9915 H   0  0  0  0  0  0  0  0  0  0  0  0  # atno 6907 bound_to 6896
  151.5800  133.3373  159.3014 H   0  0  0  0  0  0  0  0  0  0  0  0  # atno 6908 bound_to 6896
  150.8256  134.7520  159.6874 H   0  0  0  0  0  0  0  0  0  0  0  0  # atno 6909 bound_to 6896
  144.9543  140.7379  143.4768 H   0  0  0  0  0  0  0  0  0  0  0  0  # atno 7974 bound_to 7965
  155.7464  140.0821  157.2222 H   0  0  0  0  0  0  0  0  0  0  0  0  # atno 8008 bound_to 7997
  154.4016  140.1568  156.2730 H   0  0  0  0  0  0  0  0  0  0  0  0  # atno 8009 bound_to 7997
  155.8972  140.3412  155.6002 H   0  0  0  0  0  0  0  0  0  0  0  0  # atno 8010 bound_to 7997
  140.7186  143.5406  150.9414 H   0  0  0  0  0  0  0  0  0  0  0  0  # atno 10167 bound_to 10162
  157.4842  131.1087  150.9642 H   0  0  0  0  0  0  0  0  0  0  0  0  # atno 10718 bound_to 10713
  154.5933  135.5539  153.7300 H   0  0  0  0  0  0  0  0  0  0  0  0  # atno 10763 bound_to 10752
  153.0125  135.6348  154.1818 H   0  0  0  0  0  0  0  0  0  0  0  0  # atno 10764 bound_to 10752
  154.1758  135.2889  155.3047 H   0  0  0  0  0  0  0  0  0  0  0  0  # atno 10765 bound_to 10752
  140.1276  134.4747  155.8547 H   0  0  0  0  0  0  0  0  0  0  0  0  # atno 11005 bound_to 11000
  145.2796  139.1923  143.4798 LP  0  0  0  0  0  0  0  0  0  0  0  0  # atno 17320 bound_to 7965
  146.3332  140.2755  142.8608 LP  0  0  0  0  0  0  0  0  0  0  0  0  # atno 17321 bound_to 7965
  139.9128  143.6699  152.3112 LP  0  0  0  0  0  0  0  0  0  0  0  0  # atno 17342 bound_to 10162
  139.7088  144.7623  151.1146 LP  0  0  0  0  0  0  0  0  0  0  0  0  # atno 17343 bound_to 10162
  157.0365  130.5732  149.5350 LP  0  0  0  0  0  0  0  0  0  0  0  0  # atno 17370 bound_to 10713
  156.0138  130.5231  150.8071 LP  0  0  0  0  0  0  0  0  0  0  0  0  # atno 17371 bound_to 10713
  141.2164  133.6784  156.7008 LP  0  0  0  0  0  0  0  0  0  0  0  0  # atno 17394 bound_to 11000
  140.2884  134.8261  157.3995 LP  0  0  0  0  0  0  0  0  0  0  0  0  # atno 17395 bound_to 11000

$$$$
