AV-unprocessed.smi:2658|AV-procd|sdf|10309|dock10
  -GOLD-   2272014323D 1   1.00000     0.00000
 Structure written by MMmdl.
 46 48  0  0  0  0  0  0  0  0  1 V2000
  152.0881  143.0909  160.1659 C   0  0  0  0  0  0  0  0  0  0  0  0
  151.6529  142.2197  159.0008 C   0  0  0  0  0  0  0  0  0  0  0  0
  152.5194  141.2014  158.5439 C   0  0  0  0  0  0  0  0  0  0  0  0
  152.1509  140.3656  157.4674 C   0  0  0  0  0  0  0  0  0  0  0  0
  152.8323  139.3203  156.8679 N   0  0  0  0  0  0  0  0  0  0  0  0
  151.9678  138.9398  155.9319 C   0  0  0  0  0  0  0  0  0  0  0  0
  150.8056  139.6162  155.8536 N   0  0  0  0  0  0  0  0  0  0  0  0
  149.7146  139.3790  154.9255 C   0  0  0  0  0  0  0  0  0  0  0  0
  149.0005  140.6780  154.5035 C   0  0  1  0  0  0  0  0  0  0  0  0
  149.5340  141.1448  153.2799 O   0  0  0  0  0  0  0  0  0  0  0  0
  147.4878  140.4795  154.3296 C   0  0  0  0  0  0  0  0  0  0  0  0
  146.9445  141.6103  153.6538 O   0  0  0  0  0  0  0  0  0  0  0  0
  146.1663  142.4941  154.3726 C   0  0  0  0  0  0  0  0  0  0  0  0
  145.5432  143.5591  153.6950 C   0  0  0  0  0  0  0  0  0  0  0  0
  144.7601  144.4507  154.4519 C   0  0  0  0  0  0  0  0  0  0  0  0
  144.0571  145.6209  153.7898 C   0  0  0  0  0  0  0  0  0  0  0  0
  144.6638  144.2045  155.8399 C   0  0  0  0  0  0  0  0  0  0  0  0
  143.8523  145.1023  156.7555 C   0  0  0  0  0  0  0  0  0  0  0  0
  145.2855  143.1599  156.4349 N   0  0  0  0  0  0  0  0  0  0  0  0
  146.0263  142.3141  155.7116 N   0  0  0  0  0  0  0  0  0  0  0  0
  150.8809  140.5776  156.8552 C   0  0  0  0  0  0  0  0  0  0  0  0
  150.0113  141.5901  157.2976 C   0  0  0  0  0  0  0  0  0  0  0  0
  150.3956  142.4166  158.3747 C   0  0  0  0  0  0  0  0  0  0  0  0
  149.4506  143.5075  158.8463 C   0  0  0  0  0  0  0  0  0  0  0  0
  153.0755  142.8054  160.5298 H   0  0  0  0  0  0  0  0  0  0  0  0
  151.3872  142.9969  160.9956 H   0  0  0  0  0  0  0  0  0  0  0  0
  152.1321  144.1380  159.8656 H   0  0  0  0  0  0  0  0  0  0  0  0
  153.4773  141.0512  159.0198 H   0  0  0  0  0  0  0  0  0  0  0  0
  152.1921  138.1212  155.2637 H   0  0  0  0  0  0  0  0  0  0  0  0
  150.1089  138.8590  154.0511 H   0  0  0  0  0  0  0  0  0  0  0  0
  149.0084  138.6967  155.4000 H   0  0  0  0  0  0  0  0  0  0  0  0
  149.1752  141.4520  155.2520 H   0  0  0  0  0  0  0  0  0  0  0  0
  149.4601  140.4557  152.6376 H   0  0  0  0  0  0  0  0  0  0  0  0
  147.2963  139.5836  153.7359 H   0  0  0  0  0  0  0  0  0  0  0  0
  147.0182  140.3407  155.3054 H   0  0  0  0  0  0  0  0  0  0  0  0
  145.6650  143.6833  152.6289 H   0  0  0  0  0  0  0  0  0  0  0  0
  142.9825  145.5711  153.9679 H   0  0  0  0  0  0  0  0  0  0  0  0
  144.2205  145.6197  152.7116 H   0  0  0  0  0  0  0  0  0  0  0  0
  144.4308  146.5645  154.1881 H   0  0  0  0  0  0  0  0  0  0  0  0
  144.2119  146.1296  156.6980 H   0  0  0  0  0  0  0  0  0  0  0  0
  143.9218  144.7804  157.7954 H   0  0  0  0  0  0  0  0  0  0  0  0
  142.8009  145.0869  156.4677 H   0  0  0  0  0  0  0  0  0  0  0  0
  149.0564  141.7274  156.8117 H   0  0  0  0  0  0  0  0  0  0  0  0
  148.5270  143.5127  158.2668 H   0  0  0  0  0  0  0  0  0  0  0  0
  149.9171  144.4873  158.7421 H   0  0  0  0  0  0  0  0  0  0  0  0
  149.1871  143.3585  159.8937 H   0  0  0  0  0  0  0  0  0  0  0  0
  1  2  1  0  0  0  0
  1 25  1  0  0  0  0
  1 26  1  0  0  0  0
  1 27  1  0  0  0  0
  2 23  1  0  0  0  0
  2  3  2  0  0  0  0
  3  4  1  0  0  0  0
  3 28  1  0  0  0  0
  4 21  2  0  0  0  0
  4  5  1  0  0  0  0
  5  6  2  0  0  0  0
  6  7  1  0  0  0  0
  6 29  1  0  0  0  0
  7  8  1  0  0  0  0
  7 21  1  0  0  0  0
  8  9  1  0  0  0  0
  8 30  1  0  0  0  0
  8 31  1  0  0  0  0
  9 10  1  0  0  0  0
  9 11  1  0  0  0  0
  9 32  1  0  0  0  0
 10 33  1  0  0  0  0
 11 12  1  0  0  0  0
 11 34  1  0  0  0  0
 11 35  1  0  0  0  0
 12 13  1  0  0  0  0
 13 20  1  0  0  0  0
 13 14  2  0  0  0  0
 14 15  1  0  0  0  0
 14 36  1  0  0  0  0
 15 16  1  0  0  0  0
 15 17  2  0  0  0  0
 16 37  1  0  0  0  0
 16 38  1  0  0  0  0
 16 39  1  0  0  0  0
 17 18  1  0  0  0  0
 17 19  1  0  0  0  0
 18 40  1  0  0  0  0
 18 41  1  0  0  0  0
 18 42  1  0  0  0  0
 19 20  2  0  0  0  0
 21 22  1  0  0  0  0
 22 23  2  0  0  0  0
 22 43  1  0  0  0  0
 23 24  1  0  0  0  0
 24 44  1  0  0  0  0
 24 45  1  0  0  0  0
 24 46  1  0  0  0  0
M  END
> <s_m_source_file>
AV-unprocessed.smi

> <i_m_source_file_index>
2658

> <i_lp_mmshare_version>
43012

> <i_f3d_flags>
0

> <s_epik_input>
W0NIM11jKFtjSF0xKWMoW0NIM10pW2NIXWMoYzEyKW4oW2NIXW4yKVtDSDJdW0NASF0oW09IXSlbQ0gyXU9jM1tjSF1jKFtDSDNdKWMoW0NIM10pbm4z

> <s_epik_cmdline>
J2VwaWtfcHl0aG9uJywgJy1waCcsICc3LjAnLCAnLXRuJywgJzgnLCAnLW1hJywgJzIwMCcsICctbWV0YWxfYmluZGluZycsICctaW1hZScsICc8aW5maWxlLm1hZT4nLCAnLW9tYWUnLCAnPG91dGZpbGUubWFlPic=

> <r_lp_tautomer_probability>
1

> <r_epik_Ionization_Penalty>
0.110663

> <r_epik_Ionization_Penalty_Charging>
0

> <r_epik_Ionization_Penalty_Neutral>
0.110663

> <r_epik_State_Penalty>
0.100267

> <r_epik_Charging_Adjusted_Penalty>
0.100267

> <i_epik_Tot_Q>
0

> <i_epik_Tot_abs_Q>
0

> <r_epik_Metal_State_Penalty>
0.0843924

> <b_epik_Metal_Only>
0

> <s_lp_Force_Field>
OPLS_2005

> <r_lp_Energy>
13.1317

> <b_lp_Chiralities_Consistent>
1

> <s_lp_Variant>
AV-unprocessed.smi:2658-2

> <Gold.Version>
5.8.1

> <Gold.Id.Protein>
6NUR|6NUR_protein|mol2

> <Gold.PLP.Fitness>
50.0525

> <Gold.PLP.PLP>
-43.4794

> <Gold.PLP.part.hbond>
-3.4934

> <Gold.PLP.part.metal>
0.0000

> <Gold.PLP.part.buried>
-6.0207

> <Gold.PLP.part.nonpolar>
-34.4768

> <Gold.PLP.part.repulsive>
0.4311

> <Gold.PLP.ligand.clash>
0.0000

> <Gold.PLP.ligand.torsion>
1.3001

> <Gold.PLP.Chemscore.Hbond>
3.0295

> <Gold.PLP.Chemscore.CHOScore>
0.0000

> <Gold.PLP.Chemscore.Metal>
0.0000

> <Gold.Chemscore.Hbonds>
donor molecule, donor type, donor heavy atom, donor atom, acceptor molecule, acceptor atom, score
      L1  H    10    33       P1  7957  0.93
      P1  H  7989  7998       L1    10  0.07
      P1  H  7997  8009       L1     5  1.00
      P1  H  8011  8017       L1    10  1.00

> <Gold.PLP.Chemscore.Internal.Correction>
0.0849

> <Gold.Rescore>
     Score         DG    S(hbond)    S(metal)    S(lipo)     H(rot)  DE(clash)    DE(int)     intcor
     17.22     -18.46       2.17        0.00     101.54       2.40       0.04       1.21       ----

> <Gold.Chemscore.Fitness>
17.2204

> <Gold.Chemscore.DG>
-18.4641

> <Gold.Chemscore.ZeroCoef>
-5.4800

> <Gold.Chemscore.Hbond>
2.1687

> <Gold.Chemscore.Metal>
0.0000

> <Gold.Chemscore.Lipo>
101.5406

> <Gold.Chemscore.Internal_Hbond>
0.0000

> <Gold.Chemscore.DEClash>
0.0351

> <Gold.Chemscore.DEInternal>
1.2086

> <Gold.Chemscore.Rot>
2.3983

> <Gold.Chemscore.Internal.Correction>
   9.000000E+99

> <Gold.Chemscore.Hbonds>
donor molecule, donor type, donor heavy atom, donor atom, acceptor molecule, acceptor atom, score
      L1  H    10    33       P1  7957  0.85
      P1  H  7997  8009       L1     5  0.25
      P1  H  8011  8017       L1    10  0.29

> <Gold.Chemscore.Hbond.Weighted>
-7.2435

> <Gold.Chemscore.Metal.Weighted>
-0.0000

> <Gold.Chemscore.Lipo.Weighted>
-11.8803

> <Gold.Chemscore.Internal_Hbond.Weighted>
0.0000

> <Gold.Chemscore.DEClash.Weighted>
0.0351

> <Gold.Chemscore.DEInternal.Weighted>
1.2086

> <Gold.Chemscore.Rot.Weighted>
6.1397

> <Gold.Chemscore.Internal.Correction.Weighted>
   9.000000E+99

> <Gold.Protein.RotatedTorsions>
[ 6907 6896 6895 6894 ] final   -5.75 input  -60.11 | X-H torsion
[ 7974 7965 7964 7962 ] final -172.04 input  175.53 | X-H torsion
[ 8008 7997 7996 7995 ] final -172.71 input   59.86 | X-H torsion
[ 10167 10162 10161 10158 ] final  141.34 input  -65.29 | X-H torsion
[ 10718 10713 10712 10709 ] final -106.97 input   66.30 | X-H torsion
[ 10763 10752 10751 10750 ] final -143.74 input  -60.55 | X-H torsion
[ 11005 11000 10999 10996 ] final   53.83 input  -57.11 | X-H torsion

> <Gold.Protein.ActiveResidues>
 VAL166  LYS551  ARG553  GLY616  TRP617  ASP618  TYR619  PRO620  LYS621  CYS622 
 ASP623  PHE694  ASN695  SER759  ASP760  ASP761  ALA762  ILE779  LEU786  VAL792 
 PHE793  MET794  SER795  GLU796  ALA797  LYS798  CYS799  TRP800  GLU811  SER814 

> <Gold.Protein.RotatedAtoms>
  151.4766  135.1049  159.9765 H   0  0  0  0  0  0  0  0  0  0  0  0  # atno 6907 bound_to 6896
  152.4796  133.8217  159.7067 H   0  0  0  0  0  0  0  0  0  0  0  0  # atno 6908 bound_to 6896
  150.8857  133.7249  159.2945 H   0  0  0  0  0  0  0  0  0  0  0  0  # atno 6909 bound_to 6896
  144.7150  140.1832  143.6356 H   0  0  0  0  0  0  0  0  0  0  0  0  # atno 7974 bound_to 7965
  155.9481  140.1121  157.1000 H   0  0  0  0  0  0  0  0  0  0  0  0  # atno 8008 bound_to 7997
  154.4103  140.1206  156.5082 H   0  0  0  0  0  0  0  0  0  0  0  0  # atno 8009 bound_to 7997
  155.6877  140.3473  155.4883 H   0  0  0  0  0  0  0  0  0  0  0  0  # atno 8010 bound_to 7997
  139.5023  144.6177  151.6124 H   0  0  0  0  0  0  0  0  0  0  0  0  # atno 10167 bound_to 10162
  156.0414  130.5639  150.7756 H   0  0  0  0  0  0  0  0  0  0  0  0  # atno 10718 bound_to 10713
  154.8457  135.3459  154.6236 H   0  0  0  0  0  0  0  0  0  0  0  0  # atno 10763 bound_to 10752
  153.6845  135.6978  153.5113 H   0  0  0  0  0  0  0  0  0  0  0  0  # atno 10764 bound_to 10752
  153.2643  135.4313  155.0880 H   0  0  0  0  0  0  0  0  0  0  0  0  # atno 10765 bound_to 10752
  140.0736  134.5436  155.9021 H   0  0  0  0  0  0  0  0  0  0  0  0  # atno 11005 bound_to 11000
  145.8837  139.2337  143.1590 LP  0  0  0  0  0  0  0  0  0  0  0  0  # atno 17320 bound_to 7965
  145.9970  140.8553  143.0037 LP  0  0  0  0  0  0  0  0  0  0  0  0  # atno 17321 bound_to 7965
  140.5870  143.9846  150.6302 LP  0  0  0  0  0  0  0  0  0  0  0  0  # atno 17342 bound_to 10162
  140.3014  143.3258  152.0968 LP  0  0  0  0  0  0  0  0  0  0  0  0  # atno 17343 bound_to 10162
  157.5237  131.0933  151.0045 LP  0  0  0  0  0  0  0  0  0  0  0  0  # atno 17370 bound_to 10713
  157.0369  130.5733  149.5350 LP  0  0  0  0  0  0  0  0  0  0  0  0  # atno 17371 bound_to 10713
  141.2021  133.6623  156.5987 LP  0  0  0  0  0  0  0  0  0  0  0  0  # atno 17394 bound_to 11000
  140.3591  134.7703  157.4521 LP  0  0  0  0  0  0  0  0  0  0  0  0  # atno 17395 bound_to 11000

$$$$
