AV-unprocessed.smi:316|AV-procd|sdf|2325|dock6
  -GOLD-   2262022223D 1   1.00000     0.00000
 Structure written by MMmdl.
 43 44  0  0  0  0  0  0  0  0  2 V2000
  147.1688  139.8497  153.2252 C   0  0  0  0  0  0  0  0  0  0  0  0
  148.5825  139.5240  153.3351 N   0  0  0  0  0  0  0  0  0  0  0  0
  149.2309  139.3614  154.4971 C   0  0  0  0  0  0  0  0  0  0  0  0
  148.6827  139.4737  155.5941 O   0  0  0  0  0  0  0  0  0  0  0  0
  150.7201  139.0160  154.3938 C   0  0  0  0  0  0  0  0  0  0  0  0
  151.0839  137.6751  155.0627 C   0  0  0  0  0  0  0  0  0  0  0  0
  150.3746  136.5573  154.4500 N   0  0  0  0  0  0  0  0  0  0  0  0
  150.4713  135.2797  154.8431 C   0  0  0  0  0  0  0  0  0  0  0  0
  151.1719  134.9066  155.7839 O   0  0  0  0  0  0  0  0  0  0  0  0
  149.6947  134.4779  154.0953 N   0  0  0  0  0  0  0  0  0  0  0  0
  149.4880  133.0781  154.2495 C   0  0  0  0  0  0  0  0  0  0  0  0
  150.3316  132.3030  155.0862 C   0  0  0  0  0  0  0  0  0  0  0  0
  150.1515  130.9098  155.1693 C   0  0  0  0  0  0  0  0  0  0  0  0
  149.1408  130.3080  154.4007 C   0  0  0  0  0  0  0  0  0  0  0  0
  148.3634  131.0703  153.6043 N   0  3  0  0  0  0  0  0  0  0  0  0
  148.4768  132.4176  153.4928 C   0  0  0  0  0  0  0  0  0  0  0  0
  147.5813  133.0852  152.6261 N   0  0  0  0  0  0  0  0  0  0  0  0
  146.7751  132.3308  151.6735 C   0  0  0  0  0  0  0  0  0  0  0  0
  145.7112  133.3126  151.1905 C   0  0  0  0  0  0  0  0  0  0  0  0
  145.4397  134.1437  152.4409 C   0  0  0  0  0  0  0  0  0  0  0  0
  146.8032  134.2097  153.1369 C   0  0  0  0  0  0  0  0  0  0  0  0
  146.8914  139.9519  152.1760 H   0  0  0  0  0  0  0  0  0  0  0  0
  146.9453  140.7904  153.7302 H   0  0  0  0  0  0  0  0  0  0  0  0
  146.5548  139.0629  153.6654 H   0  0  0  0  0  0  0  0  0  0  0  0
  149.0990  139.4115  152.4746 H   0  0  0  0  0  0  0  0  0  0  0  0
  150.9912  138.9962  153.3375 H   0  0  0  0  0  0  0  0  0  0  0  0
  151.2987  139.8202  154.8512 H   0  0  0  0  0  0  0  0  0  0  0  0
  152.1532  137.4843  154.9632 H   0  0  0  0  0  0  0  0  0  0  0  0
  150.8711  137.7040  156.1331 H   0  0  0  0  0  0  0  0  0  0  0  0
  149.7733  136.7749  153.6688 H   0  0  0  0  0  0  0  0  0  0  0  0
  149.1035  134.9355  153.4169 H   0  0  0  0  0  0  0  0  0  0  0  0
  151.1328  132.7551  155.6516 H   0  0  0  0  0  0  0  0  0  0  0  0
  150.7885  130.3111  155.8039 H   0  0  0  0  0  0  0  0  0  0  0  0
  148.9340  129.2477  154.3946 H   0  0  0  0  0  0  0  0  0  0  0  0
  147.3802  131.9516  150.8495 H   0  0  0  0  0  0  0  0  0  0  0  0
  146.2945  131.4844  152.1664 H   0  0  0  0  0  0  0  0  0  0  0  0
  146.1177  133.9476  150.4022 H   0  0  0  0  0  0  0  0  0  0  0  0
  144.8202  132.8178  150.8031 H   0  0  0  0  0  0  0  0  0  0  0  0
  145.0293  135.1291  152.2178 H   0  0  0  0  0  0  0  0  0  0  0  0
  144.7268  133.6205  153.0795 H   0  0  0  0  0  0  0  0  0  0  0  0
  146.6965  134.1785  154.2221 H   0  0  0  0  0  0  0  0  0  0  0  0
  147.3115  135.1371  152.8715 H   0  0  0  0  0  0  0  0  0  0  0  0
  147.6395  130.6037  153.0577 H   0  0  0  0  0  0  0  0  0  0  0  0
  1  2  1  0  0  0  0
  1 22  1  0  0  0  0
  1 23  1  0  0  0  0
  1 24  1  0  0  0  0
  2  3  1  0  0  0  0
  2 25  1  0  0  0  0
  3  4  2  0  0  0  0
  3  5  1  0  0  0  0
  5  6  1  0  0  0  0
  5 26  1  0  0  0  0
  5 27  1  0  0  0  0
  6  7  1  0  0  0  0
  6 28  1  0  0  0  0
  6 29  1  0  0  0  0
  7  8  1  0  0  0  0
  7 30  1  0  0  0  0
  8  9  2  0  0  0  0
  8 10  1  0  0  0  0
 10 11  1  0  0  0  0
 10 31  1  0  0  0  0
 11 16  1  0  0  0  0
 11 12  2  0  0  0  0
 12 13  1  0  0  0  0
 12 32  1  0  0  0  0
 13 14  2  0  0  0  0
 13 33  1  0  0  0  0
 14 15  1  0  0  0  0
 14 34  1  0  0  0  0
 15 16  2  0  0  0  0
 15 43  1  0  0  0  0
 16 17  1  0  0  0  0
 17 21  1  0  0  0  0
 17 18  1  0  0  0  0
 18 19  1  0  0  0  0
 18 35  1  0  0  0  0
 18 36  1  0  0  0  0
 19 20  1  0  0  0  0
 19 37  1  0  0  0  0
 19 38  1  0  0  0  0
 20 21  1  0  0  0  0
 20 39  1  0  0  0  0
 20 40  1  0  0  0  0
 21 41  1  0  0  0  0
 21 42  1  0  0  0  0
M  CHG  1  15   1
M  END
> <s_m_source_file>
AV-unprocessed.smi

> <i_m_source_file_index>
316

> <i_lp_mmshare_version>
43012

> <i_f3d_flags>
0

> <s_epik_input>
W0NIM11bTkhdQyg9TylbQ0gyXVtDSDJdW05IXUMoPU8pW05IXWMxW2NIXVtjSF1bY0hdbmMxTjJbQ0gyXVtDSDJdW0NIMl1bQ0gyXTI=

> <s_epik_cmdline>
J2VwaWtfcHl0aG9uJywgJy1waCcsICc3LjAnLCAnLXRuJywgJzgnLCAnLW1hJywgJzIwMCcsICctbWV0YWxfYmluZGluZycsICctaW1hZScsICc8aW5maWxlLm1hZT4nLCAnLW9tYWUnLCAnPG91dGZpbGUubWFlPic=

> <r_lp_tautomer_probability>
0.999994

> <r_epik_Ionization_Penalty>
1.15434

> <r_epik_Ionization_Penalty_Charging>
1.15432

> <r_epik_Ionization_Penalty_Neutral>
1.92607e-05

> <r_epik_State_Penalty>
1.21599

> <r_epik_Charging_Adjusted_Penalty>
2.37031

> <i_epik_Tot_Q>
1

> <i_epik_Tot_abs_Q>
1

> <r_epik_Metal_State_Penalty>
1.29606

> <b_epik_Metal_Only>
0

> <s_lp_Force_Field>
OPLS_2005

> <r_lp_Energy>
36.337

> <b_lp_Chiralities_Consistent>
1

> <s_lp_Variant>
AV-unprocessed.smi:316-2

> <Gold.Version>
5.8.1

> <Gold.Id.Protein>
6NUR|6NUR_protein|mol2

> <Gold.PLP.Fitness>
45.1899

> <Gold.PLP.PLP>
-34.5205

> <Gold.PLP.part.hbond>
-4.7687

> <Gold.PLP.part.metal>
0.0000

> <Gold.PLP.part.buried>
-2.0039

> <Gold.PLP.part.nonpolar>
-27.3174

> <Gold.PLP.part.repulsive>
0.4511

> <Gold.PLP.ligand.clash>
0.0000

> <Gold.PLP.ligand.torsion>
0.2346

> <Gold.PLP.Chemscore.Hbond>
3.5797

> <Gold.PLP.Chemscore.CHOScore>
0.0000

> <Gold.PLP.Chemscore.Metal>
0.0000

> <Gold.Chemscore.Hbonds>
donor molecule, donor type, donor heavy atom, donor atom, acceptor molecule, acceptor atom, score
      L1  H     2    25       P1  7957  0.98
      L1  H     7    30       P1  7948  0.98
      L1  H    10    31       P1  7948  0.85
      P1  H 10752 10763       L1     9  0.58

> <Gold.PLP.Chemscore.Internal.Correction>
0.3996

> <Gold.Rescore>
     Score         DG    S(hbond)    S(metal)    S(lipo)     H(rot)  DE(clash)    DE(int)     intcor
     14.93     -16.69       2.78        0.00      59.62       1.98       0.07       1.69       ----

> <Gold.Chemscore.Fitness>
14.9315

> <Gold.Chemscore.DG>
-16.6902

> <Gold.Chemscore.ZeroCoef>
-5.4800

> <Gold.Chemscore.Hbond>
2.7825

> <Gold.Chemscore.Metal>
0.0000

> <Gold.Chemscore.Lipo>
59.6169

> <Gold.Chemscore.Internal_Hbond>
0.0000

> <Gold.Chemscore.DEClash>
0.0676

> <Gold.Chemscore.DEInternal>
1.6912

> <Gold.Chemscore.Rot>
1.9760

> <Gold.Chemscore.Internal.Correction>
   9.000000E+99

> <Gold.Chemscore.Hbonds>
donor molecule, donor type, donor heavy atom, donor atom, acceptor molecule, acceptor atom, score
      L1  H     2    25       P1  7957  0.87
      L1  H     7    30       P1  7948  0.48
      L1  H    10    31       P1  7948  0.16
      P1  H 10752 10763       L1     9  0.09

> <Gold.Chemscore.Hbond.Weighted>
-9.2936

> <Gold.Chemscore.Metal.Weighted>
-0.0000

> <Gold.Chemscore.Lipo.Weighted>
-6.9752

> <Gold.Chemscore.Internal_Hbond.Weighted>
0.0000

> <Gold.Chemscore.DEClash.Weighted>
0.0676

> <Gold.Chemscore.DEInternal.Weighted>
1.6912

> <Gold.Chemscore.Rot.Weighted>
5.0585

> <Gold.Chemscore.Internal.Correction.Weighted>
   9.000000E+99

> <Gold.Protein.RotatedTorsions>
[ 6907 6896 6895 6894 ] final -177.18 input  -60.11 | X-H torsion
[ 7974 7965 7964 7962 ] final -166.12 input  175.53 | X-H torsion
[ 8008 7997 7996 7995 ] final -170.09 input   59.86 | X-H torsion
[ 10167 10162 10161 10158 ] final -120.71 input  -65.29 | X-H torsion
[ 10718 10713 10712 10709 ] final -115.43 input   66.30 | X-H torsion
[ 10763 10752 10751 10750 ] final   80.91 input  -60.55 | X-H torsion
[ 11005 11000 10999 10996 ] final -127.90 input  -57.11 | X-H torsion

> <Gold.Protein.ActiveResidues>
 VAL166  LYS551  ARG553  GLY616  TRP617  ASP618  TYR619  PRO620  LYS621  CYS622 
 ASP623  PHE694  ASN695  SER759  ASP760  ASP761  ALA762  ILE779  LEU786  VAL792 
 PHE793  MET794  SER795  GLU796  ALA797  LYS798  CYS799  TRP800  GLU811  SER814 

> <Gold.Protein.RotatedAtoms>
  151.6168  133.3342  159.3079 H   0  0  0  0  0  0  0  0  0  0  0  0  # atno 6907 bound_to 6896
  150.8127  134.7294  159.6714 H   0  0  0  0  0  0  0  0  0  0  0  0  # atno 6908 bound_to 6896
  152.4223  134.5937  160.0032 H   0  0  0  0  0  0  0  0  0  0  0  0  # atno 6909 bound_to 6896
  144.7253  140.2713  143.6250 H   0  0  0  0  0  0  0  0  0  0  0  0  # atno 7974 bound_to 7965
  155.9137  140.1062  157.1260 H   0  0  0  0  0  0  0  0  0  0  0  0  # atno 8008 bound_to 7997
  154.4043  140.1269  156.4655 H   0  0  0  0  0  0  0  0  0  0  0  0  # atno 8009 bound_to 7997
  155.7279  140.3469  155.5048 H   0  0  0  0  0  0  0  0  0  0  0  0  # atno 8010 bound_to 7997
  140.0329  143.5230  152.2167 H   0  0  0  0  0  0  0  0  0  0  0  0  # atno 10167 bound_to 10162
  156.0895  130.6080  150.8904 H   0  0  0  0  0  0  0  0  0  0  0  0  # atno 10718 bound_to 10713
  153.1072  135.4785  154.8972 H   0  0  0  0  0  0  0  0  0  0  0  0  # atno 10763 bound_to 10752
  154.7443  135.3090  154.8675 H   0  0  0  0  0  0  0  0  0  0  0  0  # atno 10764 bound_to 10752
  153.9274  135.6848  153.4799 H   0  0  0  0  0  0  0  0  0  0  0  0  # atno 10765 bound_to 10752
  140.9561  134.0999  157.4015 H   0  0  0  0  0  0  0  0  0  0  0  0  # atno 11005 bound_to 11000
  145.8040  139.1975  143.2032 LP  0  0  0  0  0  0  0  0  0  0  0  0  # atno 17320 bound_to 7965
  146.0653  140.7927  142.9715 LP  0  0  0  0  0  0  0  0  0  0  0  0  # atno 17321 bound_to 7965
  139.6064  144.7597  151.3052 LP  0  0  0  0  0  0  0  0  0  0  0  0  # atno 17342 bound_to 10162
  140.7294  143.6909  150.7923 LP  0  0  0  0  0  0  0  0  0  0  0  0  # atno 17343 bound_to 10162
  157.6040  131.0940  150.8911 LP  0  0  0  0  0  0  0  0  0  0  0  0  # atno 17370 bound_to 10713
  156.9063  130.5265  149.5281 LP  0  0  0  0  0  0  0  0  0  0  0  0  # atno 17371 bound_to 10713
  139.8863  135.0080  156.6488 LP  0  0  0  0  0  0  0  0  0  0  0  0  # atno 17394 bound_to 11000
  140.7534  133.8878  155.8364 LP  0  0  0  0  0  0  0  0  0  0  0  0  # atno 17395 bound_to 11000

$$$$
