AV-unprocessed.smi:3084|AV-procd|sdf|11749|dock7
  -GOLD-   2272017143D 1   1.00000     0.00000
 Structure written by MMmdl.
 27 28  0  0  0  0  0  0  0  0  2 V2000
  152.2059  139.0707  155.1808 C   0  0  0  0  0  0  0  0  0  0  0  0
  152.7598  139.0386  156.4294 N   0  0  0  0  0  0  0  0  0  0  0  0
  152.0825  140.0256  156.9985 C   0  0  0  0  0  0  0  0  0  0  0  0
  151.1921  140.6033  156.1901 N   0  0  0  0  0  0  0  0  0  0  0  0
  150.2806  141.7084  156.4237 C   0  0  0  0  0  0  0  0  0  0  0  0
  150.7012  142.5998  157.6102 C   0  0  1  0  0  0  0  0  0  0  0  0
  151.9176  143.4991  157.2905 C   0  0  0  0  0  0  0  0  0  0  0  0
  152.2692  144.4103  158.4769 C   0  0  0  0  0  0  0  0  0  0  0  0
  151.0395  145.2186  158.9142 C   0  0  0  0  0  0  0  0  0  0  0  0
  149.8556  144.2858  159.2147 C   0  0  0  0  0  0  0  0  0  0  0  0
  149.5538  143.4296  158.0466 N   0  3  0  0  0  0  0  0  0  0  0  0
  151.2648  139.9941  154.9833 N   0  0  0  0  0  0  0  0  0  0  0  0
  152.5067  138.3951  154.3935 H   0  0  0  0  0  0  0  0  0  0  0  0
  152.2374  140.3306  158.0232 H   0  0  0  0  0  0  0  0  0  0  0  0
  150.2219  142.3015  155.5099 H   0  0  0  0  0  0  0  0  0  0  0  0
  149.2850  141.2957  156.5929 H   0  0  0  0  0  0  0  0  0  0  0  0
  150.9634  141.9508  158.4475 H   0  0  0  0  0  0  0  0  0  0  0  0
  152.7871  142.8911  157.0385 H   0  0  0  0  0  0  0  0  0  0  0  0
  151.7041  144.1104  156.4126 H   0  0  0  0  0  0  0  0  0  0  0  0
  152.6266  143.8054  159.3112 H   0  0  0  0  0  0  0  0  0  0  0  0
  153.0848  145.0820  158.2072 H   0  0  0  0  0  0  0  0  0  0  0  0
  151.2778  145.8164  159.7945 H   0  0  0  0  0  0  0  0  0  0  0  0
  150.7637  145.9219  158.1271 H   0  0  0  0  0  0  0  0  0  0  0  0
  150.0784  143.6541  160.0758 H   0  0  0  0  0  0  0  0  0  0  0  0
  148.9696  144.8685  159.4672 H   0  0  0  0  0  0  0  0  0  0  0  0
  149.2764  144.0228  157.2778 H   0  0  0  0  0  0  0  0  0  0  0  0
  148.7831  142.8206  158.2822 H   0  0  0  0  0  0  0  0  0  0  0  0
  1 12  2  0  0  0  0
  1  2  1  0  0  0  0
  1 13  1  0  0  0  0
  2  3  2  0  0  0  0
  3  4  1  0  0  0  0
  3 14  1  0  0  0  0
  4  5  1  0  0  0  0
  4 12  1  0  0  0  0
  5  6  1  0  0  0  0
  5 15  1  0  0  0  0
  5 16  1  0  0  0  0
  6 11  1  0  0  0  0
  6  7  1  0  0  0  0
  6 17  1  0  0  0  0
  7  8  1  0  0  0  0
  7 18  1  0  0  0  0
  7 19  1  0  0  0  0
  8  9  1  0  0  0  0
  8 20  1  0  0  0  0
  8 21  1  0  0  0  0
  9 10  1  0  0  0  0
  9 22  1  0  0  0  0
  9 23  1  0  0  0  0
 10 11  1  0  0  0  0
 10 24  1  0  0  0  0
 10 25  1  0  0  0  0
 11 26  1  0  0  0  0
 11 27  1  0  0  0  0
M  CHG  1  11   1
M  END
> <s_m_source_file>
AV-unprocessed.smi

> <i_m_source_file_index>
3084

> <i_lp_mmshare_version>
43012

> <i_f3d_flags>
0

> <s_epik_input>
bjFbY0hdbltjSF1uMVtDSDJdW0NAQEhdMltDSDJdW0NIMl1bQ0gyXVtDSDJdW05IXTI=

> <s_epik_cmdline>
J2VwaWtfcHl0aG9uJywgJy1waCcsICc3LjAnLCAnLXRuJywgJzgnLCAnLW1hJywgJzIwMCcsICctbWV0YWxfYmluZGluZycsICctaW1hZScsICc8aW5maWxlLm1hZT4nLCAnLW9tYWUnLCAnPG91dGZpbGUubWFlPic=

> <r_lp_tautomer_probability>
1

> <r_epik_Ionization_Penalty>
0.000475214

> <r_epik_Ionization_Penalty_Charging>
0.000474443

> <r_epik_Ionization_Penalty_Neutral>
7.70992e-07

> <r_epik_State_Penalty>
0.000294136

> <r_epik_Charging_Adjusted_Penalty>
0.000768579

> <i_epik_Tot_Q>
1

> <i_epik_Tot_abs_Q>
1

> <r_epik_Metal_State_Penalty>
-0

> <b_epik_Metal_Only>
0

> <s_lp_Force_Field>
OPLS_2005

> <r_lp_Energy>
15.8084

> <b_lp_Chiralities_Consistent>
1

> <s_lp_Variant>
AV-unprocessed.smi:3084-2

> <Gold.Version>
5.8.1

> <Gold.Id.Protein>
6NUR|6NUR_protein|mol2

> <Gold.PLP.Fitness>
38.7898

> <Gold.PLP.PLP>
-28.3787

> <Gold.PLP.part.hbond>
-3.7345

> <Gold.PLP.part.metal>
0.0000

> <Gold.PLP.part.buried>
-1.9591

> <Gold.PLP.part.nonpolar>
-22.3737

> <Gold.PLP.part.repulsive>
0.1008

> <Gold.PLP.ligand.clash>
0.0000

> <Gold.PLP.ligand.torsion>
0.4218

> <Gold.PLP.Chemscore.Hbond>
3.7500

> <Gold.PLP.Chemscore.CHOScore>
0.0000

> <Gold.PLP.Chemscore.Metal>
0.0000

> <Gold.Chemscore.Hbonds>
donor molecule, donor type, donor heavy atom, donor atom, acceptor molecule, acceptor atom, score
      L1  H    11    26       P1  8028  1.90
      P1  H  7989  7998       L1    12  1.00
      P1  H  7997  8009       L1     2  0.69

> <Gold.PLP.Chemscore.Internal.Correction>
0.0047

> <Gold.Rescore>
     Score         DG    S(hbond)    S(metal)    S(lipo)     H(rot)  DE(clash)    DE(int)     intcor
     12.10     -12.70       1.39        0.00      54.90       1.51       0.27       0.34       ----

> <Gold.Chemscore.Fitness>
12.0954

> <Gold.Chemscore.DG>
-12.7047

> <Gold.Chemscore.ZeroCoef>
-5.4800

> <Gold.Chemscore.Hbond>
1.3947

> <Gold.Chemscore.Metal>
0.0000

> <Gold.Chemscore.Lipo>
54.9001

> <Gold.Chemscore.Internal_Hbond>
0.0000

> <Gold.Chemscore.DEClash>
0.2681

> <Gold.Chemscore.DEInternal>
0.3412

> <Gold.Chemscore.Rot>
1.5066

> <Gold.Chemscore.Internal.Correction>
   9.000000E+99

> <Gold.Chemscore.Hbonds>
donor molecule, donor type, donor heavy atom, donor atom, acceptor molecule, acceptor atom, score
      L1  H    11    26       P1  8028  0.22
      P1  H  7989  7998       L1    12  0.64
      P1  H  7997  8009       L1     2  0.02

> <Gold.Chemscore.Hbond.Weighted>
-4.6583

> <Gold.Chemscore.Metal.Weighted>
-0.0000

> <Gold.Chemscore.Lipo.Weighted>
-6.4233

> <Gold.Chemscore.Internal_Hbond.Weighted>
0.0000

> <Gold.Chemscore.DEClash.Weighted>
0.2681

> <Gold.Chemscore.DEInternal.Weighted>
0.3412

> <Gold.Chemscore.Rot.Weighted>
3.8569

> <Gold.Chemscore.Internal.Correction.Weighted>
   9.000000E+99

> <Gold.Protein.RotatedTorsions>
[ 6907 6896 6895 6894 ] final -113.46 input  -60.11 | X-H torsion
[ 7974 7965 7964 7962 ] final    1.24 input  175.53 | X-H torsion
[ 8008 7997 7996 7995 ] final -147.53 input   59.86 | X-H torsion
[ 10167 10162 10161 10158 ] final   73.25 input  -65.29 | X-H torsion
[ 10718 10713 10712 10709 ] final  -46.63 input   66.30 | X-H torsion
[ 10763 10752 10751 10750 ] final  163.93 input  -60.55 | X-H torsion
[ 11005 11000 10999 10996 ] final  150.10 input  -57.11 | X-H torsion

> <Gold.Protein.ActiveResidues>
 VAL166  LYS551  ARG553  GLY616  TRP617  ASP618  TYR619  PRO620  LYS621  CYS622 
 ASP623  PHE694  ASN695  SER759  ASP760  ASP761  ALA762  ILE779  LEU786  VAL792 
 PHE793  MET794  SER795  GLU796  ALA797  LYS798  CYS799  TRP800  GLU811  SER814 

> <Gold.Protein.RotatedAtoms>
  150.7831  133.8941  159.3321 H   0  0  0  0  0  0  0  0  0  0  0  0  # atno 6907 bound_to 6896
  151.6798  135.0961  160.0223 H   0  0  0  0  0  0  0  0  0  0  0  0  # atno 6908 bound_to 6896
  152.3888  133.6610  159.6256 H   0  0  0  0  0  0  0  0  0  0  0  0  # atno 6909 bound_to 6896
  146.2439  140.1017  142.8347 H   0  0  0  0  0  0  0  0  0  0  0  0  # atno 7974 bound_to 7965
  155.5770  140.0639  157.2792 H   0  0  0  0  0  0  0  0  0  0  0  0  # atno 8008 bound_to 7997
  154.4344  140.1859  156.0984 H   0  0  0  0  0  0  0  0  0  0  0  0  # atno 8009 bound_to 7997
  156.0334  140.3304  155.7168 H   0  0  0  0  0  0  0  0  0  0  0  0  # atno 8010 bound_to 7997
  140.0265  144.5499  150.7540 H   0  0  0  0  0  0  0  0  0  0  0  0  # atno 10167 bound_to 10162
  156.2163  130.4163  149.9049 H   0  0  0  0  0  0  0  0  0  0  0  0  # atno 10718 bound_to 10713
  154.3011  135.2759  155.2610 H   0  0  0  0  0  0  0  0  0  0  0  0  # atno 10763 bound_to 10752
  154.5047  135.5799  153.6561 H   0  0  0  0  0  0  0  0  0  0  0  0  # atno 10764 bound_to 10752
  152.9900  135.6166  154.3182 H   0  0  0  0  0  0  0  0  0  0  0  0  # atno 10765 bound_to 10752
  140.1102  134.8929  157.1925 H   0  0  0  0  0  0  0  0  0  0  0  0  # atno 11005 bound_to 11000
  145.0562  140.9054  143.4966 LP  0  0  0  0  0  0  0  0  0  0  0  0  # atno 17320 bound_to 7965
  145.1124  139.2748  143.5630 LP  0  0  0  0  0  0  0  0  0  0  0  0  # atno 17321 bound_to 7965
  140.7320  143.2701  151.3917 LP  0  0  0  0  0  0  0  0  0  0  0  0  # atno 17342 bound_to 10162
  139.6104  144.1110  152.2293 LP  0  0  0  0  0  0  0  0  0  0  0  0  # atno 17343 bound_to 10162
  156.6710  130.8820  151.3562 LP  0  0  0  0  0  0  0  0  0  0  0  0  # atno 17370 bound_to 10713
  157.7065  130.9391  150.0948 LP  0  0  0  0  0  0  0  0  0  0  0  0  # atno 17371 bound_to 10713
  140.3102  134.3033  155.7269 LP  0  0  0  0  0  0  0  0  0  0  0  0  # atno 17394 bound_to 11000
  141.2128  133.7645  156.9765 LP  0  0  0  0  0  0  0  0  0  0  0  0  # atno 17395 bound_to 11000

$$$$
