AV-unprocessed.smi:3179|AV-procd|sdf|12132|dock2
  -GOLD-   2272017573D 1   1.00000     0.00000
 Structure written by MMmdl.
 34 34  0  0  0  0  0  0  0  0  2 V2000
  146.6603  142.6025  154.3438 C   0  0  0  0  0  0  0  0  0  0  0  0
  147.8306  141.6746  154.0059 C   0  0  0  0  0  0  0  0  0  0  0  0
  148.9467  141.8640  154.9416 N   0  3  0  0  0  0  0  0  0  0  0  0
  149.9889  141.0248  155.1003 C   0  0  0  0  0  0  0  0  0  0  0  0
  150.0620  139.8957  154.3686 N   0  0  0  0  0  0  0  0  0  0  0  0
  151.1356  138.8958  154.4414 C   0  0  0  0  0  0  0  0  0  0  0  0
  150.5674  137.4832  154.6028 C   0  0  0  0  0  0  0  0  0  0  0  0
  150.9583  141.3140  155.9902 N   0  0  0  0  0  0  0  0  0  0  0  0
  151.0006  142.4979  156.8592 C   0  0  0  0  0  0  0  0  0  0  0  0
  151.2996  142.1093  158.3120 C   0  0  0  0  0  0  0  0  0  0  0  0
  151.5671  143.2958  159.1760 C   0  0  0  0  0  0  0  0  0  0  0  0
  151.7310  143.2207  160.4997 N   0  0  0  0  0  0  0  0  0  0  0  0
  151.9469  144.4716  161.0835 C   0  0  0  0  0  0  0  0  0  0  0  0
  151.9259  145.5064  160.1831 C   0  0  0  0  0  0  0  0  0  0  0  0
  151.6331  144.9439  158.5600 S   0  0  0  0  0  0  0  0  0  0  0  0
  145.8398  142.4616  153.6395 H   0  0  0  0  0  0  0  0  0  0  0  0
  146.9606  143.6498  154.2980 H   0  0  0  0  0  0  0  0  0  0  0  0
  146.2763  142.4050  155.3449 H   0  0  0  0  0  0  0  0  0  0  0  0
  147.5071  140.6342  154.0424 H   0  0  0  0  0  0  0  0  0  0  0  0
  148.1803  141.8707  152.9919 H   0  0  0  0  0  0  0  0  0  0  0  0
  149.3194  139.7081  153.7103 H   0  0  0  0  0  0  0  0  0  0  0  0
  151.7401  138.9551  153.5361 H   0  0  0  0  0  0  0  0  0  0  0  0
  151.7865  139.1346  155.2828 H   0  0  0  0  0  0  0  0  0  0  0  0
  151.3706  136.7487  154.6665 H   0  0  0  0  0  0  0  0  0  0  0  0
  149.9363  137.2124  153.7558 H   0  0  0  0  0  0  0  0  0  0  0  0
  149.9684  137.3995  155.5101 H   0  0  0  0  0  0  0  0  0  0  0  0
  151.7156  140.6541  156.0964 H   0  0  0  0  0  0  0  0  0  0  0  0
  151.7664  143.1820  156.4922 H   0  0  0  0  0  0  0  0  0  0  0  0
  150.0433  143.0161  156.7941 H   0  0  0  0  0  0  0  0  0  0  0  0
  150.4620  141.5511  158.7326 H   0  0  0  0  0  0  0  0  0  0  0  0
  152.1664  141.4489  158.3533 H   0  0  0  0  0  0  0  0  0  0  0  0
  152.1055  144.5338  162.1502 H   0  0  0  0  0  0  0  0  0  0  0  0
  152.0622  146.5604  160.3760 H   0  0  0  0  0  0  0  0  0  0  0  0
  148.9153  142.6966  155.5126 H   0  0  0  0  0  0  0  0  0  0  0  0
  1  2  1  0  0  0  0
  1 16  1  0  0  0  0
  1 17  1  0  0  0  0
  1 18  1  0  0  0  0
  2  3  1  0  0  0  0
  2 19  1  0  0  0  0
  2 20  1  0  0  0  0
  3  4  2  0  0  0  0
  3 34  1  0  0  0  0
  4  5  1  0  0  0  0
  4  8  1  0  0  0  0
  5  6  1  0  0  0  0
  5 21  1  0  0  0  0
  6  7  1  0  0  0  0
  6 22  1  0  0  0  0
  6 23  1  0  0  0  0
  7 24  1  0  0  0  0
  7 25  1  0  0  0  0
  7 26  1  0  0  0  0
  8  9  1  0  0  0  0
  8 27  1  0  0  0  0
  9 10  1  0  0  0  0
  9 28  1  0  0  0  0
  9 29  1  0  0  0  0
 10 11  1  0  0  0  0
 10 30  1  0  0  0  0
 10 31  1  0  0  0  0
 11 15  1  0  0  0  0
 11 12  2  0  0  0  0
 12 13  1  0  0  0  0
 13 14  2  0  0  0  0
 13 32  1  0  0  0  0
 14 15  1  0  0  0  0
 14 33  1  0  0  0  0
M  CHG  1   3   1
M  END
> <s_m_source_file>
AV-unprocessed.smi

> <i_m_source_file_index>
3179

> <i_lp_mmshare_version>
43012

> <i_f3d_flags>
0

> <s_epik_input>
W0NIM11bQ0gyXS9OPUMoXFtOSF1bQ0gyXVtDSDNdKVtOSF1bQ0gyXVtDSDJdYzFuW2NIXVtjSF1zMQ==

> <s_epik_cmdline>
J2VwaWtfcHl0aG9uJywgJy1waCcsICc3LjAnLCAnLXRuJywgJzgnLCAnLW1hJywgJzIwMCcsICctbWV0YWxfYmluZGluZycsICctaW1hZScsICc8aW5maWxlLm1hZT4nLCAnLW9tYWUnLCAnPG91dGZpbGUubWFlPic=

> <r_lp_tautomer_probability>
1

> <r_epik_Ionization_Penalty>
3.28801e-05

> <r_epik_Ionization_Penalty_Charging>
8.99277e-08

> <r_epik_Ionization_Penalty_Neutral>
3.27902e-05

> <r_epik_State_Penalty>
-0

> <r_epik_Charging_Adjusted_Penalty>
8.99277e-08

> <i_epik_Tot_Q>
1

> <i_epik_Tot_abs_Q>
1

> <r_epik_Metal_State_Penalty>
-0

> <b_epik_Metal_Only>
0

> <s_epik_Chemistry_Notes>
This compound has an imine and may undergo hydrolysis.

> <s_lp_Force_Field>
OPLS_2005

> <r_lp_Energy>
0.386487

> <b_lp_Chiralities_Consistent>
1

> <s_lp_Variant>
AV-unprocessed.smi:3179-1

> <Gold.Version>
5.8.1

> <Gold.Id.Protein>
6NUR|6NUR_protein|mol2

> <Gold.PLP.Fitness>
42.9241

> <Gold.PLP.PLP>
-37.4470

> <Gold.PLP.part.hbond>
-1.3481

> <Gold.PLP.part.metal>
0.0000

> <Gold.PLP.part.buried>
-5.3219

> <Gold.PLP.part.nonpolar>
-31.6831

> <Gold.PLP.part.repulsive>
1.1888

> <Gold.PLP.ligand.clash>
0.0000

> <Gold.PLP.ligand.torsion>
0.2469

> <Gold.PLP.Chemscore.Hbond>
1.9840

> <Gold.PLP.Chemscore.CHOScore>
0.0000

> <Gold.PLP.Chemscore.Metal>
0.0000

> <Gold.Chemscore.Hbonds>
donor molecule, donor type, donor heavy atom, donor atom, acceptor molecule, acceptor atom, score
      L1  H     3    34       P1  8028  1.95

> <Gold.PLP.Chemscore.Internal.Correction>
0.0190

> <Gold.Rescore>
     Score         DG    S(hbond)    S(metal)    S(lipo)     H(rot)  DE(clash)    DE(int)     intcor
     14.91     -15.30       0.95        0.00      94.55       1.72       0.13       0.26       ----

> <Gold.Chemscore.Fitness>
14.9055

> <Gold.Chemscore.DG>
-15.3001

> <Gold.Chemscore.ZeroCoef>
-5.4800

> <Gold.Chemscore.Hbond>
0.9454

> <Gold.Chemscore.Metal>
0.0000

> <Gold.Chemscore.Lipo>
94.5474

> <Gold.Chemscore.Internal_Hbond>
0.0000

> <Gold.Chemscore.DEClash>
0.1309

> <Gold.Chemscore.DEInternal>
0.2636

> <Gold.Chemscore.Rot>
1.7187

> <Gold.Chemscore.Internal.Correction>
   9.000000E+99

> <Gold.Chemscore.Hbonds>
donor molecule, donor type, donor heavy atom, donor atom, acceptor molecule, acceptor atom, score
      L1  H     3    34       P1  8028  0.88

> <Gold.Chemscore.Hbond.Weighted>
-3.1578

> <Gold.Chemscore.Metal.Weighted>
-0.0000

> <Gold.Chemscore.Lipo.Weighted>
-11.0620

> <Gold.Chemscore.Internal_Hbond.Weighted>
0.0000

> <Gold.Chemscore.DEClash.Weighted>
0.1309

> <Gold.Chemscore.DEInternal.Weighted>
0.2636

> <Gold.Chemscore.Rot.Weighted>
4.3998

> <Gold.Chemscore.Internal.Correction.Weighted>
   9.000000E+99

> <Gold.Protein.RotatedTorsions>
[ 6907 6896 6895 6894 ] final  -18.25 input  -60.11 | X-H torsion
[ 7974 7965 7964 7962 ] final   25.52 input  175.53 | X-H torsion
[ 8008 7997 7996 7995 ] final -173.90 input   59.86 | X-H torsion
[ 10167 10162 10161 10158 ] final   22.78 input  -65.29 | X-H torsion
[ 10718 10713 10712 10709 ] final   27.08 input   66.30 | X-H torsion
[ 10763 10752 10751 10750 ] final  -54.90 input  -60.55 | X-H torsion
[ 11005 11000 10999 10996 ] final -126.38 input  -57.11 | X-H torsion

> <Gold.Protein.ActiveResidues>
 VAL166  LYS551  ARG553  GLY616  TRP617  ASP618  TYR619  PRO620  LYS621  CYS622 
 ASP623  PHE694  ASN695  SER759  ASP760  ASP761  ALA762  ILE779  LEU786  VAL792 
 PHE793  MET794  SER795  GLU796  ALA797  LYS798  CYS799  TRP800  GLU811  SER814 

> <Gold.Protein.RotatedAtoms>
  151.2810  135.0713  159.9168 H   0  0  0  0  0  0  0  0  0  0  0  0  # atno 6907 bound_to 6896
  152.5334  134.0031  159.7914 H   0  0  0  0  0  0  0  0  0  0  0  0  # atno 6908 bound_to 6896
  151.0285  133.5761  159.2694 H   0  0  0  0  0  0  0  0  0  0  0  0  # atno 6909 bound_to 6896
  146.1884  139.7454  142.8849 H   0  0  0  0  0  0  0  0  0  0  0  0  # atno 7974 bound_to 7965
  155.9633  140.1149  157.0876 H   0  0  0  0  0  0  0  0  0  0  0  0  # atno 8008 bound_to 7997
  154.4137  140.1177  156.5275 H   0  0  0  0  0  0  0  0  0  0  0  0  # atno 8009 bound_to 7997
  155.6692  140.3473  155.4814 H   0  0  0  0  0  0  0  0  0  0  0  0  # atno 8010 bound_to 7997
  140.5321  143.9823  150.6471 H   0  0  0  0  0  0  0  0  0  0  0  0  # atno 10167 bound_to 10162
  157.2155  130.6954  149.6247 H   0  0  0  0  0  0  0  0  0  0  0  0  # atno 10718 bound_to 10713
  154.1823  135.6441  153.5037 H   0  0  0  0  0  0  0  0  0  0  0  0  # atno 10763 bound_to 10752
  153.0056  135.5409  154.6501 H   0  0  0  0  0  0  0  0  0  0  0  0  # atno 10764 bound_to 10752
  154.5869  135.2930  155.0648 H   0  0  0  0  0  0  0  0  0  0  0  0  # atno 10765 bound_to 10752
  140.9686  134.0838  157.3894 H   0  0  0  0  0  0  0  0  0  0  0  0  # atno 11005 bound_to 11000
  145.3868  141.0366  143.3146 LP  0  0  0  0  0  0  0  0  0  0  0  0  # atno 17320 bound_to 7965
  144.8440  139.5426  143.6887 LP  0  0  0  0  0  0  0  0  0  0  0  0  # atno 17321 bound_to 7965
  140.3201  143.3143  152.0793 LP  0  0  0  0  0  0  0  0  0  0  0  0  # atno 17342 bound_to 10162
  139.4958  144.6579  151.6530 LP  0  0  0  0  0  0  0  0  0  0  0  0  # atno 17343 bound_to 10162
  155.9687  130.4537  150.5822 LP  0  0  0  0  0  0  0  0  0  0  0  0  # atno 17370 bound_to 10713
  157.3629  131.0753  151.1621 LP  0  0  0  0  0  0  0  0  0  0  0  0  # atno 17371 bound_to 10713
  139.8903  135.0111  156.6731 LP  0  0  0  0  0  0  0  0  0  0  0  0  # atno 17394 bound_to 11000
  140.7363  133.9016  155.8246 LP  0  0  0  0  0  0  0  0  0  0  0  0  # atno 17395 bound_to 11000

$$$$
