AV-unprocessed.smi:2044|AV-procd|sdf|8298|dock8
  -GOLD-   2272010563D 1   1.00000     0.00000
 Structure written by MMmdl.
 39 40  0  0  0  0  0  0  0  0  1 V2000
  147.1924  135.5053  162.0345 C   0  0  0  0  0  0  0  0  0  0  0  0
  147.9372  135.6134  160.7481 C   0  0  0  0  0  0  0  0  0  0  0  0
  148.4573  136.6742  160.0614 C   0  0  0  0  0  0  0  0  0  0  0  0
  149.0304  136.0630  158.9146 C   0  0  0  0  0  0  0  0  0  0  0  0
  149.6831  136.8410  157.9245 N   0  0  0  0  0  0  0  0  0  0  0  0
  150.4719  137.9127  158.1133 C   0  0  0  0  0  0  0  0  0  0  0  0
  150.7476  138.4055  159.2077 O   0  0  0  0  0  0  0  0  0  0  0  0
  150.9261  138.3924  156.9466 N   0  0  0  0  0  0  0  0  0  0  0  0
  151.7898  139.5605  156.7841 C   0  0  0  0  0  0  0  0  0  0  0  0
  151.0829  140.8813  157.1879 C   0  0  2  0  0  0  0  0  0  0  0  0
  150.4918  141.5304  155.9160 C   0  0  0  0  0  0  0  0  0  0  0  0
  151.9291  141.7998  157.9818 N   0  0  0  0  0  0  0  0  0  0  0  0
  151.3435  143.1384  158.1040 C   0  0  0  0  0  0  0  0  0  0  0  0
  152.2082  144.0892  158.9498 C   0  0  0  0  0  0  0  0  0  0  0  0
  152.4216  143.5253  160.2371 O   0  0  0  0  0  0  0  0  0  0  0  0
  153.0540  142.2543  160.1685 C   0  0  0  0  0  0  0  0  0  0  0  0
  152.1928  141.2926  159.3319 C   0  0  0  0  0  0  0  0  0  0  0  0
  148.8744  134.7479  158.9025 N   0  0  0  0  0  0  0  0  0  0  0  0
  148.1723  134.4532  160.0773 O   0  0  0  0  0  0  0  0  0  0  0  0
  147.3791  136.3741  162.6659 H   0  0  0  0  0  0  0  0  0  0  0  0
  147.4958  134.6156  162.5870 H   0  0  0  0  0  0  0  0  0  0  0  0
  146.1194  135.4423  161.8538 H   0  0  0  0  0  0  0  0  0  0  0  0
  148.4293  137.7178  160.3373 H   0  0  0  0  0  0  0  0  0  0  0  0
  149.5372  136.5476  156.9700 H   0  0  0  0  0  0  0  0  0  0  0  0
  150.6386  137.9254  156.0991 H   0  0  0  0  0  0  0  0  0  0  0  0
  152.7124  139.4414  157.3543 H   0  0  0  0  0  0  0  0  0  0  0  0
  152.1191  139.5972  155.7464 H   0  0  0  0  0  0  0  0  0  0  0  0
  150.2316  140.5935  157.8066 H   0  0  0  0  0  0  0  0  0  0  0  0
  149.9737  140.7940  155.3012 H   0  0  0  0  0  0  0  0  0  0  0  0
  151.2683  141.9852  155.3003 H   0  0  0  0  0  0  0  0  0  0  0  0
  149.7566  142.2991  156.1517 H   0  0  0  0  0  0  0  0  0  0  0  0
  151.2231  143.5935  157.1218 H   0  0  0  0  0  0  0  0  0  0  0  0
  150.3476  143.0678  158.5441 H   0  0  0  0  0  0  0  0  0  0  0  0
  153.1662  144.2771  158.4622 H   0  0  0  0  0  0  0  0  0  0  0  0
  151.7116  145.0533  159.0624 H   0  0  0  0  0  0  0  0  0  0  0  0
  154.0504  142.3577  159.7360 H   0  0  0  0  0  0  0  0  0  0  0  0
  153.1823  141.8660  161.1788 H   0  0  0  0  0  0  0  0  0  0  0  0
  151.2496  141.1100  159.8491 H   0  0  0  0  0  0  0  0  0  0  0  0
  152.7173  140.3395  159.2875 H   0  0  0  0  0  0  0  0  0  0  0  0
  1  2  1  0  0  0  0
  1 20  1  0  0  0  0
  1 21  1  0  0  0  0
  1 22  1  0  0  0  0
  2 19  1  0  0  0  0
  2  3  2  0  0  0  0
  3  4  1  0  0  0  0
  3 23  1  0  0  0  0
  4  5  1  0  0  0  0
  4 18  2  0  0  0  0
  5  6  1  0  0  0  0
  5 24  1  0  0  0  0
  6  7  2  0  0  0  0
  6  8  1  0  0  0  0
  8  9  1  0  0  0  0
  8 25  1  0  0  0  0
  9 10  1  0  0  0  0
  9 26  1  0  0  0  0
  9 27  1  0  0  0  0
 10 11  1  0  0  0  0
 10 12  1  0  0  0  0
 10 28  1  0  0  0  0
 11 29  1  0  0  0  0
 11 30  1  0  0  0  0
 11 31  1  0  0  0  0
 12 17  1  0  0  0  0
 12 13  1  0  0  0  0
 13 14  1  0  0  0  0
 13 32  1  0  0  0  0
 13 33  1  0  0  0  0
 14 15  1  0  0  0  0
 14 34  1  0  0  0  0
 14 35  1  0  0  0  0
 15 16  1  0  0  0  0
 16 17  1  0  0  0  0
 16 36  1  0  0  0  0
 16 37  1  0  0  0  0
 17 38  1  0  0  0  0
 17 39  1  0  0  0  0
 18 19  1  0  0  0  0
M  END
> <s_m_source_file>
AV-unprocessed.smi

> <i_m_source_file_index>
2044

> <i_lp_mmshare_version>
43012

> <i_f3d_flags>
0

> <s_epik_input>
W0NIM11jMVtjSF1jKG5vMSlbTkhdQyg9TylbTkhdW0NIMl1bQ0BIXShbQ0gzXSlOMltDSDJdW0NIMl1PW0NIMl1bQ0gyXTI=

> <s_epik_cmdline>
J2VwaWtfcHl0aG9uJywgJy1waCcsICc3LjAnLCAnLXRuJywgJzgnLCAnLW1hJywgJzIwMCcsICctbWV0YWxfYmluZGluZycsICctaW1hZScsICc8aW5maWxlLm1hZT4nLCAnLW9tYWUnLCAnPG91dGZpbGUubWFlPic=

> <r_epik_Ionization_Penalty>
0.214073

> <r_epik_Ionization_Penalty_Charging>
0

> <r_epik_Ionization_Penalty_Neutral>
0.214073

> <r_epik_State_Penalty>
0.204211

> <r_epik_Charging_Adjusted_Penalty>
0.204211

> <i_epik_Tot_Q>
0

> <i_epik_Tot_abs_Q>
0

> <r_epik_Metal_State_Penalty>
0.217151

> <b_epik_Metal_Only>
0

> <s_lp_Force_Field>
OPLS_2005

> <r_lp_Energy>
29.787

> <b_lp_Chiralities_Consistent>
1

> <s_lp_Variant>
AV-unprocessed.smi:2044-1

> <Gold.Version>
5.8.1

> <Gold.Id.Protein>
6NUR|6NUR_protein|mol2

> <Gold.PLP.Fitness>
33.8645

> <Gold.PLP.PLP>
-32.8927

> <Gold.PLP.part.hbond>
-1.7372

> <Gold.PLP.part.metal>
0.0000

> <Gold.PLP.part.buried>
-4.4282

> <Gold.PLP.part.nonpolar>
-26.8176

> <Gold.PLP.part.repulsive>
0.1171

> <Gold.PLP.ligand.clash>
0.0000

> <Gold.PLP.ligand.torsion>
1.0385

> <Gold.PLP.Chemscore.Hbond>
1.0000

> <Gold.PLP.Chemscore.CHOScore>
0.0000

> <Gold.PLP.Chemscore.Metal>
0.0000

> <Gold.Chemscore.Hbonds>
donor molecule, donor type, donor heavy atom, donor atom, acceptor molecule, acceptor atom, score
      P1  H  6896  6908       L1    18  1.00

> <Gold.PLP.Chemscore.Internal.Correction>
0.0487

> <Gold.Rescore>
     Score         DG    S(hbond)    S(metal)    S(lipo)     H(rot)  DE(clash)    DE(int)     intcor
     12.59     -13.68       0.80        0.00      81.86       1.58       0.03       1.06       ----

> <Gold.Chemscore.Fitness>
12.5912

> <Gold.Chemscore.DG>
-13.6808

> <Gold.Chemscore.ZeroCoef>
-5.4800

> <Gold.Chemscore.Hbond>
0.7952

> <Gold.Chemscore.Metal>
0.0000

> <Gold.Chemscore.Lipo>
81.8621

> <Gold.Chemscore.Internal_Hbond>
0.0000

> <Gold.Chemscore.DEClash>
0.0335

> <Gold.Chemscore.DEInternal>
1.0562

> <Gold.Chemscore.Rot>
1.5753

> <Gold.Chemscore.Internal.Correction>
   9.000000E+99

> <Gold.Chemscore.Hbonds>
donor molecule, donor type, donor heavy atom, donor atom, acceptor molecule, acceptor atom, score
      P1  H  6896  6908       L1    18  0.08

> <Gold.Chemscore.Hbond.Weighted>
-2.6558

> <Gold.Chemscore.Metal.Weighted>
-0.0000

> <Gold.Chemscore.Lipo.Weighted>
-9.5779

> <Gold.Chemscore.Internal_Hbond.Weighted>
0.0000

> <Gold.Chemscore.DEClash.Weighted>
0.0335

> <Gold.Chemscore.DEInternal.Weighted>
1.0562

> <Gold.Chemscore.Rot.Weighted>
4.0329

> <Gold.Chemscore.Internal.Correction.Weighted>
   9.000000E+99

> <Gold.Protein.RotatedTorsions>
[ 6907 6896 6895 6894 ] final  143.09 input  -60.11 | X-H torsion
[ 7974 7965 7964 7962 ] final   -2.53 input  175.53 | X-H torsion
[ 8008 7997 7996 7995 ] final   48.99 input   59.86 | X-H torsion
[ 10167 10162 10161 10158 ] final  -45.82 input  -65.29 | X-H torsion
[ 10718 10713 10712 10709 ] final  116.74 input   66.30 | X-H torsion
[ 10763 10752 10751 10750 ] final   82.43 input  -60.55 | X-H torsion
[ 11005 11000 10999 10996 ] final  -48.68 input  -57.11 | X-H torsion

> <Gold.Protein.ActiveResidues>
 VAL166  LYS551  ARG553  GLY616  TRP617  ASP618  TYR619  PRO620  LYS621  CYS622 
 ASP623  PHE694  ASN695  SER759  ASP760  ASP761  ALA762  ILE779  LEU786  VAL792 
 PHE793  MET794  SER795  GLU796  ALA797  LYS798  CYS799  TRP800  GLU811  SER814 

> <Gold.Protein.RotatedAtoms>
  152.2107  133.4909  159.5108 H   0  0  0  0  0  0  0  0  0  0  0  0  # atno 6907 bound_to 6896
  150.6989  134.1471  159.4135 H   0  0  0  0  0  0  0  0  0  0  0  0  # atno 6908 bound_to 6896
  151.9390  135.0221  160.0585 H   0  0  0  0  0  0  0  0  0  0  0  0  # atno 6909 bound_to 6896
  146.2403  140.1585  142.8333 H   0  0  0  0  0  0  0  0  0  0  0  0  # atno 7974 bound_to 7965
  155.3947  140.3435  155.4253 H   0  0  0  0  0  0  0  0  0  0  0  0  # atno 8008 bound_to 7997
  156.1537  140.1579  156.8760 H   0  0  0  0  0  0  0  0  0  0  0  0  # atno 8009 bound_to 7997
  154.5076  140.0798  156.7906 H   0  0  0  0  0  0  0  0  0  0  0  0  # atno 8010 bound_to 7997
  140.6842  143.2860  151.3694 H   0  0  0  0  0  0  0  0  0  0  0  0  # atno 10167 bound_to 10162
  157.6141  131.1029  150.7516 H   0  0  0  0  0  0  0  0  0  0  0  0  # atno 10718 bound_to 10713
  153.1202  135.4728  154.9183 H   0  0  0  0  0  0  0  0  0  0  0  0  # atno 10763 bound_to 10752
  154.7568  135.3120  154.8457 H   0  0  0  0  0  0  0  0  0  0  0  0  # atno 10764 bound_to 10752
  153.9023  135.6874  153.4808 H   0  0  0  0  0  0  0  0  0  0  0  0  # atno 10765 bound_to 10752
  141.0715  133.6678  156.3476 H   0  0  0  0  0  0  0  0  0  0  0  0  # atno 11005 bound_to 11000
  145.0108  140.8713  143.5225 LP  0  0  0  0  0  0  0  0  0  0  0  0  # atno 17320 bound_to 7965
  145.1619  139.2454  143.5387 LP  0  0  0  0  0  0  0  0  0  0  0  0  # atno 17321 bound_to 7965
  139.6188  144.0949  152.2371 LP  0  0  0  0  0  0  0  0  0  0  0  0  # atno 17342 bound_to 10162
  140.0386  144.6025  150.7429 LP  0  0  0  0  0  0  0  0  0  0  0  0  # atno 17343 bound_to 10162
  156.7887  130.4883  149.5388 LP  0  0  0  0  0  0  0  0  0  0  0  0  # atno 17370 bound_to 10713
  156.1256  130.6141  151.0258 LP  0  0  0  0  0  0  0  0  0  0  0  0  # atno 17371 bound_to 10713
  140.5664  134.5884  157.5446 LP  0  0  0  0  0  0  0  0  0  0  0  0  # atno 17394 bound_to 11000
  139.9528  134.7587  156.0409 LP  0  0  0  0  0  0  0  0  0  0  0  0  # atno 17395 bound_to 11000

$$$$
