AV-unprocessed.smi:783|AV-procd|sdf|3716|dock2
  -GOLD-   22720 1143D 1   1.00000     0.00000
 Structure written by MMmdl.
 45 46  0  0  0  0  0  0  0  0  1 V2000
  153.4608  141.0733  160.1922 C   0  0  0  0  0  0  0  0  0  0  0  0
  152.0959  141.4272  159.5670 C   0  0  2  0  0  0  0  0  0  0  0  0
  151.7355  140.5146  158.3848 C   0  0  0  0  0  0  0  0  0  0  0  0
  152.5306  140.3430  157.4605 O   0  0  0  0  0  0  0  0  0  0  0  0
  150.5290  139.9277  158.4363 N   0  0  0  0  0  0  0  0  0  0  0  0
  149.9835  138.9930  157.4514 C   0  0  0  0  0  0  0  0  0  0  0  0
  150.0068  139.5639  155.9996 C   0  0  0  0  0  0  0  0  0  0  0  0
  151.3304  139.2091  155.2409 C   0  0  0  0  0  0  0  0  0  0  0  0
  152.0596  140.1381  154.8841 O   0  0  0  0  0  0  0  0  0  0  0  0
  151.6810  137.9267  154.9492 N   0  0  0  0  0  0  0  0  0  0  0  0
  152.8493  137.4581  154.1968 C   0  0  0  0  0  0  0  0  0  0  0  0
  150.8421  136.8238  155.4295 C   0  0  0  0  0  0  0  0  0  0  0  0
  148.7625  139.0108  155.2485 C   0  0  0  0  0  0  0  0  0  0  0  0
  148.4421  139.9895  154.1141 C   0  0  0  0  0  0  0  0  0  0  0  0
  149.0293  141.3314  154.5563 C   0  0  0  0  0  0  0  0  0  0  0  0
  149.6994  141.0802  155.9142 C   0  0  0  0  0  0  0  0  0  0  0  0
  152.0125  142.8281  159.1692 N   0  0  0  0  0  0  0  0  0  0  0  0
  153.0094  143.7819  159.2142 C   0  0  0  0  0  0  0  0  0  0  0  0
  152.4711  144.9606  158.7835 C   0  0  0  0  0  0  0  0  0  0  0  0
  151.1156  144.6309  158.5057 C   0  0  0  0  0  0  0  0  0  0  0  0
  150.8418  143.3592  158.7448 N   0  0  0  0  0  0  0  0  0  0  0  0
  153.4787  140.0371  160.5315 H   0  0  0  0  0  0  0  0  0  0  0  0
  153.6662  141.7033  161.0581 H   0  0  0  0  0  0  0  0  0  0  0  0
  154.2836  141.2032  159.4877 H   0  0  0  0  0  0  0  0  0  0  0  0
  151.3423  141.2702  160.3408 H   0  0  0  0  0  0  0  0  0  0  0  0
  149.9450  140.1296  159.2347 H   0  0  0  0  0  0  0  0  0  0  0  0
  150.6024  138.0967  157.4981 H   0  0  0  0  0  0  0  0  0  0  0  0
  148.9984  138.6490  157.7569 H   0  0  0  0  0  0  0  0  0  0  0  0
  153.3920  138.2195  153.6477 H   0  0  0  0  0  0  0  0  0  0  0  0
  152.5452  136.7145  153.4594 H   0  0  0  0  0  0  0  0  0  0  0  0
  153.5565  136.9785  154.8740 H   0  0  0  0  0  0  0  0  0  0  0  0
  149.8569  136.8599  154.9625 H   0  0  0  0  0  0  0  0  0  0  0  0
  150.7116  136.8790  156.5115 H   0  0  0  0  0  0  0  0  0  0  0  0
  151.2738  135.8463  155.2106 H   0  0  0  0  0  0  0  0  0  0  0  0
  148.8809  137.9886  154.8860 H   0  0  0  0  0  0  0  0  0  0  0  0
  147.9052  138.9876  155.9232 H   0  0  0  0  0  0  0  0  0  0  0  0
  148.9134  139.6649  153.1856 H   0  0  0  0  0  0  0  0  0  0  0  0
  147.3690  140.0516  153.9307 H   0  0  0  0  0  0  0  0  0  0  0  0
  149.7671  141.6676  153.8269 H   0  0  0  0  0  0  0  0  0  0  0  0
  148.2664  142.1071  154.6290 H   0  0  0  0  0  0  0  0  0  0  0  0
  149.0076  141.3579  156.7107 H   0  0  0  0  0  0  0  0  0  0  0  0
  150.5650  141.7312  156.0149 H   0  0  0  0  0  0  0  0  0  0  0  0
  154.0097  143.5448  159.5455 H   0  0  0  0  0  0  0  0  0  0  0  0
  152.9683  145.9144  158.6867 H   0  0  0  0  0  0  0  0  0  0  0  0
  150.3267  145.2742  158.1442 H   0  0  0  0  0  0  0  0  0  0  0  0
  1  2  1  0  0  0  0
  1 22  1  0  0  0  0
  1 23  1  0  0  0  0
  1 24  1  0  0  0  0
  2  3  1  0  0  0  0
  2 17  1  0  0  0  0
  2 25  1  0  0  0  0
  3  4  2  0  0  0  0
  3  5  1  0  0  0  0
  5  6  1  0  0  0  0
  5 26  1  0  0  0  0
  6  7  1  0  0  0  0
  6 27  1  0  0  0  0
  6 28  1  0  0  0  0
  7 16  1  0  0  0  0
  7  8  1  0  0  0  0
  7 13  1  0  0  0  0
  8  9  2  0  0  0  0
  8 10  1  0  0  0  0
 10 11  1  0  0  0  0
 10 12  1  0  0  0  0
 11 29  1  0  0  0  0
 11 30  1  0  0  0  0
 11 31  1  0  0  0  0
 12 32  1  0  0  0  0
 12 33  1  0  0  0  0
 12 34  1  0  0  0  0
 13 14  1  0  0  0  0
 13 35  1  0  0  0  0
 13 36  1  0  0  0  0
 14 15  1  0  0  0  0
 14 37  1  0  0  0  0
 14 38  1  0  0  0  0
 15 16  1  0  0  0  0
 15 39  1  0  0  0  0
 15 40  1  0  0  0  0
 16 41  1  0  0  0  0
 16 42  1  0  0  0  0
 17 21  1  0  0  0  0
 17 18  1  0  0  0  0
 18 19  2  0  0  0  0
 18 43  1  0  0  0  0
 19 20  1  0  0  0  0
 19 44  1  0  0  0  0
 20 21  2  0  0  0  0
 20 45  1  0  0  0  0
M  END
> <s_m_source_file>
AV-unprocessed.smi

> <i_m_source_file_index>
783

> <i_lp_mmshare_version>
43012

> <i_f3d_flags>
0

> <s_epik_input>
bjFbY0hdW2NIXVtjSF1uMVtDQEhdKFtDSDNdKUMoPU8pW05IXVtDSDJdQzIoQyg9TylOKFtDSDNdKVtDSDNdKVtDSDJdW0NIMl1bQ0gyXVtDSDJdMg==

> <s_epik_cmdline>
J2VwaWtfcHl0aG9uJywgJy1waCcsICc3LjAnLCAnLXRuJywgJzgnLCAnLW1hJywgJzIwMCcsICctbWV0YWxfYmluZGluZycsICctaW1hZScsICc8aW5maWxlLm1hZT4nLCAnLW9tYWUnLCAnPG91dGZpbGUubWFlPic=

> <r_lp_tautomer_probability>
1

> <r_epik_Ionization_Penalty>
3.31274e-05

> <r_epik_Ionization_Penalty_Charging>
0

> <r_epik_Ionization_Penalty_Neutral>
3.31274e-05

> <r_epik_State_Penalty>
-0

> <r_epik_Charging_Adjusted_Penalty>
0

> <i_epik_Tot_Q>
0

> <i_epik_Tot_abs_Q>
0

> <r_epik_Metal_State_Penalty>
-0

> <b_epik_Metal_Only>
0

> <s_lp_Force_Field>
OPLS_2005

> <r_lp_Energy>
39.8422

> <b_lp_Chiralities_Consistent>
1

> <s_lp_Variant>
AV-unprocessed.smi:783-1

> <Gold.Version>
5.8.1

> <Gold.Id.Protein>
6NUR|6NUR_protein|mol2

> <Gold.PLP.Fitness>
43.6738

> <Gold.PLP.PLP>
-36.9075

> <Gold.PLP.part.hbond>
-1.6450

> <Gold.PLP.part.metal>
0.0000

> <Gold.PLP.part.buried>
-0.3289

> <Gold.PLP.part.nonpolar>
-36.0253

> <Gold.PLP.part.repulsive>
0.3305

> <Gold.PLP.ligand.clash>
0.0000

> <Gold.PLP.ligand.torsion>
0.9927

> <Gold.PLP.Chemscore.Hbond>
1.7760

> <Gold.PLP.Chemscore.CHOScore>
1.0388

> <Gold.PLP.Chemscore.Metal>
0.0000

> <Gold.Chemscore.Hbonds>
donor molecule, donor type, donor heavy atom, donor atom, acceptor molecule, acceptor atom, score
      P1  H  7989  7998       L1     9  0.77
      P1  H  7997  8010       L1     4  0.94
      L1  C    20    45       P1  8028  0.04
      L1  C    20    45       P1  8029  0.60

> <Gold.PLP.Chemscore.Internal.Correction>
0.3071

> <Gold.Rescore>
     Score         DG    S(hbond)    S(metal)    S(lipo)     H(rot)  DE(clash)    DE(int)     intcor
     12.07     -18.40       1.86        0.00      97.73       1.84       1.79       4.54       ----

> <Gold.Chemscore.Fitness>
12.0651

> <Gold.Chemscore.DG>
-18.3980

> <Gold.Chemscore.ZeroCoef>
-5.4800

> <Gold.Chemscore.Hbond>
1.8583

> <Gold.Chemscore.Metal>
0.0000

> <Gold.Chemscore.Lipo>
97.7284

> <Gold.Chemscore.Internal_Hbond>
0.0000

> <Gold.Chemscore.DEClash>
1.7911

> <Gold.Chemscore.DEInternal>
4.5417

> <Gold.Chemscore.Rot>
1.8449

> <Gold.Chemscore.Internal.Correction>
   9.000000E+99

> <Gold.Chemscore.Hbonds>
donor molecule, donor type, donor heavy atom, donor atom, acceptor molecule, acceptor atom, score
      P1  H  7989  7998       L1     9  0.71
      P1  H  7997  8010       L1     4  0.85

> <Gold.Chemscore.Hbond.Weighted>
-6.2067

> <Gold.Chemscore.Metal.Weighted>
-0.0000

> <Gold.Chemscore.Lipo.Weighted>
-11.4342

> <Gold.Chemscore.Internal_Hbond.Weighted>
0.0000

> <Gold.Chemscore.DEClash.Weighted>
1.7911

> <Gold.Chemscore.DEInternal.Weighted>
4.5417

> <Gold.Chemscore.Rot.Weighted>
4.7229

> <Gold.Chemscore.Internal.Correction.Weighted>
   9.000000E+99

> <Gold.Protein.RotatedTorsions>
[ 6907 6896 6895 6894 ] final -115.02 input  -60.11 | X-H torsion
[ 7974 7965 7964 7962 ] final   64.32 input  175.53 | X-H torsion
[ 8008 7997 7996 7995 ] final   59.17 input   59.86 | X-H torsion
[ 10167 10162 10161 10158 ] final -155.86 input  -65.29 | X-H torsion
[ 10718 10713 10712 10709 ] final   81.14 input   66.30 | X-H torsion
[ 10763 10752 10751 10750 ] final   -8.09 input  -60.55 | X-H torsion
[ 11005 11000 10999 10996 ] final  -95.14 input  -57.11 | X-H torsion

> <Gold.Protein.ActiveResidues>
 VAL166  LYS551  ARG553  GLY616  TRP617  ASP618  TYR619  PRO620  LYS621  CYS622 
 ASP623  PHE694  ASN695  SER759  ASP760  ASP761  ALA762  ILE779  LEU786  VAL792 
 PHE793  MET794  SER795  GLU796  ALA797  LYS798  CYS799  TRP800  GLU811  SER814 

> <Gold.Protein.RotatedAtoms>
  150.7946  133.8717  159.3260 H   0  0  0  0  0  0  0  0  0  0  0  0  # atno 6907 bound_to 6896
  151.6546  135.0995  160.0177 H   0  0  0  0  0  0  0  0  0  0  0  0  # atno 6908 bound_to 6896
  152.4026  133.6801  159.6364 H   0  0  0  0  0  0  0  0  0  0  0  0  # atno 6909 bound_to 6896
  145.8516  139.3257  143.0872 H   0  0  0  0  0  0  0  0  0  0  0  0  # atno 7974 bound_to 7965
  155.5618  140.3488  155.4493 H   0  0  0  0  0  0  0  0  0  0  0  0  # atno 8008 bound_to 7997
  156.0509  140.1317  157.0077 H   0  0  0  0  0  0  0  0  0  0  0  0  # atno 8009 bound_to 7997
  154.4434  140.1005  156.6359 H   0  0  0  0  0  0  0  0  0  0  0  0  # atno 8010 bound_to 7997
  139.6897  143.9442  152.2379 H   0  0  0  0  0  0  0  0  0  0  0  0  # atno 10167 bound_to 10162
  157.6825  130.9990  150.2182 H   0  0  0  0  0  0  0  0  0  0  0  0  # atno 10718 bound_to 10713
  153.4356  135.7013  153.6202 H   0  0  0  0  0  0  0  0  0  0  0  0  # atno 10763 bound_to 10752
  153.4599  135.3739  155.2332 H   0  0  0  0  0  0  0  0  0  0  0  0  # atno 10764 bound_to 10752
  154.8726  135.4017  154.3746 H   0  0  0  0  0  0  0  0  0  0  0  0  # atno 10765 bound_to 10752
  141.1450  133.8005  157.0395 H   0  0  0  0  0  0  0  0  0  0  0  0  # atno 11005 bound_to 11000
  145.9351  140.9020  143.0336 LP  0  0  0  0  0  0  0  0  0  0  0  0  # atno 17320 bound_to 7965
  144.6729  140.1472  143.7432 LP  0  0  0  0  0  0  0  0  0  0  0  0  # atno 17321 bound_to 7965
  139.9254  144.6774  150.8418 LP  0  0  0  0  0  0  0  0  0  0  0  0  # atno 17342 bound_to 10162
  140.7679  143.3345  151.2338 LP  0  0  0  0  0  0  0  0  0  0  0  0  # atno 17343 bound_to 10162
  156.2839  130.3737  149.7908 LP  0  0  0  0  0  0  0  0  0  0  0  0  # atno 17370 bound_to 10713
  156.5588  130.8374  151.3322 LP  0  0  0  0  0  0  0  0  0  0  0  0  # atno 17371 bound_to 10713
  140.0702  134.9706  157.1454 LP  0  0  0  0  0  0  0  0  0  0  0  0  # atno 17394 bound_to 11000
  140.3722  134.2378  155.7177 LP  0  0  0  0  0  0  0  0  0  0  0  0  # atno 17395 bound_to 11000

$$$$
