AV-unprocessed.smi:287|AV-procd|sdf|2206|dock6
  -GOLD-   2262022 33D 1   1.00000     0.00000
 Structure written by MMmdl.
 55 58  0  0  0  0  0  0  0  0  1 V2000
  152.6000  130.8691  165.1352 C   0  0  0  0  0  0  0  0  0  0  0  0
  151.8668  130.5657  163.8739 C   0  0  0  0  0  0  0  0  0  0  0  0
  150.6564  130.9438  163.3706 C   0  0  0  0  0  0  0  0  0  0  0  0
  150.5121  130.3219  162.0946 C   0  0  0  0  0  0  0  0  0  0  0  0
  149.3158  130.4671  161.1633 C   0  0  2  0  0  0  0  0  0  0  0  0
  148.3277  131.4972  161.7360 C   0  0  0  0  0  0  0  0  0  0  0  0
  148.5717  129.2714  161.0315 O   0  0  0  0  0  0  0  0  0  0  0  0
  149.7336  130.8706  159.7310 C   0  0  0  0  0  0  0  0  0  0  0  0
  148.5956  131.2089  158.8824 N   0  0  0  0  0  0  0  0  0  0  0  0
  148.7604  132.0212  157.8177 C   0  0  0  0  0  0  0  0  0  0  0  0
  149.9135  132.7167  157.6395 N   0  0  0  0  0  0  0  0  0  0  0  0
  150.0530  133.5135  156.5760 C   0  0  0  0  0  0  0  0  0  0  0  0
  149.1825  133.7525  155.5931 N   0  0  0  0  0  0  0  0  0  0  0  0
  148.0220  133.0554  155.7658 C   0  0  0  0  0  0  0  0  0  0  0  0
  147.7367  132.1762  156.8478 C   0  0  0  0  0  0  0  0  0  0  0  0
  146.4623  131.6455  156.7015 N   0  0  0  0  0  0  0  0  0  0  0  0
  146.0231  132.1825  155.5956 C   0  0  0  0  0  0  0  0  0  0  0  0
  146.8944  133.0447  154.9669 N   0  0  0  0  0  0  0  0  0  0  0  0
  146.6557  133.7979  153.6920 C   0  0  2  0  0  0  0  0  0  0  0  0
  145.2856  133.8279  153.4145 O   0  0  0  0  0  0  0  0  0  0  0  0
  145.0131  133.2066  152.1578 C   0  0  1  0  0  0  0  0  0  0  0  0
  143.8043  133.8834  151.4933 C   0  0  0  0  0  0  0  0  0  0  0  0
  143.4266  133.1731  150.3334 O   0  0  0  0  0  0  0  0  0  0  0  0
  146.3223  133.4045  151.3919 C   0  0  2  0  0  0  0  0  0  0  0  0
  146.4701  132.5278  150.2914 O   0  0  0  0  0  0  0  0  0  0  0  0
  147.3681  133.1791  152.4742 C   0  0  2  0  0  0  0  0  0  0  0  0
  147.6938  131.8069  152.6404 O   0  0  0  0  0  0  0  0  0  0  0  0
  151.6663  129.5944  161.9265 C   0  0  0  0  0  0  0  0  0  0  0  0
  152.1875  128.7072  160.8441 C   0  0  0  0  0  0  0  0  0  0  0  0
  152.4931  129.7390  162.9997 O   0  0  0  0  0  0  0  0  0  0  0  0
  146.9912  134.8136  153.9055 H   0  0  0  0  0  0  0  0  0  0  0  0
  144.8356  132.1396  152.3032 H   0  0  0  0  0  0  0  0  0  0  0  0
  146.3863  134.4345  151.0372 H   0  0  0  0  0  0  0  0  0  0  0  0
  148.2881  133.7279  152.2704 H   0  0  0  0  0  0  0  0  0  0  0  0
  152.0525  131.5930  165.7390 H   0  0  0  0  0  0  0  0  0  0  0  0
  153.5843  131.2851  164.9198 H   0  0  0  0  0  0  0  0  0  0  0  0
  152.7354  129.9659  165.7302 H   0  0  0  0  0  0  0  0  0  0  0  0
  149.9521  131.5999  163.8603 H   0  0  0  0  0  0  0  0  0  0  0  0
  148.7939  132.4776  161.8405 H   0  0  0  0  0  0  0  0  0  0  0  0
  147.9699  131.1980  162.7222 H   0  0  0  0  0  0  0  0  0  0  0  0
  147.4567  131.6182  161.0907 H   0  0  0  0  0  0  0  0  0  0  0  0
  147.7951  129.3417  161.5651 H   0  0  0  0  0  0  0  0  0  0  0  0
  150.4539  131.6899  159.7508 H   0  0  0  0  0  0  0  0  0  0  0  0
  150.2378  130.0235  159.2635 H   0  0  0  0  0  0  0  0  0  0  0  0
  147.7209  130.7586  159.1127 H   0  0  0  0  0  0  0  0  0  0  0  0
  150.9964  134.0337  156.5009 H   0  0  0  0  0  0  0  0  0  0  0  0
  145.0399  131.9635  155.2049 H   0  0  0  0  0  0  0  0  0  0  0  0
  142.9630  133.9609  152.1827 H   0  0  0  0  0  0  0  0  0  0  0  0
  144.0643  134.8963  151.1844 H   0  0  0  0  0  0  0  0  0  0  0  0
  142.7163  133.6355  149.9154 H   0  0  0  0  0  0  0  0  0  0  0  0
  147.1276  131.8852  150.5130 H   0  0  0  0  0  0  0  0  0  0  0  0
  148.0906  131.4946  151.8415 H   0  0  0  0  0  0  0  0  0  0  0  0
  151.4959  127.8876  160.6496 H   0  0  0  0  0  0  0  0  0  0  0  0
  153.1505  128.2752  161.1166 H   0  0  0  0  0  0  0  0  0  0  0  0
  152.3213  129.2662  159.9179 H   0  0  0  0  0  0  0  0  0  0  0  0
  1  2  1  0  0  0  0
  1 35  1  0  0  0  0
  1 36  1  0  0  0  0
  1 37  1  0  0  0  0
  2 30  1  0  0  0  0
  2  3  2  0  0  0  0
  3  4  1  0  0  0  0
  3 38  1  0  0  0  0
  4  5  1  0  0  0  0
  4 28  2  0  0  0  0
  5  6  1  0  0  0  0
  5  7  1  0  0  0  0
  5  8  1  0  0  0  0
  6 39  1  0  0  0  0
  6 40  1  0  0  0  0
  6 41  1  0  0  0  0
  7 42  1  0  0  0  0
  8  9  1  0  0  0  0
  8 43  1  0  0  0  0
  8 44  1  0  0  0  0
  9 10  1  0  0  0  0
  9 45  1  0  0  0  0
 10 15  1  0  0  0  0
 10 11  2  0  0  0  0
 11 12  1  0  0  0  0
 12 13  2  0  0  0  0
 12 46  1  0  0  0  0
 13 14  1  0  0  0  0
 14 18  1  0  0  0  0
 14 15  2  0  0  0  0
 15 16  1  0  0  0  0
 16 17  2  0  0  0  0
 17 18  1  0  0  0  0
 17 47  1  0  0  0  0
 18 19  1  0  0  0  0
 19 31  1  0  0  0  0
 19 26  1  0  0  0  0
 19 20  1  0  0  0  0
 20 21  1  0  0  0  0
 21 32  1  0  0  0  0
 21 22  1  0  0  0  0
 21 24  1  0  0  0  0
 22 23  1  0  0  0  0
 22 48  1  0  0  0  0
 22 49  1  0  0  0  0
 23 50  1  0  0  0  0
 24 33  1  0  0  0  0
 24 25  1  0  0  0  0
 24 26  1  0  0  0  0
 25 51  1  0  0  0  0
 26 34  1  0  0  0  0
 26 27  1  0  0  0  0
 27 52  1  0  0  0  0
 28 29  1  0  0  0  0
 28 30  1  0  0  0  0
 29 53  1  0  0  0  0
 29 54  1  0  0  0  0
 29 55  1  0  0  0  0
M  END
> <s_m_source_file>
AV-unprocessed.smi

> <i_m_source_file_index>
287

> <i_lp_mmshare_version>
43012

> <i_f3d_flags>
0

> <s_epik_input>
W0NIM11jMVtjSF1jKGMobzEpW0NIM10pW0NAQF0oW0NIM10pKFtPSF0pW0NIMl1bTkhdYyhuW2NIXW4yKWMoYzIzKW5bY0hdbjNbQ0BASF00T1tDQEhdKFtDSDJdW09IXSlbQ0BASF0oW09IXSlbQ0BIXTRbT0hd

> <s_epik_cmdline>
J2VwaWtfcHl0aG9uJywgJy1waCcsICc3LjAnLCAnLXRuJywgJzgnLCAnLW1hJywgJzIwMCcsICctbWV0YWxfYmluZGluZycsICctaW1hZScsICc8aW5maWxlLm1hZT4nLCAnLW9tYWUnLCAnPG91dGZpbGUubWFlPic=

> <r_lp_tautomer_probability>
1

> <r_epik_Ionization_Penalty>
0.000992612

> <r_epik_Ionization_Penalty_Charging>
0

> <r_epik_Ionization_Penalty_Neutral>
0.000992612

> <r_epik_State_Penalty>
-0

> <r_epik_Charging_Adjusted_Penalty>
0

> <i_epik_Tot_Q>
0

> <i_epik_Tot_abs_Q>
0

> <r_epik_Metal_State_Penalty>
-0

> <b_epik_Metal_Only>
0

> <s_epik_Chemistry_Notes>
This compound contains an acetal/aminal-like group ( X-CH(R)-Y where X, Y are N, S, or O) that may be acid/base labile, releasing an aldehyde.

> <s_lp_Force_Field>
OPLS_2005

> <r_lp_Energy>
49.5285

> <b_lp_Chiralities_Consistent>
1

> <s_lp_Variant>
AV-unprocessed.smi:287-30

> <Gold.Version>
5.8.1

> <Gold.Id.Protein>
6NUR|6NUR_protein|mol2

> <Gold.PLP.Fitness>
45.0514

> <Gold.PLP.PLP>
-31.9534

> <Gold.PLP.part.hbond>
-3.9413

> <Gold.PLP.part.metal>
0.0000

> <Gold.PLP.part.buried>
-6.7624

> <Gold.PLP.part.nonpolar>
-22.5361

> <Gold.PLP.part.repulsive>
0.2406

> <Gold.PLP.ligand.clash>
0.0000

> <Gold.PLP.ligand.torsion>
0.9352

> <Gold.PLP.Chemscore.Hbond>
3.9750

> <Gold.PLP.Chemscore.CHOScore>
0.9824

> <Gold.PLP.Chemscore.Metal>
0.0000

> <Gold.Chemscore.Hbonds>
donor molecule, donor type, donor heavy atom, donor atom, acceptor molecule, acceptor atom, score
      L1  H    23    50       P1 10186  1.00
      L1  H    25    51       P1 10747  0.76
      L1  H    27    52       P1 10747  1.00
      P1  H  6896  6908       L1    11  0.86
      L1  C    17    47       P1 10957  1.00

> <Gold.PLP.Chemscore.Internal.Correction>
0.0961

> <Gold.Rescore>
     Score         DG    S(hbond)    S(metal)    S(lipo)     H(rot)  DE(clash)    DE(int)     intcor
     11.22     -12.10       3.56        0.00      70.21       5.27       0.10       0.78       ----

> <Gold.Chemscore.Fitness>
11.2179

> <Gold.Chemscore.DG>
-12.1032

> <Gold.Chemscore.ZeroCoef>
-5.4800

> <Gold.Chemscore.Hbond>
3.5607

> <Gold.Chemscore.Metal>
0.0000

> <Gold.Chemscore.Lipo>
70.2077

> <Gold.Chemscore.Internal_Hbond>
0.0000

> <Gold.Chemscore.DEClash>
0.1027

> <Gold.Chemscore.DEInternal>
0.7826

> <Gold.Chemscore.Rot>
5.2672

> <Gold.Chemscore.Internal.Correction>
   9.000000E+99

> <Gold.Chemscore.Hbonds>
donor molecule, donor type, donor heavy atom, donor atom, acceptor molecule, acceptor atom, score
      L1  H    23    50       P1 10186  1.00
      L1  H    25    51       P1 10747  0.75
      L1  H    27    52       P1 10747  1.00
      P1  H  6896  6908       L1    11  0.54

> <Gold.Chemscore.Hbond.Weighted>
-11.8929

> <Gold.Chemscore.Metal.Weighted>
-0.0000

> <Gold.Chemscore.Lipo.Weighted>
-8.2143

> <Gold.Chemscore.Internal_Hbond.Weighted>
0.0000

> <Gold.Chemscore.DEClash.Weighted>
0.1027

> <Gold.Chemscore.DEInternal.Weighted>
0.7826

> <Gold.Chemscore.Rot.Weighted>
13.4839

> <Gold.Chemscore.Internal.Correction.Weighted>
   9.000000E+99

> <Gold.Protein.RotatedTorsions>
[ 6907 6896 6895 6894 ] final  101.82 input  -60.11 | X-H torsion
[ 7974 7965 7964 7962 ] final  -29.72 input  175.53 | X-H torsion
[ 8008 7997 7996 7995 ] final   54.72 input   59.86 | X-H torsion
[ 10167 10162 10161 10158 ] final   22.79 input  -65.29 | X-H torsion
[ 10718 10713 10712 10709 ] final -170.58 input   66.30 | X-H torsion
[ 10763 10752 10751 10750 ] final   -7.05 input  -60.55 | X-H torsion
[ 11005 11000 10999 10996 ] final -172.49 input  -57.11 | X-H torsion

> <Gold.Protein.ActiveResidues>
 VAL166  LYS551  ARG553  GLY616  TRP617  ASP618  TYR619  PRO620  LYS621  CYS622 
 ASP623  PHE694  ASN695  SER759  ASP760  ASP761  ALA762  ILE779  LEU786  VAL792 
 PHE793  MET794  SER795  GLU796  ALA797  LYS798  CYS799  TRP800  GLU811  SER814 

> <Gold.Protein.RotatedAtoms>
  152.5339  134.0068  159.7919 H   0  0  0  0  0  0  0  0  0  0  0  0  # atno 6907 bound_to 6896
  151.0277  133.5811  159.2671 H   0  0  0  0  0  0  0  0  0  0  0  0  # atno 6908 bound_to 6896
  151.2827  135.0725  159.9229 H   0  0  0  0  0  0  0  0  0  0  0  0  # atno 6909 bound_to 6896
  146.1196  140.5448  142.8741 H   0  0  0  0  0  0  0  0  0  0  0  0  # atno 7974 bound_to 7965
  155.4893  140.3471  155.4352 H   0  0  0  0  0  0  0  0  0  0  0  0  # atno 8008 bound_to 7997
  156.0988  140.1430  156.9524 H   0  0  0  0  0  0  0  0  0  0  0  0  # atno 8009 bound_to 7997
  154.4680  140.0910  156.7049 H   0  0  0  0  0  0  0  0  0  0  0  0  # atno 8010 bound_to 7997
  140.5320  143.9824  150.6471 H   0  0  0  0  0  0  0  0  0  0  0  0  # atno 10167 bound_to 10162
  156.7283  130.9296  151.3102 H   0  0  0  0  0  0  0  0  0  0  0  0  # atno 10718 bound_to 10713
  153.4208  135.7010  153.6295 H   0  0  0  0  0  0  0  0  0  0  0  0  # atno 10763 bound_to 10752
  153.4750  135.3706  155.2412 H   0  0  0  0  0  0  0  0  0  0  0  0  # atno 10764 bound_to 10752
  154.8722  135.4052  154.3576 H   0  0  0  0  0  0  0  0  0  0  0  0  # atno 10765 bound_to 10752
  140.4964  134.5935  157.4973 H   0  0  0  0  0  0  0  0  0  0  0  0  # atno 11005 bound_to 11000
  144.7585  140.5365  143.6752 LP  0  0  0  0  0  0  0  0  0  0  0  0  # atno 17320 bound_to 7965
  145.5494  139.1476  143.3402 LP  0  0  0  0  0  0  0  0  0  0  0  0  # atno 17321 bound_to 7965
  140.3202  143.3142  152.0792 LP  0  0  0  0  0  0  0  0  0  0  0  0  # atno 17342 bound_to 10162
  139.4958  144.6579  151.6532 LP  0  0  0  0  0  0  0  0  0  0  0  0  # atno 17343 bound_to 10162
  157.6869  130.9195  150.0411 LP  0  0  0  0  0  0  0  0  0  0  0  0  # atno 17370 bound_to 10713
  156.1546  130.3643  149.9387 LP  0  0  0  0  0  0  0  0  0  0  0  0  # atno 17371 bound_to 10713
  139.9739  134.7248  155.9988 LP  0  0  0  0  0  0  0  0  0  0  0  0  # atno 17394 bound_to 11000
  141.1458  133.6556  156.3863 LP  0  0  0  0  0  0  0  0  0  0  0  0  # atno 17395 bound_to 11000

$$$$
