AV-unprocessed.smi:159|AV-procd|sdf|1340|dock7
  -GOLD-   2262019 33D 1   1.00000     0.00000
 Structure written by MMmdl.
 28 29  0  0  0  0  0  0  0  0  1 V2000
  155.7496  139.6693  162.5474 N   0  0  0  0  0  0  0  0  0  0  0  0
  154.9412  140.3988  161.7660 C   0  0  0  0  0  0  0  0  0  0  0  0
  154.4270  141.6667  162.2303 C   0  0  0  0  0  0  0  0  0  0  0  0
  153.6209  142.3462  161.3850 C   0  0  0  0  0  0  0  0  0  0  0  0
  153.3005  141.8667  160.1202 N   0  0  0  0  0  0  0  0  0  0  0  0
  152.3840  142.6167  159.1717 C   0  0  2  0  0  0  0  0  0  0  0  0
  153.0480  143.9170  158.6790 C   0  0  0  0  0  0  0  0  0  0  0  0
  152.0044  144.9668  159.0055 C   0  0  0  0  0  0  0  0  0  0  0  0
  151.3130  144.3630  160.2228 C   0  0  1  0  0  0  0  0  0  0  0  0
  149.9197  144.9469  160.4929 C   0  0  0  0  0  0  0  0  0  0  0  0
  149.3584  144.3408  161.6375 O   0  0  0  0  0  0  0  0  0  0  0  0
  151.2136  142.9973  159.8362 O   0  0  0  0  0  0  0  0  0  0  0  0
  153.8079  140.6123  159.7027 C   0  0  0  0  0  0  0  0  0  0  0  0
  153.5316  140.1375  158.6015 O   0  0  0  0  0  0  0  0  0  0  0  0
  154.6236  139.9389  160.5717 N   0  0  0  0  0  0  0  0  0  0  0  0
  152.1389  141.9082  158.3783 H   0  0  0  0  0  0  0  0  0  0  0  0
  151.9608  144.4694  161.0953 H   0  0  0  0  0  0  0  0  0  0  0  0
  156.1064  138.7827  162.2212 H   0  0  0  0  0  0  0  0  0  0  0  0
  156.0014  140.0100  163.4639 H   0  0  0  0  0  0  0  0  0  0  0  0
  154.6568  142.0810  163.2016 H   0  0  0  0  0  0  0  0  0  0  0  0
  153.2320  143.2903  161.7354 H   0  0  0  0  0  0  0  0  0  0  0  0
  153.9675  144.1092  159.2343 H   0  0  0  0  0  0  0  0  0  0  0  0
  153.2805  143.8600  157.6153 H   0  0  0  0  0  0  0  0  0  0  0  0
  152.4362  145.9483  159.2035 H   0  0  0  0  0  0  0  0  0  0  0  0
  151.3012  145.0628  158.1768 H   0  0  0  0  0  0  0  0  0  0  0  0
  149.9931  146.0165  160.6909 H   0  0  0  0  0  0  0  0  0  0  0  0
  149.2619  144.8194  159.6326 H   0  0  0  0  0  0  0  0  0  0  0  0
  148.7106  144.9252  162.0003 H   0  0  0  0  0  0  0  0  0  0  0  0
  1  2  1  0  0  0  0
  1 18  1  0  0  0  0
  1 19  1  0  0  0  0
  2 15  2  0  0  0  0
  2  3  1  0  0  0  0
  3  4  2  0  0  0  0
  3 20  1  0  0  0  0
  4  5  1  0  0  0  0
  4 21  1  0  0  0  0
  5  6  1  0  0  0  0
  5 13  1  0  0  0  0
  6 16  1  0  0  0  0
  6 12  1  0  0  0  0
  6  7  1  0  0  0  0
  7  8  1  0  0  0  0
  7 22  1  0  0  0  0
  7 23  1  0  0  0  0
  8  9  1  0  0  0  0
  8 24  1  0  0  0  0
  8 25  1  0  0  0  0
  9 17  1  0  0  0  0
  9 10  1  0  0  0  0
  9 12  1  0  0  0  0
 10 11  1  0  0  0  0
 10 26  1  0  0  0  0
 10 27  1  0  0  0  0
 11 28  1  0  0  0  0
 13 14  2  0  0  0  0
 13 15  1  0  0  0  0
M  END
> <s_m_source_file>
AV-unprocessed.smi

> <i_m_source_file_index>
159

> <i_lp_mmshare_version>
43012

> <i_f3d_flags>
0

> <s_epik_input>
W05IMl1jMVtjSF1bY0hdbihjKD1PKW4xKVtDQEhdMltDSDJdW0NIMl1bQ0BIXShPMilbQ0gyXVtPSF0=

> <s_epik_cmdline>
J2VwaWtfcHl0aG9uJywgJy1waCcsICc3LjAnLCAnLXRuJywgJzgnLCAnLW1hJywgJzIwMCcsICctbWV0YWxfYmluZGluZycsICctaW1hZScsICc8aW5maWxlLm1hZT4nLCAnLW9tYWUnLCAnPG91dGZpbGUubWFlPic=

> <r_lp_tautomer_probability>
0.99996

> <r_epik_Ionization_Penalty>
0.00126102

> <r_epik_Ionization_Penalty_Charging>
4.46248e-08

> <r_epik_Ionization_Penalty_Neutral>
0.00126097

> <r_epik_State_Penalty>
1.15523e-05

> <r_epik_Charging_Adjusted_Penalty>
1.1597e-05

> <i_epik_Tot_Q>
0

> <i_epik_Tot_abs_Q>
0

> <r_epik_Metal_State_Penalty>
-0

> <b_epik_Metal_Only>
0

> <s_epik_Chemistry_Notes>
This compound contains an acetal/aminal-like group ( X-CH(R)-Y where X, Y are N, S, or O) that may be acid/base labile, releasing an aldehyde.

> <s_lp_Force_Field>
OPLS_2005

> <r_lp_Energy>
23.8013

> <b_lp_Chiralities_Consistent>
1

> <s_lp_Variant>
AV-unprocessed.smi:159-2

> <Gold.Version>
5.8.1

> <Gold.Id.Protein>
6NUR|6NUR_protein|mol2

> <Gold.PLP.Fitness>
41.5749

> <Gold.PLP.PLP>
-37.9304

> <Gold.PLP.part.hbond>
-4.2678

> <Gold.PLP.part.metal>
0.0000

> <Gold.PLP.part.buried>
-3.8003

> <Gold.PLP.part.nonpolar>
-29.9375

> <Gold.PLP.part.repulsive>
0.0129

> <Gold.PLP.ligand.clash>
0.0000

> <Gold.PLP.ligand.torsion>
0.1594

> <Gold.PLP.Chemscore.Hbond>
1.3135

> <Gold.PLP.Chemscore.CHOScore>
0.0000

> <Gold.PLP.Chemscore.Metal>
0.0000

> <Gold.Chemscore.Hbonds>
donor molecule, donor type, donor heavy atom, donor atom, acceptor molecule, acceptor atom, score
      P1  H  6933  6944       L1    11  0.28
      P1  H  7997  8010       L1    14  0.93

> <Gold.PLP.Chemscore.Internal.Correction>
0.0230

> <Gold.Rescore>
     Score         DG    S(hbond)    S(metal)    S(lipo)     H(rot)  DE(clash)    DE(int)     intcor
     12.31     -12.62       1.45        0.00      65.47       2.09       0.02       0.28       ----

> <Gold.Chemscore.Fitness>
12.3141

> <Gold.Chemscore.DG>
-12.6195

> <Gold.Chemscore.ZeroCoef>
-5.4800

> <Gold.Chemscore.Hbond>
1.4486

> <Gold.Chemscore.Metal>
0.0000

> <Gold.Chemscore.Lipo>
65.4732

> <Gold.Chemscore.Internal_Hbond>
0.0000

> <Gold.Chemscore.DEClash>
0.0234

> <Gold.Chemscore.DEInternal>
0.2820

> <Gold.Chemscore.Rot>
2.0935

> <Gold.Chemscore.Internal.Correction>
   9.000000E+99

> <Gold.Chemscore.Hbonds>
donor molecule, donor type, donor heavy atom, donor atom, acceptor molecule, acceptor atom, score
      P1  H  6933  6944       L1    11  0.20
      P1  H  7997  8010       L1    14  0.89

> <Gold.Chemscore.Hbond.Weighted>
-4.8385

> <Gold.Chemscore.Metal.Weighted>
-0.0000

> <Gold.Chemscore.Lipo.Weighted>
-7.6604

> <Gold.Chemscore.Internal_Hbond.Weighted>
0.0000

> <Gold.Chemscore.DEClash.Weighted>
0.0234

> <Gold.Chemscore.DEInternal.Weighted>
0.2820

> <Gold.Chemscore.Rot.Weighted>
5.3594

> <Gold.Chemscore.Internal.Correction.Weighted>
   9.000000E+99

> <Gold.Protein.RotatedTorsions>
[ 6907 6896 6895 6894 ] final -131.67 input  -60.11 | X-H torsion
[ 7974 7965 7964 7962 ] final -149.92 input  175.53 | X-H torsion
[ 8008 7997 7996 7995 ] final   17.21 input   59.86 | X-H torsion
[ 10167 10162 10161 10158 ] final -149.17 input  -65.29 | X-H torsion
[ 10718 10713 10712 10709 ] final -116.33 input   66.30 | X-H torsion
[ 10763 10752 10751 10750 ] final -174.35 input  -60.55 | X-H torsion
[ 11005 11000 10999 10996 ] final -164.60 input  -57.11 | X-H torsion

> <Gold.Protein.ActiveResidues>
 VAL166  LYS551  ARG553  GLY616  TRP617  ASP618  TYR619  PRO620  LYS621  CYS622 
 ASP623  PHE694  ASN695  SER759  ASP760  ASP761  ALA762  ILE779  LEU786  VAL792 
 PHE793  MET794  SER795  GLU796  ALA797  LYS798  CYS799  TRP800  GLU811  SER814 

> <Gold.Protein.RotatedAtoms>
  150.9536  133.6522  159.2767 H   0  0  0  0  0  0  0  0  0  0  0  0  # atno 6907 bound_to 6896
  151.3869  135.0948  159.9523 H   0  0  0  0  0  0  0  0  0  0  0  0  # atno 6908 bound_to 6896
  152.5120  133.9059  159.7519 H   0  0  0  0  0  0  0  0  0  0  0  0  # atno 6909 bound_to 6896
  144.7938  140.5000  143.5754 H   0  0  0  0  0  0  0  0  0  0  0  0  # atno 7974 bound_to 7965
  154.8881  140.2983  155.5386 H   0  0  0  0  0  0  0  0  0  0  0  0  # atno 8008 bound_to 7997
  156.3021  140.2429  156.3827 H   0  0  0  0  0  0  0  0  0  0  0  0  # atno 8009 bound_to 7997
  154.8647  140.0404  157.1676 H   0  0  0  0  0  0  0  0  0  0  0  0  # atno 8010 bound_to 7997
  139.7467  143.8580  152.2576 H   0  0  0  0  0  0  0  0  0  0  0  0  # atno 10167 bound_to 10162
  156.0956  130.6129  150.9022 H   0  0  0  0  0  0  0  0  0  0  0  0  # atno 10718 bound_to 10713
  154.5972  135.2851  155.0573 H   0  0  0  0  0  0  0  0  0  0  0  0  # atno 10763 bound_to 10752
  154.1852  135.6450  153.5048 H   0  0  0  0  0  0  0  0  0  0  0  0  # atno 10764 bound_to 10752
  153.0143  135.5433  154.6678 H   0  0  0  0  0  0  0  0  0  0  0  0  # atno 10765 bound_to 10752
  140.5851  134.5102  157.5184 H   0  0  0  0  0  0  0  0  0  0  0  0  # atno 11005 bound_to 11000
  145.5726  139.1484  143.3280 LP  0  0  0  0  0  0  0  0  0  0  0  0  # atno 17320 bound_to 7965
  146.2199  140.5858  142.9022 LP  0  0  0  0  0  0  0  0  0  0  0  0  # atno 17321 bound_to 7965
  139.8547  144.7147  150.9172 LP  0  0  0  0  0  0  0  0  0  0  0  0  # atno 17342 bound_to 10162
  140.7793  143.3869  151.1378 LP  0  0  0  0  0  0  0  0  0  0  0  0  # atno 17343 bound_to 10162
  157.6116  131.0936  150.8784 LP  0  0  0  0  0  0  0  0  0  0  0  0  # atno 17370 bound_to 10713
  156.8923  130.5217  149.5286 LP  0  0  0  0  0  0  0  0  0  0  0  0  # atno 17371 bound_to 10713
  139.9299  134.7983  156.0959 LP  0  0  0  0  0  0  0  0  0  0  0  0  # atno 17394 bound_to 11000
  141.0971  133.6691  156.2670 LP  0  0  0  0  0  0  0  0  0  0  0  0  # atno 17395 bound_to 11000

$$$$
