AV-unprocessed.smi:1057|AV-procd|sdf|4650|dock5
  -GOLD-   22720 3153D 1   1.00000     0.00000
 Structure written by MMmdl.
 44 45  0  0  0  0  0  0  0  0  1 V2000
  153.9794  133.1835  162.9719 C   0  0  0  0  0  0  0  0  0  0  0  0
  153.7942  134.3861  163.0740 C   0  0  0  0  0  0  0  0  0  0  0  0
  153.5595  135.8332  163.2152 C   0  0  0  0  0  0  0  0  0  0  0  0
  154.2395  136.6156  162.1895 N   0  0  0  0  0  0  0  0  0  0  0  0
  155.1175  137.6095  162.4149 C   0  0  0  0  0  0  0  0  0  0  0  0
  155.4420  137.9667  163.5466 O   0  0  0  0  0  0  0  0  0  0  0  0
  155.7289  138.3307  161.2027 C   0  0  0  0  0  0  0  0  0  0  0  0
  154.7523  138.8297  160.2344 N   0  0  0  0  0  0  0  0  0  0  0  0
  154.2099  140.0561  160.2431 C   0  0  0  0  0  0  0  0  0  0  0  0
  154.4522  140.9030  161.1029 O   0  0  0  0  0  0  0  0  0  0  0  0
  153.4062  140.2367  159.1832 N   0  0  0  0  0  0  0  0  0  0  0  0
  152.7158  141.4210  158.8032 C   0  0  0  0  0  0  0  0  0  0  0  0
  152.7230  142.5964  159.5918 C   0  0  0  0  0  0  0  0  0  0  0  0
  151.9924  143.7168  159.1553 C   0  0  0  0  0  0  0  0  0  0  0  0
  151.2734  143.6195  157.9499 C   0  0  0  0  0  0  0  0  0  0  0  0
  151.2456  142.5023  157.1941 N   0  0  0  0  0  0  0  0  0  0  0  0
  151.9480  141.4218  157.6115 C   0  0  0  0  0  0  0  0  0  0  0  0
  151.9033  140.2727  156.8052 N   0  0  0  0  0  0  0  0  0  0  0  0
  151.2238  139.1436  157.4333 C   0  0  0  0  0  0  0  0  0  0  0  0
  151.4330  137.8603  156.6110 C   0  0  0  0  0  0  0  0  0  0  0  0
  151.0045  138.0687  155.1489 C   0  0  0  0  0  0  0  0  0  0  0  0
  151.7227  139.2900  154.5510 C   0  0  0  0  0  0  0  0  0  0  0  0
  151.5050  140.5369  155.4252 C   0  0  0  0  0  0  0  0  0  0  0  0
  154.1391  132.1318  162.8891 H   0  0  0  0  0  0  0  0  0  0  0  0
  152.4843  136.0165  163.2055 H   0  0  0  0  0  0  0  0  0  0  0  0
  153.9290  136.1396  164.1940 H   0  0  0  0  0  0  0  0  0  0  0  0
  154.0309  136.3830  161.2295 H   0  0  0  0  0  0  0  0  0  0  0  0
  156.3041  139.1819  161.5674 H   0  0  0  0  0  0  0  0  0  0  0  0
  156.4426  137.6653  160.7139 H   0  0  0  0  0  0  0  0  0  0  0  0
  154.4943  138.2013  159.4878 H   0  0  0  0  0  0  0  0  0  0  0  0
  153.3799  139.4861  158.5086 H   0  0  0  0  0  0  0  0  0  0  0  0
  153.2620  142.6500  160.5255 H   0  0  0  0  0  0  0  0  0  0  0  0
  151.9791  144.6283  159.7342 H   0  0  0  0  0  0  0  0  0  0  0  0
  150.7011  144.4593  157.5851 H   0  0  0  0  0  0  0  0  0  0  0  0
  151.6023  139.0027  158.4468 H   0  0  0  0  0  0  0  0  0  0  0  0
  150.1583  139.3620  157.5167 H   0  0  0  0  0  0  0  0  0  0  0  0
  152.4850  137.5737  156.6452 H   0  0  0  0  0  0  0  0  0  0  0  0
  150.8722  137.0368  157.0536 H   0  0  0  0  0  0  0  0  0  0  0  0
  151.2222  137.1769  154.5605 H   0  0  0  0  0  0  0  0  0  0  0  0
  149.9253  138.2191  155.1018 H   0  0  0  0  0  0  0  0  0  0  0  0
  152.7907  139.0831  154.4714 H   0  0  0  0  0  0  0  0  0  0  0  0
  151.3664  139.4768  153.5377 H   0  0  0  0  0  0  0  0  0  0  0  0
  150.4542  140.8290  155.3991 H   0  0  0  0  0  0  0  0  0  0  0  0
  152.0806  141.3746  155.0290 H   0  0  0  0  0  0  0  0  0  0  0  0
  1  2  3  0  0  0  0
  1 24  1  0  0  0  0
  2  3  1  0  0  0  0
  3  4  1  0  0  0  0
  3 25  1  0  0  0  0
  3 26  1  0  0  0  0
  4  5  1  0  0  0  0
  4 27  1  0  0  0  0
  5  6  2  0  0  0  0
  5  7  1  0  0  0  0
  7  8  1  0  0  0  0
  7 28  1  0  0  0  0
  7 29  1  0  0  0  0
  8  9  1  0  0  0  0
  8 30  1  0  0  0  0
  9 10  2  0  0  0  0
  9 11  1  0  0  0  0
 11 12  1  0  0  0  0
 11 31  1  0  0  0  0
 12 17  1  0  0  0  0
 12 13  2  0  0  0  0
 13 14  1  0  0  0  0
 13 32  1  0  0  0  0
 14 15  2  0  0  0  0
 14 33  1  0  0  0  0
 15 16  1  0  0  0  0
 15 34  1  0  0  0  0
 16 17  2  0  0  0  0
 17 18  1  0  0  0  0
 18 23  1  0  0  0  0
 18 19  1  0  0  0  0
 19 20  1  0  0  0  0
 19 35  1  0  0  0  0
 19 36  1  0  0  0  0
 20 21  1  0  0  0  0
 20 37  1  0  0  0  0
 20 38  1  0  0  0  0
 21 22  1  0  0  0  0
 21 39  1  0  0  0  0
 21 40  1  0  0  0  0
 22 23  1  0  0  0  0
 22 41  1  0  0  0  0
 22 42  1  0  0  0  0
 23 43  1  0  0  0  0
 23 44  1  0  0  0  0
M  END
> <s_m_source_file>
AV-unprocessed.smi

> <i_m_source_file_index>
1057

> <i_lp_mmshare_version>
43012

> <i_f3d_flags>
0

> <s_epik_input>
W0NIXSNDW0NIMl1bTkhdQyg9TylbQ0gyXVtOSF1DKD1PKVtOSF1jMVtjSF1bY0hdW2NIXW5jMU4yW0NIMl1bQ0gyXVtDSDJdW0NIMl1bQ0gyXTI=

> <s_epik_cmdline>
J2VwaWtfcHl0aG9uJywgJy1waCcsICc3LjAnLCAnLXRuJywgJzgnLCAnLW1hJywgJzIwMCcsICctbWV0YWxfYmluZGluZycsICctaW1hZScsICc8aW5maWxlLm1hZT4nLCAnLW9tYWUnLCAnPG91dGZpbGUubWFlPic=

> <r_lp_tautomer_probability>
1

> <r_epik_Ionization_Penalty>
0.251144

> <r_epik_Ionization_Penalty_Charging>
0

> <r_epik_Ionization_Penalty_Neutral>
0.251144

> <r_epik_State_Penalty>
0.236346

> <r_epik_Charging_Adjusted_Penalty>
0.236346

> <i_epik_Tot_Q>
0

> <i_epik_Tot_abs_Q>
0

> <r_epik_Metal_State_Penalty>
0.166327

> <b_epik_Metal_Only>
0

> <s_lp_Force_Field>
OPLS_2005

> <r_lp_Energy>
16.5817

> <b_lp_Chiralities_Consistent>
1

> <s_lp_Variant>
AV-unprocessed.smi:1057-1

> <Gold.Version>
5.8.1

> <Gold.Id.Protein>
6NUR|6NUR_protein|mol2

> <Gold.PLP.Fitness>
44.4298

> <Gold.PLP.PLP>
-41.9483

> <Gold.PLP.part.hbond>
-1.3501

> <Gold.PLP.part.metal>
0.0000

> <Gold.PLP.part.buried>
-5.7633

> <Gold.PLP.part.nonpolar>
-34.6371

> <Gold.PLP.part.repulsive>
0.1828

> <Gold.PLP.ligand.clash>
0.0000

> <Gold.PLP.ligand.torsion>
0.5882

> <Gold.PLP.Chemscore.Hbond>
0.1483

> <Gold.PLP.Chemscore.CHOScore>
1.0000

> <Gold.PLP.Chemscore.Metal>
0.0000

> <Gold.Chemscore.Hbonds>
donor molecule, donor type, donor heavy atom, donor atom, acceptor molecule, acceptor atom, score
      L1  C    15    34       P1  8028  0.77

> <Gold.PLP.Chemscore.Internal.Correction>
0.2130

> <Gold.Rescore>
     Score         DG    S(hbond)    S(metal)    S(lipo)     H(rot)  DE(clash)    DE(int)     intcor
     10.60     -12.85       0.00        0.00     102.00       1.79       0.02       2.22       ----

> <Gold.Chemscore.Fitness>
10.6044

> <Gold.Chemscore.DG>
-12.8487

> <Gold.Chemscore.ZeroCoef>
-5.4800

> <Gold.Chemscore.Hbond>
0.0022

> <Gold.Chemscore.Metal>
0.0000

> <Gold.Chemscore.Lipo>
101.9952

> <Gold.Chemscore.Internal_Hbond>
0.0000

> <Gold.Chemscore.DEClash>
0.0215

> <Gold.Chemscore.DEInternal>
2.2228

> <Gold.Chemscore.Rot>
1.7860

> <Gold.Chemscore.Internal.Correction>
   9.000000E+99

> <Gold.Chemscore.Hbond.Weighted>
-0.0073

> <Gold.Chemscore.Metal.Weighted>
-0.0000

> <Gold.Chemscore.Lipo.Weighted>
-11.9334

> <Gold.Chemscore.Internal_Hbond.Weighted>
0.0000

> <Gold.Chemscore.DEClash.Weighted>
0.0215

> <Gold.Chemscore.DEInternal.Weighted>
2.2228

> <Gold.Chemscore.Rot.Weighted>
4.5721

> <Gold.Chemscore.Internal.Correction.Weighted>
   9.000000E+99

> <Gold.Protein.RotatedTorsions>
[ 6907 6896 6895 6894 ] final  123.61 input  -60.11 | X-H torsion
[ 7974 7965 7964 7962 ] final   36.19 input  175.53 | X-H torsion
[ 8008 7997 7996 7995 ] final  -70.83 input   59.86 | X-H torsion
[ 10167 10162 10161 10158 ] final -120.91 input  -65.29 | X-H torsion
[ 10718 10713 10712 10709 ] final   18.37 input   66.30 | X-H torsion
[ 10763 10752 10751 10750 ] final  -12.10 input  -60.55 | X-H torsion
[ 11005 11000 10999 10996 ] final -128.41 input  -57.11 | X-H torsion

> <Gold.Protein.ActiveResidues>
 VAL166  LYS551  ARG553  GLY616  TRP617  ASP618  TYR619  PRO620  LYS621  CYS622 
 ASP623  PHE694  ASN695  SER759  ASP760  ASP761  ALA762  ILE779  LEU786  VAL792 
 PHE793  MET794  SER795  GLU796  ALA797  LYS798  CYS799  TRP800  GLU811  SER814 

> <Gold.Protein.RotatedAtoms>
  152.4147  133.7020  159.6428 H   0  0  0  0  0  0  0  0  0  0  0  0  # atno 6907 bound_to 6896
  150.8025  133.8560  159.3227 H   0  0  0  0  0  0  0  0  0  0  0  0  # atno 6908 bound_to 6896
  151.6293  135.1026  160.0170 H   0  0  0  0  0  0  0  0  0  0  0  0  # atno 6909 bound_to 6896
  146.1229  139.6048  142.9278 H   0  0  0  0  0  0  0  0  0  0  0  0  # atno 7974 bound_to 7965
  154.5042  140.0827  156.7859 H   0  0  0  0  0  0  0  0  0  0  0  0  # atno 8008 bound_to 7997
  155.3933  140.3433  155.4234 H   0  0  0  0  0  0  0  0  0  0  0  0  # atno 8009 bound_to 7997
  156.1494  140.1554  156.8781 H   0  0  0  0  0  0  0  0  0  0  0  0  # atno 8010 bound_to 7997
  140.0308  143.5250  152.2177 H   0  0  0  0  0  0  0  0  0  0  0  0  # atno 10167 bound_to 10162
  157.0954  130.6445  149.5859 H   0  0  0  0  0  0  0  0  0  0  0  0  # atno 10718 bound_to 10713
  153.4935  135.7017  153.5871 H   0  0  0  0  0  0  0  0  0  0  0  0  # atno 10763 bound_to 10752
  153.4033  135.3866  155.2002 H   0  0  0  0  0  0  0  0  0  0  0  0  # atno 10764 bound_to 10752
  154.8715  135.3887  154.4398 H   0  0  0  0  0  0  0  0  0  0  0  0  # atno 10765 bound_to 10752
  140.9518  134.1055  157.4054 H   0  0  0  0  0  0  0  0  0  0  0  0  # atno 11005 bound_to 11000
  145.5428  141.0419  143.2321 LP  0  0  0  0  0  0  0  0  0  0  0  0  # atno 17320 bound_to 7965
  144.7614  139.6948  143.7233 LP  0  0  0  0  0  0  0  0  0  0  0  0  # atno 17321 bound_to 7965
  139.6078  144.7601  151.3022 LP  0  0  0  0  0  0  0  0  0  0  0  0  # atno 17342 bound_to 10162
  140.7303  143.6884  150.7942 LP  0  0  0  0  0  0  0  0  0  0  0  0  # atno 17343 bound_to 10162
  155.9887  130.4932  150.7182 LP  0  0  0  0  0  0  0  0  0  0  0  0  # atno 17370 bound_to 10713
  157.4686  131.0891  151.0667 LP  0  0  0  0  0  0  0  0  0  0  0  0  # atno 17371 bound_to 10713
  139.8850  135.0068  156.6405 LP  0  0  0  0  0  0  0  0  0  0  0  0  # atno 17394 bound_to 11000
  140.7591  133.8832  155.8404 LP  0  0  0  0  0  0  0  0  0  0  0  0  # atno 17395 bound_to 11000

$$$$
