AV-unprocessed.smi:2478|AV-procd|sdf|9763|dock3
  -GOLD-   2272013403D 1   1.00000     0.00000
 Structure written by MMmdl.
 42 43  0  0  0  0  0  0  0  0  1 V2000
  151.2670  144.3456  159.5249 C   0  0  0  0  0  0  0  0  0  0  0  0
  151.6141  143.1083  160.3690 C   0  0  2  0  0  0  0  0  0  0  0  0
  152.4745  143.5048  161.5862 C   0  0  0  0  0  0  0  0  0  0  0  0
  152.8441  142.2863  162.4453 C   0  0  0  0  0  0  0  0  0  0  0  0
  153.5578  141.2180  161.6060 C   0  0  0  0  0  0  0  0  0  0  0  0
  152.7043  140.8058  160.3979 C   0  0  0  0  0  0  0  0  0  0  0  0
  152.3234  142.0226  159.5276 C   0  0  1  0  0  0  0  0  0  0  0  0
  151.4279  141.6068  158.5034 O   0  0  0  0  0  0  0  0  0  0  0  0
  152.0402  140.8756  157.4511 C   0  0  0  0  0  0  0  0  0  0  0  0
  151.0631  140.7952  156.2799 C   0  0  0  0  0  0  0  0  0  0  0  0
  151.3750  140.1549  155.2759 O   0  0  0  0  0  0  0  0  0  0  0  0
  149.8979  141.4490  156.4424 N   0  0  0  0  0  0  0  0  0  0  0  0
  148.8171  141.5747  155.5268 C   0  0  0  0  0  0  0  0  0  0  0  0
  148.8985  141.1886  154.2288 N   0  0  0  0  0  0  0  0  0  0  0  0
  147.8317  141.3519  153.4208 C   0  0  0  0  0  0  0  0  0  0  0  0
  146.6198  141.9146  153.8555 C   0  0  0  0  0  0  0  0  0  0  0  0
  146.5205  142.3184  155.1980 C   0  0  0  0  0  0  0  0  0  0  0  0
  147.6305  142.1400  156.0587 C   0  0  0  0  0  0  0  0  0  0  0  0
  147.6056  142.5279  157.3813 O   0  0  0  0  0  0  0  0  0  0  0  0
  146.4758  143.0906  157.8865 C   0  0  0  0  0  0  0  0  0  0  0  0
  145.5184  142.1430  158.0315 F   0  0  0  0  0  0  0  0  0  0  0  0
  146.7176  143.6206  159.1105 F   0  0  0  0  0  0  0  0  0  0  0  0
  152.1640  144.8074  159.1109 H   0  0  0  0  0  0  0  0  0  0  0  0
  150.7524  145.0972  160.1238 H   0  0  0  0  0  0  0  0  0  0  0  0
  150.6114  144.0883  158.6925 H   0  0  0  0  0  0  0  0  0  0  0  0
  150.6788  142.6892  160.7435 H   0  0  0  0  0  0  0  0  0  0  0  0
  153.3867  143.9985  161.2479 H   0  0  0  0  0  0  0  0  0  0  0  0
  151.9408  144.2322  162.1987 H   0  0  0  0  0  0  0  0  0  0  0  0
  153.4817  142.5942  163.2743 H   0  0  0  0  0  0  0  0  0  0  0  0
  151.9421  141.8626  162.8890 H   0  0  0  0  0  0  0  0  0  0  0  0
  154.5189  141.6027  161.2622 H   0  0  0  0  0  0  0  0  0  0  0  0
  153.7753  140.3449  162.2220 H   0  0  0  0  0  0  0  0  0  0  0  0
  153.2496  140.0675  159.8103 H   0  0  0  0  0  0  0  0  0  0  0  0
  151.7977  140.3103  160.7478 H   0  0  0  0  0  0  0  0  0  0  0  0
  153.2239  142.4584  159.0900 H   0  0  0  0  0  0  0  0  0  0  0  0
  152.9664  141.3654  157.1442 H   0  0  0  0  0  0  0  0  0  0  0  0
  152.2880  139.8618  157.7653 H   0  0  0  0  0  0  0  0  0  0  0  0
  149.7700  141.9186  157.3269 H   0  0  0  0  0  0  0  0  0  0  0  0
  147.9502  141.0290  152.3971 H   0  0  0  0  0  0  0  0  0  0  0  0
  145.7893  142.0366  153.1762 H   0  0  0  0  0  0  0  0  0  0  0  0
  145.6021  142.7629  155.5513 H   0  0  0  0  0  0  0  0  0  0  0  0
  146.0812  143.8649  157.2281 H   0  0  0  0  0  0  0  0  0  0  0  0
  1  2  1  0  0  0  0
  1 23  1  0  0  0  0
  1 24  1  0  0  0  0
  1 25  1  0  0  0  0
  2  7  1  0  0  0  0
  2  3  1  0  0  0  0
  2 26  1  0  0  0  0
  3  4  1  0  0  0  0
  3 27  1  0  0  0  0
  3 28  1  0  0  0  0
  4  5  1  0  0  0  0
  4 29  1  0  0  0  0
  4 30  1  0  0  0  0
  5  6  1  0  0  0  0
  5 31  1  0  0  0  0
  5 32  1  0  0  0  0
  6  7  1  0  0  0  0
  6 33  1  0  0  0  0
  6 34  1  0  0  0  0
  7  8  1  0  0  0  0
  7 35  1  0  0  0  0
  8  9  1  0  0  0  0
  9 10  1  0  0  0  0
  9 36  1  0  0  0  0
  9 37  1  0  0  0  0
 10 11  2  0  0  0  0
 10 12  1  0  0  0  0
 12 13  1  0  0  0  0
 12 38  1  0  0  0  0
 13 18  1  0  0  0  0
 13 14  2  0  0  0  0
 14 15  1  0  0  0  0
 15 16  2  0  0  0  0
 15 39  1  0  0  0  0
 16 17  1  0  0  0  0
 16 40  1  0  0  0  0
 17 18  2  0  0  0  0
 17 41  1  0  0  0  0
 18 19  1  0  0  0  0
 19 20  1  0  0  0  0
 20 21  1  0  0  0  0
 20 22  1  0  0  0  0
 20 42  1  0  0  0  0
M  END
> <s_m_source_file>
AV-unprocessed.smi

> <i_m_source_file_index>
2478

> <i_lp_mmshare_version>
43012

> <i_f3d_flags>
0

> <s_epik_input>
W0NIM11bQ0BASF0xW0NIMl1bQ0gyXVtDSDJdW0NIMl1bQ0BIXTFPW0NIMl1DKD1PKVtOSF1jMm5bY0hdW2NIXVtjSF1jMk9bQ0hdKEYpRg==

> <s_epik_cmdline>
J2VwaWtfcHl0aG9uJywgJy1waCcsICc3LjAnLCAnLXRuJywgJzgnLCAnLW1hJywgJzIwMCcsICctbWV0YWxfYmluZGluZycsICctaW1hZScsICc8aW5maWxlLm1hZT4nLCAnLW9tYWUnLCAnPG91dGZpbGUubWFlPic=

> <r_lp_tautomer_probability>
1

> <r_epik_Ionization_Penalty>
6.06012e-05

> <r_epik_Ionization_Penalty_Charging>
0

> <r_epik_Ionization_Penalty_Neutral>
6.06012e-05

> <r_epik_State_Penalty>
-0

> <r_epik_Charging_Adjusted_Penalty>
0

> <i_epik_Tot_Q>
0

> <i_epik_Tot_abs_Q>
0

> <r_epik_Metal_State_Penalty>
-0

> <b_epik_Metal_Only>
0

> <s_lp_Force_Field>
OPLS_2005

> <r_lp_Energy>
14.0723

> <b_lp_Chiralities_Consistent>
1

> <s_lp_Variant>
AV-unprocessed.smi:2478-1

> <Gold.Version>
5.8.1

> <Gold.Id.Protein>
6NUR|6NUR_protein|mol2

> <Gold.PLP.Fitness>
46.5454

> <Gold.PLP.PLP>
-40.9706

> <Gold.PLP.part.hbond>
-1.0000

> <Gold.PLP.part.metal>
0.0000

> <Gold.PLP.part.buried>
-5.9990

> <Gold.PLP.part.nonpolar>
-34.0487

> <Gold.PLP.part.repulsive>
0.4017

> <Gold.PLP.ligand.clash>
0.0000

> <Gold.PLP.ligand.torsion>
0.2547

> <Gold.PLP.Chemscore.Hbond>
1.0000

> <Gold.PLP.Chemscore.CHOScore>
1.0000

> <Gold.PLP.Chemscore.Metal>
0.0000

> <Gold.Chemscore.Hbonds>
donor molecule, donor type, donor heavy atom, donor atom, acceptor molecule, acceptor atom, score
      P1  H  7989  7998       L1    11  1.00
      L1  C    15    39       P1  7957  1.00

> <Gold.PLP.Chemscore.Internal.Correction>
0.0843

> <Gold.Rescore>
     Score         DG    S(hbond)    S(metal)    S(lipo)     H(rot)  DE(clash)    DE(int)     intcor
     11.79     -15.87       0.84        0.00     105.29       1.85       2.51       1.57       ----

> <Gold.Chemscore.Fitness>
11.7871

> <Gold.Chemscore.DG>
-15.8746

> <Gold.Chemscore.ZeroCoef>
-5.4800

> <Gold.Chemscore.Hbond>
0.8402

> <Gold.Chemscore.Metal>
0.0000

> <Gold.Chemscore.Lipo>
105.2935

> <Gold.Chemscore.Internal_Hbond>
0.0000

> <Gold.Chemscore.DEClash>
2.5127

> <Gold.Chemscore.DEInternal>
1.5749

> <Gold.Chemscore.Rot>
1.8481

> <Gold.Chemscore.Internal.Correction>
   9.000000E+99

> <Gold.Chemscore.Hbonds>
donor molecule, donor type, donor heavy atom, donor atom, acceptor molecule, acceptor atom, score
      P1  H  7989  7998       L1    11  0.96

> <Gold.Chemscore.Hbond.Weighted>
-2.8064

> <Gold.Chemscore.Metal.Weighted>
-0.0000

> <Gold.Chemscore.Lipo.Weighted>
-12.3193

> <Gold.Chemscore.Internal_Hbond.Weighted>
0.0000

> <Gold.Chemscore.DEClash.Weighted>
2.5127

> <Gold.Chemscore.DEInternal.Weighted>
1.5749

> <Gold.Chemscore.Rot.Weighted>
4.7311

> <Gold.Chemscore.Internal.Correction.Weighted>
   9.000000E+99

> <Gold.Protein.RotatedTorsions>
[ 6907 6896 6895 6894 ] final  -58.59 input  -60.11 | X-H torsion
[ 7974 7965 7964 7962 ] final  -87.21 input  175.53 | X-H torsion
[ 8008 7997 7996 7995 ] final  144.03 input   59.86 | X-H torsion
[ 10167 10162 10161 10158 ] final -163.86 input  -65.29 | X-H torsion
[ 10718 10713 10712 10709 ] final  110.70 input   66.30 | X-H torsion
[ 10763 10752 10751 10750 ] final  -13.58 input  -60.55 | X-H torsion
[ 11005 11000 10999 10996 ] final  -27.09 input  -57.11 | X-H torsion

> <Gold.Protein.ActiveResidues>
 VAL166  LYS551  ARG553  GLY616  TRP617  ASP618  TYR619  PRO620  LYS621  CYS622 
 ASP623  PHE694  ASN695  SER759  ASP760  ASP761  ALA762  ILE779  LEU786  VAL792 
 PHE793  MET794  SER795  GLU796  ALA797  LYS798  CYS799  TRP800  GLU811  SER814 

> <Gold.Protein.RotatedAtoms>
  150.7995  134.7078  159.6586 H   0  0  0  0  0  0  0  0  0  0  0  0  # atno 6907 bound_to 6896
  152.4110  134.6120  160.0038 H   0  0  0  0  0  0  0  0  0  0  0  0  # atno 6908 bound_to 6896
  151.6363  133.3292  159.3156 H   0  0  0  0  0  0  0  0  0  0  0  0  # atno 6909 bound_to 6896
  145.4695  140.9560  143.1925 H   0  0  0  0  0  0  0  0  0  0  0  0  # atno 7974 bound_to 7965
  156.2917  140.2246  156.4987 H   0  0  0  0  0  0  0  0  0  0  0  0  # atno 8008 bound_to 7997
  154.7708  140.0467  157.1071 H   0  0  0  0  0  0  0  0  0  0  0  0  # atno 8009 bound_to 7997
  154.9876  140.3086  155.4923 H   0  0  0  0  0  0  0  0  0  0  0  0  # atno 8010 bound_to 7997
  139.6291  144.0474  152.2000 H   0  0  0  0  0  0  0  0  0  0  0  0  # atno 10167 bound_to 10162
  157.6481  131.0937  150.6640 H   0  0  0  0  0  0  0  0  0  0  0  0  # atno 10718 bound_to 10713
  153.5154  135.7016  153.5759 H   0  0  0  0  0  0  0  0  0  0  0  0  # atno 10763 bound_to 10752
  153.3831  135.3915  155.1871 H   0  0  0  0  0  0  0  0  0  0  0  0  # atno 10764 bound_to 10752
  154.8699  135.3840  154.4638 H   0  0  0  0  0  0  0  0  0  0  0  0  # atno 10765 bound_to 10752
  140.9088  133.7475  156.0642 H   0  0  0  0  0  0  0  0  0  0  0  0  # atno 11005 bound_to 11000
  144.7954  139.6245  143.7095 LP  0  0  0  0  0  0  0  0  0  0  0  0  # atno 17320 bound_to 7965
  146.2405  139.5991  142.9495 LP  0  0  0  0  0  0  0  0  0  0  0  0  # atno 17321 bound_to 7965
  140.0135  144.6206  150.7627 LP  0  0  0  0  0  0  0  0  0  0  0  0  # atno 17342 bound_to 10162
  140.7428  143.2838  151.3523 LP  0  0  0  0  0  0  0  0  0  0  0  0  # atno 17343 bound_to 10162
  156.6954  130.4607  149.5588 LP  0  0  0  0  0  0  0  0  0  0  0  0  # atno 17370 bound_to 10713
  156.1832  130.6512  151.0976 LP  0  0  0  0  0  0  0  0  0  0  0  0  # atno 17371 bound_to 10713
  140.8137  134.3370  157.5404 LP  0  0  0  0  0  0  0  0  0  0  0  0  # atno 17394 bound_to 11000
  139.8754  134.9269  156.3411 LP  0  0  0  0  0  0  0  0  0  0  0  0  # atno 17395 bound_to 11000

$$$$
