AV-unprocessed.smi:66|AV-procd|sdf|621|dock2
  -GOLD-   2262016513D 1   1.00000     0.00000
 Structure written by MMmdl.
 28 30  0  0  0  0  0  0  0  0  2 V2000
  151.5706  139.1167  154.4120 O   0  0  0  0  0  0  0  0  0  0  0  0
  151.7788  139.4710  155.5929 C   0  0  0  0  0  0  0  0  0  0  0  0
  152.8399  139.2807  156.2282 O   0  5  0  0  0  0  0  0  0  0  0  0
  150.6279  140.2008  156.3056 C   0  0  2  0  0  0  0  0  0  0  0  0
  149.3657  140.2705  155.4275 C   0  0  0  0  0  0  0  0  0  0  0  0
  149.4604  141.6457  154.7671 C   0  0  1  0  0  0  0  0  0  0  0  0
  148.2032  142.1392  154.3546 O   0  0  0  0  0  0  0  0  0  0  0  0
  150.0934  142.5033  155.8633 C   0  0  0  0  0  0  0  0  0  0  0  0
  150.9686  141.5945  156.5948 N   0  0  0  0  0  0  0  0  0  0  0  0
  151.5958  142.0077  157.7917 C   0  0  0  0  0  0  0  0  0  0  0  0
  152.3528  141.1059  158.4628 N   0  0  0  0  0  0  0  0  0  0  0  0
  152.9545  141.4910  159.5952 C   0  0  0  0  0  0  0  0  0  0  0  0
  152.9270  142.6857  160.2039 N   0  0  0  0  0  0  0  0  0  0  0  0
  152.1784  143.5917  159.5614 C   0  0  0  0  0  0  0  0  0  0  0  0
  151.9669  144.9029  159.9659 N   0  0  0  0  0  0  0  0  0  0  0  0
  151.1633  145.3594  159.0076 C   0  0  0  0  0  0  0  0  0  0  0  0
  150.8427  144.4914  158.0354 N   0  0  0  0  0  0  0  0  0  0  0  0
  151.4865  143.3037  158.3454 C   0  0  0  0  0  0  0  0  0  0  0  0
  150.2301  144.6828  157.2533 H   0  0  0  0  0  0  0  0  0  0  0  0
  150.3848  139.6701  157.2265 H   0  0  0  0  0  0  0  0  0  0  0  0
  149.2874  139.4607  154.7006 H   0  0  0  0  0  0  0  0  0  0  0  0
  148.4833  140.2215  156.0673 H   0  0  0  0  0  0  0  0  0  0  0  0
  150.1275  141.5945  153.9054 H   0  0  0  0  0  0  0  0  0  0  0  0
  148.1371  143.0434  154.6213 H   0  0  0  0  0  0  0  0  0  0  0  0
  150.6435  143.3470  155.4449 H   0  0  0  0  0  0  0  0  0  0  0  0
  149.3307  142.8897  156.5416 H   0  0  0  0  0  0  0  0  0  0  0  0
  153.5465  140.7333  160.0868 H   0  0  0  0  0  0  0  0  0  0  0  0
  150.7865  146.3716  159.0134 H   0  0  0  0  0  0  0  0  0  0  0  0
  1  2  2  0  0  0  0
  2  3  1  0  0  0  0
  2  4  1  0  0  0  0
  4  9  1  0  0  0  0
  4  5  1  0  0  0  0
  4 20  1  0  0  0  0
  5  6  1  0  0  0  0
  5 21  1  0  0  0  0
  5 22  1  0  0  0  0
  6  7  1  0  0  0  0
  6  8  1  0  0  0  0
  6 23  1  0  0  0  0
  7 24  1  0  0  0  0
  8  9  1  0  0  0  0
  8 25  1  0  0  0  0
  8 26  1  0  0  0  0
  9 10  1  0  0  0  0
 10 18  1  0  0  0  0
 10 11  2  0  0  0  0
 11 12  1  0  0  0  0
 12 13  2  0  0  0  0
 12 27  1  0  0  0  0
 13 14  1  0  0  0  0
 14 18  2  0  0  0  0
 14 15  1  0  0  0  0
 15 16  2  0  0  0  0
 16 17  1  0  0  0  0
 16 28  1  0  0  0  0
 17 19  1  0  0  0  0
 17 18  1  0  0  0  0
M  CHG  1   3  -1
M  END
> <s_m_source_file>
AV-unprocessed.smi

> <i_m_source_file_index>
66

> <i_lp_mmshare_version>
43012

> <i_f3d_flags>
0

> <s_epik_input>
Tz1DKFtPSF0pW0NAQEhdMVtDSDJdW0NAQEhdKFtPSF0pW0NIMl1OMWMobltjSF1uMiljKGMyMylbbkhdW2NIXW4z

> <s_epik_cmdline>
J2VwaWtfcHl0aG9uJywgJy1waCcsICc3LjAnLCAnLXRuJywgJzgnLCAnLW1hJywgJzIwMCcsICctbWV0YWxfYmluZGluZycsICctaW1hZScsICc8aW5maWxlLm1hZT4nLCAnLW9tYWUnLCAnPG91dGZpbGUubWFlPic=

> <r_lp_tautomer_probability>
0.0419193

> <r_epik_Ionization_Penalty>
0.0157405

> <r_epik_Ionization_Penalty_Charging>
0.000248217

> <r_epik_Ionization_Penalty_Neutral>
0.0154923

> <r_epik_State_Penalty>
1.99742

> <r_epik_Charging_Adjusted_Penalty>
1.99767

> <i_epik_Tot_Q>
-1

> <i_epik_Tot_abs_Q>
1

> <r_epik_Metal_State_Penalty>
2.31035

> <b_epik_Metal_Only>
0

> <s_lp_Force_Field>
OPLS_2005

> <r_lp_Energy>
19.7315

> <b_lp_Chiralities_Consistent>
1

> <s_lp_Variant>
AV-unprocessed.smi:66-5

> <Gold.Version>
5.8.1

> <Gold.Id.Protein>
6NUR|6NUR_protein|mol2

> <Gold.PLP.Fitness>
46.4128

> <Gold.PLP.PLP>
-31.9234

> <Gold.PLP.part.hbond>
-4.8247

> <Gold.PLP.part.metal>
0.0000

> <Gold.PLP.part.buried>
0.6095

> <Gold.PLP.part.nonpolar>
-26.3236

> <Gold.PLP.part.repulsive>
0.2898

> <Gold.PLP.ligand.clash>
0.0000

> <Gold.PLP.ligand.torsion>
0.1998

> <Gold.PLP.Chemscore.Hbond>
4.9013

> <Gold.PLP.Chemscore.CHOScore>
0.0000

> <Gold.PLP.Chemscore.Metal>
0.0000

> <Gold.Chemscore.Hbonds>
donor molecule, donor type, donor heavy atom, donor atom, acceptor molecule, acceptor atom, score
      L1  H     7    24       P1  8028  0.89
      L1  H    17    19       P1  8028  0.96
      P1  H  7989  7998       L1     1  1.00
      P1  H  7997  8010       L1     3  2.00

> <Gold.PLP.Chemscore.Internal.Correction>
0.1852

> <Gold.Rescore>
     Score         DG    S(hbond)    S(metal)    S(lipo)     H(rot)  DE(clash)    DE(int)     intcor
     11.17     -15.16       2.95        0.00      37.51       1.78       1.53       2.46       ----

> <Gold.Chemscore.Fitness>
11.1652

> <Gold.Chemscore.DG>
-15.1584

> <Gold.Chemscore.ZeroCoef>
-5.4800

> <Gold.Chemscore.Hbond>
2.9513

> <Gold.Chemscore.Metal>
0.0000

> <Gold.Chemscore.Lipo>
37.5091

> <Gold.Chemscore.Internal_Hbond>
0.0000

> <Gold.Chemscore.DEClash>
1.5321

> <Gold.Chemscore.DEInternal>
2.4611

> <Gold.Chemscore.Rot>
1.7842

> <Gold.Chemscore.Internal.Correction>
   9.000000E+99

> <Gold.Chemscore.Hbonds>
donor molecule, donor type, donor heavy atom, donor atom, acceptor molecule, acceptor atom, score
      L1  H     7    24       P1  8028  0.81
      L1  H    17    19       P1  8028  0.32
      P1  H  7989  7998       L1     1  0.29
      P1  H  7997  8010       L1     3  1.00

> <Gold.Chemscore.Hbond.Weighted>
-9.8575

> <Gold.Chemscore.Metal.Weighted>
-0.0000

> <Gold.Chemscore.Lipo.Weighted>
-4.3886

> <Gold.Chemscore.Internal_Hbond.Weighted>
0.0000

> <Gold.Chemscore.DEClash.Weighted>
1.5321

> <Gold.Chemscore.DEInternal.Weighted>
2.4611

> <Gold.Chemscore.Rot.Weighted>
4.5676

> <Gold.Chemscore.Internal.Correction.Weighted>
   9.000000E+99

> <Gold.Protein.RotatedTorsions>
[ 6907 6896 6895 6894 ] final  -58.07 input  -60.11 | X-H torsion
[ 7974 7965 7964 7962 ] final  119.88 input  175.53 | X-H torsion
[ 8008 7997 7996 7995 ] final   85.21 input   59.86 | X-H torsion
[ 10167 10162 10161 10158 ] final   57.99 input  -65.29 | X-H torsion
[ 10718 10713 10712 10709 ] final  -67.67 input   66.30 | X-H torsion
[ 10763 10752 10751 10750 ] final   67.83 input  -60.55 | X-H torsion
[ 11005 11000 10999 10996 ] final  -80.33 input  -57.11 | X-H torsion

> <Gold.Protein.ActiveResidues>
 VAL166  LYS551  ARG553  GLY616  TRP617  ASP618  TYR619  PRO620  LYS621  CYS622 
 ASP623  PHE694  ASN695  SER759  ASP760  ASP761  ALA762  ILE779  LEU786  VAL792 
 PHE793  MET794  SER795  GLU796  ALA797  LYS798  CYS799  TRP800  GLU811  SER814 

> <Gold.Protein.RotatedAtoms>
  150.8036  134.7146  159.6622 H   0  0  0  0  0  0  0  0  0  0  0  0  # atno 6907 bound_to 6896
  152.4154  134.6047  160.0019 H   0  0  0  0  0  0  0  0  0  0  0  0  # atno 6908 bound_to 6896
  151.6278  133.3297  159.3138 H   0  0  0  0  0  0  0  0  0  0  0  0  # atno 6909 bound_to 6896
  145.1378  139.3287  143.4632 H   0  0  0  0  0  0  0  0  0  0  0  0  # atno 7974 bound_to 7965
  155.9470  140.3404  155.6375 H   0  0  0  0  0  0  0  0  0  0  0  0  # atno 8008 bound_to 7997
  155.6968  140.0755  157.2445 H   0  0  0  0  0  0  0  0  0  0  0  0  # atno 8009 bound_to 7997
  154.4114  140.1647  156.2134 H   0  0  0  0  0  0  0  0  0  0  0  0  # atno 8010 bound_to 7997
  140.1920  144.4076  150.6567 H   0  0  0  0  0  0  0  0  0  0  0  0  # atno 10167 bound_to 10162
  156.0545  130.4282  150.1888 H   0  0  0  0  0  0  0  0  0  0  0  0  # atno 10718 bound_to 10713
  153.0205  135.5269  154.7041 H   0  0  0  0  0  0  0  0  0  0  0  0  # atno 10763 bound_to 10752
  154.6142  135.2881  155.0401 H   0  0  0  0  0  0  0  0  0  0  0  0  # atno 10764 bound_to 10752
  154.1412  135.6578  153.4995 H   0  0  0  0  0  0  0  0  0  0  0  0  # atno 10765 bound_to 10752
  141.1668  133.7145  156.8256 H   0  0  0  0  0  0  0  0  0  0  0  0  # atno 11005 bound_to 11000
  146.3508  140.1403  142.8594 LP  0  0  0  0  0  0  0  0  0  0  0  0  # atno 17320 bound_to 7965
  145.0565  140.9056  143.4964 LP  0  0  0  0  0  0  0  0  0  0  0  0  # atno 17321 bound_to 7965
  140.6449  143.2211  151.6208 LP  0  0  0  0  0  0  0  0  0  0  0  0  # atno 17342 bound_to 10162
  139.5252  144.3082  152.1016 LP  0  0  0  0  0  0  0  0  0  0  0  0  # atno 17343 bound_to 10162
  156.9966  130.9909  151.3401 LP  0  0  0  0  0  0  0  0  0  0  0  0  # atno 17370 bound_to 10713
  157.5503  130.8178  149.8137 LP  0  0  0  0  0  0  0  0  0  0  0  0  # atno 17371 bound_to 10713
  140.2088  134.8843  157.3251 LP  0  0  0  0  0  0  0  0  0  0  0  0  # atno 17394 bound_to 11000
  140.2109  134.4140  155.7613 LP  0  0  0  0  0  0  0  0  0  0  0  0  # atno 17395 bound_to 11000

$$$$
