AV-unprocessed.smi:1389|AV-procd|sdf|5649|dock9
  -GOLD-   22720 5273D 1   1.00000     0.00000
 Structure written by MMmdl.
 52 54  0  0  0  0  0  0  0  0  2 V2000
  143.7347  136.2773  152.1667 C   0  0  0  0  0  0  0  0  0  0  0  0
  144.3274  135.8878  150.7904 C   0  0  1  0  0  0  0  0  0  0  0  0
  145.8779  135.9475  150.8380 C   0  0  0  0  0  0  0  0  0  0  0  0
  146.3766  136.5915  152.0484 N   0  0  0  0  0  0  0  0  0  0  0  0
  146.8355  137.8485  152.0984 C   0  0  0  0  0  0  0  0  0  0  0  0
  146.8738  138.5947  151.1201 O   0  0  0  0  0  0  0  0  0  0  0  0
  147.2221  138.1777  153.3424 N   0  0  0  0  0  0  0  0  0  0  0  0
  147.7150  139.4313  153.8030 C   0  0  0  0  0  0  0  0  0  0  0  0
  147.1926  140.6543  153.3154 C   0  0  0  0  0  0  0  0  0  0  0  0
  147.7563  141.8670  153.7471 C   0  0  0  0  0  0  0  0  0  0  0  0
  148.8374  141.8154  154.6422 C   0  0  0  0  0  0  0  0  0  0  0  0
  149.3562  140.6602  155.1039 N   0  0  0  0  0  0  0  0  0  0  0  0
  148.8146  139.4818  154.7080 C   0  0  0  0  0  0  0  0  0  0  0  0
  149.3936  138.3049  155.2369 N   0  0  0  0  0  0  0  0  0  0  0  0
  149.2217  138.0297  156.6606 C   0  0  0  0  0  0  0  0  0  0  0  0
  150.5261  137.3830  157.1387 C   0  0  0  0  0  0  0  0  0  0  0  0
  151.1531  136.8451  155.8564 C   0  0  0  0  0  0  0  0  0  0  0  0
  150.7306  137.8886  154.8264 C   0  0  0  0  0  0  0  0  0  0  0  0
  143.8098  134.5512  150.3419 N   0  3  0  0  0  0  0  0  0  0  0  0
  144.4119  134.0910  149.0590 C   0  0  0  0  0  0  0  0  0  0  0  0
  143.8275  132.7401  148.6149 C   0  0  0  0  0  0  0  0  0  0  0  0
  144.0372  131.7740  149.6320 O   0  0  0  0  0  0  0  0  0  0  0  0
  143.3654  132.1345  150.8283 C   0  0  0  0  0  0  0  0  0  0  0  0
  143.9192  133.4680  151.3597 C   0  0  0  0  0  0  0  0  0  0  0  0
  144.1407  137.2169  152.5404 H   0  0  0  0  0  0  0  0  0  0  0  0
  143.9430  135.5124  152.9155 H   0  0  0  0  0  0  0  0  0  0  0  0
  142.6572  136.4281  152.1299 H   0  0  0  0  0  0  0  0  0  0  0  0
  143.9987  136.6284  150.0593 H   0  0  0  0  0  0  0  0  0  0  0  0
  146.2931  134.9408  150.7611 H   0  0  0  0  0  0  0  0  0  0  0  0
  146.2751  136.5305  150.0072 H   0  0  0  0  0  0  0  0  0  0  0  0
  146.3730  136.0464  152.8983 H   0  0  0  0  0  0  0  0  0  0  0  0
  147.0435  137.4935  154.0631 H   0  0  0  0  0  0  0  0  0  0  0  0
  146.3851  140.6817  152.5998 H   0  0  0  0  0  0  0  0  0  0  0  0
  147.3770  142.8131  153.3902 H   0  0  0  0  0  0  0  0  0  0  0  0
  149.3028  142.7249  154.9921 H   0  0  0  0  0  0  0  0  0  0  0  0
  148.9921  138.9316  157.2298 H   0  0  0  0  0  0  0  0  0  0  0  0
  148.3952  137.3301  156.7851 H   0  0  0  0  0  0  0  0  0  0  0  0
  151.1760  138.1447  157.5714 H   0  0  0  0  0  0  0  0  0  0  0  0
  150.3653  136.6113  157.8918 H   0  0  0  0  0  0  0  0  0  0  0  0
  152.2349  136.7275  155.9240 H   0  0  0  0  0  0  0  0  0  0  0  0
  150.7190  135.8760  155.6069 H   0  0  0  0  0  0  0  0  0  0  0  0
  150.7282  137.4825  153.8145 H   0  0  0  0  0  0  0  0  0  0  0  0
  151.4246  138.7296  154.8580 H   0  0  0  0  0  0  0  0  0  0  0  0
  144.2286  134.8041  148.2581 H   0  0  0  0  0  0  0  0  0  0  0  0
  145.4938  134.0068  149.1727 H   0  0  0  0  0  0  0  0  0  0  0  0
  142.7637  132.8293  148.3881 H   0  0  0  0  0  0  0  0  0  0  0  0
  144.3188  132.4015  147.7025 H   0  0  0  0  0  0  0  0  0  0  0  0
  142.2904  132.2012  150.6518 H   0  0  0  0  0  0  0  0  0  0  0  0
  143.5159  131.3465  151.5665 H   0  0  0  0  0  0  0  0  0  0  0  0
  144.9623  133.3489  151.6570 H   0  0  0  0  0  0  0  0  0  0  0  0
  143.3482  133.7125  152.2539 H   0  0  0  0  0  0  0  0  0  0  0  0
  142.8216  134.6719  150.1706 H   0  0  0  0  0  0  0  0  0  0  0  0
  1  2  1  0  0  0  0
  1 25  1  0  0  0  0
  1 26  1  0  0  0  0
  1 27  1  0  0  0  0
  2  3  1  0  0  0  0
  2 19  1  0  0  0  0
  2 28  1  0  0  0  0
  3  4  1  0  0  0  0
  3 29  1  0  0  0  0
  3 30  1  0  0  0  0
  4  5  1  0  0  0  0
  4 31  1  0  0  0  0
  5  6  2  0  0  0  0
  5  7  1  0  0  0  0
  7  8  1  0  0  0  0
  7 32  1  0  0  0  0
  8 13  1  0  0  0  0
  8  9  2  0  0  0  0
  9 10  1  0  0  0  0
  9 33  1  0  0  0  0
 10 11  2  0  0  0  0
 10 34  1  0  0  0  0
 11 12  1  0  0  0  0
 11 35  1  0  0  0  0
 12 13  2  0  0  0  0
 13 14  1  0  0  0  0
 14 18  1  0  0  0  0
 14 15  1  0  0  0  0
 15 16  1  0  0  0  0
 15 36  1  0  0  0  0
 15 37  1  0  0  0  0
 16 17  1  0  0  0  0
 16 38  1  0  0  0  0
 16 39  1  0  0  0  0
 17 18  1  0  0  0  0
 17 40  1  0  0  0  0
 17 41  1  0  0  0  0
 18 42  1  0  0  0  0
 18 43  1  0  0  0  0
 19 24  1  0  0  0  0
 19 20  1  0  0  0  0
 19 52  1  0  0  0  0
 20 21  1  0  0  0  0
 20 44  1  0  0  0  0
 20 45  1  0  0  0  0
 21 22  1  0  0  0  0
 21 46  1  0  0  0  0
 21 47  1  0  0  0  0
 22 23  1  0  0  0  0
 23 24  1  0  0  0  0
 23 48  1  0  0  0  0
 23 49  1  0  0  0  0
 24 50  1  0  0  0  0
 24 51  1  0  0  0  0
M  CHG  1  19   1
M  END
> <s_m_source_file>
AV-unprocessed.smi

> <i_m_source_file_index>
1389

> <i_lp_mmshare_version>
43012

> <i_f3d_flags>
0

> <s_epik_input>
W0NIMl0xW0NIMl1PW0NIMl1bQ0gyXU4xW0NASF0oW0NIM10pW0NIMl1bTkhdQyg9TylbTkhdYzJbY0hdW2NIXVtjSF1uYzJOM1tDSDJdW0NIMl1bQ0gyXVtDSDJdMw==

> <s_epik_cmdline>
J2VwaWtfcHl0aG9uJywgJy1waCcsICc3LjAnLCAnLXRuJywgJzgnLCAnLW1hJywgJzIwMCcsICctbWV0YWxfYmluZGluZycsICctaW1hZScsICc8aW5maWxlLm1hZT4nLCAnLW9tYWUnLCAnPG91dGZpbGUubWFlPic=

> <r_lp_tautomer_probability>
1

> <r_epik_Ionization_Penalty>
0.686

> <r_epik_Ionization_Penalty_Charging>
0.602531

> <r_epik_Ionization_Penalty_Neutral>
0.08347

> <r_epik_State_Penalty>
0.679975

> <r_epik_Charging_Adjusted_Penalty>
1.28251

> <i_epik_Tot_Q>
1

> <i_epik_Tot_abs_Q>
1

> <r_epik_Metal_State_Penalty>
0.679055

> <b_epik_Metal_Only>
0

> <s_lp_Force_Field>
OPLS_2005

> <r_lp_Energy>
49.8528

> <b_lp_Chiralities_Consistent>
1

> <s_lp_Variant>
AV-unprocessed.smi:1389-4

> <Gold.Version>
5.8.1

> <Gold.Id.Protein>
6NUR|6NUR_protein|mol2

> <Gold.PLP.Fitness>
45.0194

> <Gold.PLP.PLP>
-36.4134

> <Gold.PLP.part.hbond>
-5.0000

> <Gold.PLP.part.metal>
0.0000

> <Gold.PLP.part.buried>
5.8493

> <Gold.PLP.part.nonpolar>
-36.3852

> <Gold.PLP.part.repulsive>
1.0414

> <Gold.PLP.ligand.clash>
3.1079

> <Gold.PLP.ligand.torsion>
1.3373

> <Gold.PLP.Chemscore.Hbond>
3.6720

> <Gold.PLP.Chemscore.CHOScore>
1.0000

> <Gold.PLP.Chemscore.Metal>
0.0000

> <Gold.Chemscore.Hbonds>
donor molecule, donor type, donor heavy atom, donor atom, acceptor molecule, acceptor atom, score
      L1  H    19    52       P1 10186  2.00
      P1  H  7954  7966       L1     6  1.00
      P1  H 10785 10796       L1    22  0.71
      L1  C    11    35       P1  8028  1.00

> <Gold.PLP.Chemscore.Internal.Correction>
0.3725

> <Gold.Rescore>
     Score         DG    S(hbond)    S(metal)    S(lipo)     H(rot)  DE(clash)    DE(int)     intcor
     13.13     -19.06       1.63        0.00     105.26       1.63       3.59       2.33       ----

> <Gold.Chemscore.Fitness>
13.1329

> <Gold.Chemscore.DG>
-19.0576

> <Gold.Chemscore.ZeroCoef>
-5.4800

> <Gold.Chemscore.Hbond>
1.6278

> <Gold.Chemscore.Metal>
0.0000

> <Gold.Chemscore.Lipo>
105.2589

> <Gold.Chemscore.Internal_Hbond>
0.0000

> <Gold.Chemscore.DEClash>
3.5899

> <Gold.Chemscore.DEInternal>
2.3348

> <Gold.Chemscore.Rot>
1.6307

> <Gold.Chemscore.Internal.Correction>
   9.000000E+99

> <Gold.Chemscore.Hbonds>
donor molecule, donor type, donor heavy atom, donor atom, acceptor molecule, acceptor atom, score
      L1  H    19    52       P1 10186  0.55
      P1  H  7954  7966       L1     6  0.63
      P1  H 10785 10796       L1    22  0.15

> <Gold.Chemscore.Hbond.Weighted>
-5.4369

> <Gold.Chemscore.Metal.Weighted>
-0.0000

> <Gold.Chemscore.Lipo.Weighted>
-12.3153

> <Gold.Chemscore.Internal_Hbond.Weighted>
0.0000

> <Gold.Chemscore.DEClash.Weighted>
3.5899

> <Gold.Chemscore.DEInternal.Weighted>
2.3348

> <Gold.Chemscore.Rot.Weighted>
4.1746

> <Gold.Chemscore.Internal.Correction.Weighted>
   9.000000E+99

> <Gold.Protein.RotatedTorsions>
[ 6907 6896 6895 6894 ] final -168.40 input  -60.11 | X-H torsion
[ 7974 7965 7964 7962 ] final -159.14 input  175.53 | X-H torsion
[ 8008 7997 7996 7995 ] final  131.08 input   59.86 | X-H torsion
[ 10167 10162 10161 10158 ] final    7.69 input  -65.29 | X-H torsion
[ 10718 10713 10712 10709 ] final -145.95 input   66.30 | X-H torsion
[ 10763 10752 10751 10750 ] final  118.41 input  -60.55 | X-H torsion
[ 11005 11000 10999 10996 ] final  -33.70 input  -57.11 | X-H torsion

> <Gold.Protein.ActiveResidues>
 VAL166  LYS551  ARG553  GLY616  TRP617  ASP618  TYR619  PRO620  LYS621  CYS622 
 ASP623  PHE694  ASN695  SER759  ASP760  ASP761  ALA762  ILE779  LEU786  VAL792 
 PHE793  MET794  SER795  GLU796  ALA797  LYS798  CYS799  TRP800  GLU811  SER814 

> <Gold.Protein.RotatedAtoms>
  151.4750  133.3560  159.2829 H   0  0  0  0  0  0  0  0  0  0  0  0  # atno 6907 bound_to 6896
  150.8935  134.8343  159.7321 H   0  0  0  0  0  0  0  0  0  0  0  0  # atno 6908 bound_to 6896
  152.4837  134.4662  159.9673 H   0  0  0  0  0  0  0  0  0  0  0  0  # atno 6909 bound_to 6896
  144.7477  140.3727  143.6072 H   0  0  0  0  0  0  0  0  0  0  0  0  # atno 7974 bound_to 7965
  156.2964  140.2580  156.2866 H   0  0  0  0  0  0  0  0  0  0  0  0  # atno 8008 bound_to 7997
  154.9550  140.0393  157.2181 H   0  0  0  0  0  0  0  0  0  0  0  0  # atno 8009 bound_to 7997
  154.8000  140.2826  155.5933 H   0  0  0  0  0  0  0  0  0  0  0  0  # atno 8010 bound_to 7997
  140.6357  143.7891  150.7356 H   0  0  0  0  0  0  0  0  0  0  0  0  # atno 10167 bound_to 10162
  156.3889  130.7875  151.2075 H   0  0  0  0  0  0  0  0  0  0  0  0  # atno 10718 bound_to 10713
  153.5673  135.3509  155.2823 H   0  0  0  0  0  0  0  0  0  0  0  0  # atno 10763 bound_to 10752
  154.8687  135.4151  154.2764 H   0  0  0  0  0  0  0  0  0  0  0  0  # atno 10764 bound_to 10752
  153.3523  135.7055  153.6848 H   0  0  0  0  0  0  0  0  0  0  0  0  # atno 10765 bound_to 10752
  140.9656  133.7139  156.1440 H   0  0  0  0  0  0  0  0  0  0  0  0  # atno 11005 bound_to 11000
  145.7061  139.1673  143.2565 LP  0  0  0  0  0  0  0  0  0  0  0  0  # atno 17320 bound_to 7965
  146.1381  140.7095  142.9380 LP  0  0  0  0  0  0  0  0  0  0  0  0  # atno 17321 bound_to 7965
  140.1512  143.4356  152.2130 LP  0  0  0  0  0  0  0  0  0  0  0  0  # atno 17342 bound_to 10162
  139.5568  144.7378  151.4271 LP  0  0  0  0  0  0  0  0  0  0  0  0  # atno 17343 bound_to 10162
  157.7497  131.0322  150.4214 LP  0  0  0  0  0  0  0  0  0  0  0  0  # atno 17370 bound_to 10713
  156.4472  130.4004  149.6659 LP  0  0  0  0  0  0  0  0  0  0  0  0  # atno 17371 bound_to 10713
  140.7404  134.4157  157.5555 LP  0  0  0  0  0  0  0  0  0  0  0  0  # atno 17394 bound_to 11000
  139.8893  134.8833  156.2426 LP  0  0  0  0  0  0  0  0  0  0  0  0  # atno 17395 bound_to 11000

$$$$
