AV-unprocessed.smi:1849|AV-procd|sdf|7521|dock5
  -GOLD-   22720 9233D 1   1.00000     0.00000
 Structure written by MMmdl.
 40 41  0  0  0  0  0  0  0  0  1 V2000
  147.2974  142.5264  153.8804 C   0  0  0  0  0  0  0  0  0  0  0  0
  148.2414  141.4679  154.1844 N   0  0  0  0  0  0  0  0  0  0  0  0
  149.4565  141.6205  154.8389 C   0  0  0  0  0  0  0  0  0  0  0  0
  150.0274  140.3725  154.9057 C   0  0  0  0  0  0  0  0  0  0  0  0
  149.1839  139.4461  154.3019 N   0  0  0  0  0  0  0  0  0  0  0  0
  148.1337  140.1556  153.8997 C   0  0  0  0  0  0  0  0  0  0  0  0
  146.9652  139.5708  153.1701 C   0  0  0  0  0  0  0  0  0  0  0  0
  146.4789  138.2567  153.8022 C   0  0  0  0  0  0  0  0  0  0  0  0
  146.6987  137.1209  152.9150 N   0  0  0  0  0  0  0  0  0  0  0  0
  145.7275  136.3542  152.3999 C   0  0  0  0  0  0  0  0  0  0  0  0
  144.5274  136.5230  152.6180 O   0  0  0  0  0  0  0  0  0  0  0  0
  146.2221  135.3802  151.6233 N   0  0  0  0  0  0  0  0  0  0  0  0
  145.4272  134.3779  150.9199 C   0  0  0  0  0  0  0  0  0  0  0  0
  144.2504  133.9013  151.7970 C   0  0  0  0  0  0  0  0  0  0  0  0
  143.4494  132.7853  151.1069 C   0  0  0  0  0  0  0  0  0  0  0  0
  144.3558  131.6086  150.7131 C   0  0  0  0  0  0  0  0  0  0  0  0
  145.5227  132.0801  149.8313 C   0  0  0  0  0  0  0  0  0  0  0  0
  146.3276  133.1927  150.5221 C   0  0  0  0  0  0  0  0  0  0  0  0
  147.7308  143.4976  154.1207 H   0  0  0  0  0  0  0  0  0  0  0  0
  146.3892  142.3895  154.4675 H   0  0  0  0  0  0  0  0  0  0  0  0
  147.0454  142.5072  152.8198 H   0  0  0  0  0  0  0  0  0  0  0  0
  149.8068  142.5795  155.1907 H   0  0  0  0  0  0  0  0  0  0  0  0
  150.9715  140.0726  155.3358 H   0  0  0  0  0  0  0  0  0  0  0  0
  146.1563  140.3025  153.1730 H   0  0  0  0  0  0  0  0  0  0  0  0
  147.2321  139.4199  152.1238 H   0  0  0  0  0  0  0  0  0  0  0  0
  146.9771  138.0828  154.7574 H   0  0  0  0  0  0  0  0  0  0  0  0
  145.4118  138.3205  154.0168 H   0  0  0  0  0  0  0  0  0  0  0  0
  147.6562  136.9037  152.6798 H   0  0  0  0  0  0  0  0  0  0  0  0
  147.2236  135.3265  151.5091 H   0  0  0  0  0  0  0  0  0  0  0  0
  145.0278  134.8207  150.0052 H   0  0  0  0  0  0  0  0  0  0  0  0
  144.6267  133.5370  152.7540 H   0  0  0  0  0  0  0  0  0  0  0  0
  143.5869  134.7362  152.0250 H   0  0  0  0  0  0  0  0  0  0  0  0
  142.6532  132.4373  151.7655 H   0  0  0  0  0  0  0  0  0  0  0  0
  142.9619  133.1841  150.2165 H   0  0  0  0  0  0  0  0  0  0  0  0
  144.7466  131.1307  151.6125 H   0  0  0  0  0  0  0  0  0  0  0  0
  143.7739  130.8508  150.1877 H   0  0  0  0  0  0  0  0  0  0  0  0
  146.1763  131.2390  149.5978 H   0  0  0  0  0  0  0  0  0  0  0  0
  145.1368  132.4455  148.8787 H   0  0  0  0  0  0  0  0  0  0  0  0
  147.1243  133.5336  149.8597 H   0  0  0  0  0  0  0  0  0  0  0  0
  146.8160  132.7850  151.4085 H   0  0  0  0  0  0  0  0  0  0  0  0
  1  2  1  0  0  0  0
  1 19  1  0  0  0  0
  1 20  1  0  0  0  0
  1 21  1  0  0  0  0
  2  6  1  0  0  0  0
  2  3  1  0  0  0  0
  3  4  2  0  0  0  0
  3 22  1  0  0  0  0
  4  5  1  0  0  0  0
  4 23  1  0  0  0  0
  5  6  2  0  0  0  0
  6  7  1  0  0  0  0
  7  8  1  0  0  0  0
  7 24  1  0  0  0  0
  7 25  1  0  0  0  0
  8  9  1  0  0  0  0
  8 26  1  0  0  0  0
  8 27  1  0  0  0  0
  9 10  1  0  0  0  0
  9 28  1  0  0  0  0
 10 11  2  0  0  0  0
 10 12  1  0  0  0  0
 12 13  1  0  0  0  0
 12 29  1  0  0  0  0
 13 18  1  0  0  0  0
 13 14  1  0  0  0  0
 13 30  1  0  0  0  0
 14 15  1  0  0  0  0
 14 31  1  0  0  0  0
 14 32  1  0  0  0  0
 15 16  1  0  0  0  0
 15 33  1  0  0  0  0
 15 34  1  0  0  0  0
 16 17  1  0  0  0  0
 16 35  1  0  0  0  0
 16 36  1  0  0  0  0
 17 18  1  0  0  0  0
 17 37  1  0  0  0  0
 17 38  1  0  0  0  0
 18 39  1  0  0  0  0
 18 40  1  0  0  0  0
M  END
> <s_m_source_file>
AV-unprocessed.smi

> <i_m_source_file_index>
1849

> <i_lp_mmshare_version>
43012

> <i_f3d_flags>
0

> <s_epik_input>
W0NIM11uMVtjSF1bY0hdbmMxW0NIMl1bQ0gyXVtOSF1DKD1PKVtOSF1bQ0hdMltDSDJdW0NIMl1bQ0gyXVtDSDJdW0NIMl0y

> <s_epik_cmdline>
J2VwaWtfcHl0aG9uJywgJy1waCcsICc3LjAnLCAnLXRuJywgJzgnLCAnLW1hJywgJzIwMCcsICctbWV0YWxfYmluZGluZycsICctaW1hZScsICc8aW5maWxlLm1hZT4nLCAnLW9tYWUnLCAnPG91dGZpbGUubWFlPic=

> <r_lp_tautomer_probability>
1

> <r_epik_Ionization_Penalty>
1.48237

> <r_epik_Ionization_Penalty_Charging>
1.48231

> <r_epik_Ionization_Penalty_Neutral>
5.84917e-05

> <r_epik_State_Penalty>
1.57104

> <r_epik_Charging_Adjusted_Penalty>
3.05335

> <i_epik_Tot_Q>
0

> <i_epik_Tot_abs_Q>
0

> <r_epik_Metal_State_Penalty>
0.437242

> <b_epik_Metal_Only>
0

> <s_lp_Force_Field>
OPLS_2005

> <r_lp_Energy>
3.77176

> <b_lp_Chiralities_Consistent>
1

> <s_lp_Variant>
AV-unprocessed.smi:1849-2

> <Gold.Version>
5.8.1

> <Gold.Id.Protein>
6NUR|6NUR_protein|mol2

> <Gold.PLP.Fitness>
44.0670

> <Gold.PLP.PLP>
-36.9005

> <Gold.PLP.part.hbond>
-2.0000

> <Gold.PLP.part.metal>
0.0000

> <Gold.PLP.part.buried>
-4.0701

> <Gold.PLP.part.nonpolar>
-31.2335

> <Gold.PLP.part.repulsive>
0.3691

> <Gold.PLP.ligand.clash>
0.0000

> <Gold.PLP.ligand.torsion>
0.8378

> <Gold.PLP.Chemscore.Hbond>
1.9440

> <Gold.PLP.Chemscore.CHOScore>
1.0000

> <Gold.PLP.Chemscore.Metal>
0.0000

> <Gold.Chemscore.Hbonds>
donor molecule, donor type, donor heavy atom, donor atom, acceptor molecule, acceptor atom, score
      L1  H     9    28       P1  7948  1.00
      L1  H    12    29       P1  7948  0.93
      L1  C     3    22       P1  8028  1.00

> <Gold.PLP.Chemscore.Internal.Correction>
0.0101

> <Gold.Rescore>
     Score         DG    S(hbond)    S(metal)    S(lipo)     H(rot)  DE(clash)    DE(int)     intcor
     13.98     -16.45       1.81        0.00      78.37       1.66       0.03       2.44       ----

> <Gold.Chemscore.Fitness>
13.9786

> <Gold.Chemscore.DG>
-16.4528

> <Gold.Chemscore.ZeroCoef>
-5.4800

> <Gold.Chemscore.Hbond>
1.8104

> <Gold.Chemscore.Metal>
0.0000

> <Gold.Chemscore.Lipo>
78.3695

> <Gold.Chemscore.Internal_Hbond>
0.0000

> <Gold.Chemscore.DEClash>
0.0332

> <Gold.Chemscore.DEInternal>
2.4411

> <Gold.Chemscore.Rot>
1.6575

> <Gold.Chemscore.Internal.Correction>
   9.000000E+99

> <Gold.Chemscore.Hbonds>
donor molecule, donor type, donor heavy atom, donor atom, acceptor molecule, acceptor atom, score
      L1  H     9    28       P1  7948  0.99
      L1  H    12    29       P1  7948  0.84

> <Gold.Chemscore.Hbond.Weighted>
-6.0468

> <Gold.Chemscore.Metal.Weighted>
-0.0000

> <Gold.Chemscore.Lipo.Weighted>
-9.1692

> <Gold.Chemscore.Internal_Hbond.Weighted>
0.0000

> <Gold.Chemscore.DEClash.Weighted>
0.0332

> <Gold.Chemscore.DEInternal.Weighted>
2.4411

> <Gold.Chemscore.Rot.Weighted>
4.2432

> <Gold.Chemscore.Internal.Correction.Weighted>
   9.000000E+99

> <Gold.Protein.RotatedTorsions>
[ 6907 6896 6895 6894 ] final -111.92 input  -60.11 | X-H torsion
[ 7974 7965 7964 7962 ] final  101.52 input  175.53 | X-H torsion
[ 8008 7997 7996 7995 ] final   -1.54 input   59.86 | X-H torsion
[ 10167 10162 10161 10158 ] final  -34.02 input  -65.29 | X-H torsion
[ 10718 10713 10712 10709 ] final   29.87 input   66.30 | X-H torsion
[ 10763 10752 10751 10750 ] final -138.00 input  -60.55 | X-H torsion
[ 11005 11000 10999 10996 ] final   -5.92 input  -57.11 | X-H torsion

> <Gold.Protein.ActiveResidues>
 VAL166  LYS551  ARG553  GLY616  TRP617  ASP618  TYR619  PRO620  LYS621  CYS622 
 ASP623  PHE694  ASN695  SER759  ASP760  ASP761  ALA762  ILE779  LEU786  VAL792 
 PHE793  MET794  SER795  GLU796  ALA797  LYS798  CYS799  TRP800  GLU811  SER814 

> <Gold.Protein.RotatedAtoms>
  150.7723  133.9165  159.3384 H   0  0  0  0  0  0  0  0  0  0  0  0  # atno 6907 bound_to 6896
  151.7048  135.0921  160.0267 H   0  0  0  0  0  0  0  0  0  0  0  0  # atno 6908 bound_to 6896
  152.3745  133.6425  159.6148 H   0  0  0  0  0  0  0  0  0  0  0  0  # atno 6909 bound_to 6896
  145.3713  139.2397  143.3454 H   0  0  0  0  0  0  0  0  0  0  0  0  # atno 7974 bound_to 7965
  154.6457  140.2557  155.7271 H   0  0  0  0  0  0  0  0  0  0  0  0  # atno 8008 bound_to 7997
  156.2551  140.2878  156.0790 H   0  0  0  0  0  0  0  0  0  0  0  0  # atno 8009 bound_to 7997
  155.1528  140.0382  157.2815 H   0  0  0  0  0  0  0  0  0  0  0  0  # atno 8010 bound_to 7997
  140.7193  143.3578  151.2024 H   0  0  0  0  0  0  0  0  0  0  0  0  # atno 10167 bound_to 10162
  157.2523  130.7121  149.6411 H   0  0  0  0  0  0  0  0  0  0  0  0  # atno 10718 bound_to 10713
  154.8648  135.3625  154.5314 H   0  0  0  0  0  0  0  0  0  0  0  0  # atno 10763 bound_to 10752
  153.5940  135.7014  153.5416 H   0  0  0  0  0  0  0  0  0  0  0  0  # atno 10764 bound_to 10752
  153.3349  135.4114  155.1487 H   0  0  0  0  0  0  0  0  0  0  0  0  # atno 10765 bound_to 10752
  140.6964  133.9027  155.8653 H   0  0  0  0  0  0  0  0  0  0  0  0  # atno 11005 bound_to 11000
  146.2884  140.4364  142.8749 LP  0  0  0  0  0  0  0  0  0  0  0  0  # atno 17320 bound_to 7965
  144.8574  140.7091  143.6129 LP  0  0  0  0  0  0  0  0  0  0  0  0  # atno 17321 bound_to 7965
  139.7123  143.9357  152.2952 LP  0  0  0  0  0  0  0  0  0  0  0  0  # atno 17342 bound_to 10162
  139.9086  144.6870  150.8587 LP  0  0  0  0  0  0  0  0  0  0  0  0  # atno 17343 bound_to 10162
  155.9666  130.4424  150.5378 LP  0  0  0  0  0  0  0  0  0  0  0  0  # atno 17370 bound_to 10713
  157.3265  131.0691  151.1893 LP  0  0  0  0  0  0  0  0  0  0  0  0  # atno 17371 bound_to 10713
  141.0200  134.0902  157.4131 LP  0  0  0  0  0  0  0  0  0  0  0  0  # atno 17394 bound_to 11000
  139.8909  135.0115  156.6761 LP  0  0  0  0  0  0  0  0  0  0  0  0  # atno 17395 bound_to 11000

$$$$
