AV-unprocessed.smi:54|AV-procd|sdf|550|dock6
  -GOLD-   2262016443D 1   1.00000     0.00000
 Structure written by MMmdl.
 43 45  0  0  0  0  0  0  0  0  2 V2000
  152.2365  142.9847  160.7604 C   0  0  0  0  0  0  0  0  0  0  0  0
  152.2609  143.6716  159.3848 C   0  0  0  0  0  0  0  0  0  0  0  0
  151.4076  144.9506  159.3852 C   0  0  0  0  0  0  0  0  0  0  0  0
  151.7938  142.7056  158.2867 C   0  0  0  0  0  0  0  0  0  0  0  0
  150.9169  143.0702  157.4995 O   0  0  0  0  0  0  0  0  0  0  0  0
  152.4015  141.4979  158.2810 N   0  0  0  0  0  0  0  0  0  0  0  0
  152.1945  140.4098  157.4249 C   0  0  0  0  0  0  0  0  0  0  0  0
  151.2934  140.4777  156.4701 N   0  0  0  0  0  0  0  0  0  0  0  0
  151.2248  139.3154  155.7279 C   0  0  0  0  0  0  0  0  0  0  0  0
  151.9626  138.1751  155.8837 C   0  0  0  0  0  0  0  0  0  0  0  0
  151.6066  137.2100  154.9492 N   0  0  0  0  0  0  0  0  0  0  0  0
  150.6484  137.8288  154.2597 C   0  0  0  0  0  0  0  0  0  0  0  0
  150.3596  139.0830  154.6661 N   0  0  0  0  0  0  0  0  0  0  0  0
  149.3506  140.0424  154.1066 C   0  0  1  0  0  0  0  0  0  0  0  0
  148.7493  139.4591  152.9890 O   0  0  0  0  0  0  0  0  0  0  0  0
  147.4648  138.9591  153.3421 C   0  0  2  0  0  0  0  0  0  0  0  0
  146.5869  138.7388  152.0980 C   0  0  0  0  0  0  0  0  0  0  0  0
  147.1345  137.7170  151.2924 O   0  0  0  0  0  0  0  0  0  0  0  0
  146.9640  140.0243  154.3253 C   0  0  2  0  0  0  0  0  0  0  0  0
  146.4801  141.1602  153.6322 O   0  0  0  0  0  0  0  0  0  0  0  0
  148.2209  140.3769  155.1123 C   0  0  1  0  0  0  0  0  0  0  0  0
  148.2633  139.6190  156.3092 O   0  0  0  0  0  0  0  0  0  0  0  0
  152.9643  138.1724  156.9764 C   0  0  0  0  0  0  0  0  0  0  0  0
  153.6538  137.1702  157.1545 O   0  0  0  0  0  0  0  0  0  0  0  0
  153.0345  139.3226  157.7132 N   0  5  0  0  0  0  0  0  0  0  0  0
  149.9400  140.9097  153.8064 H   0  0  0  0  0  0  0  0  0  0  0  0
  147.5825  138.0208  153.8875 H   0  0  0  0  0  0  0  0  0  0  0  0
  146.1600  139.6476  154.9593 H   0  0  0  0  0  0  0  0  0  0  0  0
  148.2633  141.4352  155.3739 H   0  0  0  0  0  0  0  0  0  0  0  0
  152.8259  142.0668  160.7561 H   0  0  0  0  0  0  0  0  0  0  0  0
  151.2208  142.7271  161.0630 H   0  0  0  0  0  0  0  0  0  0  0  0
  152.6538  143.6368  161.5281 H   0  0  0  0  0  0  0  0  0  0  0  0
  153.2924  143.9593  159.1742 H   0  0  0  0  0  0  0  0  0  0  0  0
  151.4190  145.4353  158.4081 H   0  0  0  0  0  0  0  0  0  0  0  0
  151.7872  145.6705  160.1105 H   0  0  0  0  0  0  0  0  0  0  0  0
  150.3683  144.7410  159.6418 H   0  0  0  0  0  0  0  0  0  0  0  0
  153.0874  141.3615  159.0087 H   0  0  0  0  0  0  0  0  0  0  0  0
  150.1445  137.3505  153.4330 H   0  0  0  0  0  0  0  0  0  0  0  0
  145.5877  138.4192  152.3960 H   0  0  0  0  0  0  0  0  0  0  0  0
  146.4769  139.6565  151.5195 H   0  0  0  0  0  0  0  0  0  0  0  0
  147.6942  137.1781  151.8301 H   0  0  0  0  0  0  0  0  0  0  0  0
  145.6032  140.9722  153.3336 H   0  0  0  0  0  0  0  0  0  0  0  0
  148.2821  138.7014  156.0804 H   0  0  0  0  0  0  0  0  0  0  0  0
  1  2  1  0  0  0  0
  1 30  1  0  0  0  0
  1 31  1  0  0  0  0
  1 32  1  0  0  0  0
  2  3  1  0  0  0  0
  2  4  1  0  0  0  0
  2 33  1  0  0  0  0
  3 34  1  0  0  0  0
  3 35  1  0  0  0  0
  3 36  1  0  0  0  0
  4  5  2  0  0  0  0
  4  6  1  0  0  0  0
  6 37  1  0  0  0  0
  6  7  1  0  0  0  0
  7 25  1  0  0  0  0
  7  8  2  0  0  0  0
  8  9  1  0  0  0  0
  9 13  1  0  0  0  0
  9 10  2  0  0  0  0
 10 11  1  0  0  0  0
 10 23  1  0  0  0  0
 11 12  2  0  0  0  0
 12 13  1  0  0  0  0
 12 38  1  0  0  0  0
 13 14  1  0  0  0  0
 14 26  1  0  0  0  0
 14 21  1  0  0  0  0
 14 15  1  0  0  0  0
 15 16  1  0  0  0  0
 16 27  1  0  0  0  0
 16 17  1  0  0  0  0
 16 19  1  0  0  0  0
 17 18  1  0  0  0  0
 17 39  1  0  0  0  0
 17 40  1  0  0  0  0
 18 41  1  0  0  0  0
 19 28  1  0  0  0  0
 19 20  1  0  0  0  0
 19 21  1  0  0  0  0
 20 42  1  0  0  0  0
 21 29  1  0  0  0  0
 21 22  1  0  0  0  0
 22 43  1  0  0  0  0
 23 24  2  0  0  0  0
 23 25  1  0  0  0  0
M  CHG  1  25  -1
M  END
> <s_m_source_file>
AV-unprocessed.smi

> <i_m_source_file_index>
54

> <i_lp_mmshare_version>
43012

> <i_f3d_flags>
0

> <s_epik_input>
W0NIM11bQ0hdKFtDSDNdKUMoPU8pW05IXWMobjEpW25IXWMoPU8pYyhjMTIpbltjSF1uMltDQEBIXTNPW0NASF0oW0NIMl1bT0hdKVtDQEBIXShbT0hdKVtDQEhdM1tPSF0=

> <s_epik_cmdline>
J2VwaWtfcHl0aG9uJywgJy1waCcsICc3LjAnLCAnLXRuJywgJzgnLCAnLW1hJywgJzIwMCcsICctbWV0YWxfYmluZGluZycsICctaW1hZScsICc8aW5maWxlLm1hZT4nLCAnLW9tYWUnLCAnPG91dGZpbGUubWFlPic=

> <r_lp_tautomer_probability>
0.85571

> <r_epik_Ionization_Penalty>
1.75936

> <r_epik_Ionization_Penalty_Charging>
4.55893e-11

> <r_epik_Ionization_Penalty_Neutral>
1.75936

> <r_epik_State_Penalty>
1.72072

> <r_epik_Charging_Adjusted_Penalty>
1.72072

> <i_epik_Tot_Q>
-1

> <i_epik_Tot_abs_Q>
1

> <r_epik_Metal_State_Penalty>
0.400338

> <b_epik_Metal_Only>
1

> <s_epik_Chemistry_Notes>
This compound contains an acetal/aminal-like group ( X-CH(R)-Y where X, Y are N, S, or O) that may be acid/base labile, releasing an aldehyde.

> <s_lp_Force_Field>
OPLS_2005

> <r_lp_Energy>
59.3573

> <b_lp_Chiralities_Consistent>
1

> <s_lp_Variant>
AV-unprocessed.smi:54-22

> <Gold.Version>
5.8.1

> <Gold.Id.Protein>
6NUR|6NUR_protein|mol2

> <Gold.PLP.Fitness>
53.1146

> <Gold.PLP.PLP>
-34.0809

> <Gold.PLP.part.hbond>
-4.1753

> <Gold.PLP.part.metal>
0.0000

> <Gold.PLP.part.buried>
-4.3998

> <Gold.PLP.part.nonpolar>
-33.1616

> <Gold.PLP.part.repulsive>
6.8921

> <Gold.PLP.ligand.clash>
0.0000

> <Gold.PLP.ligand.torsion>
0.1653

> <Gold.PLP.Chemscore.Hbond>
5.3595

> <Gold.PLP.Chemscore.CHOScore>
1.0640

> <Gold.PLP.Chemscore.Metal>
0.0000

> <Gold.Chemscore.Hbonds>
donor molecule, donor type, donor heavy atom, donor atom, acceptor molecule, acceptor atom, score
      L1  H    18    41       P1  7948  0.88
      L1  H    20    42       P1 10175  0.70
      P1  H  7954  7966       L1    18  0.95
      P1  H  7997  8009       L1    25  2.00
      P1  H 10752 10765       L1    11  0.80
      L1  C    12    38       P1  7948  0.96
      L1  C    12    38       P1  7949  0.11

> <Gold.PLP.Chemscore.Internal.Correction>
0.0938

> <Gold.Rescore>
     Score         DG    S(hbond)    S(metal)    S(lipo)     H(rot)  DE(clash)    DE(int)     intcor
      8.16     -12.50       3.05        0.00      60.89       4.02       2.09       2.25       ----

> <Gold.Chemscore.Fitness>
8.1587

> <Gold.Chemscore.DG>
-12.5012

> <Gold.Chemscore.ZeroCoef>
-5.4800

> <Gold.Chemscore.Hbond>
3.0500

> <Gold.Chemscore.Metal>
0.0000

> <Gold.Chemscore.Lipo>
60.8858

> <Gold.Chemscore.Internal_Hbond>
0.0000

> <Gold.Chemscore.DEClash>
2.0920

> <Gold.Chemscore.DEInternal>
2.2506

> <Gold.Chemscore.Rot>
4.0192

> <Gold.Chemscore.Internal.Correction>
   9.000000E+99

> <Gold.Chemscore.Hbonds>
donor molecule, donor type, donor heavy atom, donor atom, acceptor molecule, acceptor atom, score
      L1  H    18    41       P1  7948  0.82
      L1  H    20    42       P1 10175  0.38
      P1  H  7954  7966       L1    18  0.22
      P1  H  7997  8009       L1    25  0.07
      P1  H 10752 10765       L1    11  0.75

> <Gold.Chemscore.Hbond.Weighted>
-10.1869

> <Gold.Chemscore.Metal.Weighted>
-0.0000

> <Gold.Chemscore.Lipo.Weighted>
-7.1236

> <Gold.Chemscore.Internal_Hbond.Weighted>
0.0000

> <Gold.Chemscore.DEClash.Weighted>
2.0920

> <Gold.Chemscore.DEInternal.Weighted>
2.2506

> <Gold.Chemscore.Rot.Weighted>
10.2893

> <Gold.Chemscore.Internal.Correction.Weighted>
   9.000000E+99

> <Gold.Protein.RotatedTorsions>
[ 6907 6896 6895 6894 ] final -171.73 input  -60.11 | X-H torsion
[ 7974 7965 7964 7962 ] final   61.34 input  175.53 | X-H torsion
[ 8008 7997 7996 7995 ] final  146.07 input   59.86 | X-H torsion
[ 10167 10162 10161 10158 ] final  -81.77 input  -65.29 | X-H torsion
[ 10718 10713 10712 10709 ] final -177.18 input   66.30 | X-H torsion
[ 10763 10752 10751 10750 ] final  175.73 input  -60.55 | X-H torsion
[ 11005 11000 10999 10996 ] final  141.55 input  -57.11 | X-H torsion

> <Gold.Protein.ActiveResidues>
 VAL166  LYS551  ARG553  GLY616  TRP617  ASP618  TYR619  PRO620  LYS621  CYS622 
 ASP623  PHE694  ASN695  SER759  ASP760  ASP761  ALA762  ILE779  LEU786  VAL792 
 PHE793  MET794  SER795  GLU796  ALA797  LYS798  CYS799  TRP800  GLU811  SER814 

> <Gold.Protein.RotatedAtoms>
  151.5286  133.3453  159.2913 H   0  0  0  0  0  0  0  0  0  0  0  0  # atno 6907 bound_to 6896
  150.8608  134.7961  159.7092 H   0  0  0  0  0  0  0  0  0  0  0  0  # atno 6908 bound_to 6896
  152.4628  134.5154  159.9818 H   0  0  0  0  0  0  0  0  0  0  0  0  # atno 6909 bound_to 6896
  145.8859  139.3476  143.0678 H   0  0  0  0  0  0  0  0  0  0  0  0  # atno 7974 bound_to 7965
  156.2866  140.2192  156.5317 H   0  0  0  0  0  0  0  0  0  0  0  0  # atno 8008 bound_to 7997
  154.7443  140.0485  157.0861 H   0  0  0  0  0  0  0  0  0  0  0  0  # atno 8009 bound_to 7997
  155.0190  140.3122  155.4804 H   0  0  0  0  0  0  0  0  0  0  0  0  # atno 8010 bound_to 7997
  140.4382  143.2524  151.8664 H   0  0  0  0  0  0  0  0  0  0  0  0  # atno 10167 bound_to 10162
  156.8256  130.9635  151.3109 H   0  0  0  0  0  0  0  0  0  0  0  0  # atno 10718 bound_to 10713
  154.4716  135.2771  155.1638 H   0  0  0  0  0  0  0  0  0  0  0  0  # atno 10763 bound_to 10752
  154.3385  135.6175  153.5588 H   0  0  0  0  0  0  0  0  0  0  0  0  # atno 10764 bound_to 10752
  152.9865  135.5783  154.5098 H   0  0  0  0  0  0  0  0  0  0  0  0  # atno 10765 bound_to 10752
  140.0410  134.9305  157.0843 H   0  0  0  0  0  0  0  0  0  0  0  0  # atno 11005 bound_to 11000
  145.8968  140.9269  143.0524 LP  0  0  0  0  0  0  0  0  0  0  0  0  # atno 17320 bound_to 7965
  144.6728  140.0979  143.7462 LP  0  0  0  0  0  0  0  0  0  0  0  0  # atno 17321 bound_to 7965
  139.4788  144.5259  151.8735 LP  0  0  0  0  0  0  0  0  0  0  0  0  # atno 17342 bound_to 10162
  140.4349  144.2065  150.5889 LP  0  0  0  0  0  0  0  0  0  0  0  0  # atno 17343 bound_to 10162
  157.6434  130.8824  149.9491 LP  0  0  0  0  0  0  0  0  0  0  0  0  # atno 17370 bound_to 10713
  156.0963  130.3659  150.0300 LP  0  0  0  0  0  0  0  0  0  0  0  0  # atno 17371 bound_to 10713
  140.4069  134.2022  155.7163 LP  0  0  0  0  0  0  0  0  0  0  0  0  # atno 17394 bound_to 11000
  141.1883  133.8263  157.1000 LP  0  0  0  0  0  0  0  0  0  0  0  0  # atno 17395 bound_to 11000

$$$$
