AV-unprocessed.smi:2446|AV-procd|sdf|9643|dock1
  -GOLD-   2272013273D 1   1.00000     0.00000
 Structure written by MMmdl.
 39 40  0  0  0  0  0  0  0  0  1 V2000
  147.6811  133.0807  152.2817 C   0  0  0  0  0  0  0  0  0  0  0  0
  146.2009  133.3450  152.0641 C   0  0  0  0  0  0  0  0  0  0  0  0
  145.3395  132.2824  151.7166 C   0  0  0  0  0  0  0  0  0  0  0  0
  144.0152  132.4327  151.5091 N   0  0  0  0  0  0  0  0  0  0  0  0
  143.4933  133.6684  151.6490 C   0  0  0  0  0  0  0  0  0  0  0  0
  144.2590  134.7996  151.9920 C   0  0  0  0  0  0  0  0  0  0  0  0
  145.6518  134.6438  152.1947 C   0  0  0  0  0  0  0  0  0  0  0  0
  146.5172  135.7124  152.5606 N   0  0  0  0  0  0  0  0  0  0  0  0
  146.2540  136.8175  153.2858 C   0  0  0  0  0  0  0  0  0  0  0  0
  145.1681  137.0816  153.7972 O   0  0  0  0  0  0  0  0  0  0  0  0
  147.2986  137.6583  153.4037 N   0  0  0  0  0  0  0  0  0  0  0  0
  147.3625  138.9377  154.1148 C   0  0  2  0  0  0  0  0  0  0  0  0
  147.1575  140.0903  153.1157 C   0  0  0  0  0  0  0  0  0  0  0  0
  147.2754  141.4565  153.8080 C   0  0  0  0  0  0  0  0  0  0  0  0
  148.6188  141.5973  154.5411 C   0  0  0  0  0  0  0  0  0  0  0  0
  148.8344  140.4547  155.5558 C   0  0  2  0  0  0  0  0  0  0  0  0
  150.1706  140.5951  156.3135 C   0  0  0  0  0  0  0  0  0  0  0  0
  151.1998  140.2920  155.5218 F   0  0  0  0  0  0  0  0  0  0  0  0
  150.3175  141.8452  156.7521 F   0  0  0  0  0  0  0  0  0  0  0  0
  150.1837  139.7801  157.3686 F   0  0  0  0  0  0  0  0  0  0  0  0
  148.7131  139.0889  154.8473 C   0  0  0  0  0  0  0  0  0  0  0  0
  147.9168  132.0231  152.1591 H   0  0  0  0  0  0  0  0  0  0  0  0
  147.9781  133.3775  153.2880 H   0  0  0  0  0  0  0  0  0  0  0  0
  148.2780  133.6444  151.5643 H   0  0  0  0  0  0  0  0  0  0  0  0
  145.7222  131.2787  151.6026 H   0  0  0  0  0  0  0  0  0  0  0  0
  142.4290  133.7589  151.4884 H   0  0  0  0  0  0  0  0  0  0  0  0
  143.7622  135.7506  152.1031 H   0  0  0  0  0  0  0  0  0  0  0  0
  147.4397  135.6714  152.1532 H   0  0  0  0  0  0  0  0  0  0  0  0
  148.1531  137.3715  152.9483 H   0  0  0  0  0  0  0  0  0  0  0  0
  146.5526  138.9887  154.8450 H   0  0  0  0  0  0  0  0  0  0  0  0
  147.8970  140.0257  152.3160 H   0  0  0  0  0  0  0  0  0  0  0  0
  146.1795  140.0038  152.6405 H   0  0  0  0  0  0  0  0  0  0  0  0
  147.1686  142.2548  153.0730 H   0  0  0  0  0  0  0  0  0  0  0  0
  146.4565  141.5787  154.5179 H   0  0  0  0  0  0  0  0  0  0  0  0
  149.4303  141.6036  153.8125 H   0  0  0  0  0  0  0  0  0  0  0  0
  148.6532  142.5617  155.0483 H   0  0  0  0  0  0  0  0  0  0  0  0
  148.0349  140.5145  156.2962 H   0  0  0  0  0  0  0  0  0  0  0  0
  148.8308  138.2882  155.5773 H   0  0  0  0  0  0  0  0  0  0  0  0
  149.5309  138.9726  154.1346 H   0  0  0  0  0  0  0  0  0  0  0  0
  1  2  1  0  0  0  0
  1 22  1  0  0  0  0
  1 23  1  0  0  0  0
  1 24  1  0  0  0  0
  2  7  1  0  0  0  0
  2  3  2  0  0  0  0
  3  4  1  0  0  0  0
  3 25  1  0  0  0  0
  4  5  2  0  0  0  0
  5  6  1  0  0  0  0
  5 26  1  0  0  0  0
  6  7  2  0  0  0  0
  6 27  1  0  0  0  0
  7  8  1  0  0  0  0
  8  9  1  0  0  0  0
  8 28  1  0  0  0  0
  9 10  2  0  0  0  0
  9 11  1  0  0  0  0
 11 12  1  0  0  0  0
 11 29  1  0  0  0  0
 12 21  1  0  0  0  0
 12 13  1  0  0  0  0
 12 30  1  0  0  0  0
 13 14  1  0  0  0  0
 13 31  1  0  0  0  0
 13 32  1  0  0  0  0
 14 15  1  0  0  0  0
 14 33  1  0  0  0  0
 14 34  1  0  0  0  0
 15 16  1  0  0  0  0
 15 35  1  0  0  0  0
 15 36  1  0  0  0  0
 16 17  1  0  0  0  0
 16 21  1  0  0  0  0
 16 37  1  0  0  0  0
 17 18  1  0  0  0  0
 17 19  1  0  0  0  0
 17 20  1  0  0  0  0
 21 38  1  0  0  0  0
 21 39  1  0  0  0  0
M  END
> <s_m_source_file>
AV-unprocessed.smi

> <i_m_source_file_index>
2446

> <i_lp_mmshare_version>
43012

> <i_f3d_flags>
0

> <s_epik_input>
W0NIM11jMVtjSF1uW2NIXVtjSF1jMVtOSF1DKD1PKVtOSF1bQ0BASF0yW0NIMl1bQ0gyXVtDSDJdW0NAQEhdKEMoRikoRilGKVtDSDJdMg==

> <s_epik_cmdline>
J2VwaWtfcHl0aG9uJywgJy1waCcsICc3LjAnLCAnLXRuJywgJzgnLCAnLW1hJywgJzIwMCcsICctbWV0YWxfYmluZGluZycsICctaW1hZScsICc8aW5maWxlLm1hZT4nLCAnLW9tYWUnLCAnPG91dGZpbGUubWFlPic=

> <r_epik_Ionization_Penalty>
0.20168

> <r_epik_Ionization_Penalty_Charging>
0

> <r_epik_Ionization_Penalty_Neutral>
0.20168

> <r_epik_State_Penalty>
0.191514

> <r_epik_Charging_Adjusted_Penalty>
0.191514

> <i_epik_Tot_Q>
0

> <i_epik_Tot_abs_Q>
0

> <r_epik_Metal_State_Penalty>
0.142371

> <b_epik_Metal_Only>
0

> <s_lp_Force_Field>
OPLS_2005

> <r_lp_Energy>
26.2068

> <b_lp_Chiralities_Consistent>
1

> <s_lp_Variant>
AV-unprocessed.smi:2446-3

> <Gold.Version>
5.8.1

> <Gold.Id.Protein>
6NUR|6NUR_protein|mol2

> <Gold.PLP.Fitness>
39.6149

> <Gold.PLP.PLP>
-32.0556

> <Gold.PLP.part.hbond>
-2.0000

> <Gold.PLP.part.metal>
0.0000

> <Gold.PLP.part.buried>
-2.4641

> <Gold.PLP.part.nonpolar>
-28.7090

> <Gold.PLP.part.repulsive>
0.3391

> <Gold.PLP.ligand.clash>
0.0000

> <Gold.PLP.ligand.torsion>
0.6946

> <Gold.PLP.Chemscore.Hbond>
1.9760

> <Gold.PLP.Chemscore.CHOScore>
1.0000

> <Gold.PLP.Chemscore.Metal>
0.0000

> <Gold.Chemscore.Hbonds>
donor molecule, donor type, donor heavy atom, donor atom, acceptor molecule, acceptor atom, score
      L1  H     8    28       P1  7948  1.00
      L1  H    11    29       P1  7948  0.96
      L1  C     5    26       P1 10186  1.00

> <Gold.PLP.Chemscore.Internal.Correction>
0.0204

> <Gold.Rescore>
     Score         DG    S(hbond)    S(metal)    S(lipo)     H(rot)  DE(clash)    DE(int)     intcor
     16.95     -17.56       1.94        0.00      69.67       1.00       0.08       0.53       ----

> <Gold.Chemscore.Fitness>
16.9520

> <Gold.Chemscore.DG>
-17.5602

> <Gold.Chemscore.ZeroCoef>
-5.4800

> <Gold.Chemscore.Hbond>
1.9426

> <Gold.Chemscore.Metal>
0.0000

> <Gold.Chemscore.Lipo>
69.6743

> <Gold.Chemscore.Internal_Hbond>
0.0000

> <Gold.Chemscore.DEClash>
0.0758

> <Gold.Chemscore.DEInternal>
0.5324

> <Gold.Chemscore.Rot>
1.0000

> <Gold.Chemscore.Internal.Correction>
   9.000000E+99

> <Gold.Chemscore.Hbonds>
donor molecule, donor type, donor heavy atom, donor atom, acceptor molecule, acceptor atom, score
      L1  H     8    28       P1  7948  0.98
      L1  H    11    29       P1  7948  0.92

> <Gold.Chemscore.Hbond.Weighted>
-6.4883

> <Gold.Chemscore.Metal.Weighted>
-0.0000

> <Gold.Chemscore.Lipo.Weighted>
-8.1519

> <Gold.Chemscore.Internal_Hbond.Weighted>
0.0000

> <Gold.Chemscore.DEClash.Weighted>
0.0758

> <Gold.Chemscore.DEInternal.Weighted>
0.5324

> <Gold.Chemscore.Rot.Weighted>
2.5600

> <Gold.Chemscore.Internal.Correction.Weighted>
   9.000000E+99

> <Gold.Protein.RotatedTorsions>
[ 6907 6896 6895 6894 ] final  -85.78 input  -60.11 | X-H torsion
[ 7974 7965 7964 7962 ] final -142.01 input  175.53 | X-H torsion
[ 8008 7997 7996 7995 ] final   99.18 input   59.86 | X-H torsion
[ 10167 10162 10161 10158 ] final   18.12 input  -65.29 | X-H torsion
[ 10718 10713 10712 10709 ] final   33.52 input   66.30 | X-H torsion
[ 10763 10752 10751 10750 ] final   37.46 input  -60.55 | X-H torsion
[ 11005 11000 10999 10996 ] final  102.51 input  -57.11 | X-H torsion

> <Gold.Protein.ActiveResidues>
 VAL166  LYS551  ARG553  GLY616  TRP617  ASP618  TYR619  PRO620  LYS621  CYS622 
 ASP623  PHE694  ASN695  SER759  ASP760  ASP761  ALA762  ILE779  LEU786  VAL792 
 PHE793  MET794  SER795  GLU796  ALA797  LYS798  CYS799  TRP800  GLU811  SER814 

> <Gold.Protein.RotatedAtoms>
  150.6869  134.3151  159.4762 H   0  0  0  0  0  0  0  0  0  0  0  0  # atno 6907 bound_to 6896
  152.1033  134.9324  160.0578 H   0  0  0  0  0  0  0  0  0  0  0  0  # atno 6908 bound_to 6896
  152.0595  133.4020  159.4448 H   0  0  0  0  0  0  0  0  0  0  0  0  # atno 6909 bound_to 6896
  144.8476  140.6010  143.5411 H   0  0  0  0  0  0  0  0  0  0  0  0  # atno 7974 bound_to 7965
  156.1080  140.3232  155.8032 H   0  0  0  0  0  0  0  0  0  0  0  0  # atno 8008 bound_to 7997
  155.4723  140.0547  157.2995 H   0  0  0  0  0  0  0  0  0  0  0  0  # atno 8009 bound_to 7997
  154.4740  140.2024  155.9938 H   0  0  0  0  0  0  0  0  0  0  0  0  # atno 8010 bound_to 7997
  140.5676  143.9221  150.6688 H   0  0  0  0  0  0  0  0  0  0  0  0  # atno 10167 bound_to 10162
  157.2989  130.7340  149.6655 H   0  0  0  0  0  0  0  0  0  0  0  0  # atno 10718 bound_to 10713
  153.0037  135.6277  154.2149 H   0  0  0  0  0  0  0  0  0  0  0  0  # atno 10763 bound_to 10752
  154.1892  135.2809  155.3029 H   0  0  0  0  0  0  0  0  0  0  0  0  # atno 10764 bound_to 10752
  154.5773  135.5658  153.7211 H   0  0  0  0  0  0  0  0  0  0  0  0  # atno 10765 bound_to 10752
  139.8778  134.9227  156.5070 H   0  0  0  0  0  0  0  0  0  0  0  0  # atno 11005 bound_to 11000
  145.4565  139.1517  143.3889 LP  0  0  0  0  0  0  0  0  0  0  0  0  # atno 17320 bound_to 7965
  146.2757  140.4694  142.8796 LP  0  0  0  0  0  0  0  0  0  0  0  0  # atno 17321 bound_to 7965
  140.2688  143.3471  152.1257 LP  0  0  0  0  0  0  0  0  0  0  0  0  # atno 17342 bound_to 10162
  139.5101  144.6878  151.5840 LP  0  0  0  0  0  0  0  0  0  0  0  0  # atno 17343 bound_to 10162
  155.9670  130.4286  150.4795 LP  0  0  0  0  0  0  0  0  0  0  0  0  # atno 17370 bound_to 10713
  157.2772  131.0599  151.2221 LP  0  0  0  0  0  0  0  0  0  0  0  0  # atno 17371 bound_to 10713
  140.8548  133.8104  155.9205 LP  0  0  0  0  0  0  0  0  0  0  0  0  # atno 17394 bound_to 11000
  140.9108  134.2263  157.4987 LP  0  0  0  0  0  0  0  0  0  0  0  0  # atno 17395 bound_to 11000

$$$$
