AV-unprocessed.smi:3269|AV-procd|sdf|12511|dock6
  -GOLD-   2272018423D 1   1.00000     0.00000
 Structure written by MMmdl.
 39 40  0  0  0  0  0  0  0  0  1 V2000
  150.9532  137.6215  154.4486 C   0  0  0  0  0  0  0  0  0  0  0  0
  150.5897  139.0403  154.7817 C   0  0  0  0  0  0  0  0  0  0  0  0
  149.5523  139.6029  154.1844 N   0  0  0  0  0  0  0  0  0  0  0  0
  149.4903  140.8462  154.7014 N   0  0  0  0  0  0  0  0  0  0  0  0
  148.4414  141.7472  154.2646 C   0  0  0  0  0  0  0  0  0  0  0  0
  150.4941  141.0719  155.6230 C   0  0  0  0  0  0  0  0  0  0  0  0
  150.6338  142.3750  156.3422 C   0  0  0  0  0  0  0  0  0  0  0  0
  151.2305  139.9192  155.7034 C   0  0  0  0  0  0  0  0  0  0  0  0
  152.4302  139.6202  156.5670 C   0  0  0  0  0  0  0  0  0  0  0  0
  152.0646  139.8562  158.0317 C   0  0  0  0  0  0  0  0  0  0  0  0
  151.2351  139.1341  158.5848 O   0  0  0  0  0  0  0  0  0  0  0  0
  152.6662  140.8923  158.6352 N   0  0  0  0  0  0  0  0  0  0  0  0
  152.3494  141.3854  159.9690 C   0  0  0  0  0  0  0  0  0  0  0  0
  152.1958  142.9150  159.9617 C   0  0  1  0  0  0  0  0  0  0  0  0
  153.2208  143.6429  159.0950 C   0  0  0  0  0  0  0  0  0  0  0  0
  152.5116  144.9339  158.7119 C   0  0  0  0  0  0  0  0  0  0  0  0
  151.0477  144.6860  159.0887 C   0  0  0  0  0  0  0  0  0  0  0  0
  150.9682  143.2946  159.3596 O   0  0  0  0  0  0  0  0  0  0  0  0
  151.0628  137.0254  155.3547 H   0  0  0  0  0  0  0  0  0  0  0  0
  151.8983  137.5793  153.9073 H   0  0  0  0  0  0  0  0  0  0  0  0
  150.1938  137.1428  153.8291 H   0  0  0  0  0  0  0  0  0  0  0  0
  148.8848  142.6392  153.8215 H   0  0  0  0  0  0  0  0  0  0  0  0
  147.8303  142.0385  155.1192 H   0  0  0  0  0  0  0  0  0  0  0  0
  147.8031  141.2654  153.5225 H   0  0  0  0  0  0  0  0  0  0  0  0
  151.5581  142.4132  156.9179 H   0  0  0  0  0  0  0  0  0  0  0  0
  149.8036  142.5245  157.0324 H   0  0  0  0  0  0  0  0  0  0  0  0
  150.6464  143.2087  155.6401 H   0  0  0  0  0  0  0  0  0  0  0  0
  152.7596  138.5873  156.4507 H   0  0  0  0  0  0  0  0  0  0  0  0
  153.2847  140.2405  156.2931 H   0  0  0  0  0  0  0  0  0  0  0  0
  153.3358  141.4271  158.1015 H   0  0  0  0  0  0  0  0  0  0  0  0
  151.4384  140.9123  160.3390 H   0  0  0  0  0  0  0  0  0  0  0  0
  153.1515  141.0897  160.6458 H   0  0  0  0  0  0  0  0  0  0  0  0
  152.2300  143.3106  160.9790 H   0  0  0  0  0  0  0  0  0  0  0  0
  154.1633  143.8143  159.6163 H   0  0  0  0  0  0  0  0  0  0  0  0
  153.4348  143.0641  158.1953 H   0  0  0  0  0  0  0  0  0  0  0  0
  152.9101  145.7897  159.2579 H   0  0  0  0  0  0  0  0  0  0  0  0
  152.6234  145.1340  157.6458 H   0  0  0  0  0  0  0  0  0  0  0  0
  150.7836  145.2408  159.9904 H   0  0  0  0  0  0  0  0  0  0  0  0
  150.3552  144.9734  158.2973 H   0  0  0  0  0  0  0  0  0  0  0  0
  1  2  1  0  0  0  0
  1 19  1  0  0  0  0
  1 20  1  0  0  0  0
  1 21  1  0  0  0  0
  2  8  1  0  0  0  0
  2  3  2  0  0  0  0
  3  4  1  0  0  0  0
  4  5  1  0  0  0  0
  4  6  1  0  0  0  0
  5 22  1  0  0  0  0
  5 23  1  0  0  0  0
  5 24  1  0  0  0  0
  6  7  1  0  0  0  0
  6  8  2  0  0  0  0
  7 25  1  0  0  0  0
  7 26  1  0  0  0  0
  7 27  1  0  0  0  0
  8  9  1  0  0  0  0
  9 10  1  0  0  0  0
  9 28  1  0  0  0  0
  9 29  1  0  0  0  0
 10 11  2  0  0  0  0
 10 12  1  0  0  0  0
 12 13  1  0  0  0  0
 12 30  1  0  0  0  0
 13 14  1  0  0  0  0
 13 31  1  0  0  0  0
 13 32  1  0  0  0  0
 14 18  1  0  0  0  0
 14 15  1  0  0  0  0
 14 33  1  0  0  0  0
 15 16  1  0  0  0  0
 15 34  1  0  0  0  0
 15 35  1  0  0  0  0
 16 17  1  0  0  0  0
 16 36  1  0  0  0  0
 16 37  1  0  0  0  0
 17 18  1  0  0  0  0
 17 38  1  0  0  0  0
 17 39  1  0  0  0  0
M  END
> <s_m_source_file>
AV-unprocessed.smi

> <i_m_source_file_index>
3269

> <i_lp_mmshare_version>
43012

> <i_f3d_flags>
0

> <s_epik_input>
W0NIM11jMW5uKFtDSDNdKWMoW0NIM10pYzFbQ0gyXUMoPU8pW05IXVtDSDJdW0NAQEhdMltDSDJdW0NIMl1bQ0gyXU8y

> <s_epik_cmdline>
J2VwaWtfcHl0aG9uJywgJy1waCcsICc3LjAnLCAnLXRuJywgJzgnLCAnLW1hJywgJzIwMCcsICctbWV0YWxfYmluZGluZycsICctaW1hZScsICc8aW5maWxlLm1hZT4nLCAnLW9tYWUnLCAnPG91dGZpbGUubWFlPic=

> <r_lp_tautomer_probability>
1

> <r_epik_Ionization_Penalty>
0.00306713

> <r_epik_Ionization_Penalty_Charging>
0

> <r_epik_Ionization_Penalty_Neutral>
0.00306713

> <r_epik_State_Penalty>
0.00215672

> <r_epik_Charging_Adjusted_Penalty>
0.00215672

> <i_epik_Tot_Q>
0

> <i_epik_Tot_abs_Q>
0

> <r_epik_Metal_State_Penalty>
-0

> <b_epik_Metal_Only>
0

> <s_lp_Force_Field>
OPLS_2005

> <r_lp_Energy>
10.8306

> <b_lp_Chiralities_Consistent>
1

> <s_lp_Variant>
AV-unprocessed.smi:3269-2

> <Gold.Version>
5.8.1

> <Gold.Id.Protein>
6NUR|6NUR_protein|mol2

> <Gold.PLP.Fitness>
39.5507

> <Gold.PLP.PLP>
-40.0841

> <Gold.PLP.part.hbond>
0.0000

> <Gold.PLP.part.metal>
0.0000

> <Gold.PLP.part.buried>
-0.3815

> <Gold.PLP.part.nonpolar>
-39.8527

> <Gold.PLP.part.repulsive>
0.9356

> <Gold.PLP.ligand.clash>
0.0000

> <Gold.PLP.ligand.torsion>
0.2737

> <Gold.PLP.Chemscore.Hbond>
0.0000

> <Gold.PLP.Chemscore.CHOScore>
0.0000

> <Gold.PLP.Chemscore.Metal>
0.0000

> <Gold.PLP.Chemscore.Internal.Correction>
0.0139

> <Gold.Rescore>
     Score         DG    S(hbond)    S(metal)    S(lipo)     H(rot)  DE(clash)    DE(int)     intcor
     13.80     -14.43       0.00        0.00     109.33       1.50       0.45       0.18       ----

> <Gold.Chemscore.Fitness>
13.8036

> <Gold.Chemscore.DG>
-14.4343

> <Gold.Chemscore.ZeroCoef>
-5.4800

> <Gold.Chemscore.Hbond>
0.0000

> <Gold.Chemscore.Metal>
0.0000

> <Gold.Chemscore.Lipo>
109.3277

> <Gold.Chemscore.Internal_Hbond>
0.0000

> <Gold.Chemscore.DEClash>
0.4525

> <Gold.Chemscore.DEInternal>
0.1781

> <Gold.Chemscore.Rot>
1.4989

> <Gold.Chemscore.Internal.Correction>
   9.000000E+99

> <Gold.Chemscore.Hbond.Weighted>
-0.0000

> <Gold.Chemscore.Metal.Weighted>
-0.0000

> <Gold.Chemscore.Lipo.Weighted>
-12.7913

> <Gold.Chemscore.Internal_Hbond.Weighted>
0.0000

> <Gold.Chemscore.DEClash.Weighted>
0.4525

> <Gold.Chemscore.DEInternal.Weighted>
0.1781

> <Gold.Chemscore.Rot.Weighted>
3.8371

> <Gold.Chemscore.Internal.Correction.Weighted>
   9.000000E+99

> <Gold.Protein.RotatedTorsions>
[ 6907 6896 6895 6894 ] final   60.97 input  -60.11 | X-H torsion
[ 7974 7965 7964 7962 ] final  -68.58 input  175.53 | X-H torsion
[ 8008 7997 7996 7995 ] final   36.64 input   59.86 | X-H torsion
[ 10167 10162 10161 10158 ] final  136.96 input  -65.29 | X-H torsion
[ 10718 10713 10712 10709 ] final  -43.88 input   66.30 | X-H torsion
[ 10763 10752 10751 10750 ] final  120.21 input  -60.55 | X-H torsion
[ 11005 11000 10999 10996 ] final  -82.68 input  -57.11 | X-H torsion

> <Gold.Protein.ActiveResidues>
 VAL166  LYS551  ARG553  GLY616  TRP617  ASP618  TYR619  PRO620  LYS621  CYS622 
 ASP623  PHE694  ASN695  SER759  ASP760  ASP761  ALA762  ILE779  LEU786  VAL792 
 PHE793  MET794  SER795  GLU796  ALA797  LYS798  CYS799  TRP800  GLU811  SER814 

> <Gold.Protein.RotatedAtoms>
  152.4049  134.6224  160.0053 H   0  0  0  0  0  0  0  0  0  0  0  0  # atno 6907 bound_to 6896
  151.6418  133.3320  159.3140 H   0  0  0  0  0  0  0  0  0  0  0  0  # atno 6908 bound_to 6896
  150.7945  134.7036  159.6608 H   0  0  0  0  0  0  0  0  0  0  0  0  # atno 6909 bound_to 6896
  145.7147  140.9064  143.0662 H   0  0  0  0  0  0  0  0  0  0  0  0  # atno 7974 bound_to 7965
  155.1907  140.3307  155.4359 H   0  0  0  0  0  0  0  0  0  0  0  0  # atno 8008 bound_to 7997
  156.2443  140.1911  156.6950 H   0  0  0  0  0  0  0  0  0  0  0  0  # atno 8009 bound_to 7997
  154.6208  140.0596  156.9598 H   0  0  0  0  0  0  0  0  0  0  0  0  # atno 8010 bound_to 7997
  139.5161  144.6436  151.5501 H   0  0  0  0  0  0  0  0  0  0  0  0  # atno 10167 bound_to 10162
  156.2444  130.4182  149.8723 H   0  0  0  0  0  0  0  0  0  0  0  0  # atno 10718 bound_to 10713
  153.5950  135.3458  155.2925 H   0  0  0  0  0  0  0  0  0  0  0  0  # atno 10763 bound_to 10752
  154.8646  135.4214  154.2475 H   0  0  0  0  0  0  0  0  0  0  0  0  # atno 10764 bound_to 10752
  153.3290  135.7043  153.7035 H   0  0  0  0  0  0  0  0  0  0  0  0  # atno 10765 bound_to 10752
  141.1662  133.7256  156.8608 H   0  0  0  0  0  0  0  0  0  0  0  0  # atno 11005 bound_to 11000
  144.6932  139.9121  143.7464 LP  0  0  0  0  0  0  0  0  0  0  0  0  # atno 17320 bound_to 7965
  146.0681  139.3671  143.0540 LP  0  0  0  0  0  0  0  0  0  0  0  0  # atno 17321 bound_to 7965
  140.6212  143.9254  150.6528 LP  0  0  0  0  0  0  0  0  0  0  0  0  # atno 17342 bound_to 10162
  140.2528  143.3580  152.1390 LP  0  0  0  0  0  0  0  0  0  0  0  0  # atno 17343 bound_to 10162
  156.6293  130.8659  151.3492 LP  0  0  0  0  0  0  0  0  0  0  0  0  # atno 17370 bound_to 10713
  157.7189  130.9532  150.1359 LP  0  0  0  0  0  0  0  0  0  0  0  0  # atno 17371 bound_to 10713
  140.1850  134.9006  157.2993 LP  0  0  0  0  0  0  0  0  0  0  0  0  # atno 17394 bound_to 11000
  140.2353  134.3860  155.7504 LP  0  0  0  0  0  0  0  0  0  0  0  0  # atno 17395 bound_to 11000

$$$$
