AV-unprocessed.smi:1980|AV-procd|sdf|8017|dock7
  -GOLD-   2272010213D 1   1.00000     0.00000
 Structure written by MMmdl.
 44 45  0  0  0  0  0  0  0  0  1 V2000
  150.6064  137.9768  155.2336 C   0  0  0  0  0  0  0  0  0  0  0  0
  149.9486  139.3601  155.1146 C   0  0  2  0  0  0  0  0  0  0  0  0
  149.9811  139.9650  156.4050 O   0  0  0  0  0  0  0  0  0  0  0  0
  150.2075  141.3712  156.4201 C   0  0  0  0  0  0  0  0  0  0  0  0
  150.0457  141.8981  157.8508 C   0  0  0  0  0  0  0  0  0  0  0  0
  150.4891  143.1531  157.9080 F   0  0  0  0  0  0  0  0  0  0  0  0
  148.7613  141.8818  158.2057 F   0  0  0  0  0  0  0  0  0  0  0  0
  150.7552  141.1544  158.6992 F   0  0  0  0  0  0  0  0  0  0  0  0
  148.5015  139.2532  154.6062 C   0  0  0  0  0  0  0  0  0  0  0  0
  147.6814  138.5582  155.2063 O   0  0  0  0  0  0  0  0  0  0  0  0
  148.2047  139.9591  153.5037 N   0  0  0  0  0  0  0  0  0  0  0  0
  146.9029  140.0042  152.8472 C   0  0  0  0  0  0  0  0  0  0  0  0
  146.4424  138.6390  152.3685 C   0  0  0  0  0  0  0  0  0  0  0  0
  146.6441  138.2350  151.0346 C   0  0  0  0  0  0  0  0  0  0  0  0
  146.2035  136.9595  150.6332 C   0  0  0  0  0  0  0  0  0  0  0  0
  145.5658  136.1190  151.5773 C   0  0  0  0  0  0  0  0  0  0  0  0
  145.1123  134.8363  151.1968 N   0  0  0  0  0  0  0  0  0  0  0  0
  146.1066  133.7763  151.0379 C   0  0  0  0  0  0  0  0  0  0  0  0
  145.4813  132.5522  150.3477 C   0  0  0  0  0  0  0  0  0  0  0  0
  144.3337  132.1253  151.0740 O   0  0  0  0  0  0  0  0  0  0  0  0
  143.3315  133.1352  151.1190 C   0  0  0  0  0  0  0  0  0  0  0  0
  143.8795  134.3813  151.8357 C   0  0  0  0  0  0  0  0  0  0  0  0
  145.3798  136.5118  152.8623 N   0  0  0  0  0  0  0  0  0  0  0  0
  145.8040  137.7355  153.2421 C   0  0  0  0  0  0  0  0  0  0  0  0
  150.5946  137.4479  154.2797 H   0  0  0  0  0  0  0  0  0  0  0  0
  150.0985  137.3525  155.9699 H   0  0  0  0  0  0  0  0  0  0  0  0
  151.6468  138.0697  155.5453 H   0  0  0  0  0  0  0  0  0  0  0  0
  150.5401  139.9582  154.4185 H   0  0  0  0  0  0  0  0  0  0  0  0
  151.2134  141.5908  156.0591 H   0  0  0  0  0  0  0  0  0  0  0  0
  149.5058  141.8865  155.7634 H   0  0  0  0  0  0  0  0  0  0  0  0
  148.9425  140.5048  153.0823 H   0  0  0  0  0  0  0  0  0  0  0  0
  146.1413  140.4260  153.5052 H   0  0  0  0  0  0  0  0  0  0  0  0
  146.9778  140.6841  151.9982 H   0  0  0  0  0  0  0  0  0  0  0  0
  147.1339  138.8877  150.3269 H   0  0  0  0  0  0  0  0  0  0  0  0
  146.3728  136.6389  149.6163 H   0  0  0  0  0  0  0  0  0  0  0  0
  146.9491  134.1326  150.4437 H   0  0  0  0  0  0  0  0  0  0  0  0
  146.4937  133.4948  152.0182 H   0  0  0  0  0  0  0  0  0  0  0  0
  145.2074  132.7839  149.3170 H   0  0  0  0  0  0  0  0  0  0  0  0
  146.2013  131.7349  150.3095 H   0  0  0  0  0  0  0  0  0  0  0  0
  143.0017  133.3811  150.1081 H   0  0  0  0  0  0  0  0  0  0  0  0
  142.4624  132.7486  151.6513 H   0  0  0  0  0  0  0  0  0  0  0  0
  144.0914  134.1475  152.8799 H   0  0  0  0  0  0  0  0  0  0  0  0
  143.1117  135.1532  151.8342 H   0  0  0  0  0  0  0  0  0  0  0  0
  145.6270  137.9989  154.2743 H   0  0  0  0  0  0  0  0  0  0  0  0
  1  2  1  0  0  0  0
  1 25  1  0  0  0  0
  1 26  1  0  0  0  0
  1 27  1  0  0  0  0
  2  3  1  0  0  0  0
  2  9  1  0  0  0  0
  2 28  1  0  0  0  0
  3  4  1  0  0  0  0
  4  5  1  0  0  0  0
  4 29  1  0  0  0  0
  4 30  1  0  0  0  0
  5  6  1  0  0  0  0
  5  7  1  0  0  0  0
  5  8  1  0  0  0  0
  9 10  2  0  0  0  0
  9 11  1  0  0  0  0
 11 12  1  0  0  0  0
 11 31  1  0  0  0  0
 12 13  1  0  0  0  0
 12 32  1  0  0  0  0
 12 33  1  0  0  0  0
 13 24  1  0  0  0  0
 13 14  2  0  0  0  0
 14 15  1  0  0  0  0
 14 34  1  0  0  0  0
 15 16  2  0  0  0  0
 15 35  1  0  0  0  0
 16 17  1  0  0  0  0
 16 23  1  0  0  0  0
 17 22  1  0  0  0  0
 17 18  1  0  0  0  0
 18 19  1  0  0  0  0
 18 36  1  0  0  0  0
 18 37  1  0  0  0  0
 19 20  1  0  0  0  0
 19 38  1  0  0  0  0
 19 39  1  0  0  0  0
 20 21  1  0  0  0  0
 21 22  1  0  0  0  0
 21 40  1  0  0  0  0
 21 41  1  0  0  0  0
 22 42  1  0  0  0  0
 22 43  1  0  0  0  0
 23 24  2  0  0  0  0
 24 44  1  0  0  0  0
M  END
> <s_m_source_file>
AV-unprocessed.smi

> <i_m_source_file_index>
1980

> <i_lp_mmshare_version>
43012

> <i_f3d_flags>
0

> <s_epik_input>
RkMoRikoRilbQ0gyXU9bQ0BASF0oW0NIM10pQyg9TylbTkhdW0NIMl1jMVtjSF1bY0hdYyhuW2NIXTEpTjJbQ0gyXVtDSDJdT1tDSDJdW0NIMl0y

> <s_epik_cmdline>
J2VwaWtfcHl0aG9uJywgJy1waCcsICc3LjAnLCAnLXRuJywgJzgnLCAnLW1hJywgJzIwMCcsICctbWV0YWxfYmluZGluZycsICctaW1hZScsICc8aW5maWxlLm1hZT4nLCAnLW9tYWUnLCAnPG91dGZpbGUubWFlPic=

> <r_lp_tautomer_probability>
1

> <r_epik_Ionization_Penalty>
0.00436425

> <r_epik_Ionization_Penalty_Charging>
0

> <r_epik_Ionization_Penalty_Neutral>
0.00436425

> <r_epik_State_Penalty>
0.00314317

> <r_epik_Charging_Adjusted_Penalty>
0.00314317

> <i_epik_Tot_Q>
0

> <i_epik_Tot_abs_Q>
0

> <r_epik_Metal_State_Penalty>
-0

> <b_epik_Metal_Only>
0

> <s_lp_Force_Field>
OPLS_2005

> <r_lp_Energy>
19.3234

> <b_lp_Chiralities_Consistent>
1

> <s_lp_Variant>
AV-unprocessed.smi:1980-1

> <Gold.Version>
5.8.1

> <Gold.Id.Protein>
6NUR|6NUR_protein|mol2

> <Gold.PLP.Fitness>
40.9845

> <Gold.PLP.PLP>
-42.4467

> <Gold.PLP.part.hbond>
-0.8152

> <Gold.PLP.part.metal>
0.0000

> <Gold.PLP.part.buried>
1.3474

> <Gold.PLP.part.nonpolar>
-43.8656

> <Gold.PLP.part.repulsive>
0.6946

> <Gold.PLP.ligand.clash>
0.0000

> <Gold.PLP.ligand.torsion>
1.5071

> <Gold.PLP.Chemscore.Hbond>
0.3680

> <Gold.PLP.Chemscore.CHOScore>
0.0000

> <Gold.PLP.Chemscore.Metal>
0.0000

> <Gold.Chemscore.Hbonds>
donor molecule, donor type, donor heavy atom, donor atom, acceptor molecule, acceptor atom, score
      L1  H    11    31       P1  7957  0.34

> <Gold.PLP.Chemscore.Internal.Correction>
0.4480

> <Gold.Rescore>
     Score         DG    S(hbond)    S(metal)    S(lipo)     H(rot)  DE(clash)    DE(int)     intcor
      7.50     -11.41       0.23        0.00      98.67       2.49       1.65       2.26       ----

> <Gold.Chemscore.Fitness>
7.4980

> <Gold.Chemscore.DG>
-11.4074

> <Gold.Chemscore.ZeroCoef>
-5.4800

> <Gold.Chemscore.Hbond>
0.2268

> <Gold.Chemscore.Metal>
0.0000

> <Gold.Chemscore.Lipo>
98.6671

> <Gold.Chemscore.Internal_Hbond>
0.0000

> <Gold.Chemscore.DEClash>
1.6451

> <Gold.Chemscore.DEInternal>
2.2643

> <Gold.Chemscore.Rot>
2.4899

> <Gold.Chemscore.Internal.Correction>
   9.000000E+99

> <Gold.Chemscore.Hbonds>
donor molecule, donor type, donor heavy atom, donor atom, acceptor molecule, acceptor atom, score
      L1  H    11    31       P1  7957  0.34

> <Gold.Chemscore.Hbond.Weighted>
-0.7575

> <Gold.Chemscore.Metal.Weighted>
-0.0000

> <Gold.Chemscore.Lipo.Weighted>
-11.5441

> <Gold.Chemscore.Internal_Hbond.Weighted>
0.0000

> <Gold.Chemscore.DEClash.Weighted>
1.6451

> <Gold.Chemscore.DEInternal.Weighted>
2.2643

> <Gold.Chemscore.Rot.Weighted>
6.3741

> <Gold.Chemscore.Internal.Correction.Weighted>
   9.000000E+99

> <Gold.Protein.RotatedTorsions>
[ 6907 6896 6895 6894 ] final   12.46 input  -60.11 | X-H torsion
[ 7974 7965 7964 7962 ] final   86.23 input  175.53 | X-H torsion
[ 8008 7997 7996 7995 ] final  -84.57 input   59.86 | X-H torsion
[ 10167 10162 10161 10158 ] final -153.65 input  -65.29 | X-H torsion
[ 10718 10713 10712 10709 ] final  -91.50 input   66.30 | X-H torsion
[ 10763 10752 10751 10750 ] final  109.30 input  -60.55 | X-H torsion
[ 11005 11000 10999 10996 ] final -131.96 input  -57.11 | X-H torsion

> <Gold.Protein.ActiveResidues>
 VAL166  LYS551  ARG553  GLY616  TRP617  ASP618  TYR619  PRO620  LYS621  CYS622 
 ASP623  PHE694  ASN695  SER759  ASP760  ASP761  ALA762  ILE779  LEU786  VAL792 
 PHE793  MET794  SER795  GLU796  ALA797  LYS798  CYS799  TRP800  GLU811  SER814 

> <Gold.Protein.RotatedAtoms>
  151.7707  135.0787  160.0359 H   0  0  0  0  0  0  0  0  0  0  0  0  # atno 6907 bound_to 6896
  152.3291  133.5933  159.5805 H   0  0  0  0  0  0  0  0  0  0  0  0  # atno 6908 bound_to 6896
  150.7412  133.9812  159.3618 H   0  0  0  0  0  0  0  0  0  0  0  0  # atno 6909 bound_to 6896
  145.5751  139.2318  143.2384 H   0  0  0  0  0  0  0  0  0  0  0  0  # atno 7974 bound_to 7965
  154.6312  140.0603  156.9735 H   0  0  0  0  0  0  0  0  0  0  0  0  # atno 8008 bound_to 7997
  155.1662  140.3287  155.4383 H   0  0  0  0  0  0  0  0  0  0  0  0  # atno 8009 bound_to 7997
  156.2484  140.1922  156.6767 H   0  0  0  0  0  0  0  0  0  0  0  0  # atno 8010 bound_to 7997
  139.7079  143.9156  152.2456 H   0  0  0  0  0  0  0  0  0  0  0  0  # atno 10167 bound_to 10162
  155.9994  130.4950  150.5484 H   0  0  0  0  0  0  0  0  0  0  0  0  # atno 10718 bound_to 10713
  153.4328  135.3784  155.2180 H   0  0  0  0  0  0  0  0  0  0  0  0  # atno 10763 bound_to 10752
  154.8751  135.3844  154.4247 H   0  0  0  0  0  0  0  0  0  0  0  0  # atno 10764 bound_to 10752
  153.4782  135.7088  153.6016 H   0  0  0  0  0  0  0  0  0  0  0  0  # atno 10765 bound_to 10752
  140.9213  134.1441  157.4312 H   0  0  0  0  0  0  0  0  0  0  0  0  # atno 11005 bound_to 11000
  146.1757  140.6577  142.9213 LP  0  0  0  0  0  0  0  0  0  0  0  0  # atno 17320 bound_to 7965
  144.7420  140.4967  143.6863 LP  0  0  0  0  0  0  0  0  0  0  0  0  # atno 17321 bound_to 7965
  139.9017  144.6908  150.8658 LP  0  0  0  0  0  0  0  0  0  0  0  0  # atno 17342 bound_to 10162
  140.7726  143.3509  151.2016 LP  0  0  0  0  0  0  0  0  0  0  0  0  # atno 17343 bound_to 10162
  157.3410  131.0717  151.1788 LP  0  0  0  0  0  0  0  0  0  0  0  0  # atno 17370 bound_to 10713
  157.2636  130.6670  149.5986 LP  0  0  0  0  0  0  0  0  0  0  0  0  # atno 17371 bound_to 10713
  139.8776  134.9972  156.5835 LP  0  0  0  0  0  0  0  0  0  0  0  0  # atno 17394 bound_to 11000
  140.7984  133.8525  155.8705 LP  0  0  0  0  0  0  0  0  0  0  0  0  # atno 17395 bound_to 11000

$$$$
