AV-unprocessed.smi:1669|AV-procd|sdf|6692|dock9
  -GOLD-   22720 7423D 1   1.00000     0.00000
 Structure written by MMmdl.
 49 51  0  0  0  0  0  0  0  0  3 V2000
  146.0749  136.6772  150.3158 C   0  0  0  0  0  0  0  0  0  0  0  0
  146.1252  136.6950  151.7967 N   0  3  2  0  0  0  0  0  0  0  0  0
  145.2199  135.6902  152.4116 C   0  0  0  0  0  0  0  0  0  0  0  0
  145.1815  134.4006  151.6121 C   0  0  0  0  0  0  0  0  0  0  0  0
  146.1131  133.3764  151.8848 C   0  0  0  0  0  0  0  0  0  0  0  0
  146.0838  132.1780  151.1454 C   0  0  0  0  0  0  0  0  0  0  0  0
  145.1224  131.9987  150.1321 C   0  0  0  0  0  0  0  0  0  0  0  0
  144.1896  133.0177  149.8587 C   0  0  0  0  0  0  0  0  0  0  0  0
  144.2176  134.2162  150.5980 C   0  0  0  0  0  0  0  0  0  0  0  0
  145.9344  138.0618  152.3457 C   0  0  0  0  0  0  0  0  0  0  0  0
  146.9316  138.3806  153.4775 C   0  0  1  0  0  0  0  0  0  0  0  0
  147.3000  137.1706  154.1102 O   0  0  0  0  0  0  0  0  0  0  0  0
  148.1956  139.0824  152.9424 C   0  0  0  0  0  0  0  0  0  0  0  0
  148.7106  140.1155  153.8548 N   0  0  0  0  0  0  0  0  0  0  0  0
  148.2341  141.3626  154.1389 C   0  0  0  0  0  0  0  0  0  0  0  0
  147.0141  142.0049  153.5581 C   0  0  0  0  0  0  0  0  0  0  0  0
  146.8427  143.3456  153.9666 O   0  0  0  0  0  0  0  0  0  0  0  0
  149.0796  141.9148  155.0559 N   0  3  0  0  0  0  0  0  0  0  0  0
  150.0992  141.0144  155.3651 C   0  0  0  0  0  0  0  0  0  0  0  0
  151.1793  141.1231  156.2354 C   0  0  0  0  0  0  0  0  0  0  0  0
  152.0388  140.0081  156.3194 C   0  0  0  0  0  0  0  0  0  0  0  0
  151.8088  138.8446  155.5564 C   0  0  0  0  0  0  0  0  0  0  0  0
  150.7106  138.7465  154.6763 C   0  0  0  0  0  0  0  0  0  0  0  0
  149.8666  139.8540  154.5990 C   0  0  0  0  0  0  0  0  0  0  0  0
  145.0875  136.9680  149.9549 H   0  0  0  0  0  0  0  0  0  0  0  0
  146.3051  135.6866  149.9239 H   0  0  0  0  0  0  0  0  0  0  0  0
  146.8085  137.3667  149.8966 H   0  0  0  0  0  0  0  0  0  0  0  0
  145.5496  135.4389  153.4196 H   0  0  0  0  0  0  0  0  0  0  0  0
  144.2163  136.1054  152.5175 H   0  0  0  0  0  0  0  0  0  0  0  0
  146.8539  133.5079  152.6602 H   0  0  0  0  0  0  0  0  0  0  0  0
  146.7983  131.3956  151.3552 H   0  0  0  0  0  0  0  0  0  0  0  0
  145.1003  131.0797  149.5648 H   0  0  0  0  0  0  0  0  0  0  0  0
  143.4519  132.8794  149.0818 H   0  0  0  0  0  0  0  0  0  0  0  0
  143.4984  134.9928  150.3818 H   0  0  0  0  0  0  0  0  0  0  0  0
  146.0606  138.8047  151.5561 H   0  0  0  0  0  0  0  0  0  0  0  0
  144.9062  138.1663  152.6961 H   0  0  0  0  0  0  0  0  0  0  0  0
  146.4649  139.0187  154.2270 H   0  0  0  0  0  0  0  0  0  0  0  0
  147.9335  136.7273  153.5661 H   0  0  0  0  0  0  0  0  0  0  0  0
  148.9928  138.3558  152.7800 H   0  0  0  0  0  0  0  0  0  0  0  0
  148.0032  139.5459  151.9739 H   0  0  0  0  0  0  0  0  0  0  0  0
  147.0742  141.9749  152.4701 H   0  0  0  0  0  0  0  0  0  0  0  0
  146.1348  141.4306  153.8507 H   0  0  0  0  0  0  0  0  0  0  0  0
  147.6169  143.6195  154.4349 H   0  0  0  0  0  0  0  0  0  0  0  0
  151.3565  142.0130  156.8218 H   0  0  0  0  0  0  0  0  0  0  0  0
  152.8904  140.0456  156.9834 H   0  0  0  0  0  0  0  0  0  0  0  0
  152.4882  138.0095  155.6494 H   0  0  0  0  0  0  0  0  0  0  0  0
  150.5435  137.8501  154.0980 H   0  0  0  0  0  0  0  0  0  0  0  0
  147.0677  136.4309  152.0475 H   0  0  0  0  0  0  0  0  0  0  0  0
  148.9595  142.8433  155.4408 H   0  0  0  0  0  0  0  0  0  0  0  0
  1  2  1  0  0  0  0
  1 25  1  0  0  0  0
  1 26  1  0  0  0  0
  1 27  1  0  0  0  0
  2  3  1  0  0  0  0
  2 10  1  0  0  0  0
  2 48  1  0  0  0  0
  3  4  1  0  0  0  0
  3 28  1  0  0  0  0
  3 29  1  0  0  0  0
  4  9  1  0  0  0  0
  4  5  2  0  0  0  0
  5  6  1  0  0  0  0
  5 30  1  0  0  0  0
  6  7  2  0  0  0  0
  6 31  1  0  0  0  0
  7  8  1  0  0  0  0
  7 32  1  0  0  0  0
  8  9  2  0  0  0  0
  8 33  1  0  0  0  0
  9 34  1  0  0  0  0
 10 11  1  0  0  0  0
 10 35  1  0  0  0  0
 10 36  1  0  0  0  0
 11 12  1  0  0  0  0
 11 13  1  0  0  0  0
 11 37  1  0  0  0  0
 12 38  1  0  0  0  0
 13 14  1  0  0  0  0
 13 39  1  0  0  0  0
 13 40  1  0  0  0  0
 14 24  1  0  0  0  0
 14 15  1  0  0  0  0
 15 16  1  0  0  0  0
 15 18  2  0  0  0  0
 16 17  1  0  0  0  0
 16 41  1  0  0  0  0
 16 42  1  0  0  0  0
 17 43  1  0  0  0  0
 18 19  1  0  0  0  0
 18 49  1  0  0  0  0
 19 24  2  0  0  0  0
 19 20  1  0  0  0  0
 20 21  2  0  0  0  0
 20 44  1  0  0  0  0
 21 22  1  0  0  0  0
 21 45  1  0  0  0  0
 22 23  2  0  0  0  0
 22 46  1  0  0  0  0
 23 24  1  0  0  0  0
 23 47  1  0  0  0  0
M  CHG  1   2   1
M  CHG  1  18   1
M  END
> <s_m_source_file>
AV-unprocessed.smi

> <i_m_source_file_index>
1669

> <i_lp_mmshare_version>
43012

> <i_f3d_flags>
0

> <s_epik_input>
W2NIXTFbY0hdW2NIXVtjSF1bY0hdYzFbQ0gyXU4oW0NIM10pW0NIMl1bQ0BIXShbT0hdKVtDSDJdbihjKG4yKVtDSDJdW09IXSljKGMyMylbY0hdW2NIXVtjSF1bY0hdMw==

> <s_epik_cmdline>
J2VwaWtfcHl0aG9uJywgJy1waCcsICc3LjAnLCAnLXRuJywgJzgnLCAnLW1hJywgJzIwMCcsICctbWV0YWxfYmluZGluZycsICctaW1hZScsICc8aW5maWxlLm1hZT4nLCAnLW9tYWUnLCAnPG91dGZpbGUubWFlPic=

> <r_epik_Ionization_Penalty>
1.57484

> <r_epik_Ionization_Penalty_Charging>
1.57398

> <r_epik_Ionization_Penalty_Neutral>
0.000858917

> <r_epik_State_Penalty>
1.64997

> <r_epik_Charging_Adjusted_Penalty>
3.22395

> <i_epik_Tot_Q>
2

> <i_epik_Tot_abs_Q>
2

> <r_epik_Metal_State_Penalty>
5.70481

> <b_epik_Metal_Only>
0

> <s_lp_Force_Field>
OPLS_2005

> <r_lp_Energy>
22.4556

> <b_lp_Chiralities_Consistent>
1

> <s_lp_Variant>
AV-unprocessed.smi:1669-10

> <Gold.Version>
5.8.1

> <Gold.Id.Protein>
6NUR|6NUR_protein|mol2

> <Gold.PLP.Fitness>
58.5182

> <Gold.PLP.PLP>
-44.6596

> <Gold.PLP.part.hbond>
-4.6159

> <Gold.PLP.part.metal>
0.0000

> <Gold.PLP.part.buried>
4.8571

> <Gold.PLP.part.nonpolar>
-44.4019

> <Gold.PLP.part.repulsive>
0.2177

> <Gold.PLP.ligand.clash>
0.0000

> <Gold.PLP.ligand.torsion>
2.2271

> <Gold.PLP.Chemscore.Hbond>
5.9500

> <Gold.PLP.Chemscore.CHOScore>
0.0000

> <Gold.PLP.Chemscore.Metal>
0.0000

> <Gold.Chemscore.Hbonds>
donor molecule, donor type, donor heavy atom, donor atom, acceptor molecule, acceptor atom, score
      L1  H     2    48       P1  7948  2.00
      L1  H    12    38       P1  7948  0.96
      L1  H    17    43       P1  8028  1.00
      L1  H    18    49       P1  8028  2.00

> <Gold.PLP.Chemscore.Internal.Correction>
0.4628

> <Gold.Rescore>
     Score         DG    S(hbond)    S(metal)    S(lipo)     H(rot)  DE(clash)    DE(int)     intcor
     16.70     -22.10       3.04        0.00     126.78       3.27       3.04       2.36       ----

> <Gold.Chemscore.Fitness>
16.6976

> <Gold.Chemscore.DG>
-22.0963

> <Gold.Chemscore.ZeroCoef>
-5.4800

> <Gold.Chemscore.Hbond>
3.0416

> <Gold.Chemscore.Metal>
0.0000

> <Gold.Chemscore.Lipo>
126.7793

> <Gold.Chemscore.Internal_Hbond>
0.0000

> <Gold.Chemscore.DEClash>
3.0423

> <Gold.Chemscore.DEInternal>
2.3564

> <Gold.Chemscore.Rot>
3.2718

> <Gold.Chemscore.Internal.Correction>
   9.000000E+99

> <Gold.Chemscore.Hbonds>
donor molecule, donor type, donor heavy atom, donor atom, acceptor molecule, acceptor atom, score
      L1  H     2    48       P1  7948  0.99
      L1  H    12    38       P1  7948  0.90
      L1  H    17    43       P1  8028  0.28
      L1  H    18    49       P1  8028  1.00

> <Gold.Chemscore.Hbond.Weighted>
-10.1590

> <Gold.Chemscore.Metal.Weighted>
-0.0000

> <Gold.Chemscore.Lipo.Weighted>
-14.8332

> <Gold.Chemscore.Internal_Hbond.Weighted>
0.0000

> <Gold.Chemscore.DEClash.Weighted>
3.0423

> <Gold.Chemscore.DEInternal.Weighted>
2.3564

> <Gold.Chemscore.Rot.Weighted>
8.3759

> <Gold.Chemscore.Internal.Correction.Weighted>
   9.000000E+99

> <Gold.Protein.RotatedTorsions>
[ 6907 6896 6895 6894 ] final -125.55 input  -60.11 | X-H torsion
[ 7974 7965 7964 7962 ] final -172.61 input  175.53 | X-H torsion
[ 8008 7997 7996 7995 ] final -173.30 input   59.86 | X-H torsion
[ 10167 10162 10161 10158 ] final -114.92 input  -65.29 | X-H torsion
[ 10718 10713 10712 10709 ] final  -73.93 input   66.30 | X-H torsion
[ 10763 10752 10751 10750 ] final  -36.37 input  -60.55 | X-H torsion
[ 11005 11000 10999 10996 ] final   -2.37 input  -57.11 | X-H torsion

> <Gold.Protein.ActiveResidues>
 VAL166  LYS551  ARG553  GLY616  TRP617  ASP618  TYR619  PRO620  LYS621  CYS622 
 ASP623  PHE694  ASN695  SER759  ASP760  ASP761  ALA762  ILE779  LEU786  VAL792 
 PHE793  MET794  SER795  GLU796  ALA797  LYS798  CYS799  TRP800  GLU811  SER814 

> <Gold.Protein.RotatedAtoms>
  150.8879  133.7283  159.2912 H   0  0  0  0  0  0  0  0  0  0  0  0  # atno 6907 bound_to 6896
  151.4843  135.1052  159.9796 H   0  0  0  0  0  0  0  0  0  0  0  0  # atno 6908 bound_to 6896
  152.4801  133.8188  159.7098 H   0  0  0  0  0  0  0  0  0  0  0  0  # atno 6909 bound_to 6896
  144.7145  140.1747  143.6364 H   0  0  0  0  0  0  0  0  0  0  0  0  # atno 7974 bound_to 7965
  155.9556  140.1134  157.0940 H   0  0  0  0  0  0  0  0  0  0  0  0  # atno 8008 bound_to 7997
  154.4120  140.1192  156.5177 H   0  0  0  0  0  0  0  0  0  0  0  0  # atno 8009 bound_to 7997
  155.6786  140.3473  155.4848 H   0  0  0  0  0  0  0  0  0  0  0  0  # atno 8010 bound_to 7997
  140.0957  143.4659  152.1843 H   0  0  0  0  0  0  0  0  0  0  0  0  # atno 10167 bound_to 10162
  156.0261  130.4405  150.2817 H   0  0  0  0  0  0  0  0  0  0  0  0  # atno 10718 bound_to 10713
  153.8786  135.6824  153.4768 H   0  0  0  0  0  0  0  0  0  0  0  0  # atno 10763 bound_to 10752
  153.1246  135.4724  154.9249 H   0  0  0  0  0  0  0  0  0  0  0  0  # atno 10764 bound_to 10752
  154.7679  135.3230  154.8200 H   0  0  0  0  0  0  0  0  0  0  0  0  # atno 10765 bound_to 10752
  140.6576  133.9349  155.8417 H   0  0  0  0  0  0  0  0  0  0  0  0  # atno 11005 bound_to 11000
  145.8911  139.2376  143.1548 LP  0  0  0  0  0  0  0  0  0  0  0  0  # atno 17320 bound_to 7965
  145.9902  140.8609  143.0070 LP  0  0  0  0  0  0  0  0  0  0  0  0  # atno 17321 bound_to 7965
  139.5699  144.7457  151.3918 LP  0  0  0  0  0  0  0  0  0  0  0  0  # atno 17342 bound_to 10162
  140.7005  143.7644  150.7395 LP  0  0  0  0  0  0  0  0  0  0  0  0  # atno 17343 bound_to 10162
  157.0920  131.0172  151.3118 LP  0  0  0  0  0  0  0  0  0  0  0  0  # atno 17370 bound_to 10713
  157.4847  130.7786  149.7448 LP  0  0  0  0  0  0  0  0  0  0  0  0  # atno 17371 bound_to 10713
  141.0490  134.0513  157.3808 LP  0  0  0  0  0  0  0  0  0  0  0  0  # atno 17394 bound_to 11000
  139.9024  135.0169  156.7330 LP  0  0  0  0  0  0  0  0  0  0  0  0  # atno 17395 bound_to 11000

$$$$
