AV-unprocessed.smi:855|AV-procd|sdf|3957|dock2
  -GOLD-   22720 1423D 1   1.00000     0.00000
 Structure written by MMmdl.
 35 36  0  0  0  0  0  0  0  0  3 V2000
  151.3140  141.0927  156.0210 C   0  0  0  0  0  0  0  0  0  0  0  0
  151.6034  139.7014  155.5710 C   0  0  0  0  0  0  0  0  0  0  0  0
  150.8002  138.6599  155.2019 C   0  0  0  0  0  0  0  0  0  0  0  0
  151.7279  137.6261  154.8985 C   0  0  0  0  0  0  0  0  0  0  0  0
  151.4222  136.3905  154.4731 N   0  5  0  0  0  0  0  0  0  0  0  0
  150.4567  135.6767  155.0957 C   0  0  0  0  0  0  0  0  0  0  0  0
  150.3330  135.5149  156.3120 O   0  0  0  0  0  0  0  0  0  0  0  0
  149.5780  135.1121  154.2573 N   0  0  0  0  0  0  0  0  0  0  0  0
  148.4545  134.2809  154.6652 C   0  0  0  0  0  0  0  0  0  0  0  0
  147.1263  134.9173  154.2320 C   0  0  0  0  0  0  0  0  0  0  0  0
  146.9295  134.8371  152.7661 N   0  3  0  0  0  0  0  0  0  0  0  0
  146.9734  133.4758  152.1973 C   0  0  0  0  0  0  0  0  0  0  0  0
  146.3030  133.5858  150.8253 C   0  0  0  0  0  0  0  0  0  0  0  0
  145.4338  134.8478  150.8940 C   0  0  0  0  0  0  0  0  0  0  0  0
  145.6653  135.4299  152.2919 C   0  0  0  0  0  0  0  0  0  0  0  0
  152.9835  138.0120  155.0529 N   0  0  0  0  0  0  0  0  0  0  0  0
  152.9123  139.3397  155.4912 O   0  0  0  0  0  0  0  0  0  0  0  0
  150.6283  141.5861  155.3320 H   0  0  0  0  0  0  0  0  0  0  0  0
  152.2264  141.6872  156.0722 H   0  0  0  0  0  0  0  0  0  0  0  0
  150.8564  141.0898  157.0103 H   0  0  0  0  0  0  0  0  0  0  0  0
  149.7215  138.6387  155.1595 H   0  0  0  0  0  0  0  0  0  0  0  0
  149.7110  135.2647  153.2681 H   0  0  0  0  0  0  0  0  0  0  0  0
  148.5575  133.2902  154.2194 H   0  0  0  0  0  0  0  0  0  0  0  0
  148.4864  134.1557  155.7483 H   0  0  0  0  0  0  0  0  0  0  0  0
  146.2875  134.4469  154.7476 H   0  0  0  0  0  0  0  0  0  0  0  0
  147.1254  135.9685  154.5243 H   0  0  0  0  0  0  0  0  0  0  0  0
  147.9925  133.0942  152.1286 H   0  0  0  0  0  0  0  0  0  0  0  0
  146.4006  132.7963  152.8308 H   0  0  0  0  0  0  0  0  0  0  0  0
  147.0577  133.7002  150.0459 H   0  0  0  0  0  0  0  0  0  0  0  0
  145.7210  132.6944  150.5894 H   0  0  0  0  0  0  0  0  0  0  0  0
  145.7511  135.5582  150.1296 H   0  0  0  0  0  0  0  0  0  0  0  0
  144.3792  134.6302  150.7223 H   0  0  0  0  0  0  0  0  0  0  0  0
  144.8513  135.1265  152.9527 H   0  0  0  0  0  0  0  0  0  0  0  0
  145.7085  136.5195  152.2896 H   0  0  0  0  0  0  0  0  0  0  0  0
  147.6729  135.3629  152.3286 H   0  0  0  0  0  0  0  0  0  0  0  0
  1  2  1  0  0  0  0
  1 18  1  0  0  0  0
  1 19  1  0  0  0  0
  1 20  1  0  0  0  0
  2 17  1  0  0  0  0
  2  3  2  0  0  0  0
  3  4  1  0  0  0  0
  3 21  1  0  0  0  0
  4  5  1  0  0  0  0
  4 16  2  0  0  0  0
  5  6  1  0  0  0  0
  6  7  2  0  0  0  0
  6  8  1  0  0  0  0
  8  9  1  0  0  0  0
  8 22  1  0  0  0  0
  9 10  1  0  0  0  0
  9 23  1  0  0  0  0
  9 24  1  0  0  0  0
 10 11  1  0  0  0  0
 10 25  1  0  0  0  0
 10 26  1  0  0  0  0
 11 15  1  0  0  0  0
 11 12  1  0  0  0  0
 11 35  1  0  0  0  0
 12 13  1  0  0  0  0
 12 27  1  0  0  0  0
 12 28  1  0  0  0  0
 13 14  1  0  0  0  0
 13 29  1  0  0  0  0
 13 30  1  0  0  0  0
 14 15  1  0  0  0  0
 14 31  1  0  0  0  0
 14 32  1  0  0  0  0
 15 33  1  0  0  0  0
 15 34  1  0  0  0  0
 16 17  1  0  0  0  0
M  CHG  1   5  -1
M  CHG  1  11   1
M  END
> <s_m_source_file>
AV-unprocessed.smi

> <i_m_source_file_index>
855

> <i_lp_mmshare_version>
43012

> <i_f3d_flags>
0

> <s_epik_input>
W0NIM11jMVtjSF1jKG5vMSlbTkhdQyg9TylbTkhdW0NIMl1bQ0gyXU4yW0NIMl1bQ0gyXVtDSDJdW0NIMl0y

> <s_epik_cmdline>
J2VwaWtfcHl0aG9uJywgJy1waCcsICc3LjAnLCAnLXRuJywgJzgnLCAnLW1hJywgJzIwMCcsICctbWV0YWxfYmluZGluZycsICctaW1hZScsICc8aW5maWxlLm1hZT4nLCAnLW9tYWUnLCAnPG91dGZpbGUubWFlPic=

> <r_epik_Ionization_Penalty>
6.22372

> <r_epik_Ionization_Penalty_Charging>
6.22363

> <r_epik_Ionization_Penalty_Neutral>
9.36971e-05

> <r_epik_State_Penalty>
6.22291

> <r_epik_Charging_Adjusted_Penalty>
12.4465

> <i_epik_Tot_Q>
0

> <i_epik_Tot_abs_Q>
2

> <r_epik_Metal_State_Penalty>
2.16624

> <b_epik_Metal_Only>
1

> <s_lp_Force_Field>
OPLS_2005

> <r_lp_Energy>
15.2309

> <b_lp_Chiralities_Consistent>
1

> <s_lp_Variant>
AV-unprocessed.smi:855-2

> <Gold.Version>
5.8.1

> <Gold.Id.Protein>
6NUR|6NUR_protein|mol2

> <Gold.PLP.Fitness>
43.0982

> <Gold.PLP.PLP>
-29.2685

> <Gold.PLP.part.hbond>
-4.8085

> <Gold.PLP.part.metal>
0.0000

> <Gold.PLP.part.buried>
-3.4823

> <Gold.PLP.part.nonpolar>
-21.5122

> <Gold.PLP.part.repulsive>
0.9476

> <Gold.PLP.ligand.clash>
0.0000

> <Gold.PLP.ligand.torsion>
0.8377

> <Gold.PLP.Chemscore.Hbond>
5.1536

> <Gold.PLP.Chemscore.CHOScore>
0.0000

> <Gold.PLP.Chemscore.Metal>
0.0000

> <Gold.Chemscore.Hbonds>
donor molecule, donor type, donor heavy atom, donor atom, acceptor molecule, acceptor atom, score
      L1  H     8    22       P1  7948  0.25
      L1  H    11    35       P1  7948  2.00
      P1  H  7997  8008       L1    17  1.00
      P1  H 10752 10764       L1     5  2.00

> <Gold.PLP.Chemscore.Internal.Correction>
0.0444

> <Gold.Rescore>
     Score         DG    S(hbond)    S(metal)    S(lipo)     H(rot)  DE(clash)    DE(int)     intcor
     14.93     -15.84       2.63        0.00      47.93       1.57       0.00       0.90       ----

> <Gold.Chemscore.Fitness>
14.9332

> <Gold.Chemscore.DG>
-15.8367

> <Gold.Chemscore.ZeroCoef>
-5.4800

> <Gold.Chemscore.Hbond>
2.6275

> <Gold.Chemscore.Metal>
0.0000

> <Gold.Chemscore.Lipo>
47.9308

> <Gold.Chemscore.Internal_Hbond>
0.0000

> <Gold.Chemscore.DEClash>
0.0000

> <Gold.Chemscore.DEInternal>
0.9036

> <Gold.Chemscore.Rot>
1.5731

> <Gold.Chemscore.Internal.Correction>
   9.000000E+99

> <Gold.Chemscore.Hbonds>
donor molecule, donor type, donor heavy atom, donor atom, acceptor molecule, acceptor atom, score
      L1  H    11    35       P1  7948  0.98
      P1  H  7997  8008       L1    17  0.98
      P1  H 10752 10764       L1     5  0.42

> <Gold.Chemscore.Hbond.Weighted>
-8.7759

> <Gold.Chemscore.Metal.Weighted>
-0.0000

> <Gold.Chemscore.Lipo.Weighted>
-5.6079

> <Gold.Chemscore.Internal_Hbond.Weighted>
0.0000

> <Gold.Chemscore.DEClash.Weighted>
0.0000

> <Gold.Chemscore.DEInternal.Weighted>
0.9036

> <Gold.Chemscore.Rot.Weighted>
4.0271

> <Gold.Chemscore.Internal.Correction.Weighted>
   9.000000E+99

> <Gold.Protein.RotatedTorsions>
[ 6907 6896 6895 6894 ] final   92.79 input  -60.11 | X-H torsion
[ 7974 7965 7964 7962 ] final  -35.31 input  175.53 | X-H torsion
[ 8008 7997 7996 7995 ] final  -33.12 input   59.86 | X-H torsion
[ 10167 10162 10161 10158 ] final -111.09 input  -65.29 | X-H torsion
[ 10718 10713 10712 10709 ] final   86.45 input   66.30 | X-H torsion
[ 10763 10752 10751 10750 ] final  -77.64 input  -60.55 | X-H torsion
[ 11005 11000 10999 10996 ] final  117.50 input  -57.11 | X-H torsion

> <Gold.Protein.ActiveResidues>
 VAL166  LYS551  ARG553  GLY616  TRP617  ASP618  TYR619  PRO620  LYS621  CYS622 
 ASP623  PHE694  ASN695  SER759  ASP760  ASP761  ALA762  ILE779  LEU786  VAL792 
 PHE793  MET794  SER795  GLU796  ALA797  LYS798  CYS799  TRP800  GLU811  SER814 

> <Gold.Protein.RotatedAtoms>
  152.5453  134.1448  159.8493 H   0  0  0  0  0  0  0  0  0  0  0  0  # atno 6907 bound_to 6896
  151.1480  133.4919  159.2603 H   0  0  0  0  0  0  0  0  0  0  0  0  # atno 6908 bound_to 6896
  151.1502  135.0234  159.8720 H   0  0  0  0  0  0  0  0  0  0  0  0  # atno 6909 bound_to 6896
  146.0757  140.6144  142.8932 H   0  0  0  0  0  0  0  0  0  0  0  0  # atno 7974 bound_to 7965
  154.4159  140.1719  156.1836 H   0  0  0  0  0  0  0  0  0  0  0  0  # atno 8008 bound_to 7997
  155.9661  140.3389  155.6510 H   0  0  0  0  0  0  0  0  0  0  0  0  # atno 8009 bound_to 7997
  155.6685  140.0709  157.2519 H   0  0  0  0  0  0  0  0  0  0  0  0  # atno 8010 bound_to 7997
  140.1374  143.4309  152.1586 H   0  0  0  0  0  0  0  0  0  0  0  0  # atno 10167 bound_to 10162
  157.6929  131.0216  150.2974 H   0  0  0  0  0  0  0  0  0  0  0  0  # atno 10718 bound_to 10713
  154.5156  135.5757  153.6639 H   0  0  0  0  0  0  0  0  0  0  0  0  # atno 10763 bound_to 10752
  152.9906  135.6169  154.2822 H   0  0  0  0  0  0  0  0  0  0  0  0  # atno 10764 bound_to 10752
  154.2739  135.2852  155.2706 H   0  0  0  0  0  0  0  0  0  0  0  0  # atno 10765 bound_to 10752
  139.9077  134.9611  156.7361 H   0  0  0  0  0  0  0  0  0  0  0  0  # atno 11005 bound_to 11000
  144.7260  140.4525  143.6973 LP  0  0  0  0  0  0  0  0  0  0  0  0  # atno 17320 bound_to 7965
  145.6310  139.1536  143.2969 LP  0  0  0  0  0  0  0  0  0  0  0  0  # atno 17321 bound_to 7965
  139.5489  144.7321  151.4496 LP  0  0  0  0  0  0  0  0  0  0  0  0  # atno 17342 bound_to 10162
  140.6781  143.8144  150.7085 LP  0  0  0  0  0  0  0  0  0  0  0  0  # atno 17343 bound_to 10162
  156.3495  130.3828  149.7341 LP  0  0  0  0  0  0  0  0  0  0  0  0  # atno 17370 bound_to 10713
  156.4823  130.8047  151.3060 LP  0  0  0  0  0  0  0  0  0  0  0  0  # atno 17371 bound_to 10713
  140.6887  133.9410  155.7953 LP  0  0  0  0  0  0  0  0  0  0  0  0  # atno 17394 bound_to 11000
  141.0458  134.0556  157.3846 LP  0  0  0  0  0  0  0  0  0  0  0  0  # atno 17395 bound_to 11000

$$$$
