AV-unprocessed.smi:1213|AV-procd|sdf|5088|dock2
  -GOLD-   22720 4143D 1   1.00000     0.00000
 Structure written by MMmdl.
 36 37  0  0  0  0  0  0  0  0  3 V2000
  144.9508  137.9944  151.4336 N   0  5  0  0  0  0  0  0  0  0  0  0
  146.1140  137.7868  152.0794 C   0  0  0  0  0  0  0  0  0  0  0  0
  146.3303  137.0265  153.0209 O   0  0  0  0  0  0  0  0  0  0  0  0
  147.2632  138.6165  151.4977 C   0  0  0  0  0  0  0  0  0  0  0  0
  147.7697  139.5720  152.5141 N   0  3  2  0  0  0  0  0  0  0  0  0
  148.2207  138.8907  153.7540 C   0  0  0  0  0  0  0  0  0  0  0  0
  148.8740  139.8849  154.7289 C   0  0  0  0  0  0  0  0  0  0  0  0
  147.9187  141.0405  155.0672 C   0  0  1  0  0  0  0  0  0  0  0  0
  148.5932  142.0106  155.9249 N   0  0  0  0  0  0  0  0  0  0  0  0
  149.2253  141.7165  157.0706 C   0  0  0  0  0  0  0  0  0  0  0  0
  149.3127  140.5741  157.5219 O   0  0  0  0  0  0  0  0  0  0  0  0
  149.7329  142.8210  157.6454 N   0  0  0  0  0  0  0  0  0  0  0  0
  150.4551  142.9222  158.8635 C   0  0  0  0  0  0  0  0  0  0  0  0
  150.6702  141.9002  159.7002 N   0  0  0  0  0  0  0  0  0  0  0  0
  151.4099  142.2866  160.8208 C   0  0  0  0  0  0  0  0  0  0  0  0
  151.7513  143.6161  160.8214 C   0  0  0  0  0  0  0  0  0  0  0  0
  151.1567  144.4400  159.4047 S   0  0  0  0  0  0  0  0  0  0  0  0
  147.4347  141.7050  153.7657 C   0  0  0  0  0  0  0  0  0  0  0  0
  146.8132  140.6722  152.8119 C   0  0  0  0  0  0  0  0  0  0  0  0
  144.3648  138.7892  151.7169 H   0  0  0  0  0  0  0  0  0  0  0  0
  148.0781  138.0001  151.1116 H   0  0  0  0  0  0  0  0  0  0  0  0
  146.8568  139.1604  150.6438 H   0  0  0  0  0  0  0  0  0  0  0  0
  147.3705  138.3986  154.2293 H   0  0  0  0  0  0  0  0  0  0  0  0
  148.9409  138.1106  153.5048 H   0  0  0  0  0  0  0  0  0  0  0  0
  149.1704  139.3649  155.6406 H   0  0  0  0  0  0  0  0  0  0  0  0
  149.7901  140.2770  154.2841 H   0  0  0  0  0  0  0  0  0  0  0  0
  147.0587  140.6281  155.5990 H   0  0  0  0  0  0  0  0  0  0  0  0
  148.5699  142.9754  155.6287 H   0  0  0  0  0  0  0  0  0  0  0  0
  149.5791  143.6929  157.1608 H   0  0  0  0  0  0  0  0  0  0  0  0
  151.6488  141.5484  161.5720 H   0  0  0  0  0  0  0  0  0  0  0  0
  152.3144  144.1582  161.5666 H   0  0  0  0  0  0  0  0  0  0  0  0
  146.7028  142.4826  153.9877 H   0  0  0  0  0  0  0  0  0  0  0  0
  148.2697  142.2000  153.2674 H   0  0  0  0  0  0  0  0  0  0  0  0
  146.5161  141.1751  151.8914 H   0  0  0  0  0  0  0  0  0  0  0  0
  145.9042  140.2572  153.2502 H   0  0  0  0  0  0  0  0  0  0  0  0
  148.5904  139.9967  152.1062 H   0  0  0  0  0  0  0  0  0  0  0  0
  1  2  1  0  0  0  0
  1 20  1  0  0  0  0
  2  3  2  0  0  0  0
  2  4  1  0  0  0  0
  4  5  1  0  0  0  0
  4 21  1  0  0  0  0
  4 22  1  0  0  0  0
  5 19  1  0  0  0  0
  5  6  1  0  0  0  0
  5 36  1  0  0  0  0
  6  7  1  0  0  0  0
  6 23  1  0  0  0  0
  6 24  1  0  0  0  0
  7  8  1  0  0  0  0
  7 25  1  0  0  0  0
  7 26  1  0  0  0  0
  8  9  1  0  0  0  0
  8 18  1  0  0  0  0
  8 27  1  0  0  0  0
  9 10  1  0  0  0  0
  9 28  1  0  0  0  0
 10 11  2  0  0  0  0
 10 12  1  0  0  0  0
 12 13  1  0  0  0  0
 12 29  1  0  0  0  0
 13 17  1  0  0  0  0
 13 14  2  0  0  0  0
 14 15  1  0  0  0  0
 15 16  2  0  0  0  0
 15 30  1  0  0  0  0
 16 17  1  0  0  0  0
 16 31  1  0  0  0  0
 18 19  1  0  0  0  0
 18 32  1  0  0  0  0
 18 33  1  0  0  0  0
 19 34  1  0  0  0  0
 19 35  1  0  0  0  0
M  CHG  1   1  -1
M  CHG  1   5   1
M  END
> <s_m_source_file>
AV-unprocessed.smi

> <i_m_source_file_index>
1213

> <i_lp_mmshare_version>
43012

> <i_f3d_flags>
0

> <s_epik_input>
W05IMl1DKD1PKVtDSDJdTjFbQ0gyXVtDSDJdW0NIXShbQ0gyXVtDSDJdMSlbTkhdQyg9TylbTkhdYzJuW2NIXVtjSF1zMg==

> <s_epik_cmdline>
J2VwaWtfcHl0aG9uJywgJy1waCcsICc3LjAnLCAnLXRuJywgJzgnLCAnLW1hJywgJzIwMCcsICctbWV0YWxfYmluZGluZycsICctaW1hZScsICc8aW5maWxlLm1hZT4nLCAnLW9tYWUnLCAnPG91dGZpbGUubWFlPic=

> <r_lp_tautomer_probability>
0.999

> <r_epik_Ionization_Penalty>
5.73166

> <r_epik_Ionization_Penalty_Charging>
5.73152

> <r_epik_Ionization_Penalty_Neutral>
0.000139308

> <r_epik_State_Penalty>
6.57436

> <r_epik_Charging_Adjusted_Penalty>
12.3059

> <i_epik_Tot_Q>
0

> <i_epik_Tot_abs_Q>
2

> <r_epik_Metal_State_Penalty>
2.57084

> <b_epik_Metal_Only>
1

> <s_lp_Force_Field>
OPLS_2005

> <r_lp_Energy>
5.64095

> <b_lp_Chiralities_Consistent>
1

> <s_lp_Variant>
AV-unprocessed.smi:1213-5

> <Gold.Version>
5.8.1

> <Gold.Id.Protein>
6NUR|6NUR_protein|mol2

> <Gold.PLP.Fitness>
48.7434

> <Gold.PLP.PLP>
-37.1121

> <Gold.PLP.part.hbond>
-4.6996

> <Gold.PLP.part.metal>
0.0000

> <Gold.PLP.part.buried>
-2.3209

> <Gold.PLP.part.nonpolar>
-31.2319

> <Gold.PLP.part.repulsive>
0.3785

> <Gold.PLP.ligand.clash>
0.0000

> <Gold.PLP.ligand.torsion>
0.0898

> <Gold.PLP.Chemscore.Hbond>
3.9280

> <Gold.PLP.Chemscore.CHOScore>
0.0000

> <Gold.PLP.Chemscore.Metal>
0.0000

> <Gold.Chemscore.Hbonds>
donor molecule, donor type, donor heavy atom, donor atom, acceptor molecule, acceptor atom, score
      L1  H     1    20       P1 10175  1.00
      L1  H     5    36       P1  7957  0.62
      L1  H     9    28       P1  8028  1.00
      L1  H    12    29       P1  8028  1.00

> <Gold.PLP.Chemscore.Internal.Correction>
0.0268

> <Gold.Rescore>
     Score         DG    S(hbond)    S(metal)    S(lipo)     H(rot)  DE(clash)    DE(int)     intcor
     18.24     -22.87       3.96        0.00      80.22       2.04       1.58       3.05       ----

> <Gold.Chemscore.Fitness>
18.2356

> <Gold.Chemscore.DG>
-22.8678

> <Gold.Chemscore.ZeroCoef>
-5.4800

> <Gold.Chemscore.Hbond>
3.9555

> <Gold.Chemscore.Metal>
0.0000

> <Gold.Chemscore.Lipo>
80.2227

> <Gold.Chemscore.Internal_Hbond>
0.0000

> <Gold.Chemscore.DEClash>
1.5835

> <Gold.Chemscore.DEInternal>
3.0487

> <Gold.Chemscore.Rot>
2.0350

> <Gold.Chemscore.Internal.Correction>
   9.000000E+99

> <Gold.Chemscore.Hbonds>
donor molecule, donor type, donor heavy atom, donor atom, acceptor molecule, acceptor atom, score
      L1  H     1    20       P1 10175  0.99
      L1  H     5    36       P1  7957  0.60
      L1  H     9    28       P1  8028  0.99
      L1  H    12    29       P1  8028  0.79

> <Gold.Chemscore.Hbond.Weighted>
-13.2114

> <Gold.Chemscore.Metal.Weighted>
-0.0000

> <Gold.Chemscore.Lipo.Weighted>
-9.3861

> <Gold.Chemscore.Internal_Hbond.Weighted>
0.0000

> <Gold.Chemscore.DEClash.Weighted>
1.5835

> <Gold.Chemscore.DEInternal.Weighted>
3.0487

> <Gold.Chemscore.Rot.Weighted>
5.2096

> <Gold.Chemscore.Internal.Correction.Weighted>
   9.000000E+99

> <Gold.Protein.RotatedTorsions>
[ 6907 6896 6895 6894 ] final   89.50 input  -60.11 | X-H torsion
[ 7974 7965 7964 7962 ] final   95.97 input  175.53 | X-H torsion
[ 8008 7997 7996 7995 ] final  -61.66 input   59.86 | X-H torsion
[ 10167 10162 10161 10158 ] final  -19.41 input  -65.29 | X-H torsion
[ 10718 10713 10712 10709 ] final  162.38 input   66.30 | X-H torsion
[ 10763 10752 10751 10750 ] final   42.74 input  -60.55 | X-H torsion
[ 11005 11000 10999 10996 ] final  -97.39 input  -57.11 | X-H torsion

> <Gold.Protein.ActiveResidues>
 VAL166  LYS551  ARG553  GLY616  TRP617  ASP618  TYR619  PRO620  LYS621  CYS622 
 ASP623  PHE694  ASN695  SER759  ASP760  ASP761  ALA762  ILE779  LEU786  VAL792 
 PHE793  MET794  SER795  GLU796  ALA797  LYS798  CYS799  TRP800  GLU811  SER814 

> <Gold.Protein.RotatedAtoms>
  152.5437  134.1957  159.8691 H   0  0  0  0  0  0  0  0  0  0  0  0  # atno 6907 bound_to 6896
  151.1949  133.4638  159.2603 H   0  0  0  0  0  0  0  0  0  0  0  0  # atno 6908 bound_to 6896
  151.1047  135.0004  159.8521 H   0  0  0  0  0  0  0  0  0  0  0  0  # atno 6909 bound_to 6896
  145.4451  139.2298  143.3071 H   0  0  0  0  0  0  0  0  0  0  0  0  # atno 7974 bound_to 7965
  154.4459  140.1013  156.6465 H   0  0  0  0  0  0  0  0  0  0  0  0  # atno 8008 bound_to 7997
  155.5444  140.3484  155.4435 H   0  0  0  0  0  0  0  0  0  0  0  0  # atno 8009 bound_to 7997
  156.0574  140.1318  156.9970 H   0  0  0  0  0  0  0  0  0  0  0  0  # atno 8010 bound_to 7997
  140.7268  143.4822  151.0103 H   0  0  0  0  0  0  0  0  0  0  0  0  # atno 10167 bound_to 10162
  157.1233  131.0498  151.2405 H   0  0  0  0  0  0  0  0  0  0  0  0  # atno 10718 bound_to 10713
  152.9876  135.6122  154.2999 H   0  0  0  0  0  0  0  0  0  0  0  0  # atno 10763 bound_to 10752
  154.2720  135.2779  155.2736 H   0  0  0  0  0  0  0  0  0  0  0  0  # atno 10764 bound_to 10752
  154.5114  135.5840  153.6664 H   0  0  0  0  0  0  0  0  0  0  0  0  # atno 10765 bound_to 10752
  141.1380  133.8167  157.0699 H   0  0  0  0  0  0  0  0  0  0  0  0  # atno 11005 bound_to 11000
  146.2535  140.5204  142.8883 LP  0  0  0  0  0  0  0  0  0  0  0  0  # atno 17320 bound_to 7965
  144.8097  140.6363  143.6423 LP  0  0  0  0  0  0  0  0  0  0  0  0  # atno 17321 bound_to 7965
  139.8521  143.7425  152.3177 LP  0  0  0  0  0  0  0  0  0  0  0  0  # atno 17342 bound_to 10162
  139.7610  144.7506  151.0363 LP  0  0  0  0  0  0  0  0  0  0  0  0  # atno 17343 bound_to 10162
  157.4457  130.7569  149.7107 LP  0  0  0  0  0  0  0  0  0  0  0  0  # atno 17370 bound_to 10713
  155.9823  130.4010  150.3421 LP  0  0  0  0  0  0  0  0  0  0  0  0  # atno 17371 bound_to 10713
  140.0518  134.9801  157.1149 LP  0  0  0  0  0  0  0  0  0  0  0  0  # atno 17394 bound_to 11000
  140.3979  134.2114  155.7164 LP  0  0  0  0  0  0  0  0  0  0  0  0  # atno 17395 bound_to 11000

$$$$
