AV-unprocessed.smi:2442|AV-procd|sdf|9624|dock6
  -GOLD-   2272013253D 1   1.00000     0.00000
 Structure written by MMmdl.
 46 47  0  0  0  0  0  0  0  0  1 V2000
  145.5642  136.5659  151.7098 C   0  0  0  0  0  0  0  0  0  0  0  0
  145.1771  135.3428  151.1036 O   0  0  0  0  0  0  0  0  0  0  0  0
  144.7538  134.3410  152.0239 C   0  0  1  0  0  0  0  0  0  0  0  0
  143.6118  133.4942  151.4224 C   0  0  0  0  0  0  0  0  0  0  0  0
  144.0828  132.6760  150.2088 C   0  0  0  0  0  0  0  0  0  0  0  0
  145.2875  131.7927  150.5668 C   0  0  0  0  0  0  0  0  0  0  0  0
  146.4351  132.6290  151.1541 C   0  0  0  0  0  0  0  0  0  0  0  0
  145.9690  133.4483  152.3733 C   0  0  1  0  0  0  0  0  0  0  0  0
  147.0802  134.2429  152.8909 N   0  0  0  0  0  0  0  0  0  0  0  0
  147.5141  134.2319  154.1585 C   0  0  0  0  0  0  0  0  0  0  0  0
  147.0292  133.5326  155.0487 O   0  0  0  0  0  0  0  0  0  0  0  0
  148.5332  135.0823  154.3440 N   0  0  0  0  0  0  0  0  0  0  0  0
  149.1945  135.3141  155.6224 C   0  0  0  0  0  0  0  0  0  0  0  0
  150.6565  135.7480  155.4260 C   0  0  0  0  0  0  0  0  0  0  0  0
  150.7877  137.2505  155.2356 C   0  0  0  0  0  0  0  0  0  0  0  0
  149.9010  137.9216  154.3675 C   0  0  0  0  0  0  0  0  0  0  0  0
  150.0408  139.3132  154.1996 C   0  0  0  0  0  0  0  0  0  0  0  0
  150.9839  140.0444  154.8288 N   0  0  0  0  0  0  0  0  0  0  0  0
  151.8322  139.3997  155.6573 C   0  0  0  0  0  0  0  0  0  0  0  0
  151.7842  138.0094  155.8982 C   0  0  0  0  0  0  0  0  0  0  0  0
  152.7843  137.3729  156.8474 C   0  0  0  0  0  0  0  0  0  0  0  0
  145.8862  137.2657  150.9389 H   0  0  0  0  0  0  0  0  0  0  0  0
  146.3999  136.4186  152.3951 H   0  0  0  0  0  0  0  0  0  0  0  0
  144.7412  137.0280  152.2546 H   0  0  0  0  0  0  0  0  0  0  0  0
  144.3972  134.8151  152.9401 H   0  0  0  0  0  0  0  0  0  0  0  0
  143.2364  132.8122  152.1863 H   0  0  0  0  0  0  0  0  0  0  0  0
  142.7662  134.1217  151.1431 H   0  0  0  0  0  0  0  0  0  0  0  0
  143.2651  132.0563  149.8398 H   0  0  0  0  0  0  0  0  0  0  0  0
  144.3512  133.3497  149.3939 H   0  0  0  0  0  0  0  0  0  0  0  0
  144.9826  131.0333  151.2880 H   0  0  0  0  0  0  0  0  0  0  0  0
  145.6322  131.2578  149.6813 H   0  0  0  0  0  0  0  0  0  0  0  0
  147.2570  131.9707  151.4376 H   0  0  0  0  0  0  0  0  0  0  0  0
  146.8263  133.2963  150.3848 H   0  0  0  0  0  0  0  0  0  0  0  0
  145.6660  132.7425  153.1493 H   0  0  0  0  0  0  0  0  0  0  0  0
  147.5402  134.8578  152.2356 H   0  0  0  0  0  0  0  0  0  0  0  0
  148.8631  135.6157  153.5529 H   0  0  0  0  0  0  0  0  0  0  0  0
  148.6438  136.0630  156.1940 H   0  0  0  0  0  0  0  0  0  0  0  0
  149.1538  134.3927  156.2039 H   0  0  0  0  0  0  0  0  0  0  0  0
  151.2469  135.4501  156.2936 H   0  0  0  0  0  0  0  0  0  0  0  0
  151.1005  135.2283  154.5770 H   0  0  0  0  0  0  0  0  0  0  0  0
  149.1292  137.3831  153.8376 H   0  0  0  0  0  0  0  0  0  0  0  0
  149.3769  139.8537  153.5412 H   0  0  0  0  0  0  0  0  0  0  0  0
  152.5742  140.0162  156.1432 H   0  0  0  0  0  0  0  0  0  0  0  0
  153.5503  138.0872  157.1506 H   0  0  0  0  0  0  0  0  0  0  0  0
  153.2855  136.5283  156.3748 H   0  0  0  0  0  0  0  0  0  0  0  0
  152.2804  137.0181  157.7467 H   0  0  0  0  0  0  0  0  0  0  0  0
  1  2  1  0  0  0  0
  1 22  1  0  0  0  0
  1 23  1  0  0  0  0
  1 24  1  0  0  0  0
  2  3  1  0  0  0  0
  3  8  1  0  0  0  0
  3  4  1  0  0  0  0
  3 25  1  0  0  0  0
  4  5  1  0  0  0  0
  4 26  1  0  0  0  0
  4 27  1  0  0  0  0
  5  6  1  0  0  0  0
  5 28  1  0  0  0  0
  5 29  1  0  0  0  0
  6  7  1  0  0  0  0
  6 30  1  0  0  0  0
  6 31  1  0  0  0  0
  7  8  1  0  0  0  0
  7 32  1  0  0  0  0
  7 33  1  0  0  0  0
  8  9  1  0  0  0  0
  8 34  1  0  0  0  0
  9 10  1  0  0  0  0
  9 35  1  0  0  0  0
 10 11  2  0  0  0  0
 10 12  1  0  0  0  0
 12 13  1  0  0  0  0
 12 36  1  0  0  0  0
 13 14  1  0  0  0  0
 13 37  1  0  0  0  0
 13 38  1  0  0  0  0
 14 15  1  0  0  0  0
 14 39  1  0  0  0  0
 14 40  1  0  0  0  0
 15 20  1  0  0  0  0
 15 16  2  0  0  0  0
 16 17  1  0  0  0  0
 16 41  1  0  0  0  0
 17 18  2  0  0  0  0
 17 42  1  0  0  0  0
 18 19  1  0  0  0  0
 19 20  2  0  0  0  0
 19 43  1  0  0  0  0
 20 21  1  0  0  0  0
 21 44  1  0  0  0  0
 21 45  1  0  0  0  0
 21 46  1  0  0  0  0
M  END
> <s_m_source_file>
AV-unprocessed.smi

> <i_m_source_file_index>
2442

> <i_lp_mmshare_version>
43012

> <i_f3d_flags>
0

> <s_epik_input>
W0NIM11PW0NAQEhdMVtDSDJdW0NIMl1bQ0gyXVtDSDJdW0NASF0xW05IXUMoPU8pW05IXVtDSDJdW0NIMl1jMltjSF1bY0hdbltjSF1jMltDSDNd

> <s_epik_cmdline>
J2VwaWtfcHl0aG9uJywgJy1waCcsICc3LjAnLCAnLXRuJywgJzgnLCAnLW1hJywgJzIwMCcsICctbWV0YWxfYmluZGluZycsICctaW1hZScsICc8aW5maWxlLm1hZT4nLCAnLW9tYWUnLCAnPG91dGZpbGUubWFlPic=

> <r_epik_Ionization_Penalty>
0.106136

> <r_epik_Ionization_Penalty_Charging>
0

> <r_epik_Ionization_Penalty_Neutral>
0.106136

> <r_epik_State_Penalty>
0.0959393

> <r_epik_Charging_Adjusted_Penalty>
0.0959393

> <i_epik_Tot_Q>
0

> <i_epik_Tot_abs_Q>
0

> <r_epik_Metal_State_Penalty>
0.0812517

> <b_epik_Metal_Only>
0

> <s_lp_Force_Field>
OPLS_2005

> <r_lp_Energy>
9.97505

> <b_lp_Chiralities_Consistent>
1

> <s_lp_Variant>
AV-unprocessed.smi:2442-2

> <Gold.Version>
5.8.1

> <Gold.Id.Protein>
6NUR|6NUR_protein|mol2

> <Gold.PLP.Fitness>
43.7886

> <Gold.PLP.PLP>
-34.0270

> <Gold.PLP.part.hbond>
-3.0000

> <Gold.PLP.part.metal>
0.0000

> <Gold.PLP.part.buried>
-3.7160

> <Gold.PLP.part.nonpolar>
-28.2008

> <Gold.PLP.part.repulsive>
0.3177

> <Gold.PLP.ligand.clash>
0.0000

> <Gold.PLP.ligand.torsion>
1.0535

> <Gold.PLP.Chemscore.Hbond>
2.9920

> <Gold.PLP.Chemscore.CHOScore>
0.9454

> <Gold.PLP.Chemscore.Metal>
0.0000

> <Gold.Chemscore.Hbonds>
donor molecule, donor type, donor heavy atom, donor atom, acceptor molecule, acceptor atom, score
      L1  H     9    35       P1  7948  1.00
      L1  H    12    36       P1  7948  1.00
      P1  H  7989  7998       L1    18  1.00
      L1  C    17    42       P1  7957  0.91

> <Gold.PLP.Chemscore.Internal.Correction>
0.0564

> <Gold.Rescore>
     Score         DG    S(hbond)    S(metal)    S(lipo)     H(rot)  DE(clash)    DE(int)     intcor
     17.68     -18.90       2.04        0.00      92.28       1.64       0.10       1.12       ----

> <Gold.Chemscore.Fitness>
17.6757

> <Gold.Chemscore.DG>
-18.8956

> <Gold.Chemscore.ZeroCoef>
-5.4800

> <Gold.Chemscore.Hbond>
2.0396

> <Gold.Chemscore.Metal>
0.0000

> <Gold.Chemscore.Lipo>
92.2812

> <Gold.Chemscore.Internal_Hbond>
0.0000

> <Gold.Chemscore.DEClash>
0.0994

> <Gold.Chemscore.DEInternal>
1.1206

> <Gold.Chemscore.Rot>
1.6380

> <Gold.Chemscore.Internal.Correction>
   9.000000E+99

> <Gold.Chemscore.Hbonds>
donor molecule, donor type, donor heavy atom, donor atom, acceptor molecule, acceptor atom, score
      L1  H     9    35       P1  7948  0.84
      L1  H    12    36       P1  7948  0.90
      P1  H  7989  7998       L1    18  0.24

> <Gold.Chemscore.Hbond.Weighted>
-6.8121

> <Gold.Chemscore.Metal.Weighted>
-0.0000

> <Gold.Chemscore.Lipo.Weighted>
-10.7969

> <Gold.Chemscore.Internal_Hbond.Weighted>
0.0000

> <Gold.Chemscore.DEClash.Weighted>
0.0994

> <Gold.Chemscore.DEInternal.Weighted>
1.1206

> <Gold.Chemscore.Rot.Weighted>
4.1934

> <Gold.Chemscore.Internal.Correction.Weighted>
   9.000000E+99

> <Gold.Protein.RotatedTorsions>
[ 6907 6896 6895 6894 ] final  -14.12 input  -60.11 | X-H torsion
[ 7974 7965 7964 7962 ] final  -96.69 input  175.53 | X-H torsion
[ 8008 7997 7996 7995 ] final   87.72 input   59.86 | X-H torsion
[ 10167 10162 10161 10158 ] final   -3.31 input  -65.29 | X-H torsion
[ 10718 10713 10712 10709 ] final  178.01 input   66.30 | X-H torsion
[ 10763 10752 10751 10750 ] final  -29.50 input  -60.55 | X-H torsion
[ 11005 11000 10999 10996 ] final  -57.19 input  -57.11 | X-H torsion

> <Gold.Protein.ActiveResidues>
 VAL166  LYS551  ARG553  GLY616  TRP617  ASP618  TYR619  PRO620  LYS621  CYS622 
 ASP623  PHE694  ASN695  SER759  ASP760  ASP761  ALA762  ILE779  LEU786  VAL792 
 PHE793  MET794  SER795  GLU796  ALA797  LYS798  CYS799  TRP800  GLU811  SER814 

> <Gold.Protein.RotatedAtoms>
  151.3443  135.0870  159.9381 H   0  0  0  0  0  0  0  0  0  0  0  0  # atno 6907 bound_to 6896
  152.5203  133.9416  159.7639 H   0  0  0  0  0  0  0  0  0  0  0  0  # atno 6908 bound_to 6896
  150.9779  133.6222  159.2757 H   0  0  0  0  0  0  0  0  0  0  0  0  # atno 6909 bound_to 6896
  145.3435  140.9464  143.2594 H   0  0  0  0  0  0  0  0  0  0  0  0  # atno 7974 bound_to 7965
  155.9789  140.3379  155.6644 H   0  0  0  0  0  0  0  0  0  0  0  0  # atno 8008 bound_to 7997
  155.6575  140.0712  157.2583 H   0  0  0  0  0  0  0  0  0  0  0  0  # atno 8009 bound_to 7997
  154.4186  140.1714  156.1728 H   0  0  0  0  0  0  0  0  0  0  0  0  # atno 8010 bound_to 7997
  140.6885  143.6555  150.8312 H   0  0  0  0  0  0  0  0  0  0  0  0  # atno 10167 bound_to 10162
  156.8969  130.9866  151.3041 H   0  0  0  0  0  0  0  0  0  0  0  0  # atno 10718 bound_to 10713
  153.7656  135.6916  153.4916 H   0  0  0  0  0  0  0  0  0  0  0  0  # atno 10763 bound_to 10752
  153.1909  135.4471  155.0146 H   0  0  0  0  0  0  0  0  0  0  0  0  # atno 10764 bound_to 10752
  154.8137  135.3389  154.7169 H   0  0  0  0  0  0  0  0  0  0  0  0  # atno 10765 bound_to 10752
  141.1154  133.6610  156.4732 H   0  0  0  0  0  0  0  0  0  0  0  0  # atno 11005 bound_to 11000
  144.8772  139.4955  143.6740 LP  0  0  0  0  0  0  0  0  0  0  0  0  # atno 17320 bound_to 7965
  146.2997  139.7389  142.9100 LP  0  0  0  0  0  0  0  0  0  0  0  0  # atno 17321 bound_to 7965
  140.0265  143.5488  152.2778 LP  0  0  0  0  0  0  0  0  0  0  0  0  # atno 17342 bound_to 10162
  139.6265  144.7638  151.2627 LP  0  0  0  0  0  0  0  0  0  0  0  0  # atno 17343 bound_to 10162
  157.6050  130.8540  149.8861 LP  0  0  0  0  0  0  0  0  0  0  0  0  # atno 17370 bound_to 10713
  156.0601  130.3701  150.1001 LP  0  0  0  0  0  0  0  0  0  0  0  0  # atno 17371 bound_to 10713
  140.4661  134.6796  157.5108 LP  0  0  0  0  0  0  0  0  0  0  0  0  # atno 17394 bound_to 11000
  140.0072  134.6745  155.9436 LP  0  0  0  0  0  0  0  0  0  0  0  0  # atno 17395 bound_to 11000

$$$$
