AV-unprocessed.smi:245|AV-procd|sdf|1878|dock1
  -GOLD-   2262020523D 1   1.00000     0.00000
 Structure written by MMmdl.
 54 58  0  0  0  0  0  0  0  0  1 V2000
  146.2145  143.0644  154.1549 O   0  0  0  0  0  0  0  0  0  0  0  0
  146.9570  142.0857  154.1304 C   0  0  0  0  0  0  0  0  0  0  0  0
  146.3785  140.7052  153.7730 C   0  0  0  0  0  0  0  0  0  0  0  0
  147.3372  139.5876  153.8134 N   0  0  0  0  0  0  0  0  0  0  0  0
  146.6847  138.4003  153.8182 C   0  0  0  0  0  0  0  0  0  0  0  0
  146.2633  137.8563  154.9908 N   0  0  0  0  0  0  0  0  0  0  0  0
  145.5958  136.6983  154.9886 C   0  0  0  0  0  0  0  0  0  0  0  0
  145.2406  135.9409  153.9482 N   0  0  0  0  0  0  0  0  0  0  0  0
  145.6497  136.4937  152.7699 C   0  0  0  0  0  0  0  0  0  0  0  0
  146.3727  137.7092  152.6174 C   0  0  0  0  0  0  0  0  0  0  0  0
  146.6274  137.9485  151.2732 N   0  0  0  0  0  0  0  0  0  0  0  0
  146.0902  136.9265  150.6641 C   0  0  0  0  0  0  0  0  0  0  0  0
  145.4584  136.0181  151.4845 N   0  0  0  0  0  0  0  0  0  0  0  0
  144.8178  134.7973  151.0920 C   0  0  0  0  0  0  0  0  0  0  0  0
  145.4775  133.4346  151.3213 C   0  0  0  0  0  0  0  0  0  0  0  0
  144.8063  132.9030  150.0341 C   0  0  0  0  0  0  0  0  0  0  0  0
  145.7049  131.9948  149.1759 C   0  0  0  0  0  0  0  0  0  0  0  0
  147.0104  132.5175  149.0405 O   0  0  0  0  0  0  0  0  0  0  0  0
  143.4557  132.1976  150.2802 C   0  0  0  0  0  0  0  0  0  0  0  0
  142.7034  132.0522  149.0935 O   0  0  0  0  0  0  0  0  0  0  0  0
  144.7407  134.3912  149.6196 C   0  0  0  0  0  0  0  0  0  0  0  0
  148.5224  139.7313  154.6678 C   0  0  1  0  0  0  0  0  0  0  0  0
  149.5592  138.5922  154.4985 C   0  0  0  0  0  0  0  0  0  0  0  0
  150.7814  138.8146  155.4064 C   0  0  0  0  0  0  0  0  0  0  0  0
  151.4331  140.1833  155.1537 C   0  0  0  0  0  0  0  0  0  0  0  0
  150.4096  141.3227  155.2818 C   0  0  0  0  0  0  0  0  0  0  0  0
  149.2075  141.0800  154.3534 C   0  0  2  0  0  0  0  0  0  0  0  0
  148.2620  142.1866  154.4260 N   0  0  0  0  0  0  0  0  0  0  0  0
  145.5471  140.5120  154.4544 H   0  0  0  0  0  0  0  0  0  0  0  0
  145.9547  140.7690  152.7701 H   0  0  0  0  0  0  0  0  0  0  0  0
  145.3009  136.3268  155.9589 H   0  0  0  0  0  0  0  0  0  0  0  0
  146.1366  136.8131  149.5907 H   0  0  0  0  0  0  0  0  0  0  0  0
  143.8211  134.8249  151.5357 H   0  0  0  0  0  0  0  0  0  0  0  0
  146.5656  133.4807  151.2494 H   0  0  0  0  0  0  0  0  0  0  0  0
  145.1706  132.9347  152.2407 H   0  0  0  0  0  0  0  0  0  0  0  0
  145.7978  131.0056  149.6252 H   0  0  0  0  0  0  0  0  0  0  0  0
  145.2809  131.8405  148.1832 H   0  0  0  0  0  0  0  0  0  0  0  0
  147.5761  132.0781  149.6566 H   0  0  0  0  0  0  0  0  0  0  0  0
  143.6017  131.2124  150.7238 H   0  0  0  0  0  0  0  0  0  0  0  0
  142.8432  132.7569  150.9873 H   0  0  0  0  0  0  0  0  0  0  0  0
  141.9280  132.5879  149.1609 H   0  0  0  0  0  0  0  0  0  0  0  0
  143.8216  134.6933  149.1167 H   0  0  0  0  0  0  0  0  0  0  0  0
  145.6168  134.7125  149.0529 H   0  0  0  0  0  0  0  0  0  0  0  0
  148.1855  139.7450  155.7067 H   0  0  0  0  0  0  0  0  0  0  0  0
  149.1268  137.6210  154.7363 H   0  0  0  0  0  0  0  0  0  0  0  0
  149.8811  138.5368  153.4576 H   0  0  0  0  0  0  0  0  0  0  0  0
  150.4746  138.7452  156.4508 H   0  0  0  0  0  0  0  0  0  0  0  0
  151.5122  138.0212  155.2467 H   0  0  0  0  0  0  0  0  0  0  0  0
  152.2551  140.3398  155.8528 H   0  0  0  0  0  0  0  0  0  0  0  0
  151.8705  140.1981  154.1545 H   0  0  0  0  0  0  0  0  0  0  0  0
  150.0715  141.3989  156.3164 H   0  0  0  0  0  0  0  0  0  0  0  0
  150.8875  142.2726  155.0395 H   0  0  0  0  0  0  0  0  0  0  0  0
  149.5702  141.0566  153.3240 H   0  0  0  0  0  0  0  0  0  0  0  0
  148.6279  143.0939  154.6760 H   0  0  0  0  0  0  0  0  0  0  0  0
  1  2  2  0  0  0  0
  2 28  1  0  0  0  0
  2  3  1  0  0  0  0
  3  4  1  0  0  0  0
  3 29  1  0  0  0  0
  3 30  1  0  0  0  0
  4  5  1  0  0  0  0
  4 22  1  0  0  0  0
  5 10  1  0  0  0  0
  5  6  2  0  0  0  0
  6  7  1  0  0  0  0
  7  8  2  0  0  0  0
  7 31  1  0  0  0  0
  8  9  1  0  0  0  0
  9 13  1  0  0  0  0
  9 10  2  0  0  0  0
 10 11  1  0  0  0  0
 11 12  2  0  0  0  0
 12 13  1  0  0  0  0
 12 32  1  0  0  0  0
 13 14  1  0  0  0  0
 14 21  1  0  0  0  0
 14 15  1  0  0  0  0
 14 33  1  0  0  0  0
 15 16  1  0  0  0  0
 15 34  1  0  0  0  0
 15 35  1  0  0  0  0
 16 17  1  0  0  0  0
 16 19  1  0  0  0  0
 16 21  1  0  0  0  0
 17 18  1  0  0  0  0
 17 36  1  0  0  0  0
 17 37  1  0  0  0  0
 18 38  1  0  0  0  0
 19 20  1  0  0  0  0
 19 39  1  0  0  0  0
 19 40  1  0  0  0  0
 20 41  1  0  0  0  0
 21 42  1  0  0  0  0
 21 43  1  0  0  0  0
 22 27  1  0  0  0  0
 22 23  1  0  0  0  0
 22 44  1  0  0  0  0
 23 24  1  0  0  0  0
 23 45  1  0  0  0  0
 23 46  1  0  0  0  0
 24 25  1  0  0  0  0
 24 47  1  0  0  0  0
 24 48  1  0  0  0  0
 25 26  1  0  0  0  0
 25 49  1  0  0  0  0
 25 50  1  0  0  0  0
 26 27  1  0  0  0  0
 26 51  1  0  0  0  0
 26 52  1  0  0  0  0
 27 28  1  0  0  0  0
 27 53  1  0  0  0  0
 28 54  1  0  0  0  0
M  END
> <s_m_source_file>
AV-unprocessed.smi

> <i_m_source_file_index>
245

> <i_lp_mmshare_version>
43012

> <i_f3d_flags>
0

> <s_epik_input>
W0NIMl0xW0NIMl1bQ0gyXVtDSDJdW0NASF0oW0NASF0xMilbTkhdQyg9TylbQ0gyXU4yYyhuW2NIXW4zKWMoYzM0KW5bY0hdbjRbQ0hdKFtDSDJdNSlbQ0gyXUM1KFtDSDJdW09IXSlbQ0gyXVtPSF0=

> <s_epik_cmdline>
J2VwaWtfcHl0aG9uJywgJy1waCcsICc3LjAnLCAnLXRuJywgJzgnLCAnLW1hJywgJzIwMCcsICctbWV0YWxfYmluZGluZycsICctaW1hZScsICc8aW5maWxlLm1hZT4nLCAnLW9tYWUnLCAnPG91dGZpbGUubWFlPic=

> <r_lp_tautomer_probability>
1

> <r_epik_Ionization_Penalty>
0.000702616

> <r_epik_Ionization_Penalty_Charging>
0

> <r_epik_Ionization_Penalty_Neutral>
0.000702616

> <r_epik_State_Penalty>
0.000343985

> <r_epik_Charging_Adjusted_Penalty>
0.000343985

> <i_epik_Tot_Q>
0

> <i_epik_Tot_abs_Q>
0

> <r_epik_Metal_State_Penalty>
-0

> <b_epik_Metal_Only>
0

> <s_lp_Force_Field>
OPLS_2005

> <r_lp_Energy>
49.1986

> <b_lp_Chiralities_Consistent>
1

> <s_lp_Variant>
AV-unprocessed.smi:245-3

> <Gold.Version>
5.8.1

> <Gold.Id.Protein>
6NUR|6NUR_protein|mol2

> <Gold.PLP.Fitness>
52.0884

> <Gold.PLP.PLP>
-39.2994

> <Gold.PLP.part.hbond>
-8.0789

> <Gold.PLP.part.metal>
0.0000

> <Gold.PLP.part.buried>
6.5437

> <Gold.PLP.part.nonpolar>
-40.7528

> <Gold.PLP.part.repulsive>
3.0396

> <Gold.PLP.ligand.clash>
0.0000

> <Gold.PLP.ligand.torsion>
0.7705

> <Gold.PLP.Chemscore.Hbond>
4.0903

> <Gold.PLP.Chemscore.CHOScore>
0.3918

> <Gold.PLP.Chemscore.Metal>
0.0000

> <Gold.Chemscore.Hbonds>
donor molecule, donor type, donor heavy atom, donor atom, acceptor molecule, acceptor atom, score
      L1  H    18    38       P1 10747  1.00
      L1  H    20    41       P1 10186  0.91
      L1  H    28    54       P1  8028  1.00
      P1  H  7954  7966       L1    11  0.36
      P1  H 10785 10796       L1    20  0.85
      L1  C    12    32       P1  7921  0.42

> <Gold.PLP.Chemscore.Internal.Correction>
0.8837

> <Gold.Rescore>
     Score         DG    S(hbond)    S(metal)    S(lipo)     H(rot)  DE(clash)    DE(int)     intcor
     14.78     -17.70       3.01        0.00      90.36       3.28       2.24       0.69       ----

> <Gold.Chemscore.Fitness>
14.7819

> <Gold.Chemscore.DG>
-17.7042

> <Gold.Chemscore.ZeroCoef>
-5.4800

> <Gold.Chemscore.Hbond>
3.0053

> <Gold.Chemscore.Metal>
0.0000

> <Gold.Chemscore.Lipo>
90.3627

> <Gold.Chemscore.Internal_Hbond>
0.0000

> <Gold.Chemscore.DEClash>
2.2373

> <Gold.Chemscore.DEInternal>
0.6851

> <Gold.Chemscore.Rot>
3.2758

> <Gold.Chemscore.Internal.Correction>
   9.000000E+99

> <Gold.Chemscore.Hbonds>
donor molecule, donor type, donor heavy atom, donor atom, acceptor molecule, acceptor atom, score
      L1  H    18    38       P1 10747  0.98
      L1  H    20    41       P1 10186  0.84
      L1  H    28    54       P1  8028  0.99
      P1  H  7954  7966       L1    11  0.01
      P1  H 10785 10796       L1    20  0.14

> <Gold.Chemscore.Hbond.Weighted>
-10.0377

> <Gold.Chemscore.Metal.Weighted>
-0.0000

> <Gold.Chemscore.Lipo.Weighted>
-10.5724

> <Gold.Chemscore.Internal_Hbond.Weighted>
0.0000

> <Gold.Chemscore.DEClash.Weighted>
2.2373

> <Gold.Chemscore.DEInternal.Weighted>
0.6851

> <Gold.Chemscore.Rot.Weighted>
8.3859

> <Gold.Chemscore.Internal.Correction.Weighted>
   9.000000E+99

> <Gold.Protein.RotatedTorsions>
[ 6907 6896 6895 6894 ] final  133.44 input  -60.11 | X-H torsion
[ 7974 7965 7964 7962 ] final  -63.41 input  175.53 | X-H torsion
[ 8008 7997 7996 7995 ] final -155.91 input   59.86 | X-H torsion
[ 10167 10162 10161 10158 ] final   81.01 input  -65.29 | X-H torsion
[ 10718 10713 10712 10709 ] final   59.35 input   66.30 | X-H torsion
[ 10763 10752 10751 10750 ] final  107.54 input  -60.55 | X-H torsion
[ 11005 11000 10999 10996 ] final   20.97 input  -57.11 | X-H torsion

> <Gold.Protein.ActiveResidues>
 VAL166  LYS551  ARG553  GLY616  TRP617  ASP618  TYR619  PRO620  LYS621  CYS622 
 ASP623  PHE694  ASN695  SER759  ASP760  ASP761  ALA762  ILE779  LEU786  VAL792 
 PHE793  MET794  SER795  GLU796  ALA797  LYS798  CYS799  TRP800  GLU811  SER814 

> <Gold.Protein.RotatedAtoms>
  152.3219  133.5863  159.5749 H   0  0  0  0  0  0  0  0  0  0  0  0  # atno 6907 bound_to 6896
  150.7376  133.9998  159.3643 H   0  0  0  0  0  0  0  0  0  0  0  0  # atno 6908 bound_to 6896
  151.7882  135.0743  160.0434 H   0  0  0  0  0  0  0  0  0  0  0  0  # atno 6909 bound_to 6896
  145.7793  140.8770  143.0339 H   0  0  0  0  0  0  0  0  0  0  0  0  # atno 7974 bound_to 7965
  155.7091  140.0776  157.2378 H   0  0  0  0  0  0  0  0  0  0  0  0  # atno 8008 bound_to 7997
  154.4061  140.1633  156.2330 H   0  0  0  0  0  0  0  0  0  0  0  0  # atno 8009 bound_to 7997
  155.9299  140.3392  155.6243 H   0  0  0  0  0  0  0  0  0  0  0  0  # atno 8010 bound_to 7997
  139.9437  144.6072  150.8227 H   0  0  0  0  0  0  0  0  0  0  0  0  # atno 10167 bound_to 10162
  157.5669  130.8878  149.9202 H   0  0  0  0  0  0  0  0  0  0  0  0  # atno 10718 bound_to 10713
  153.4081  135.3841  155.2032 H   0  0  0  0  0  0  0  0  0  0  0  0  # atno 10763 bound_to 10752
  154.8735  135.3787  154.4535 H   0  0  0  0  0  0  0  0  0  0  0  0  # atno 10764 bound_to 10752
  153.5040  135.7088  153.5878 H   0  0  0  0  0  0  0  0  0  0  0  0  # atno 10765 bound_to 10752
  140.3968  134.1761  155.7663 H   0  0  0  0  0  0  0  0  0  0  0  0  # atno 11005 bound_to 11000
  144.6799  139.9966  143.7484 LP  0  0  0  0  0  0  0  0  0  0  0  0  # atno 17320 bound_to 7965
  146.0090  139.3154  143.0882 LP  0  0  0  0  0  0  0  0  0  0  0  0  # atno 17321 bound_to 7965
  140.7603  143.3149  151.2757 LP  0  0  0  0  0  0  0  0  0  0  0  0  # atno 17342 bound_to 10162
  139.6684  144.0064  152.2737 LP  0  0  0  0  0  0  0  0  0  0  0  0  # atno 17343 bound_to 10162
  156.0717  130.3684  150.0763 LP  0  0  0  0  0  0  0  0  0  0  0  0  # atno 17370 bound_to 10713
  156.8920  130.9592  151.3587 LP  0  0  0  0  0  0  0  0  0  0  0  0  # atno 17371 bound_to 10713
  141.1871  133.8288  157.1044 LP  0  0  0  0  0  0  0  0  0  0  0  0  # atno 17394 bound_to 11000
  140.0366  134.9875  157.0882 LP  0  0  0  0  0  0  0  0  0  0  0  0  # atno 17395 bound_to 11000

$$$$
