AV-unprocessed.smi:1997|AV-procd|sdf|8088|dock1
  -GOLD-   2272010303D 1   1.00000     0.00000
 Structure written by MMmdl.
 36 38  0  0  0  0  0  0  0  0  2 V2000
  151.7880  137.2496  160.0218 O   0  0  0  0  0  0  0  0  0  0  0  0
  151.1087  137.6015  159.0544 C   0  0  0  0  0  0  0  0  0  0  0  0
  150.2983  136.8110  158.3142 N   0  5  0  0  0  0  0  0  0  0  0  0
  149.3865  136.0309  158.9177 C   0  0  0  0  0  0  0  0  0  0  0  0
  149.2281  134.7367  158.6061 N   0  0  0  0  0  0  0  0  0  0  0  0
  148.2381  134.1143  159.3528 N   0  0  0  0  0  0  0  0  0  0  0  0
  147.6657  134.9478  160.2247 C   0  0  0  0  0  0  0  0  0  0  0  0
  146.5711  134.5177  161.1431 C   0  0  0  0  0  0  0  0  0  0  0  0
  146.5969  134.8950  162.6065 C   0  0  0  0  0  0  0  0  0  0  0  0
  146.7957  133.4573  162.1991 C   0  0  0  0  0  0  0  0  0  0  0  0
  148.3109  136.5813  160.2018 S   0  0  0  0  0  0  0  0  0  0  0  0
  151.1350  138.8796  158.6465 N   0  0  0  0  0  0  0  0  0  0  0  0
  151.9288  139.9621  159.2326 C   0  0  2  0  0  0  0  0  0  0  0  0
  151.4584  141.2969  158.6013 C   0  0  0  0  0  0  0  0  0  0  0  0
  152.4063  142.5068  158.7624 C   0  0  0  0  0  0  0  0  0  0  0  0
  153.0063  142.6886  160.1717 C   0  0  0  0  0  0  0  0  0  0  0  0
  153.8814  141.5273  160.7113 C   0  0  0  0  0  0  0  0  0  0  0  0
  154.2829  140.5425  159.7068 N   0  0  0  0  0  0  0  0  0  0  0  0
  153.4441  139.7713  158.9942 C   0  0  0  0  0  0  0  0  0  0  0  0
  153.8647  138.9673  158.1630 O   0  0  0  0  0  0  0  0  0  0  0  0
  145.6118  134.5299  160.6297 H   0  0  0  0  0  0  0  0  0  0  0  0
  147.4661  135.4380  162.9724 H   0  0  0  0  0  0  0  0  0  0  0  0
  145.6503  135.1608  163.0720 H   0  0  0  0  0  0  0  0  0  0  0  0
  145.9815  132.7623  162.3931 H   0  0  0  0  0  0  0  0  0  0  0  0
  147.7963  133.0438  162.3090 H   0  0  0  0  0  0  0  0  0  0  0  0
  150.5662  139.1179  157.8476 H   0  0  0  0  0  0  0  0  0  0  0  0
  151.7311  139.9826  160.3051 H   0  0  0  0  0  0  0  0  0  0  0  0
  151.2750  141.1578  157.5345 H   0  0  0  0  0  0  0  0  0  0  0  0
  150.4895  141.5513  159.0326 H   0  0  0  0  0  0  0  0  0  0  0  0
  153.2164  142.4355  158.0350 H   0  0  0  0  0  0  0  0  0  0  0  0
  151.8632  143.4116  158.4882 H   0  0  0  0  0  0  0  0  0  0  0  0
  153.6144  143.5937  160.1572 H   0  0  0  0  0  0  0  0  0  0  0  0
  152.2051  142.8911  160.8830 H   0  0  0  0  0  0  0  0  0  0  0  0
  154.7848  141.9339  161.1665 H   0  0  0  0  0  0  0  0  0  0  0  0
  153.3600  141.0110  161.5184 H   0  0  0  0  0  0  0  0  0  0  0  0
  155.2734  140.4308  159.5462 H   0  0  0  0  0  0  0  0  0  0  0  0
  1  2  2  0  0  0  0
  2  3  1  0  0  0  0
  2 12  1  0  0  0  0
  3  4  1  0  0  0  0
  4 11  1  0  0  0  0
  4  5  2  0  0  0  0
  5  6  1  0  0  0  0
  6  7  2  0  0  0  0
  7  8  1  0  0  0  0
  7 11  1  0  0  0  0
  8 10  1  0  0  0  0
  8  9  1  0  0  0  0
  8 21  1  0  0  0  0
  9 10  1  0  0  0  0
  9 22  1  0  0  0  0
  9 23  1  0  0  0  0
 10 24  1  0  0  0  0
 10 25  1  0  0  0  0
 12 13  1  0  0  0  0
 12 26  1  0  0  0  0
 13 19  1  0  0  0  0
 13 14  1  0  0  0  0
 13 27  1  0  0  0  0
 14 15  1  0  0  0  0
 14 28  1  0  0  0  0
 14 29  1  0  0  0  0
 15 16  1  0  0  0  0
 15 30  1  0  0  0  0
 15 31  1  0  0  0  0
 16 17  1  0  0  0  0
 16 32  1  0  0  0  0
 16 33  1  0  0  0  0
 17 18  1  0  0  0  0
 17 34  1  0  0  0  0
 17 35  1  0  0  0  0
 18 19  1  0  0  0  0
 18 36  1  0  0  0  0
 19 20  2  0  0  0  0
M  CHG  1   3  -1
M  END
> <s_m_source_file>
AV-unprocessed.smi

> <i_m_source_file_index>
1997

> <i_lp_mmshare_version>
43012

> <i_f3d_flags>
0

> <s_epik_input>
W0NIMl0xW0NIMl1bQ0hdMWMoczIpbm5jMltOSF1DKD1PKVtOSF1bQ0BASF0zW0NIMl1bQ0gyXVtDSDJdW0NIMl1bTkhdQzM9Tw==

> <s_epik_cmdline>
J2VwaWtfcHl0aG9uJywgJy1waCcsICc3LjAnLCAnLXRuJywgJzgnLCAnLW1hJywgJzIwMCcsICctbWV0YWxfYmluZGluZycsICctaW1hZScsICc8aW5maWxlLm1hZT4nLCAnLW9tYWUnLCAnPG91dGZpbGUubWFlPic=

> <r_lp_tautomer_probability>
1

> <r_epik_Ionization_Penalty>
4.47229

> <r_epik_Ionization_Penalty_Charging>
4.32584

> <r_epik_Ionization_Penalty_Neutral>
0.146443

> <r_epik_State_Penalty>
4.32544

> <r_epik_Charging_Adjusted_Penalty>
8.65129

> <i_epik_Tot_Q>
-1

> <i_epik_Tot_abs_Q>
1

> <r_epik_Metal_State_Penalty>
0.738743

> <b_epik_Metal_Only>
1

> <s_lp_Force_Field>
OPLS_2005

> <r_lp_Energy>
12.6103

> <b_lp_Chiralities_Consistent>
1

> <s_lp_Variant>
AV-unprocessed.smi:1997-3

> <Gold.Version>
5.8.1

> <Gold.Id.Protein>
6NUR|6NUR_protein|mol2

> <Gold.PLP.Fitness>
40.0060

> <Gold.PLP.PLP>
-33.5007

> <Gold.PLP.part.hbond>
-2.8604

> <Gold.PLP.part.metal>
0.0000

> <Gold.PLP.part.buried>
-2.7450

> <Gold.PLP.part.nonpolar>
-28.1583

> <Gold.PLP.part.repulsive>
0.2074

> <Gold.PLP.ligand.clash>
0.0000

> <Gold.PLP.ligand.torsion>
1.1090

> <Gold.PLP.Chemscore.Hbond>
2.8533

> <Gold.PLP.Chemscore.CHOScore>
0.0000

> <Gold.PLP.Chemscore.Metal>
0.0000

> <Gold.Chemscore.Hbonds>
donor molecule, donor type, donor heavy atom, donor atom, acceptor molecule, acceptor atom, score
      P1  H  6896  6908       L1     5  0.98
      P1  H  6896  6909       L1     1  0.81
      P1  H  7997  8010       L1    20  1.00

> <Gold.PLP.Chemscore.Internal.Correction>
0.1636

> <Gold.Rescore>
     Score         DG    S(hbond)    S(metal)    S(lipo)     H(rot)  DE(clash)    DE(int)     intcor
     16.44     -17.56       1.92        0.00      76.44       1.27       0.00       1.12       ----

> <Gold.Chemscore.Fitness>
16.4401

> <Gold.Chemscore.DG>
-17.5600

> <Gold.Chemscore.ZeroCoef>
-5.4800

> <Gold.Chemscore.Hbond>
1.9152

> <Gold.Chemscore.Metal>
0.0000

> <Gold.Chemscore.Lipo>
76.4450

> <Gold.Chemscore.Internal_Hbond>
0.0000

> <Gold.Chemscore.DEClash>
0.0000

> <Gold.Chemscore.DEInternal>
1.1199

> <Gold.Chemscore.Rot>
1.2738

> <Gold.Chemscore.Internal.Correction>
   9.000000E+99

> <Gold.Chemscore.Hbonds>
donor molecule, donor type, donor heavy atom, donor atom, acceptor molecule, acceptor atom, score
      P1  H  6896  6908       L1     5  0.08
      P1  H  6896  6909       L1     1  0.49
      P1  H  7997  8010       L1    20  0.30

> <Gold.Chemscore.Hbond.Weighted>
-6.3969

> <Gold.Chemscore.Metal.Weighted>
-0.0000

> <Gold.Chemscore.Lipo.Weighted>
-8.9441

> <Gold.Chemscore.Internal_Hbond.Weighted>
0.0000

> <Gold.Chemscore.DEClash.Weighted>
0.0000

> <Gold.Chemscore.DEInternal.Weighted>
1.1199

> <Gold.Chemscore.Rot.Weighted>
3.2610

> <Gold.Chemscore.Internal.Correction.Weighted>
   9.000000E+99

> <Gold.Protein.RotatedTorsions>
[ 6907 6896 6895 6894 ] final  133.35 input  -60.11 | X-H torsion
[ 7974 7965 7964 7962 ] final    6.95 input  175.53 | X-H torsion
[ 8008 7997 7996 7995 ] final   34.84 input   59.86 | X-H torsion
[ 10167 10162 10161 10158 ] final -117.73 input  -65.29 | X-H torsion
[ 10718 10713 10712 10709 ] final  140.77 input   66.30 | X-H torsion
[ 10763 10752 10751 10750 ] final -147.25 input  -60.55 | X-H torsion
[ 11005 11000 10999 10996 ] final  -18.90 input  -57.11 | X-H torsion

> <Gold.Protein.ActiveResidues>
 VAL166  LYS551  ARG553  GLY616  TRP617  ASP618  TYR619  PRO620  LYS621  CYS622 
 ASP623  PHE694  ASN695  SER759  ASP760  ASP761  ALA762  ILE779  LEU786  VAL792 
 PHE793  MET794  SER795  GLU796  ALA797  LYS798  CYS799  TRP800  GLU811  SER814 

> <Gold.Protein.RotatedAtoms>
  152.3229  133.5873  159.5756 H   0  0  0  0  0  0  0  0  0  0  0  0  # atno 6907 bound_to 6896
  150.7381  133.9984  159.3639 H   0  0  0  0  0  0  0  0  0  0  0  0  # atno 6908 bound_to 6896
  151.7867  135.0747  160.0432 H   0  0  0  0  0  0  0  0  0  0  0  0  # atno 6909 bound_to 6896
  146.2431  140.0156  142.8402 H   0  0  0  0  0  0  0  0  0  0  0  0  # atno 7974 bound_to 7965
  155.1614  140.3283  155.4410 H   0  0  0  0  0  0  0  0  0  0  0  0  # atno 8008 bound_to 7997
  156.2541  140.1959  156.6672 H   0  0  0  0  0  0  0  0  0  0  0  0  # atno 8009 bound_to 7997
  154.6402  140.0571  156.9823 H   0  0  0  0  0  0  0  0  0  0  0  0  # atno 8010 bound_to 7997
  140.0652  143.4930  152.2010 H   0  0  0  0  0  0  0  0  0  0  0  0  # atno 10167 bound_to 10162
  157.3995  131.1015  151.0566 H   0  0  0  0  0  0  0  0  0  0  0  0  # atno 10718 bound_to 10713
  154.8295  135.3365  154.6789 H   0  0  0  0  0  0  0  0  0  0  0  0  # atno 10763 bound_to 10752
  153.7411  135.6946  153.4971 H   0  0  0  0  0  0  0  0  0  0  0  0  # atno 10764 bound_to 10752
  153.2243  135.4438  155.0476 H   0  0  0  0  0  0  0  0  0  0  0  0  # atno 10765 bound_to 10752
  140.8314  133.7994  155.9762 H   0  0  0  0  0  0  0  0  0  0  0  0  # atno 11005 bound_to 11000
  145.1288  140.9505  143.4557 LP  0  0  0  0  0  0  0  0  0  0  0  0  # atno 17320 bound_to 7965
  145.0408  139.3261  143.5977 LP  0  0  0  0  0  0  0  0  0  0  0  0  # atno 17321 bound_to 7965
  139.5869  144.7535  151.3497 LP  0  0  0  0  0  0  0  0  0  0  0  0  # atno 17342 bound_to 10162
  140.7153  143.7284  150.7643 LP  0  0  0  0  0  0  0  0  0  0  0  0  # atno 17343 bound_to 10162
  157.1570  130.6209  149.5599 LP  0  0  0  0  0  0  0  0  0  0  0  0  # atno 17370 bound_to 10713
  155.9819  130.4830  150.6854 LP  0  0  0  0  0  0  0  0  0  0  0  0  # atno 17371 bound_to 10713
  140.8994  134.2397  157.5050 LP  0  0  0  0  0  0  0  0  0  0  0  0  # atno 17394 bound_to 11000
  139.8705  134.9699  156.4683 LP  0  0  0  0  0  0  0  0  0  0  0  0  # atno 17395 bound_to 11000

$$$$
