AV-unprocessed.smi:3058|AV-procd|sdf|11674|dock4
  -GOLD-   2272017 73D 1   1.00000     0.00000
 Structure written by MMmdl.
 39 41  0  0  0  0  0  0  0  0  2 V2000
  149.8397  141.5481  158.4382 O   0  0  0  0  0  0  0  0  0  0  0  0
  150.8725  142.1035  158.0613 C   0  0  0  0  0  0  0  0  0  0  0  0
  151.8901  141.4394  157.4918 N   0  0  0  0  0  0  0  0  0  0  0  0
  151.9214  140.0007  157.2587 C   0  0  0  0  0  0  0  0  0  0  0  0
  152.1551  139.6732  155.7748 C   0  0  0  0  0  0  0  0  0  0  0  0
  150.8619  139.6615  154.9839 C   0  0  0  0  0  0  0  0  0  0  0  0
  150.0087  140.7870  154.9908 C   0  0  0  0  0  0  0  0  0  0  0  0
  148.8138  140.7536  154.2422 C   0  0  0  0  0  0  0  0  0  0  0  0
  148.4997  139.5955  153.5023 C   0  0  0  0  0  0  0  0  0  0  0  0
  149.3408  138.5378  153.5191 N   0  3  0  0  0  0  0  0  0  0  0  0
  150.4938  138.5301  154.2238 C   0  0  0  0  0  0  0  0  0  0  0  0
  151.0533  143.6253  158.2040 C   0  0  1  0  0  0  0  0  0  0  0  0
  150.1050  144.2980  159.2275 C   0  0  0  0  0  0  0  0  0  0  0  0
  151.0741  145.0714  160.1415 C   0  0  1  0  0  0  0  0  0  0  0  0
  151.8358  144.0794  161.0406 C   0  0  0  0  0  0  0  0  0  0  0  0
  152.8326  143.4312  160.0623 C   0  0  0  0  0  0  0  0  0  0  0  0
  152.4498  144.0749  158.7112 C   0  0  2  0  0  0  0  0  0  0  0  0
  152.1543  145.5042  159.1568 C   0  0  0  0  0  0  0  0  0  0  0  0
  152.6988  141.9696  157.2008 H   0  0  0  0  0  0  0  0  0  0  0  0
  152.6930  139.5412  157.8790 H   0  0  0  0  0  0  0  0  0  0  0  0
  150.9697  139.5822  157.5873 H   0  0  0  0  0  0  0  0  0  0  0  0
  152.8380  140.4004  155.3335 H   0  0  0  0  0  0  0  0  0  0  0  0
  152.6368  138.6997  155.6718 H   0  0  0  0  0  0  0  0  0  0  0  0
  150.2671  141.6677  155.5612 H   0  0  0  0  0  0  0  0  0  0  0  0
  148.1492  141.6053  154.2355 H   0  0  0  0  0  0  0  0  0  0  0  0
  147.6085  139.4844  152.9018 H   0  0  0  0  0  0  0  0  0  0  0  0
  151.0827  137.6268  154.1563 H   0  0  0  0  0  0  0  0  0  0  0  0
  150.8768  144.0808  157.2275 H   0  0  0  0  0  0  0  0  0  0  0  0
  149.4318  144.9882  158.7171 H   0  0  0  0  0  0  0  0  0  0  0  0
  149.4827  143.6027  159.7924 H   0  0  0  0  0  0  0  0  0  0  0  0
  150.5989  145.8835  160.6924 H   0  0  0  0  0  0  0  0  0  0  0  0
  152.3655  144.5997  161.8396 H   0  0  0  0  0  0  0  0  0  0  0  0
  151.1703  143.3479  161.5004 H   0  0  0  0  0  0  0  0  0  0  0  0
  153.8534  143.7055  160.3326 H   0  0  0  0  0  0  0  0  0  0  0  0
  152.7866  142.3430  160.0653 H   0  0  0  0  0  0  0  0  0  0  0  0
  153.2313  143.9965  157.9547 H   0  0  0  0  0  0  0  0  0  0  0  0
  151.7788  146.1417  158.3542 H   0  0  0  0  0  0  0  0  0  0  0  0
  153.0036  145.9961  159.6345 H   0  0  0  0  0  0  0  0  0  0  0  0
  149.0950  137.7098  152.9759 H   0  0  0  0  0  0  0  0  0  0  0  0
  1  2  2  0  0  0  0
  2  3  1  0  0  0  0
  2 12  1  0  0  0  0
  3  4  1  0  0  0  0
  3 19  1  0  0  0  0
  4  5  1  0  0  0  0
  4 20  1  0  0  0  0
  4 21  1  0  0  0  0
  5  6  1  0  0  0  0
  5 22  1  0  0  0  0
  5 23  1  0  0  0  0
  6 11  1  0  0  0  0
  6  7  2  0  0  0  0
  7  8  1  0  0  0  0
  7 24  1  0  0  0  0
  8  9  2  0  0  0  0
  8 25  1  0  0  0  0
  9 10  1  0  0  0  0
  9 26  1  0  0  0  0
 10 11  2  0  0  0  0
 10 39  1  0  0  0  0
 11 27  1  0  0  0  0
 12 17  1  0  0  0  0
 12 13  1  0  0  0  0
 12 28  1  0  0  0  0
 13 14  1  0  0  0  0
 13 29  1  0  0  0  0
 13 30  1  0  0  0  0
 14 18  1  0  0  0  0
 14 15  1  0  0  0  0
 14 31  1  0  0  0  0
 15 16  1  0  0  0  0
 15 32  1  0  0  0  0
 15 33  1  0  0  0  0
 16 17  1  0  0  0  0
 16 34  1  0  0  0  0
 16 35  1  0  0  0  0
 17 18  1  0  0  0  0
 17 36  1  0  0  0  0
 18 37  1  0  0  0  0
 18 38  1  0  0  0  0
M  CHG  1  10   1
M  END
> <s_m_source_file>
AV-unprocessed.smi

> <i_m_source_file_index>
3058

> <i_lp_mmshare_version>
43012

> <i_f3d_flags>
0

> <s_epik_input>
W0NIMl0xW0NIMl1bQ0BIXShbQ0gyXTIpW0NAQEhdKFtDSDJdW0NAQEhdMTIpQyg9TylbTkhdW0NIMl1bQ0gyXWMzW2NIXVtjSF1bY0hdbltjSF0z

> <s_epik_cmdline>
J2VwaWtfcHl0aG9uJywgJy1waCcsICc3LjAnLCAnLXRuJywgJzgnLCAnLW1hJywgJzIwMCcsICctbWV0YWxfYmluZGluZycsICctaW1hZScsICc8aW5maWxlLm1hZT4nLCAnLW9tYWUnLCAnPG91dGZpbGUubWFlPic=

> <r_epik_Ionization_Penalty>
2.24375

> <r_epik_Ionization_Penalty_Charging>
2.24375

> <r_epik_Ionization_Penalty_Neutral>
1.89995e-08

> <r_epik_State_Penalty>
2.39035

> <r_epik_Charging_Adjusted_Penalty>
4.63411

> <i_epik_Tot_Q>
1

> <i_epik_Tot_abs_Q>
1

> <r_epik_Metal_State_Penalty>
2.40369

> <b_epik_Metal_Only>
0

> <s_lp_Force_Field>
OPLS_2005

> <r_lp_Energy>
53.8875

> <b_lp_Chiralities_Consistent>
1

> <s_lp_Variant>
AV-unprocessed.smi:3058-6

> <Gold.Version>
5.8.1

> <Gold.Id.Protein>
6NUR|6NUR_protein|mol2

> <Gold.PLP.Fitness>
49.7090

> <Gold.PLP.PLP>
-44.9761

> <Gold.PLP.part.hbond>
-2.0454

> <Gold.PLP.part.metal>
0.0000

> <Gold.PLP.part.buried>
-0.4220

> <Gold.PLP.part.nonpolar>
-41.3852

> <Gold.PLP.part.repulsive>
0.1947

> <Gold.PLP.ligand.clash>
0.0000

> <Gold.PLP.ligand.torsion>
0.6448

> <Gold.PLP.Chemscore.Hbond>
2.0000

> <Gold.PLP.Chemscore.CHOScore>
0.0000

> <Gold.PLP.Chemscore.Metal>
0.0000

> <Gold.Chemscore.Hbonds>
donor molecule, donor type, donor heavy atom, donor atom, acceptor molecule, acceptor atom, score
      L1  H    10    39       P1  7948  2.00

> <Gold.PLP.Chemscore.Internal.Correction>
0.0224

> <Gold.Rescore>
     Score         DG    S(hbond)    S(metal)    S(lipo)     H(rot)  DE(clash)    DE(int)     intcor
     19.13     -19.93       0.99        0.00     126.95       1.45       0.13       0.66       ----

> <Gold.Chemscore.Fitness>
19.1282

> <Gold.Chemscore.DG>
-19.9256

> <Gold.Chemscore.ZeroCoef>
-5.4800

> <Gold.Chemscore.Hbond>
0.9930

> <Gold.Chemscore.Metal>
0.0000

> <Gold.Chemscore.Lipo>
126.9512

> <Gold.Chemscore.Internal_Hbond>
0.0000

> <Gold.Chemscore.DEClash>
0.1329

> <Gold.Chemscore.DEInternal>
0.6645

> <Gold.Chemscore.Rot>
1.4548

> <Gold.Chemscore.Internal.Correction>
   9.000000E+99

> <Gold.Chemscore.Hbonds>
donor molecule, donor type, donor heavy atom, donor atom, acceptor molecule, acceptor atom, score
      L1  H    10    39       P1  7948  1.00

> <Gold.Chemscore.Hbond.Weighted>
-3.3165

> <Gold.Chemscore.Metal.Weighted>
-0.0000

> <Gold.Chemscore.Lipo.Weighted>
-14.8533

> <Gold.Chemscore.Internal_Hbond.Weighted>
0.0000

> <Gold.Chemscore.DEClash.Weighted>
0.1329

> <Gold.Chemscore.DEInternal.Weighted>
0.6645

> <Gold.Chemscore.Rot.Weighted>
3.7242

> <Gold.Chemscore.Internal.Correction.Weighted>
   9.000000E+99

> <Gold.Protein.RotatedTorsions>
[ 6907 6896 6895 6894 ] final -147.30 input  -60.11 | X-H torsion
[ 7974 7965 7964 7962 ] final  146.39 input  175.53 | X-H torsion
[ 8008 7997 7996 7995 ] final   25.71 input   59.86 | X-H torsion
[ 10167 10162 10161 10158 ] final   99.47 input  -65.29 | X-H torsion
[ 10718 10713 10712 10709 ] final   81.27 input   66.30 | X-H torsion
[ 10763 10752 10751 10750 ] final  153.32 input  -60.55 | X-H torsion
[ 11005 11000 10999 10996 ] final  -67.09 input  -57.11 | X-H torsion

> <Gold.Protein.ActiveResidues>
 VAL166  LYS551  ARG553  GLY616  TRP617  ASP618  TYR619  PRO620  LYS621  CYS622 
 ASP623  PHE694  ASN695  SER759  ASP760  ASP761  ALA762  ILE779  LEU786  VAL792 
 PHE793  MET794  SER795  GLU796  ALA797  LYS798  CYS799  TRP800  GLU811  SER814 

> <Gold.Protein.RotatedAtoms>
  151.1537  133.4891  159.2594 H   0  0  0  0  0  0  0  0  0  0  0  0  # atno 6907 bound_to 6896
  151.1527  135.0235  159.8685 H   0  0  0  0  0  0  0  0  0  0  0  0  # atno 6908 bound_to 6896
  152.5463  134.1419  159.8535 H   0  0  0  0  0  0  0  0  0  0  0  0  # atno 6909 bound_to 6896
  144.8674  139.5900  143.5902 H   0  0  0  0  0  0  0  0  0  0  0  0  # atno 7974 bound_to 7965
  155.0160  140.3142  155.4811 H   0  0  0  0  0  0  0  0  0  0  0  0  # atno 8008 bound_to 7997
  156.2901  140.2206  156.5218 H   0  0  0  0  0  0  0  0  0  0  0  0  # atno 8009 bound_to 7997
  154.7493  140.0467  157.0867 H   0  0  0  0  0  0  0  0  0  0  0  0  # atno 8010 bound_to 7997
  139.7614  144.6953  151.0286 H   0  0  0  0  0  0  0  0  0  0  0  0  # atno 10167 bound_to 10162
  157.6828  130.9996  150.2202 H   0  0  0  0  0  0  0  0  0  0  0  0  # atno 10718 bound_to 10713
  154.1342  135.2825  155.3177 H   0  0  0  0  0  0  0  0  0  0  0  0  # atno 10763 bound_to 10752
  154.6333  135.5427  153.7709 H   0  0  0  0  0  0  0  0  0  0  0  0  # atno 10764 bound_to 10752
  153.0271  135.6468  154.1491 H   0  0  0  0  0  0  0  0  0  0  0  0  # atno 10765 bound_to 10752
  141.1499  133.6712  156.6240 H   0  0  0  0  0  0  0  0  0  0  0  0  # atno 11005 bound_to 11000
  146.2906  139.7128  142.9164 LP  0  0  0  0  0  0  0  0  0  0  0  0  # atno 17320 bound_to 7965
  145.4194  141.0405  143.2972 LP  0  0  0  0  0  0  0  0  0  0  0  0  # atno 17321 bound_to 7965
  140.7807  143.4692  151.0170 LP  0  0  0  0  0  0  0  0  0  0  0  0  # atno 17342 bound_to 10162
  139.8378  143.7604  152.3180 LP  0  0  0  0  0  0  0  0  0  0  0  0  # atno 17343 bound_to 10162
  156.2855  130.3739  149.7893 LP  0  0  0  0  0  0  0  0  0  0  0  0  # atno 17370 bound_to 10713
  156.5569  130.8366  151.3317 LP  0  0  0  0  0  0  0  0  0  0  0  0  # atno 17371 bound_to 10713
  140.3518  134.7762  157.4472 LP  0  0  0  0  0  0  0  0  0  0  0  0  # atno 17394 bound_to 11000
  140.0854  134.5673  155.8497 LP  0  0  0  0  0  0  0  0  0  0  0  0  # atno 17395 bound_to 11000

$$$$
