AV-unprocessed.smi:157|AV-procd|sdf|1298|dock8
  -GOLD-   2262018583D 1   1.00000     0.00000
 Structure written by MMmdl.
 35 37  0  0  0  0  0  0  0  0  1 V2000
  149.0467  137.1221  154.4012 O   0  0  0  0  0  0  0  0  0  0  0  0
  150.1020  137.9733  154.7966 C   0  0  0  0  0  0  0  0  0  0  0  0
  149.9005  139.3961  154.2343 C   0  0  2  0  0  0  0  0  0  0  0  0
  150.8353  140.2517  154.8943 O   0  0  0  0  0  0  0  0  0  0  0  0
  150.1805  141.1191  155.7743 C   0  0  2  0  0  0  0  0  0  0  0  0
  150.8502  141.0520  157.1116 N   0  0  0  0  0  0  0  0  0  0  0  0
  151.1235  139.9436  157.8131 C   0  0  0  0  0  0  0  0  0  0  0  0
  151.7096  140.1610  158.9780 N   0  0  0  0  0  0  0  0  0  0  0  0
  151.8297  141.5480  159.0398 C   0  0  0  0  0  0  0  0  0  0  0  0
  151.3022  142.1204  157.8911 C   0  0  0  0  0  0  0  0  0  0  0  0
  151.1290  143.4029  157.4067 N   0  0  0  0  0  0  0  0  0  0  0  0
  151.8363  144.3525  157.9331 C   0  0  0  0  0  0  0  0  0  0  0  0
  152.7138  144.3258  159.0077 N   0  0  0  0  0  0  0  0  0  0  0  0
  152.3907  143.7158  160.2863 C   0  0  0  0  0  0  0  0  0  0  0  0
  152.4293  142.1829  160.2612 C   0  0  2  0  0  0  0  0  0  0  0  0
  153.7717  141.7485  160.3352 O   0  0  0  0  0  0  0  0  0  0  0  0
  148.7342  140.6450  155.8841 C   0  0  0  0  0  0  0  0  0  0  0  0
  148.5326  140.0445  154.5113 C   0  0  2  0  0  0  0  0  0  0  0  0
  147.4367  139.1524  154.4874 O   0  0  0  0  0  0  0  0  0  0  0  0
  150.1206  139.3997  153.1659 H   0  0  0  0  0  0  0  0  0  0  0  0
  150.2856  142.1488  155.4307 H   0  0  0  0  0  0  0  0  0  0  0  0
  151.9279  141.8108  161.1553 H   0  0  0  0  0  0  0  0  0  0  0  0
  148.3565  140.8431  153.7890 H   0  0  0  0  0  0  0  0  0  0  0  0
  149.0764  137.0230  153.4617 H   0  0  0  0  0  0  0  0  0  0  0  0
  150.1936  137.9777  155.8827 H   0  0  0  0  0  0  0  0  0  0  0  0
  151.0253  137.5484  154.4021 H   0  0  0  0  0  0  0  0  0  0  0  0
  150.8831  138.9500  157.4653 H   0  0  0  0  0  0  0  0  0  0  0  0
  151.7606  145.3527  157.5043 H   0  0  0  0  0  0  0  0  0  0  0  0
  153.3570  145.0957  159.1229 H   0  0  0  0  0  0  0  0  0  0  0  0
  153.0492  144.1081  161.0617 H   0  0  0  0  0  0  0  0  0  0  0  0
  151.3827  144.0375  160.5522 H   0  0  0  0  0  0  0  0  0  0  0  0
  154.0205  141.4150  159.4864 H   0  0  0  0  0  0  0  0  0  0  0  0
  148.6497  139.8858  156.6640 H   0  0  0  0  0  0  0  0  0  0  0  0
  148.0612  141.4719  156.1127 H   0  0  0  0  0  0  0  0  0  0  0  0
  147.7674  138.2745  154.3722 H   0  0  0  0  0  0  0  0  0  0  0  0
  1  2  1  0  0  0  0
  1 24  1  0  0  0  0
  2  3  1  0  0  0  0
  2 25  1  0  0  0  0
  2 26  1  0  0  0  0
  3 20  1  0  0  0  0
  3 18  1  0  0  0  0
  3  4  1  0  0  0  0
  4  5  1  0  0  0  0
  5 21  1  0  0  0  0
  5  6  1  0  0  0  0
  5 17  1  0  0  0  0
  6 10  1  0  0  0  0
  6  7  1  0  0  0  0
  7  8  2  0  0  0  0
  7 27  1  0  0  0  0
  8  9  1  0  0  0  0
  9 15  1  0  0  0  0
  9 10  2  0  0  0  0
 10 11  1  0  0  0  0
 11 12  2  0  0  0  0
 12 13  1  0  0  0  0
 12 28  1  0  0  0  0
 13 14  1  0  0  0  0
 13 29  1  0  0  0  0
 14 15  1  0  0  0  0
 14 30  1  0  0  0  0
 14 31  1  0  0  0  0
 15 22  1  0  0  0  0
 15 16  1  0  0  0  0
 16 32  1  0  0  0  0
 17 18  1  0  0  0  0
 17 33  1  0  0  0  0
 17 34  1  0  0  0  0
 18 23  1  0  0  0  0
 18 19  1  0  0  0  0
 19 35  1  0  0  0  0
M  END
> <s_m_source_file>
AV-unprocessed.smi

> <i_m_source_file_index>
157

> <i_lp_mmshare_version>
43012

> <i_f3d_flags>
0

> <s_epik_input>
W09IXVtDSDJdW0NASF0xT1tDQEhdKFtDSDJdW0NAQEhdMVtPSF0pbihbY0hdbjIpYyhjMjMpTj1bQ0hdW05IXVtDSDJdW0NASF0zW09IXQ==

> <s_epik_cmdline>
J2VwaWtfcHl0aG9uJywgJy1waCcsICc3LjAnLCAnLXRuJywgJzgnLCAnLW1hJywgJzIwMCcsICctbWV0YWxfYmluZGluZycsICctaW1hZScsICc8aW5maWxlLm1hZT4nLCAnLW9tYWUnLCAnPG91dGZpbGUubWFlPic=

> <r_lp_tautomer_probability>
1

> <r_epik_Ionization_Penalty>
0.0357149

> <r_epik_Ionization_Penalty_Charging>
0.0355056

> <r_epik_Ionization_Penalty_Neutral>
0.000209255

> <r_epik_State_Penalty>
0.0296046

> <r_epik_Charging_Adjusted_Penalty>
0.0651102

> <i_epik_Tot_Q>
0

> <i_epik_Tot_abs_Q>
0

> <r_epik_Metal_State_Penalty>
3.03559e-05

> <b_epik_Metal_Only>
0

> <s_epik_Chemistry_Notes>
This compound has an imine and may undergo hydrolysis. This compound contains an acetal/aminal-like group ( X-CH(R)-Y where X, Y are N, S, or O) that may be acid/base labile, releasing an aldehyde.

> <s_lp_Force_Field>
OPLS_2005

> <r_lp_Energy>
46.5194

> <b_lp_Chiralities_Consistent>
1

> <s_lp_Variant>
AV-unprocessed.smi:157-8

> <Gold.Version>
5.8.1

> <Gold.Id.Protein>
6NUR|6NUR_protein|mol2

> <Gold.PLP.Fitness>
40.3258

> <Gold.PLP.PLP>
-34.7961

> <Gold.PLP.part.hbond>
-2.0000

> <Gold.PLP.part.metal>
0.0000

> <Gold.PLP.part.buried>
-6.5053

> <Gold.PLP.part.nonpolar>
-27.4564

> <Gold.PLP.part.repulsive>
0.2270

> <Gold.PLP.ligand.clash>
0.0000

> <Gold.PLP.ligand.torsion>
0.1659

> <Gold.PLP.Chemscore.Hbond>
1.9500

> <Gold.PLP.Chemscore.CHOScore>
0.0000

> <Gold.PLP.Chemscore.Metal>
0.0000

> <Gold.Chemscore.Hbonds>
donor molecule, donor type, donor heavy atom, donor atom, acceptor molecule, acceptor atom, score
      L1  H     1    24       P1  7948  1.00
      P1  H  7989  7998       L1     4  0.90

> <Gold.PLP.Chemscore.Internal.Correction>
0.0117

> <Gold.Rescore>
     Score         DG    S(hbond)    S(metal)    S(lipo)     H(rot)  DE(clash)    DE(int)     intcor
      8.10      -8.33       1.75        0.00      53.89       3.64       0.08       0.15       ----

> <Gold.Chemscore.Fitness>
8.0954

> <Gold.Chemscore.DG>
-8.3286

> <Gold.Chemscore.ZeroCoef>
-5.4800

> <Gold.Chemscore.Hbond>
1.7522

> <Gold.Chemscore.Metal>
0.0000

> <Gold.Chemscore.Lipo>
53.8883

> <Gold.Chemscore.Internal_Hbond>
0.0000

> <Gold.Chemscore.DEClash>
0.0787

> <Gold.Chemscore.DEInternal>
0.1545

> <Gold.Chemscore.Rot>
3.6362

> <Gold.Chemscore.Internal.Correction>
   9.000000E+99

> <Gold.Chemscore.Hbonds>
donor molecule, donor type, donor heavy atom, donor atom, acceptor molecule, acceptor atom, score
      L1  H     1    24       P1  7948  0.99
      P1  H  7989  7998       L1     4  0.17

> <Gold.Chemscore.Hbond.Weighted>
-5.8524

> <Gold.Chemscore.Metal.Weighted>
-0.0000

> <Gold.Chemscore.Lipo.Weighted>
-6.3049

> <Gold.Chemscore.Internal_Hbond.Weighted>
0.0000

> <Gold.Chemscore.DEClash.Weighted>
0.0787

> <Gold.Chemscore.DEInternal.Weighted>
0.1545

> <Gold.Chemscore.Rot.Weighted>
9.3087

> <Gold.Chemscore.Internal.Correction.Weighted>
   9.000000E+99

> <Gold.Protein.RotatedTorsions>
[ 6907 6896 6895 6894 ] final -126.05 input  -60.11 | X-H torsion
[ 7974 7965 7964 7962 ] final  159.60 input  175.53 | X-H torsion
[ 8008 7997 7996 7995 ] final -146.06 input   59.86 | X-H torsion
[ 10167 10162 10161 10158 ] final   73.22 input  -65.29 | X-H torsion
[ 10718 10713 10712 10709 ] final  120.76 input   66.30 | X-H torsion
[ 10763 10752 10751 10750 ] final  104.18 input  -60.55 | X-H torsion
[ 11005 11000 10999 10996 ] final  -51.88 input  -57.11 | X-H torsion

> <Gold.Protein.ActiveResidues>
 VAL166  LYS551  ARG553  GLY616  TRP617  ASP618  TYR619  PRO620  LYS621  CYS622 
 ASP623  PHE694  ASN695  SER759  ASP760  ASP761  ALA762  ILE779  LEU786  VAL792 
 PHE793  MET794  SER795  GLU796  ALA797  LYS798  CYS799  TRP800  GLU811  SER814 

> <Gold.Protein.RotatedAtoms>
  150.8930  133.7218  159.2899 H   0  0  0  0  0  0  0  0  0  0  0  0  # atno 6907 bound_to 6896
  151.4762  135.1048  159.9775 H   0  0  0  0  0  0  0  0  0  0  0  0  # atno 6908 bound_to 6896
  152.4831  133.8257  159.7132 H   0  0  0  0  0  0  0  0  0  0  0  0  # atno 6909 bound_to 6896
  144.7781  139.7640  143.6270 H   0  0  0  0  0  0  0  0  0  0  0  0  # atno 7974 bound_to 7965
  155.5533  140.0618  157.2845 H   0  0  0  0  0  0  0  0  0  0  0  0  # atno 8008 bound_to 7997
  154.4414  140.1898  156.0753 H   0  0  0  0  0  0  0  0  0  0  0  0  # atno 8009 bound_to 7997
  156.0501  140.3285  155.7344 H   0  0  0  0  0  0  0  0  0  0  0  0  # atno 8010 bound_to 7997
  140.0268  144.5497  150.7538 H   0  0  0  0  0  0  0  0  0  0  0  0  # atno 10167 bound_to 10162
  157.5867  131.1069  150.8080 H   0  0  0  0  0  0  0  0  0  0  0  0  # atno 10718 bound_to 10713
  153.3625  135.3951  155.1729 H   0  0  0  0  0  0  0  0  0  0  0  0  # atno 10763 bound_to 10752
  154.8681  135.3683  154.5080 H   0  0  0  0  0  0  0  0  0  0  0  0  # atno 10764 bound_to 10752
  153.5541  135.7082  153.5638 H   0  0  0  0  0  0  0  0  0  0  0  0  # atno 10765 bound_to 10752
  141.0894  133.6635  156.3942 H   0  0  0  0  0  0  0  0  0  0  0  0  # atno 11005 bound_to 11000
  146.1973  139.5247  142.9766 LP  0  0  0  0  0  0  0  0  0  0  0  0  # atno 17320 bound_to 7965
  145.6127  141.0337  143.1958 LP  0  0  0  0  0  0  0  0  0  0  0  0  # atno 17321 bound_to 7965
  140.7319  143.2699  151.3921 LP  0  0  0  0  0  0  0  0  0  0  0  0  # atno 17342 bound_to 10162
  139.6102  144.1113  152.2291 LP  0  0  0  0  0  0  0  0  0  0  0  0  # atno 17343 bound_to 10162
  156.8512  130.5081  149.5311 LP  0  0  0  0  0  0  0  0  0  0  0  0  # atno 17370 bound_to 10713
  156.0917  130.5901  150.9744 LP  0  0  0  0  0  0  0  0  0  0  0  0  # atno 17371 bound_to 10713
  140.5286  134.6234  157.5342 LP  0  0  0  0  0  0  0  0  0  0  0  0  # atno 17394 bound_to 11000
  139.9718  134.7281  156.0027 LP  0  0  0  0  0  0  0  0  0  0  0  0  # atno 17395 bound_to 11000

$$$$
