AV-unprocessed.smi:1525|AV-procd|sdf|6144|dock9
  -GOLD-   22720 6293D 1   1.00000     0.00000
 Structure written by MMmdl.
 50 52  0  0  0  0  0  0  0  0  3 V2000
  154.1762  140.6571  160.4297 O   0  0  0  0  0  0  0  0  0  0  0  0
  153.3571  140.0394  159.7497 C   0  0  0  0  0  0  0  0  0  0  0  0
  153.3153  138.7013  159.6793 N   0  0  0  0  0  0  0  0  0  0  0  0
  154.2185  137.8013  160.3874 C   0  0  0  0  0  0  0  0  0  0  0  0
  153.6547  137.4031  161.7653 C   0  0  0  0  0  0  0  0  0  0  0  0
  154.5677  137.7593  162.8802 N   0  3  0  0  0  0  0  0  0  0  0  0
  154.8631  139.2112  162.9695 C   0  0  0  0  0  0  0  0  0  0  0  0
  155.8361  139.4924  164.1275 C   0  0  0  0  0  0  0  0  0  0  0  0
  155.2884  139.0005  165.3441 O   0  0  0  0  0  0  0  0  0  0  0  0
  155.0846  137.5939  165.3038 C   0  0  0  0  0  0  0  0  0  0  0  0
  154.0849  137.2507  164.1867 C   0  0  0  0  0  0  0  0  0  0  0  0
  152.3904  140.6001  159.0035 N   0  0  0  0  0  0  0  0  0  0  0  0
  152.0967  141.9851  158.8464 C   0  0  0  0  0  0  0  0  0  0  0  0
  152.6506  142.9714  159.7024 C   0  0  0  0  0  0  0  0  0  0  0  0
  152.3644  144.3322  159.4812 C   0  0  0  0  0  0  0  0  0  0  0  0
  151.5367  144.6883  158.4019 C   0  0  0  0  0  0  0  0  0  0  0  0
  151.0374  143.7277  157.5967 N   0  3  0  0  0  0  0  0  0  0  0  0
  151.2801  142.4036  157.7596 C   0  0  0  0  0  0  0  0  0  0  0  0
  150.6857  141.4868  156.8665 N   0  0  0  0  0  0  0  0  0  0  0  0
  149.2377  141.6282  156.7361 C   0  0  0  0  0  0  0  0  0  0  0  0
  148.9012  141.3083  155.2782 C   0  0  0  0  0  0  0  0  0  0  0  0
  150.1820  141.6768  154.5398 C   0  0  0  0  0  0  0  0  0  0  0  0
  151.2661  141.2799  155.5402 C   0  0  0  0  0  0  0  0  0  0  0  0
  152.6073  138.2735  159.1004 H   0  0  0  0  0  0  0  0  0  0  0  0
  154.4137  136.9143  159.7818 H   0  0  0  0  0  0  0  0  0  0  0  0
  155.1705  138.3206  160.4932 H   0  0  0  0  0  0  0  0  0  0  0  0
  152.6761  137.8572  161.9290 H   0  0  0  0  0  0  0  0  0  0  0  0
  153.4990  136.3231  161.7758 H   0  0  0  0  0  0  0  0  0  0  0  0
  155.3036  139.5709  162.0406 H   0  0  0  0  0  0  0  0  0  0  0  0
  153.9356  139.7659  163.1205 H   0  0  0  0  0  0  0  0  0  0  0  0
  156.8083  139.0337  163.9397 H   0  0  0  0  0  0  0  0  0  0  0  0
  156.0041  140.5653  164.2242 H   0  0  0  0  0  0  0  0  0  0  0  0
  156.0345  137.0797  165.1493 H   0  0  0  0  0  0  0  0  0  0  0  0
  154.6978  137.2650  166.2686 H   0  0  0  0  0  0  0  0  0  0  0  0
  153.1098  137.6863  164.4114 H   0  0  0  0  0  0  0  0  0  0  0  0
  153.9499  136.1694  164.1381 H   0  0  0  0  0  0  0  0  0  0  0  0
  151.7339  139.9649  158.5737 H   0  0  0  0  0  0  0  0  0  0  0  0
  153.3071  142.7087  160.5179 H   0  0  0  0  0  0  0  0  0  0  0  0
  152.7803  145.0917  160.1271 H   0  0  0  0  0  0  0  0  0  0  0  0
  151.2638  145.7045  158.1568 H   0  0  0  0  0  0  0  0  0  0  0  0
  148.7114  140.9599  157.4176 H   0  0  0  0  0  0  0  0  0  0  0  0
  148.9382  142.6507  156.9724 H   0  0  0  0  0  0  0  0  0  0  0  0
  148.7078  140.2404  155.1675 H   0  0  0  0  0  0  0  0  0  0  0  0
  148.0265  141.8488  154.9154 H   0  0  0  0  0  0  0  0  0  0  0  0
  150.2838  141.1708  153.5795 H   0  0  0  0  0  0  0  0  0  0  0  0
  150.2130  142.7528  154.3628 H   0  0  0  0  0  0  0  0  0  0  0  0
  152.1968  141.8167  155.3587 H   0  0  0  0  0  0  0  0  0  0  0  0
  151.4909  140.2177  155.4405 H   0  0  0  0  0  0  0  0  0  0  0  0
  155.4432  137.2889  162.7001 H   0  0  0  0  0  0  0  0  0  0  0  0
  150.4395  144.0155  156.8218 H   0  0  0  0  0  0  0  0  0  0  0  0
  1  2  2  0  0  0  0
  2  3  1  0  0  0  0
  2 12  1  0  0  0  0
  3  4  1  0  0  0  0
  3 24  1  0  0  0  0
  4  5  1  0  0  0  0
  4 25  1  0  0  0  0
  4 26  1  0  0  0  0
  5  6  1  0  0  0  0
  5 27  1  0  0  0  0
  5 28  1  0  0  0  0
  6 11  1  0  0  0  0
  6  7  1  0  0  0  0
  6 49  1  0  0  0  0
  7  8  1  0  0  0  0
  7 29  1  0  0  0  0
  7 30  1  0  0  0  0
  8  9  1  0  0  0  0
  8 31  1  0  0  0  0
  8 32  1  0  0  0  0
  9 10  1  0  0  0  0
 10 11  1  0  0  0  0
 10 33  1  0  0  0  0
 10 34  1  0  0  0  0
 11 35  1  0  0  0  0
 11 36  1  0  0  0  0
 12 13  1  0  0  0  0
 12 37  1  0  0  0  0
 13 18  1  0  0  0  0
 13 14  2  0  0  0  0
 14 15  1  0  0  0  0
 14 38  1  0  0  0  0
 15 16  2  0  0  0  0
 15 39  1  0  0  0  0
 16 17  1  0  0  0  0
 16 40  1  0  0  0  0
 17 18  2  0  0  0  0
 17 50  1  0  0  0  0
 18 19  1  0  0  0  0
 19 23  1  0  0  0  0
 19 20  1  0  0  0  0
 20 21  1  0  0  0  0
 20 41  1  0  0  0  0
 20 42  1  0  0  0  0
 21 22  1  0  0  0  0
 21 43  1  0  0  0  0
 21 44  1  0  0  0  0
 22 23  1  0  0  0  0
 22 45  1  0  0  0  0
 22 46  1  0  0  0  0
 23 47  1  0  0  0  0
 23 48  1  0  0  0  0
M  CHG  1   6   1
M  CHG  1  17   1
M  END
> <s_m_source_file>
AV-unprocessed.smi

> <i_m_source_file_index>
1525

> <i_lp_mmshare_version>
43012

> <i_f3d_flags>
0

> <s_epik_input>
W0NIMl0xW0NIMl1PW0NIMl1bQ0gyXU4xW0NIMl1bQ0gyXVtOSF1DKD1PKVtOSF1jMltjSF1bY0hdW2NIXW5jMk4zW0NIMl1bQ0gyXVtDSDJdW0NIMl0z

> <s_epik_cmdline>
J2VwaWtfcHl0aG9uJywgJy1waCcsICc3LjAnLCAnLXRuJywgJzgnLCAnLW1hJywgJzIwMCcsICctbWV0YWxfYmluZGluZycsICctaW1hZScsICc8aW5maWxlLm1hZT4nLCAnLW9tYWUnLCAnPG91dGZpbGUubWFlPic=

> <r_lp_tautomer_probability>
0.999994

> <r_epik_Ionization_Penalty>
1.81601

> <r_epik_Ionization_Penalty_Charging>
1.81599

> <r_epik_Ionization_Penalty_Neutral>
2.02981e-05

> <r_epik_State_Penalty>
1.85672

> <r_epik_Charging_Adjusted_Penalty>
3.6727

> <i_epik_Tot_Q>
2

> <i_epik_Tot_abs_Q>
2

> <r_epik_Metal_State_Penalty>
1.93796

> <b_epik_Metal_Only>
0

> <s_lp_Force_Field>
OPLS_2005

> <r_lp_Energy>
52.6706

> <b_lp_Chiralities_Consistent>
1

> <s_lp_Variant>
AV-unprocessed.smi:1525-4

> <Gold.Version>
5.8.1

> <Gold.Id.Protein>
6NUR|6NUR_protein|mol2

> <Gold.PLP.Fitness>
46.4657

> <Gold.PLP.PLP>
-42.0980

> <Gold.PLP.part.hbond>
-1.0000

> <Gold.PLP.part.metal>
0.0000

> <Gold.PLP.part.buried>
-7.1467

> <Gold.PLP.part.nonpolar>
-34.3382

> <Gold.PLP.part.repulsive>
0.2931

> <Gold.PLP.ligand.clash>
0.0000

> <Gold.PLP.ligand.torsion>
0.9118

> <Gold.PLP.Chemscore.Hbond>
2.0000

> <Gold.PLP.Chemscore.CHOScore>
0.0000

> <Gold.PLP.Chemscore.Metal>
0.0000

> <Gold.Chemscore.Hbonds>
donor molecule, donor type, donor heavy atom, donor atom, acceptor molecule, acceptor atom, score
      L1  H    17    50       P1  8028  1.95

> <Gold.PLP.Chemscore.Internal.Correction>
0.1914

> <Gold.Rescore>
     Score         DG    S(hbond)    S(metal)    S(lipo)     H(rot)  DE(clash)    DE(int)     intcor
     15.05     -17.64       0.99        0.00     112.75       1.70       0.23       2.36       ----

> <Gold.Chemscore.Fitness>
15.0508

> <Gold.Chemscore.DG>
-17.6436

> <Gold.Chemscore.ZeroCoef>
-5.4800

> <Gold.Chemscore.Hbond>
0.9916

> <Gold.Chemscore.Metal>
0.0000

> <Gold.Chemscore.Lipo>
112.7455

> <Gold.Chemscore.Internal_Hbond>
0.0000

> <Gold.Chemscore.DEClash>
0.2284

> <Gold.Chemscore.DEInternal>
2.3643

> <Gold.Chemscore.Rot>
1.6952

> <Gold.Chemscore.Internal.Correction>
   9.000000E+99

> <Gold.Chemscore.Hbonds>
donor molecule, donor type, donor heavy atom, donor atom, acceptor molecule, acceptor atom, score
      L1  H    17    50       P1  8028  0.91

> <Gold.Chemscore.Hbond.Weighted>
-3.3120

> <Gold.Chemscore.Metal.Weighted>
-0.0000

> <Gold.Chemscore.Lipo.Weighted>
-13.1912

> <Gold.Chemscore.Internal_Hbond.Weighted>
0.0000

> <Gold.Chemscore.DEClash.Weighted>
0.2284

> <Gold.Chemscore.DEInternal.Weighted>
2.3643

> <Gold.Chemscore.Rot.Weighted>
4.3397

> <Gold.Chemscore.Internal.Correction.Weighted>
   9.000000E+99

> <Gold.Protein.RotatedTorsions>
[ 6907 6896 6895 6894 ] final    1.11 input  -60.11 | X-H torsion
[ 7974 7965 7964 7962 ] final  -64.51 input  175.53 | X-H torsion
[ 8008 7997 7996 7995 ] final  161.33 input   59.86 | X-H torsion
[ 10167 10162 10161 10158 ] final -107.38 input  -65.29 | X-H torsion
[ 10718 10713 10712 10709 ] final  -43.02 input   66.30 | X-H torsion
[ 10763 10752 10751 10750 ] final -163.45 input  -60.55 | X-H torsion
[ 11005 11000 10999 10996 ] final   89.06 input  -57.11 | X-H torsion

> <Gold.Protein.ActiveResidues>
 VAL166  LYS551  ARG553  GLY616  TRP617  ASP618  TYR619  PRO620  LYS621  CYS622 
 ASP623  PHE694  ASN695  SER759  ASP760  ASP761  ALA762  ILE779  LEU786  VAL792 
 PHE793  MET794  SER795  GLU796  ALA797  LYS798  CYS799  TRP800  GLU811  SER814 

> <Gold.Protein.RotatedAtoms>
  151.5873  135.1055  160.0030 H   0  0  0  0  0  0  0  0  0  0  0  0  # atno 6907 bound_to 6896
  152.4324  133.7296  159.6590 H   0  0  0  0  0  0  0  0  0  0  0  0  # atno 6908 bound_to 6896
  150.8217  133.8170  159.3159 H   0  0  0  0  0  0  0  0  0  0  0  0  # atno 6909 bound_to 6896
  145.7658  140.8838  143.0406 H   0  0  0  0  0  0  0  0  0  0  0  0  # atno 7974 bound_to 7965
  156.2111  140.1780  156.7694 H   0  0  0  0  0  0  0  0  0  0  0  0  # atno 8008 bound_to 7997
  154.5723  140.0680  156.9012 H   0  0  0  0  0  0  0  0  0  0  0  0  # atno 8009 bound_to 7997
  155.2650  140.3338  155.4272 H   0  0  0  0  0  0  0  0  0  0  0  0  # atno 8010 bound_to 7997
  140.1775  143.3993  152.1307 H   0  0  0  0  0  0  0  0  0  0  0  0  # atno 10167 bound_to 10162
  156.2534  130.4190  149.8623 H   0  0  0  0  0  0  0  0  0  0  0  0  # atno 10718 bound_to 10713
  154.7121  135.3008  154.9180 H   0  0  0  0  0  0  0  0  0  0  0  0  # atno 10763 bound_to 10752
  154.0079  135.6698  153.4767 H   0  0  0  0  0  0  0  0  0  0  0  0  # atno 10764 bound_to 10752
  153.0764  135.5033  154.8326 H   0  0  0  0  0  0  0  0  0  0  0  0  # atno 10765 bound_to 10752
  139.8883  134.8528  156.3089 H   0  0  0  0  0  0  0  0  0  0  0  0  # atno 11005 bound_to 11000
  144.6822  139.9786  143.7483 LP  0  0  0  0  0  0  0  0  0  0  0  0  # atno 17320 bound_to 7965
  146.0219  139.3258  143.0808 LP  0  0  0  0  0  0  0  0  0  0  0  0  # atno 17321 bound_to 7965
  139.5310  144.7159  151.5055 LP  0  0  0  0  0  0  0  0  0  0  0  0  # atno 17342 bound_to 10162
  140.6541  143.8635  150.6817 LP  0  0  0  0  0  0  0  0  0  0  0  0  # atno 17343 bound_to 10162
  156.6164  130.8608  151.3466 LP  0  0  0  0  0  0  0  0  0  0  0  0  # atno 17370 bound_to 10713
  157.7223  130.9575  150.1490 LP  0  0  0  0  0  0  0  0  0  0  0  0  # atno 17371 bound_to 10713
  140.9863  133.7236  156.0747 LP  0  0  0  0  0  0  0  0  0  0  0  0  # atno 17394 bound_to 11000
  140.7683  134.3861  157.5512 LP  0  0  0  0  0  0  0  0  0  0  0  0  # atno 17395 bound_to 11000

$$$$
