AV-unprocessed.smi:3089|AV-procd|sdf|11770|dock5
  -GOLD-   2272017153D 1   1.00000     0.00000
 Structure written by MMmdl.
 25 25  0  0  0  0  0  0  0  0  2 V2000
  142.9953  135.3663  153.7734 C   0  0  0  0  0  0  0  0  0  0  0  0
  143.5080  134.8407  152.5260 N   0  0  0  0  0  0  0  0  0  0  0  0
  143.2955  133.6023  151.9612 C   0  0  0  0  0  0  0  0  0  0  0  0
  143.9843  133.5603  150.7795 C   0  0  0  0  0  0  0  0  0  0  0  0
  144.0828  132.4229  149.7843 C   0  0  1  0  0  0  0  0  0  0  0  0
  145.5252  131.8904  149.7356 C   0  0  0  0  0  0  0  0  0  0  0  0
  143.2764  131.3215  150.1595 O   0  0  0  0  0  0  0  0  0  0  0  0
  143.6243  132.8702  148.3785 C   0  0  0  0  0  0  0  0  0  0  0  0
  142.2065  132.5517  148.1256 N   0  3  0  0  0  0  0  0  0  0  0  0
  144.5895  134.8505  150.7141 C   0  0  0  0  0  0  0  0  0  0  0  0
  144.3075  135.6091  151.7601 N   0  0  0  0  0  0  0  0  0  0  0  0
  142.3710  134.6205  154.2660 H   0  0  0  0  0  0  0  0  0  0  0  0
  142.3969  136.2572  153.5809 H   0  0  0  0  0  0  0  0  0  0  0  0
  143.8235  135.6266  154.4334 H   0  0  0  0  0  0  0  0  0  0  0  0
  142.6780  132.8579  152.4421 H   0  0  0  0  0  0  0  0  0  0  0  0
  146.2251  132.6644  149.4184 H   0  0  0  0  0  0  0  0  0  0  0  0
  145.6218  131.0587  149.0365 H   0  0  0  0  0  0  0  0  0  0  0  0
  145.8506  131.5361  150.7148 H   0  0  0  0  0  0  0  0  0  0  0  0
  142.3687  131.5835  150.1256 H   0  0  0  0  0  0  0  0  0  0  0  0
  143.7517  133.9475  148.2650 H   0  0  0  0  0  0  0  0  0  0  0  0
  144.2327  132.4001  147.6048 H   0  0  0  0  0  0  0  0  0  0  0  0
  141.6232  133.3105  148.4476 H   0  0  0  0  0  0  0  0  0  0  0  0
  141.9619  131.7039  148.6171 H   0  0  0  0  0  0  0  0  0  0  0  0
  145.2272  135.2550  149.9417 H   0  0  0  0  0  0  0  0  0  0  0  0
  142.0681  132.4140  147.1344 H   0  0  0  0  0  0  0  0  0  0  0  0
  1  2  1  0  0  0  0
  1 12  1  0  0  0  0
  1 13  1  0  0  0  0
  1 14  1  0  0  0  0
  2 11  1  0  0  0  0
  2  3  1  0  0  0  0
  3  4  2  0  0  0  0
  3 15  1  0  0  0  0
  4  5  1  0  0  0  0
  4 10  1  0  0  0  0
  5  6  1  0  0  0  0
  5  7  1  0  0  0  0
  5  8  1  0  0  0  0
  6 16  1  0  0  0  0
  6 17  1  0  0  0  0
  6 18  1  0  0  0  0
  7 19  1  0  0  0  0
  8  9  1  0  0  0  0
  8 20  1  0  0  0  0
  8 21  1  0  0  0  0
  9 22  1  0  0  0  0
  9 23  1  0  0  0  0
  9 25  1  0  0  0  0
 10 11  2  0  0  0  0
 10 24  1  0  0  0  0
M  CHG  1   9   1
M  END
> <s_m_source_file>
AV-unprocessed.smi

> <i_m_source_file_index>
3089

> <i_lp_mmshare_version>
43012

> <i_f3d_flags>
0

> <s_epik_input>
W0NIM11uMVtjSF1jKFtjSF1uMSlbQ0BAXShbQ0gzXSkoW09IXSlbQ0gyXVtOSDJd

> <s_epik_cmdline>
J2VwaWtfcHl0aG9uJywgJy1waCcsICc3LjAnLCAnLXRuJywgJzgnLCAnLW1hJywgJzIwMCcsICctbWV0YWxfYmluZGluZycsICctaW1hZScsICc8aW5maWxlLm1hZT4nLCAnLW9tYWUnLCAnPG91dGZpbGUubWFlPic=

> <r_lp_tautomer_probability>
1

> <r_epik_Ionization_Penalty>
0.0140512

> <r_epik_Ionization_Penalty_Charging>
0.0140431

> <r_epik_Ionization_Penalty_Neutral>
8.10489e-06

> <r_epik_State_Penalty>
0.0109628

> <r_epik_Charging_Adjusted_Penalty>
0.0250059

> <i_epik_Tot_Q>
1

> <i_epik_Tot_abs_Q>
1

> <r_epik_Metal_State_Penalty>
0.0109638

> <b_epik_Metal_Only>
0

> <s_lp_Force_Field>
OPLS_2005

> <r_lp_Energy>
3.27267

> <b_lp_Chiralities_Consistent>
1

> <s_lp_Variant>
AV-unprocessed.smi:3089-1

> <Gold.Version>
5.8.1

> <Gold.Id.Protein>
6NUR|6NUR_protein|mol2

> <Gold.PLP.Fitness>
47.0409

> <Gold.PLP.PLP>
-27.1806

> <Gold.PLP.part.hbond>
-5.0000

> <Gold.PLP.part.metal>
0.0000

> <Gold.PLP.part.buried>
-5.2019

> <Gold.PLP.part.nonpolar>
-20.1335

> <Gold.PLP.part.repulsive>
0.3701

> <Gold.PLP.ligand.clash>
0.0000

> <Gold.PLP.ligand.torsion>
0.7679

> <Gold.PLP.Chemscore.Hbond>
5.3286

> <Gold.PLP.Chemscore.CHOScore>
1.7979

> <Gold.PLP.Chemscore.Metal>
0.0000

> <Gold.Chemscore.Hbonds>
donor molecule, donor type, donor heavy atom, donor atom, acceptor molecule, acceptor atom, score
      L1  H     7    19       P1 10952  0.47
      L1  H     9    22       P1 10186  2.00
      L1  H     9    23       P1 10952  1.00
      L1  H     9    25       P1 10195  0.94
      P1  H 10785 10796       L1     7  0.84
      L1  C     3    15       P1 10957  0.73
      L1  C    10    24       P1  7921  1.00

> <Gold.PLP.Chemscore.Internal.Correction>
0.0166

> <Gold.Rescore>
     Score         DG    S(hbond)    S(metal)    S(lipo)     H(rot)  DE(clash)    DE(int)     intcor
     20.00     -20.83       3.77        0.00      64.75       1.89       0.16       0.67       ----

> <Gold.Chemscore.Fitness>
20.0001

> <Gold.Chemscore.DG>
-20.8283

> <Gold.Chemscore.ZeroCoef>
-5.4800

> <Gold.Chemscore.Hbond>
3.7746

> <Gold.Chemscore.Metal>
0.0000

> <Gold.Chemscore.Lipo>
64.7458

> <Gold.Chemscore.Internal_Hbond>
0.0000

> <Gold.Chemscore.DEClash>
0.1557

> <Gold.Chemscore.DEInternal>
0.6726

> <Gold.Chemscore.Rot>
1.8883

> <Gold.Chemscore.Internal.Correction>
   9.000000E+99

> <Gold.Chemscore.Hbonds>
donor molecule, donor type, donor heavy atom, donor atom, acceptor molecule, acceptor atom, score
      L1  H     7    19       P1 10952  0.38
      L1  H     9    22       P1 10186  0.99
      L1  H     9    23       P1 10952  0.96
      L1  H     9    25       P1 10195  0.91
      P1  H 10785 10796       L1     7  0.10

> <Gold.Chemscore.Hbond.Weighted>
-12.6071

> <Gold.Chemscore.Metal.Weighted>
-0.0000

> <Gold.Chemscore.Lipo.Weighted>
-7.5753

> <Gold.Chemscore.Internal_Hbond.Weighted>
0.0000

> <Gold.Chemscore.DEClash.Weighted>
0.1557

> <Gold.Chemscore.DEInternal.Weighted>
0.6726

> <Gold.Chemscore.Rot.Weighted>
4.8341

> <Gold.Chemscore.Internal.Correction.Weighted>
   9.000000E+99

> <Gold.Protein.RotatedTorsions>
[ 6907 6896 6895 6894 ] final  -96.85 input  -60.11 | X-H torsion
[ 7974 7965 7964 7962 ] final  123.38 input  175.53 | X-H torsion
[ 8008 7997 7996 7995 ] final  -62.94 input   59.86 | X-H torsion
[ 10167 10162 10161 10158 ] final -130.93 input  -65.29 | X-H torsion
[ 10718 10713 10712 10709 ] final -159.40 input   66.30 | X-H torsion
[ 10763 10752 10751 10750 ] final   65.96 input  -60.55 | X-H torsion
[ 11005 11000 10999 10996 ] final  135.43 input  -57.11 | X-H torsion

> <Gold.Protein.ActiveResidues>
 VAL166  LYS551  ARG553  GLY616  TRP617  ASP618  TYR619  PRO620  LYS621  CYS622 
 ASP623  PHE694  ASN695  SER759  ASP760  ASP761  ALA762  ILE779  LEU786  VAL792 
 PHE793  MET794  SER795  GLU796  ALA797  LYS798  CYS799  TRP800  GLU811  SER814 

> <Gold.Protein.RotatedAtoms>
  150.7000  134.1439  159.4114 H   0  0  0  0  0  0  0  0  0  0  0  0  # atno 6907 bound_to 6896
  151.9423  135.0205  160.0546 H   0  0  0  0  0  0  0  0  0  0  0  0  # atno 6908 bound_to 6896
  152.2083  133.4857  159.5133 H   0  0  0  0  0  0  0  0  0  0  0  0  # atno 6909 bound_to 6896
  145.0966  139.3548  143.4833 H   0  0  0  0  0  0  0  0  0  0  0  0  # atno 7974 bound_to 7965
  154.4527  140.0985  156.6665 H   0  0  0  0  0  0  0  0  0  0  0  0  # atno 8008 bound_to 7997
  155.5236  140.3479  155.4393 H   0  0  0  0  0  0  0  0  0  0  0  0  # atno 8009 bound_to 7997
  156.0713  140.1350  156.9814 H   0  0  0  0  0  0  0  0  0  0  0  0  # atno 8010 bound_to 7997
  139.9242  143.6347  152.2546 H   0  0  0  0  0  0  0  0  0  0  0  0  # atno 10167 bound_to 10162
  156.5676  130.8674  151.2828 H   0  0  0  0  0  0  0  0  0  0  0  0  # atno 10718 bound_to 10713
  153.0119  135.5338  154.6749 H   0  0  0  0  0  0  0  0  0  0  0  0  # atno 10763 bound_to 10752
  154.5924  135.2860  155.0624 H   0  0  0  0  0  0  0  0  0  0  0  0  # atno 10764 bound_to 10752
  154.1712  135.6532  153.5062 H   0  0  0  0  0  0  0  0  0  0  0  0  # atno 10765 bound_to 10752
  139.9979  134.9490  157.0007 H   0  0  0  0  0  0  0  0  0  0  0  0  # atno 11005 bound_to 11000
  146.3530  140.0825  142.8617 LP  0  0  0  0  0  0  0  0  0  0  0  0  # atno 17320 bound_to 7965
  145.1004  140.9342  143.4716 LP  0  0  0  0  0  0  0  0  0  0  0  0  # atno 17321 bound_to 7965
  139.6836  144.7653  151.1564 LP  0  0  0  0  0  0  0  0  0  0  0  0  # atno 17342 bound_to 10162
  140.7654  143.5689  150.9017 LP  0  0  0  0  0  0  0  0  0  0  0  0  # atno 17343 bound_to 10162
  157.7355  130.9763  150.2086 LP  0  0  0  0  0  0  0  0  0  0  0  0  # atno 17370 bound_to 10713
  156.2743  130.3725  149.7999 LP  0  0  0  0  0  0  0  0  0  0  0  0  # atno 17371 bound_to 10713
  140.4782  134.1316  155.7213 LP  0  0  0  0  0  0  0  0  0  0  0  0  # atno 17394 bound_to 11000
  141.1619  133.8776  157.1823 LP  0  0  0  0  0  0  0  0  0  0  0  0  # atno 17395 bound_to 11000

$$$$
