AV-unprocessed.smi:2496|AV-procd|sdf|9828|dock3
  -GOLD-   2272013453D 1   1.00000     0.00000
 Structure written by MMmdl.
 40 40  0  0  0  0  0  0  0  0  1 V2000
  152.1897  139.7052  156.4735 C   0  0  0  0  0  0  0  0  0  0  0  0
  151.0239  140.0915  155.6064 C   0  0  0  0  0  0  0  0  0  0  0  0
  150.8905  139.4998  154.4287 N   0  0  0  0  0  0  0  0  0  0  0  0
  149.7822  140.0524  153.9093 N   0  0  0  0  0  0  0  0  0  0  0  0
  149.2064  140.9847  154.7385 C   0  0  0  0  0  0  0  0  0  0  0  0
  147.9685  141.7258  154.3582 C   0  0  0  0  0  0  0  0  0  0  0  0
  149.9844  141.0439  155.8639 C   0  0  0  0  0  0  0  0  0  0  0  0
  149.7739  141.9298  157.0750 C   0  0  1  0  0  0  0  0  0  0  0  0
  149.3283  141.1291  158.3129 C   0  0  0  0  0  0  0  0  0  0  0  0
  151.0344  142.7735  157.3204 C   0  0  0  0  0  0  0  0  0  0  0  0
  151.5865  143.3683  156.3940 O   0  0  0  0  0  0  0  0  0  0  0  0
  151.4789  142.8059  158.5877 N   0  0  0  0  0  0  0  0  0  0  0  0
  152.6324  143.5563  159.0832 C   0  0  1  0  0  0  0  0  0  0  0  0
  152.2128  145.0311  159.2094 C   0  0  0  0  0  0  0  0  0  0  0  0
  153.1515  142.9472  160.4137 C   0  0  0  0  0  0  0  0  0  0  0  0
  153.3411  141.4224  160.3220 C   0  0  0  0  0  0  0  0  0  0  0  0
  152.2354  143.2769  161.6086 C   0  0  0  0  0  0  0  0  0  0  0  0
  149.4349  139.7874  152.9986 H   0  0  0  0  0  0  0  0  0  0  0  0
  152.6305  140.5754  156.9582 H   0  0  0  0  0  0  0  0  0  0  0  0
  152.9786  139.2231  155.8951 H   0  0  0  0  0  0  0  0  0  0  0  0
  151.8818  139.0090  157.2534 H   0  0  0  0  0  0  0  0  0  0  0  0
  148.1607  142.7978  154.3140 H   0  0  0  0  0  0  0  0  0  0  0  0
  147.1770  141.5539  155.0879 H   0  0  0  0  0  0  0  0  0  0  0  0
  147.6002  141.4098  153.3817 H   0  0  0  0  0  0  0  0  0  0  0  0
  148.9743  142.6436  156.8717 H   0  0  0  0  0  0  0  0  0  0  0  0
  150.0748  140.3977  158.6217 H   0  0  0  0  0  0  0  0  0  0  0  0
  148.4017  140.5906  158.1119 H   0  0  0  0  0  0  0  0  0  0  0  0
  149.1431  141.7884  159.1618 H   0  0  0  0  0  0  0  0  0  0  0  0
  150.9570  142.2818  159.2748 H   0  0  0  0  0  0  0  0  0  0  0  0
  153.4426  143.5106  158.3532 H   0  0  0  0  0  0  0  0  0  0  0  0
  153.0564  145.6735  159.4589 H   0  0  0  0  0  0  0  0  0  0  0  0
  151.4503  145.1632  159.9781 H   0  0  0  0  0  0  0  0  0  0  0  0
  151.8012  145.4010  158.2694 H   0  0  0  0  0  0  0  0  0  0  0  0
  154.1279  143.3844  160.6278 H   0  0  0  0  0  0  0  0  0  0  0  0
  152.4120  140.9241  160.0435 H   0  0  0  0  0  0  0  0  0  0  0  0
  153.6632  141.0086  161.2781 H   0  0  0  0  0  0  0  0  0  0  0  0
  154.1006  141.1502  159.5903 H   0  0  0  0  0  0  0  0  0  0  0  0
  151.2191  142.9212  161.4362 H   0  0  0  0  0  0  0  0  0  0  0  0
  152.1854  144.3490  161.7995 H   0  0  0  0  0  0  0  0  0  0  0  0
  152.5992  142.8099  162.5242 H   0  0  0  0  0  0  0  0  0  0  0  0
  1  2  1  0  0  0  0
  1 19  1  0  0  0  0
  1 20  1  0  0  0  0
  1 21  1  0  0  0  0
  2  7  1  0  0  0  0
  2  3  2  0  0  0  0
  3  4  1  0  0  0  0
  4 18  1  0  0  0  0
  4  5  1  0  0  0  0
  5  6  1  0  0  0  0
  5  7  2  0  0  0  0
  6 22  1  0  0  0  0
  6 23  1  0  0  0  0
  6 24  1  0  0  0  0
  7  8  1  0  0  0  0
  8  9  1  0  0  0  0
  8 10  1  0  0  0  0
  8 25  1  0  0  0  0
  9 26  1  0  0  0  0
  9 27  1  0  0  0  0
  9 28  1  0  0  0  0
 10 11  2  0  0  0  0
 10 12  1  0  0  0  0
 12 13  1  0  0  0  0
 12 29  1  0  0  0  0
 13 14  1  0  0  0  0
 13 15  1  0  0  0  0
 13 30  1  0  0  0  0
 14 31  1  0  0  0  0
 14 32  1  0  0  0  0
 14 33  1  0  0  0  0
 15 16  1  0  0  0  0
 15 17  1  0  0  0  0
 15 34  1  0  0  0  0
 16 35  1  0  0  0  0
 16 36  1  0  0  0  0
 16 37  1  0  0  0  0
 17 38  1  0  0  0  0
 17 39  1  0  0  0  0
 17 40  1  0  0  0  0
M  END
> <s_m_source_file>
AV-unprocessed.smi

> <i_m_source_file_index>
2496

> <i_lp_mmshare_version>
43012

> <i_f3d_flags>
0

> <s_epik_input>
W0NIM11jMW5bbkhdYyhbQ0gzXSljMVtDQEhdKFtDSDNdKUMoPU8pW05IXVtDQEhdKFtDSDNdKVtDSF0oW0NIM10pW0NIM10=

> <s_epik_cmdline>
J2VwaWtfcHl0aG9uJywgJy1waCcsICc3LjAnLCAnLXRuJywgJzgnLCAnLW1hJywgJzIwMCcsICctbWV0YWxfYmluZGluZycsICctaW1hZScsICc8aW5maWxlLm1hZT4nLCAnLW9tYWUnLCAnPG91dGZpbGUubWFlPic=

> <r_lp_tautomer_probability>
1

> <r_epik_Ionization_Penalty>
0.000456212

> <r_epik_Ionization_Penalty_Charging>
0

> <r_epik_Ionization_Penalty_Neutral>
0.000456212

> <r_epik_State_Penalty>
-0

> <r_epik_Charging_Adjusted_Penalty>
0

> <i_epik_Tot_Q>
0

> <i_epik_Tot_abs_Q>
0

> <r_epik_Metal_State_Penalty>
-0

> <b_epik_Metal_Only>
0

> <s_lp_Force_Field>
OPLS_2005

> <r_lp_Energy>
2.25398

> <b_lp_Chiralities_Consistent>
1

> <s_lp_Variant>
AV-unprocessed.smi:2496-4

> <Gold.Version>
5.8.1

> <Gold.Id.Protein>
6NUR|6NUR_protein|mol2

> <Gold.PLP.Fitness>
38.3751

> <Gold.PLP.PLP>
-36.9748

> <Gold.PLP.part.hbond>
-2.0000

> <Gold.PLP.part.metal>
0.0000

> <Gold.PLP.part.buried>
0.5741

> <Gold.PLP.part.nonpolar>
-37.1349

> <Gold.PLP.part.repulsive>
2.7020

> <Gold.PLP.ligand.clash>
0.3328

> <Gold.PLP.ligand.torsion>
0.7326

> <Gold.PLP.Chemscore.Hbond>
1.0190

> <Gold.PLP.Chemscore.CHOScore>
0.0000

> <Gold.PLP.Chemscore.Metal>
0.0000

> <Gold.Chemscore.Hbonds>
donor molecule, donor type, donor heavy atom, donor atom, acceptor molecule, acceptor atom, score
      L1  H     4    18       P1  7957  0.91

> <Gold.PLP.Chemscore.Internal.Correction>
0.1413

> <Gold.Rescore>
     Score         DG    S(hbond)    S(metal)    S(lipo)     H(rot)  DE(clash)    DE(int)     intcor
     14.07     -16.57       0.83        0.00     103.21       1.47       1.92       0.58       ----

> <Gold.Chemscore.Fitness>
14.0675

> <Gold.Chemscore.DG>
-16.5722

> <Gold.Chemscore.ZeroCoef>
-5.4800

> <Gold.Chemscore.Hbond>
0.8295

> <Gold.Chemscore.Metal>
0.0000

> <Gold.Chemscore.Lipo>
103.2067

> <Gold.Chemscore.Internal_Hbond>
0.0000

> <Gold.Chemscore.DEClash>
1.9208

> <Gold.Chemscore.DEInternal>
0.5840

> <Gold.Chemscore.Rot>
1.4662

> <Gold.Chemscore.Internal.Correction>
   9.000000E+99

> <Gold.Chemscore.Hbonds>
donor molecule, donor type, donor heavy atom, donor atom, acceptor molecule, acceptor atom, score
      L1  H     4    18       P1  7957  0.88

> <Gold.Chemscore.Hbond.Weighted>
-2.7704

> <Gold.Chemscore.Metal.Weighted>
-0.0000

> <Gold.Chemscore.Lipo.Weighted>
-12.0752

> <Gold.Chemscore.Internal_Hbond.Weighted>
0.0000

> <Gold.Chemscore.DEClash.Weighted>
1.9208

> <Gold.Chemscore.DEInternal.Weighted>
0.5840

> <Gold.Chemscore.Rot.Weighted>
3.7534

> <Gold.Chemscore.Internal.Correction.Weighted>
   9.000000E+99

> <Gold.Protein.RotatedTorsions>
[ 6907 6896 6895 6894 ] final   66.05 input  -60.11 | X-H torsion
[ 7974 7965 7964 7962 ] final   -9.39 input  175.53 | X-H torsion
[ 8008 7997 7996 7995 ] final   71.84 input   59.86 | X-H torsion
[ 10167 10162 10161 10158 ] final -148.12 input  -65.29 | X-H torsion
[ 10718 10713 10712 10709 ] final  152.32 input   66.30 | X-H torsion
[ 10763 10752 10751 10750 ] final  -75.51 input  -60.55 | X-H torsion
[ 11005 11000 10999 10996 ] final  -74.58 input  -57.11 | X-H torsion

> <Gold.Protein.ActiveResidues>
 VAL166  LYS551  ARG553  GLY616  TRP617  ASP618  TYR619  PRO620  LYS621  CYS622 
 ASP623  PHE694  ASN695  SER759  ASP760  ASP761  ALA762  ILE779  LEU786  VAL792 
 PHE793  MET794  SER795  GLU796  ALA797  LYS798  CYS799  TRP800  GLU811  SER814 

> <Gold.Protein.RotatedAtoms>
  152.4453  134.5508  159.9865 H   0  0  0  0  0  0  0  0  0  0  0  0  # atno 6907 bound_to 6896
  151.5594  133.3399  159.2976 H   0  0  0  0  0  0  0  0  0  0  0  0  # atno 6908 bound_to 6896
  150.8368  134.7676  159.6963 H   0  0  0  0  0  0  0  0  0  0  0  0  # atno 6909 bound_to 6896
  146.2253  140.2609  142.8351 H   0  0  0  0  0  0  0  0  0  0  0  0  # atno 7974 bound_to 7965
  155.7599  140.3487  155.5192 H   0  0  0  0  0  0  0  0  0  0  0  0  # atno 8008 bound_to 7997
  155.8924  140.1020  157.1430 H   0  0  0  0  0  0  0  0  0  0  0  0  # atno 8009 bound_to 7997
  154.4035  140.1302  156.4319 H   0  0  0  0  0  0  0  0  0  0  0  0  # atno 8010 bound_to 7997
  139.7560  143.8447  152.2597 H   0  0  0  0  0  0  0  0  0  0  0  0  # atno 10167 bound_to 10162
  157.2593  131.0795  151.1676 H   0  0  0  0  0  0  0  0  0  0  0  0  # atno 10718 bound_to 10713
  154.4875  135.5829  153.6434 H   0  0  0  0  0  0  0  0  0  0  0  0  # atno 10763 bound_to 10752
  152.9857  135.6104  154.3168 H   0  0  0  0  0  0  0  0  0  0  0  0  # atno 10764 bound_to 10752
  154.3065  135.2846  155.2566 H   0  0  0  0  0  0  0  0  0  0  0  0  # atno 10765 bound_to 10752
  141.1636  133.6916  156.7386 H   0  0  0  0  0  0  0  0  0  0  0  0  # atno 11005 bound_to 11000
  144.9340  140.8006  143.5671 LP  0  0  0  0  0  0  0  0  0  0  0  0  # atno 17320 bound_to 7965
  145.2555  139.2014  143.4920 LP  0  0  0  0  0  0  0  0  0  0  0  0  # atno 17321 bound_to 7965
  139.8439  144.7197  150.9297 LP  0  0  0  0  0  0  0  0  0  0  0  0  # atno 17342 bound_to 10162
  140.7803  143.3959  151.1231 LP  0  0  0  0  0  0  0  0  0  0  0  0  # atno 17343 bound_to 10162
  157.3192  130.6929  149.6259 LP  0  0  0  0  0  0  0  0  0  0  0  0  # atno 17370 bound_to 10713
  155.9664  130.4340  150.5031 LP  0  0  0  0  0  0  0  0  0  0  0  0  # atno 17371 bound_to 10713
  140.2691  134.8406  157.3830 LP  0  0  0  0  0  0  0  0  0  0  0  0  # atno 17394 bound_to 11000
  140.1538  134.4815  155.7942 LP  0  0  0  0  0  0  0  0  0  0  0  0  # atno 17395 bound_to 11000

$$$$
