AV-unprocessed.smi:1485|AV-procd|sdf|6001|dock9
  -GOLD-   22720 6 93D 1   1.00000     0.00000
 Structure written by MMmdl.
 44 45  0  0  0  0  0  0  0  0  1 V2000
  156.5675  138.9661  153.0088 C   0  0  0  0  0  0  0  0  0  0  0  0
  155.6456  139.3402  154.0167 O   0  0  0  0  0  0  0  0  0  0  0  0
  154.4681  138.5490  154.0021 C   0  0  0  0  0  0  0  0  0  0  0  0
  153.7660  138.6548  155.3652 C   0  0  0  0  0  0  0  0  0  0  0  0
  152.3247  138.8853  155.2165 N   0  0  0  0  0  0  0  0  0  0  0  0
  151.8507  139.9538  155.9575 N   0  0  0  0  0  0  0  0  0  0  0  0
  150.5949  140.2624  155.9272 C   0  0  0  0  0  0  0  0  0  0  0  0
  150.0462  141.3847  156.7367 C   0  0  0  0  0  0  0  0  0  0  0  0
  148.8391  141.5053  156.9520 O   0  0  0  0  0  0  0  0  0  0  0  0
  150.9657  142.2429  157.2123 N   0  0  0  0  0  0  0  0  0  0  0  0
  150.7040  143.4186  158.0389 C   0  0  2  0  0  0  0  0  0  0  0  0
  151.5590  144.6177  157.5813 C   0  0  0  0  0  0  0  0  0  0  0  0
  153.0534  144.4111  157.8841 C   0  0  0  0  0  0  0  0  0  0  0  0
  153.2863  144.0916  159.3696 C   0  0  0  0  0  0  0  0  0  0  0  0
  152.4634  142.8709  159.8236 C   0  0  1  0  0  0  0  0  0  0  0  0
  152.6949  142.5567  161.3081 C   0  0  0  0  0  0  0  0  0  0  0  0
  150.9658  143.0892  159.5219 C   0  0  0  0  0  0  0  0  0  0  0  0
  149.6643  139.5114  155.1021 C   0  0  0  0  0  0  0  0  0  0  0  0
  150.1374  138.4592  154.3985 C   0  0  0  0  0  0  0  0  0  0  0  0
  151.5485  138.0704  154.4399 C   0  0  0  0  0  0  0  0  0  0  0  0
  151.9961  137.0967  153.8348 O   0  0  0  0  0  0  0  0  0  0  0  0
  157.4445  139.6113  153.0584 H   0  0  0  0  0  0  0  0  0  0  0  0
  156.1293  139.0695  152.0154 H   0  0  0  0  0  0  0  0  0  0  0  0
  156.8989  137.9355  153.1408 H   0  0  0  0  0  0  0  0  0  0  0  0
  153.7996  138.9114  153.2201 H   0  0  0  0  0  0  0  0  0  0  0  0
  154.7048  137.5090  153.7711 H   0  0  0  0  0  0  0  0  0  0  0  0
  153.9430  137.7456  155.9427 H   0  0  0  0  0  0  0  0  0  0  0  0
  154.2220  139.4560  155.9493 H   0  0  0  0  0  0  0  0  0  0  0  0
  151.9329  142.0599  156.9855 H   0  0  0  0  0  0  0  0  0  0  0  0
  149.6504  143.6850  157.9400 H   0  0  0  0  0  0  0  0  0  0  0  0
  151.4149  144.8038  156.5162 H   0  0  0  0  0  0  0  0  0  0  0  0
  151.2142  145.5166  158.0939 H   0  0  0  0  0  0  0  0  0  0  0  0
  153.4463  143.6004  157.2691 H   0  0  0  0  0  0  0  0  0  0  0  0
  153.6131  145.3045  157.6065 H   0  0  0  0  0  0  0  0  0  0  0  0
  154.3478  143.9101  159.5410 H   0  0  0  0  0  0  0  0  0  0  0  0
  153.0206  144.9603  159.9735 H   0  0  0  0  0  0  0  0  0  0  0  0
  152.8042  142.0050  159.2544 H   0  0  0  0  0  0  0  0  0  0  0  0
  152.3737  143.3824  161.9437 H   0  0  0  0  0  0  0  0  0  0  0  0
  153.7500  142.3714  161.5103 H   0  0  0  0  0  0  0  0  0  0  0  0
  152.1412  141.6676  161.6111 H   0  0  0  0  0  0  0  0  0  0  0  0
  150.5921  143.9090  160.1372 H   0  0  0  0  0  0  0  0  0  0  0  0
  150.3919  142.2082  159.8127 H   0  0  0  0  0  0  0  0  0  0  0  0
  148.6183  139.7770  155.0536 H   0  0  0  0  0  0  0  0  0  0  0  0
  149.4557  137.8884  153.7851 H   0  0  0  0  0  0  0  0  0  0  0  0
  1  2  1  0  0  0  0
  1 22  1  0  0  0  0
  1 23  1  0  0  0  0
  1 24  1  0  0  0  0
  2  3  1  0  0  0  0
  3  4  1  0  0  0  0
  3 25  1  0  0  0  0
  3 26  1  0  0  0  0
  4  5  1  0  0  0  0
  4 27  1  0  0  0  0
  4 28  1  0  0  0  0
  5 20  1  0  0  0  0
  5  6  1  0  0  0  0
  6  7  2  0  0  0  0
  7  8  1  0  0  0  0
  7 18  1  0  0  0  0
  8  9  2  0  0  0  0
  8 10  1  0  0  0  0
 10 11  1  0  0  0  0
 10 29  1  0  0  0  0
 11 17  1  0  0  0  0
 11 12  1  0  0  0  0
 11 30  1  0  0  0  0
 12 13  1  0  0  0  0
 12 31  1  0  0  0  0
 12 32  1  0  0  0  0
 13 14  1  0  0  0  0
 13 33  1  0  0  0  0
 13 34  1  0  0  0  0
 14 15  1  0  0  0  0
 14 35  1  0  0  0  0
 14 36  1  0  0  0  0
 15 16  1  0  0  0  0
 15 17  1  0  0  0  0
 15 37  1  0  0  0  0
 16 38  1  0  0  0  0
 16 39  1  0  0  0  0
 16 40  1  0  0  0  0
 17 41  1  0  0  0  0
 17 42  1  0  0  0  0
 18 19  2  0  0  0  0
 18 43  1  0  0  0  0
 19 20  1  0  0  0  0
 19 44  1  0  0  0  0
 20 21  2  0  0  0  0
M  END
> <s_m_source_file>
AV-unprocessed.smi

> <i_m_source_file_index>
1485

> <i_lp_mmshare_version>
43012

> <i_f3d_flags>
0

> <s_epik_input>
W0NIM11PW0NIMl1bQ0gyXW4xbmMoW2NIXVtjSF1jMT1PKUMoPU8pW05IXVtDQEBIXTJbQ0gyXVtDSDJdW0NIMl1bQ0BASF0oW0NIM10pW0NIMl0y

> <s_epik_cmdline>
J2VwaWtfcHl0aG9uJywgJy1waCcsICc3LjAnLCAnLXRuJywgJzgnLCAnLW1hJywgJzIwMCcsICctbWV0YWxfYmluZGluZycsICctaW1hZScsICc8aW5maWxlLm1hZT4nLCAnLW9tYWUnLCAnPG91dGZpbGUubWFlPic=

> <r_lp_tautomer_probability>
1

> <r_epik_Ionization_Penalty>
6.4688e-07

> <r_epik_Ionization_Penalty_Charging>
6.63567e-09

> <r_epik_Ionization_Penalty_Neutral>
6.40245e-07

> <r_epik_State_Penalty>
-0

> <r_epik_Charging_Adjusted_Penalty>
6.63567e-09

> <i_epik_Tot_Q>
0

> <i_epik_Tot_abs_Q>
0

> <r_epik_Metal_State_Penalty>
-0

> <b_epik_Metal_Only>
0

> <s_lp_Force_Field>
OPLS_2005

> <r_lp_Energy>
29.3151

> <b_lp_Chiralities_Consistent>
1

> <s_lp_Variant>
AV-unprocessed.smi:1485-1

> <Gold.Version>
5.8.1

> <Gold.Id.Protein>
6NUR|6NUR_protein|mol2

> <Gold.PLP.Fitness>
39.9868

> <Gold.PLP.PLP>
-35.7039

> <Gold.PLP.part.hbond>
-1.9724

> <Gold.PLP.part.metal>
0.0000

> <Gold.PLP.part.buried>
-1.7547

> <Gold.PLP.part.nonpolar>
-35.6255

> <Gold.PLP.part.repulsive>
2.9857

> <Gold.PLP.ligand.clash>
0.0000

> <Gold.PLP.ligand.torsion>
0.8722

> <Gold.PLP.Chemscore.Hbond>
2.0000

> <Gold.PLP.Chemscore.CHOScore>
0.0000

> <Gold.PLP.Chemscore.Metal>
0.0000

> <Gold.Chemscore.Hbonds>
donor molecule, donor type, donor heavy atom, donor atom, acceptor molecule, acceptor atom, score
      P1  H  7997  8009       L1     2  1.00
      P1  H 10752 10763       L1    21  1.00

> <Gold.PLP.Chemscore.Internal.Correction>
0.0274

> <Gold.Rescore>
     Score         DG    S(hbond)    S(metal)    S(lipo)     H(rot)  DE(clash)    DE(int)     intcor
     16.85     -22.89       1.81        0.00     131.12       1.55       4.16       1.88       ----

> <Gold.Chemscore.Fitness>
16.8502

> <Gold.Chemscore.DG>
-22.8902

> <Gold.Chemscore.ZeroCoef>
-5.4800

> <Gold.Chemscore.Hbond>
1.8057

> <Gold.Chemscore.Metal>
0.0000

> <Gold.Chemscore.Lipo>
131.1232

> <Gold.Chemscore.Internal_Hbond>
0.0000

> <Gold.Chemscore.DEClash>
4.1641

> <Gold.Chemscore.DEInternal>
1.8759

> <Gold.Chemscore.Rot>
1.5478

> <Gold.Chemscore.Internal.Correction>
   9.000000E+99

> <Gold.Chemscore.Hbonds>
donor molecule, donor type, donor heavy atom, donor atom, acceptor molecule, acceptor atom, score
      P1  H  7997  8009       L1     2  0.39
      P1  H 10752 10763       L1    21  0.97

> <Gold.Chemscore.Hbond.Weighted>
-6.0310

> <Gold.Chemscore.Metal.Weighted>
-0.0000

> <Gold.Chemscore.Lipo.Weighted>
-15.3414

> <Gold.Chemscore.Internal_Hbond.Weighted>
0.0000

> <Gold.Chemscore.DEClash.Weighted>
4.1641

> <Gold.Chemscore.DEInternal.Weighted>
1.8759

> <Gold.Chemscore.Rot.Weighted>
3.9623

> <Gold.Chemscore.Internal.Correction.Weighted>
   9.000000E+99

> <Gold.Protein.RotatedTorsions>
[ 6907 6896 6895 6894 ] final  -56.55 input  -60.11 | X-H torsion
[ 7974 7965 7964 7962 ] final -105.34 input  175.53 | X-H torsion
[ 8008 7997 7996 7995 ] final  -69.86 input   59.86 | X-H torsion
[ 10167 10162 10161 10158 ] final  162.28 input  -65.29 | X-H torsion
[ 10718 10713 10712 10709 ] final  -66.42 input   66.30 | X-H torsion
[ 10763 10752 10751 10750 ] final   18.95 input  -60.55 | X-H torsion
[ 11005 11000 10999 10996 ] final   48.20 input  -57.11 | X-H torsion

> <Gold.Protein.ActiveResidues>
 VAL166  LYS551  ARG553  GLY616  TRP617  ASP618  TYR619  PRO620  LYS621  CYS622 
 ASP623  PHE694  ASN695  SER759  ASP760  ASP761  ALA762  ILE779  LEU786  VAL792 
 PHE793  MET794  SER795  GLU796  ALA797  LYS798  CYS799  TRP800  GLU811  SER814 

> <Gold.Protein.RotatedAtoms>
  150.8158  134.7340  159.6728 H   0  0  0  0  0  0  0  0  0  0  0  0  # atno 6907 bound_to 6896
  152.4277  134.5834  159.9964 H   0  0  0  0  0  0  0  0  0  0  0  0  # atno 6908 bound_to 6896
  151.6031  133.3317  159.3087 H   0  0  0  0  0  0  0  0  0  0  0  0  # atno 6909 bound_to 6896
  145.2317  140.9173  143.3201 H   0  0  0  0  0  0  0  0  0  0  0  0  # atno 7974 bound_to 7965
  154.4970  140.0845  156.7716 H   0  0  0  0  0  0  0  0  0  0  0  0  # atno 8008 bound_to 7997
  155.4094  140.3441  155.4244 H   0  0  0  0  0  0  0  0  0  0  0  0  # atno 8009 bound_to 7997
  156.1406  140.1528  156.8914 H   0  0  0  0  0  0  0  0  0  0  0  0  # atno 8010 bound_to 7997
  139.4859  144.4453  151.8900 H   0  0  0  0  0  0  0  0  0  0  0  0  # atno 10167 bound_to 10162
  156.0613  130.4262  150.1707 H   0  0  0  0  0  0  0  0  0  0  0  0  # atno 10718 bound_to 10713
  153.1205  135.6718  153.9345 H   0  0  0  0  0  0  0  0  0  0  0  0  # atno 10763 bound_to 10752
  153.8861  135.3052  155.3448 H   0  0  0  0  0  0  0  0  0  0  0  0  # atno 10764 bound_to 10752
  154.7617  135.4985  153.9555 H   0  0  0  0  0  0  0  0  0  0  0  0  # atno 10765 bound_to 10752
  140.1211  134.4828  155.8597 H   0  0  0  0  0  0  0  0  0  0  0  0  # atno 11005 bound_to 11000
  144.9671  139.3919  143.6327 LP  0  0  0  0  0  0  0  0  0  0  0  0  # atno 17320 bound_to 7965
  146.3351  139.8751  142.8833 LP  0  0  0  0  0  0  0  0  0  0  0  0  # atno 17321 bound_to 7965
  140.3907  144.2619  150.5900 LP  0  0  0  0  0  0  0  0  0  0  0  0  # atno 17342 bound_to 10162
  140.5149  143.2281  151.8479 LP  0  0  0  0  0  0  0  0  0  0  0  0  # atno 17343 bound_to 10162
  156.9775  130.9854  151.3445 LP  0  0  0  0  0  0  0  0  0  0  0  0  # atno 17370 bound_to 10713
  157.5624  130.8254  149.8283 LP  0  0  0  0  0  0  0  0  0  0  0  0  # atno 17371 bound_to 10713
  141.2152  133.6761  156.6890 LP  0  0  0  0  0  0  0  0  0  0  0  0  # atno 17394 bound_to 11000
  140.2964  134.8199  157.4060 LP  0  0  0  0  0  0  0  0  0  0  0  0  # atno 17395 bound_to 11000

$$$$
