AV-unprocessed.smi:1824|AV-procd|sdf|7404|dock10
  -GOLD-   22720 9 73D 1   1.00000     0.00000
 Structure written by MMmdl.
 45 47  0  0  0  0  0  0  0  0  2 V2000
  146.4281  142.9453  154.0583 C   0  0  0  0  0  0  0  0  0  0  0  0
  146.1657  141.8076  155.0612 C   0  0  1  0  0  0  0  0  0  0  0  0
  147.4514  141.2093  155.6661 C   0  0  0  0  0  0  0  0  0  0  0  0
  148.0593  142.1345  156.6512 N   0  3  2  0  0  0  0  0  0  0  0  0
  149.3415  141.6232  157.1998 C   0  0  0  0  0  0  0  0  0  0  0  0
  150.5339  141.8920  156.2607 C   0  0  2  0  0  0  0  0  0  0  0  0
  150.6505  140.8114  155.3538 O   0  0  0  0  0  0  0  0  0  0  0  0
  151.8526  142.0509  157.0423 C   0  0  0  0  0  0  0  0  0  0  0  0
  151.7247  142.9505  158.1757 N   0  0  0  0  0  0  0  0  0  0  0  0
  151.0255  144.1009  158.2217 C   0  0  0  0  0  0  0  0  0  0  0  0
  151.0396  144.7774  159.3664 N   0  0  0  0  0  0  0  0  0  0  0  0
  151.8404  143.9722  160.1580 C   0  0  0  0  0  0  0  0  0  0  0  0
  152.2528  144.1255  161.5010 C   0  0  0  0  0  0  0  0  0  0  0  0
  153.0830  143.1605  162.1085 C   0  0  0  0  0  0  0  0  0  0  0  0
  153.4678  143.3220  163.3969 F   0  0  0  0  0  0  0  0  0  0  0  0
  153.5140  142.0302  161.3827 C   0  0  0  0  0  0  0  0  0  0  0  0
  154.3123  141.1093  161.9726 F   0  0  0  0  0  0  0  0  0  0  0  0
  153.1163  141.8562  160.0431 C   0  0  0  0  0  0  0  0  0  0  0  0
  152.2861  142.8203  159.4418 C   0  0  0  0  0  0  0  0  0  0  0  0
  147.0692  142.4974  157.6934 C   0  0  0  0  0  0  0  0  0  0  0  0
  145.8156  143.1151  157.0482 C   0  0  2  0  0  0  0  0  0  0  0  0
  144.7288  143.4251  158.0831 C   0  0  0  0  0  0  0  0  0  0  0  0
  145.2700  142.2007  156.1010 O   0  0  0  0  0  0  0  0  0  0  0  0
  147.0023  142.5837  153.2050 H   0  0  0  0  0  0  0  0  0  0  0  0
  146.9904  143.7675  154.5001 H   0  0  0  0  0  0  0  0  0  0  0  0
  145.4903  143.3490  153.6755 H   0  0  0  0  0  0  0  0  0  0  0  0
  145.6584  141.0149  154.5106 H   0  0  0  0  0  0  0  0  0  0  0  0
  147.2200  140.2655  156.1626 H   0  0  0  0  0  0  0  0  0  0  0  0
  148.1634  140.9821  154.8715 H   0  0  0  0  0  0  0  0  0  0  0  0
  149.5155  142.0701  158.1799 H   0  0  0  0  0  0  0  0  0  0  0  0
  149.2689  140.5474  157.3674 H   0  0  0  0  0  0  0  0  0  0  0  0
  150.3644  142.8005  155.6834 H   0  0  0  0  0  0  0  0  0  0  0  0
  150.9642  140.0530  155.8230 H   0  0  0  0  0  0  0  0  0  0  0  0
  152.1881  141.0819  157.4144 H   0  0  0  0  0  0  0  0  0  0  0  0
  152.6433  142.4218  156.3889 H   0  0  0  0  0  0  0  0  0  0  0  0
  150.4757  144.4630  157.3650 H   0  0  0  0  0  0  0  0  0  0  0  0
  151.9303  144.9870  162.0663 H   0  0  0  0  0  0  0  0  0  0  0  0
  153.4459  140.9916  159.4871 H   0  0  0  0  0  0  0  0  0  0  0  0
  146.7999  141.6083  158.2661 H   0  0  0  0  0  0  0  0  0  0  0  0
  147.5000  143.2094  158.3966 H   0  0  0  0  0  0  0  0  0  0  0  0
  146.0819  144.0477  156.5508 H   0  0  0  0  0  0  0  0  0  0  0  0
  145.0909  144.1263  158.8354 H   0  0  0  0  0  0  0  0  0  0  0  0
  144.4018  142.5206  158.5970 H   0  0  0  0  0  0  0  0  0  0  0  0
  143.8552  143.8717  157.6074 H   0  0  0  0  0  0  0  0  0  0  0  0
  148.2835  142.9796  156.1446 H   0  0  0  0  0  0  0  0  0  0  0  0
  1  2  1  0  0  0  0
  1 24  1  0  0  0  0
  1 25  1  0  0  0  0
  1 26  1  0  0  0  0
  2 23  1  0  0  0  0
  2  3  1  0  0  0  0
  2 27  1  0  0  0  0
  3  4  1  0  0  0  0
  3 28  1  0  0  0  0
  3 29  1  0  0  0  0
  4  5  1  0  0  0  0
  4 20  1  0  0  0  0
  4 45  1  0  0  0  0
  5  6  1  0  0  0  0
  5 30  1  0  0  0  0
  5 31  1  0  0  0  0
  6  7  1  0  0  0  0
  6  8  1  0  0  0  0
  6 32  1  0  0  0  0
  7 33  1  0  0  0  0
  8  9  1  0  0  0  0
  8 34  1  0  0  0  0
  8 35  1  0  0  0  0
  9 19  1  0  0  0  0
  9 10  1  0  0  0  0
 10 11  2  0  0  0  0
 10 36  1  0  0  0  0
 11 12  1  0  0  0  0
 12 19  2  0  0  0  0
 12 13  1  0  0  0  0
 13 14  2  0  0  0  0
 13 37  1  0  0  0  0
 14 15  1  0  0  0  0
 14 16  1  0  0  0  0
 16 17  1  0  0  0  0
 16 18  2  0  0  0  0
 18 19  1  0  0  0  0
 18 38  1  0  0  0  0
 20 21  1  0  0  0  0
 20 39  1  0  0  0  0
 20 40  1  0  0  0  0
 21 22  1  0  0  0  0
 21 23  1  0  0  0  0
 21 41  1  0  0  0  0
 22 42  1  0  0  0  0
 22 43  1  0  0  0  0
 22 44  1  0  0  0  0
M  CHG  1   4   1
M  END
> <s_m_source_file>
AV-unprocessed.smi

> <i_m_source_file_index>
1824

> <i_lp_mmshare_version>
43012

> <i_f3d_flags>
0

> <s_epik_input>
W0NIM11bQ0BASF0xW0NIMl1OKFtDSDJdW0NASF0oTzEpW0NIM10pW0NIMl1bQ0BIXShbT0hdKVtDSDJdbihbY0hdbjIpYyhjMjMpW2NIXWMoRiljKEYpW2NIXTM=

> <s_epik_cmdline>
J2VwaWtfcHl0aG9uJywgJy1waCcsICc3LjAnLCAnLXRuJywgJzgnLCAnLW1hJywgJzIwMCcsICctbWV0YWxfYmluZGluZycsICctaW1hZScsICc8aW5maWxlLm1hZT4nLCAnLW9tYWUnLCAnPG91dGZpbGUubWFlPic=

> <r_epik_Ionization_Penalty>
0.61967

> <r_epik_Ionization_Penalty_Charging>
0.608065

> <r_epik_Ionization_Penalty_Neutral>
0.0116057

> <r_epik_State_Penalty>
0.664205

> <r_epik_Charging_Adjusted_Penalty>
1.27227

> <i_epik_Tot_Q>
1

> <i_epik_Tot_abs_Q>
1

> <r_epik_Metal_State_Penalty>
0.654947

> <b_epik_Metal_Only>
0

> <s_lp_Force_Field>
OPLS_2005

> <r_lp_Energy>
23.1423

> <b_lp_Chiralities_Consistent>
1

> <s_lp_Variant>
AV-unprocessed.smi:1824-12

> <Gold.Version>
5.8.1

> <Gold.Id.Protein>
6NUR|6NUR_protein|mol2

> <Gold.PLP.Fitness>
59.7728

> <Gold.PLP.PLP>
-50.0997

> <Gold.PLP.part.hbond>
-2.0000

> <Gold.PLP.part.metal>
0.0000

> <Gold.PLP.part.buried>
-7.5449

> <Gold.PLP.part.nonpolar>
-39.8055

> <Gold.PLP.part.repulsive>
0.2207

> <Gold.PLP.ligand.clash>
0.0000

> <Gold.PLP.ligand.torsion>
0.9859

> <Gold.PLP.Chemscore.Hbond>
2.8480

> <Gold.PLP.Chemscore.CHOScore>
1.0000

> <Gold.PLP.Chemscore.Metal>
0.0000

> <Gold.Chemscore.Hbonds>
donor molecule, donor type, donor heavy atom, donor atom, acceptor molecule, acceptor atom, score
      L1  H     4    45       P1  8028  2.00
      P1  H  7989  7998       L1     7  0.69
      L1  C    10    36       P1  8028  1.00

> <Gold.PLP.Chemscore.Internal.Correction>
0.1009

> <Gold.Rescore>
     Score         DG    S(hbond)    S(metal)    S(lipo)     H(rot)  DE(clash)    DE(int)     intcor
     15.72     -18.08       1.75        0.00     108.67       2.33       1.47       0.88       ----

> <Gold.Chemscore.Fitness>
15.7226

> <Gold.Chemscore.DG>
-18.0766

> <Gold.Chemscore.ZeroCoef>
-5.4800

> <Gold.Chemscore.Hbond>
1.7469

> <Gold.Chemscore.Metal>
0.0000

> <Gold.Chemscore.Lipo>
108.6699

> <Gold.Chemscore.Internal_Hbond>
0.0000

> <Gold.Chemscore.DEClash>
1.4705

> <Gold.Chemscore.DEInternal>
0.8834

> <Gold.Chemscore.Rot>
2.3251

> <Gold.Chemscore.Internal.Correction>
   9.000000E+99

> <Gold.Chemscore.Hbonds>
donor molecule, donor type, donor heavy atom, donor atom, acceptor molecule, acceptor atom, score
      L1  H     4    45       P1  8028  0.82
      P1  H  7989  7998       L1     7  0.44

> <Gold.Chemscore.Hbond.Weighted>
-5.8346

> <Gold.Chemscore.Metal.Weighted>
-0.0000

> <Gold.Chemscore.Lipo.Weighted>
-12.7144

> <Gold.Chemscore.Internal_Hbond.Weighted>
0.0000

> <Gold.Chemscore.DEClash.Weighted>
1.4705

> <Gold.Chemscore.DEInternal.Weighted>
0.8834

> <Gold.Chemscore.Rot.Weighted>
5.9523

> <Gold.Chemscore.Internal.Correction.Weighted>
   9.000000E+99

> <Gold.Protein.RotatedTorsions>
[ 6907 6896 6895 6894 ] final -126.71 input  -60.11 | X-H torsion
[ 7974 7965 7964 7962 ] final    7.56 input  175.53 | X-H torsion
[ 8008 7997 7996 7995 ] final   67.79 input   59.86 | X-H torsion
[ 10167 10162 10161 10158 ] final  169.15 input  -65.29 | X-H torsion
[ 10718 10713 10712 10709 ] final  -36.50 input   66.30 | X-H torsion
[ 10763 10752 10751 10750 ] final  -57.07 input  -60.55 | X-H torsion
[ 11005 11000 10999 10996 ] final  155.33 input  -57.11 | X-H torsion

> <Gold.Protein.ActiveResidues>
 VAL166  LYS551  ARG553  GLY616  TRP617  ASP618  TYR619  PRO620  LYS621  CYS622 
 ASP623  PHE694  ASN695  SER759  ASP760  ASP761  ALA762  ILE779  LEU786  VAL792 
 PHE793  MET794  SER795  GLU796  ALA797  LYS798  CYS799  TRP800  GLU811  SER814 

> <Gold.Protein.RotatedAtoms>
  150.8997  133.7134  159.2881 H   0  0  0  0  0  0  0  0  0  0  0  0  # atno 6907 bound_to 6896
  151.4656  135.1040  159.9747 H   0  0  0  0  0  0  0  0  0  0  0  0  # atno 6908 bound_to 6896
  152.4870  133.8350  159.7178 H   0  0  0  0  0  0  0  0  0  0  0  0  # atno 6909 bound_to 6896
  146.2425  140.0064  142.8411 H   0  0  0  0  0  0  0  0  0  0  0  0  # atno 7974 bound_to 7965
  155.6984  140.3495  155.4922 H   0  0  0  0  0  0  0  0  0  0  0  0  # atno 8008 bound_to 7997
  155.9462  140.1111  157.1037 H   0  0  0  0  0  0  0  0  0  0  0  0  # atno 8009 bound_to 7997
  154.4112  140.1203  156.4979 H   0  0  0  0  0  0  0  0  0  0  0  0  # atno 8010 bound_to 7997
  139.4985  144.3737  151.9697 H   0  0  0  0  0  0  0  0  0  0  0  0  # atno 10167 bound_to 10162
  156.3262  130.4272  149.7915 H   0  0  0  0  0  0  0  0  0  0  0  0  # atno 10718 bound_to 10713
  154.2167  135.6385  153.5132 H   0  0  0  0  0  0  0  0  0  0  0  0  # atno 10763 bound_to 10752
  152.9978  135.5487  154.6158 H   0  0  0  0  0  0  0  0  0  0  0  0  # atno 10764 bound_to 10752
  154.5608  135.2909  155.0895 H   0  0  0  0  0  0  0  0  0  0  0  0  # atno 10765 bound_to 10752
  140.1571  134.8635  157.2528 H   0  0  0  0  0  0  0  0  0  0  0  0  # atno 11005 bound_to 11000
  145.1368  140.9549  143.4512 LP  0  0  0  0  0  0  0  0  0  0  0  0  # atno 17320 bound_to 7965
  145.0334  139.3321  143.6013 LP  0  0  0  0  0  0  0  0  0  0  0  0  # atno 17321 bound_to 7965
  140.3173  144.3468  150.6018 LP  0  0  0  0  0  0  0  0  0  0  0  0  # atno 17342 bound_to 10162
  140.5751  143.2177  151.7530 LP  0  0  0  0  0  0  0  0  0  0  0  0  # atno 17343 bound_to 10162
  156.5204  130.8212  151.3201 LP  0  0  0  0  0  0  0  0  0  0  0  0  # atno 17370 bound_to 10713
  157.7421  130.9884  150.2496 LP  0  0  0  0  0  0  0  0  0  0  0  0  # atno 17371 bound_to 10713
  140.2534  134.3656  155.7433 LP  0  0  0  0  0  0  0  0  0  0  0  0  # atno 17394 bound_to 11000
  141.2205  133.7329  156.8970 LP  0  0  0  0  0  0  0  0  0  0  0  0  # atno 17395 bound_to 11000

$$$$
