AV-unprocessed.smi:1958|AV-procd|sdf|7911|dock1
  -GOLD-   2272010 73D 1   1.00000     0.00000
 Structure written by MMmdl.
 47 48  0  0  0  0  0  0  0  0  3 V2000
  152.9454  142.3033  159.9521 C   0  0  0  0  0  0  0  0  0  0  0  0
  152.6440  142.6854  158.6215 O   0  0  0  0  0  0  0  0  0  0  0  0
  151.6754  141.8422  158.0213 C   0  0  0  0  0  0  0  0  0  0  0  0
  151.5014  142.2528  156.5513 C   0  0  0  0  0  0  0  0  0  0  0  0
  150.9678  141.1516  155.7433 N   0  0  0  0  0  0  0  0  0  0  0  0
  149.7741  141.4465  155.1073 N   0  0  0  0  0  0  0  0  0  0  0  0
  149.1918  140.5618  154.3629 C   0  0  0  0  0  0  0  0  0  0  0  0
  147.8945  140.8560  153.6754 C   0  0  0  0  0  0  0  0  0  0  0  0
  147.8421  141.9130  153.0329 O   0  0  0  0  0  0  0  0  0  0  0  0
  146.8822  139.9442  153.7988 N   0  5  0  0  0  0  0  0  0  0  0  0
  146.9626  138.5314  153.4242 C   0  0  0  0  0  0  0  0  0  0  0  0
  146.0802  138.2368  152.1795 C   0  0  1  0  0  0  0  0  0  0  0  0
  146.5277  138.9778  150.8940 C   0  0  0  0  0  0  0  0  0  0  0  0
  145.9270  136.7623  151.9778 N   0  3  0  0  0  0  0  0  0  0  0  0
  145.6064  136.0254  153.2258 C   0  0  0  0  0  0  0  0  0  0  0  0
  145.6431  134.5084  152.9751 C   0  0  0  0  0  0  0  0  0  0  0  0
  144.7465  134.1697  151.9244 O   0  0  0  0  0  0  0  0  0  0  0  0
  145.0948  134.8053  150.7005 C   0  0  0  0  0  0  0  0  0  0  0  0
  145.0193  136.3301  150.8780 C   0  0  0  0  0  0  0  0  0  0  0  0
  149.7864  139.2447  154.1802 C   0  0  0  0  0  0  0  0  0  0  0  0
  150.9544  138.9738  154.8027 C   0  0  0  0  0  0  0  0  0  0  0  0
  151.6292  139.9598  155.6474 C   0  0  0  0  0  0  0  0  0  0  0  0
  152.6968  139.7384  156.2186 O   0  0  0  0  0  0  0  0  0  0  0  0
  153.6967  142.9762  160.3653 H   0  0  0  0  0  0  0  0  0  0  0  0
  153.3439  141.2888  159.9909 H   0  0  0  0  0  0  0  0  0  0  0  0
  152.0603  142.3569  160.5874 H   0  0  0  0  0  0  0  0  0  0  0  0
  151.9964  140.8011  158.0846 H   0  0  0  0  0  0  0  0  0  0  0  0
  150.7275  141.9281  158.5552 H   0  0  0  0  0  0  0  0  0  0  0  0
  150.8499  143.1257  156.4811 H   0  0  0  0  0  0  0  0  0  0  0  0
  152.4635  142.5762  156.1494 H   0  0  0  0  0  0  0  0  0  0  0  0
  147.9901  138.2376  153.2087 H   0  0  0  0  0  0  0  0  0  0  0  0
  146.6486  137.8814  154.2426 H   0  0  0  0  0  0  0  0  0  0  0  0
  145.0863  138.6151  152.4249 H   0  0  0  0  0  0  0  0  0  0  0  0
  146.4787  140.0618  151.0127 H   0  0  0  0  0  0  0  0  0  0  0  0
  145.8758  138.7304  150.0563 H   0  0  0  0  0  0  0  0  0  0  0  0
  147.5490  138.7313  150.5982 H   0  0  0  0  0  0  0  0  0  0  0  0
  146.3253  136.2763  154.0069 H   0  0  0  0  0  0  0  0  0  0  0  0
  144.6214  136.3236  153.5873 H   0  0  0  0  0  0  0  0  0  0  0  0
  146.6534  134.1801  152.7254 H   0  0  0  0  0  0  0  0  0  0  0  0
  145.3489  133.9719  153.8770 H   0  0  0  0  0  0  0  0  0  0  0  0
  146.0926  134.4967  150.3841 H   0  0  0  0  0  0  0  0  0  0  0  0
  144.4000  134.4823  149.9251 H   0  0  0  0  0  0  0  0  0  0  0  0
  143.9903  136.6128  151.1035 H   0  0  0  0  0  0  0  0  0  0  0  0
  145.2885  136.8183  149.9411 H   0  0  0  0  0  0  0  0  0  0  0  0
  149.3171  138.4927  153.5632 H   0  0  0  0  0  0  0  0  0  0  0  0
  151.4050  138.0009  154.6743 H   0  0  0  0  0  0  0  0  0  0  0  0
  146.8504  136.4468  151.7163 H   0  0  0  0  0  0  0  0  0  0  0  0
  1  2  1  0  0  0  0
  1 24  1  0  0  0  0
  1 25  1  0  0  0  0
  1 26  1  0  0  0  0
  2  3  1  0  0  0  0
  3  4  1  0  0  0  0
  3 27  1  0  0  0  0
  3 28  1  0  0  0  0
  4  5  1  0  0  0  0
  4 29  1  0  0  0  0
  4 30  1  0  0  0  0
  5 22  1  0  0  0  0
  5  6  1  0  0  0  0
  6  7  2  0  0  0  0
  7  8  1  0  0  0  0
  7 20  1  0  0  0  0
  8  9  2  0  0  0  0
  8 10  1  0  0  0  0
 10 11  1  0  0  0  0
 11 12  1  0  0  0  0
 11 31  1  0  0  0  0
 11 32  1  0  0  0  0
 12 13  1  0  0  0  0
 12 14  1  0  0  0  0
 12 33  1  0  0  0  0
 13 34  1  0  0  0  0
 13 35  1  0  0  0  0
 13 36  1  0  0  0  0
 14 19  1  0  0  0  0
 14 15  1  0  0  0  0
 14 47  1  0  0  0  0
 15 16  1  0  0  0  0
 15 37  1  0  0  0  0
 15 38  1  0  0  0  0
 16 17  1  0  0  0  0
 16 39  1  0  0  0  0
 16 40  1  0  0  0  0
 17 18  1  0  0  0  0
 18 19  1  0  0  0  0
 18 41  1  0  0  0  0
 18 42  1  0  0  0  0
 19 43  1  0  0  0  0
 19 44  1  0  0  0  0
 20 21  2  0  0  0  0
 20 45  1  0  0  0  0
 21 22  1  0  0  0  0
 21 46  1  0  0  0  0
 22 23  2  0  0  0  0
M  CHG  1  10  -1
M  CHG  1  14   1
M  END
> <s_m_source_file>
AV-unprocessed.smi

> <i_m_source_file_index>
1958

> <i_lp_mmshare_version>
43012

> <i_f3d_flags>
0

> <s_epik_input>
W0NIM11PW0NIMl1bQ0gyXW4xbmMoW2NIXVtjSF1jMT1PKUMoPU8pW05IXVtDSDJdW0NASF0oW0NIM10pTjJbQ0gyXVtDSDJdT1tDSDJdW0NIMl0y

> <s_epik_cmdline>
J2VwaWtfcHl0aG9uJywgJy1waCcsICc3LjAnLCAnLXRuJywgJzgnLCAnLW1hJywgJzIwMCcsICctbWV0YWxfYmluZGluZycsICctaW1hZScsICc8aW5maWxlLm1hZT4nLCAnLW9tYWUnLCAnPG91dGZpbGUubWFlPic=

> <r_lp_tautomer_probability>
1

> <r_epik_Ionization_Penalty>
6.89388

> <r_epik_Ionization_Penalty_Charging>
6.89388

> <r_epik_Ionization_Penalty_Neutral>
1.08445e-11

> <r_epik_State_Penalty>
7.53214

> <r_epik_Charging_Adjusted_Penalty>
14.426

> <i_epik_Tot_Q>
0

> <i_epik_Tot_abs_Q>
2

> <r_epik_Metal_State_Penalty>
3.44743

> <b_epik_Metal_Only>
1

> <s_lp_Force_Field>
OPLS_2005

> <r_lp_Energy>
43.2643

> <b_lp_Chiralities_Consistent>
1

> <s_lp_Variant>
AV-unprocessed.smi:1958-6

> <Gold.Version>
5.8.1

> <Gold.Id.Protein>
6NUR|6NUR_protein|mol2

> <Gold.PLP.Fitness>
45.3940

> <Gold.PLP.PLP>
-39.1328

> <Gold.PLP.part.hbond>
-2.0000

> <Gold.PLP.part.metal>
0.0000

> <Gold.PLP.part.buried>
-2.6760

> <Gold.PLP.part.nonpolar>
-35.0888

> <Gold.PLP.part.repulsive>
0.5067

> <Gold.PLP.ligand.clash>
0.0000

> <Gold.PLP.ligand.torsion>
1.6708

> <Gold.PLP.Chemscore.Hbond>
2.9760

> <Gold.PLP.Chemscore.CHOScore>
0.0000

> <Gold.PLP.Chemscore.Metal>
0.0000

> <Gold.Chemscore.Hbonds>
donor molecule, donor type, donor heavy atom, donor atom, acceptor molecule, acceptor atom, score
      L1  H    14    47       P1  7948  1.69
      P1  H  7997  8009       L1    23  0.85
      P1  H  8011  8017       L1     9  0.33

> <Gold.PLP.Chemscore.Internal.Correction>
0.6749

> <Gold.Rescore>
     Score         DG    S(hbond)    S(metal)    S(lipo)     H(rot)  DE(clash)    DE(int)     intcor
     14.00     -16.42       1.94        0.00      83.26       2.07       0.11       2.31       ----

> <Gold.Chemscore.Fitness>
13.9981

> <Gold.Chemscore.DG>
-16.4215

> <Gold.Chemscore.ZeroCoef>
-5.4800

> <Gold.Chemscore.Hbond>
1.9440

> <Gold.Chemscore.Metal>
0.0000

> <Gold.Chemscore.Lipo>
83.2555

> <Gold.Chemscore.Internal_Hbond>
0.0000

> <Gold.Chemscore.DEClash>
0.1103

> <Gold.Chemscore.DEInternal>
2.3131

> <Gold.Chemscore.Rot>
2.0673

> <Gold.Chemscore.Internal.Correction>
   9.000000E+99

> <Gold.Chemscore.Hbonds>
donor molecule, donor type, donor heavy atom, donor atom, acceptor molecule, acceptor atom, score
      L1  H    14    47       P1  7948  0.83
      P1  H  7997  8009       L1    23  0.85
      P1  H  8011  8017       L1     9  0.26

> <Gold.Chemscore.Hbond.Weighted>
-6.4930

> <Gold.Chemscore.Metal.Weighted>
-0.0000

> <Gold.Chemscore.Lipo.Weighted>
-9.7409

> <Gold.Chemscore.Internal_Hbond.Weighted>
0.0000

> <Gold.Chemscore.DEClash.Weighted>
0.1103

> <Gold.Chemscore.DEInternal.Weighted>
2.3131

> <Gold.Chemscore.Rot.Weighted>
5.2923

> <Gold.Chemscore.Internal.Correction.Weighted>
   9.000000E+99

> <Gold.Protein.RotatedTorsions>
[ 6907 6896 6895 6894 ] final  -68.74 input  -60.11 | X-H torsion
[ 7974 7965 7964 7962 ] final  -95.50 input  175.53 | X-H torsion
[ 8008 7997 7996 7995 ] final  173.16 input   59.86 | X-H torsion
[ 10167 10162 10161 10158 ] final   45.64 input  -65.29 | X-H torsion
[ 10718 10713 10712 10709 ] final  169.19 input   66.30 | X-H torsion
[ 10763 10752 10751 10750 ] final  -67.87 input  -60.55 | X-H torsion
[ 11005 11000 10999 10996 ] final  100.84 input  -57.11 | X-H torsion

> <Gold.Protein.ActiveResidues>
 VAL166  LYS551  ARG553  GLY616  TRP617  ASP618  TYR619  PRO620  LYS621  CYS622 
 ASP623  PHE694  ASN695  SER759  ASP760  ASP761  ALA762  ILE779  LEU786  VAL792 
 PHE793  MET794  SER795  GLU796  ALA797  LYS798  CYS799  TRP800  GLU811  SER814 

> <Gold.Protein.RotatedAtoms>
  150.7341  134.5697  159.5883 H   0  0  0  0  0  0  0  0  0  0  0  0  # atno 6907 bound_to 6896
  152.3139  134.7461  160.0339 H   0  0  0  0  0  0  0  0  0  0  0  0  # atno 6908 bound_to 6896
  151.7999  133.3333  159.3560 H   0  0  0  0  0  0  0  0  0  0  0  0  # atno 6909 bound_to 6896
  145.3592  140.9489  143.2510 H   0  0  0  0  0  0  0  0  0  0  0  0  # atno 7974 bound_to 7965
  156.1103  140.1467  156.9347 H   0  0  0  0  0  0  0  0  0  0  0  0  # atno 8008 bound_to 7997
  154.4762  140.0893  156.7311 H   0  0  0  0  0  0  0  0  0  0  0  0  # atno 8009 bound_to 7997
  155.4608  140.3438  155.4314 H   0  0  0  0  0  0  0  0  0  0  0  0  # atno 8010 bound_to 7997
  140.3221  144.2693  150.6181 H   0  0  0  0  0  0  0  0  0  0  0  0  # atno 10167 bound_to 10162
  157.0262  131.0246  151.2759 H   0  0  0  0  0  0  0  0  0  0  0  0  # atno 10718 bound_to 10713
  154.3808  135.6074  153.5789 H   0  0  0  0  0  0  0  0  0  0  0  0  # atno 10763 bound_to 10752
  152.9788  135.5860  154.4413 H   0  0  0  0  0  0  0  0  0  0  0  0  # atno 10764 bound_to 10752
  154.4182  135.2845  155.1971 H   0  0  0  0  0  0  0  0  0  0  0  0  # atno 10765 bound_to 10752
  139.8772  134.9157  156.4817 H   0  0  0  0  0  0  0  0  0  0  0  0  # atno 11005 bound_to 11000
  144.8659  139.5108  143.6790 LP  0  0  0  0  0  0  0  0  0  0  0  0  # atno 17320 bound_to 7965
  146.2935  139.7208  142.9144 LP  0  0  0  0  0  0  0  0  0  0  0  0  # atno 17321 bound_to 7965
  140.5474  143.2212  151.7984 LP  0  0  0  0  0  0  0  0  0  0  0  0  # atno 17342 bound_to 10162
  139.4872  144.4521  151.9642 LP  0  0  0  0  0  0  0  0  0  0  0  0  # atno 17343 bound_to 10162
  157.5212  130.7999  149.7811 LP  0  0  0  0  0  0  0  0  0  0  0  0  # atno 17370 bound_to 10713
  156.0085  130.3844  150.2346 LP  0  0  0  0  0  0  0  0  0  0  0  0  # atno 17371 bound_to 10713
  140.8723  133.7979  155.9377 LP  0  0  0  0  0  0  0  0  0  0  0  0  # atno 17394 bound_to 11000
  140.8940  134.2460  157.5079 LP  0  0  0  0  0  0  0  0  0  0  0  0  # atno 17395 bound_to 11000

$$$$
