AV-unprocessed.smi:3201|AV-procd|sdf|12240|dock9
  -GOLD-   2272018 73D 1   1.00000     0.00000
 Structure written by MMmdl.
 41 43  0  0  0  0  0  0  0  0  2 V2000
  151.8292  144.5387  160.4387 C   0  0  0  0  0  0  0  0  0  0  0  0
  152.1747  143.1683  159.9504 C   0  0  0  0  0  0  0  0  0  0  0  0
  151.9320  142.5675  158.7438 C   0  0  0  0  0  0  0  0  0  0  0  0
  151.2310  143.1184  157.5322 C   0  0  0  0  0  0  0  0  0  0  0  0
  150.8214  142.0025  156.5626 C   0  0  0  0  0  0  0  0  0  0  0  0
  149.4827  142.2613  155.9956 N   0  3  0  0  0  0  0  0  0  0  0  0
  149.2235  141.6044  154.6958 C   0  0  1  0  0  0  0  0  0  0  0  0
  149.2908  140.0621  154.7419 C   0  0  0  0  0  0  0  0  0  0  0  0
  147.9482  139.6456  154.1093 C   0  0  1  0  0  0  0  0  0  0  0  0
  146.8212  139.8846  155.1290 C   0  0  0  0  0  0  0  0  0  0  0  0
  146.7184  141.4204  155.1608 C   0  0  0  0  0  0  0  0  0  0  0  0
  147.8013  141.8628  154.1522 C   0  0  2  0  0  0  0  0  0  0  0  0
  147.6960  140.7626  153.1005 C   0  0  0  0  0  0  0  0  0  0  0  0
  152.5056  141.2731  158.8896 C   0  0  0  0  0  0  0  0  0  0  0  0
  153.0527  141.0854  160.0765 N   0  0  0  0  0  0  0  0  0  0  0  0
  152.8495  142.2463  160.7317 N   0  0  0  0  0  0  0  0  0  0  0  0
  153.3405  142.3696  162.0911 C   0  0  0  0  0  0  0  0  0  0  0  0
  151.3498  145.1293  159.6584 H   0  0  0  0  0  0  0  0  0  0  0  0
  152.7239  145.0742  160.7568 H   0  0  0  0  0  0  0  0  0  0  0  0
  151.1449  144.4867  161.2857 H   0  0  0  0  0  0  0  0  0  0  0  0
  150.3439  143.6786  157.8302 H   0  0  0  0  0  0  0  0  0  0  0  0
  151.8681  143.8349  157.0128 H   0  0  0  0  0  0  0  0  0  0  0  0
  151.5458  141.9291  155.7502 H   0  0  0  0  0  0  0  0  0  0  0  0
  150.8200  141.0432  157.0816 H   0  0  0  0  0  0  0  0  0  0  0  0
  148.7807  141.9577  156.6554 H   0  0  0  0  0  0  0  0  0  0  0  0
  149.9459  141.9808  153.9689 H   0  0  0  0  0  0  0  0  0  0  0  0
  150.1316  139.7001  154.1489 H   0  0  0  0  0  0  0  0  0  0  0  0
  149.4015  139.6631  155.7512 H   0  0  0  0  0  0  0  0  0  0  0  0
  147.9528  138.6377  153.6930 H   0  0  0  0  0  0  0  0  0  0  0  0
  145.8845  139.4449  154.7833 H   0  0  0  0  0  0  0  0  0  0  0  0
  147.0475  139.4603  156.1080 H   0  0  0  0  0  0  0  0  0  0  0  0
  145.7306  141.7393  154.8256 H   0  0  0  0  0  0  0  0  0  0  0  0
  146.8697  141.8285  156.1600 H   0  0  0  0  0  0  0  0  0  0  0  0
  147.6562  142.8736  153.7699 H   0  0  0  0  0  0  0  0  0  0  0  0
  148.4607  140.8255  152.3243 H   0  0  0  0  0  0  0  0  0  0  0  0
  146.7130  140.7057  152.6290 H   0  0  0  0  0  0  0  0  0  0  0  0
  152.5406  140.4689  158.1695 H   0  0  0  0  0  0  0  0  0  0  0  0
  153.0221  143.3119  162.5361 H   0  0  0  0  0  0  0  0  0  0  0  0
  154.4300  142.3301  162.0919 H   0  0  0  0  0  0  0  0  0  0  0  0
  152.9544  141.5501  162.6982 H   0  0  0  0  0  0  0  0  0  0  0  0
  149.3906  143.2585  155.8650 H   0  0  0  0  0  0  0  0  0  0  0  0
  1  2  1  0  0  0  0
  1 18  1  0  0  0  0
  1 19  1  0  0  0  0
  1 20  1  0  0  0  0
  2 16  1  0  0  0  0
  2  3  2  0  0  0  0
  3  4  1  0  0  0  0
  3 14  1  0  0  0  0
  4  5  1  0  0  0  0
  4 21  1  0  0  0  0
  4 22  1  0  0  0  0
  5  6  1  0  0  0  0
  5 23  1  0  0  0  0
  5 24  1  0  0  0  0
  6  7  1  0  0  0  0
  6 25  1  0  0  0  0
  6 41  1  0  0  0  0
  7 12  1  0  0  0  0
  7  8  1  0  0  0  0
  7 26  1  0  0  0  0
  8  9  1  0  0  0  0
  8 27  1  0  0  0  0
  8 28  1  0  0  0  0
  9 13  1  0  0  0  0
  9 10  1  0  0  0  0
  9 29  1  0  0  0  0
 10 11  1  0  0  0  0
 10 30  1  0  0  0  0
 10 31  1  0  0  0  0
 11 12  1  0  0  0  0
 11 32  1  0  0  0  0
 11 33  1  0  0  0  0
 12 13  1  0  0  0  0
 12 34  1  0  0  0  0
 13 35  1  0  0  0  0
 13 36  1  0  0  0  0
 14 15  2  0  0  0  0
 14 37  1  0  0  0  0
 15 16  1  0  0  0  0
 16 17  1  0  0  0  0
 17 38  1  0  0  0  0
 17 39  1  0  0  0  0
 17 40  1  0  0  0  0
M  CHG  1   6   1
M  END
> <s_m_source_file>
AV-unprocessed.smi

> <i_m_source_file_index>
3201

> <i_lp_mmshare_version>
43012

> <i_f3d_flags>
0

> <s_epik_input>
W0NIM11uMW5bY0hdYyhjMVtDSDNdKVtDSDJdW0NIMl1bTkhdW0NASF0oW0NIMl1bQ0BIXTIzKVtDQEhdKFtDSDJdMylbQ0gyXVtDSDJdMg==

> <s_epik_cmdline>
J2VwaWtfcHl0aG9uJywgJy1waCcsICc3LjAnLCAnLXRuJywgJzgnLCAnLW1hJywgJzIwMCcsICctbWV0YWxfYmluZGluZycsICctaW1hZScsICc8aW5maWxlLm1hZT4nLCAnLW9tYWUnLCAnPG91dGZpbGUubWFlPic=

> <r_lp_tautomer_probability>
1

> <r_epik_Ionization_Penalty>
0.000331174

> <r_epik_Ionization_Penalty_Charging>
0.000242709

> <r_epik_Ionization_Penalty_Neutral>
8.84659e-05

> <r_epik_State_Penalty>
-0

> <r_epik_Charging_Adjusted_Penalty>
0.000242709

> <i_epik_Tot_Q>
1

> <i_epik_Tot_abs_Q>
1

> <r_epik_Metal_State_Penalty>
-0

> <b_epik_Metal_Only>
0

> <s_lp_Force_Field>
OPLS_2005

> <r_lp_Energy>
51.1066

> <b_lp_Chiralities_Consistent>
1

> <s_lp_Variant>
AV-unprocessed.smi:3201-4

> <Gold.Version>
5.8.1

> <Gold.Id.Protein>
6NUR|6NUR_protein|mol2

> <Gold.PLP.Fitness>
45.3243

> <Gold.PLP.PLP>
-40.5722

> <Gold.PLP.part.hbond>
-0.9508

> <Gold.PLP.part.metal>
0.0000

> <Gold.PLP.part.buried>
-3.1463

> <Gold.PLP.part.nonpolar>
-36.4439

> <Gold.PLP.part.repulsive>
0.1189

> <Gold.PLP.ligand.clash>
0.0000

> <Gold.PLP.ligand.torsion>
0.6315

> <Gold.PLP.Chemscore.Hbond>
2.0000

> <Gold.PLP.Chemscore.CHOScore>
0.0000

> <Gold.PLP.Chemscore.Metal>
0.0000

> <Gold.Chemscore.Hbonds>
donor molecule, donor type, donor heavy atom, donor atom, acceptor molecule, acceptor atom, score
      L1  H     6    41       P1  8028  2.00

> <Gold.PLP.Chemscore.Internal.Correction>
0.0151

> <Gold.Rescore>
     Score         DG    S(hbond)    S(metal)    S(lipo)     H(rot)  DE(clash)    DE(int)     intcor
     16.83     -18.85       0.98        0.00     115.93       1.36       1.29       0.72       ----

> <Gold.Chemscore.Fitness>
16.8300

> <Gold.Chemscore.DG>
-18.8458

> <Gold.Chemscore.ZeroCoef>
-5.4800

> <Gold.Chemscore.Hbond>
0.9822

> <Gold.Chemscore.Metal>
0.0000

> <Gold.Chemscore.Lipo>
115.9304

> <Gold.Chemscore.Internal_Hbond>
0.0000

> <Gold.Chemscore.DEClash>
1.2934

> <Gold.Chemscore.DEInternal>
0.7224

> <Gold.Chemscore.Rot>
1.3588

> <Gold.Chemscore.Internal.Correction>
   9.000000E+99

> <Gold.Chemscore.Hbonds>
donor molecule, donor type, donor heavy atom, donor atom, acceptor molecule, acceptor atom, score
      L1  H     6    41       P1  8028  0.96

> <Gold.Chemscore.Hbond.Weighted>
-3.2805

> <Gold.Chemscore.Metal.Weighted>
-0.0000

> <Gold.Chemscore.Lipo.Weighted>
-13.5639

> <Gold.Chemscore.Internal_Hbond.Weighted>
0.0000

> <Gold.Chemscore.DEClash.Weighted>
1.2934

> <Gold.Chemscore.DEInternal.Weighted>
0.7224

> <Gold.Chemscore.Rot.Weighted>
3.4786

> <Gold.Chemscore.Internal.Correction.Weighted>
   9.000000E+99

> <Gold.Protein.RotatedTorsions>
[ 6907 6896 6895 6894 ] final   13.79 input  -60.11 | X-H torsion
[ 7974 7965 7964 7962 ] final   46.13 input  175.53 | X-H torsion
[ 8008 7997 7996 7995 ] final -109.66 input   59.86 | X-H torsion
[ 10167 10162 10161 10158 ] final    5.33 input  -65.29 | X-H torsion
[ 10718 10713 10712 10709 ] final  -46.18 input   66.30 | X-H torsion
[ 10763 10752 10751 10750 ] final  101.82 input  -60.55 | X-H torsion
[ 11005 11000 10999 10996 ] final   44.50 input  -57.11 | X-H torsion

> <Gold.Protein.ActiveResidues>
 VAL166  LYS551  ARG553  GLY616  TRP617  ASP618  TYR619  PRO620  LYS621  CYS622 
 ASP623  PHE694  ASN695  SER759  ASP760  ASP761  ALA762  ILE779  LEU786  VAL792 
 PHE793  MET794  SER795  GLU796  ALA797  LYS798  CYS799  TRP800  GLU811  SER814 

> <Gold.Protein.RotatedAtoms>
  151.7920  135.0733  160.0388 H   0  0  0  0  0  0  0  0  0  0  0  0  # atno 6907 bound_to 6896
  152.3150  133.5788  159.5714 H   0  0  0  0  0  0  0  0  0  0  0  0  # atno 6908 bound_to 6896
  150.7339  134.0012  159.3681 H   0  0  0  0  0  0  0  0  0  0  0  0  # atno 6909 bound_to 6896
  146.0417  139.4889  142.9774 H   0  0  0  0  0  0  0  0  0  0  0  0  # atno 7974 bound_to 7965
  154.9628  140.0399  157.2198 H   0  0  0  0  0  0  0  0  0  0  0  0  # atno 8008 bound_to 7997
  154.7873  140.2829  155.5995 H   0  0  0  0  0  0  0  0  0  0  0  0  # atno 8009 bound_to 7997
  156.2945  140.2580  156.2713 H   0  0  0  0  0  0  0  0  0  0  0  0  # atno 8010 bound_to 7997
  140.6488  143.7597  150.7541 H   0  0  0  0  0  0  0  0  0  0  0  0  # atno 10167 bound_to 10162
  156.2209  130.4166  149.8995 H   0  0  0  0  0  0  0  0  0  0  0  0  # atno 10718 bound_to 10713
  153.3316  135.4031  155.1500 H   0  0  0  0  0  0  0  0  0  0  0  0  # atno 10763 bound_to 10752
  154.8624  135.3612  154.5463 H   0  0  0  0  0  0  0  0  0  0  0  0  # atno 10764 bound_to 10752
  153.5902  135.7074  153.5485 H   0  0  0  0  0  0  0  0  0  0  0  0  # atno 10765 bound_to 10752
  140.1546  134.4418  155.8358 H   0  0  0  0  0  0  0  0  0  0  0  0  # atno 11005 bound_to 11000
  145.6873  141.0174  143.1574 LP  0  0  0  0  0  0  0  0  0  0  0  0  # atno 17320 bound_to 7965
  144.7078  139.8491  143.7424 LP  0  0  0  0  0  0  0  0  0  0  0  0  # atno 17321 bound_to 7965
  140.1243  143.4583  152.2293 LP  0  0  0  0  0  0  0  0  0  0  0  0  # atno 17342 bound_to 10162
  139.5700  144.7457  151.3916 LP  0  0  0  0  0  0  0  0  0  0  0  0  # atno 17343 bound_to 10162
  156.6641  130.8794  151.3552 LP  0  0  0  0  0  0  0  0  0  0  0  0  # atno 17370 bound_to 10713
  157.7087  130.9414  150.1015 LP  0  0  0  0  0  0  0  0  0  0  0  0  # atno 17371 bound_to 10713
  141.2203  133.6887  156.7484 LP  0  0  0  0  0  0  0  0  0  0  0  0  # atno 17394 bound_to 11000
  140.2563  134.8501  157.3716 LP  0  0  0  0  0  0  0  0  0  0  0  0  # atno 17395 bound_to 11000

$$$$
