AV-unprocessed.smi:865|AV-procd|sdf|3990|dock10
  -GOLD-   22720 1473D 1   1.00000     0.00000
 Structure written by MMmdl.
 36 36  0  0  0  0  0  0  0  0  1 V2000
  145.9049  132.7875  151.0484 C   0  0  0  0  0  0  0  0  0  0  0  0
  145.6506  134.2816  150.7982 C   0  0  0  0  0  0  0  0  0  0  0  0
  145.7270  135.1677  152.0689 C   0  0  0  0  0  0  0  0  0  0  0  0
  144.7145  134.7034  153.1474 C   0  0  0  0  0  0  0  0  0  0  0  0
  143.2472  134.6998  152.6923 C   0  0  0  0  0  0  0  0  0  0  0  0
  145.5904  136.6822  151.7439 C   0  0  2  0  0  0  0  0  0  0  0  0
  146.4417  137.0006  150.6593 O   0  0  0  0  0  0  0  0  0  0  0  0
  145.9311  137.6033  152.9374 C   0  0  0  0  0  0  0  0  0  0  0  0
  147.2247  137.2651  153.5196 N   0  0  0  0  0  0  0  0  0  0  0  0
  147.4539  137.0565  154.8250 C   0  0  0  0  0  0  0  0  0  0  0  0
  146.5976  137.1921  155.6983 O   0  0  0  0  0  0  0  0  0  0  0  0
  148.8649  136.6088  155.2039 C   0  0  0  0  0  0  0  0  0  0  0  0
  149.7952  137.7184  155.1135 N   0  0  0  0  0  0  0  0  0  0  0  0
  150.2024  138.4384  154.0660 C   0  0  0  0  0  0  0  0  0  0  0  0
  151.0576  139.3835  154.4259 N   0  0  0  0  0  0  0  0  0  0  0  0
  151.1637  139.2076  155.7955 N   0  0  0  0  0  0  0  0  0  0  0  0
  150.4165  138.2213  156.2094 N   0  0  0  0  0  0  0  0  0  0  0  0
  145.9369  132.2426  150.1047 H   0  0  0  0  0  0  0  0  0  0  0  0
  145.1216  132.3334  151.6541 H   0  0  0  0  0  0  0  0  0  0  0  0
  146.8583  132.6282  151.5526 H   0  0  0  0  0  0  0  0  0  0  0  0
  146.3925  134.6110  150.0722 H   0  0  0  0  0  0  0  0  0  0  0  0
  144.6830  134.4082  150.3115 H   0  0  0  0  0  0  0  0  0  0  0  0
  146.7227  135.0288  152.4927 H   0  0  0  0  0  0  0  0  0  0  0  0
  144.9837  133.7134  153.5166 H   0  0  0  0  0  0  0  0  0  0  0  0
  144.7742  135.3644  154.0105 H   0  0  0  0  0  0  0  0  0  0  0  0
  142.5867  134.4910  153.5341 H   0  0  0  0  0  0  0  0  0  0  0  0
  143.0540  133.9373  151.9384 H   0  0  0  0  0  0  0  0  0  0  0  0
  142.9590  135.6669  152.2795 H   0  0  0  0  0  0  0  0  0  0  0  0
  144.5642  136.8885  151.4414 H   0  0  0  0  0  0  0  0  0  0  0  0
  146.0612  136.6530  149.8672 H   0  0  0  0  0  0  0  0  0  0  0  0
  146.0202  138.6329  152.5899 H   0  0  0  0  0  0  0  0  0  0  0  0
  145.1418  137.6050  153.6914 H   0  0  0  0  0  0  0  0  0  0  0  0
  147.9921  137.1324  152.8766 H   0  0  0  0  0  0  0  0  0  0  0  0
  148.8741  136.2040  156.2171 H   0  0  0  0  0  0  0  0  0  0  0  0
  149.1997  135.8154  154.5344 H   0  0  0  0  0  0  0  0  0  0  0  0
  149.8712  138.2747  153.0513 H   0  0  0  0  0  0  0  0  0  0  0  0
  1  2  1  0  0  0  0
  1 18  1  0  0  0  0
  1 19  1  0  0  0  0
  1 20  1  0  0  0  0
  2  3  1  0  0  0  0
  2 21  1  0  0  0  0
  2 22  1  0  0  0  0
  3  4  1  0  0  0  0
  3  6  1  0  0  0  0
  3 23  1  0  0  0  0
  4  5  1  0  0  0  0
  4 24  1  0  0  0  0
  4 25  1  0  0  0  0
  5 26  1  0  0  0  0
  5 27  1  0  0  0  0
  5 28  1  0  0  0  0
  6  7  1  0  0  0  0
  6  8  1  0  0  0  0
  6 29  1  0  0  0  0
  7 30  1  0  0  0  0
  8  9  1  0  0  0  0
  8 31  1  0  0  0  0
  8 32  1  0  0  0  0
  9 10  1  0  0  0  0
  9 33  1  0  0  0  0
 10 11  2  0  0  0  0
 10 12  1  0  0  0  0
 12 13  1  0  0  0  0
 12 34  1  0  0  0  0
 12 35  1  0  0  0  0
 13 17  1  0  0  0  0
 13 14  1  0  0  0  0
 14 15  2  0  0  0  0
 14 36  1  0  0  0  0
 15 16  1  0  0  0  0
 16 17  2  0  0  0  0
M  END
> <s_m_source_file>
AV-unprocessed.smi

> <i_m_source_file_index>
865

> <i_lp_mmshare_version>
43012

> <i_f3d_flags>
0

> <s_epik_input>
W0NIM11bQ0gyXVtDSF0oW0NIMl1bQ0gzXSlbQ0BIXShbT0hdKVtDSDJdW05IXUMoPU8pW0NIMl1uMVtjSF1ubm4x

> <s_epik_cmdline>
J2VwaWtfcHl0aG9uJywgJy1waCcsICc3LjAnLCAnLXRuJywgJzgnLCAnLW1hJywgJzIwMCcsICctbWV0YWxfYmluZGluZycsICctaW1hZScsICc8aW5maWxlLm1hZT4nLCAnLW9tYWUnLCAnPG91dGZpbGUubWFlPic=

> <r_lp_tautomer_probability>
1

> <r_epik_Ionization_Penalty>
9.39891e-07

> <r_epik_Ionization_Penalty_Charging>
0

> <r_epik_Ionization_Penalty_Neutral>
9.39891e-07

> <r_epik_State_Penalty>
-0

> <r_epik_Charging_Adjusted_Penalty>
0

> <i_epik_Tot_Q>
0

> <i_epik_Tot_abs_Q>
0

> <r_epik_Metal_State_Penalty>
-0

> <b_epik_Metal_Only>
0

> <s_lp_Force_Field>
OPLS_2005

> <r_lp_Energy>
13.4574

> <b_lp_Chiralities_Consistent>
1

> <s_lp_Variant>
AV-unprocessed.smi:865-1

> <Gold.Version>
5.8.1

> <Gold.Id.Protein>
6NUR|6NUR_protein|mol2

> <Gold.PLP.Fitness>
35.8722

> <Gold.PLP.PLP>
-21.7114

> <Gold.PLP.part.hbond>
-4.8932

> <Gold.PLP.part.metal>
0.0000

> <Gold.PLP.part.buried>
-1.6293

> <Gold.PLP.part.nonpolar>
-15.4475

> <Gold.PLP.part.repulsive>
0.1631

> <Gold.PLP.ligand.clash>
0.0000

> <Gold.PLP.ligand.torsion>
0.3987

> <Gold.PLP.Chemscore.Hbond>
2.9280

> <Gold.PLP.Chemscore.CHOScore>
1.9869

> <Gold.PLP.Chemscore.Metal>
0.0000

> <Gold.Chemscore.Hbonds>
donor molecule, donor type, donor heavy atom, donor atom, acceptor molecule, acceptor atom, score
      L1  H     9    33       P1  7948  1.00
      P1  H  7954  7966       L1     7  0.80
      P1  H  7989  7998       L1    15  1.00
      L1  C    14    36       P1  7948  1.00
      L1  C    14    36       P1  7957  0.85

> <Gold.PLP.Chemscore.Internal.Correction>
0.2133

> <Gold.Rescore>
     Score         DG    S(hbond)    S(metal)    S(lipo)     H(rot)  DE(clash)    DE(int)     intcor
      6.89      -7.34       2.14        0.00      37.84       3.80       0.06       0.39       ----

> <Gold.Chemscore.Fitness>
6.8888

> <Gold.Chemscore.DG>
-7.3412

> <Gold.Chemscore.ZeroCoef>
-5.4800

> <Gold.Chemscore.Hbond>
2.1415

> <Gold.Chemscore.Metal>
0.0000

> <Gold.Chemscore.Lipo>
37.8420

> <Gold.Chemscore.Internal_Hbond>
0.0000

> <Gold.Chemscore.DEClash>
0.0604

> <Gold.Chemscore.DEInternal>
0.3920

> <Gold.Chemscore.Rot>
3.7964

> <Gold.Chemscore.Internal.Correction>
   9.000000E+99

> <Gold.Chemscore.Hbonds>
donor molecule, donor type, donor heavy atom, donor atom, acceptor molecule, acceptor atom, score
      L1  H     9    33       P1  7948  0.98
      P1  H  7954  7966       L1     7  0.17
      P1  H  7989  7998       L1    15  1.00

> <Gold.Chemscore.Hbond.Weighted>
-7.1525

> <Gold.Chemscore.Metal.Weighted>
-0.0000

> <Gold.Chemscore.Lipo.Weighted>
-4.4275

> <Gold.Chemscore.Internal_Hbond.Weighted>
0.0000

> <Gold.Chemscore.DEClash.Weighted>
0.0604

> <Gold.Chemscore.DEInternal.Weighted>
0.3920

> <Gold.Chemscore.Rot.Weighted>
9.7188

> <Gold.Chemscore.Internal.Correction.Weighted>
   9.000000E+99

> <Gold.Protein.RotatedTorsions>
[ 6907 6896 6895 6894 ] final -118.78 input  -60.11 | X-H torsion
[ 7974 7965 7964 7962 ] final  143.35 input  175.53 | X-H torsion
[ 8008 7997 7996 7995 ] final  -41.08 input   59.86 | X-H torsion
[ 10167 10162 10161 10158 ] final   90.22 input  -65.29 | X-H torsion
[ 10718 10713 10712 10709 ] final -172.38 input   66.30 | X-H torsion
[ 10763 10752 10751 10750 ] final  108.65 input  -60.55 | X-H torsion
[ 11005 11000 10999 10996 ] final   62.25 input  -57.11 | X-H torsion

> <Gold.Protein.ActiveResidues>
 VAL166  LYS551  ARG553  GLY616  TRP617  ASP618  TYR619  PRO620  LYS621  CYS622 
 ASP623  PHE694  ASN695  SER759  ASP760  ASP761  ALA762  ILE779  LEU786  VAL792 
 PHE793  MET794  SER795  GLU796  ALA797  LYS798  CYS799  TRP800  GLU811  SER814 

> <Gold.Protein.RotatedAtoms>
  150.8249  133.8189  159.3122 H   0  0  0  0  0  0  0  0  0  0  0  0  # atno 6907 bound_to 6896
  151.5936  135.1050  160.0054 H   0  0  0  0  0  0  0  0  0  0  0  0  # atno 6908 bound_to 6896
  152.4335  133.7278  159.6626 H   0  0  0  0  0  0  0  0  0  0  0  0  # atno 6909 bound_to 6896
  144.8928  139.5534  143.5790 H   0  0  0  0  0  0  0  0  0  0  0  0  # atno 7974 bound_to 7965
  154.4007  140.1508  156.3132 H   0  0  0  0  0  0  0  0  0  0  0  0  # atno 8008 bound_to 7997
  155.8596  140.3454  155.5726 H   0  0  0  0  0  0  0  0  0  0  0  0  # atno 8009 bound_to 7997
  155.7894  140.0854  157.2007 H   0  0  0  0  0  0  0  0  0  0  0  0  # atno 8010 bound_to 7997
  139.8494  144.6601  150.9187 H   0  0  0  0  0  0  0  0  0  0  0  0  # atno 10167 bound_to 10162
  156.7547  130.9391  151.3116 H   0  0  0  0  0  0  0  0  0  0  0  0  # atno 10718 bound_to 10713
  153.4236  135.3805  155.2127 H   0  0  0  0  0  0  0  0  0  0  0  0  # atno 10763 bound_to 10752
  154.8746  135.3823  154.4354 H   0  0  0  0  0  0  0  0  0  0  0  0  # atno 10764 bound_to 10752
  153.4877  135.7088  153.5964 H   0  0  0  0  0  0  0  0  0  0  0  0  # atno 10765 bound_to 10752
  140.0105  134.6304  155.9788 H   0  0  0  0  0  0  0  0  0  0  0  0  # atno 11005 bound_to 11000
  146.3064  139.7594  142.9053 LP  0  0  0  0  0  0  0  0  0  0  0  0  # atno 17320 bound_to 7965
  145.3753  141.0349  143.3208 LP  0  0  0  0  0  0  0  0  0  0  0  0  # atno 17321 bound_to 7965
  140.7789  143.3841  151.1425 LP  0  0  0  0  0  0  0  0  0  0  0  0  # atno 17342 bound_to 10162
  139.7480  143.8822  152.3069 LP  0  0  0  0  0  0  0  0  0  0  0  0  # atno 17343 bound_to 10162
  157.6761  130.9096  150.0155 LP  0  0  0  0  0  0  0  0  0  0  0  0  # atno 17370 bound_to 10713
  156.1378  130.3642  149.9629 LP  0  0  0  0  0  0  0  0  0  0  0  0  # atno 17371 bound_to 10713
  141.1707  133.6537  156.4643 LP  0  0  0  0  0  0  0  0  0  0  0  0  # atno 17394 bound_to 11000
  140.4563  134.6882  157.5064 LP  0  0  0  0  0  0  0  0  0  0  0  0  # atno 17395 bound_to 11000

$$$$
