AV-unprocessed.smi:1124|AV-procd|sdf|4833|dock10
  -GOLD-   22720 3393D 1   1.00000     0.00000
 Structure written by MMmdl.
 52 53  0  0  0  0  0  0  0  0  2 V2000
  153.5195  136.7980  163.7841 C   0  0  0  0  0  0  0  0  0  0  0  0
  154.7880  137.5115  163.5149 N   0  3  0  0  0  0  0  0  0  0  0  0
  155.2941  138.2127  164.7155 C   0  0  0  0  0  0  0  0  0  0  0  0
  154.7222  138.3876  162.3144 C   0  0  0  0  0  0  0  0  0  0  0  0
  154.4909  137.5983  160.9963 C   0  0  0  0  0  0  0  0  0  0  0  0
  155.3624  136.3242  160.9866 C   0  0  0  0  0  0  0  0  0  0  0  0
  153.0056  137.1979  160.8547 C   0  0  0  0  0  0  0  0  0  0  0  0
  154.9169  138.4597  159.7757 C   0  0  0  0  0  0  0  0  0  0  0  0
  154.2200  139.7415  159.6846 N   0  0  0  0  0  0  0  0  0  0  0  0
  153.0963  139.9742  158.9869 C   0  0  0  0  0  0  0  0  0  0  0  0
  152.5134  139.1106  158.3307 O   0  0  0  0  0  0  0  0  0  0  0  0
  152.5698  141.3828  159.0761 C   0  0  0  0  0  0  0  0  0  0  0  0
  153.0493  142.2374  160.0962 C   0  0  0  0  0  0  0  0  0  0  0  0
  152.6008  143.5683  160.1572 C   0  0  0  0  0  0  0  0  0  0  0  0
  151.6869  144.0062  159.1841 C   0  0  0  0  0  0  0  0  0  0  0  0
  151.2199  143.2100  158.2018 N   0  0  0  0  0  0  0  0  0  0  0  0
  151.6426  141.9229  158.1351 C   0  0  0  0  0  0  0  0  0  0  0  0
  151.0854  141.1308  157.1109 N   0  0  0  0  0  0  0  0  0  0  0  0
  151.9917  140.6172  156.0887 C   0  0  0  0  0  0  0  0  0  0  0  0
  151.2581  139.5890  155.2108 C   0  0  0  0  0  0  0  0  0  0  0  0
  150.0892  140.1843  154.6538 O   0  0  0  0  0  0  0  0  0  0  0  0
  149.1762  140.6164  155.6592 C   0  0  0  0  0  0  0  0  0  0  0  0
  149.8510  141.6704  156.5535 C   0  0  0  0  0  0  0  0  0  0  0  0
  152.7253  137.4974  164.0486 H   0  0  0  0  0  0  0  0  0  0  0  0
  153.6421  136.0932  164.6071 H   0  0  0  0  0  0  0  0  0  0  0  0
  153.1993  136.2326  162.9085 H   0  0  0  0  0  0  0  0  0  0  0  0
  154.6121  139.0071  165.0215 H   0  0  0  0  0  0  0  0  0  0  0  0
  156.2712  138.6553  164.5190 H   0  0  0  0  0  0  0  0  0  0  0  0
  155.4068  137.5182  165.5487 H   0  0  0  0  0  0  0  0  0  0  0  0
  153.9342  139.1285  162.4553 H   0  0  0  0  0  0  0  0  0  0  0  0
  155.6432  138.9666  162.2256 H   0  0  0  0  0  0  0  0  0  0  0  0
  155.2589  135.7805  160.0469 H   0  0  0  0  0  0  0  0  0  0  0  0
  155.0875  135.6343  161.7849 H   0  0  0  0  0  0  0  0  0  0  0  0
  156.4191  136.5650  161.1098 H   0  0  0  0  0  0  0  0  0  0  0  0
  152.8177  136.7119  159.8967 H   0  0  0  0  0  0  0  0  0  0  0  0
  152.3450  138.0633  160.9192 H   0  0  0  0  0  0  0  0  0  0  0  0
  152.7008  136.4988  161.6336 H   0  0  0  0  0  0  0  0  0  0  0  0
  155.9977  138.6132  159.7776 H   0  0  0  0  0  0  0  0  0  0  0  0
  154.7022  137.9199  158.8527 H   0  0  0  0  0  0  0  0  0  0  0  0
  154.6159  140.5100  160.2068 H   0  0  0  0  0  0  0  0  0  0  0  0
  153.7653  141.8865  160.8255 H   0  0  0  0  0  0  0  0  0  0  0  0
  152.9538  144.2392  160.9264 H   0  0  0  0  0  0  0  0  0  0  0  0
  151.3205  145.0221  159.1938 H   0  0  0  0  0  0  0  0  0  0  0  0
  152.3534  141.4385  155.4683 H   0  0  0  0  0  0  0  0  0  0  0  0
  152.8605  140.1561  156.5600 H   0  0  0  0  0  0  0  0  0  0  0  0
  151.9072  139.2535  154.4018 H   0  0  0  0  0  0  0  0  0  0  0  0
  150.9874  138.7048  155.7906 H   0  0  0  0  0  0  0  0  0  0  0  0
  148.2933  141.0394  155.1800 H   0  0  0  0  0  0  0  0  0  0  0  0
  148.8401  139.7635  156.2514 H   0  0  0  0  0  0  0  0  0  0  0  0
  149.1682  141.9759  157.3465 H   0  0  0  0  0  0  0  0  0  0  0  0
  150.0824  142.5630  155.9709 H   0  0  0  0  0  0  0  0  0  0  0  0
  155.4716  136.7998  163.2999 H   0  0  0  0  0  0  0  0  0  0  0  0
  1  2  1  0  0  0  0
  1 24  1  0  0  0  0
  1 25  1  0  0  0  0
  1 26  1  0  0  0  0
  2  3  1  0  0  0  0
  2  4  1  0  0  0  0
  2 52  1  0  0  0  0
  3 27  1  0  0  0  0
  3 28  1  0  0  0  0
  3 29  1  0  0  0  0
  4  5  1  0  0  0  0
  4 30  1  0  0  0  0
  4 31  1  0  0  0  0
  5  6  1  0  0  0  0
  5  7  1  0  0  0  0
  5  8  1  0  0  0  0
  6 32  1  0  0  0  0
  6 33  1  0  0  0  0
  6 34  1  0  0  0  0
  7 35  1  0  0  0  0
  7 36  1  0  0  0  0
  7 37  1  0  0  0  0
  8  9  1  0  0  0  0
  8 38  1  0  0  0  0
  8 39  1  0  0  0  0
  9 10  1  0  0  0  0
  9 40  1  0  0  0  0
 10 11  2  0  0  0  0
 10 12  1  0  0  0  0
 12 17  1  0  0  0  0
 12 13  2  0  0  0  0
 13 14  1  0  0  0  0
 13 41  1  0  0  0  0
 14 15  2  0  0  0  0
 14 42  1  0  0  0  0
 15 16  1  0  0  0  0
 15 43  1  0  0  0  0
 16 17  2  0  0  0  0
 17 18  1  0  0  0  0
 18 23  1  0  0  0  0
 18 19  1  0  0  0  0
 19 20  1  0  0  0  0
 19 44  1  0  0  0  0
 19 45  1  0  0  0  0
 20 21  1  0  0  0  0
 20 46  1  0  0  0  0
 20 47  1  0  0  0  0
 21 22  1  0  0  0  0
 22 23  1  0  0  0  0
 22 48  1  0  0  0  0
 22 49  1  0  0  0  0
 23 50  1  0  0  0  0
 23 51  1  0  0  0  0
M  CHG  1   2   1
M  END
> <s_m_source_file>
AV-unprocessed.smi

> <i_m_source_file_index>
1124

> <i_lp_mmshare_version>
43012

> <i_f3d_flags>
0

> <s_epik_input>
W0NIM11OKFtDSDNdKVtDSDJdQyhbQ0gzXSkoW0NIM10pW0NIMl1bTkhdQyg9TyljMVtjSF1bY0hdW2NIXW5jMU4yW0NIMl1bQ0gyXU9bQ0gyXVtDSDJdMg==

> <s_epik_cmdline>
J2VwaWtfcHl0aG9uJywgJy1waCcsICc3LjAnLCAnLXRuJywgJzgnLCAnLW1hJywgJzIwMCcsICctbWV0YWxfYmluZGluZycsICctaW1hZScsICc8aW5maWxlLm1hZT4nLCAnLW9tYWUnLCAnPG91dGZpbGUubWFlPic=

> <r_lp_tautomer_probability>
1

> <r_epik_Ionization_Penalty>
0.000493047

> <r_epik_Ionization_Penalty_Charging>
0.000482013

> <r_epik_Ionization_Penalty_Neutral>
1.10333e-05

> <r_epik_State_Penalty>
0.000299147

> <r_epik_Charging_Adjusted_Penalty>
0.000781161

> <i_epik_Tot_Q>
1

> <i_epik_Tot_abs_Q>
1

> <r_epik_Metal_State_Penalty>
-0

> <b_epik_Metal_Only>
0

> <s_lp_Force_Field>
OPLS_2005

> <r_lp_Energy>
38.5131

> <b_lp_Chiralities_Consistent>
1

> <s_lp_Variant>
AV-unprocessed.smi:1124-1

> <Gold.Version>
5.8.1

> <Gold.Id.Protein>
6NUR|6NUR_protein|mol2

> <Gold.PLP.Fitness>
38.0722

> <Gold.PLP.PLP>
-39.1236

> <Gold.PLP.part.hbond>
-0.6245

> <Gold.PLP.part.metal>
0.0000

> <Gold.PLP.part.buried>
-6.2931

> <Gold.PLP.part.nonpolar>
-32.6879

> <Gold.PLP.part.repulsive>
0.3042

> <Gold.PLP.ligand.clash>
0.0000

> <Gold.PLP.ligand.torsion>
0.9072

> <Gold.PLP.Chemscore.Hbond>
0.0000

> <Gold.PLP.Chemscore.CHOScore>
0.0000

> <Gold.PLP.Chemscore.Metal>
0.0000

> <Gold.PLP.Chemscore.Internal.Correction>
0.7630

> <Gold.Rescore>
     Score         DG    S(hbond)    S(metal)    S(lipo)     H(rot)  DE(clash)    DE(int)     intcor
      9.48     -13.41       0.00        0.00     105.71       1.73       0.05       3.88       ----

> <Gold.Chemscore.Fitness>
9.4785

> <Gold.Chemscore.DG>
-13.4078

> <Gold.Chemscore.ZeroCoef>
-5.4800

> <Gold.Chemscore.Hbond>
0.0000

> <Gold.Chemscore.Metal>
0.0000

> <Gold.Chemscore.Lipo>
105.7141

> <Gold.Chemscore.Internal_Hbond>
0.0000

> <Gold.Chemscore.DEClash>
0.0456

> <Gold.Chemscore.DEInternal>
3.8836

> <Gold.Chemscore.Rot>
1.7347

> <Gold.Chemscore.Internal.Correction>
   9.000000E+99

> <Gold.Chemscore.Hbond.Weighted>
-0.0000

> <Gold.Chemscore.Metal.Weighted>
-0.0000

> <Gold.Chemscore.Lipo.Weighted>
-12.3685

> <Gold.Chemscore.Internal_Hbond.Weighted>
0.0000

> <Gold.Chemscore.DEClash.Weighted>
0.0456

> <Gold.Chemscore.DEInternal.Weighted>
3.8836

> <Gold.Chemscore.Rot.Weighted>
4.4408

> <Gold.Chemscore.Internal.Correction.Weighted>
   9.000000E+99

> <Gold.Protein.RotatedTorsions>
[ 6907 6896 6895 6894 ] final  -53.25 input  -60.11 | X-H torsion
[ 7974 7965 7964 7962 ] final  -91.84 input  175.53 | X-H torsion
[ 8008 7997 7996 7995 ] final  160.05 input   59.86 | X-H torsion
[ 10167 10162 10161 10158 ] final  -90.38 input  -65.29 | X-H torsion
[ 10718 10713 10712 10709 ] final  -65.27 input   66.30 | X-H torsion
[ 10763 10752 10751 10750 ] final    7.58 input  -60.55 | X-H torsion
[ 11005 11000 10999 10996 ] final -161.59 input  -57.11 | X-H torsion

> <Gold.Protein.ActiveResidues>
 VAL166  LYS551  ARG553  GLY616  TRP617  ASP618  TYR619  PRO620  LYS621  CYS622 
 ASP623  PHE694  ASN695  SER759  ASP760  ASP761  ALA762  ILE779  LEU786  VAL792 
 PHE793  MET794  SER795  GLU796  ALA797  LYS798  CYS799  TRP800  GLU811  SER814 

> <Gold.Protein.RotatedAtoms>
  150.8443  134.7747  159.6957 H   0  0  0  0  0  0  0  0  0  0  0  0  # atno 6907 bound_to 6896
  152.4524  134.5362  159.9835 H   0  0  0  0  0  0  0  0  0  0  0  0  # atno 6908 bound_to 6896
  151.5496  133.3382  159.2986 H   0  0  0  0  0  0  0  0  0  0  0  0  # atno 6909 bound_to 6896
  145.4078  140.9542  143.2251 H   0  0  0  0  0  0  0  0  0  0  0  0  # atno 7974 bound_to 7965
  156.2198  140.1814  156.7503 H   0  0  0  0  0  0  0  0  0  0  0  0  # atno 8008 bound_to 7997
  154.5848  140.0660  156.9184 H   0  0  0  0  0  0  0  0  0  0  0  0  # atno 8009 bound_to 7997
  155.2440  140.3324  155.4291 H   0  0  0  0  0  0  0  0  0  0  0  0  # atno 8010 bound_to 7997
  140.3555  143.2869  151.9676 H   0  0  0  0  0  0  0  0  0  0  0  0  # atno 10167 bound_to 10162
  156.0679  130.4245  150.1540 H   0  0  0  0  0  0  0  0  0  0  0  0  # atno 10718 bound_to 10713
  153.2347  135.6896  153.7850 H   0  0  0  0  0  0  0  0  0  0  0  0  # atno 10763 bound_to 10752
  153.7002  135.3298  155.3224 H   0  0  0  0  0  0  0  0  0  0  0  0  # atno 10764 bound_to 10752
  154.8329  135.4566  154.1245 H   0  0  0  0  0  0  0  0  0  0  0  0  # atno 10765 bound_to 10752
  140.6187  134.4773  157.5222 H   0  0  0  0  0  0  0  0  0  0  0  0  # atno 11005 bound_to 11000
  144.8330  139.5597  143.6935 LP  0  0  0  0  0  0  0  0  0  0  0  0  # atno 17320 bound_to 7965
  146.2720  139.6659  142.9289 LP  0  0  0  0  0  0  0  0  0  0  0  0  # atno 17321 bound_to 7965
  139.4820  144.6039  151.7557 LP  0  0  0  0  0  0  0  0  0  0  0  0  # atno 17342 bound_to 10162
  140.5178  144.0926  150.6013 LP  0  0  0  0  0  0  0  0  0  0  0  0  # atno 17343 bound_to 10162
  156.9597  130.9801  151.3481 LP  0  0  0  0  0  0  0  0  0  0  0  0  # atno 17370 bound_to 10713
  157.5732  130.8325  149.8420 LP  0  0  0  0  0  0  0  0  0  0  0  0  # atno 17371 bound_to 10713
  139.9162  134.8241  156.1358 LP  0  0  0  0  0  0  0  0  0  0  0  0  # atno 17394 bound_to 11000
  141.0758  133.6776  156.2233 LP  0  0  0  0  0  0  0  0  0  0  0  0  # atno 17395 bound_to 11000

$$$$
