AV-unprocessed.smi:527|AV-procd|sdf|2815|dock6
  -GOLD-   2262023293D 1   1.00000     0.00000
 Structure written by MMmdl.
 42 43  0  0  0  0  0  0  0  0  1 V2000
  152.2523  138.4005  154.5776 C   0  0  0  0  0  0  0  0  0  0  0  0
  150.7167  138.3864  154.4738 C   0  0  2  0  0  0  0  0  0  0  0  0
  150.1754  139.8280  154.5671 C   0  0  0  0  0  0  0  0  0  0  0  0
  148.6461  139.8816  154.4564 C   0  0  0  0  0  0  0  0  0  0  0  0
  147.9878  138.9941  155.5219 C   0  0  0  0  0  0  0  0  0  0  0  0
  148.4965  137.5400  155.4499 C   0  0  1  0  0  0  0  0  0  0  0  0
  148.0116  136.8759  154.2387 N   0  0  0  0  0  0  0  0  0  0  0  0
  146.7617  136.4357  154.0346 C   0  0  0  0  0  0  0  0  0  0  0  0
  145.8577  136.5487  154.8653 O   0  0  0  0  0  0  0  0  0  0  0  0
  146.6454  135.8724  152.8173 N   0  0  0  0  0  0  0  0  0  0  0  0
  145.5122  135.5026  152.1851 C   0  0  0  0  0  0  0  0  0  0  0  0
  144.3744  135.6115  152.6457 O   0  0  0  0  0  0  0  0  0  0  0  0
  145.6960  134.8963  150.7912 C   0  0  0  0  0  0  0  0  0  0  0  0
  145.1516  133.5522  150.7156 N   0  0  0  0  0  0  0  0  0  0  0  0
  143.8126  133.1850  150.7693 C   0  0  0  0  0  0  0  0  0  0  0  0
  143.7767  131.8127  150.6671 C   0  0  0  0  0  0  0  0  0  0  0  0
  145.0732  131.3174  150.5493 N   0  0  0  0  0  0  0  0  0  0  0  0
  145.8325  132.4048  150.5838 C   0  0  0  0  0  0  0  0  0  0  0  0
  150.0439  137.4766  155.5400 C   0  0  1  0  0  0  0  0  0  0  0  0
  150.5469  136.0194  155.4940 C   0  0  0  0  0  0  0  0  0  0  0  0
  152.5802  138.7120  155.5697 H   0  0  0  0  0  0  0  0  0  0  0  0
  152.6863  139.0914  153.8542 H   0  0  0  0  0  0  0  0  0  0  0  0
  152.6817  137.4199  154.3736 H   0  0  0  0  0  0  0  0  0  0  0  0
  150.4635  138.0007  153.4853 H   0  0  0  0  0  0  0  0  0  0  0  0
  150.4840  140.2754  155.5130 H   0  0  0  0  0  0  0  0  0  0  0  0
  150.6144  140.4427  153.7804 H   0  0  0  0  0  0  0  0  0  0  0  0
  148.3027  140.9103  154.5686 H   0  0  0  0  0  0  0  0  0  0  0  0
  148.3366  139.5611  153.4608 H   0  0  0  0  0  0  0  0  0  0  0  0
  148.2070  139.4009  156.5100 H   0  0  0  0  0  0  0  0  0  0  0  0
  146.9027  139.0275  155.4172 H   0  0  0  0  0  0  0  0  0  0  0  0
  148.0938  137.0021  156.3102 H   0  0  0  0  0  0  0  0  0  0  0  0
  148.6852  136.7491  153.4976 H   0  0  0  0  0  0  0  0  0  0  0  0
  147.5052  135.7209  152.3112 H   0  0  0  0  0  0  0  0  0  0  0  0
  145.2028  135.5254  150.0492 H   0  0  0  0  0  0  0  0  0  0  0  0
  146.7551  134.8600  150.5318 H   0  0  0  0  0  0  0  0  0  0  0  0
  143.0182  133.9094  150.8747 H   0  0  0  0  0  0  0  0  0  0  0  0
  142.9245  131.1492  150.6694 H   0  0  0  0  0  0  0  0  0  0  0  0
  146.9101  132.3662  150.5166 H   0  0  0  0  0  0  0  0  0  0  0  0
  150.3169  137.8700  156.5206 H   0  0  0  0  0  0  0  0  0  0  0  0
  150.4378  135.5862  154.4993 H   0  0  0  0  0  0  0  0  0  0  0  0
  149.9920  135.3923  156.1921 H   0  0  0  0  0  0  0  0  0  0  0  0
  151.5975  135.9486  155.7736 H   0  0  0  0  0  0  0  0  0  0  0  0
  1  2  1  0  0  0  0
  1 21  1  0  0  0  0
  1 22  1  0  0  0  0
  1 23  1  0  0  0  0
  2 19  1  0  0  0  0
  2  3  1  0  0  0  0
  2 24  1  0  0  0  0
  3  4  1  0  0  0  0
  3 25  1  0  0  0  0
  3 26  1  0  0  0  0
  4  5  1  0  0  0  0
  4 27  1  0  0  0  0
  4 28  1  0  0  0  0
  5  6  1  0  0  0  0
  5 29  1  0  0  0  0
  5 30  1  0  0  0  0
  6  7  1  0  0  0  0
  6 19  1  0  0  0  0
  6 31  1  0  0  0  0
  7  8  1  0  0  0  0
  7 32  1  0  0  0  0
  8  9  2  0  0  0  0
  8 10  1  0  0  0  0
 10 11  1  0  0  0  0
 10 33  1  0  0  0  0
 11 12  2  0  0  0  0
 11 13  1  0  0  0  0
 13 14  1  0  0  0  0
 13 34  1  0  0  0  0
 13 35  1  0  0  0  0
 14 18  1  0  0  0  0
 14 15  1  0  0  0  0
 15 16  2  0  0  0  0
 15 36  1  0  0  0  0
 16 17  1  0  0  0  0
 16 37  1  0  0  0  0
 17 18  2  0  0  0  0
 18 38  1  0  0  0  0
 19 20  1  0  0  0  0
 19 39  1  0  0  0  0
 20 40  1  0  0  0  0
 20 41  1  0  0  0  0
 20 42  1  0  0  0  0
M  END
> <s_m_source_file>
AV-unprocessed.smi

> <i_m_source_file_index>
527

> <i_lp_mmshare_version>
43012

> <i_f3d_flags>
0

> <s_epik_input>
W0NIM11bQ0BASF0xW0NIMl1bQ0gyXVtDSDJdW0NASF0oW0NASF0xW0NIM10pW05IXUMoPU8pW05IXUMoPU8pW0NIMl1uMltjSF1bY0hdbltjSF0y

> <s_epik_cmdline>
J2VwaWtfcHl0aG9uJywgJy1waCcsICc3LjAnLCAnLXRuJywgJzgnLCAnLW1hJywgJzIwMCcsICctbWV0YWxfYmluZGluZycsICctaW1hZScsICc8aW5maWxlLm1hZT4nLCAnLW9tYWUnLCAnPG91dGZpbGUubWFlPic=

> <r_lp_tautomer_probability>
1

> <r_epik_Ionization_Penalty>
0.172132

> <r_epik_Ionization_Penalty_Charging>
0.172105

> <r_epik_Ionization_Penalty_Neutral>
2.71747e-05

> <r_epik_State_Penalty>
0.161503

> <r_epik_Charging_Adjusted_Penalty>
0.333607

> <i_epik_Tot_Q>
0

> <i_epik_Tot_abs_Q>
0

> <r_epik_Metal_State_Penalty>
0.124763

> <b_epik_Metal_Only>
0

> <s_lp_Force_Field>
OPLS_2005

> <r_lp_Energy>
14.2901

> <b_lp_Chiralities_Consistent>
1

> <s_lp_Variant>
AV-unprocessed.smi:527-1

> <Gold.Version>
5.8.1

> <Gold.Id.Protein>
6NUR|6NUR_protein|mol2

> <Gold.PLP.Fitness>
44.4535

> <Gold.PLP.PLP>
-30.2891

> <Gold.PLP.part.hbond>
-1.8581

> <Gold.PLP.part.metal>
0.0000

> <Gold.PLP.part.buried>
-2.4229

> <Gold.PLP.part.nonpolar>
-25.6822

> <Gold.PLP.part.repulsive>
0.2295

> <Gold.PLP.ligand.clash>
0.0000

> <Gold.PLP.ligand.torsion>
0.3249

> <Gold.PLP.Chemscore.Hbond>
1.9440

> <Gold.PLP.Chemscore.CHOScore>
2.9866

> <Gold.PLP.Chemscore.Metal>
0.0000

> <Gold.Chemscore.Hbonds>
donor molecule, donor type, donor heavy atom, donor atom, acceptor molecule, acceptor atom, score
      L1  H     7    32       P1  7948  0.94
      L1  H    10    33       P1  7948  1.00
      L1  C    15    36       P1 10186  1.00
      L1  C    16    37       P1 10952  1.00
      L1  C    18    38       P1 10747  0.92

> <Gold.PLP.Chemscore.Internal.Correction>
0.0224

> <Gold.Rescore>
     Score         DG    S(hbond)    S(metal)    S(lipo)     H(rot)  DE(clash)    DE(int)     intcor
     13.28     -14.93       1.90        0.00      62.89       1.66       0.03       1.62       ----

> <Gold.Chemscore.Fitness>
13.2849

> <Gold.Chemscore.DG>
-14.9316

> <Gold.Chemscore.ZeroCoef>
-5.4800

> <Gold.Chemscore.Hbond>
1.9012

> <Gold.Chemscore.Metal>
0.0000

> <Gold.Chemscore.Lipo>
62.8938

> <Gold.Chemscore.Internal_Hbond>
0.0000

> <Gold.Chemscore.DEClash>
0.0253

> <Gold.Chemscore.DEInternal>
1.6214

> <Gold.Chemscore.Rot>
1.6629

> <Gold.Chemscore.Internal.Correction>
   9.000000E+99

> <Gold.Chemscore.Hbonds>
donor molecule, donor type, donor heavy atom, donor atom, acceptor molecule, acceptor atom, score
      L1  H     7    32       P1  7948  0.91
      L1  H    10    33       P1  7948  0.93

> <Gold.Chemscore.Hbond.Weighted>
-6.3499

> <Gold.Chemscore.Metal.Weighted>
-0.0000

> <Gold.Chemscore.Lipo.Weighted>
-7.3586

> <Gold.Chemscore.Internal_Hbond.Weighted>
0.0000

> <Gold.Chemscore.DEClash.Weighted>
0.0253

> <Gold.Chemscore.DEInternal.Weighted>
1.6214

> <Gold.Chemscore.Rot.Weighted>
4.2569

> <Gold.Chemscore.Internal.Correction.Weighted>
   9.000000E+99

> <Gold.Protein.RotatedTorsions>
[ 6907 6896 6895 6894 ] final   92.14 input  -60.11 | X-H torsion
[ 7974 7965 7964 7962 ] final   66.64 input  175.53 | X-H torsion
[ 8008 7997 7996 7995 ] final   82.32 input   59.86 | X-H torsion
[ 10167 10162 10161 10158 ] final  129.83 input  -65.29 | X-H torsion
[ 10718 10713 10712 10709 ] final   79.19 input   66.30 | X-H torsion
[ 10763 10752 10751 10750 ] final  -75.28 input  -60.55 | X-H torsion
[ 11005 11000 10999 10996 ] final  -77.69 input  -57.11 | X-H torsion

> <Gold.Protein.ActiveResidues>
 VAL166  LYS551  ARG553  GLY616  TRP617  ASP618  TYR619  PRO620  LYS621  CYS622 
 ASP623  PHE694  ASN695  SER759  ASP760  ASP761  ALA762  ILE779  LEU786  VAL792 
 PHE793  MET794  SER795  GLU796  ALA797  LYS798  CYS799  TRP800  GLU811  SER814 

> <Gold.Protein.RotatedAtoms>
  152.5452  134.1548  159.8532 H   0  0  0  0  0  0  0  0  0  0  0  0  # atno 6907 bound_to 6896
  151.1571  133.4862  159.2602 H   0  0  0  0  0  0  0  0  0  0  0  0  # atno 6908 bound_to 6896
  151.1411  135.0191  159.8681 H   0  0  0  0  0  0  0  0  0  0  0  0  # atno 6909 bound_to 6896
  145.8242  139.3102  143.1025 H   0  0  0  0  0  0  0  0  0  0  0  0  # atno 7974 bound_to 7965
  155.9090  140.3428  155.6084 H   0  0  0  0  0  0  0  0  0  0  0  0  # atno 8008 bound_to 7997
  155.7410  140.0807  157.2264 H   0  0  0  0  0  0  0  0  0  0  0  0  # atno 8009 bound_to 7997
  154.4053  140.1570  156.2604 H   0  0  0  0  0  0  0  0  0  0  0  0  # atno 8010 bound_to 7997
  139.5459  144.6772  151.4475 H   0  0  0  0  0  0  0  0  0  0  0  0  # atno 10167 bound_to 10162
  157.6769  130.9903  150.1896 H   0  0  0  0  0  0  0  0  0  0  0  0  # atno 10718 bound_to 10713
  154.4844  135.5836  153.6413 H   0  0  0  0  0  0  0  0  0  0  0  0  # atno 10763 bound_to 10752
  152.9852  135.6097  154.3205 H   0  0  0  0  0  0  0  0  0  0  0  0  # atno 10764 bound_to 10752
  154.3099  135.2845  155.2550 H   0  0  0  0  0  0  0  0  0  0  0  0  # atno 10765 bound_to 10752
  141.1661  133.7033  156.7859 H   0  0  0  0  0  0  0  0  0  0  0  0  # atno 11005 bound_to 11000
  145.9642  140.8812  143.0195 LP  0  0  0  0  0  0  0  0  0  0  0  0  # atno 17320 bound_to 7965
  144.6745  140.1854  143.7402 LP  0  0  0  0  0  0  0  0  0  0  0  0  # atno 17321 bound_to 7965
  140.6707  143.8301  150.6995 LP  0  0  0  0  0  0  0  0  0  0  0  0  # atno 17342 bound_to 10162
  140.1724  143.4183  152.1991 LP  0  0  0  0  0  0  0  0  0  0  0  0  # atno 17343 bound_to 10162
  156.2610  130.3711  149.8130 LP  0  0  0  0  0  0  0  0  0  0  0  0  # atno 17370 bound_to 10713
  156.5875  130.8492  151.3399 LP  0  0  0  0  0  0  0  0  0  0  0  0  # atno 17371 bound_to 10713
  140.2360  134.8649  157.3526 LP  0  0  0  0  0  0  0  0  0  0  0  0  # atno 17394 bound_to 11000
  140.1843  134.4451  155.7753 LP  0  0  0  0  0  0  0  0  0  0  0  0  # atno 17395 bound_to 11000

$$$$
