AV-unprocessed.smi:2734|AV-procd|sdf|10538|dock7
  -GOLD-   2272014583D 1   1.00000     0.00000
 Structure written by MMmdl.
 40 42  0  0  0  0  0  0  0  0  1 V2000
  152.2174  144.0252  161.4062 C   0  0  0  0  0  0  0  0  0  0  0  0
  152.1711  143.0790  160.2193 C   0  0  0  0  0  0  0  0  0  0  0  0
  152.5126  141.7211  160.4094 C   0  0  0  0  0  0  0  0  0  0  0  0
  152.4869  140.8101  159.3307 C   0  0  0  0  0  0  0  0  0  0  0  0
  152.7852  139.4589  159.2882 N   0  0  0  0  0  0  0  0  0  0  0  0
  152.5794  139.1792  158.0045 C   0  0  0  0  0  0  0  0  0  0  0  0
  152.1830  140.1908  157.2086 N   0  0  0  0  0  0  0  0  0  0  0  0
  151.9072  140.1230  155.7850 C   0  0  0  0  0  0  0  0  0  0  0  0
  150.4067  139.9486  155.4773 C   0  0  1  0  0  0  0  0  0  0  0  0
  150.2161  140.1961  154.0992 O   0  0  0  0  0  0  0  0  0  0  0  0
  149.8644  138.5487  155.8213 C   0  0  0  0  0  0  0  0  0  0  0  0
  151.0098  137.2232  155.3341 S   0  0  0  0  0  0  0  0  0  0  0  0
  150.4241  135.9275  156.3826 C   0  0  0  0  0  0  0  0  0  0  0  0
  150.3090  135.9686  157.7054 N   0  0  0  0  0  0  0  0  0  0  0  0
  149.8131  134.7221  158.0370 N   0  0  0  0  0  0  0  0  0  0  0  0
  149.6435  133.9851  156.9780 N   0  0  0  0  0  0  0  0  0  0  0  0
  150.0277  134.7364  155.9175 N   0  0  0  0  0  0  0  0  0  0  0  0
  149.9658  134.2134  154.5673 C   0  0  0  0  0  0  0  0  0  0  0  0
  152.1038  141.2980  158.0473 C   0  0  0  0  0  0  0  0  0  0  0  0
  151.7596  142.6464  157.8461 C   0  0  0  0  0  0  0  0  0  0  0  0
  151.7944  143.5439  158.9335 C   0  0  0  0  0  0  0  0  0  0  0  0
  151.4293  144.9997  158.7036 C   0  0  0  0  0  0  0  0  0  0  0  0
  152.5161  143.5065  162.3177 H   0  0  0  0  0  0  0  0  0  0  0  0
  151.2371  144.4692  161.5804 H   0  0  0  0  0  0  0  0  0  0  0  0
  152.9346  144.8265  161.2269 H   0  0  0  0  0  0  0  0  0  0  0  0
  152.8016  141.3669  161.3879 H   0  0  0  0  0  0  0  0  0  0  0  0
  152.7286  138.1814  157.6182 H   0  0  0  0  0  0  0  0  0  0  0  0
  152.2832  141.0363  155.3216 H   0  0  0  0  0  0  0  0  0  0  0  0
  152.4827  139.2998  155.3590 H   0  0  0  0  0  0  0  0  0  0  0  0
  149.8411  140.6980  156.0324 H   0  0  0  0  0  0  0  0  0  0  0  0
  149.3072  140.0403  153.8911 H   0  0  0  0  0  0  0  0  0  0  0  0
  149.6613  138.4768  156.8907 H   0  0  0  0  0  0  0  0  0  0  0  0
  148.9230  138.3734  155.3010 H   0  0  0  0  0  0  0  0  0  0  0  0
  149.3046  134.8359  153.9640 H   0  0  0  0  0  0  0  0  0  0  0  0
  149.5852  133.1912  154.5688 H   0  0  0  0  0  0  0  0  0  0  0  0
  150.9628  134.2193  154.1264 H   0  0  0  0  0  0  0  0  0  0  0  0
  151.4785  142.9883  156.8611 H   0  0  0  0  0  0  0  0  0  0  0  0
  151.1589  145.1826  157.6633 H   0  0  0  0  0  0  0  0  0  0  0  0
  152.2710  145.6473  158.9491 H   0  0  0  0  0  0  0  0  0  0  0  0
  150.5795  145.2837  159.3247 H   0  0  0  0  0  0  0  0  0  0  0  0
  1  2  1  0  0  0  0
  1 23  1  0  0  0  0
  1 24  1  0  0  0  0
  1 25  1  0  0  0  0
  2 21  1  0  0  0  0
  2  3  2  0  0  0  0
  3  4  1  0  0  0  0
  3 26  1  0  0  0  0
  4 19  2  0  0  0  0
  4  5  1  0  0  0  0
  5  6  2  0  0  0  0
  6  7  1  0  0  0  0
  6 27  1  0  0  0  0
  7  8  1  0  0  0  0
  7 19  1  0  0  0  0
  8  9  1  0  0  0  0
  8 28  1  0  0  0  0
  8 29  1  0  0  0  0
  9 10  1  0  0  0  0
  9 11  1  0  0  0  0
  9 30  1  0  0  0  0
 10 31  1  0  0  0  0
 11 12  1  0  0  0  0
 11 32  1  0  0  0  0
 11 33  1  0  0  0  0
 12 13  1  0  0  0  0
 13 17  1  0  0  0  0
 13 14  2  0  0  0  0
 14 15  1  0  0  0  0
 15 16  2  0  0  0  0
 16 17  1  0  0  0  0
 17 18  1  0  0  0  0
 18 34  1  0  0  0  0
 18 35  1  0  0  0  0
 18 36  1  0  0  0  0
 19 20  1  0  0  0  0
 20 21  2  0  0  0  0
 20 37  1  0  0  0  0
 21 22  1  0  0  0  0
 22 38  1  0  0  0  0
 22 39  1  0  0  0  0
 22 40  1  0  0  0  0
M  END
> <s_m_source_file>
AV-unprocessed.smi

> <i_m_source_file_index>
2734

> <i_lp_mmshare_version>
43012

> <i_f3d_flags>
0

> <s_epik_input>
W0NIM11jKFtjSF0xKWMoW0NIM10pW2NIXWMoYzEyKW4oW2NIXW4yKVtDSDJdW0NASF0oW09IXSlbQ0gyXVNjM25ubm4zW0NIM10=

> <s_epik_cmdline>
J2VwaWtfcHl0aG9uJywgJy1waCcsICc3LjAnLCAnLXRuJywgJzgnLCAnLW1hJywgJzIwMCcsICctbWV0YWxfYmluZGluZycsICctaW1hZScsICc8aW5maWxlLm1hZT4nLCAnLW9tYWUnLCAnPG91dGZpbGUubWFlPic=

> <r_lp_tautomer_probability>
1

> <r_epik_Ionization_Penalty>
0.105517

> <r_epik_Ionization_Penalty_Charging>
0

> <r_epik_Ionization_Penalty_Neutral>
0.105517

> <r_epik_State_Penalty>
0.0953887

> <r_epik_Charging_Adjusted_Penalty>
0.0953887

> <i_epik_Tot_Q>
0

> <i_epik_Tot_abs_Q>
0

> <r_epik_Metal_State_Penalty>
0.0808533

> <b_epik_Metal_Only>
0

> <s_lp_Force_Field>
OPLS_2005

> <r_lp_Energy>
9.84292

> <b_lp_Chiralities_Consistent>
1

> <s_lp_Variant>
AV-unprocessed.smi:2734-2

> <Gold.Version>
5.8.1

> <Gold.Id.Protein>
6NUR|6NUR_protein|mol2

> <Gold.PLP.Fitness>
47.3047

> <Gold.PLP.PLP>
-42.7471

> <Gold.PLP.part.hbond>
-3.7055

> <Gold.PLP.part.metal>
0.0000

> <Gold.PLP.part.buried>
-5.4636

> <Gold.PLP.part.nonpolar>
-32.6589

> <Gold.PLP.part.repulsive>
0.0000

> <Gold.PLP.ligand.clash>
0.0000

> <Gold.PLP.ligand.torsion>
0.6836

> <Gold.PLP.Chemscore.Hbond>
1.9600

> <Gold.PLP.Chemscore.CHOScore>
0.0000

> <Gold.PLP.Chemscore.Metal>
0.0000

> <Gold.Chemscore.Hbonds>
donor molecule, donor type, donor heavy atom, donor atom, acceptor molecule, acceptor atom, score
      P1  H  6896  6907       L1    15  1.00
      P1  H  7989  7998       L1    10  0.96

> <Gold.PLP.Chemscore.Internal.Correction>
0.0448

> <Gold.Rescore>
     Score         DG    S(hbond)    S(metal)    S(lipo)     H(rot)  DE(clash)    DE(int)     intcor
     15.31     -16.24       1.52        0.00     110.94       2.85       0.27       0.66       ----

> <Gold.Chemscore.Fitness>
15.3088

> <Gold.Chemscore.DG>
-16.2403

> <Gold.Chemscore.ZeroCoef>
-5.4800

> <Gold.Chemscore.Hbond>
1.5163

> <Gold.Chemscore.Metal>
0.0000

> <Gold.Chemscore.Lipo>
110.9353

> <Gold.Chemscore.Internal_Hbond>
0.0000

> <Gold.Chemscore.DEClash>
0.2677

> <Gold.Chemscore.DEInternal>
0.6638

> <Gold.Chemscore.Rot>
2.8452

> <Gold.Chemscore.Internal.Correction>
   9.000000E+99

> <Gold.Chemscore.Hbonds>
donor molecule, donor type, donor heavy atom, donor atom, acceptor molecule, acceptor atom, score
      P1  H  6896  6907       L1    15  0.57
      P1  H  7989  7998       L1    10  0.64

> <Gold.Chemscore.Hbond.Weighted>
-5.0646

> <Gold.Chemscore.Metal.Weighted>
-0.0000

> <Gold.Chemscore.Lipo.Weighted>
-12.9794

> <Gold.Chemscore.Internal_Hbond.Weighted>
0.0000

> <Gold.Chemscore.DEClash.Weighted>
0.2677

> <Gold.Chemscore.DEInternal.Weighted>
0.6638

> <Gold.Chemscore.Rot.Weighted>
7.2837

> <Gold.Chemscore.Internal.Correction.Weighted>
   9.000000E+99

> <Gold.Protein.RotatedTorsions>
[ 6907 6896 6895 6894 ] final  -95.34 input  -60.11 | X-H torsion
[ 7974 7965 7964 7962 ] final   55.11 input  175.53 | X-H torsion
[ 8008 7997 7996 7995 ] final -125.72 input   59.86 | X-H torsion
[ 10167 10162 10161 10158 ] final -154.35 input  -65.29 | X-H torsion
[ 10718 10713 10712 10709 ] final   54.44 input   66.30 | X-H torsion
[ 10763 10752 10751 10750 ] final   86.39 input  -60.55 | X-H torsion
[ 11005 11000 10999 10996 ] final  176.31 input  -57.11 | X-H torsion

> <Gold.Protein.ActiveResidues>
 VAL166  LYS551  ARG553  GLY616  TRP617  ASP618  TYR619  PRO620  LYS621  CYS622 
 ASP623  PHE694  ASN695  SER759  ASP760  ASP761  ALA762  ILE779  LEU786  VAL792 
 PHE793  MET794  SER795  GLU796  ALA797  LYS798  CYS799  TRP800  GLU811  SER814 

> <Gold.Protein.RotatedAtoms>
  150.6961  134.1673  159.4198 H   0  0  0  0  0  0  0  0  0  0  0  0  # atno 6907 bound_to 6896
  151.9652  135.0102  160.0559 H   0  0  0  0  0  0  0  0  0  0  0  0  # atno 6908 bound_to 6896
  152.1891  133.4725  159.5035 H   0  0  0  0  0  0  0  0  0  0  0  0  # atno 6909 bound_to 6896
  145.9538  139.3996  143.0290 H   0  0  0  0  0  0  0  0  0  0  0  0  # atno 7974 bound_to 7965
  155.2179  140.0421  157.2944 H   0  0  0  0  0  0  0  0  0  0  0  0  # atno 8008 bound_to 7997
  154.5969  140.2441  155.7816 H   0  0  0  0  0  0  0  0  0  0  0  0  # atno 8009 bound_to 7997
  156.2296  140.2943  156.0162 H   0  0  0  0  0  0  0  0  0  0  0  0  # atno 8010 bound_to 7997
  139.7020  143.9247  152.2433 H   0  0  0  0  0  0  0  0  0  0  0  0  # atno 10167 bound_to 10162
  157.5257  130.8595  149.8618 H   0  0  0  0  0  0  0  0  0  0  0  0  # atno 10718 bound_to 10713
  153.1566  135.4582  154.9712 H   0  0  0  0  0  0  0  0  0  0  0  0  # atno 10763 bound_to 10752
  154.7866  135.3206  154.7875 H   0  0  0  0  0  0  0  0  0  0  0  0  # atno 10764 bound_to 10752
  153.8372  135.6933  153.4861 H   0  0  0  0  0  0  0  0  0  0  0  0  # atno 10765 bound_to 10752
  140.3717  134.7024  157.4396 H   0  0  0  0  0  0  0  0  0  0  0  0  # atno 11005 bound_to 11000
  145.8135  140.9714  143.0936 LP  0  0  0  0  0  0  0  0  0  0  0  0  # atno 17320 bound_to 7965
  144.6801  139.9950  143.7484 LP  0  0  0  0  0  0  0  0  0  0  0  0  # atno 17321 bound_to 7965
  139.9092  144.6866  150.8581 LP  0  0  0  0  0  0  0  0  0  0  0  0  # atno 17342 bound_to 10162
  140.7712  143.3456  151.2118 LP  0  0  0  0  0  0  0  0  0  0  0  0  # atno 17343 bound_to 10162
  156.0385  130.3745  150.1496 LP  0  0  0  0  0  0  0  0  0  0  0  0  # atno 17370 bound_to 10713
  156.9683  130.9826  151.3464 LP  0  0  0  0  0  0  0  0  0  0  0  0  # atno 17371 bound_to 10713
  140.0546  134.6081  155.8820 LP  0  0  0  0  0  0  0  0  0  0  0  0  # atno 17394 bound_to 11000
  141.1952  133.6586  156.5633 LP  0  0  0  0  0  0  0  0  0  0  0  0  # atno 17395 bound_to 11000

$$$$
