AV-unprocessed.smi:3032|AV-procd|sdf|11563|dock5
  -GOLD-   2272016533D 1   1.00000     0.00000
 Structure written by MMmdl.
 37 38  0  0  0  0  0  0  0  0  1 V2000
  153.1248  142.7540  161.8883 C   0  0  0  0  0  0  0  0  0  0  0  0
  152.7496  143.4451  160.5697 C   0  0  2  0  0  0  0  0  0  0  0  0
  151.6979  144.5493  160.7922 C   0  0  0  0  0  0  0  0  0  0  0  0
  151.3150  145.2383  159.4728 C   0  0  0  0  0  0  0  0  0  0  0  0
  150.8248  144.2181  158.4340 C   0  0  0  0  0  0  0  0  0  0  0  0
  151.8787  143.1181  158.1922 C   0  0  2  0  0  0  0  0  0  0  0  0
  151.3737  142.0997  157.1620 C   0  0  0  0  0  0  0  0  0  0  0  0
  151.7327  140.9232  157.2212 O   0  0  0  0  0  0  0  0  0  0  0  0
  150.5293  142.5637  156.2284 N   0  0  0  0  0  0  0  0  0  0  0  0
  149.8850  141.7509  155.2014 C   0  0  0  0  0  0  0  0  0  0  0  0
  148.4185  141.4111  155.5368 C   0  0  0  0  0  0  0  0  0  0  0  0
  147.7399  140.5841  154.4908 C   0  0  0  0  0  0  0  0  0  0  0  0
  146.5163  140.8921  154.0575 N   0  0  0  0  0  0  0  0  0  0  0  0
  146.2701  139.8992  153.1758 N   0  0  0  0  0  0  0  0  0  0  0  0
  147.3211  139.0816  153.1457 C   0  0  0  0  0  0  0  0  0  0  0  0
  148.2978  139.4502  153.9635 N   0  0  0  0  0  0  0  0  0  0  0  0
  152.2504  142.4293  159.5231 C   0  0  0  0  0  0  0  0  0  0  0  0
  152.2618  142.2609  162.3372 H   0  0  0  0  0  0  0  0  0  0  0  0
  153.5116  143.4722  162.6117 H   0  0  0  0  0  0  0  0  0  0  0  0
  153.8950  141.9988  161.7305 H   0  0  0  0  0  0  0  0  0  0  0  0
  153.6528  143.9150  160.1776 H   0  0  0  0  0  0  0  0  0  0  0  0
  150.8048  144.1210  161.2494 H   0  0  0  0  0  0  0  0  0  0  0  0
  152.0780  145.2917  161.4948 H   0  0  0  0  0  0  0  0  0  0  0  0
  150.5407  145.9842  159.6550 H   0  0  0  0  0  0  0  0  0  0  0  0
  152.1766  145.7778  159.0776 H   0  0  0  0  0  0  0  0  0  0  0  0
  149.8892  143.7748  158.7790 H   0  0  0  0  0  0  0  0  0  0  0  0
  150.5964  144.7317  157.4989 H   0  0  0  0  0  0  0  0  0  0  0  0
  152.7779  143.5917  157.7932 H   0  0  0  0  0  0  0  0  0  0  0  0
  150.2874  143.5438  156.2530 H   0  0  0  0  0  0  0  0  0  0  0  0
  149.9215  142.3138  154.2685 H   0  0  0  0  0  0  0  0  0  0  0  0
  150.4566  140.8372  155.0317 H   0  0  0  0  0  0  0  0  0  0  0  0
  148.3745  140.8843  156.4907 H   0  0  0  0  0  0  0  0  0  0  0  0
  147.8497  142.3312  155.6767 H   0  0  0  0  0  0  0  0  0  0  0  0
  147.3719  138.2030  152.5198 H   0  0  0  0  0  0  0  0  0  0  0  0
  153.0212  141.6778  159.3459 H   0  0  0  0  0  0  0  0  0  0  0  0
  151.3866  141.8950  159.9225 H   0  0  0  0  0  0  0  0  0  0  0  0
  145.4117  139.8249  152.6487 H   0  0  0  0  0  0  0  0  0  0  0  0
  1  2  1  0  0  0  0
  1 18  1  0  0  0  0
  1 19  1  0  0  0  0
  1 20  1  0  0  0  0
  2 17  1  0  0  0  0
  2  3  1  0  0  0  0
  2 21  1  0  0  0  0
  3  4  1  0  0  0  0
  3 22  1  0  0  0  0
  3 23  1  0  0  0  0
  4  5  1  0  0  0  0
  4 24  1  0  0  0  0
  4 25  1  0  0  0  0
  5  6  1  0  0  0  0
  5 26  1  0  0  0  0
  5 27  1  0  0  0  0
  6  7  1  0  0  0  0
  6 17  1  0  0  0  0
  6 28  1  0  0  0  0
  7  8  2  0  0  0  0
  7  9  1  0  0  0  0
  9 10  1  0  0  0  0
  9 29  1  0  0  0  0
 10 11  1  0  0  0  0
 10 30  1  0  0  0  0
 10 31  1  0  0  0  0
 11 32  1  0  0  0  0
 11 33  1  0  0  0  0
 11 12  1  0  0  0  0
 12 16  1  0  0  0  0
 12 13  2  0  0  0  0
 13 14  1  0  0  0  0
 14 15  1  0  0  0  0
 14 37  1  0  0  0  0
 15 16  2  0  0  0  0
 15 34  1  0  0  0  0
 17 35  1  0  0  0  0
 17 36  1  0  0  0  0
M  END
> <s_m_source_file>
AV-unprocessed.smi

> <i_m_source_file_index>
3032

> <i_lp_mmshare_version>
43012

> <i_f3d_flags>
0

> <s_epik_input>
W0NIM11bQ0BASF0xW0NIMl1bQ0gyXVtDSDJdW0NASF0oW0NIMl0xKUMoPU8pW05IXVtDSDJdW0NIMl1jMm5uW2NIXVtuSF0y

> <s_epik_cmdline>
J2VwaWtfcHl0aG9uJywgJy1waCcsICc3LjAnLCAnLXRuJywgJzgnLCAnLW1hJywgJzIwMCcsICctbWV0YWxfYmluZGluZycsICctaW1hZScsICc8aW5maWxlLm1hZT4nLCAnLW9tYWUnLCAnPG91dGZpbGUubWFlPic=

> <r_epik_Ionization_Penalty>
0.000752022

> <r_epik_Ionization_Penalty_Charging>
0

> <r_epik_Ionization_Penalty_Neutral>
0.000752022

> <r_epik_State_Penalty>
0.639926

> <r_epik_Charging_Adjusted_Penalty>
0.639926

> <i_epik_Tot_Q>
0

> <i_epik_Tot_abs_Q>
0

> <r_epik_Metal_State_Penalty>
0.76532

> <b_epik_Metal_Only>
0

> <s_lp_Force_Field>
OPLS_2005

> <r_lp_Energy>
8.90132

> <b_lp_Chiralities_Consistent>
1

> <s_lp_Variant>
AV-unprocessed.smi:3032-7

> <Gold.Version>
5.8.1

> <Gold.Id.Protein>
6NUR|6NUR_protein|mol2

> <Gold.PLP.Fitness>
42.4883

> <Gold.PLP.PLP>
-36.9033

> <Gold.PLP.part.hbond>
-2.0000

> <Gold.PLP.part.metal>
0.0000

> <Gold.PLP.part.buried>
-5.2855

> <Gold.PLP.part.nonpolar>
-30.2057

> <Gold.PLP.part.repulsive>
0.4267

> <Gold.PLP.ligand.clash>
0.0000

> <Gold.PLP.ligand.torsion>
1.0085

> <Gold.PLP.Chemscore.Hbond>
1.5262

> <Gold.PLP.Chemscore.CHOScore>
0.9989

> <Gold.PLP.Chemscore.Metal>
0.0000

> <Gold.Chemscore.Hbonds>
donor molecule, donor type, donor heavy atom, donor atom, acceptor molecule, acceptor atom, score
      L1  H     9    29       P1  8028  0.82
      L1  H    14    37       P1 10175  0.90
      L1  C    15    34       P1  7948  0.84

> <Gold.PLP.Chemscore.Internal.Correction>
0.0266

> <Gold.Rescore>
     Score         DG    S(hbond)    S(metal)    S(lipo)     H(rot)  DE(clash)    DE(int)     intcor
     15.29     -16.17       1.70        0.00      92.11       2.25       0.09       0.79       ----

> <Gold.Chemscore.Fitness>
15.2899

> <Gold.Chemscore.DG>
-16.1750

> <Gold.Chemscore.ZeroCoef>
-5.4800

> <Gold.Chemscore.Hbond>
1.7002

> <Gold.Chemscore.Metal>
0.0000

> <Gold.Chemscore.Lipo>
92.1076

> <Gold.Chemscore.Internal_Hbond>
0.0000

> <Gold.Chemscore.DEClash>
0.0931

> <Gold.Chemscore.DEInternal>
0.7920

> <Gold.Chemscore.Rot>
2.2501

> <Gold.Chemscore.Internal.Correction>
   9.000000E+99

> <Gold.Chemscore.Hbonds>
donor molecule, donor type, donor heavy atom, donor atom, acceptor molecule, acceptor atom, score
      L1  H     9    29       P1  8028  0.79
      L1  H    14    37       P1 10175  0.88

> <Gold.Chemscore.Hbond.Weighted>
-5.6787

> <Gold.Chemscore.Metal.Weighted>
-0.0000

> <Gold.Chemscore.Lipo.Weighted>
-10.7766

> <Gold.Chemscore.Internal_Hbond.Weighted>
0.0000

> <Gold.Chemscore.DEClash.Weighted>
0.0931

> <Gold.Chemscore.DEInternal.Weighted>
0.7920

> <Gold.Chemscore.Rot.Weighted>
5.7603

> <Gold.Chemscore.Internal.Correction.Weighted>
   9.000000E+99

> <Gold.Protein.RotatedTorsions>
[ 6907 6896 6895 6894 ] final -159.16 input  -60.11 | X-H torsion
[ 7974 7965 7964 7962 ] final   -0.33 input  175.53 | X-H torsion
[ 8008 7997 7996 7995 ] final   41.34 input   59.86 | X-H torsion
[ 10167 10162 10161 10158 ] final   25.17 input  -65.29 | X-H torsion
[ 10718 10713 10712 10709 ] final  -14.12 input   66.30 | X-H torsion
[ 10763 10752 10751 10750 ] final -165.03 input  -60.55 | X-H torsion
[ 11005 11000 10999 10996 ] final  162.26 input  -57.11 | X-H torsion

> <Gold.Protein.ActiveResidues>
 VAL166  LYS551  ARG553  GLY616  TRP617  ASP618  TYR619  PRO620  LYS621  CYS622 
 ASP623  PHE694  ASN695  SER759  ASP760  ASP761  ALA762  ILE779  LEU786  VAL792 
 PHE793  MET794  SER795  GLU796  ALA797  LYS798  CYS799  TRP800  GLU811  SER814 

> <Gold.Protein.RotatedAtoms>
  151.3293  133.4007  159.2660 H   0  0  0  0  0  0  0  0  0  0  0  0  # atno 6907 bound_to 6896
  150.9969  134.9291  159.7942 H   0  0  0  0  0  0  0  0  0  0  0  0  # atno 6908 bound_to 6896
  152.5264  134.3258  159.9217 H   0  0  0  0  0  0  0  0  0  0  0  0  # atno 6909 bound_to 6896
  146.2428  140.1254  142.8339 H   0  0  0  0  0  0  0  0  0  0  0  0  # atno 7974 bound_to 7965
  155.2680  140.3364  155.4267 H   0  0  0  0  0  0  0  0  0  0  0  0  # atno 8008 bound_to 7997
  156.2145  140.1783  156.7661 H   0  0  0  0  0  0  0  0  0  0  0  0  # atno 8009 bound_to 7997
  154.5734  140.0666  156.8983 H   0  0  0  0  0  0  0  0  0  0  0  0  # atno 8010 bound_to 7997
  140.5128  144.0132  150.6380 H   0  0  0  0  0  0  0  0  0  0  0  0  # atno 10167 bound_to 10162
  156.6205  130.4874  149.6166 H   0  0  0  0  0  0  0  0  0  0  0  0  # atno 10718 bound_to 10713
  154.6971  135.2981  154.9395 H   0  0  0  0  0  0  0  0  0  0  0  0  # atno 10763 bound_to 10752
  154.0339  135.6666  153.4787 H   0  0  0  0  0  0  0  0  0  0  0  0  # atno 10764 bound_to 10752
  153.0654  135.5091  154.8095 H   0  0  0  0  0  0  0  0  0  0  0  0  # atno 10765 bound_to 10752
  140.2240  134.8175  157.3249 H   0  0  0  0  0  0  0  0  0  0  0  0  # atno 11005 bound_to 11000
  145.0371  140.8916  143.5074 LP  0  0  0  0  0  0  0  0  0  0  0  0  # atno 17320 bound_to 7965
  145.1328  139.2621  143.5530 LP  0  0  0  0  0  0  0  0  0  0  0  0  # atno 17321 bound_to 7965
  140.3459  143.2991  152.0538 LP  0  0  0  0  0  0  0  0  0  0  0  0  # atno 17342 bound_to 10162
  139.4901  144.6409  151.6880 LP  0  0  0  0  0  0  0  0  0  0  0  0  # atno 17343 bound_to 10162
  156.2315  130.6797  151.1468 LP  0  0  0  0  0  0  0  0  0  0  0  0  # atno 17370 bound_to 10713
  157.7229  131.0670  150.6059 LP  0  0  0  0  0  0  0  0  0  0  0  0  # atno 17371 bound_to 10713
  140.1820  134.4478  155.7766 LP  0  0  0  0  0  0  0  0  0  0  0  0  # atno 17394 bound_to 11000
  141.2221  133.6988  156.7884 LP  0  0  0  0  0  0  0  0  0  0  0  0  # atno 17395 bound_to 11000

$$$$
