AV-unprocessed.smi:2297|AV-procd|sdf|9223|dock10
  -GOLD-   2272012443D 1   1.00000     0.00000
 Structure written by MMmdl.
 44 45  0  0  0  0  0  0  0  0  1 V2000
  153.0855  143.1892  163.3197 C   0  0  0  0  0  0  0  0  0  0  0  0
  152.9647  143.0205  161.8189 C   0  0  0  0  0  0  0  0  0  0  0  0
  152.3123  143.9992  161.0429 C   0  0  0  0  0  0  0  0  0  0  0  0
  152.2050  143.8384  159.6479 C   0  0  0  0  0  0  0  0  0  0  0  0
  151.4996  144.8934  158.8204 C   0  0  0  0  0  0  0  0  0  0  0  0
  152.7537  142.6951  159.0314 C   0  0  0  0  0  0  0  0  0  0  0  0
  153.4083  141.7058  159.7935 C   0  0  0  0  0  0  0  0  0  0  0  0
  153.9142  140.6230  159.1071 O   0  0  0  0  0  0  0  0  0  0  0  0
  154.2630  139.4591  159.8455 C   0  0  0  0  0  0  0  0  0  0  0  0
  155.4008  138.7299  159.1144 C   0  0  1  0  0  0  0  0  0  0  0  0
  156.4103  139.6859  158.8607 O   0  0  0  0  0  0  0  0  0  0  0  0
  155.9957  137.5783  159.9569 C   0  0  0  0  0  0  0  0  0  0  0  0
  155.8148  137.7993  161.4013 N   0  0  0  0  0  0  0  0  0  0  0  0
  156.4398  138.9366  161.9402 C   0  0  0  0  0  0  0  0  0  0  0  0
  156.3475  139.2323  163.1954 N   0  0  0  0  0  0  0  0  0  0  0  0
  155.6069  138.4123  164.0514 C   0  0  0  0  0  0  0  0  0  0  0  0
  155.5641  138.8504  165.5046 C   0  0  0  0  0  0  0  0  0  0  0  0
  154.9719  137.2998  163.5913 C   0  0  0  0  0  0  0  0  0  0  0  0
  154.1523  136.3696  164.4770 C   0  0  0  0  0  0  0  0  0  0  0  0
  155.0668  136.9512  162.1643 C   0  0  0  0  0  0  0  0  0  0  0  0
  154.5131  135.9620  161.6810 O   0  0  0  0  0  0  0  0  0  0  0  0
  153.5097  141.8788  161.1969 C   0  0  0  0  0  0  0  0  0  0  0  0
  152.5624  144.0818  163.6641 H   0  0  0  0  0  0  0  0  0  0  0  0
  154.1339  143.2759  163.6067 H   0  0  0  0  0  0  0  0  0  0  0  0
  152.6593  142.3267  163.8330 H   0  0  0  0  0  0  0  0  0  0  0  0
  151.8926  144.8754  161.5161 H   0  0  0  0  0  0  0  0  0  0  0  0
  151.5539  144.6678  157.7550 H   0  0  0  0  0  0  0  0  0  0  0  0
  151.9551  145.8704  158.9843 H   0  0  0  0  0  0  0  0  0  0  0  0
  150.4482  144.9524  159.1029 H   0  0  0  0  0  0  0  0  0  0  0  0
  152.6730  142.5700  157.9614 H   0  0  0  0  0  0  0  0  0  0  0  0
  154.5962  139.7512  160.8430 H   0  0  0  0  0  0  0  0  0  0  0  0
  153.4011  138.7983  159.9551 H   0  0  0  0  0  0  0  0  0  0  0  0
  155.0251  138.3614  158.1589 H   0  0  0  0  0  0  0  0  0  0  0  0
  156.6754  140.0698  159.6824 H   0  0  0  0  0  0  0  0  0  0  0  0
  155.5897  136.6168  159.6373 H   0  0  0  0  0  0  0  0  0  0  0  0
  157.0646  137.4907  159.7516 H   0  0  0  0  0  0  0  0  0  0  0  0
  156.9975  139.5468  161.2275 H   0  0  0  0  0  0  0  0  0  0  0  0
  155.9927  138.0820  166.1485 H   0  0  0  0  0  0  0  0  0  0  0  0
  154.5361  139.0351  165.8172 H   0  0  0  0  0  0  0  0  0  0  0  0
  156.1299  139.7701  165.6589 H   0  0  0  0  0  0  0  0  0  0  0  0
  153.1249  136.3147  164.1156 H   0  0  0  0  0  0  0  0  0  0  0  0
  154.1169  136.6878  165.5175 H   0  0  0  0  0  0  0  0  0  0  0  0
  154.5728  135.3638  164.4561 H   0  0  0  0  0  0  0  0  0  0  0  0
  154.0050  141.1482  161.8184 H   0  0  0  0  0  0  0  0  0  0  0  0
  1  2  1  0  0  0  0
  1 23  1  0  0  0  0
  1 24  1  0  0  0  0
  1 25  1  0  0  0  0
  2 22  1  0  0  0  0
  2  3  2  0  0  0  0
  3  4  1  0  0  0  0
  3 26  1  0  0  0  0
  4  5  1  0  0  0  0
  4  6  2  0  0  0  0
  5 27  1  0  0  0  0
  5 28  1  0  0  0  0
  5 29  1  0  0  0  0
  6  7  1  0  0  0  0
  6 30  1  0  0  0  0
  7  8  1  0  0  0  0
  7 22  2  0  0  0  0
  8  9  1  0  0  0  0
  9 10  1  0  0  0  0
  9 31  1  0  0  0  0
  9 32  1  0  0  0  0
 10 11  1  0  0  0  0
 10 12  1  0  0  0  0
 10 33  1  0  0  0  0
 11 34  1  0  0  0  0
 12 13  1  0  0  0  0
 12 35  1  0  0  0  0
 12 36  1  0  0  0  0
 13 20  1  0  0  0  0
 13 14  1  0  0  0  0
 14 15  2  0  0  0  0
 14 37  1  0  0  0  0
 15 16  1  0  0  0  0
 16 17  1  0  0  0  0
 16 18  2  0  0  0  0
 17 38  1  0  0  0  0
 17 39  1  0  0  0  0
 17 40  1  0  0  0  0
 18 19  1  0  0  0  0
 18 20  1  0  0  0  0
 19 41  1  0  0  0  0
 19 42  1  0  0  0  0
 19 43  1  0  0  0  0
 20 21  2  0  0  0  0
 22 44  1  0  0  0  0
M  END
> <s_m_source_file>
AV-unprocessed.smi

> <i_m_source_file_index>
2297

> <i_lp_mmshare_version>
43012

> <i_f3d_flags>
0

> <s_epik_input>
W0NIM11jMVtjSF1jKFtDSDNdKVtjSF1jKFtjSF0xKU9bQ0gyXVtDQEhdKFtPSF0pW0NIMl1uMltjSF1uYyhbQ0gzXSljKFtDSDNdKWMyPU8=

> <s_epik_cmdline>
J2VwaWtfcHl0aG9uJywgJy1waCcsICc3LjAnLCAnLXRuJywgJzgnLCAnLW1hJywgJzIwMCcsICctbWV0YWxfYmluZGluZycsICctaW1hZScsICc8aW5maWxlLm1hZT4nLCAnLW9tYWUnLCAnPG91dGZpbGUubWFlPic=

> <r_lp_tautomer_probability>
1

> <r_epik_Ionization_Penalty>
3.72236e-05

> <r_epik_Ionization_Penalty_Charging>
8.38864e-08

> <r_epik_Ionization_Penalty_Neutral>
3.71397e-05

> <r_epik_State_Penalty>
-0

> <r_epik_Charging_Adjusted_Penalty>
8.38864e-08

> <i_epik_Tot_Q>
0

> <i_epik_Tot_abs_Q>
0

> <r_epik_Metal_State_Penalty>
-0

> <b_epik_Metal_Only>
0

> <s_lp_Force_Field>
OPLS_2005

> <r_lp_Energy>
22.4286

> <b_lp_Chiralities_Consistent>
1

> <s_lp_Variant>
AV-unprocessed.smi:2297-2

> <Gold.Version>
5.8.1

> <Gold.Id.Protein>
6NUR|6NUR_protein|mol2

> <Gold.PLP.Fitness>
49.1420

> <Gold.PLP.PLP>
-47.8760

> <Gold.PLP.part.hbond>
-1.8120

> <Gold.PLP.part.metal>
0.0000

> <Gold.PLP.part.buried>
-3.0460

> <Gold.PLP.part.nonpolar>
-42.0790

> <Gold.PLP.part.repulsive>
0.0000

> <Gold.PLP.ligand.clash>
0.0000

> <Gold.PLP.ligand.torsion>
0.8741

> <Gold.PLP.Chemscore.Hbond>
1.0000

> <Gold.PLP.Chemscore.CHOScore>
0.0000

> <Gold.PLP.Chemscore.Metal>
0.0000

> <Gold.Chemscore.Hbonds>
donor molecule, donor type, donor heavy atom, donor atom, acceptor molecule, acceptor atom, score
      P1  H  7997  8008       L1    11  0.75

> <Gold.PLP.Chemscore.Internal.Correction>
0.0143

> <Gold.Rescore>
     Score         DG    S(hbond)    S(metal)    S(lipo)     H(rot)  DE(clash)    DE(int)     intcor
     17.65     -18.77       0.94        0.00     137.47       2.32       0.07       1.05       ----

> <Gold.Chemscore.Fitness>
17.6543

> <Gold.Chemscore.DG>
-18.7665

> <Gold.Chemscore.ZeroCoef>
-5.4800

> <Gold.Chemscore.Hbond>
0.9435

> <Gold.Chemscore.Metal>
0.0000

> <Gold.Chemscore.Lipo>
137.4681

> <Gold.Chemscore.Internal_Hbond>
0.0000

> <Gold.Chemscore.DEClash>
0.0659

> <Gold.Chemscore.DEInternal>
1.0464

> <Gold.Chemscore.Rot>
2.3236

> <Gold.Chemscore.Internal.Correction>
   9.000000E+99

> <Gold.Chemscore.Hbonds>
donor molecule, donor type, donor heavy atom, donor atom, acceptor molecule, acceptor atom, score
      P1  H  7997  8008       L1    11  0.09

> <Gold.Chemscore.Hbond.Weighted>
-3.1511

> <Gold.Chemscore.Metal.Weighted>
-0.0000

> <Gold.Chemscore.Lipo.Weighted>
-16.0838

> <Gold.Chemscore.Internal_Hbond.Weighted>
0.0000

> <Gold.Chemscore.DEClash.Weighted>
0.0659

> <Gold.Chemscore.DEInternal.Weighted>
1.0464

> <Gold.Chemscore.Rot.Weighted>
5.9484

> <Gold.Chemscore.Internal.Correction.Weighted>
   9.000000E+99

> <Gold.Protein.RotatedTorsions>
[ 6907 6896 6895 6894 ] final  103.19 input  -60.11 | X-H torsion
[ 7974 7965 7964 7962 ] final   36.74 input  175.53 | X-H torsion
[ 8008 7997 7996 7995 ] final -164.52 input   59.86 | X-H torsion
[ 10167 10162 10161 10158 ] final  103.94 input  -65.29 | X-H torsion
[ 10718 10713 10712 10709 ] final   17.43 input   66.30 | X-H torsion
[ 10763 10752 10751 10750 ] final  157.44 input  -60.55 | X-H torsion
[ 11005 11000 10999 10996 ] final   60.91 input  -57.11 | X-H torsion

> <Gold.Protein.ActiveResidues>
 VAL166  LYS551  ARG553  GLY616  TRP617  ASP618  TYR619  PRO620  LYS621  CYS622 
 ASP623  PHE694  ASN695  SER759  ASP760  ASP761  ALA762  ILE779  LEU786  VAL792 
 PHE793  MET794  SER795  GLU796  ALA797  LYS798  CYS799  TRP800  GLU811  SER814 

> <Gold.Protein.RotatedAtoms>
  152.5303  133.9863  159.7829 H   0  0  0  0  0  0  0  0  0  0  0  0  # atno 6907 bound_to 6896
  151.0108  133.5959  159.2690 H   0  0  0  0  0  0  0  0  0  0  0  0  # atno 6908 bound_to 6896
  151.3035  135.0781  159.9300 H   0  0  0  0  0  0  0  0  0  0  0  0  # atno 6909 bound_to 6896
  146.1189  139.5980  142.9303 H   0  0  0  0  0  0  0  0  0  0  0  0  # atno 7974 bound_to 7965
  155.8368  140.0942  157.1759 H   0  0  0  0  0  0  0  0  0  0  0  0  # atno 8008 bound_to 7997
  154.3981  140.1408  156.3741 H   0  0  0  0  0  0  0  0  0  0  0  0  # atno 8009 bound_to 7997
  155.8107  140.3450  155.5458 H   0  0  0  0  0  0  0  0  0  0  0  0  # atno 8010 bound_to 7997
  139.7220  144.7056  151.0857 H   0  0  0  0  0  0  0  0  0  0  0  0  # atno 10167 bound_to 10162
  157.0820  130.6392  149.5829 H   0  0  0  0  0  0  0  0  0  0  0  0  # atno 10718 bound_to 10713
  154.2003  135.2790  155.2993 H   0  0  0  0  0  0  0  0  0  0  0  0  # atno 10763 bound_to 10752
  154.5859  135.5575  153.7234 H   0  0  0  0  0  0  0  0  0  0  0  0  # atno 10764 bound_to 10752
  153.0089  135.6356  154.2142 H   0  0  0  0  0  0  0  0  0  0  0  0  # atno 10765 bound_to 10752
  140.0198  134.6169  155.9656 H   0  0  0  0  0  0  0  0  0  0  0  0  # atno 11005 bound_to 11000
  145.5508  141.0413  143.2279 LP  0  0  0  0  0  0  0  0  0  0  0  0  # atno 17320 bound_to 7965
  144.7578  139.7030  143.7246 LP  0  0  0  0  0  0  0  0  0  0  0  0  # atno 17321 bound_to 7965
  140.7755  143.5154  150.9601 LP  0  0  0  0  0  0  0  0  0  0  0  0  # atno 17342 bound_to 10162
  139.8841  143.7035  152.3153 LP  0  0  0  0  0  0  0  0  0  0  0  0  # atno 17343 bound_to 10162
  155.9921  130.4978  150.7326 LP  0  0  0  0  0  0  0  0  0  0  0  0  # atno 17370 bound_to 10713
  157.4792  131.0901  151.0555 LP  0  0  0  0  0  0  0  0  0  0  0  0  # atno 17371 bound_to 10713
  141.1767  133.6541  156.4855 LP  0  0  0  0  0  0  0  0  0  0  0  0  # atno 17394 bound_to 11000
  140.4406  134.7019  157.4990 LP  0  0  0  0  0  0  0  0  0  0  0  0  # atno 17395 bound_to 11000

$$$$
