AV-unprocessed.smi:1740|AV-procd|sdf|7008|dock8
  -GOLD-   22720 8223D 1   1.00000     0.00000
 Structure written by MMmdl.
 52 54  0  0  0  0  0  0  0  0  2 V2000
  144.5940  135.7012  150.0751 N   0  0  0  0  0  0  0  0  0  0  0  0
  144.2483  135.0419  151.1829 C   0  0  0  0  0  0  0  0  0  0  0  0
  143.6413  135.5829  152.1054 O   0  0  0  0  0  0  0  0  0  0  0  0
  144.6258  133.5583  151.2507 C   0  0  0  0  0  0  0  0  0  0  0  0
  145.6474  133.2649  152.2889 N   0  3  2  0  0  0  0  0  0  0  0  0
  145.4376  134.0303  153.5473 C   0  0  0  0  0  0  0  0  0  0  0  0
  146.4304  133.5894  154.6378 C   0  0  0  0  0  0  0  0  0  0  0  0
  147.8930  133.7038  154.1668 C   0  0  2  0  0  0  0  0  0  0  0  0
  148.3126  135.0997  154.0462 N   0  0  0  0  0  0  0  0  0  0  0  0
  149.3209  135.6680  154.7227 C   0  0  0  0  0  0  0  0  0  0  0  0
  150.0137  135.0659  155.5422 O   0  0  0  0  0  0  0  0  0  0  0  0
  149.4696  136.9568  154.3736 N   0  0  0  0  0  0  0  0  0  0  0  0
  150.4699  137.8786  154.7948 C   0  0  0  0  0  0  0  0  0  0  0  0
  151.7274  137.4452  155.2829 C   0  0  0  0  0  0  0  0  0  0  0  0
  152.6527  138.3958  155.7466 C   0  0  0  0  0  0  0  0  0  0  0  0
  152.2827  139.7506  155.7224 C   0  0  0  0  0  0  0  0  0  0  0  0
  151.0854  140.1786  155.2752 N   0  0  0  0  0  0  0  0  0  0  0  0
  150.1875  139.2751  154.8109 C   0  0  0  0  0  0  0  0  0  0  0  0
  148.9541  139.7831  154.3415 N   0  0  0  0  0  0  0  0  0  0  0  0
  148.8596  141.2168  154.0813 C   0  0  0  0  0  0  0  0  0  0  0  0
  147.4443  141.6400  154.4892 C   0  0  0  0  0  0  0  0  0  0  0  0
  146.6543  140.3351  154.4623 C   0  0  0  0  0  0  0  0  0  0  0  0
  147.6961  139.3161  154.9145 C   0  0  0  0  0  0  0  0  0  0  0  0
  148.0679  132.9706  152.8259 C   0  0  0  0  0  0  0  0  0  0  0  0
  147.0333  133.4220  151.7789 C   0  0  0  0  0  0  0  0  0  0  0  0
  144.3603  136.6798  149.9816 H   0  0  0  0  0  0  0  0  0  0  0  0
  145.0808  135.2244  149.3299 H   0  0  0  0  0  0  0  0  0  0  0  0
  143.7073  133.0148  151.4761 H   0  0  0  0  0  0  0  0  0  0  0  0
  144.9685  133.2037  150.2771 H   0  0  0  0  0  0  0  0  0  0  0  0
  145.5449  135.0978  153.3490 H   0  0  0  0  0  0  0  0  0  0  0  0
  144.4210  133.8814  153.9123 H   0  0  0  0  0  0  0  0  0  0  0  0
  146.2734  134.1731  155.5457 H   0  0  0  0  0  0  0  0  0  0  0  0
  146.2223  132.5531  154.9076 H   0  0  0  0  0  0  0  0  0  0  0  0
  148.5373  133.2167  154.9013 H   0  0  0  0  0  0  0  0  0  0  0  0
  147.8061  135.6733  153.3880 H   0  0  0  0  0  0  0  0  0  0  0  0
  148.8708  137.2873  153.6312 H   0  0  0  0  0  0  0  0  0  0  0  0
  151.9904  136.4000  155.3322 H   0  0  0  0  0  0  0  0  0  0  0  0
  153.6178  138.0922  156.1242 H   0  0  0  0  0  0  0  0  0  0  0  0
  152.9625  140.5108  156.0777 H   0  0  0  0  0  0  0  0  0  0  0  0
  149.6169  141.7846  154.6239 H   0  0  0  0  0  0  0  0  0  0  0  0
  149.0050  141.3915  153.0150 H   0  0  0  0  0  0  0  0  0  0  0  0
  147.4590  142.0365  155.5052 H   0  0  0  0  0  0  0  0  0  0  0  0
  147.0259  142.4057  153.8354 H   0  0  0  0  0  0  0  0  0  0  0  0
  145.7722  140.3548  155.1027 H   0  0  0  0  0  0  0  0  0  0  0  0
  146.3320  140.1142  153.4437 H   0  0  0  0  0  0  0  0  0  0  0  0
  147.4533  138.3092  154.5744 H   0  0  0  0  0  0  0  0  0  0  0  0
  147.7446  139.3085  156.0041 H   0  0  0  0  0  0  0  0  0  0  0  0
  149.0788  133.1173  152.4430 H   0  0  0  0  0  0  0  0  0  0  0  0
  147.9606  131.8974  152.9901 H   0  0  0  0  0  0  0  0  0  0  0  0
  147.1620  132.8262  150.8745 H   0  0  0  0  0  0  0  0  0  0  0  0
  147.2034  134.4626  151.4981 H   0  0  0  0  0  0  0  0  0  0  0  0
  145.5378  132.2868  152.5180 H   0  0  0  0  0  0  0  0  0  0  0  0
  1  2  1  0  0  0  0
  1 26  1  0  0  0  0
  1 27  1  0  0  0  0
  2  3  2  0  0  0  0
  2  4  1  0  0  0  0
  4  5  1  0  0  0  0
  4 28  1  0  0  0  0
  4 29  1  0  0  0  0
  5 25  1  0  0  0  0
  5  6  1  0  0  0  0
  5 52  1  0  0  0  0
  6  7  1  0  0  0  0
  6 30  1  0  0  0  0
  6 31  1  0  0  0  0
  7  8  1  0  0  0  0
  7 32  1  0  0  0  0
  7 33  1  0  0  0  0
  8  9  1  0  0  0  0
  8 24  1  0  0  0  0
  8 34  1  0  0  0  0
  9 10  1  0  0  0  0
  9 35  1  0  0  0  0
 10 11  2  0  0  0  0
 10 12  1  0  0  0  0
 12 13  1  0  0  0  0
 12 36  1  0  0  0  0
 13 18  1  0  0  0  0
 13 14  2  0  0  0  0
 14 15  1  0  0  0  0
 14 37  1  0  0  0  0
 15 16  2  0  0  0  0
 15 38  1  0  0  0  0
 16 17  1  0  0  0  0
 16 39  1  0  0  0  0
 17 18  2  0  0  0  0
 18 19  1  0  0  0  0
 19 23  1  0  0  0  0
 19 20  1  0  0  0  0
 20 21  1  0  0  0  0
 20 40  1  0  0  0  0
 20 41  1  0  0  0  0
 21 22  1  0  0  0  0
 21 42  1  0  0  0  0
 21 43  1  0  0  0  0
 22 23  1  0  0  0  0
 22 44  1  0  0  0  0
 22 45  1  0  0  0  0
 23 46  1  0  0  0  0
 23 47  1  0  0  0  0
 24 25  1  0  0  0  0
 24 48  1  0  0  0  0
 24 49  1  0  0  0  0
 25 50  1  0  0  0  0
 25 51  1  0  0  0  0
M  CHG  1   5   1
M  END
> <s_m_source_file>
AV-unprocessed.smi

> <i_m_source_file_index>
1740

> <i_lp_mmshare_version>
43012

> <i_f3d_flags>
0

> <s_epik_input>
W05IMl1DKD1PKVtDSDJdTjFbQ0gyXVtDSDJdW0NIXShbQ0gyXVtDSDJdMSlbTkhdQyg9TylbTkhdYzJbY0hdW2NIXVtjSF1uYzJOM1tDSDJdW0NIMl1bQ0gyXVtDSDJdMw==

> <s_epik_cmdline>
J2VwaWtfcHl0aG9uJywgJy1waCcsICc3LjAnLCAnLXRuJywgJzgnLCAnLW1hJywgJzIwMCcsICctbWV0YWxfYmluZGluZycsICctaW1hZScsICc8aW5maWxlLm1hZT4nLCAnLW9tYWUnLCAnPG91dGZpbGUubWFlPic=

> <r_lp_tautomer_probability>
1

> <r_epik_Ionization_Penalty>
0.91661

> <r_epik_Ionization_Penalty_Charging>
0.838844

> <r_epik_Ionization_Penalty_Neutral>
0.0777664

> <r_epik_State_Penalty>
0.927046

> <r_epik_Charging_Adjusted_Penalty>
1.76589

> <i_epik_Tot_Q>
1

> <i_epik_Tot_abs_Q>
1

> <r_epik_Metal_State_Penalty>
0.950555

> <b_epik_Metal_Only>
0

> <s_lp_Force_Field>
OPLS_2005

> <r_lp_Energy>
41.6121

> <b_lp_Chiralities_Consistent>
1

> <s_lp_Variant>
AV-unprocessed.smi:1740-3

> <Gold.Version>
5.8.1

> <Gold.Id.Protein>
6NUR|6NUR_protein|mol2

> <Gold.PLP.Fitness>
45.7703

> <Gold.PLP.PLP>
-36.3172

> <Gold.PLP.part.hbond>
-4.9384

> <Gold.PLP.part.metal>
0.0000

> <Gold.PLP.part.buried>
-3.5614

> <Gold.PLP.part.nonpolar>
-29.7901

> <Gold.PLP.part.repulsive>
0.5108

> <Gold.PLP.ligand.clash>
0.0000

> <Gold.PLP.ligand.torsion>
0.6359

> <Gold.PLP.Chemscore.Hbond>
3.4580

> <Gold.PLP.Chemscore.CHOScore>
0.0000

> <Gold.PLP.Chemscore.Metal>
0.0000

> <Gold.Chemscore.Hbonds>
donor molecule, donor type, donor heavy atom, donor atom, acceptor molecule, acceptor atom, score
      L1  H     1    26       P1 10171  1.00
      L1  H     1    27       P1  7921  0.99
      L1  H     9    35       P1  7948  0.22
      L1  H    12    36       P1  7948  0.31
      P1  H  7989  7998       L1    17  0.81

> <Gold.PLP.Chemscore.Internal.Correction>
0.3509

> <Gold.Rescore>
     Score         DG    S(hbond)    S(metal)    S(lipo)     H(rot)  DE(clash)    DE(int)     intcor
     13.61     -17.76       2.75        0.00      74.63       2.19       0.69       3.46       ----

> <Gold.Chemscore.Fitness>
13.6064

> <Gold.Chemscore.DG>
-17.7650

> <Gold.Chemscore.ZeroCoef>
-5.4800

> <Gold.Chemscore.Hbond>
2.7454

> <Gold.Chemscore.Metal>
0.0000

> <Gold.Chemscore.Lipo>
74.6301

> <Gold.Chemscore.Internal_Hbond>
0.0000

> <Gold.Chemscore.DEClash>
0.6947

> <Gold.Chemscore.DEInternal>
3.4639

> <Gold.Chemscore.Rot>
2.1939

> <Gold.Chemscore.Internal.Correction>
   9.000000E+99

> <Gold.Chemscore.Hbonds>
donor molecule, donor type, donor heavy atom, donor atom, acceptor molecule, acceptor atom, score
      L1  H     1    26       P1 10171  0.99
      L1  H     1    27       P1  7921  0.92
      L1  H     9    35       P1  7948  0.22
      L1  H    12    36       P1  7948  0.29
      P1  H  7989  7998       L1    17  0.03

> <Gold.Chemscore.Hbond.Weighted>
-9.1696

> <Gold.Chemscore.Metal.Weighted>
-0.0000

> <Gold.Chemscore.Lipo.Weighted>
-8.7317

> <Gold.Chemscore.Internal_Hbond.Weighted>
0.0000

> <Gold.Chemscore.DEClash.Weighted>
0.6947

> <Gold.Chemscore.DEInternal.Weighted>
3.4639

> <Gold.Chemscore.Rot.Weighted>
5.6163

> <Gold.Chemscore.Internal.Correction.Weighted>
   9.000000E+99

> <Gold.Protein.RotatedTorsions>
[ 6907 6896 6895 6894 ] final   29.50 input  -60.11 | X-H torsion
[ 7974 7965 7964 7962 ] final  -25.40 input  175.53 | X-H torsion
[ 8008 7997 7996 7995 ] final   94.92 input   59.86 | X-H torsion
[ 10167 10162 10161 10158 ] final   41.56 input  -65.29 | X-H torsion
[ 10718 10713 10712 10709 ] final  144.32 input   66.30 | X-H torsion
[ 10763 10752 10751 10750 ] final  -75.65 input  -60.55 | X-H torsion
[ 11005 11000 10999 10996 ] final   69.54 input  -57.11 | X-H torsion

> <Gold.Protein.ActiveResidues>
 VAL166  LYS551  ARG553  GLY616  TRP617  ASP618  TYR619  PRO620  LYS621  CYS622 
 ASP623  PHE694  ASN695  SER759  ASP760  ASP761  ALA762  ILE779  LEU786  VAL792 
 PHE793  MET794  SER795  GLU796  ALA797  LYS798  CYS799  TRP800  GLU811  SER814 

> <Gold.Protein.RotatedAtoms>
  152.0325  134.9759  160.0572 H   0  0  0  0  0  0  0  0  0  0  0  0  # atno 6907 bound_to 6896
  152.1230  133.4359  159.4693 H   0  0  0  0  0  0  0  0  0  0  0  0  # atno 6908 bound_to 6896
  150.6850  134.2430  159.4523 H   0  0  0  0  0  0  0  0  0  0  0  0  # atno 6909 bound_to 6896
  146.1493  140.4881  142.8618 H   0  0  0  0  0  0  0  0  0  0  0  0  # atno 7974 bound_to 7965
  156.0633  140.3293  155.7487 H   0  0  0  0  0  0  0  0  0  0  0  0  # atno 8008 bound_to 7997
  155.5421  140.0602  157.2885 H   0  0  0  0  0  0  0  0  0  0  0  0  # atno 8009 bound_to 7997
  154.4492  140.1909  156.0590 H   0  0  0  0  0  0  0  0  0  0  0  0  # atno 8010 bound_to 7997
  140.3631  144.2203  150.6137 H   0  0  0  0  0  0  0  0  0  0  0  0  # atno 10167 bound_to 10162
  157.3585  131.0961  151.0936 H   0  0  0  0  0  0  0  0  0  0  0  0  # atno 10718 bound_to 10713
  154.4893  135.5824  153.6447 H   0  0  0  0  0  0  0  0  0  0  0  0  # atno 10763 bound_to 10752
  152.9860  135.6109  154.3145 H   0  0  0  0  0  0  0  0  0  0  0  0  # atno 10764 bound_to 10752
  154.3043  135.2846  155.2575 H   0  0  0  0  0  0  0  0  0  0  0  0  # atno 10765 bound_to 10752
  139.9648  134.6999  156.0569 H   0  0  0  0  0  0  0  0  0  0  0  0  # atno 11005 bound_to 11000
  144.7885  140.5984  143.6558 LP  0  0  0  0  0  0  0  0  0  0  0  0  # atno 17320 bound_to 7965
  145.4861  139.1492  143.3735 LP  0  0  0  0  0  0  0  0  0  0  0  0  # atno 17321 bound_to 7965
  140.5107  143.2291  151.8539 LP  0  0  0  0  0  0  0  0  0  0  0  0  # atno 17342 bound_to 10162
  139.4812  144.4952  151.9132 LP  0  0  0  0  0  0  0  0  0  0  0  0  # atno 17343 bound_to 10162
  157.2085  130.6427  149.5765 LP  0  0  0  0  0  0  0  0  0  0  0  0  # atno 17370 bound_to 10713
  155.9733  130.4667  150.6300 LP  0  0  0  0  0  0  0  0  0  0  0  0  # atno 17371 bound_to 10713
  141.1327  133.6582  156.3509 LP  0  0  0  0  0  0  0  0  0  0  0  0  # atno 17394 bound_to 11000
  140.5421  134.6110  157.5383 LP  0  0  0  0  0  0  0  0  0  0  0  0  # atno 17395 bound_to 11000

$$$$
