AV-unprocessed.smi:1933|AV-procd|sdf|7818|dock10
  -GOLD-   22720 9563D 1   1.00000     0.00000
 Structure written by MMmdl.
 47 49  0  0  0  0  0  0  0  0  1 V2000
  146.3653  133.5631  154.5695 O   0  0  0  0  0  0  0  0  0  0  0  0
  146.9217  134.3165  153.7699 C   0  0  0  0  0  0  0  0  0  0  0  0
  147.8835  135.1826  154.1208 N   0  0  0  0  0  0  0  0  0  0  0  0
  148.4039  135.3430  155.4750 C   0  0  0  0  0  0  0  0  0  0  0  0
  148.3003  136.8029  155.9948 C   0  0  1  0  0  0  0  0  0  0  0  0
  148.5218  136.9148  157.5313 C   0  0  1  0  0  0  0  0  0  0  0  0
  147.7498  136.0056  158.4690 C   0  0  0  0  0  0  0  0  0  0  0  0
  148.4912  136.2459  159.7800 C   0  0  0  0  0  0  0  0  0  0  0  0
  149.8548  136.4435  159.4124 O   0  0  0  0  0  0  0  0  0  0  0  0
  149.9560  136.6819  158.0094 C   0  0  0  0  0  0  0  0  0  0  0  0
  149.0282  137.7960  155.1807 N   0  0  0  0  0  0  0  0  0  0  0  0
  148.7948  139.1979  155.5385 C   0  0  0  0  0  0  0  0  0  0  0  0
  149.5175  140.1535  154.5748 C   0  0  0  0  0  0  0  0  0  0  0  0
  150.9123  139.8666  154.5826 O   0  0  0  0  0  0  0  0  0  0  0  0
  151.2002  138.5207  154.2167 C   0  0  0  0  0  0  0  0  0  0  0  0
  150.4696  137.5545  155.1655 C   0  0  0  0  0  0  0  0  0  0  0  0
  146.6601  134.3841  152.4525 N   0  0  0  0  0  0  0  0  0  0  0  0
  145.7288  133.6162  151.7031 C   0  0  0  0  0  0  0  0  0  0  0  0
  145.6534  132.2507  152.0598 C   0  0  0  0  0  0  0  0  0  0  0  0
  144.7557  131.4051  151.3795 C   0  0  0  0  0  0  0  0  0  0  0  0
  143.9559  131.9470  150.3578 C   0  0  0  0  0  0  0  0  0  0  0  0
  144.0941  133.3159  150.0634 C   0  0  0  0  0  0  0  0  0  0  0  0
  144.9532  134.1281  150.7146 N   0  0  0  0  0  0  0  0  0  0  0  0
  148.2872  135.7674  153.4039 H   0  0  0  0  0  0  0  0  0  0  0  0
  147.8417  134.6713  156.1239 H   0  0  0  0  0  0  0  0  0  0  0  0
  149.4369  134.9931  155.4960 H   0  0  0  0  0  0  0  0  0  0  0  0
  147.2455  137.0621  155.8951 H   0  0  0  0  0  0  0  0  0  0  0  0
  148.2766  137.9378  157.8207 H   0  0  0  0  0  0  0  0  0  0  0  0
  146.6866  136.2388  158.5285 H   0  0  0  0  0  0  0  0  0  0  0  0
  147.8689  134.9572  158.2077 H   0  0  0  0  0  0  0  0  0  0  0  0
  148.1241  137.1514  160.2650 H   0  0  0  0  0  0  0  0  0  0  0  0
  148.3820  135.4181  160.4810 H   0  0  0  0  0  0  0  0  0  0  0  0
  150.3921  135.7976  157.5432 H   0  0  0  0  0  0  0  0  0  0  0  0
  150.6067  137.5307  157.7974 H   0  0  0  0  0  0  0  0  0  0  0  0
  147.7374  139.4398  155.5510 H   0  0  0  0  0  0  0  0  0  0  0  0
  149.1603  139.3915  156.5476 H   0  0  0  0  0  0  0  0  0  0  0  0
  149.1216  140.0560  153.5628 H   0  0  0  0  0  0  0  0  0  0  0  0
  149.3655  141.1884  154.8815 H   0  0  0  0  0  0  0  0  0  0  0  0
  150.8978  138.3467  153.1830 H   0  0  0  0  0  0  0  0  0  0  0  0
  152.2771  138.3598  154.2669 H   0  0  0  0  0  0  0  0  0  0  0  0
  150.8788  137.6587  156.1707 H   0  0  0  0  0  0  0  0  0  0  0  0
  150.6732  136.5304  154.8510 H   0  0  0  0  0  0  0  0  0  0  0  0
  147.1946  135.0562  151.9225 H   0  0  0  0  0  0  0  0  0  0  0  0
  146.2750  131.8505  152.8476 H   0  0  0  0  0  0  0  0  0  0  0  0
  144.6825  130.3590  151.6378 H   0  0  0  0  0  0  0  0  0  0  0  0
  143.2553  131.3304  149.8143 H   0  0  0  0  0  0  0  0  0  0  0  0
  143.4991  133.7709  149.2853 H   0  0  0  0  0  0  0  0  0  0  0  0
  1  2  2  0  0  0  0
  2  3  1  0  0  0  0
  2 17  1  0  0  0  0
  3  4  1  0  0  0  0
  3 24  1  0  0  0  0
  4  5  1  0  0  0  0
  4 25  1  0  0  0  0
  4 26  1  0  0  0  0
  5  6  1  0  0  0  0
  5 11  1  0  0  0  0
  5 27  1  0  0  0  0
  6 10  1  0  0  0  0
  6  7  1  0  0  0  0
  6 28  1  0  0  0  0
  7  8  1  0  0  0  0
  7 29  1  0  0  0  0
  7 30  1  0  0  0  0
  8  9  1  0  0  0  0
  8 31  1  0  0  0  0
  8 32  1  0  0  0  0
  9 10  1  0  0  0  0
 10 33  1  0  0  0  0
 10 34  1  0  0  0  0
 11 16  1  0  0  0  0
 11 12  1  0  0  0  0
 12 13  1  0  0  0  0
 12 35  1  0  0  0  0
 12 36  1  0  0  0  0
 13 14  1  0  0  0  0
 13 37  1  0  0  0  0
 13 38  1  0  0  0  0
 14 15  1  0  0  0  0
 15 16  1  0  0  0  0
 15 39  1  0  0  0  0
 15 40  1  0  0  0  0
 16 41  1  0  0  0  0
 16 42  1  0  0  0  0
 17 18  1  0  0  0  0
 17 43  1  0  0  0  0
 18 23  1  0  0  0  0
 18 19  2  0  0  0  0
 19 20  1  0  0  0  0
 19 44  1  0  0  0  0
 20 21  2  0  0  0  0
 20 45  1  0  0  0  0
 21 22  1  0  0  0  0
 21 46  1  0  0  0  0
 22 23  2  0  0  0  0
 22 47  1  0  0  0  0
M  END
> <s_m_source_file>
AV-unprocessed.smi

> <i_m_source_file_index>
1933

> <i_lp_mmshare_version>
43012

> <i_f3d_flags>
0

> <s_epik_input>
bjFbY0hdW2NIXVtjSF1bY0hdYzFbTkhdQyg9TylbTkhdW0NIMl1bQ0BIXShbQ0BASF0yW0NIMl1bQ0gyXU9bQ0gyXTIpTjNbQ0gyXVtDSDJdT1tDSDJdW0NIMl0z

> <s_epik_cmdline>
J2VwaWtfcHl0aG9uJywgJy1waCcsICc3LjAnLCAnLXRuJywgJzgnLCAnLW1hJywgJzIwMCcsICctbWV0YWxfYmluZGluZycsICctaW1hZScsICc8aW5maWxlLm1hZT4nLCAnLW9tYWUnLCAnPG91dGZpbGUubWFlPic=

> <r_epik_Ionization_Penalty>
0.125062

> <r_epik_Ionization_Penalty_Charging>
0

> <r_epik_Ionization_Penalty_Neutral>
0.125062

> <r_epik_State_Penalty>
0.114484

> <r_epik_Charging_Adjusted_Penalty>
0.114484

> <i_epik_Tot_Q>
0

> <i_epik_Tot_abs_Q>
0

> <r_epik_Metal_State_Penalty>
0.114484

> <b_epik_Metal_Only>
0

> <s_lp_Force_Field>
OPLS_2005

> <r_lp_Energy>
56.0331

> <b_lp_Chiralities_Consistent>
1

> <s_lp_Variant>
AV-unprocessed.smi:1933-4

> <Gold.Version>
5.8.1

> <Gold.Id.Protein>
6NUR|6NUR_protein|mol2

> <Gold.PLP.Fitness>
44.2096

> <Gold.PLP.PLP>
-30.3284

> <Gold.PLP.part.hbond>
-4.0000

> <Gold.PLP.part.metal>
0.0000

> <Gold.PLP.part.buried>
-6.9550

> <Gold.PLP.part.nonpolar>
-20.1438

> <Gold.PLP.part.repulsive>
0.4199

> <Gold.PLP.ligand.clash>
0.0000

> <Gold.PLP.ligand.torsion>
0.4820

> <Gold.PLP.Chemscore.Hbond>
3.9120

> <Gold.PLP.Chemscore.CHOScore>
0.9463

> <Gold.PLP.Chemscore.Metal>
0.0000

> <Gold.Chemscore.Hbonds>
donor molecule, donor type, donor heavy atom, donor atom, acceptor molecule, acceptor atom, score
      L1  H     3    24       P1  7948  1.00
      L1  H    17    43       P1  7948  0.83
      P1  H  6896  6907       L1     9  1.00
      P1  H  7989  7998       L1    14  1.00
      L1  C    22    47       P1 10186  0.77

> <Gold.PLP.Chemscore.Internal.Correction>
0.2704

> <Gold.Rescore>
     Score         DG    S(hbond)    S(metal)    S(lipo)     H(rot)  DE(clash)    DE(int)     intcor
     17.96     -19.72       3.00        0.00      73.66       1.72       0.02       1.75       ----

> <Gold.Chemscore.Fitness>
17.9555

> <Gold.Chemscore.DG>
-19.7212

> <Gold.Chemscore.ZeroCoef>
-5.4800

> <Gold.Chemscore.Hbond>
2.9988

> <Gold.Chemscore.Metal>
0.0000

> <Gold.Chemscore.Lipo>
73.6621

> <Gold.Chemscore.Internal_Hbond>
0.0000

> <Gold.Chemscore.DEClash>
0.0202

> <Gold.Chemscore.DEInternal>
1.7455

> <Gold.Chemscore.Rot>
1.7161

> <Gold.Chemscore.Internal.Correction>
   9.000000E+99

> <Gold.Chemscore.Hbonds>
donor molecule, donor type, donor heavy atom, donor atom, acceptor molecule, acceptor atom, score
      L1  H     3    24       P1  7948  0.99
      L1  H    17    43       P1  7948  0.74
      P1  H  6896  6907       L1     9  0.53
      P1  H  7989  7998       L1    14  0.42

> <Gold.Chemscore.Hbond.Weighted>
-10.0160

> <Gold.Chemscore.Metal.Weighted>
-0.0000

> <Gold.Chemscore.Lipo.Weighted>
-8.6185

> <Gold.Chemscore.Internal_Hbond.Weighted>
0.0000

> <Gold.Chemscore.DEClash.Weighted>
0.0202

> <Gold.Chemscore.DEInternal.Weighted>
1.7455

> <Gold.Chemscore.Rot.Weighted>
4.3932

> <Gold.Chemscore.Internal.Correction.Weighted>
   9.000000E+99

> <Gold.Protein.RotatedTorsions>
[ 6907 6896 6895 6894 ] final  -37.68 input  -60.11 | X-H torsion
[ 7974 7965 7964 7962 ] final  -78.43 input  175.53 | X-H torsion
[ 8008 7997 7996 7995 ] final  -23.55 input   59.86 | X-H torsion
[ 10167 10162 10161 10158 ] final  141.42 input  -65.29 | X-H torsion
[ 10718 10713 10712 10709 ] final -170.90 input   66.30 | X-H torsion
[ 10763 10752 10751 10750 ] final -133.37 input  -60.55 | X-H torsion
[ 11005 11000 10999 10996 ] final  150.14 input  -57.11 | X-H torsion

> <Gold.Protein.ActiveResidues>
 VAL166  LYS551  ARG553  GLY616  TRP617  ASP618  TYR619  PRO620  LYS621  CYS622 
 ASP623  PHE694  ASN695  SER759  ASP760  ASP761  ALA762  ILE779  LEU786  VAL792 
 PHE793  MET794  SER795  GLU796  ALA797  LYS798  CYS799  TRP800  GLU811  SER814 

> <Gold.Protein.RotatedAtoms>
  151.0117  134.9401  159.8010 H   0  0  0  0  0  0  0  0  0  0  0  0  # atno 6907 bound_to 6896
  152.5304  134.3020  159.9092 H   0  0  0  0  0  0  0  0  0  0  0  0  # atno 6908 bound_to 6896
  151.3026  133.4074  159.2675 H   0  0  0  0  0  0  0  0  0  0  0  0  # atno 6909 bound_to 6896
  145.5865  140.9438  143.1315 H   0  0  0  0  0  0  0  0  0  0  0  0  # atno 7974 bound_to 7965
  154.4579  140.1977  156.0327 H   0  0  0  0  0  0  0  0  0  0  0  0  # atno 8008 bound_to 7997
  156.0782  140.3275  155.7633 H   0  0  0  0  0  0  0  0  0  0  0  0  # atno 8009 bound_to 7997
  155.5154  140.0565  157.2907 H   0  0  0  0  0  0  0  0  0  0  0  0  # atno 8010 bound_to 7997
  139.5021  144.6172  151.6136 H   0  0  0  0  0  0  0  0  0  0  0  0  # atno 10167 bound_to 10162
  156.7330  130.9313  151.3105 H   0  0  0  0  0  0  0  0  0  0  0  0  # atno 10718 bound_to 10713
  154.8733  135.3768  154.4562 H   0  0  0  0  0  0  0  0  0  0  0  0  # atno 10763 bound_to 10752
  153.5234  135.7028  153.5725 H   0  0  0  0  0  0  0  0  0  0  0  0  # atno 10764 bound_to 10752
  153.3962  135.3960  155.1922 H   0  0  0  0  0  0  0  0  0  0  0  0  # atno 10765 bound_to 10752
  140.1105  134.8927  157.1930 H   0  0  0  0  0  0  0  0  0  0  0  0  # atno 11005 bound_to 11000
  144.7370  139.7556  143.7325 LP  0  0  0  0  0  0  0  0  0  0  0  0  # atno 17320 bound_to 7965
  146.1678  139.4816  142.9947 LP  0  0  0  0  0  0  0  0  0  0  0  0  # atno 17321 bound_to 7965
  140.5864  143.9857  150.6298 LP  0  0  0  0  0  0  0  0  0  0  0  0  # atno 17342 bound_to 10162
  140.3023  143.3252  152.0960 LP  0  0  0  0  0  0  0  0  0  0  0  0  # atno 17343 bound_to 10162
  157.6851  130.9177  150.0365 LP  0  0  0  0  0  0  0  0  0  0  0  0  # atno 17370 bound_to 10713
  156.1516  130.3642  149.9430 LP  0  0  0  0  0  0  0  0  0  0  0  0  # atno 17371 bound_to 10713
  140.3097  134.3038  155.7270 LP  0  0  0  0  0  0  0  0  0  0  0  0  # atno 17394 bound_to 11000
  141.2129  133.7642  156.9759 LP  0  0  0  0  0  0  0  0  0  0  0  0  # atno 17395 bound_to 11000

$$$$
