AV-unprocessed.smi:73|AV-procd|sdf|761|dock3
  -GOLD-   2262017103D 1   1.00000     0.00000
 Structure written by MMmdl.
 35 36  0  0  0  0  0  0  0  0  2 V2000
  151.9867  139.1154  156.9712 C   0  0  0  0  0  0  0  0  0  0  0  0
  151.8198  140.2018  155.8977 C   0  0  0  0  0  0  0  0  0  0  0  0
  150.4909  140.8362  155.7907 N   0  0  0  0  0  0  0  0  0  0  0  0
  150.0447  141.3669  157.0934 C   0  0  0  0  0  0  0  0  0  0  0  0
  151.0622  142.1779  157.8287 C   0  0  0  0  0  0  0  0  0  0  0  0
  152.2094  141.7485  158.3590 N   0  0  0  0  0  0  0  0  0  0  0  0
  152.7954  142.8562  158.9303 N   0  0  0  0  0  0  0  0  0  0  0  0
  151.9528  143.8680  158.7087 C   0  0  0  0  0  0  0  0  0  0  0  0
  152.1141  145.2899  159.1227 C   0  0  0  0  0  0  0  0  0  0  0  0
  150.8375  143.5034  158.0255 O   0  0  0  0  0  0  0  0  0  0  0  0
  149.5033  139.8788  155.2485 C   0  0  2  0  0  0  0  0  0  0  0  0
  150.0461  138.8911  154.1863 C   0  0  0  0  0  0  0  0  0  0  0  0
  148.9905  138.6736  153.1787 N   0  3  0  0  0  0  0  0  0  0  0  0
  147.7843  139.3892  153.6159 C   0  0  0  0  0  0  0  0  0  0  0  0
  148.2926  140.5074  154.5215 C   0  0  2  0  0  0  0  0  0  0  0  0
  148.6782  141.5979  153.7024 O   0  0  0  0  0  0  0  0  0  0  0  0
  147.5137  140.8360  155.2104 H   0  0  0  0  0  0  0  0  0  0  0  0
  153.0431  138.8920  157.1217 H   0  0  0  0  0  0  0  0  0  0  0  0
  151.5089  138.1785  156.6894 H   0  0  0  0  0  0  0  0  0  0  0  0
  151.5793  139.4377  157.9300 H   0  0  0  0  0  0  0  0  0  0  0  0
  152.5662  140.9557  156.1414 H   0  0  0  0  0  0  0  0  0  0  0  0
  152.1201  139.8024  154.9276 H   0  0  0  0  0  0  0  0  0  0  0  0
  149.1896  142.0285  156.9729 H   0  0  0  0  0  0  0  0  0  0  0  0
  149.7023  140.5538  157.7353 H   0  0  0  0  0  0  0  0  0  0  0  0
  153.1103  145.4554  159.5338 H   0  0  0  0  0  0  0  0  0  0  0  0
  151.3743  145.5435  159.8822 H   0  0  0  0  0  0  0  0  0  0  0  0
  151.9769  145.9470  158.2636 H   0  0  0  0  0  0  0  0  0  0  0  0
  149.1072  139.2803  156.0710 H   0  0  0  0  0  0  0  0  0  0  0  0
  150.9127  139.3016  153.6663 H   0  0  0  0  0  0  0  0  0  0  0  0
  150.3436  137.9437  154.6369 H   0  0  0  0  0  0  0  0  0  0  0  0
  149.3025  139.0777  152.3071 H   0  0  0  0  0  0  0  0  0  0  0  0
  147.1887  139.7432  152.7735 H   0  0  0  0  0  0  0  0  0  0  0  0
  147.1696  138.6977  154.1936 H   0  0  0  0  0  0  0  0  0  0  0  0
  148.1368  142.3427  153.9178 H   0  0  0  0  0  0  0  0  0  0  0  0
  148.8001  137.6902  153.0498 H   0  0  0  0  0  0  0  0  0  0  0  0
  1  2  1  0  0  0  0
  1 18  1  0  0  0  0
  1 19  1  0  0  0  0
  1 20  1  0  0  0  0
  2  3  1  0  0  0  0
  2 21  1  0  0  0  0
  2 22  1  0  0  0  0
  3  4  1  0  0  0  0
  3 11  1  0  0  0  0
  4  5  1  0  0  0  0
  4 23  1  0  0  0  0
  4 24  1  0  0  0  0
  5 10  1  0  0  0  0
  5  6  2  0  0  0  0
  6  7  1  0  0  0  0
  7  8  2  0  0  0  0
  8  9  1  0  0  0  0
  8 10  1  0  0  0  0
  9 25  1  0  0  0  0
  9 26  1  0  0  0  0
  9 27  1  0  0  0  0
 11 15  1  0  0  0  0
 11 12  1  0  0  0  0
 11 28  1  0  0  0  0
 12 13  1  0  0  0  0
 12 29  1  0  0  0  0
 12 30  1  0  0  0  0
 13 14  1  0  0  0  0
 13 31  1  0  0  0  0
 13 35  1  0  0  0  0
 14 15  1  0  0  0  0
 14 32  1  0  0  0  0
 14 33  1  0  0  0  0
 15 17  1  0  0  0  0
 15 16  1  0  0  0  0
 16 34  1  0  0  0  0
M  CHG  1  13   1
M  END
> <s_m_source_file>
AV-unprocessed.smi

> <i_m_source_file_index>
73

> <i_lp_mmshare_version>
43012

> <i_f3d_flags>
0

> <s_epik_input>
W09IXVtDQEBIXTFbQ0gyXVtOSF1bQ0gyXVtDQEhdMU4oW0NIMl1bQ0gzXSlbQ0gyXWMybm5jKG8yKVtDSDNd

> <s_epik_cmdline>
J2VwaWtfcHl0aG9uJywgJy1waCcsICc3LjAnLCAnLXRuJywgJzgnLCAnLW1hJywgJzIwMCcsICctbWV0YWxfYmluZGluZycsICctaW1hZScsICc8aW5maWxlLm1hZT4nLCAnLW9tYWUnLCAnPG91dGZpbGUubWFlPic=

> <r_lp_tautomer_probability>
1

> <r_epik_Ionization_Penalty>
0.00160433

> <r_epik_Ionization_Penalty_Charging>
0.000122314

> <r_epik_Ionization_Penalty_Neutral>
0.00148202

> <r_epik_State_Penalty>
-0

> <r_epik_Charging_Adjusted_Penalty>
0.000122314

> <i_epik_Tot_Q>
1

> <i_epik_Tot_abs_Q>
1

> <r_epik_Metal_State_Penalty>
-0

> <b_epik_Metal_Only>
0

> <s_lp_Force_Field>
OPLS_2005

> <r_lp_Energy>
44.8829

> <b_lp_Chiralities_Consistent>
1

> <s_lp_Variant>
AV-unprocessed.smi:73-3

> <Gold.Version>
5.8.1

> <Gold.Id.Protein>
6NUR|6NUR_protein|mol2

> <Gold.PLP.Fitness>
38.8819

> <Gold.PLP.PLP>
-30.0269

> <Gold.PLP.part.hbond>
-3.6096

> <Gold.PLP.part.metal>
0.0000

> <Gold.PLP.part.buried>
-5.1687

> <Gold.PLP.part.nonpolar>
-22.4728

> <Gold.PLP.part.repulsive>
0.2852

> <Gold.PLP.ligand.clash>
0.0000

> <Gold.PLP.ligand.torsion>
0.6255

> <Gold.PLP.Chemscore.Hbond>
3.3572

> <Gold.PLP.Chemscore.CHOScore>
0.0000

> <Gold.PLP.Chemscore.Metal>
0.0000

> <Gold.Chemscore.Hbonds>
donor molecule, donor type, donor heavy atom, donor atom, acceptor molecule, acceptor atom, score
      L1  H    13    31       P1  7957  0.96
      L1  H    13    35       P1  7948  1.73
      P1  H  8011  8017       L1    16  0.60

> <Gold.PLP.Chemscore.Internal.Correction>
0.0345

> <Gold.Rescore>
     Score         DG    S(hbond)    S(metal)    S(lipo)     H(rot)  DE(clash)    DE(int)     intcor
     10.72     -12.33       1.99        0.00      56.52       2.51       0.01       1.60       ----

> <Gold.Chemscore.Fitness>
10.7191

> <Gold.Chemscore.DG>
-12.3289

> <Gold.Chemscore.ZeroCoef>
-5.4800

> <Gold.Chemscore.Hbond>
1.9908

> <Gold.Chemscore.Metal>
0.0000

> <Gold.Chemscore.Lipo>
56.5176

> <Gold.Chemscore.Internal_Hbond>
0.0000

> <Gold.Chemscore.DEClash>
0.0143

> <Gold.Chemscore.DEInternal>
1.5955

> <Gold.Chemscore.Rot>
2.5051

> <Gold.Chemscore.Internal.Correction>
   9.000000E+99

> <Gold.Chemscore.Hbonds>
donor molecule, donor type, donor heavy atom, donor atom, acceptor molecule, acceptor atom, score
      L1  H    13    31       P1  7957  0.86
      L1  H    13    35       P1  7948  0.86
      P1  H  8011  8017       L1    16  0.12

> <Gold.Chemscore.Hbond.Weighted>
-6.6494

> <Gold.Chemscore.Metal.Weighted>
-0.0000

> <Gold.Chemscore.Lipo.Weighted>
-6.6126

> <Gold.Chemscore.Internal_Hbond.Weighted>
0.0000

> <Gold.Chemscore.DEClash.Weighted>
0.0143

> <Gold.Chemscore.DEInternal.Weighted>
1.5955

> <Gold.Chemscore.Rot.Weighted>
6.4131

> <Gold.Chemscore.Internal.Correction.Weighted>
   9.000000E+99

> <Gold.Protein.RotatedTorsions>
[ 6907 6896 6895 6894 ] final -167.11 input  -60.11 | X-H torsion
[ 7974 7965 7964 7962 ] final -131.46 input  175.53 | X-H torsion
[ 8008 7997 7996 7995 ] final   23.60 input   59.86 | X-H torsion
[ 10167 10162 10161 10158 ] final  121.30 input  -65.29 | X-H torsion
[ 10718 10713 10712 10709 ] final   62.04 input   66.30 | X-H torsion
[ 10763 10752 10751 10750 ] final -104.31 input  -60.55 | X-H torsion
[ 11005 11000 10999 10996 ] final -116.18 input  -57.11 | X-H torsion

> <Gold.Protein.ActiveResidues>
 VAL166  LYS551  ARG553  GLY616  TRP617  ASP618  TYR619  PRO620  LYS621  CYS622 
 ASP623  PHE694  ASN695  SER759  ASP760  ASP761  ALA762  ILE779  LEU786  VAL792 
 PHE793  MET794  SER795  GLU796  ALA797  LYS798  CYS799  TRP800  GLU811  SER814 

> <Gold.Protein.RotatedAtoms>
  151.4543  133.3609  159.2799 H   0  0  0  0  0  0  0  0  0  0  0  0  # atno 6907 bound_to 6896
  150.9069  134.8486  159.7410 H   0  0  0  0  0  0  0  0  0  0  0  0  # atno 6908 bound_to 6896
  152.4911  134.4469  159.9613 H   0  0  0  0  0  0  0  0  0  0  0  0  # atno 6909 bound_to 6896
  144.9377  140.7203  143.4866 H   0  0  0  0  0  0  0  0  0  0  0  0  # atno 7974 bound_to 7965
  154.9834  140.3105  155.4936 H   0  0  0  0  0  0  0  0  0  0  0  0  # atno 8008 bound_to 7997
  156.2950  140.2262  156.4874 H   0  0  0  0  0  0  0  0  0  0  0  0  # atno 8009 bound_to 7997
  154.7768  140.0448  157.1084 H   0  0  0  0  0  0  0  0  0  0  0  0  # atno 8010 bound_to 7997
  139.5928  144.7031  151.3249 H   0  0  0  0  0  0  0  0  0  0  0  0  # atno 10167 bound_to 10162
  157.5872  130.9028  149.9537 H   0  0  0  0  0  0  0  0  0  0  0  0  # atno 10718 bound_to 10713
  154.7869  135.4791  153.9966 H   0  0  0  0  0  0  0  0  0  0  0  0  # atno 10763 bound_to 10752
  153.1573  135.6802  153.8800 H   0  0  0  0  0  0  0  0  0  0  0  0  # atno 10764 bound_to 10752
  153.8425  135.3177  155.3405 H   0  0  0  0  0  0  0  0  0  0  0  0  # atno 10765 bound_to 10752
  141.0439  133.9793  157.2949 H   0  0  0  0  0  0  0  0  0  0  0  0  # atno 11005 bound_to 11000
  145.3040  139.1840  143.4674 LP  0  0  0  0  0  0  0  0  0  0  0  0  # atno 17320 bound_to 7965
  146.3273  140.3036  142.8622 LP  0  0  0  0  0  0  0  0  0  0  0  0  # atno 17321 bound_to 7965
  140.7187  143.7195  150.7706 LP  0  0  0  0  0  0  0  0  0  0  0  0  # atno 17342 bound_to 10162
  140.0755  143.5019  152.2558 LP  0  0  0  0  0  0  0  0  0  0  0  0  # atno 17343 bound_to 10162
  156.0922  130.3662  150.0373 LP  0  0  0  0  0  0  0  0  0  0  0  0  # atno 17370 bound_to 10713
  156.8502  130.9456  151.3626 LP  0  0  0  0  0  0  0  0  0  0  0  0  # atno 17371 bound_to 10713
  139.9297  135.0200  156.8357 LP  0  0  0  0  0  0  0  0  0  0  0  0  # atno 17394 bound_to 11000
  140.6183  134.0018  155.7607 LP  0  0  0  0  0  0  0  0  0  0  0  0  # atno 17395 bound_to 11000

$$$$
