AV-unprocessed.smi:3124|AV-procd|sdf|11905|dock7
  -GOLD-   2272017293D 1   1.00000     0.00000
 Structure written by MMmdl.
 24 24  0  0  0  0  0  0  0  0  2 V2000
  139.9733  136.7929  153.8153 C   0  0  0  0  0  0  0  0  0  0  0  0
  141.1534  135.9194  153.5048 C   0  0  0  0  0  0  0  0  0  0  0  0
  142.3320  136.2582  152.7779 C   0  0  0  0  0  0  0  0  0  0  0  0
  143.0773  135.1103  152.7818 C   0  0  0  0  0  0  0  0  0  0  0  0
  144.4215  134.7766  152.2105 C   0  0  0  0  0  0  0  0  0  0  0  0
  144.3930  133.8664  150.9664 C   0  0  1  0  0  0  0  0  0  0  0  0
  143.5723  132.5935  151.2149 C   0  0  0  0  0  0  0  0  0  0  0  0
  143.8624  134.5899  149.7957 N   0  3  0  0  0  0  0  0  0  0  0  0
  142.3437  134.1859  153.4901 N   0  0  0  0  0  0  0  0  0  0  0  0
  141.1658  134.6655  153.9294 N   0  0  0  0  0  0  0  0  0  0  0  0
  142.6292  133.2351  153.6784 H   0  0  0  0  0  0  0  0  0  0  0  0
  140.2335  137.8484  153.7349 H   0  0  0  0  0  0  0  0  0  0  0  0
  139.6059  136.6204  154.8275 H   0  0  0  0  0  0  0  0  0  0  0  0
  139.1521  136.5994  153.1248 H   0  0  0  0  0  0  0  0  0  0  0  0
  142.5863  137.2055  152.3259 H   0  0  0  0  0  0  0  0  0  0  0  0
  144.9229  135.7104  151.9538 H   0  0  0  0  0  0  0  0  0  0  0  0
  145.0365  134.3138  152.9839 H   0  0  0  0  0  0  0  0  0  0  0  0
  145.4135  133.5634  150.7287 H   0  0  0  0  0  0  0  0  0  0  0  0
  143.9775  132.0222  152.0507 H   0  0  0  0  0  0  0  0  0  0  0  0
  143.5797  131.9425  150.3400 H   0  0  0  0  0  0  0  0  0  0  0  0
  142.5328  132.8285  151.4467 H   0  0  0  0  0  0  0  0  0  0  0  0
  143.7897  135.5742  150.0099 H   0  0  0  0  0  0  0  0  0  0  0  0
  142.9491  134.2285  149.5601 H   0  0  0  0  0  0  0  0  0  0  0  0
  144.4867  134.4629  149.0115 H   0  0  0  0  0  0  0  0  0  0  0  0
  1  2  1  0  0  0  0
  1 12  1  0  0  0  0
  1 13  1  0  0  0  0
  1 14  1  0  0  0  0
  2 10  2  0  0  0  0
  2  3  1  0  0  0  0
  3  4  2  0  0  0  0
  3 15  1  0  0  0  0
  4  5  1  0  0  0  0
  4  9  1  0  0  0  0
  5  6  1  0  0  0  0
  5 16  1  0  0  0  0
  5 17  1  0  0  0  0
  6  7  1  0  0  0  0
  6  8  1  0  0  0  0
  6 18  1  0  0  0  0
  7 19  1  0  0  0  0
  7 20  1  0  0  0  0
  7 21  1  0  0  0  0
  8 22  1  0  0  0  0
  8 23  1  0  0  0  0
  8 24  1  0  0  0  0
  9 11  1  0  0  0  0
  9 10  1  0  0  0  0
M  CHG  1   8   1
M  END
> <s_m_source_file>
AV-unprocessed.smi

> <i_m_source_file_index>
3124

> <i_lp_mmshare_version>
43012

> <i_f3d_flags>
0

> <s_epik_input>
W0NIM11jMVtjSF1jKFtuSF1uMSlbQ0gyXVtDQEhdKFtDSDNdKVtOSDJd

> <s_epik_cmdline>
J2VwaWtfcHl0aG9uJywgJy1waCcsICc3LjAnLCAnLXRuJywgJzgnLCAnLW1hJywgJzIwMCcsICctbWV0YWxfYmluZGluZycsICctaW1hZScsICc8aW5maWxlLm1hZT4nLCAnLW9tYWUnLCAnPG91dGZpbGUubWFlPic=

> <r_lp_tautomer_probability>
0.5

> <r_epik_Ionization_Penalty>
0.00227197

> <r_epik_Ionization_Penalty_Charging>
0.00223142

> <r_epik_Ionization_Penalty_Neutral>
4.05538e-05

> <r_epik_State_Penalty>
0.446108

> <r_epik_Charging_Adjusted_Penalty>
0.448339

> <i_epik_Tot_Q>
1

> <i_epik_Tot_abs_Q>
1

> <r_epik_Metal_State_Penalty>
0.444886

> <b_epik_Metal_Only>
0

> <s_lp_Force_Field>
OPLS_2005

> <r_lp_Energy>
4.61405

> <b_lp_Chiralities_Consistent>
1

> <s_lp_Variant>
AV-unprocessed.smi:3124-4

> <Gold.Version>
5.8.1

> <Gold.Id.Protein>
6NUR|6NUR_protein|mol2

> <Gold.PLP.Fitness>
36.1731

> <Gold.PLP.PLP>
-22.3226

> <Gold.PLP.part.hbond>
-4.4072

> <Gold.PLP.part.metal>
0.0000

> <Gold.PLP.part.buried>
-5.8191

> <Gold.PLP.part.nonpolar>
-12.3063

> <Gold.PLP.part.repulsive>
0.3241

> <Gold.PLP.ligand.clash>
0.0000

> <Gold.PLP.ligand.torsion>
0.2003

> <Gold.PLP.Chemscore.Hbond>
4.7493

> <Gold.PLP.Chemscore.CHOScore>
0.0000

> <Gold.PLP.Chemscore.Metal>
0.0000

> <Gold.Chemscore.Hbonds>
donor molecule, donor type, donor heavy atom, donor atom, acceptor molecule, acceptor atom, score
      L1  H     8    23       P1 10186  1.98
      L1  H     8    24       P1  7921  0.65
      L1  H     9    11       P1 10957  1.00
      P1  H 11000 11005       L1    10  1.00

> <Gold.PLP.Chemscore.Internal.Correction>
0.0033

> <Gold.Rescore>
     Score         DG    S(hbond)    S(metal)    S(lipo)     H(rot)  DE(clash)    DE(int)     intcor
     19.18     -19.59       3.79        0.00      40.82       1.30       0.03       0.39       ----

> <Gold.Chemscore.Fitness>
19.1798

> <Gold.Chemscore.DG>
-19.5941

> <Gold.Chemscore.ZeroCoef>
-5.4800

> <Gold.Chemscore.Hbond>
3.7913

> <Gold.Chemscore.Metal>
0.0000

> <Gold.Chemscore.Lipo>
40.8191

> <Gold.Chemscore.Internal_Hbond>
0.0000

> <Gold.Chemscore.DEClash>
0.0270

> <Gold.Chemscore.DEInternal>
0.3874

> <Gold.Chemscore.Rot>
1.2987

> <Gold.Chemscore.Internal.Correction>
   9.000000E+99

> <Gold.Chemscore.Hbonds>
donor molecule, donor type, donor heavy atom, donor atom, acceptor molecule, acceptor atom, score
      L1  H     8    23       P1 10186  0.94
      L1  H     8    24       P1  7921  0.64
      L1  H     9    11       P1 10957  0.94
      P1  H 11000 11005       L1    10  0.95

> <Gold.Chemscore.Hbond.Weighted>
-12.6629

> <Gold.Chemscore.Metal.Weighted>
-0.0000

> <Gold.Chemscore.Lipo.Weighted>
-4.7758

> <Gold.Chemscore.Internal_Hbond.Weighted>
0.0000

> <Gold.Chemscore.DEClash.Weighted>
0.0270

> <Gold.Chemscore.DEInternal.Weighted>
0.3874

> <Gold.Chemscore.Rot.Weighted>
3.3246

> <Gold.Chemscore.Internal.Correction.Weighted>
   9.000000E+99

> <Gold.Protein.RotatedTorsions>
[ 6907 6896 6895 6894 ] final  -48.62 input  -60.11 | X-H torsion
[ 7974 7965 7964 7962 ] final   84.86 input  175.53 | X-H torsion
[ 8008 7997 7996 7995 ] final  -55.69 input   59.86 | X-H torsion
[ 10167 10162 10161 10158 ] final   23.84 input  -65.29 | X-H torsion
[ 10718 10713 10712 10709 ] final -141.95 input   66.30 | X-H torsion
[ 10763 10752 10751 10750 ] final -171.28 input  -60.55 | X-H torsion
[ 11005 11000 10999 10996 ] final   19.17 input  -57.11 | X-H torsion

> <Gold.Protein.ActiveResidues>
 VAL166  LYS551  ARG553  GLY616  TRP617  ASP618  TYR619  PRO620  LYS621  CYS622 
 ASP623  PHE694  ASN695  SER759  ASP760  ASP761  ALA762  ILE779  LEU786  VAL792 
 PHE793  MET794  SER795  GLU796  ALA797  LYS798  CYS799  TRP800  GLU811  SER814 

> <Gold.Protein.RotatedAtoms>
  150.8887  134.8288  159.7277 H   0  0  0  0  0  0  0  0  0  0  0  0  # atno 6907 bound_to 6896
  152.4823  134.4682  159.9637 H   0  0  0  0  0  0  0  0  0  0  0  0  # atno 6908 bound_to 6896
  151.4748  133.3521  159.2864 H   0  0  0  0  0  0  0  0  0  0  0  0  # atno 6909 bound_to 6896
  145.5931  139.2341  143.2288 H   0  0  0  0  0  0  0  0  0  0  0  0  # atno 7974 bound_to 7965
  154.4203  140.1147  156.5516 H   0  0  0  0  0  0  0  0  0  0  0  0  # atno 8008 bound_to 7997
  155.6403  140.3496  155.4694 H   0  0  0  0  0  0  0  0  0  0  0  0  # atno 8009 bound_to 7997
  155.9876  140.1173  157.0658 H   0  0  0  0  0  0  0  0  0  0  0  0  # atno 8010 bound_to 7997
  140.5237  143.9959  150.6429 H   0  0  0  0  0  0  0  0  0  0  0  0  # atno 10167 bound_to 10162
  156.3401  130.7633  151.1767 H   0  0  0  0  0  0  0  0  0  0  0  0  # atno 10718 bound_to 10713
  154.6322  135.2888  155.0203 H   0  0  0  0  0  0  0  0  0  0  0  0  # atno 10763 bound_to 10752
  154.1359  135.6526  153.4935 H   0  0  0  0  0  0  0  0  0  0  0  0  # atno 10764 bound_to 10752
  153.0285  135.5321  154.7155 H   0  0  0  0  0  0  0  0  0  0  0  0  # atno 10765 bound_to 10752
  140.4166  134.1562  155.7670 H   0  0  0  0  0  0  0  0  0  0  0  0  # atno 11005 bound_to 11000
  146.1632  140.6757  142.9268 LP  0  0  0  0  0  0  0  0  0  0  0  0  # atno 17320 bound_to 7965
  144.7342  140.4761  143.6915 LP  0  0  0  0  0  0  0  0  0  0  0  0  # atno 17321 bound_to 7965
  140.3315  143.3074  152.0682 LP  0  0  0  0  0  0  0  0  0  0  0  0  # atno 17342 bound_to 10162
  139.4931  144.6505  151.6685 LP  0  0  0  0  0  0  0  0  0  0  0  0  # atno 17343 bound_to 10162
  157.7445  131.0457  150.4855 LP  0  0  0  0  0  0  0  0  0  0  0  0  # atno 17370 bound_to 10713
  156.5034  130.4122  149.6340 LP  0  0  0  0  0  0  0  0  0  0  0  0  # atno 17371 bound_to 10713
  141.1800  133.8433  157.1290 LP  0  0  0  0  0  0  0  0  0  0  0  0  # atno 17394 bound_to 11000
  140.0229  134.9937  157.0629 LP  0  0  0  0  0  0  0  0  0  0  0  0  # atno 17395 bound_to 11000

$$$$
