AV-unprocessed.smi:3314|AV-procd|sdf|12740|dock10
  -GOLD-   2272019 83D 1   1.00000     0.00000
 Structure written by MMmdl.
 38 39  0  0  0  0  0  0  0  0  2 V2000
  153.7674  141.4023  161.8427 C   0  0  0  0  0  0  0  0  0  0  0  0
  153.1442  141.8228  160.5274 C   0  0  0  0  0  0  0  0  0  0  0  0
  152.9953  143.2309  160.2012 C   0  0  0  0  0  0  0  0  0  0  0  0
  152.4407  143.5830  159.0288 C   0  0  0  0  0  0  0  0  0  0  0  0
  152.2382  145.0185  158.5913 C   0  0  0  0  0  0  0  0  0  0  0  0
  152.0095  142.6194  158.1259 N   0  0  0  0  0  0  0  0  0  0  0  0
  152.1172  141.2384  158.3673 C   0  0  0  0  0  0  0  0  0  0  0  0
  151.7285  140.2971  157.5568 N   0  0  0  0  0  0  0  0  0  0  0  0
  151.1527  140.5629  156.3173 C   0  0  0  0  0  0  0  0  0  0  0  0
  151.5427  140.2482  155.1892 O   0  0  0  0  0  0  0  0  0  0  0  0
  149.8563  141.3709  156.4505 C   0  0  1  0  0  0  0  0  0  0  0  0
  149.0830  141.4017  155.1148 C   0  0  0  0  0  0  0  0  0  0  0  0
  147.7877  142.0998  155.2825 N   0  3  1  0  0  0  0  0  0  0  0  0
  147.0223  142.1929  154.0211 C   0  0  0  0  0  0  0  0  0  0  0  0
  147.0026  141.5005  156.3853 C   0  0  0  0  0  0  0  0  0  0  0  0
  147.8348  141.4742  157.6774 C   0  0  0  0  0  0  0  0  0  0  0  0
  149.0430  140.7597  157.4492 O   0  0  0  0  0  0  0  0  0  0  0  0
  152.7204  140.8880  159.6443 C   0  0  0  0  0  0  0  0  0  0  0  0
  154.0515  142.2692  162.4402 H   0  0  0  0  0  0  0  0  0  0  0  0
  154.6614  140.8040  161.6647 H   0  0  0  0  0  0  0  0  0  0  0  0
  153.0627  140.8057  162.4226 H   0  0  0  0  0  0  0  0  0  0  0  0
  153.3279  143.9882  160.8961 H   0  0  0  0  0  0  0  0  0  0  0  0
  152.6118  145.7163  159.3414 H   0  0  0  0  0  0  0  0  0  0  0  0
  151.1783  145.2216  158.4359 H   0  0  0  0  0  0  0  0  0  0  0  0
  152.7661  145.2091  157.6565 H   0  0  0  0  0  0  0  0  0  0  0  0
  150.0954  142.3887  156.7674 H   0  0  0  0  0  0  0  0  0  0  0  0
  149.6724  141.9135  154.3522 H   0  0  0  0  0  0  0  0  0  0  0  0
  148.9033  140.3870  154.7535 H   0  0  0  0  0  0  0  0  0  0  0  0
  146.7538  141.2026  153.6509 H   0  0  0  0  0  0  0  0  0  0  0  0
  147.6087  142.6980  153.2528 H   0  0  0  0  0  0  0  0  0  0  0  0
  146.1047  142.7635  154.1688 H   0  0  0  0  0  0  0  0  0  0  0  0
  146.0891  142.0750  156.5432 H   0  0  0  0  0  0  0  0  0  0  0  0
  146.7024  140.4869  156.1146 H   0  0  0  0  0  0  0  0  0  0  0  0
  148.0547  142.4859  158.0221 H   0  0  0  0  0  0  0  0  0  0  0  0
  147.2773  140.9807  158.4738 H   0  0  0  0  0  0  0  0  0  0  0  0
  152.8476  139.8512  159.9218 H   0  0  0  0  0  0  0  0  0  0  0  0
  151.6060  142.9663  157.2674 H   0  0  0  0  0  0  0  0  0  0  0  0
  148.0030  143.0464  155.5615 H   0  0  0  0  0  0  0  0  0  0  0  0
  1  2  1  0  0  0  0
  1 19  1  0  0  0  0
  1 20  1  0  0  0  0
  1 21  1  0  0  0  0
  2 18  2  0  0  0  0
  2  3  1  0  0  0  0
  3  4  2  0  0  0  0
  3 22  1  0  0  0  0
  4  5  1  0  0  0  0
  4  6  1  0  0  0  0
  5 23  1  0  0  0  0
  5 24  1  0  0  0  0
  5 25  1  0  0  0  0
  6  7  1  0  0  0  0
  6 37  1  0  0  0  0
  7  8  2  0  0  0  0
  7 18  1  0  0  0  0
  8  9  1  0  0  0  0
  9 10  2  0  0  0  0
  9 11  1  0  0  0  0
 11 17  1  0  0  0  0
 11 12  1  0  0  0  0
 11 26  1  0  0  0  0
 12 13  1  0  0  0  0
 12 27  1  0  0  0  0
 12 28  1  0  0  0  0
 13 14  1  0  0  0  0
 13 15  1  0  0  0  0
 13 38  1  0  0  0  0
 14 29  1  0  0  0  0
 14 30  1  0  0  0  0
 14 31  1  0  0  0  0
 15 16  1  0  0  0  0
 15 32  1  0  0  0  0
 15 33  1  0  0  0  0
 16 17  1  0  0  0  0
 16 34  1  0  0  0  0
 16 35  1  0  0  0  0
 18 36  1  0  0  0  0
M  CHG  1  13   1
M  END
> <s_m_source_file>
AV-unprocessed.smi

> <i_m_source_file_index>
3314

> <i_lp_mmshare_version>
43012

> <i_f3d_flags>
0

> <s_epik_input>
W0NIM11jMVtjSF1jKFtDSDNdKW5jKFtjSF0xKVtOSF1DKD1PKVtDQEBIXTJbQ0gyXU4oW0NIM10pW0NIMl1bQ0gyXU8y

> <s_epik_cmdline>
J2VwaWtfcHl0aG9uJywgJy1waCcsICc3LjAnLCAnLXRuJywgJzgnLCAnLW1hJywgJzIwMCcsICctbWV0YWxfYmluZGluZycsICctaW1hZScsICc8aW5maWxlLm1hZT4nLCAnLW9tYWUnLCAnPG91dGZpbGUubWFlPic=

> <r_epik_Ionization_Penalty>
0.519783

> <r_epik_Ionization_Penalty_Charging>
0.519783

> <r_epik_Ionization_Penalty_Neutral>
1.74183e-13

> <r_epik_State_Penalty>
2.39351

> <r_epik_Charging_Adjusted_Penalty>
2.91329

> <i_epik_Tot_Q>
1

> <i_epik_Tot_abs_Q>
1

> <r_epik_Metal_State_Penalty>
2.41924

> <b_epik_Metal_Only>
0

> <s_lp_Force_Field>
OPLS_2005

> <r_lp_Energy>
34.3137

> <b_lp_Chiralities_Consistent>
1

> <s_lp_Variant>
AV-unprocessed.smi:3314-10

> <Gold.Version>
5.8.1

> <Gold.Id.Protein>
6NUR|6NUR_protein|mol2

> <Gold.PLP.Fitness>
47.1114

> <Gold.PLP.PLP>
-39.8449

> <Gold.PLP.part.hbond>
-2.0000

> <Gold.PLP.part.metal>
0.0000

> <Gold.PLP.part.buried>
-5.6187

> <Gold.PLP.part.nonpolar>
-33.1844

> <Gold.PLP.part.repulsive>
0.2038

> <Gold.PLP.ligand.clash>
0.0000

> <Gold.PLP.ligand.torsion>
0.8309

> <Gold.PLP.Chemscore.Hbond>
2.9760

> <Gold.PLP.Chemscore.CHOScore>
0.0000

> <Gold.PLP.Chemscore.Metal>
0.0000

> <Gold.Chemscore.Hbonds>
donor molecule, donor type, donor heavy atom, donor atom, acceptor molecule, acceptor atom, score
      L1  H    13    38       P1  8028  2.00
      P1  H  7989  7998       L1    10  0.96

> <Gold.PLP.Chemscore.Internal.Correction>
0.0002

> <Gold.Rescore>
     Score         DG    S(hbond)    S(metal)    S(lipo)     H(rot)  DE(clash)    DE(int)     intcor
     17.96     -20.34       1.90        0.00      94.75       1.00       0.29       2.08       ----

> <Gold.Chemscore.Fitness>
17.9635

> <Gold.Chemscore.DG>
-20.3398

> <Gold.Chemscore.ZeroCoef>
-5.4800

> <Gold.Chemscore.Hbond>
1.8963

> <Gold.Chemscore.Metal>
0.0000

> <Gold.Chemscore.Lipo>
94.7528

> <Gold.Chemscore.Internal_Hbond>
0.0000

> <Gold.Chemscore.DEClash>
0.2946

> <Gold.Chemscore.DEInternal>
2.0817

> <Gold.Chemscore.Rot>
1.0000

> <Gold.Chemscore.Internal.Correction>
   9.000000E+99

> <Gold.Chemscore.Hbonds>
donor molecule, donor type, donor heavy atom, donor atom, acceptor molecule, acceptor atom, score
      L1  H    13    38       P1  8028  0.78
      P1  H  7989  7998       L1    10  0.92

> <Gold.Chemscore.Hbond.Weighted>
-6.3337

> <Gold.Chemscore.Metal.Weighted>
-0.0000

> <Gold.Chemscore.Lipo.Weighted>
-11.0861

> <Gold.Chemscore.Internal_Hbond.Weighted>
0.0000

> <Gold.Chemscore.DEClash.Weighted>
0.2946

> <Gold.Chemscore.DEInternal.Weighted>
2.0817

> <Gold.Chemscore.Rot.Weighted>
2.5600

> <Gold.Chemscore.Internal.Correction.Weighted>
   9.000000E+99

> <Gold.Protein.RotatedTorsions>
[ 6907 6896 6895 6894 ] final   -4.70 input  -60.11 | X-H torsion
[ 7974 7965 7964 7962 ] final   51.02 input  175.53 | X-H torsion
[ 8008 7997 7996 7995 ] final -132.84 input   59.86 | X-H torsion
[ 10167 10162 10161 10158 ] final -120.05 input  -65.29 | X-H torsion
[ 10718 10713 10712 10709 ] final   39.19 input   66.30 | X-H torsion
[ 10763 10752 10751 10750 ] final -173.88 input  -60.55 | X-H torsion
[ 11005 11000 10999 10996 ] final  -50.67 input  -57.11 | X-H torsion

> <Gold.Protein.ActiveResidues>
 VAL166  LYS551  ARG553  GLY616  TRP617  ASP618  TYR619  PRO620  LYS621  CYS622 
 ASP623  PHE694  ASN695  SER759  ASP760  ASP761  ALA762  ILE779  LEU786  VAL792 
 PHE793  MET794  SER795  GLU796  ALA797  LYS798  CYS799  TRP800  GLU811  SER814 

> <Gold.Protein.RotatedAtoms>
  151.4935  135.1058  159.9809 H   0  0  0  0  0  0  0  0  0  0  0  0  # atno 6907 bound_to 6896
  152.4731  133.8072  159.6994 H   0  0  0  0  0  0  0  0  0  0  0  0  # atno 6908 bound_to 6896
  150.8752  133.7386  159.2975 H   0  0  0  0  0  0  0  0  0  0  0  0  # atno 6909 bound_to 6896
  145.9954  139.4383  143.0047 H   0  0  0  0  0  0  0  0  0  0  0  0  # atno 7974 bound_to 7965
  155.3355  140.0469  157.3043 H   0  0  0  0  0  0  0  0  0  0  0  0  # atno 8008 bound_to 7997
  154.5305  140.2255  155.8778 H   0  0  0  0  0  0  0  0  0  0  0  0  # atno 8009 bound_to 7997
  156.1783  140.3080  155.9108 H   0  0  0  0  0  0  0  0  0  0  0  0  # atno 8010 bound_to 7997
  140.0400  143.5162  152.2134 H   0  0  0  0  0  0  0  0  0  0  0  0  # atno 10167 bound_to 10162
  157.3676  130.7684  149.7095 H   0  0  0  0  0  0  0  0  0  0  0  0  # atno 10718 bound_to 10713
  154.6027  135.2856  155.0518 H   0  0  0  0  0  0  0  0  0  0  0  0  # atno 10763 bound_to 10752
  154.1777  135.6462  153.5029 H   0  0  0  0  0  0  0  0  0  0  0  0  # atno 10764 bound_to 10752
  153.0163  135.5416  154.6752 H   0  0  0  0  0  0  0  0  0  0  0  0  # atno 10765 bound_to 10752
  141.0829  133.6649  156.3764 H   0  0  0  0  0  0  0  0  0  0  0  0  # atno 11005 bound_to 11000
  145.7567  140.9951  143.1221 LP  0  0  0  0  0  0  0  0  0  0  0  0  # atno 17320 bound_to 7965
  144.6902  139.9280  143.7470 LP  0  0  0  0  0  0  0  0  0  0  0  0  # atno 17321 bound_to 7965
  139.6020  144.7585  151.3150 LP  0  0  0  0  0  0  0  0  0  0  0  0  # atno 17342 bound_to 10162
  140.7264  143.6991  150.7859 LP  0  0  0  0  0  0  0  0  0  0  0  0  # atno 17343 bound_to 10162
  155.9749  130.4096  150.3887 LP  0  0  0  0  0  0  0  0  0  0  0  0  # atno 17370 bound_to 10713
  157.1974  131.0430  151.2668 LP  0  0  0  0  0  0  0  0  0  0  0  0  # atno 17371 bound_to 10713
  140.5429  134.6103  157.5385 LP  0  0  0  0  0  0  0  0  0  0  0  0  # atno 17394 bound_to 11000
  139.9644  134.7398  156.0169 LP  0  0  0  0  0  0  0  0  0  0  0  0  # atno 17395 bound_to 11000

$$$$
