AV-unprocessed.smi:1547|AV-procd|sdf|6220|dock10
  -GOLD-   22720 6393D 1   1.00000     0.00000
 Structure written by MMmdl.
 40 41  0  0  0  0  0  0  0  0  2 V2000
  145.7346  129.3551  151.9424 C   0  0  0  0  0  0  0  0  0  0  0  0
  146.2145  130.7751  152.0061 C   0  0  0  0  0  0  0  0  0  0  0  0
  147.3138  131.2970  152.7478 C   0  0  0  0  0  0  0  0  0  0  0  0
  147.2844  132.6283  152.4334 C   0  0  0  0  0  0  0  0  0  0  0  0
  148.1101  133.6243  152.8519 N   0  0  0  0  0  0  0  0  0  0  0  0
  149.0078  133.6050  153.8526 C   0  0  0  0  0  0  0  0  0  0  0  0
  149.2220  132.6534  154.6041 O   0  0  0  0  0  0  0  0  0  0  0  0
  149.6627  134.7718  153.9423 N   0  0  0  0  0  0  0  0  0  0  0  0
  150.6959  135.0698  154.9274 C   0  0  0  0  0  0  0  0  0  0  0  0
  151.2367  136.5031  154.7670 C   0  0  0  0  0  0  0  0  0  0  0  0
  150.2098  137.4272  154.2328 N   0  3  0  0  0  0  0  0  0  0  0  0
  148.9472  137.4834  155.0104 C   0  0  0  0  0  0  0  0  0  0  0  0
  148.5679  138.9643  155.1411 C   0  0  0  0  0  0  0  0  0  0  0  0
  149.4225  139.6720  154.0950 C   0  0  0  0  0  0  0  0  0  0  0  0
  150.6833  138.8152  154.0555 C   0  0  0  0  0  0  0  0  0  0  0  0
  146.2392  132.8575  151.5664 N   0  0  0  0  0  0  0  0  0  0  0  0
  145.8036  134.0982  150.9555 C   0  0  0  0  0  0  0  0  0  0  0  0
  145.5790  131.7082  151.3065 N   0  0  0  0  0  0  0  0  0  0  0  0
  146.3703  128.6974  152.5356 H   0  0  0  0  0  0  0  0  0  0  0  0
  145.7392  128.9841  150.9173 H   0  0  0  0  0  0  0  0  0  0  0  0
  144.7177  129.2673  152.3258 H   0  0  0  0  0  0  0  0  0  0  0  0
  147.9961  130.7650  153.3936 H   0  0  0  0  0  0  0  0  0  0  0  0
  148.0374  134.4877  152.3340 H   0  0  0  0  0  0  0  0  0  0  0  0
  149.4259  135.5050  153.2894 H   0  0  0  0  0  0  0  0  0  0  0  0
  150.2644  134.9447  155.9208 H   0  0  0  0  0  0  0  0  0  0  0  0
  151.4976  134.3343  154.8434 H   0  0  0  0  0  0  0  0  0  0  0  0
  151.6121  136.8911  155.7153 H   0  0  0  0  0  0  0  0  0  0  0  0
  152.0835  136.4867  154.0792 H   0  0  0  0  0  0  0  0  0  0  0  0
  148.1800  136.9289  154.4694 H   0  0  0  0  0  0  0  0  0  0  0  0
  149.0481  137.0287  155.9973 H   0  0  0  0  0  0  0  0  0  0  0  0
  147.5006  139.1403  155.0021 H   0  0  0  0  0  0  0  0  0  0  0  0
  148.8366  139.3242  156.1352 H   0  0  0  0  0  0  0  0  0  0  0  0
  148.9231  139.6462  153.1255 H   0  0  0  0  0  0  0  0  0  0  0  0
  149.6244  140.7141  154.3448 H   0  0  0  0  0  0  0  0  0  0  0  0
  151.3381  139.0913  154.8841 H   0  0  0  0  0  0  0  0  0  0  0  0
  151.2439  138.9344  153.1278 H   0  0  0  0  0  0  0  0  0  0  0  0
  146.6495  134.5860  150.4707 H   0  0  0  0  0  0  0  0  0  0  0  0
  145.4003  134.7605  151.7217 H   0  0  0  0  0  0  0  0  0  0  0  0
  145.0316  133.9087  150.2084 H   0  0  0  0  0  0  0  0  0  0  0  0
  149.9607  137.1001  153.3104 H   0  0  0  0  0  0  0  0  0  0  0  0
  1  2  1  0  0  0  0
  1 19  1  0  0  0  0
  1 20  1  0  0  0  0
  1 21  1  0  0  0  0
  2 18  2  0  0  0  0
  2  3  1  0  0  0  0
  3  4  2  0  0  0  0
  3 22  1  0  0  0  0
  4  5  1  0  0  0  0
  4 16  1  0  0  0  0
  5  6  1  0  0  0  0
  5 23  1  0  0  0  0
  6  7  2  0  0  0  0
  6  8  1  0  0  0  0
  8  9  1  0  0  0  0
  8 24  1  0  0  0  0
  9 10  1  0  0  0  0
  9 25  1  0  0  0  0
  9 26  1  0  0  0  0
 10 11  1  0  0  0  0
 10 27  1  0  0  0  0
 10 28  1  0  0  0  0
 11 15  1  0  0  0  0
 11 12  1  0  0  0  0
 11 40  1  0  0  0  0
 12 13  1  0  0  0  0
 12 29  1  0  0  0  0
 12 30  1  0  0  0  0
 13 14  1  0  0  0  0
 13 31  1  0  0  0  0
 13 32  1  0  0  0  0
 14 15  1  0  0  0  0
 14 33  1  0  0  0  0
 14 34  1  0  0  0  0
 15 35  1  0  0  0  0
 15 36  1  0  0  0  0
 16 17  1  0  0  0  0
 16 18  1  0  0  0  0
 17 37  1  0  0  0  0
 17 38  1  0  0  0  0
 17 39  1  0  0  0  0
M  CHG  1  11   1
M  END
> <s_m_source_file>
AV-unprocessed.smi

> <i_m_source_file_index>
1547

> <i_lp_mmshare_version>
43012

> <i_f3d_flags>
0

> <s_epik_input>
W0NIM11jMVtjSF1jKG4objEpW0NIM10pW05IXUMoPU8pW05IXVtDSDJdW0NIMl1OMltDSDJdW0NIMl1bQ0gyXVtDSDJdMg==

> <s_epik_cmdline>
J2VwaWtfcHl0aG9uJywgJy1waCcsICc3LjAnLCAnLXRuJywgJzgnLCAnLW1hJywgJzIwMCcsICctbWV0YWxfYmluZGluZycsICctaW1hZScsICc8aW5maWxlLm1hZT4nLCAnLW9tYWUnLCAnPG91dGZpbGUubWFlPic=

> <r_lp_tautomer_probability>
1

> <r_epik_Ionization_Penalty>
0.00226577

> <r_epik_Ionization_Penalty_Charging>
0.00218899

> <r_epik_Ionization_Penalty_Neutral>
7.67743e-05

> <r_epik_State_Penalty>
0.00150446

> <r_epik_Charging_Adjusted_Penalty>
0.00369345

> <i_epik_Tot_Q>
1

> <i_epik_Tot_abs_Q>
1

> <r_epik_Metal_State_Penalty>
-0

> <b_epik_Metal_Only>
0

> <s_lp_Force_Field>
OPLS_2005

> <r_lp_Energy>
27.1917

> <b_lp_Chiralities_Consistent>
1

> <s_lp_Variant>
AV-unprocessed.smi:1547-1

> <Gold.Version>
5.8.1

> <Gold.Id.Protein>
6NUR|6NUR_protein|mol2

> <Gold.PLP.Fitness>
40.7807

> <Gold.PLP.PLP>
-29.4439

> <Gold.PLP.part.hbond>
-3.0000

> <Gold.PLP.part.metal>
0.0000

> <Gold.PLP.part.buried>
-2.4432

> <Gold.PLP.part.nonpolar>
-23.8066

> <Gold.PLP.part.repulsive>
0.1841

> <Gold.PLP.ligand.clash>
0.0000

> <Gold.PLP.ligand.torsion>
0.2291

> <Gold.PLP.Chemscore.Hbond>
3.9280

> <Gold.PLP.Chemscore.CHOScore>
0.0000

> <Gold.PLP.Chemscore.Metal>
0.0000

> <Gold.Chemscore.Hbonds>
donor molecule, donor type, donor heavy atom, donor atom, acceptor molecule, acceptor atom, score
      L1  H     5    23       P1  7948  0.90
      L1  H     8    24       P1  7948  0.80
      L1  H    11    40       P1  7948  2.00

> <Gold.PLP.Chemscore.Internal.Correction>
0.0110

> <Gold.Rescore>
     Score         DG    S(hbond)    S(metal)    S(lipo)     H(rot)  DE(clash)    DE(int)     intcor
     14.15     -15.49       2.19        0.00      56.18       1.52       0.17       1.17       ----

> <Gold.Chemscore.Fitness>
14.1520

> <Gold.Chemscore.DG>
-15.4879

> <Gold.Chemscore.ZeroCoef>
-5.4800

> <Gold.Chemscore.Hbond>
2.1902

> <Gold.Chemscore.Metal>
0.0000

> <Gold.Chemscore.Lipo>
56.1837

> <Gold.Chemscore.Internal_Hbond>
0.0000

> <Gold.Chemscore.DEClash>
0.1661

> <Gold.Chemscore.DEInternal>
1.1698

> <Gold.Chemscore.Rot>
1.5160

> <Gold.Chemscore.Internal.Correction>
   9.000000E+99

> <Gold.Chemscore.Hbonds>
donor molecule, donor type, donor heavy atom, donor atom, acceptor molecule, acceptor atom, score
      L1  H     5    23       P1  7948  0.26
      L1  H     8    24       P1  7948  0.12
      L1  H    11    40       P1  7948  0.25

> <Gold.Chemscore.Hbond.Weighted>
-7.3154

> <Gold.Chemscore.Metal.Weighted>
-0.0000

> <Gold.Chemscore.Lipo.Weighted>
-6.5735

> <Gold.Chemscore.Internal_Hbond.Weighted>
0.0000

> <Gold.Chemscore.DEClash.Weighted>
0.1661

> <Gold.Chemscore.DEInternal.Weighted>
1.1698

> <Gold.Chemscore.Rot.Weighted>
3.8809

> <Gold.Chemscore.Internal.Correction.Weighted>
   9.000000E+99

> <Gold.Protein.RotatedTorsions>
[ 6907 6896 6895 6894 ] final   72.88 input  -60.11 | X-H torsion
[ 7974 7965 7964 7962 ] final  158.11 input  175.53 | X-H torsion
[ 8008 7997 7996 7995 ] final -168.31 input   59.86 | X-H torsion
[ 10167 10162 10161 10158 ] final   28.97 input  -65.29 | X-H torsion
[ 10718 10713 10712 10709 ] final   57.48 input   66.30 | X-H torsion
[ 10763 10752 10751 10750 ] final  129.07 input  -60.55 | X-H torsion
[ 11005 11000 10999 10996 ] final -151.24 input  -57.11 | X-H torsion

> <Gold.Protein.ActiveResidues>
 VAL166  LYS551  ARG553  GLY616  TRP617  ASP618  TYR619  PRO620  LYS621  CYS622 
 ASP623  PHE694  ASN695  SER759  ASP760  ASP761  ALA762  ILE779  LEU786  VAL792 
 PHE793  MET794  SER795  GLU796  ALA797  LYS798  CYS799  TRP800  GLU811  SER814 

> <Gold.Protein.RotatedAtoms>
  152.4892  134.4506  159.9572 H   0  0  0  0  0  0  0  0  0  0  0  0  # atno 6907 bound_to 6896
  151.4496  133.3615  159.2801 H   0  0  0  0  0  0  0  0  0  0  0  0  # atno 6908 bound_to 6896
  150.9031  134.8468  159.7434 H   0  0  0  0  0  0  0  0  0  0  0  0  # atno 6909 bound_to 6896
  144.7864  139.7433  143.6239 H   0  0  0  0  0  0  0  0  0  0  0  0  # atno 7974 bound_to 7965
  155.8896  140.1022  157.1428 H   0  0  0  0  0  0  0  0  0  0  0  0  # atno 8008 bound_to 7997
  154.4013  140.1313  156.4363 H   0  0  0  0  0  0  0  0  0  0  0  0  # atno 8009 bound_to 7997
  155.7549  140.3464  155.5171 H   0  0  0  0  0  0  0  0  0  0  0  0  # atno 8010 bound_to 7997
  140.4807  144.0621  150.6264 H   0  0  0  0  0  0  0  0  0  0  0  0  # atno 10167 bound_to 10162
  157.5518  130.8771  149.8974 H   0  0  0  0  0  0  0  0  0  0  0  0  # atno 10718 bound_to 10713
  153.7358  135.3231  155.3294 H   0  0  0  0  0  0  0  0  0  0  0  0  # atno 10763 bound_to 10752
  154.8311  135.4533  154.1076 H   0  0  0  0  0  0  0  0  0  0  0  0  # atno 10764 bound_to 10752
  153.2237  135.6951  153.8052 H   0  0  0  0  0  0  0  0  0  0  0  0  # atno 10765 bound_to 10752
  140.7317  134.3613  157.5165 H   0  0  0  0  0  0  0  0  0  0  0  0  # atno 11005 bound_to 11000
  146.2098  139.5447  142.9688 LP  0  0  0  0  0  0  0  0  0  0  0  0  # atno 17320 bound_to 7965
  145.5909  141.0369  143.2070 LP  0  0  0  0  0  0  0  0  0  0  0  0  # atno 17321 bound_to 7965
  140.3862  143.2776  152.0113 LP  0  0  0  0  0  0  0  0  0  0  0  0  # atno 17342 bound_to 10162
  139.4833  144.6115  151.7425 LP  0  0  0  0  0  0  0  0  0  0  0  0  # atno 17343 bound_to 10162
  156.0583  130.3704  150.1040 LP  0  0  0  0  0  0  0  0  0  0  0  0  # atno 17370 bound_to 10713
  156.9212  130.9683  151.3548 LP  0  0  0  0  0  0  0  0  0  0  0  0  # atno 17371 bound_to 10713
  139.8825  134.9023  156.2829 LP  0  0  0  0  0  0  0  0  0  0  0  0  # atno 17394 bound_to 11000
  140.9915  133.7206  156.0821 LP  0  0  0  0  0  0  0  0  0  0  0  0  # atno 17395 bound_to 11000

$$$$
