AV-unprocessed.smi:207|AV-procd|sdf|1604|dock4
  -GOLD-   2262019523D 1   1.00000     0.00000
 Structure written by MMmdl.
 56 59  0  0  0  0  0  0  0  0  2 V2000
  146.4094  135.2632  153.8583 C   0  0  0  0  0  0  0  0  0  0  0  0
  145.8829  136.5744  153.2303 C   0  0  0  0  0  0  0  0  0  0  0  0
  144.4423  136.8333  153.7311 C   0  0  0  0  0  0  0  0  0  0  0  0
  146.8178  137.6982  153.7467 C   0  0  0  0  0  0  0  0  0  0  0  0
  146.5983  138.9652  153.0605 N   0  0  0  0  0  0  0  0  0  0  0  0
  147.0944  140.0583  153.6919 C   0  0  0  0  0  0  0  0  0  0  0  0
  146.3627  141.2030  153.7447 N   0  0  0  0  0  0  0  0  0  0  0  0
  146.8463  142.2842  154.3636 C   0  0  0  0  0  0  0  0  0  0  0  0
  148.0146  142.4340  154.9904 N   0  0  0  0  0  0  0  0  0  0  0  0
  148.7503  141.2863  154.9477 C   0  0  0  0  0  0  0  0  0  0  0  0
  148.3707  140.0659  154.3215 C   0  0  0  0  0  0  0  0  0  0  0  0
  149.3723  139.1169  154.4881 N   0  0  0  0  0  0  0  0  0  0  0  0
  150.2924  139.7417  155.1711 C   0  0  0  0  0  0  0  0  0  0  0  0
  149.9956  141.0447  155.5025 N   0  0  0  0  0  0  0  0  0  0  0  0
  150.8281  141.9654  156.2615 C   0  0  0  0  0  0  0  0  0  0  0  0
  150.9206  141.6621  157.7733 C   0  0  0  0  0  0  0  0  0  0  0  0
  149.5610  141.8974  158.4581 C   0  0  0  0  0  0  0  0  0  0  0  0
  149.1637  143.2533  158.4034 O   0  0  0  0  0  0  0  0  0  0  0  0
  151.6698  140.3803  158.1707 C   0  0  0  0  0  0  0  0  0  0  0  0
  152.8673  141.1113  158.5060 O   0  0  0  0  0  0  0  0  0  0  0  0
  152.1166  142.3423  158.4569 C   0  0  0  0  0  0  0  0  0  0  0  0
  146.7315  138.8856  151.6129 C   0  0  0  0  0  0  0  0  0  0  0  0
  145.7783  137.8234  151.0545 C   0  0  0  0  0  0  0  0  0  0  0  0
  145.9445  136.5038  151.7281 N   0  3  2  0  0  0  0  0  0  0  0  0
  145.0898  135.4584  151.0953 C   0  0  0  0  0  0  0  0  0  0  0  0
  145.9045  134.2162  150.6992 C   0  0  0  0  0  0  0  0  0  0  0  0
  145.2069  133.4762  149.7197 O   0  0  0  0  0  0  0  0  0  0  0  0
  146.5197  135.3665  154.9386 H   0  0  0  0  0  0  0  0  0  0  0  0
  147.3881  134.9965  153.4575 H   0  0  0  0  0  0  0  0  0  0  0  0
  145.7455  134.4145  153.7025 H   0  0  0  0  0  0  0  0  0  0  0  0
  144.4147  136.8999  154.8193 H   0  0  0  0  0  0  0  0  0  0  0  0
  143.7590  136.0340  153.4445 H   0  0  0  0  0  0  0  0  0  0  0  0
  144.0357  137.7683  153.3461 H   0  0  0  0  0  0  0  0  0  0  0  0
  146.7058  137.8063  154.8257 H   0  0  0  0  0  0  0  0  0  0  0  0
  147.8587  137.4148  153.5810 H   0  0  0  0  0  0  0  0  0  0  0  0
  146.2050  143.1534  154.3567 H   0  0  0  0  0  0  0  0  0  0  0  0
  151.2173  139.2618  155.4548 H   0  0  0  0  0  0  0  0  0  0  0  0
  151.8223  141.9521  155.8127 H   0  0  0  0  0  0  0  0  0  0  0  0
  150.4518  142.9765  156.1021 H   0  0  0  0  0  0  0  0  0  0  0  0
  148.7762  141.3158  157.9739 H   0  0  0  0  0  0  0  0  0  0  0  0
  149.5817  141.5742  159.4992 H   0  0  0  0  0  0  0  0  0  0  0  0
  149.0794  143.5049  157.4962 H   0  0  0  0  0  0  0  0  0  0  0  0
  151.2510  139.8741  159.0422 H   0  0  0  0  0  0  0  0  0  0  0  0
  151.8282  139.6768  157.3544 H   0  0  0  0  0  0  0  0  0  0  0  0
  152.6038  143.1046  157.8477 H   0  0  0  0  0  0  0  0  0  0  0  0
  151.9074  142.7251  159.4571 H   0  0  0  0  0  0  0  0  0  0  0  0
  146.5070  139.8512  151.1574 H   0  0  0  0  0  0  0  0  0  0  0  0
  147.7624  138.6369  151.3568 H   0  0  0  0  0  0  0  0  0  0  0  0
  144.7486  138.1647  151.1671 H   0  0  0  0  0  0  0  0  0  0  0  0
  145.9518  137.7244  149.9835 H   0  0  0  0  0  0  0  0  0  0  0  0
  144.2810  135.1341  151.7459 H   0  0  0  0  0  0  0  0  0  0  0  0
  144.5971  135.8763  150.2161 H   0  0  0  0  0  0  0  0  0  0  0  0
  146.8623  134.5213  150.2775 H   0  0  0  0  0  0  0  0  0  0  0  0
  146.1243  133.5778  151.5545 H   0  0  0  0  0  0  0  0  0  0  0  0
  145.2310  133.9558  148.9050 H   0  0  0  0  0  0  0  0  0  0  0  0
  146.8937  136.2184  151.5323 H   0  0  0  0  0  0  0  0  0  0  0  0
  1  2  1  0  0  0  0
  1 28  1  0  0  0  0
  1 29  1  0  0  0  0
  1 30  1  0  0  0  0
  2 24  1  0  0  0  0
  2  3  1  0  0  0  0
  2  4  1  0  0  0  0
  3 31  1  0  0  0  0
  3 32  1  0  0  0  0
  3 33  1  0  0  0  0
  4  5  1  0  0  0  0
  4 34  1  0  0  0  0
  4 35  1  0  0  0  0
  5  6  1  0  0  0  0
  5 22  1  0  0  0  0
  6 11  1  0  0  0  0
  6  7  2  0  0  0  0
  7  8  1  0  0  0  0
  8  9  2  0  0  0  0
  8 36  1  0  0  0  0
  9 10  1  0  0  0  0
 10 14  1  0  0  0  0
 10 11  2  0  0  0  0
 11 12  1  0  0  0  0
 12 13  2  0  0  0  0
 13 14  1  0  0  0  0
 13 37  1  0  0  0  0
 14 15  1  0  0  0  0
 15 16  1  0  0  0  0
 15 38  1  0  0  0  0
 15 39  1  0  0  0  0
 16 21  1  0  0  0  0
 16 17  1  0  0  0  0
 16 19  1  0  0  0  0
 17 18  1  0  0  0  0
 17 40  1  0  0  0  0
 17 41  1  0  0  0  0
 18 42  1  0  0  0  0
 19 20  1  0  0  0  0
 19 43  1  0  0  0  0
 19 44  1  0  0  0  0
 20 21  1  0  0  0  0
 21 45  1  0  0  0  0
 21 46  1  0  0  0  0
 22 23  1  0  0  0  0
 22 47  1  0  0  0  0
 22 48  1  0  0  0  0
 23 24  1  0  0  0  0
 23 49  1  0  0  0  0
 23 50  1  0  0  0  0
 24 25  1  0  0  0  0
 24 56  1  0  0  0  0
 25 26  1  0  0  0  0
 25 51  1  0  0  0  0
 25 52  1  0  0  0  0
 26 27  1  0  0  0  0
 26 53  1  0  0  0  0
 26 54  1  0  0  0  0
 27 55  1  0  0  0  0
M  CHG  1  24   1
M  END
> <s_m_source_file>
AV-unprocessed.smi

> <i_m_source_file_index>
207

> <i_lp_mmshare_version>
43012

> <i_f3d_flags>
0

> <s_epik_input>
W09IXVtDSDJdW0NIMl1OMVtDSDJdW0NIMl1OKFtDSDJdQzEoW0NIM10pW0NIM10pYyhuW2NIXW4yKWMoYzIzKW5bY0hdbjNbQ0gyXUM0KFtDSDJdW09IXSlbQ0gyXU9bQ0gyXTQ=

> <s_epik_cmdline>
J2VwaWtfcHl0aG9uJywgJy1waCcsICc3LjAnLCAnLXRuJywgJzgnLCAnLW1hJywgJzIwMCcsICctbWV0YWxfYmluZGluZycsICctaW1hZScsICc8aW5maWxlLm1hZT4nLCAnLW9tYWUnLCAnPG91dGZpbGUubWFlPic=

> <r_lp_tautomer_probability>
1

> <r_epik_Ionization_Penalty>
0.416568

> <r_epik_Ionization_Penalty_Charging>
0.416506

> <r_epik_Ionization_Penalty_Neutral>
6.2219e-05

> <r_epik_State_Penalty>
0.419386

> <r_epik_Charging_Adjusted_Penalty>
0.835892

> <i_epik_Tot_Q>
1

> <i_epik_Tot_abs_Q>
1

> <r_epik_Metal_State_Penalty>
0.420232

> <b_epik_Metal_Only>
0

> <s_lp_Force_Field>
OPLS_2005

> <r_lp_Energy>
56.1561

> <b_lp_Chiralities_Consistent>
1

> <s_lp_Variant>
AV-unprocessed.smi:207-3

> <Gold.Version>
5.8.1

> <Gold.Id.Protein>
6NUR|6NUR_protein|mol2

> <Gold.PLP.Fitness>
47.2375

> <Gold.PLP.PLP>
-37.7451

> <Gold.PLP.part.hbond>
-4.0000

> <Gold.PLP.part.metal>
0.0000

> <Gold.PLP.part.buried>
0.2942

> <Gold.PLP.part.nonpolar>
-39.3689

> <Gold.PLP.part.repulsive>
5.1970

> <Gold.PLP.ligand.clash>
0.0000

> <Gold.PLP.ligand.torsion>
1.6635

> <Gold.PLP.Chemscore.Hbond>
4.0000

> <Gold.PLP.Chemscore.CHOScore>
0.0000

> <Gold.PLP.Chemscore.Metal>
0.0000

> <Gold.Chemscore.Hbonds>
donor molecule, donor type, donor heavy atom, donor atom, acceptor molecule, acceptor atom, score
      L1  H    18    42       P1  8028  0.60
      L1  H    24    56       P1  7948  1.89
      L1  H    27    55       P1  7921  1.00

> <Gold.PLP.Chemscore.Internal.Correction>
0.8194

> <Gold.Rescore>
     Score         DG    S(hbond)    S(metal)    S(lipo)     H(rot)  DE(clash)    DE(int)     intcor
      6.24     -12.73       2.27        0.00      80.40       3.80       3.81       2.67       ----

> <Gold.Chemscore.Fitness>
6.2441

> <Gold.Chemscore.DG>
-12.7291

> <Gold.Chemscore.ZeroCoef>
-5.4800

> <Gold.Chemscore.Hbond>
2.2665

> <Gold.Chemscore.Metal>
0.0000

> <Gold.Chemscore.Lipo>
80.3968

> <Gold.Chemscore.Internal_Hbond>
0.0000

> <Gold.Chemscore.DEClash>
3.8119

> <Gold.Chemscore.DEInternal>
2.6731

> <Gold.Chemscore.Rot>
3.7997

> <Gold.Chemscore.Internal.Correction>
   9.000000E+99

> <Gold.Chemscore.Hbonds>
donor molecule, donor type, donor heavy atom, donor atom, acceptor molecule, acceptor atom, score
      L1  H    18    42       P1  8028  0.21
      L1  H    24    56       P1  7948  0.88
      L1  H    27    55       P1  7921  0.88

> <Gold.Chemscore.Hbond.Weighted>
-7.5700

> <Gold.Chemscore.Metal.Weighted>
-0.0000

> <Gold.Chemscore.Lipo.Weighted>
-9.4064

> <Gold.Chemscore.Internal_Hbond.Weighted>
0.0000

> <Gold.Chemscore.DEClash.Weighted>
3.8119

> <Gold.Chemscore.DEInternal.Weighted>
2.6731

> <Gold.Chemscore.Rot.Weighted>
9.7273

> <Gold.Chemscore.Internal.Correction.Weighted>
   9.000000E+99

> <Gold.Protein.RotatedTorsions>
[ 6907 6896 6895 6894 ] final  150.74 input  -60.11 | X-H torsion
[ 7974 7965 7964 7962 ] final  -89.28 input  175.53 | X-H torsion
[ 8008 7997 7996 7995 ] final  -61.67 input   59.86 | X-H torsion
[ 10167 10162 10161 10158 ] final   11.77 input  -65.29 | X-H torsion
[ 10718 10713 10712 10709 ] final  103.08 input   66.30 | X-H torsion
[ 10763 10752 10751 10750 ] final   -6.10 input  -60.55 | X-H torsion
[ 11005 11000 10999 10996 ] final  149.28 input  -57.11 | X-H torsion

> <Gold.Protein.ActiveResidues>
 VAL166  LYS551  ARG553  GLY616  TRP617  ASP618  TYR619  PRO620  LYS621  CYS622 
 ASP623  PHE694  ASN695  SER759  ASP760  ASP761  ALA762  ILE779  LEU786  VAL792 
 PHE793  MET794  SER795  GLU796  ALA797  LYS798  CYS799  TRP800  GLU811  SER814 

> <Gold.Protein.RotatedAtoms>
  152.1102  133.4296  159.4627 H   0  0  0  0  0  0  0  0  0  0  0  0  # atno 6907 bound_to 6896
  150.6867  134.2657  159.4576 H   0  0  0  0  0  0  0  0  0  0  0  0  # atno 6908 bound_to 6896
  152.0525  134.9644  160.0625 H   0  0  0  0  0  0  0  0  0  0  0  0  # atno 6909 bound_to 6896
  145.4420  140.9559  143.2070 H   0  0  0  0  0  0  0  0  0  0  0  0  # atno 7974 bound_to 7965
  154.4460  140.1012  156.6468 H   0  0  0  0  0  0  0  0  0  0  0  0  # atno 8008 bound_to 7997
  155.5442  140.3484  155.4435 H   0  0  0  0  0  0  0  0  0  0  0  0  # atno 8009 bound_to 7997
  156.0575  140.1318  156.9968 H   0  0  0  0  0  0  0  0  0  0  0  0  # atno 8010 bound_to 7997
  140.6110  143.8407  150.7066 H   0  0  0  0  0  0  0  0  0  0  0  0  # atno 10167 bound_to 10162
  157.6783  131.0770  150.5502 H   0  0  0  0  0  0  0  0  0  0  0  0  # atno 10718 bound_to 10713
  153.4076  135.7007  153.6381 H   0  0  0  0  0  0  0  0  0  0  0  0  # atno 10763 bound_to 10752
  153.4889  135.3677  155.2481 H   0  0  0  0  0  0  0  0  0  0  0  0  # atno 10764 bound_to 10752
  154.8715  135.4084  154.3423 H   0  0  0  0  0  0  0  0  0  0  0  0  # atno 10765 bound_to 10752
  140.1031  134.8971  157.1826 H   0  0  0  0  0  0  0  0  0  0  0  0  # atno 11005 bound_to 11000
  144.8116  139.5952  143.7027 LP  0  0  0  0  0  0  0  0  0  0  0  0  # atno 17320 bound_to 7965
  146.2551  139.6285  142.9400 LP  0  0  0  0  0  0  0  0  0  0  0  0  # atno 17321 bound_to 7965
  140.1975  143.3986  152.1816 LP  0  0  0  0  0  0  0  0  0  0  0  0  # atno 17342 bound_to 10162
  139.5361  144.7211  151.4887 LP  0  0  0  0  0  0  0  0  0  0  0  0  # atno 17343 bound_to 10162
  156.5807  130.4303  149.5979 LP  0  0  0  0  0  0  0  0  0  0  0  0  # atno 17370 bound_to 10713
  156.2664  130.6992  151.1776 LP  0  0  0  0  0  0  0  0  0  0  0  0  # atno 17371 bound_to 10713
  140.3192  134.2935  155.7250 LP  0  0  0  0  0  0  0  0  0  0  0  0  # atno 17394 bound_to 11000
  141.2111  133.7699  156.9887 LP  0  0  0  0  0  0  0  0  0  0  0  0  # atno 17395 bound_to 11000

$$$$
