AV-unprocessed.smi:72|AV-procd|sdf|726|dock5
  -GOLD-   2262017 53D 1   1.00000     0.00000
 Structure written by MMmdl.
 28 29  0  0  0  0  0  0  0  0  2 V2000
  154.2155  138.2245  154.5622 N   0  0  0  0  0  0  0  0  0  0  0  0
  152.9764  138.3489  154.7578 C   0  0  0  0  0  0  0  0  0  0  0  0
  152.0480  137.4219  154.1478 N   0  0  0  0  0  0  0  0  0  0  0  0
  150.7818  137.6034  154.3661 C   0  0  0  0  0  0  0  0  0  0  0  0
  150.2931  138.7060  155.1828 N   0  0  0  0  0  0  0  0  0  0  0  0
  148.8149  138.8968  155.4472 C   0  0  1  0  0  0  0  0  0  0  0  0
  148.5028  140.2593  155.3813 O   0  0  0  0  0  0  0  0  0  0  0  0
  147.3470  140.4585  154.5730 C   0  0  1  0  0  0  0  0  0  0  0  0
  147.3809  141.8642  153.9532 C   0  0  0  0  0  0  0  0  0  0  0  0
  148.6448  142.4583  154.1592 O   0  0  0  0  0  0  0  0  0  0  0  0
  147.4660  139.3334  153.5447 C   0  0  2  0  0  0  0  0  0  0  0  0
  146.2486  139.0488  152.8813 O   0  0  0  0  0  0  0  0  0  0  0  0
  147.9845  138.1679  154.3789 C   0  0  2  0  0  0  0  0  0  0  0  0
  146.9457  137.4136  154.9759 O   0  0  0  0  0  0  0  0  0  0  0  0
  151.2287  139.5793  155.7979 C   0  0  0  0  0  0  0  0  0  0  0  0
  150.7976  140.4730  156.5273 O   0  0  0  0  0  0  0  0  0  0  0  0
  152.5568  139.3836  155.5645 N   0  5  0  0  0  0  0  0  0  0  0  0
  148.6384  138.5478  156.4662 H   0  0  0  0  0  0  0  0  0  0  0  0
  146.4508  140.3096  155.1789 H   0  0  0  0  0  0  0  0  0  0  0  0
  148.2193  139.5983  152.8008 H   0  0  0  0  0  0  0  0  0  0  0  0
  148.6035  137.4921  153.7865 H   0  0  0  0  0  0  0  0  0  0  0  0
  154.7522  138.9308  155.0446 H   0  0  0  0  0  0  0  0  0  0  0  0
  150.0134  136.9446  153.9601 H   0  0  0  0  0  0  0  0  0  0  0  0
  147.1435  141.8342  152.8893 H   0  0  0  0  0  0  0  0  0  0  0  0
  146.6388  142.5033  154.4323 H   0  0  0  0  0  0  0  0  0  0  0  0
  148.5294  143.2348  154.6851 H   0  0  0  0  0  0  0  0  0  0  0  0
  145.7348  139.8410  152.8491 H   0  0  0  0  0  0  0  0  0  0  0  0
  147.3345  136.8000  155.5809 H   0  0  0  0  0  0  0  0  0  0  0  0
  1  2  2  0  0  0  0
  1 22  1  0  0  0  0
  2 17  1  0  0  0  0
  2  3  1  0  0  0  0
  3  4  2  0  0  0  0
  4  5  1  0  0  0  0
  4 23  1  0  0  0  0
  5  6  1  0  0  0  0
  5 15  1  0  0  0  0
  6 18  1  0  0  0  0
  6 13  1  0  0  0  0
  6  7  1  0  0  0  0
  7  8  1  0  0  0  0
  8 19  1  0  0  0  0
  8  9  1  0  0  0  0
  8 11  1  0  0  0  0
  9 10  1  0  0  0  0
  9 24  1  0  0  0  0
  9 25  1  0  0  0  0
 10 26  1  0  0  0  0
 11 20  1  0  0  0  0
 11 12  1  0  0  0  0
 11 13  1  0  0  0  0
 12 27  1  0  0  0  0
 13 21  1  0  0  0  0
 13 14  1  0  0  0  0
 14 28  1  0  0  0  0
 15 16  2  0  0  0  0
 15 17  1  0  0  0  0
M  CHG  1  17  -1
M  END
> <s_m_source_file>
AV-unprocessed.smi

> <i_m_source_file_index>
72

> <i_lp_mmshare_version>
43012

> <i_f3d_flags>
0

> <s_epik_input>
W05IMl1jMW5bY0hdbihjKD1PKW4xKVtDQEBIXTJPW0NASF0oW0NIMl1bT0hdKVtDQEBIXShbT0hdKVtDQEhdMltPSF0=

> <s_epik_cmdline>
J2VwaWtfcHl0aG9uJywgJy1waCcsICc3LjAnLCAnLXRuJywgJzgnLCAnLW1hJywgJzIwMCcsICctbWV0YWxfYmluZGluZycsICctaW1hZScsICc8aW5maWxlLm1hZT4nLCAnLW9tYWUnLCAnPG91dGZpbGUubWFlPic=

> <r_lp_tautomer_probability>
7.17554e-07

> <r_epik_Ionization_Penalty>
12.8705

> <r_epik_Ionization_Penalty_Charging>
5.64144

> <r_epik_Ionization_Penalty_Neutral>
7.22905

> <r_epik_State_Penalty>
3.30104

> <r_epik_Charging_Adjusted_Penalty>
8.94249

> <i_epik_Tot_Q>
-1

> <i_epik_Tot_abs_Q>
1

> <r_epik_Metal_State_Penalty>
0.529074

> <b_epik_Metal_Only>
1

> <s_epik_Chemistry_Notes>
This compound contains an acetal/aminal-like group ( X-CH(R)-Y where X, Y are N, S, or O) that may be acid/base labile, releasing an aldehyde.

> <s_lp_Force_Field>
OPLS_2005

> <r_lp_Energy>
36.315

> <b_lp_Chiralities_Consistent>
1

> <s_lp_Variant>
AV-unprocessed.smi:72-64

> <Gold.Version>
5.8.1

> <Gold.Id.Protein>
6NUR|6NUR_protein|mol2

> <Gold.PLP.Fitness>
40.9487

> <Gold.PLP.PLP>
-26.3989

> <Gold.PLP.part.hbond>
-6.7839

> <Gold.PLP.part.metal>
0.0000

> <Gold.PLP.part.buried>
-6.2153

> <Gold.PLP.part.nonpolar>
-16.1824

> <Gold.PLP.part.repulsive>
0.2943

> <Gold.PLP.ligand.clash>
0.0000

> <Gold.PLP.ligand.torsion>
1.1635

> <Gold.PLP.Chemscore.Hbond>
4.6123

> <Gold.PLP.Chemscore.CHOScore>
1.0060

> <Gold.PLP.Chemscore.Metal>
0.0000

> <Gold.Chemscore.Hbonds>
donor molecule, donor type, donor heavy atom, donor atom, acceptor molecule, acceptor atom, score
      L1  H    10    26       P1  8028  1.00
      L1  H    12    27       P1 10175  0.51
      P1  H  7997  8010       L1    17  1.82
      P1  H  8011  8017       L1    10  0.12
      P1  H 10752 10765       L1     3  0.93
      L1  C     4    23       P1  7948  1.00
      L1  C     4    23       P1  7949  0.01

> <Gold.PLP.Chemscore.Internal.Correction>
0.0219

> <Gold.Rescore>
     Score         DG    S(hbond)    S(metal)    S(lipo)     H(rot)  DE(clash)    DE(int)     intcor
      3.44      -6.55       2.66        0.00      21.47       4.04       0.07       3.03       ----

> <Gold.Chemscore.Fitness>
3.4420

> <Gold.Chemscore.DG>
-6.5481

> <Gold.Chemscore.ZeroCoef>
-5.4800

> <Gold.Chemscore.Hbond>
2.6646

> <Gold.Chemscore.Metal>
0.0000

> <Gold.Chemscore.Lipo>
21.4662

> <Gold.Chemscore.Internal_Hbond>
0.0000

> <Gold.Chemscore.DEClash>
0.0730

> <Gold.Chemscore.DEInternal>
3.0331

> <Gold.Chemscore.Rot>
4.0403

> <Gold.Chemscore.Internal.Correction>
   9.000000E+99

> <Gold.Chemscore.Hbonds>
donor molecule, donor type, donor heavy atom, donor atom, acceptor molecule, acceptor atom, score
      L1  H    10    26       P1  8028  1.00
      L1  H    12    27       P1 10175  0.50
      P1  H  7997  8010       L1    17  0.20
      P1  H  8011  8017       L1    10  0.10
      P1  H 10752 10765       L1     3  0.44

> <Gold.Chemscore.Hbond.Weighted>
-8.8996

> <Gold.Chemscore.Metal.Weighted>
-0.0000

> <Gold.Chemscore.Lipo.Weighted>
-2.5115

> <Gold.Chemscore.Internal_Hbond.Weighted>
0.0000

> <Gold.Chemscore.DEClash.Weighted>
0.0730

> <Gold.Chemscore.DEInternal.Weighted>
3.0331

> <Gold.Chemscore.Rot.Weighted>
10.3431

> <Gold.Chemscore.Internal.Correction.Weighted>
   9.000000E+99

> <Gold.Protein.RotatedTorsions>
[ 6907 6896 6895 6894 ] final   89.53 input  -60.11 | X-H torsion
[ 7974 7965 7964 7962 ] final -169.55 input  175.53 | X-H torsion
[ 8008 7997 7996 7995 ] final   93.63 input   59.86 | X-H torsion
[ 10167 10162 10161 10158 ] final   46.55 input  -65.29 | X-H torsion
[ 10718 10713 10712 10709 ] final -106.88 input   66.30 | X-H torsion
[ 10763 10752 10751 10750 ] final  152.33 input  -60.55 | X-H torsion
[ 11005 11000 10999 10996 ] final  164.24 input  -57.11 | X-H torsion

> <Gold.Protein.ActiveResidues>
 VAL166  LYS551  ARG553  GLY616  TRP617  ASP618  TYR619  PRO620  LYS621  CYS622 
 ASP623  PHE694  ASN695  SER759  ASP760  ASP761  ALA762  ILE779  LEU786  VAL792 
 PHE793  MET794  SER795  GLU796  ALA797  LYS798  CYS799  TRP800  GLU811  SER814 

> <Gold.Protein.RotatedAtoms>
  152.5437  134.1952  159.8689 H   0  0  0  0  0  0  0  0  0  0  0  0  # atno 6907 bound_to 6896
  151.1945  133.4641  159.2603 H   0  0  0  0  0  0  0  0  0  0  0  0  # atno 6908 bound_to 6896
  151.1051  135.0006  159.8522 H   0  0  0  0  0  0  0  0  0  0  0  0  # atno 6909 bound_to 6896
  144.7183  140.2204  143.6317 H   0  0  0  0  0  0  0  0  0  0  0  0  # atno 7974 bound_to 7965
  156.0489  140.3310  155.7328 H   0  0  0  0  0  0  0  0  0  0  0  0  # atno 8008 bound_to 7997
  155.5631  140.0621  157.2841 H   0  0  0  0  0  0  0  0  0  0  0  0  # atno 8009 bound_to 7997
  154.4426  140.1874  156.0791 H   0  0  0  0  0  0  0  0  0  0  0  0  # atno 8010 bound_to 7997
  140.3128  144.2800  150.6196 H   0  0  0  0  0  0  0  0  0  0  0  0  # atno 10167 bound_to 10162
  156.0410  130.5635  150.7743 H   0  0  0  0  0  0  0  0  0  0  0  0  # atno 10718 bound_to 10713
  154.1183  135.2834  155.3214 H   0  0  0  0  0  0  0  0  0  0  0  0  # atno 10763 bound_to 10752
  154.6441  135.5392  153.7827 H   0  0  0  0  0  0  0  0  0  0  0  0  # atno 10764 bound_to 10752
  153.0321  135.6493  154.1338 H   0  0  0  0  0  0  0  0  0  0  0  0  # atno 10765 bound_to 10752
  140.2439  134.8030  157.3437 H   0  0  0  0  0  0  0  0  0  0  0  0  # atno 11005 bound_to 11000
  145.8506  139.2174  143.1774 LP  0  0  0  0  0  0  0  0  0  0  0  0  # atno 17320 bound_to 7965
  146.0263  140.8300  142.9898 LP  0  0  0  0  0  0  0  0  0  0  0  0  # atno 17321 bound_to 7965
  140.5553  143.2200  151.7858 LP  0  0  0  0  0  0  0  0  0  0  0  0  # atno 17342 bound_to 10162
  139.4890  144.4422  151.9752 LP  0  0  0  0  0  0  0  0  0  0  0  0  # atno 17343 bound_to 10162
  157.5228  131.0932  151.0056 LP  0  0  0  0  0  0  0  0  0  0  0  0  # atno 17370 bound_to 10713
  157.0382  130.5738  149.5352 LP  0  0  0  0  0  0  0  0  0  0  0  0  # atno 17371 bound_to 10713
  140.1626  134.4710  155.7884 LP  0  0  0  0  0  0  0  0  0  0  0  0  # atno 17394 bound_to 11000
  141.2208  133.6907  156.7570 LP  0  0  0  0  0  0  0  0  0  0  0  0  # atno 17395 bound_to 11000

$$$$
