AV-unprocessed.smi:54|AV-procd|sdf|535|dock10
  -GOLD-   2262016413D 1   1.00000     0.00000
 Structure written by MMmdl.
 44 46  0  0  0  0  0  0  0  0  1 V2000
  145.7079  137.0476  161.6270 C   0  0  0  0  0  0  0  0  0  0  0  0
  146.6711  135.8821  161.3490 C   0  0  0  0  0  0  0  0  0  0  0  0
  147.3670  135.4127  162.6368 C   0  0  0  0  0  0  0  0  0  0  0  0
  147.7054  136.2800  160.2908 C   0  0  0  0  0  0  0  0  0  0  0  0
  148.4913  137.2126  160.4596 O   0  0  0  0  0  0  0  0  0  0  0  0
  147.7101  135.4784  159.0834 N   0  0  0  0  0  0  0  0  0  0  0  0
  148.5173  135.6630  158.0164 C   0  0  0  0  0  0  0  0  0  0  0  0
  148.5381  136.7988  157.3349 N   0  0  0  0  0  0  0  0  0  0  0  0
  149.4019  136.8195  156.2733 C   0  0  0  0  0  0  0  0  0  0  0  0
  150.2175  135.7772  155.8758 C   0  0  0  0  0  0  0  0  0  0  0  0
  150.9727  136.1478  154.7717 N   0  0  0  0  0  0  0  0  0  0  0  0
  150.5985  137.3718  154.5335 C   0  0  0  0  0  0  0  0  0  0  0  0
  149.6294  137.8566  155.3796 N   0  0  0  0  0  0  0  0  0  0  0  0
  149.0269  139.2350  155.3280 C   0  0  2  0  0  0  0  0  0  0  0  0
  147.7380  139.1826  155.8520 O   0  0  0  0  0  0  0  0  0  0  0  0
  146.7857  139.0882  154.8022 C   0  0  1  0  0  0  0  0  0  0  0  0
  145.4336  139.6434  155.2750 C   0  0  0  0  0  0  0  0  0  0  0  0
  144.3917  139.1466  154.4626 O   0  0  0  0  0  0  0  0  0  0  0  0
  147.4194  139.9190  153.6750 C   0  0  2  0  0  0  0  0  0  0  0  0
  147.0638  139.3890  152.4143 O   0  0  0  0  0  0  0  0  0  0  0  0
  148.9290  139.8064  153.9034 C   0  0  1  0  0  0  0  0  0  0  0  0
  149.5264  141.0852  153.8245 O   0  0  0  0  0  0  0  0  0  0  0  0
  150.1901  134.5340  156.5921 C   0  0  0  0  0  0  0  0  0  0  0  0
  150.8350  133.5116  156.3683 O   0  0  0  0  0  0  0  0  0  0  0  0
  149.2921  134.5608  157.6647 N   0  0  0  0  0  0  0  0  0  0  0  0
  149.6697  139.8236  155.9844 H   0  0  0  0  0  0  0  0  0  0  0  0
  146.6807  138.0460  154.5041 H   0  0  0  0  0  0  0  0  0  0  0  0
  147.0929  140.9581  153.7440 H   0  0  0  0  0  0  0  0  0  0  0  0
  149.4261  139.1505  153.1890 H   0  0  0  0  0  0  0  0  0  0  0  0
  145.2261  137.3925  160.7112 H   0  0  0  0  0  0  0  0  0  0  0  0
  146.2256  137.8991  162.0710 H   0  0  0  0  0  0  0  0  0  0  0  0
  144.9197  136.7452  162.3167 H   0  0  0  0  0  0  0  0  0  0  0  0
  146.0865  135.0487  160.9564 H   0  0  0  0  0  0  0  0  0  0  0  0
  148.0544  134.5893  162.4395 H   0  0  0  0  0  0  0  0  0  0  0  0
  146.6377  135.0606  163.3666 H   0  0  0  0  0  0  0  0  0  0  0  0
  147.9368  136.2183  163.1020 H   0  0  0  0  0  0  0  0  0  0  0  0
  147.1042  134.6711  159.0737 H   0  0  0  0  0  0  0  0  0  0  0  0
  151.0151  137.9529  153.7235 H   0  0  0  0  0  0  0  0  0  0  0  0
  145.2487  139.4026  156.3224 H   0  0  0  0  0  0  0  0  0  0  0  0
  145.4252  140.7301  155.1852 H   0  0  0  0  0  0  0  0  0  0  0  0
  144.0746  139.8498  153.9168 H   0  0  0  0  0  0  0  0  0  0  0  0
  147.6739  139.7166  151.7702 H   0  0  0  0  0  0  0  0  0  0  0  0
  149.3274  141.5583  154.6179 H   0  0  0  0  0  0  0  0  0  0  0  0
  149.2217  133.7194  158.2178 H   0  0  0  0  0  0  0  0  0  0  0  0
  1  2  1  0  0  0  0
  1 30  1  0  0  0  0
  1 31  1  0  0  0  0
  1 32  1  0  0  0  0
  2  3  1  0  0  0  0
  2  4  1  0  0  0  0
  2 33  1  0  0  0  0
  3 34  1  0  0  0  0
  3 35  1  0  0  0  0
  3 36  1  0  0  0  0
  4  5  2  0  0  0  0
  4  6  1  0  0  0  0
  6 37  1  0  0  0  0
  6  7  1  0  0  0  0
  7 25  1  0  0  0  0
  7  8  2  0  0  0  0
  8  9  1  0  0  0  0
  9 13  1  0  0  0  0
  9 10  2  0  0  0  0
 10 11  1  0  0  0  0
 10 23  1  0  0  0  0
 11 12  2  0  0  0  0
 12 13  1  0  0  0  0
 12 38  1  0  0  0  0
 13 14  1  0  0  0  0
 14 26  1  0  0  0  0
 14 21  1  0  0  0  0
 14 15  1  0  0  0  0
 15 16  1  0  0  0  0
 16 27  1  0  0  0  0
 16 17  1  0  0  0  0
 16 19  1  0  0  0  0
 17 18  1  0  0  0  0
 17 39  1  0  0  0  0
 17 40  1  0  0  0  0
 18 41  1  0  0  0  0
 19 28  1  0  0  0  0
 19 20  1  0  0  0  0
 19 21  1  0  0  0  0
 20 42  1  0  0  0  0
 21 29  1  0  0  0  0
 21 22  1  0  0  0  0
 22 43  1  0  0  0  0
 23 24  2  0  0  0  0
 23 25  1  0  0  0  0
 25 44  1  0  0  0  0
M  END
> <s_m_source_file>
AV-unprocessed.smi

> <i_m_source_file_index>
54

> <i_lp_mmshare_version>
43012

> <i_f3d_flags>
0

> <s_epik_input>
W0NIM11bQ0hdKFtDSDNdKUMoPU8pW05IXWMobjEpW25IXWMoPU8pYyhjMTIpbltjSF1uMltDQEBIXTNPW0NASF0oW0NIMl1bT0hdKVtDQEBIXShbT0hdKVtDQEhdM1tPSF0=

> <s_epik_cmdline>
J2VwaWtfcHl0aG9uJywgJy1waCcsICc3LjAnLCAnLXRuJywgJzgnLCAnLW1hJywgJzIwMCcsICctbWV0YWxfYmluZGluZycsICctaW1hZScsICc8aW5maWxlLm1hZT4nLCAnLW9tYWUnLCAnPG91dGZpbGUubWFlPic=

> <r_lp_tautomer_probability>
0.85571

> <r_epik_Ionization_Penalty>
0.0316551

> <r_epik_Ionization_Penalty_Charging>
0.0316043

> <r_epik_Ionization_Penalty_Neutral>
5.07097e-05

> <r_epik_State_Penalty>
3.15494e-07

> <r_epik_Charging_Adjusted_Penalty>
0.0316047

> <i_epik_Tot_Q>
0

> <i_epik_Tot_abs_Q>
0

> <r_epik_Metal_State_Penalty>
0.421206

> <b_epik_Metal_Only>
0

> <s_epik_Chemistry_Notes>
This compound contains an acetal/aminal-like group ( X-CH(R)-Y where X, Y are N, S, or O) that may be acid/base labile, releasing an aldehyde.

> <s_lp_Force_Field>
OPLS_2005

> <r_lp_Energy>
37.5812

> <b_lp_Chiralities_Consistent>
1

> <s_lp_Variant>
AV-unprocessed.smi:54-7

> <Gold.Version>
5.8.1

> <Gold.Id.Protein>
6NUR|6NUR_protein|mol2

> <Gold.PLP.Fitness>
42.0179

> <Gold.PLP.PLP>
-29.6751

> <Gold.PLP.part.hbond>
-7.9107

> <Gold.PLP.part.metal>
0.0000

> <Gold.PLP.part.buried>
-3.7039

> <Gold.PLP.part.nonpolar>
-19.7052

> <Gold.PLP.part.repulsive>
0.3148

> <Gold.PLP.ligand.clash>
0.0000

> <Gold.PLP.ligand.torsion>
1.5349

> <Gold.PLP.Chemscore.Hbond>
5.1258

> <Gold.PLP.Chemscore.CHOScore>
0.0000

> <Gold.PLP.Chemscore.Metal>
0.0000

> <Gold.Chemscore.Hbonds>
donor molecule, donor type, donor heavy atom, donor atom, acceptor molecule, acceptor atom, score
      L1  H    18    41       P1 10175  1.00
      L1  H    20    42       P1  7957  1.00
      P1  H  6931  6943       L1     5  0.70
      P1  H  6934  6947       L1     5  0.21
      P1  H  7989  7998       L1    22  0.27
      P1  H  8011  8017       L1    22  0.91
      P1  H 10752 10765       L1    11  0.98

> <Gold.PLP.Chemscore.Internal.Correction>
0.0352

> <Gold.Rescore>
     Score         DG    S(hbond)    S(metal)    S(lipo)     H(rot)  DE(clash)    DE(int)     intcor
     13.03     -16.02       4.87        0.00      39.61       4.05       0.15       2.84       ----

> <Gold.Chemscore.Fitness>
13.0290

> <Gold.Chemscore.DG>
-16.0220

> <Gold.Chemscore.ZeroCoef>
-5.4800

> <Gold.Chemscore.Hbond>
4.8723

> <Gold.Chemscore.Metal>
0.0000

> <Gold.Chemscore.Lipo>
39.6130

> <Gold.Chemscore.Internal_Hbond>
0.0000

> <Gold.Chemscore.DEClash>
0.1513

> <Gold.Chemscore.DEInternal>
2.8417

> <Gold.Chemscore.Rot>
4.0493

> <Gold.Chemscore.Internal.Correction>
   9.000000E+99

> <Gold.Chemscore.Hbonds>
donor molecule, donor type, donor heavy atom, donor atom, acceptor molecule, acceptor atom, score
      L1  H    18    41       P1 10175  0.96
      L1  H    20    42       P1  7957  0.90
      P1  H  6931  6943       L1     5  0.70
      P1  H  6934  6947       L1     5  0.12
      P1  H  7989  7998       L1    22  0.17
      P1  H  8011  8017       L1    22  0.59
      P1  H 10752 10765       L1    11  0.89

> <Gold.Chemscore.Hbond.Weighted>
-16.2736

> <Gold.Chemscore.Metal.Weighted>
-0.0000

> <Gold.Chemscore.Lipo.Weighted>
-4.6347

> <Gold.Chemscore.Internal_Hbond.Weighted>
0.0000

> <Gold.Chemscore.DEClash.Weighted>
0.1513

> <Gold.Chemscore.DEInternal.Weighted>
2.8417

> <Gold.Chemscore.Rot.Weighted>
10.3662

> <Gold.Chemscore.Internal.Correction.Weighted>
   9.000000E+99

> <Gold.Protein.RotatedTorsions>
[ 6907 6896 6895 6894 ] final   60.90 input  -60.11 | X-H torsion
[ 7974 7965 7964 7962 ] final  132.70 input  175.53 | X-H torsion
[ 8008 7997 7996 7995 ] final  -48.53 input   59.86 | X-H torsion
[ 10167 10162 10161 10158 ] final  -31.49 input  -65.29 | X-H torsion
[ 10718 10713 10712 10709 ] final  146.40 input   66.30 | X-H torsion
[ 10763 10752 10751 10750 ] final  179.47 input  -60.55 | X-H torsion
[ 11005 11000 10999 10996 ] final   80.28 input  -57.11 | X-H torsion

> <Gold.Protein.ActiveResidues>
 VAL166  LYS551  ARG553  GLY616  TRP617  ASP618  TYR619  PRO620  LYS621  CYS622 
 ASP623  PHE694  ASN695  SER759  ASP760  ASP761  ALA762  ILE779  LEU786  VAL792 
 PHE793  MET794  SER795  GLU796  ALA797  LYS798  CYS799  TRP800  GLU811  SER814 

> <Gold.Protein.RotatedAtoms>
  152.4042  134.6234  160.0056 H   0  0  0  0  0  0  0  0  0  0  0  0  # atno 6907 bound_to 6896
  151.6430  133.3319  159.3142 H   0  0  0  0  0  0  0  0  0  0  0  0  # atno 6908 bound_to 6896
  150.7939  134.7026  159.6603 H   0  0  0  0  0  0  0  0  0  0  0  0  # atno 6909 bound_to 6896
  144.9942  139.4376  143.5324 H   0  0  0  0  0  0  0  0  0  0  0  0  # atno 7974 bound_to 7965
  154.4030  140.1319  156.4355 H   0  0  0  0  0  0  0  0  0  0  0  0  # atno 8008 bound_to 7997
  155.7510  140.3488  155.5130 H   0  0  0  0  0  0  0  0  0  0  0  0  # atno 8009 bound_to 7997
  155.8950  140.1009  157.1382 H   0  0  0  0  0  0  0  0  0  0  0  0  # atno 8010 bound_to 7997
  140.7235  143.3766  151.1677 H   0  0  0  0  0  0  0  0  0  0  0  0  # atno 10167 bound_to 10162
  157.3336  131.0924  151.1142 H   0  0  0  0  0  0  0  0  0  0  0  0  # atno 10718 bound_to 10713
  154.5210  135.2794  155.1262 H   0  0  0  0  0  0  0  0  0  0  0  0  # atno 10763 bound_to 10752
  154.2819  135.6283  153.5354 H   0  0  0  0  0  0  0  0  0  0  0  0  # atno 10764 bound_to 10752
  152.9937  135.5653  154.5700 H   0  0  0  0  0  0  0  0  0  0  0  0  # atno 10765 bound_to 10752
  139.9140  134.7908  156.1888 H   0  0  0  0  0  0  0  0  0  0  0  0  # atno 11005 bound_to 11000
  146.3438  139.9291  142.8756 LP  0  0  0  0  0  0  0  0  0  0  0  0  # atno 17320 bound_to 7965
  145.2243  140.9948  143.4027 LP  0  0  0  0  0  0  0  0  0  0  0  0  # atno 17321 bound_to 7965
  139.7348  143.9016  152.3031 LP  0  0  0  0  0  0  0  0  0  0  0  0  # atno 17342 bound_to 10162
  139.8818  144.7014  150.8870 LP  0  0  0  0  0  0  0  0  0  0  0  0  # atno 17343 bound_to 10162
  157.2380  130.6556  149.5878 LP  0  0  0  0  0  0  0  0  0  0  0  0  # atno 17370 bound_to 10713
  155.9699  130.4577  150.5973 LP  0  0  0  0  0  0  0  0  0  0  0  0  # atno 17371 bound_to 10713
  141.0596  133.6848  156.1927 LP  0  0  0  0  0  0  0  0  0  0  0  0  # atno 17394 bound_to 11000
  140.6681  134.4896  157.5586 LP  0  0  0  0  0  0  0  0  0  0  0  0  # atno 17395 bound_to 11000

$$$$
