AV-unprocessed.smi:66|AV-procd|sdf|617|dock4
  -GOLD-   2262016513D 1   1.00000     0.00000
 Structure written by MMmdl.
 28 30  0  0  0  0  0  0  0  0  2 V2000
  152.2446  137.0805  155.4927 O   0  0  0  0  0  0  0  0  0  0  0  0
  152.3182  138.3222  155.6204 C   0  0  0  0  0  0  0  0  0  0  0  0
  153.3374  139.0129  155.3957 O   0  5  0  0  0  0  0  0  0  0  0  0
  151.0439  139.0460  156.0857 C   0  0  2  0  0  0  0  0  0  0  0  0
  149.9507  139.0693  155.0021 C   0  0  0  0  0  0  0  0  0  0  0  0
  150.1669  140.4003  154.2841 C   0  0  1  0  0  0  0  0  0  0  0  0
  149.0028  140.8631  153.6321 O   0  0  0  0  0  0  0  0  0  0  0  0
  150.6096  141.3285  155.4150 C   0  0  0  0  0  0  0  0  0  0  0  0
  151.2954  140.4635  156.3660 N   0  0  0  0  0  0  0  0  0  0  0  0
  151.7615  140.9095  157.5653 C   0  0  0  0  0  0  0  0  0  0  0  0
  152.1395  139.9920  158.4957 N   0  0  0  0  0  0  0  0  0  0  0  0
  152.6071  140.3742  159.6869 C   0  0  0  0  0  0  0  0  0  0  0  0
  152.7789  141.6101  160.1579 N   0  0  0  0  0  0  0  0  0  0  0  0
  152.4042  142.5375  159.2344 C   0  0  0  0  0  0  0  0  0  0  0  0
  152.4396  143.9101  159.3569 N   0  0  0  0  0  0  0  0  0  0  0  0
  151.9660  144.4082  158.1697 C   0  0  0  0  0  0  0  0  0  0  0  0
  151.6296  143.4997  157.2951 N   0  0  0  0  0  0  0  0  0  0  0  0
  151.8904  142.2853  157.9283 C   0  0  0  0  0  0  0  0  0  0  0  0
  152.7622  144.3937  160.1824 H   0  0  0  0  0  0  0  0  0  0  0  0
  150.6540  138.5397  156.9699 H   0  0  0  0  0  0  0  0  0  0  0  0
  149.9893  138.2161  154.3233 H   0  0  0  0  0  0  0  0  0  0  0  0
  148.9718  139.0584  155.4841 H   0  0  0  0  0  0  0  0  0  0  0  0
  150.9705  140.2972  153.5536 H   0  0  0  0  0  0  0  0  0  0  0  0
  149.0466  140.6030  152.7246 H   0  0  0  0  0  0  0  0  0  0  0  0
  151.2615  142.1156  155.0357 H   0  0  0  0  0  0  0  0  0  0  0  0
  149.7509  141.7887  155.9068 H   0  0  0  0  0  0  0  0  0  0  0  0
  152.8817  139.5736  160.3578 H   0  0  0  0  0  0  0  0  0  0  0  0
  151.8787  145.4666  157.9730 H   0  0  0  0  0  0  0  0  0  0  0  0
  1  2  2  0  0  0  0
  2  3  1  0  0  0  0
  2  4  1  0  0  0  0
  4  5  1  0  0  0  0
  4 20  1  0  0  0  0
  4  9  1  0  0  0  0
  5  6  1  0  0  0  0
  5 21  1  0  0  0  0
  5 22  1  0  0  0  0
  6  7  1  0  0  0  0
  6  8  1  0  0  0  0
  6 23  1  0  0  0  0
  7 24  1  0  0  0  0
  8 25  1  0  0  0  0
  8 26  1  0  0  0  0
  8  9  1  0  0  0  0
  9 10  1  0  0  0  0
 10 11  1  0  0  0  0
 10 18  2  0  0  0  0
 11 12  2  0  0  0  0
 12 27  1  0  0  0  0
 12 13  1  0  0  0  0
 13 14  2  0  0  0  0
 14 15  1  0  0  0  0
 14 18  1  0  0  0  0
 15 16  1  0  0  0  0
 15 19  1  0  0  0  0
 16 17  2  0  0  0  0
 16 28  1  0  0  0  0
 17 18  1  0  0  0  0
M  CHG  1   3  -1
M  END
> <s_m_source_file>
AV-unprocessed.smi

> <i_m_source_file_index>
66

> <i_lp_mmshare_version>
43012

> <i_f3d_flags>
0

> <s_epik_input>
Tz1DKFtPSF0pW0NAQEhdMVtDSDJdW0NAQEhdKFtPSF0pW0NIMl1OMWMobltjSF1uMiljKGMyMylbbkhdW2NIXW4z

> <s_epik_cmdline>
J2VwaWtfcHl0aG9uJywgJy1waCcsICc3LjAnLCAnLXRuJywgJzgnLCAnLW1hJywgJzIwMCcsICctbWV0YWxfYmluZGluZycsICctaW1hZScsICc8aW5maWxlLm1hZT4nLCAnLW9tYWUnLCAnPG91dGZpbGUubWFlPic=

> <r_lp_tautomer_probability>
0.955585

> <r_epik_Ionization_Penalty>
0.00455415

> <r_epik_Ionization_Penalty_Charging>
0.000248217

> <r_epik_Ionization_Penalty_Neutral>
0.00430593

> <r_epik_State_Penalty>
0.0207074

> <r_epik_Charging_Adjusted_Penalty>
0.0209557

> <i_epik_Tot_Q>
-1

> <i_epik_Tot_abs_Q>
1

> <r_epik_Metal_State_Penalty>
0.337372

> <b_epik_Metal_Only>
0

> <s_lp_Force_Field>
OPLS_2005

> <r_lp_Energy>
24.8214

> <b_lp_Chiralities_Consistent>
1

> <s_lp_Variant>
AV-unprocessed.smi:66-1

> <Gold.Version>
5.8.1

> <Gold.Id.Protein>
6NUR|6NUR_protein|mol2

> <Gold.PLP.Fitness>
44.6688

> <Gold.PLP.PLP>
-31.5782

> <Gold.PLP.part.hbond>
-3.0000

> <Gold.PLP.part.metal>
0.0000

> <Gold.PLP.part.buried>
-4.1616

> <Gold.PLP.part.nonpolar>
-24.5616

> <Gold.PLP.part.repulsive>
0.2030

> <Gold.PLP.ligand.clash>
0.0000

> <Gold.PLP.ligand.torsion>
0.2147

> <Gold.PLP.Chemscore.Hbond>
4.4720

> <Gold.PLP.Chemscore.CHOScore>
0.0000

> <Gold.PLP.Chemscore.Metal>
0.0000

> <Gold.Chemscore.Hbonds>
donor molecule, donor type, donor heavy atom, donor atom, acceptor molecule, acceptor atom, score
      L1  H     7    24       P1  7957  1.00
      P1  H  7997  8010       L1     3  1.76
      P1  H 10752 10763       L1     1  1.70

> <Gold.PLP.Chemscore.Internal.Correction>
0.1041

> <Gold.Rescore>
     Score         DG    S(hbond)    S(metal)    S(lipo)     H(rot)  DE(clash)    DE(int)     intcor
     12.49     -13.67       2.66        0.00      33.18       1.78       0.21       0.97       ----

> <Gold.Chemscore.Fitness>
12.4879

> <Gold.Chemscore.DG>
-13.6749

> <Gold.Chemscore.ZeroCoef>
-5.4800

> <Gold.Chemscore.Hbond>
2.6587

> <Gold.Chemscore.Metal>
0.0000

> <Gold.Chemscore.Lipo>
33.1823

> <Gold.Chemscore.Internal_Hbond>
0.0000

> <Gold.Chemscore.DEClash>
0.2145

> <Gold.Chemscore.DEInternal>
0.9725

> <Gold.Chemscore.Rot>
1.7842

> <Gold.Chemscore.Internal.Correction>
   9.000000E+99

> <Gold.Chemscore.Hbonds>
donor molecule, donor type, donor heavy atom, donor atom, acceptor molecule, acceptor atom, score
      L1  H     7    24       P1  7957  1.00
      P1  H  7997  8010       L1     3  0.87
      P1  H 10752 10763       L1     1  0.83

> <Gold.Chemscore.Hbond.Weighted>
-8.8802

> <Gold.Chemscore.Metal.Weighted>
-0.0000

> <Gold.Chemscore.Lipo.Weighted>
-3.8823

> <Gold.Chemscore.Internal_Hbond.Weighted>
0.0000

> <Gold.Chemscore.DEClash.Weighted>
0.2145

> <Gold.Chemscore.DEInternal.Weighted>
0.9725

> <Gold.Chemscore.Rot.Weighted>
4.5676

> <Gold.Chemscore.Internal.Correction.Weighted>
   9.000000E+99

> <Gold.Protein.RotatedTorsions>
[ 6907 6896 6895 6894 ] final  107.46 input  -60.11 | X-H torsion
[ 7974 7965 7964 7962 ] final   67.28 input  175.53 | X-H torsion
[ 8008 7997 7996 7995 ] final  116.72 input   59.86 | X-H torsion
[ 10167 10162 10161 10158 ] final   88.46 input  -65.29 | X-H torsion
[ 10718 10713 10712 10709 ] final  -31.08 input   66.30 | X-H torsion
[ 10763 10752 10751 10750 ] final   75.83 input  -60.55 | X-H torsion
[ 11005 11000 10999 10996 ] final  -95.13 input  -57.11 | X-H torsion

> <Gold.Protein.ActiveResidues>
 VAL166  LYS551  ARG553  GLY616  TRP617  ASP618  TYR619  PRO620  LYS621  CYS622 
 ASP623  PHE694  ASN695  SER759  ASP760  ASP761  ALA762  ILE779  LEU786  VAL792 
 PHE793  MET794  SER795  GLU796  ALA797  LYS798  CYS799  TRP800  GLU811  SER814 

> <Gold.Protein.RotatedAtoms>
  152.5153  133.9232  159.7544 H   0  0  0  0  0  0  0  0  0  0  0  0  # atno 6907 bound_to 6896
  150.9599  133.6448  159.2763 H   0  0  0  0  0  0  0  0  0  0  0  0  # atno 6908 bound_to 6896
  151.3697  135.0925  159.9514 H   0  0  0  0  0  0  0  0  0  0  0  0  # atno 6909 bound_to 6896
  145.8166  139.3061  143.1068 H   0  0  0  0  0  0  0  0  0  0  0  0  # atno 7974 bound_to 7965
  156.2455  140.2911  156.0566 H   0  0  0  0  0  0  0  0  0  0  0  0  # atno 8008 bound_to 7997
  155.1822  140.0404  157.2901 H   0  0  0  0  0  0  0  0  0  0  0  0  # atno 8009 bound_to 7997
  154.6252  140.2486  155.7507 H   0  0  0  0  0  0  0  0  0  0  0  0  # atno 8010 bound_to 7997
  139.8671  144.6513  150.8992 H   0  0  0  0  0  0  0  0  0  0  0  0  # atno 10167 bound_to 10162
  156.3918  130.4374  149.7389 H   0  0  0  0  0  0  0  0  0  0  0  0  # atno 10718 bound_to 10713
  153.0682  135.4974  154.8247 H   0  0  0  0  0  0  0  0  0  0  0  0  # atno 10763 bound_to 10752
  154.6984  135.2997  154.9379 H   0  0  0  0  0  0  0  0  0  0  0  0  # atno 10764 bound_to 10752
  154.0111  135.6754  153.4818 H   0  0  0  0  0  0  0  0  0  0  0  0  # atno 10765 bound_to 10752
  141.1450  133.8005  157.0394 H   0  0  0  0  0  0  0  0  0  0  0  0  # atno 11005 bound_to 11000
  145.9720  140.8752  143.0157 LP  0  0  0  0  0  0  0  0  0  0  0  0  # atno 17320 bound_to 7965
  144.6752  140.1959  143.7392 LP  0  0  0  0  0  0  0  0  0  0  0  0  # atno 17321 bound_to 7965
  140.7766  143.3695  151.1676 LP  0  0  0  0  0  0  0  0  0  0  0  0  # atno 17342 bound_to 10162
  139.7319  143.9060  152.3022 LP  0  0  0  0  0  0  0  0  0  0  0  0  # atno 17343 bound_to 10162
  156.4440  130.7874  151.2896 LP  0  0  0  0  0  0  0  0  0  0  0  0  # atno 17370 bound_to 10713
  157.7499  131.0116  150.3352 LP  0  0  0  0  0  0  0  0  0  0  0  0  # atno 17371 bound_to 10713
  140.0703  134.9706  157.1455 LP  0  0  0  0  0  0  0  0  0  0  0  0  # atno 17394 bound_to 11000
  140.3721  134.2379  155.7177 LP  0  0  0  0  0  0  0  0  0  0  0  0  # atno 17395 bound_to 11000

$$$$
