AV-unprocessed.smi:155|AV-procd|sdf|1273|dock2
  -GOLD-   2262018533D 1   1.00000     0.00000
 Structure written by MMmdl.
 63 66  0  0  0  0  0  0  0  0  2 V2000
  151.9495  142.4616  159.5635 C   0  0  0  0  0  0  0  0  0  0  0  0
  151.3677  142.1606  158.2599 N   0  0  0  0  0  0  0  0  0  0  0  0
  150.7849  143.3853  157.7290 C   0  0  0  0  0  0  0  0  0  0  0  0
  150.3312  141.1327  158.3629 C   0  0  0  0  0  0  0  0  0  0  0  0
  149.5764  140.9429  157.0303 C   0  0  0  0  0  0  0  0  0  0  0  0
  150.3318  140.0827  156.0824 N   0  3  2  0  0  0  0  0  0  0  0  0
  151.7808  140.4300  155.9953 C   0  0  0  0  0  0  0  0  0  0  0  0
  152.5497  139.6838  154.8843 C   0  0  0  0  0  0  0  0  0  0  0  0
  152.3622  138.1547  154.9044 C   0  0  0  0  0  0  0  0  0  0  0  0
  150.9550  137.7522  154.8065 N   0  0  0  0  0  0  0  0  0  0  0  0
  150.5053  136.7287  155.5847 C   0  0  0  0  0  0  0  0  0  0  0  0
  151.2888  135.6233  155.6969 N   0  0  0  0  0  0  0  0  0  0  0  0
  150.9096  134.5903  156.4532 C   0  0  0  0  0  0  0  0  0  0  0  0
  149.8009  134.4538  157.1799 N   0  0  0  0  0  0  0  0  0  0  0  0
  149.0053  135.5557  157.0770 C   0  0  0  0  0  0  0  0  0  0  0  0
  149.2732  136.7251  156.3075 C   0  0  0  0  0  0  0  0  0  0  0  0
  148.2287  137.6301  156.4672 N   0  0  0  0  0  0  0  0  0  0  0  0
  147.3899  137.0265  157.2627 C   0  0  0  0  0  0  0  0  0  0  0  0
  147.7776  135.7744  157.6768 N   0  0  0  0  0  0  0  0  0  0  0  0
  147.0425  134.8793  158.5550 C   0  0  0  0  0  0  0  0  0  0  0  0
  145.6467  135.4043  158.9610 C   0  0  1  0  0  0  0  0  0  0  0  0
  144.6407  134.4709  158.6164 O   0  0  0  0  0  0  0  0  0  0  0  0
  145.5068  135.8275  160.4419 C   0  0  1  0  0  0  0  0  0  0  0  0
  145.9915  134.8086  161.4824 C   0  0  0  0  0  0  0  0  0  0  0  0
  146.5346  135.6684  162.6175 C   0  0  0  0  0  0  0  0  0  0  0  0
  146.2643  137.1037  162.1683 C   0  0  0  0  0  0  0  0  0  0  0  0
  146.2243  137.0128  160.7548 O   0  0  0  0  0  0  0  0  0  0  0  0
  150.0207  138.5916  154.0517 C   0  0  0  0  0  0  0  0  0  0  0  0
  149.6597  139.9233  154.7623 C   0  0  0  0  0  0  0  0  0  0  0  0
  152.4490  141.5926  159.9898 H   0  0  0  0  0  0  0  0  0  0  0  0
  151.1911  142.8003  160.2708 H   0  0  0  0  0  0  0  0  0  0  0  0
  152.6992  143.2482  159.4706 H   0  0  0  0  0  0  0  0  0  0  0  0
  150.3636  143.2125  156.7380 H   0  0  0  0  0  0  0  0  0  0  0  0
  151.5457  144.1607  157.6307 H   0  0  0  0  0  0  0  0  0  0  0  0
  149.9925  143.7633  158.3770 H   0  0  0  0  0  0  0  0  0  0  0  0
  150.7810  140.1900  158.6789 H   0  0  0  0  0  0  0  0  0  0  0  0
  149.6217  141.3987  159.1463 H   0  0  0  0  0  0  0  0  0  0  0  0
  148.5897  140.5263  157.2293 H   0  0  0  0  0  0  0  0  0  0  0  0
  149.3931  141.9122  156.5653 H   0  0  0  0  0  0  0  0  0  0  0  0
  151.8884  141.5031  155.8324 H   0  0  0  0  0  0  0  0  0  0  0  0
  152.2548  140.2102  156.9515 H   0  0  0  0  0  0  0  0  0  0  0  0
  152.2759  140.0820  153.9069 H   0  0  0  0  0  0  0  0  0  0  0  0
  153.6123  139.9054  154.9870 H   0  0  0  0  0  0  0  0  0  0  0  0
  152.9132  137.7013  154.0801 H   0  0  0  0  0  0  0  0  0  0  0  0
  152.8076  137.7756  155.8251 H   0  0  0  0  0  0  0  0  0  0  0  0
  151.5934  133.7547  156.4818 H   0  0  0  0  0  0  0  0  0  0  0  0
  146.4597  137.4807  157.5713 H   0  0  0  0  0  0  0  0  0  0  0  0
  146.9388  133.9154  158.0556 H   0  0  0  0  0  0  0  0  0  0  0  0
  147.6501  134.6963  159.4422 H   0  0  0  0  0  0  0  0  0  0  0  0
  145.4499  136.2884  158.3534 H   0  0  0  0  0  0  0  0  0  0  0  0
  144.9727  133.6005  158.7738 H   0  0  0  0  0  0  0  0  0  0  0  0
  144.4531  136.0366  160.6373 H   0  0  0  0  0  0  0  0  0  0  0  0
  145.1786  134.1588  161.8084 H   0  0  0  0  0  0  0  0  0  0  0  0
  146.7861  134.1713  161.0938 H   0  0  0  0  0  0  0  0  0  0  0  0
  146.0661  135.4457  163.5764 H   0  0  0  0  0  0  0  0  0  0  0  0
  147.6076  135.5046  162.7229 H   0  0  0  0  0  0  0  0  0  0  0  0
  145.2971  137.4508  162.5354 H   0  0  0  0  0  0  0  0  0  0  0  0
  147.0299  137.8030  162.5045 H   0  0  0  0  0  0  0  0  0  0  0  0
  150.4782  138.8149  153.0874 H   0  0  0  0  0  0  0  0  0  0  0  0
  149.1188  138.0320  153.8030 H   0  0  0  0  0  0  0  0  0  0  0  0
  148.5773  139.9338  154.8925 H   0  0  0  0  0  0  0  0  0  0  0  0
  149.8865  140.7791  154.1252 H   0  0  0  0  0  0  0  0  0  0  0  0
  150.2912  139.1585  156.4891 H   0  0  0  0  0  0  0  0  0  0  0  0
  1  2  1  0  0  0  0
  1 30  1  0  0  0  0
  1 31  1  0  0  0  0
  1 32  1  0  0  0  0
  2  3  1  0  0  0  0
  2  4  1  0  0  0  0
  3 33  1  0  0  0  0
  3 34  1  0  0  0  0
  3 35  1  0  0  0  0
  4  5  1  0  0  0  0
  4 36  1  0  0  0  0
  4 37  1  0  0  0  0
  5  6  1  0  0  0  0
  5 38  1  0  0  0  0
  5 39  1  0  0  0  0
  6 29  1  0  0  0  0
  6  7  1  0  0  0  0
  6 63  1  0  0  0  0
  7  8  1  0  0  0  0
  7 40  1  0  0  0  0
  7 41  1  0  0  0  0
  8  9  1  0  0  0  0
  8 42  1  0  0  0  0
  8 43  1  0  0  0  0
  9 10  1  0  0  0  0
  9 44  1  0  0  0  0
  9 45  1  0  0  0  0
 10 11  1  0  0  0  0
 10 28  1  0  0  0  0
 11 16  1  0  0  0  0
 11 12  2  0  0  0  0
 12 13  1  0  0  0  0
 13 14  2  0  0  0  0
 13 46  1  0  0  0  0
 14 15  1  0  0  0  0
 15 19  1  0  0  0  0
 15 16  2  0  0  0  0
 16 17  1  0  0  0  0
 17 18  2  0  0  0  0
 18 19  1  0  0  0  0
 18 47  1  0  0  0  0
 19 20  1  0  0  0  0
 20 21  1  0  0  0  0
 20 48  1  0  0  0  0
 20 49  1  0  0  0  0
 21 22  1  0  0  0  0
 21 23  1  0  0  0  0
 21 50  1  0  0  0  0
 22 51  1  0  0  0  0
 23 27  1  0  0  0  0
 23 24  1  0  0  0  0
 23 52  1  0  0  0  0
 24 25  1  0  0  0  0
 24 53  1  0  0  0  0
 24 54  1  0  0  0  0
 25 26  1  0  0  0  0
 25 55  1  0  0  0  0
 25 56  1  0  0  0  0
 26 27  1  0  0  0  0
 26 57  1  0  0  0  0
 26 58  1  0  0  0  0
 28 29  1  0  0  0  0
 28 59  1  0  0  0  0
 28 60  1  0  0  0  0
 29 61  1  0  0  0  0
 29 62  1  0  0  0  0
M  CHG  1   6   1
M  END
> <s_m_source_file>
AV-unprocessed.smi

> <i_m_source_file_index>
155

> <i_lp_mmshare_version>
43012

> <i_f3d_flags>
0

> <s_epik_input>
W0NIM11OKFtDSDNdKVtDSDJdW0NIMl1OMVtDSDJdW0NIMl1bQ0gyXU4oW0NIMl1bQ0gyXTEpYyhuW2NIXW4yKWMoYzIzKW5bY0hdbjNbQ0gyXVtDQEhdKFtPSF0pW0NAQEhdNFtDSDJdW0NIMl1bQ0gyXU80

> <s_epik_cmdline>
J2VwaWtfcHl0aG9uJywgJy1waCcsICc3LjAnLCAnLXRuJywgJzgnLCAnLW1hJywgJzIwMCcsICctbWV0YWxfYmluZGluZycsICctaW1hZScsICc8aW5maWxlLm1hZT4nLCAnLW9tYWUnLCAnPG91dGZpbGUubWFlPic=

> <r_epik_Ionization_Penalty>
0.0619615

> <r_epik_Ionization_Penalty_Charging>
0.0161638

> <r_epik_Ionization_Penalty_Neutral>
0.0457976

> <r_epik_State_Penalty>
0.403408

> <r_epik_Charging_Adjusted_Penalty>
0.419572

> <i_epik_Tot_Q>
1

> <i_epik_Tot_abs_Q>
1

> <r_epik_Metal_State_Penalty>
0.404222

> <b_epik_Metal_Only>
0

> <s_lp_Force_Field>
OPLS_2005

> <r_lp_Energy>
55.0815

> <b_lp_Chiralities_Consistent>
1

> <s_lp_Variant>
AV-unprocessed.smi:155-7

> <Gold.Version>
5.8.1

> <Gold.Id.Protein>
6NUR|6NUR_protein|mol2

> <Gold.PLP.Fitness>
47.1493

> <Gold.PLP.PLP>
-41.8669

> <Gold.PLP.part.hbond>
-3.3986

> <Gold.PLP.part.metal>
0.0000

> <Gold.PLP.part.buried>
-1.4813

> <Gold.PLP.part.nonpolar>
-37.8114

> <Gold.PLP.part.repulsive>
0.1348

> <Gold.PLP.ligand.clash>
0.0000

> <Gold.PLP.ligand.torsion>
1.6844

> <Gold.PLP.Chemscore.Hbond>
2.7436

> <Gold.PLP.Chemscore.CHOScore>
0.0000

> <Gold.PLP.Chemscore.Metal>
0.0000

> <Gold.Chemscore.Hbonds>
donor molecule, donor type, donor heavy atom, donor atom, acceptor molecule, acceptor atom, score
      P1  H  6896  6909       L1    14  0.18
      P1  H  6934  6947       L1    27  0.05
      P1  H 10752 10764       L1    12  1.00

> <Gold.PLP.Chemscore.Internal.Correction>
0.4203

> <Gold.Rescore>
     Score         DG    S(hbond)    S(metal)    S(lipo)     H(rot)  DE(clash)    DE(int)     intcor
     15.47     -17.97       1.98        0.00     107.67       2.63       0.48       2.02       ----

> <Gold.Chemscore.Fitness>
15.4744

> <Gold.Chemscore.DG>
-17.9674

> <Gold.Chemscore.ZeroCoef>
-5.4800

> <Gold.Chemscore.Hbond>
1.9846

> <Gold.Chemscore.Metal>
0.0000

> <Gold.Chemscore.Lipo>
107.6739

> <Gold.Chemscore.Internal_Hbond>
0.0000

> <Gold.Chemscore.DEClash>
0.4761

> <Gold.Chemscore.DEInternal>
2.0168

> <Gold.Chemscore.Rot>
2.6324

> <Gold.Chemscore.Internal.Correction>
   9.000000E+99

> <Gold.Chemscore.Hbonds>
donor molecule, donor type, donor heavy atom, donor atom, acceptor molecule, acceptor atom, score
      P1  H  6896  6909       L1    14  0.05
      P1  H 10752 10764       L1    12  0.86

> <Gold.Chemscore.Hbond.Weighted>
-6.6284

> <Gold.Chemscore.Metal.Weighted>
-0.0000

> <Gold.Chemscore.Lipo.Weighted>
-12.5978

> <Gold.Chemscore.Internal_Hbond.Weighted>
0.0000

> <Gold.Chemscore.DEClash.Weighted>
0.4761

> <Gold.Chemscore.DEInternal.Weighted>
2.0168

> <Gold.Chemscore.Rot.Weighted>
6.7389

> <Gold.Chemscore.Internal.Correction.Weighted>
   9.000000E+99

> <Gold.Protein.RotatedTorsions>
[ 6907 6896 6895 6894 ] final   16.05 input  -60.11 | X-H torsion
[ 7974 7965 7964 7962 ] final -155.22 input  175.53 | X-H torsion
[ 8008 7997 7996 7995 ] final   16.41 input   59.86 | X-H torsion
[ 10167 10162 10161 10158 ] final  -94.93 input  -65.29 | X-H torsion
[ 10718 10713 10712 10709 ] final   71.14 input   66.30 | X-H torsion
[ 10763 10752 10751 10750 ] final  -33.64 input  -60.55 | X-H torsion
[ 11005 11000 10999 10996 ] final   64.96 input  -57.11 | X-H torsion

> <Gold.Protein.ActiveResidues>
 VAL166  LYS551  ARG553  GLY616  TRP617  ASP618  TYR619  PRO620  LYS621  CYS622 
 ASP623  PHE694  ASN695  SER759  ASP760  ASP761  ALA762  ILE779  LEU786  VAL792 
 PHE793  MET794  SER795  GLU796  ALA797  LYS798  CYS799  TRP800  GLU811  SER814 

> <Gold.Protein.RotatedAtoms>
  151.8278  135.0631  160.0432 H   0  0  0  0  0  0  0  0  0  0  0  0  # atno 6907 bound_to 6896
  152.2903  133.5551  159.5562 H   0  0  0  0  0  0  0  0  0  0  0  0  # atno 6908 bound_to 6896
  150.7227  134.0354  159.3789 H   0  0  0  0  0  0  0  0  0  0  0  0  # atno 6909 bound_to 6896
  144.7651  140.4280  143.5948 H   0  0  0  0  0  0  0  0  0  0  0  0  # atno 7974 bound_to 7965
  154.8766  140.2966  155.5450 H   0  0  0  0  0  0  0  0  0  0  0  0  # atno 8008 bound_to 7997
  156.3022  140.2450  156.3696 H   0  0  0  0  0  0  0  0  0  0  0  0  # atno 8009 bound_to 7997
  154.8761  140.0399  157.1743 H   0  0  0  0  0  0  0  0  0  0  0  0  # atno 8010 bound_to 7997
  140.3094  143.3114  152.0164 H   0  0  0  0  0  0  0  0  0  0  0  0  # atno 10167 bound_to 10162
  157.6436  130.9513  150.0748 H   0  0  0  0  0  0  0  0  0  0  0  0  # atno 10718 bound_to 10713
  153.8336  135.6864  153.4811 H   0  0  0  0  0  0  0  0  0  0  0  0  # atno 10763 bound_to 10752
  153.1496  135.4623  154.9615 H   0  0  0  0  0  0  0  0  0  0  0  0  # atno 10764 bound_to 10752
  154.7876  135.3290  154.7797 H   0  0  0  0  0  0  0  0  0  0  0  0  # atno 10765 bound_to 10752
  139.9925  134.6569  156.0066 H   0  0  0  0  0  0  0  0  0  0  0  0  # atno 11005 bound_to 11000
  145.6497  139.1563  143.2869 LP  0  0  0  0  0  0  0  0  0  0  0  0  # atno 17320 bound_to 7965
  146.1750  140.6586  142.9215 LP  0  0  0  0  0  0  0  0  0  0  0  0  # atno 17321 bound_to 7965
  139.4897  144.6396  151.6904 LP  0  0  0  0  0  0  0  0  0  0  0  0  # atno 17342 bound_to 10162
  140.5581  144.0313  150.6157 LP  0  0  0  0  0  0  0  0  0  0  0  0  # atno 17343 bound_to 10162
  156.1741  130.3647  149.9124 LP  0  0  0  0  0  0  0  0  0  0  0  0  # atno 17370 bound_to 10713
  156.7092  130.8963  151.3607 LP  0  0  0  0  0  0  0  0  0  0  0  0  # atno 17371 bound_to 10713
  141.1578  133.6541  156.4217 LP  0  0  0  0  0  0  0  0  0  0  0  0  # atno 17394 bound_to 11000
  140.4881  134.6601  157.5199 LP  0  0  0  0  0  0  0  0  0  0  0  0  # atno 17395 bound_to 11000

$$$$
