AV-unprocessed.smi:1830|AV-procd|sdf|7436|dock3
  -GOLD-   22720 9123D 1   1.00000     0.00000
 Structure written by MMmdl.
 53 56  0  0  0  0  0  0  0  0  2 V2000
  144.6288  135.6725  156.0070 O   0  0  0  0  0  0  0  0  0  0  0  0
  144.0007  134.6368  155.7884 C   0  0  0  0  0  0  0  0  0  0  0  0
  143.0681  134.5235  154.8324 N   0  0  0  0  0  0  0  0  0  0  0  0
  142.6502  135.5973  153.9373 C   0  0  0  0  0  0  0  0  0  0  0  0
  143.1507  135.3666  152.5003 C   0  0  2  0  0  0  0  0  0  0  0  0
  143.0587  133.8863  152.0944 C   0  0  0  0  0  0  0  0  0  0  0  0
  143.5824  133.6625  150.7227 N   0  3  2  0  0  0  0  0  0  0  0  0
  143.7797  132.2268  150.4255 C   0  0  0  0  0  0  0  0  0  0  0  0
  145.2648  131.9219  150.6945 C   0  0  0  0  0  0  0  0  0  0  0  0
  145.9169  133.2738  151.0070 C   0  0  0  0  0  0  0  0  0  0  0  0
  144.9002  134.2942  150.4944 C   0  0  2  0  0  0  0  0  0  0  0  0
  145.0072  135.7119  151.0909 C   0  0  0  0  0  0  0  0  0  0  0  0
  144.5204  135.7411  152.4238 O   0  0  0  0  0  0  0  0  0  0  0  0
  144.1317  133.4905  156.4760 N   0  0  0  0  0  0  0  0  0  0  0  0
  144.9635  133.2310  157.6018 C   0  0  0  0  0  0  0  0  0  0  0  0
  146.2729  133.7629  157.6969 C   0  0  0  0  0  0  0  0  0  0  0  0
  147.0460  133.4926  158.8390 C   0  0  0  0  0  0  0  0  0  0  0  0
  146.4832  132.6946  159.8487 C   0  0  0  0  0  0  0  0  0  0  0  0
  145.2469  132.1644  159.7645 N   0  0  0  0  0  0  0  0  0  0  0  0
  144.4947  132.4030  158.6619 C   0  0  0  0  0  0  0  0  0  0  0  0
  143.2153  131.8032  158.6187 N   0  0  0  0  0  0  0  0  0  0  0  0
  142.2123  132.1247  159.6285 C   0  0  0  0  0  0  0  0  0  0  0  0
  141.1596  131.0270  159.5032 C   0  0  0  0  0  0  0  0  0  0  0  0
  142.0047  129.8055  159.1568 C   0  0  0  0  0  0  0  0  0  0  0  0
  143.1373  130.3807  158.3002 C   0  0  0  0  0  0  0  0  0  0  0  0
  142.6047  133.6332  154.7240 H   0  0  0  0  0  0  0  0  0  0  0  0
  141.5658  135.7192  153.9553 H   0  0  0  0  0  0  0  0  0  0  0  0
  143.0692  136.5257  154.3264 H   0  0  0  0  0  0  0  0  0  0  0  0
  142.5558  135.9754  151.8164 H   0  0  0  0  0  0  0  0  0  0  0  0
  143.6210  133.2811  152.8079 H   0  0  0  0  0  0  0  0  0  0  0  0
  142.0238  133.5446  152.1378 H   0  0  0  0  0  0  0  0  0  0  0  0
  143.1087  131.5835  150.9969 H   0  0  0  0  0  0  0  0  0  0  0  0
  143.5597  132.0645  149.3697 H   0  0  0  0  0  0  0  0  0  0  0  0
  145.3882  131.2309  151.5291 H   0  0  0  0  0  0  0  0  0  0  0  0
  145.7213  131.4619  149.8174 H   0  0  0  0  0  0  0  0  0  0  0  0
  146.0484  133.3800  152.0848 H   0  0  0  0  0  0  0  0  0  0  0  0
  146.8958  133.3870  150.5402 H   0  0  0  0  0  0  0  0  0  0  0  0
  145.0348  134.3712  149.4141 H   0  0  0  0  0  0  0  0  0  0  0  0
  146.0435  136.0505  151.0797 H   0  0  0  0  0  0  0  0  0  0  0  0
  144.4420  136.4222  150.4853 H   0  0  0  0  0  0  0  0  0  0  0  0
  143.4803  132.7554  156.2434 H   0  0  0  0  0  0  0  0  0  0  0  0
  146.6985  134.3668  156.9101 H   0  0  0  0  0  0  0  0  0  0  0  0
  148.0456  133.8892  158.9385 H   0  0  0  0  0  0  0  0  0  0  0  0
  147.0423  132.4688  160.7444 H   0  0  0  0  0  0  0  0  0  0  0  0
  142.6452  132.0974  160.6294 H   0  0  0  0  0  0  0  0  0  0  0  0
  141.7870  133.1154  159.4652 H   0  0  0  0  0  0  0  0  0  0  0  0
  140.5702  130.8967  160.4109 H   0  0  0  0  0  0  0  0  0  0  0  0
  140.4776  131.2541  158.6826 H   0  0  0  0  0  0  0  0  0  0  0  0
  142.4174  129.3763  160.0709 H   0  0  0  0  0  0  0  0  0  0  0  0
  141.4397  129.0262  158.6447 H   0  0  0  0  0  0  0  0  0  0  0  0
  142.8932  130.2716  157.2433 H   0  0  0  0  0  0  0  0  0  0  0  0
  144.0797  129.8639  158.4867 H   0  0  0  0  0  0  0  0  0  0  0  0
  142.9139  134.0543  150.0747 H   0  0  0  0  0  0  0  0  0  0  0  0
  1  2  2  0  0  0  0
  2  3  1  0  0  0  0
  2 14  1  0  0  0  0
  3  4  1  0  0  0  0
  3 26  1  0  0  0  0
  4  5  1  0  0  0  0
  4 27  1  0  0  0  0
  4 28  1  0  0  0  0
  5 13  1  0  0  0  0
  5  6  1  0  0  0  0
  5 29  1  0  0  0  0
  6  7  1  0  0  0  0
  6 30  1  0  0  0  0
  6 31  1  0  0  0  0
  7 11  1  0  0  0  0
  7  8  1  0  0  0  0
  7 53  1  0  0  0  0
  8  9  1  0  0  0  0
  8 32  1  0  0  0  0
  8 33  1  0  0  0  0
  9 10  1  0  0  0  0
  9 34  1  0  0  0  0
  9 35  1  0  0  0  0
 10 11  1  0  0  0  0
 10 36  1  0  0  0  0
 10 37  1  0  0  0  0
 11 12  1  0  0  0  0
 11 38  1  0  0  0  0
 12 13  1  0  0  0  0
 12 39  1  0  0  0  0
 12 40  1  0  0  0  0
 14 15  1  0  0  0  0
 14 41  1  0  0  0  0
 15 20  1  0  0  0  0
 15 16  2  0  0  0  0
 16 17  1  0  0  0  0
 16 42  1  0  0  0  0
 17 18  2  0  0  0  0
 17 43  1  0  0  0  0
 18 19  1  0  0  0  0
 18 44  1  0  0  0  0
 19 20  2  0  0  0  0
 20 21  1  0  0  0  0
 21 25  1  0  0  0  0
 21 22  1  0  0  0  0
 22 23  1  0  0  0  0
 22 45  1  0  0  0  0
 22 46  1  0  0  0  0
 23 24  1  0  0  0  0
 23 47  1  0  0  0  0
 23 48  1  0  0  0  0
 24 25  1  0  0  0  0
 24 49  1  0  0  0  0
 24 50  1  0  0  0  0
 25 51  1  0  0  0  0
 25 52  1  0  0  0  0
M  CHG  1   7   1
M  END
> <s_m_source_file>
AV-unprocessed.smi

> <i_m_source_file_index>
1830

> <i_lp_mmshare_version>
43012

> <i_f3d_flags>
0

> <s_epik_input>
W0NIMl0xW0NIMl1bQ0gyXVtDQEhdKE4xMilbQ0gyXU9bQ0BASF0oW0NIMl0yKVtDSDJdW05IXUMoPU8pW05IXWMzW2NIXVtjSF1bY0hdbmMzTjRbQ0gyXVtDSDJdW0NIMl1bQ0gyXTQ=

> <s_epik_cmdline>
J2VwaWtfcHl0aG9uJywgJy1waCcsICc3LjAnLCAnLXRuJywgJzgnLCAnLW1hJywgJzIwMCcsICctbWV0YWxfYmluZGluZycsICctaW1hZScsICc8aW5maWxlLm1hZT4nLCAnLW9tYWUnLCAnPG91dGZpbGUubWFlPic=

> <r_lp_tautomer_probability>
1

> <r_epik_Ionization_Penalty>
0.193547

> <r_epik_Ionization_Penalty_Charging>
0.10673

> <r_epik_Ionization_Penalty_Neutral>
0.0868166

> <r_epik_State_Penalty>
0.173595

> <r_epik_Charging_Adjusted_Penalty>
0.280326

> <i_epik_Tot_Q>
1

> <i_epik_Tot_abs_Q>
1

> <r_epik_Metal_State_Penalty>
0.164683

> <b_epik_Metal_Only>
0

> <s_lp_Force_Field>
OPLS_2005

> <r_lp_Energy>
65.0875

> <b_lp_Chiralities_Consistent>
1

> <s_lp_Variant>
AV-unprocessed.smi:1830-5

> <Gold.Version>
5.8.1

> <Gold.Id.Protein>
6NUR|6NUR_protein|mol2

> <Gold.PLP.Fitness>
45.5200

> <Gold.PLP.PLP>
-35.0498

> <Gold.PLP.part.hbond>
-3.1743

> <Gold.PLP.part.metal>
0.0000

> <Gold.PLP.part.buried>
-6.4318

> <Gold.PLP.part.nonpolar>
-25.4323

> <Gold.PLP.part.repulsive>
0.2313

> <Gold.PLP.ligand.clash>
0.0000

> <Gold.PLP.ligand.torsion>
0.7615

> <Gold.PLP.Chemscore.Hbond>
3.8880

> <Gold.PLP.Chemscore.CHOScore>
0.0000

> <Gold.PLP.Chemscore.Metal>
0.0000

> <Gold.Chemscore.Hbonds>
donor molecule, donor type, donor heavy atom, donor atom, acceptor molecule, acceptor atom, score
      L1  H     3    26       P1 10957  1.00
      L1  H     7    53       P1 10186  2.00
      L1  H    14    41       P1 10957  0.93

> <Gold.PLP.Chemscore.Internal.Correction>
0.3291

> <Gold.Rescore>
     Score         DG    S(hbond)    S(metal)    S(lipo)     H(rot)  DE(clash)    DE(int)     intcor
     19.52     -21.18       2.86        0.00      83.41       1.41       0.09       1.57       ----

> <Gold.Chemscore.Fitness>
19.5168

> <Gold.Chemscore.DG>
-21.1775

> <Gold.Chemscore.ZeroCoef>
-5.4800

> <Gold.Chemscore.Hbond>
2.8563

> <Gold.Chemscore.Metal>
0.0000

> <Gold.Chemscore.Lipo>
83.4065

> <Gold.Chemscore.Internal_Hbond>
0.0000

> <Gold.Chemscore.DEClash>
0.0939

> <Gold.Chemscore.DEInternal>
1.5667

> <Gold.Chemscore.Rot>
1.4067

> <Gold.Chemscore.Internal.Correction>
   9.000000E+99

> <Gold.Chemscore.Hbonds>
donor molecule, donor type, donor heavy atom, donor atom, acceptor molecule, acceptor atom, score
      L1  H     3    26       P1 10957  0.94
      L1  H     7    53       P1 10186  0.89
      L1  H    14    41       P1 10957  0.89

> <Gold.Chemscore.Hbond.Weighted>
-9.5400

> <Gold.Chemscore.Metal.Weighted>
-0.0000

> <Gold.Chemscore.Lipo.Weighted>
-9.7586

> <Gold.Chemscore.Internal_Hbond.Weighted>
0.0000

> <Gold.Chemscore.DEClash.Weighted>
0.0939

> <Gold.Chemscore.DEInternal.Weighted>
1.5667

> <Gold.Chemscore.Rot.Weighted>
3.6011

> <Gold.Chemscore.Internal.Correction.Weighted>
   9.000000E+99

> <Gold.Protein.RotatedTorsions>
[ 6907 6896 6895 6894 ] final   51.65 input  -60.11 | X-H torsion
[ 7974 7965 7964 7962 ] final   -5.67 input  175.53 | X-H torsion
[ 8008 7997 7996 7995 ] final  -51.36 input   59.86 | X-H torsion
[ 10167 10162 10161 10158 ] final  -25.74 input  -65.29 | X-H torsion
[ 10718 10713 10712 10709 ] final  135.80 input   66.30 | X-H torsion
[ 10763 10752 10751 10750 ] final  -57.21 input  -60.55 | X-H torsion
[ 11005 11000 10999 10996 ] final -173.76 input  -57.11 | X-H torsion

> <Gold.Protein.ActiveResidues>
 VAL166  LYS551  ARG553  GLY616  TRP617  ASP618  TYR619  PRO620  LYS621  CYS622 
 ASP623  PHE694  ASN695  SER759  ASP760  ASP761  ALA762  ILE779  LEU786  VAL792 
 PHE793  MET794  SER795  GLU796  ALA797  LYS798  CYS799  TRP800  GLU811  SER814 

> <Gold.Protein.RotatedAtoms>
  152.3150  134.7451  160.0327 H   0  0  0  0  0  0  0  0  0  0  0  0  # atno 6907 bound_to 6896
  151.7919  133.3355  159.3509 H   0  0  0  0  0  0  0  0  0  0  0  0  # atno 6908 bound_to 6896
  150.7339  134.5765  159.5961 H   0  0  0  0  0  0  0  0  0  0  0  0  # atno 6909 bound_to 6896
  146.2348  140.2056  142.8334 H   0  0  0  0  0  0  0  0  0  0  0  0  # atno 7974 bound_to 7965
  154.4081  140.1250  156.4816 H   0  0  0  0  0  0  0  0  0  0  0  0  # atno 8008 bound_to 7997
  155.7079  140.3494  155.4941 H   0  0  0  0  0  0  0  0  0  0  0  0  # atno 8009 bound_to 7997
  155.9326  140.1072  157.1110 H   0  0  0  0  0  0  0  0  0  0  0  0  # atno 8010 bound_to 7997
  140.7285  143.4238  151.0908 H   0  0  0  0  0  0  0  0  0  0  0  0  # atno 10167 bound_to 10162
  157.4533  131.1068  151.0007 H   0  0  0  0  0  0  0  0  0  0  0  0  # atno 10718 bound_to 10713
  154.2188  135.6381  153.5138 H   0  0  0  0  0  0  0  0  0  0  0  0  # atno 10763 bound_to 10752
  152.9973  135.5492  154.6136 H   0  0  0  0  0  0  0  0  0  0  0  0  # atno 10764 bound_to 10752
  154.5591  135.2907  155.0910 H   0  0  0  0  0  0  0  0  0  0  0  0  # atno 10765 bound_to 10752
  140.4821  134.6066  157.4923 H   0  0  0  0  0  0  0  0  0  0  0  0  # atno 11005 bound_to 11000
  144.9747  140.8403  143.5434 LP  0  0  0  0  0  0  0  0  0  0  0  0  # atno 17320 bound_to 7965
  145.2042  139.2237  143.5177 LP  0  0  0  0  0  0  0  0  0  0  0  0  # atno 17321 bound_to 7965
  139.7887  143.8249  152.3148 LP  0  0  0  0  0  0  0  0  0  0  0  0  # atno 17342 bound_to 10162
  139.8226  144.7289  150.9553 LP  0  0  0  0  0  0  0  0  0  0  0  0  # atno 17343 bound_to 10162
  157.0829  130.5910  149.5424 LP  0  0  0  0  0  0  0  0  0  0  0  0  # atno 17370 bound_to 10713
  155.9996  130.5073  150.7614 LP  0  0  0  0  0  0  0  0  0  0  0  0  # atno 17371 bound_to 10713
  139.9820  134.7122  155.9842 LP  0  0  0  0  0  0  0  0  0  0  0  0  # atno 17394 bound_to 11000
  141.1526  133.6546  156.4061 LP  0  0  0  0  0  0  0  0  0  0  0  0  # atno 17395 bound_to 11000

$$$$
