AV-unprocessed.smi:244|AV-procd|sdf|1866|dock4
  -GOLD-   2262020503D 1   1.00000     0.00000
 Structure written by MMmdl.
 57 61  0  0  0  0  0  0  0  0  2 V2000
  148.5027  138.0228  154.8966 C   0  0  0  0  0  0  0  0  0  0  0  0
  149.7639  137.6521  154.2136 N   0  3  1  0  0  0  0  0  0  0  0  0
  150.6218  138.8127  153.8677 C   0  0  0  0  0  0  0  0  0  0  0  0
  151.3788  139.3498  155.0923 C   0  0  0  0  0  0  0  0  0  0  0  0
  152.2129  138.2326  155.7501 C   0  0  1  0  0  0  0  0  0  0  0  0
  152.9466  138.6957  156.8844 O   0  0  0  0  0  0  0  0  0  0  0  0
  152.1489  138.9848  158.0288 C   0  0  0  0  0  0  0  0  0  0  0  0
  151.3521  137.7390  158.4345 C   0  0  0  0  0  0  0  0  0  0  0  0
  150.5573  137.2498  157.3141 N   0  0  0  0  0  0  0  0  0  0  0  0
  149.7123  136.2761  157.7275 C   0  0  0  0  0  0  0  0  0  0  0  0
  149.9330  134.9794  157.3838 N   0  0  0  0  0  0  0  0  0  0  0  0
  149.0929  134.0264  157.7993 C   0  0  0  0  0  0  0  0  0  0  0  0
  147.9952  134.1505  158.5488 N   0  0  0  0  0  0  0  0  0  0  0  0
  147.7782  135.4499  158.9019 C   0  0  0  0  0  0  0  0  0  0  0  0
  148.5866  136.5634  158.5430 C   0  0  0  0  0  0  0  0  0  0  0  0
  148.0635  137.7299  159.0843 N   0  0  0  0  0  0  0  0  0  0  0  0
  146.9993  137.3292  159.7253 C   0  0  0  0  0  0  0  0  0  0  0  0
  146.7448  135.9773  159.6565 N   0  0  0  0  0  0  0  0  0  0  0  0
  145.6274  135.2711  160.2653 C   0  0  0  0  0  0  0  0  0  0  0  0
  145.8027  135.0029  161.7853 C   0  0  0  0  0  0  0  0  0  0  0  0
  145.0511  133.8459  162.1048 O   0  0  0  0  0  0  0  0  0  0  0  0
  147.2625  134.7401  162.2143 C   0  0  0  0  0  0  0  0  0  0  0  0
  148.0929  136.0357  162.2027 C   0  0  0  0  0  0  0  0  0  0  0  0
  147.4844  137.0076  163.0459 O   0  0  0  0  0  0  0  0  0  0  0  0
  146.1812  137.3833  162.6139 C   0  0  0  0  0  0  0  0  0  0  0  0
  145.2458  136.1609  162.6371 C   0  0  0  0  0  0  0  0  0  0  0  0
  151.3523  136.9963  156.1057 C   0  0  1  0  0  0  0  0  0  0  0  0
  150.5186  136.5501  154.8693 C   0  0  0  0  0  0  0  0  0  0  0  0
  148.6834  138.5331  155.8416 H   0  0  0  0  0  0  0  0  0  0  0  0
  147.8967  137.1386  155.0973 H   0  0  0  0  0  0  0  0  0  0  0  0
  147.9142  138.6896  154.2664 H   0  0  0  0  0  0  0  0  0  0  0  0
  151.3379  138.4973  153.1077 H   0  0  0  0  0  0  0  0  0  0  0  0
  150.0193  139.6003  153.4137 H   0  0  0  0  0  0  0  0  0  0  0  0
  152.0333  140.1675  154.7902 H   0  0  0  0  0  0  0  0  0  0  0  0
  150.6642  139.7760  155.7947 H   0  0  0  0  0  0  0  0  0  0  0  0
  152.9599  137.9181  155.0202 H   0  0  0  0  0  0  0  0  0  0  0  0
  152.8069  139.2842  158.8447 H   0  0  0  0  0  0  0  0  0  0  0  0
  151.4867  139.8299  157.8434 H   0  0  0  0  0  0  0  0  0  0  0  0
  152.0352  136.9539  158.7623 H   0  0  0  0  0  0  0  0  0  0  0  0
  150.7083  137.9777  159.2825 H   0  0  0  0  0  0  0  0  0  0  0  0
  149.3332  133.0213  157.4851 H   0  0  0  0  0  0  0  0  0  0  0  0
  146.3596  138.0143  160.2632 H   0  0  0  0  0  0  0  0  0  0  0  0
  144.7221  135.8466  160.0738 H   0  0  0  0  0  0  0  0  0  0  0  0
  145.4976  134.3279  159.7327 H   0  0  0  0  0  0  0  0  0  0  0  0
  145.5000  133.3765  162.7913 H   0  0  0  0  0  0  0  0  0  0  0  0
  147.2772  134.3396  163.2291 H   0  0  0  0  0  0  0  0  0  0  0  0
  147.7325  133.9810  161.5892 H   0  0  0  0  0  0  0  0  0  0  0  0
  149.0991  135.8344  162.5704 H   0  0  0  0  0  0  0  0  0  0  0  0
  148.2007  136.4328  161.1932 H   0  0  0  0  0  0  0  0  0  0  0  0
  145.8003  138.1536  163.2846 H   0  0  0  0  0  0  0  0  0  0  0  0
  146.2291  137.8305  161.6207 H   0  0  0  0  0  0  0  0  0  0  0  0
  144.2475  136.4429  162.3003 H   0  0  0  0  0  0  0  0  0  0  0  0
  145.1376  135.8361  163.6732 H   0  0  0  0  0  0  0  0  0  0  0  0
  152.0388  136.1846  156.3519 H   0  0  0  0  0  0  0  0  0  0  0  0
  149.8476  135.7213  155.0935 H   0  0  0  0  0  0  0  0  0  0  0  0
  151.2109  136.1590  154.1227 H   0  0  0  0  0  0  0  0  0  0  0  0
  149.4618  137.2708  153.3283 H   0  0  0  0  0  0  0  0  0  0  0  0
  1  2  1  0  0  0  0
  1 29  1  0  0  0  0
  1 30  1  0  0  0  0
  1 31  1  0  0  0  0
  2 28  1  0  0  0  0
  2  3  1  0  0  0  0
  2 57  1  0  0  0  0
  3  4  1  0  0  0  0
  3 32  1  0  0  0  0
  3 33  1  0  0  0  0
  4  5  1  0  0  0  0
  4 34  1  0  0  0  0
  4 35  1  0  0  0  0
  5 27  1  0  0  0  0
  5  6  1  0  0  0  0
  5 36  1  0  0  0  0
  6  7  1  0  0  0  0
  7  8  1  0  0  0  0
  7 37  1  0  0  0  0
  7 38  1  0  0  0  0
  8  9  1  0  0  0  0
  8 39  1  0  0  0  0
  8 40  1  0  0  0  0
  9 10  1  0  0  0  0
  9 27  1  0  0  0  0
 10 15  1  0  0  0  0
 10 11  2  0  0  0  0
 11 12  1  0  0  0  0
 12 13  2  0  0  0  0
 12 41  1  0  0  0  0
 13 14  1  0  0  0  0
 14 18  1  0  0  0  0
 14 15  2  0  0  0  0
 15 16  1  0  0  0  0
 16 17  2  0  0  0  0
 17 18  1  0  0  0  0
 17 42  1  0  0  0  0
 18 19  1  0  0  0  0
 19 20  1  0  0  0  0
 19 43  1  0  0  0  0
 19 44  1  0  0  0  0
 20 26  1  0  0  0  0
 20 21  1  0  0  0  0
 20 22  1  0  0  0  0
 21 45  1  0  0  0  0
 22 23  1  0  0  0  0
 22 46  1  0  0  0  0
 22 47  1  0  0  0  0
 23 24  1  0  0  0  0
 23 48  1  0  0  0  0
 23 49  1  0  0  0  0
 24 25  1  0  0  0  0
 25 26  1  0  0  0  0
 25 50  1  0  0  0  0
 25 51  1  0  0  0  0
 26 52  1  0  0  0  0
 26 53  1  0  0  0  0
 27 28  1  0  0  0  0
 27 54  1  0  0  0  0
 28 55  1  0  0  0  0
 28 56  1  0  0  0  0
M  CHG  1   2   1
M  END
> <s_m_source_file>
AV-unprocessed.smi

> <i_m_source_file_index>
244

> <i_lp_mmshare_version>
43012

> <i_f3d_flags>
0

> <s_epik_input>
W0NIMl0xW0NIMl1OKFtDSDNdKVtDSDJdW0NAQEhdKFtDQEhdMTIpTihbQ0gyXVtDSDJdTzIpYyhuW2NIXW4zKWMoYzM0KW5bY0hdbjRbQ0gyXUM1KFtPSF0pW0NIMl1bQ0gyXU9bQ0gyXVtDSDJdNQ==

> <s_epik_cmdline>
J2VwaWtfcHl0aG9uJywgJy1waCcsICc3LjAnLCAnLXRuJywgJzgnLCAnLW1hJywgJzIwMCcsICctbWV0YWxfYmluZGluZycsICctaW1hZScsICc8aW5maWxlLm1hZT4nLCAnLW9tYWUnLCAnPG91dGZpbGUubWFlPic=

> <r_lp_tautomer_probability>
1

> <r_epik_Ionization_Penalty>
0.0136215

> <r_epik_Ionization_Penalty_Charging>
0.0131385

> <r_epik_Ionization_Penalty_Neutral>
0.000483022

> <r_epik_State_Penalty>
0.0104001

> <r_epik_Charging_Adjusted_Penalty>
0.0235387

> <i_epik_Tot_Q>
1

> <i_epik_Tot_abs_Q>
1

> <r_epik_Metal_State_Penalty>
0.0104469

> <b_epik_Metal_Only>
0

> <s_lp_Force_Field>
OPLS_2005

> <r_lp_Energy>
49.6468

> <b_lp_Chiralities_Consistent>
1

> <s_lp_Variant>
AV-unprocessed.smi:244-3

> <Gold.Version>
5.8.1

> <Gold.Id.Protein>
6NUR|6NUR_protein|mol2

> <Gold.PLP.Fitness>
39.9250

> <Gold.PLP.PLP>
-33.2024

> <Gold.PLP.part.hbond>
-4.8718

> <Gold.PLP.part.metal>
0.0000

> <Gold.PLP.part.buried>
-1.9061

> <Gold.PLP.part.nonpolar>
-25.5330

> <Gold.PLP.part.repulsive>
0.0339

> <Gold.PLP.ligand.clash>
0.0000

> <Gold.PLP.ligand.torsion>
1.2144

> <Gold.PLP.Chemscore.Hbond>
3.0000

> <Gold.PLP.Chemscore.CHOScore>
0.0000

> <Gold.PLP.Chemscore.Metal>
0.0000

> <Gold.Chemscore.Hbonds>
donor molecule, donor type, donor heavy atom, donor atom, acceptor molecule, acceptor atom, score
      L1  H     2    57       P1  7948  2.00
      P1  H  7997  8008       L1     6  1.00

> <Gold.PLP.Chemscore.Internal.Correction>
0.1514

> <Gold.Rescore>
     Score         DG    S(hbond)    S(metal)    S(lipo)     H(rot)  DE(clash)    DE(int)     intcor
     13.60     -16.67       1.90        0.00      87.04       2.09       0.26       2.80       ----

> <Gold.Chemscore.Fitness>
13.6002

> <Gold.Chemscore.DG>
-16.6663

> <Gold.Chemscore.ZeroCoef>
-5.4800

> <Gold.Chemscore.Hbond>
1.9030

> <Gold.Chemscore.Metal>
0.0000

> <Gold.Chemscore.Lipo>
87.0360

> <Gold.Chemscore.Internal_Hbond>
0.0000

> <Gold.Chemscore.DEClash>
0.2641

> <Gold.Chemscore.DEInternal>
2.8020

> <Gold.Chemscore.Rot>
2.0911

> <Gold.Chemscore.Internal.Correction>
   9.000000E+99

> <Gold.Chemscore.Hbonds>
donor molecule, donor type, donor heavy atom, donor atom, acceptor molecule, acceptor atom, score
      L1  H     2    57       P1  7948  0.91
      P1  H  7997  8008       L1     6  0.76

> <Gold.Chemscore.Hbond.Weighted>
-6.3562

> <Gold.Chemscore.Metal.Weighted>
-0.0000

> <Gold.Chemscore.Lipo.Weighted>
-10.1832

> <Gold.Chemscore.Internal_Hbond.Weighted>
0.0000

> <Gold.Chemscore.DEClash.Weighted>
0.2641

> <Gold.Chemscore.DEInternal.Weighted>
2.8020

> <Gold.Chemscore.Rot.Weighted>
5.3531

> <Gold.Chemscore.Internal.Correction.Weighted>
   9.000000E+99

> <Gold.Protein.RotatedTorsions>
[ 6907 6896 6895 6894 ] final  167.62 input  -60.11 | X-H torsion
[ 7974 7965 7964 7962 ] final    5.75 input  175.53 | X-H torsion
[ 8008 7997 7996 7995 ] final  -58.62 input   59.86 | X-H torsion
[ 10167 10162 10161 10158 ] final  -44.45 input  -65.29 | X-H torsion
[ 10718 10713 10712 10709 ] final  144.05 input   66.30 | X-H torsion
[ 10763 10752 10751 10750 ] final -170.62 input  -60.55 | X-H torsion
[ 11005 11000 10999 10996 ] final  -72.91 input  -57.11 | X-H torsion

> <Gold.Protein.ActiveResidues>
 VAL166  LYS551  ARG553  GLY616  TRP617  ASP618  TYR619  PRO620  LYS621  CYS622 
 ASP623  PHE694  ASN695  SER759  ASP760  ASP761  ALA762  ILE779  LEU786  VAL792 
 PHE793  MET794  SER795  GLU796  ALA797  LYS798  CYS799  TRP800  GLU811  SER814 

> <Gold.Protein.RotatedAtoms>
  151.8604  133.3456  159.3701 H   0  0  0  0  0  0  0  0  0  0  0  0  # atno 6907 bound_to 6896
  150.7181  134.5212  159.5664 H   0  0  0  0  0  0  0  0  0  0  0  0  # atno 6908 bound_to 6896
  152.2724  134.7919  160.0463 H   0  0  0  0  0  0  0  0  0  0  0  0  # atno 6909 bound_to 6896
  146.2439  140.0337  142.8387 H   0  0  0  0  0  0  0  0  0  0  0  0  # atno 7974 bound_to 7965
  154.4316  140.1080  156.5985 H   0  0  0  0  0  0  0  0  0  0  0  0  # atno 8008 bound_to 7997
  155.5936  140.3492  155.4555 H   0  0  0  0  0  0  0  0  0  0  0  0  # atno 8009 bound_to 7997
  156.0227  140.1243  157.0330 H   0  0  0  0  0  0  0  0  0  0  0  0  # atno 8010 bound_to 7997
  140.6896  143.2929  151.3497 H   0  0  0  0  0  0  0  0  0  0  0  0  # atno 10167 bound_to 10162
  157.3618  131.0966  151.0908 H   0  0  0  0  0  0  0  0  0  0  0  0  # atno 10718 bound_to 10713
  154.6395  135.2896  155.0121 H   0  0  0  0  0  0  0  0  0  0  0  0  # atno 10763 bound_to 10752
  154.1253  135.6542  153.4915 H   0  0  0  0  0  0  0  0  0  0  0  0  # atno 10764 bound_to 10752
  153.0319  135.5297  154.7255 H   0  0  0  0  0  0  0  0  0  0  0  0  # atno 10765 bound_to 10752
  141.1615  133.6861  156.7131 H   0  0  0  0  0  0  0  0  0  0  0  0  # atno 11005 bound_to 11000
  145.1132  140.9417  143.4644 LP  0  0  0  0  0  0  0  0  0  0  0  0  # atno 17320 bound_to 7965
  145.0555  139.3147  143.5907 LP  0  0  0  0  0  0  0  0  0  0  0  0  # atno 17321 bound_to 7965
  139.6286  144.0765  152.2456 LP  0  0  0  0  0  0  0  0  0  0  0  0  # atno 17342 bound_to 10162
  140.0232  144.6137  150.7549 LP  0  0  0  0  0  0  0  0  0  0  0  0  # atno 17343 bound_to 10162
  157.2045  130.6410  149.5751 LP  0  0  0  0  0  0  0  0  0  0  0  0  # atno 17370 bound_to 10713
  155.9739  130.4680  150.6344 LP  0  0  0  0  0  0  0  0  0  0  0  0  # atno 17371 bound_to 10713
  140.2872  134.8270  157.3985 LP  0  0  0  0  0  0  0  0  0  0  0  0  # atno 17394 bound_to 11000
  140.1380  134.5009  155.8054 LP  0  0  0  0  0  0  0  0  0  0  0  0  # atno 17395 bound_to 11000

$$$$
