AV-unprocessed.smi:112|AV-procd|sdf|1087|dock2
  -GOLD-   2262018183D 1   1.00000     0.00000
 Structure written by MMmdl.
 54 57  0  0  0  0  0  0  0  0  3 V2000
  152.0487  143.0623  159.6318 C   0  0  0  0  0  0  0  0  0  0  0  0
  152.2926  141.6179  159.2244 C   0  0  0  0  0  0  0  0  0  0  0  0
  151.5809  141.0173  158.2436 C   0  0  0  0  0  0  0  0  0  0  0  0
  151.7806  139.7089  157.8466 N   0  0  0  0  0  0  0  0  0  0  0  0
  150.9417  139.1107  156.7443 C   0  0  2  0  0  0  0  0  0  0  0  0
  151.7059  139.0613  155.4291 C   0  0  0  0  0  0  0  0  0  0  0  0
  150.5696  139.1178  154.4260 C   0  0  1  0  0  0  0  0  0  0  0  0
  150.1378  137.8102  154.1011 O   0  0  0  0  0  0  0  0  0  0  0  0
  149.4482  139.8837  155.1598 C   0  0  2  0  0  0  0  0  0  0  0  0
  149.3053  141.3344  154.6701 C   0  0  0  0  0  0  0  0  0  0  0  0
  149.0882  141.3538  153.2755 O   0  0  0  0  0  0  0  0  0  0  0  0
  149.8379  139.9293  156.5337 O   0  0  0  0  0  0  0  0  0  0  0  0
  152.7800  138.9331  158.4672 C   0  0  0  0  0  0  0  0  0  0  0  0
  153.0011  137.7750  158.1065 O   0  0  0  0  0  0  0  0  0  0  0  0
  153.5338  139.5271  159.5051 N   0  0  0  0  0  0  0  0  0  0  0  0
  154.5971  138.7277  160.1560 C   0  0  0  0  0  0  0  0  0  0  0  0
  154.0703  137.4762  160.8926 C   0  0  0  0  0  0  0  0  0  0  0  0
  153.5763  136.5616  160.2320 O   0  0  0  0  0  0  0  0  0  0  0  0
  154.1760  137.4445  162.2446 N   0  0  0  0  0  0  0  0  0  0  0  0
  153.7249  136.3097  163.0687 C   0  0  0  0  0  0  0  0  0  0  0  0
  154.0402  136.6846  164.5334 C   0  0  0  0  0  0  0  0  0  0  0  0
  154.6553  138.0471  164.4100 C   0  0  0  0  0  0  0  0  0  0  0  0
  155.1234  138.8547  165.4605 C   0  0  0  0  0  0  0  0  0  0  0  0
  155.6763  140.1231  165.1547 C   0  0  0  0  0  0  0  0  0  0  0  0
  156.1776  140.9992  166.2321 N   0  3  0  0  0  0  0  0  0  0  0  0
  156.6342  142.0958  165.9252 O   0  0  0  0  0  0  0  0  0  0  0  0
  156.1155  140.5923  167.3876 O   0  5  0  0  0  0  0  0  0  0  0  0
  155.7406  140.5391  163.7982 C   0  0  0  0  0  0  0  0  0  0  0  0
  155.2655  139.7145  162.7550 C   0  0  0  0  0  0  0  0  0  0  0  0
  154.7190  138.4547  163.0826 C   0  0  0  0  0  0  0  0  0  0  0  0
  153.3393  140.8674  159.9226 C   0  0  0  0  0  0  0  0  0  0  0  0
  154.0330  141.3528  160.8184 O   0  0  0  0  0  0  0  0  0  0  0  0
  151.2428  143.5160  159.0540 H   0  0  0  0  0  0  0  0  0  0  0  0
  152.9478  143.6595  159.4759 H   0  0  0  0  0  0  0  0  0  0  0  0
  151.7762  143.1207  160.6861 H   0  0  0  0  0  0  0  0  0  0  0  0
  150.8189  141.5932  157.7380 H   0  0  0  0  0  0  0  0  0  0  0  0
  150.5834  138.1335  157.0702 H   0  0  0  0  0  0  0  0  0  0  0  0
  152.3318  139.9495  155.3341 H   0  0  0  0  0  0  0  0  0  0  0  0
  152.3351  138.1727  155.3625 H   0  0  0  0  0  0  0  0  0  0  0  0
  150.8807  139.6074  153.5024 H   0  0  0  0  0  0  0  0  0  0  0  0
  149.4380  137.8706  153.4687 H   0  0  0  0  0  0  0  0  0  0  0  0
  148.4961  139.3589  155.0579 H   0  0  0  0  0  0  0  0  0  0  0  0
  148.4982  141.8536  155.1879 H   0  0  0  0  0  0  0  0  0  0  0  0
  150.2233  141.8910  154.8605 H   0  0  0  0  0  0  0  0  0  0  0  0
  148.7422  140.5133  153.0162 H   0  0  0  0  0  0  0  0  0  0  0  0
  155.3422  138.4198  159.4212 H   0  0  0  0  0  0  0  0  0  0  0  0
  155.1570  139.3440  160.8608 H   0  0  0  0  0  0  0  0  0  0  0  0
  152.6544  136.1423  162.9429 H   0  0  0  0  0  0  0  0  0  0  0  0
  154.2505  135.3950  162.7910 H   0  0  0  0  0  0  0  0  0  0  0  0
  153.1389  136.7259  165.1458 H   0  0  0  0  0  0  0  0  0  0  0  0
  154.7451  135.9880  164.9880 H   0  0  0  0  0  0  0  0  0  0  0  0
  155.0557  138.5011  166.4788 H   0  0  0  0  0  0  0  0  0  0  0  0
  156.1574  141.5020  163.5422 H   0  0  0  0  0  0  0  0  0  0  0  0
  155.3319  140.0697  161.7389 H   0  0  0  0  0  0  0  0  0  0  0  0
  1  2  1  0  0  0  0
  1 33  1  0  0  0  0
  1 34  1  0  0  0  0
  1 35  1  0  0  0  0
  2 31  1  0  0  0  0
  2  3  2  0  0  0  0
  3  4  1  0  0  0  0
  3 36  1  0  0  0  0
  4  5  1  0  0  0  0
  4 13  1  0  0  0  0
  5 12  1  0  0  0  0
  5  6  1  0  0  0  0
  5 37  1  0  0  0  0
  6  7  1  0  0  0  0
  6 38  1  0  0  0  0
  6 39  1  0  0  0  0
  7  8  1  0  0  0  0
  7  9  1  0  0  0  0
  7 40  1  0  0  0  0
  8 41  1  0  0  0  0
  9 10  1  0  0  0  0
  9 12  1  0  0  0  0
  9 42  1  0  0  0  0
 10 11  1  0  0  0  0
 10 43  1  0  0  0  0
 10 44  1  0  0  0  0
 11 45  1  0  0  0  0
 13 14  2  0  0  0  0
 13 15  1  0  0  0  0
 15 16  1  0  0  0  0
 15 31  1  0  0  0  0
 16 17  1  0  0  0  0
 16 46  1  0  0  0  0
 16 47  1  0  0  0  0
 17 18  2  0  0  0  0
 17 19  1  0  0  0  0
 19 30  1  0  0  0  0
 19 20  1  0  0  0  0
 20 21  1  0  0  0  0
 20 48  1  0  0  0  0
 20 49  1  0  0  0  0
 21 22  1  0  0  0  0
 21 50  1  0  0  0  0
 21 51  1  0  0  0  0
 22 30  2  0  0  0  0
 22 23  1  0  0  0  0
 23 24  2  0  0  0  0
 23 52  1  0  0  0  0
 24 25  1  0  0  0  0
 24 28  1  0  0  0  0
 25 26  2  0  0  0  0
 25 27  1  0  0  0  0
 28 29  2  0  0  0  0
 28 53  1  0  0  0  0
 29 30  1  0  0  0  0
 29 54  1  0  0  0  0
 31 32  2  0  0  0  0
M  CHG  1  25   1
M  CHG  1  27  -1
M  END
> <s_m_source_file>
AV-unprocessed.smi

> <i_m_source_file_index>
112

> <i_lp_mmshare_version>
43012

> <i_f3d_flags>
0

> <s_epik_input>
W09IXVtDSDJdW0NAQEhdKE8xKVtDQEhdKFtPSF0pW0NIMl1bQ0BIXTFuKFtjSF1jMltDSDNdKWMoPU8pbihjMj1PKVtDSDJdQyg9TylOKFtDSDJdW0NIMl0zKWMoYzM0KVtjSF1bY0hdYyhbY0hdNClbTitdKD1PKVtPLV0=

> <s_epik_cmdline>
J2VwaWtfcHl0aG9uJywgJy1waCcsICc3LjAnLCAnLXRuJywgJzgnLCAnLW1hJywgJzIwMCcsICctbWV0YWxfYmluZGluZycsICctaW1hZScsICc8aW5maWxlLm1hZT4nLCAnLW9tYWUnLCAnPG91dGZpbGUubWFlPic=

> <r_lp_tautomer_probability>
1

> <r_epik_Ionization_Penalty>
2.5696e-07

> <r_epik_Ionization_Penalty_Charging>
1.04886e-08

> <r_epik_Ionization_Penalty_Neutral>
2.46472e-07

> <r_epik_State_Penalty>
-0

> <r_epik_Charging_Adjusted_Penalty>
1.04886e-08

> <i_epik_Tot_Q>
0

> <i_epik_Tot_abs_Q>
2

> <r_epik_Metal_State_Penalty>
-0

> <b_epik_Metal_Only>
0

> <s_epik_Chemistry_Notes>
This compound contains an acetal/aminal-like group ( X-CH(R)-Y where X, Y are N, S, or O) that may be acid/base labile, releasing an aldehyde.

> <s_lp_Force_Field>
OPLS_2005

> <r_lp_Energy>
58.3709

> <b_lp_Chiralities_Consistent>
1

> <s_lp_Variant>
AV-unprocessed.smi:112-5

> <Gold.Version>
5.8.1

> <Gold.Id.Protein>
6NUR|6NUR_protein|mol2

> <Gold.PLP.Fitness>
58.8095

> <Gold.PLP.PLP>
-56.9077

> <Gold.PLP.part.hbond>
-6.0294

> <Gold.PLP.part.metal>
0.0000

> <Gold.PLP.part.buried>
-6.7179

> <Gold.PLP.part.nonpolar>
-43.8510

> <Gold.PLP.part.repulsive>
0.0792

> <Gold.PLP.ligand.clash>
4.5821

> <Gold.PLP.ligand.torsion>
0.4952

> <Gold.PLP.Chemscore.Hbond>
2.4788

> <Gold.PLP.Chemscore.CHOScore>
0.0000

> <Gold.PLP.Chemscore.Metal>
0.0000

> <Gold.Chemscore.Hbonds>
donor molecule, donor type, donor heavy atom, donor atom, acceptor molecule, acceptor atom, score
      L1  H     8    41       P1  7948  0.14
      L1  H    11    45       P1  7957  0.11
      P1  H  6896  6907       L1    18  0.62
      P1  H  8011  8017       L1    11  1.00

> <Gold.PLP.Chemscore.Internal.Correction>
0.0379

> <Gold.Rescore>
     Score         DG    S(hbond)    S(metal)    S(lipo)     H(rot)  DE(clash)    DE(int)     intcor
     12.63     -18.46       2.48        0.00     112.16       3.29       0.13       5.70       ----

> <Gold.Chemscore.Fitness>
12.6264

> <Gold.Chemscore.DG>
-18.4567

> <Gold.Chemscore.ZeroCoef>
-5.4800

> <Gold.Chemscore.Hbond>
2.4792

> <Gold.Chemscore.Metal>
0.0000

> <Gold.Chemscore.Lipo>
112.1589

> <Gold.Chemscore.Internal_Hbond>
0.0000

> <Gold.Chemscore.DEClash>
0.1288

> <Gold.Chemscore.DEInternal>
5.7014

> <Gold.Chemscore.Rot>
3.2916

> <Gold.Chemscore.Internal.Correction>
   9.000000E+99

> <Gold.Chemscore.Hbonds>
donor molecule, donor type, donor heavy atom, donor atom, acceptor molecule, acceptor atom, score
      L1  H     8    41       P1  7948  0.13
      L1  H    11    45       P1  7957  0.12
      P1  H  6896  6907       L1    18  0.60
      P1  H  8011  8017       L1    11  0.91

> <Gold.Chemscore.Hbond.Weighted>
-8.2806

> <Gold.Chemscore.Metal.Weighted>
-0.0000

> <Gold.Chemscore.Lipo.Weighted>
-13.1226

> <Gold.Chemscore.Internal_Hbond.Weighted>
0.0000

> <Gold.Chemscore.DEClash.Weighted>
0.1288

> <Gold.Chemscore.DEInternal.Weighted>
5.7014

> <Gold.Chemscore.Rot.Weighted>
8.4265

> <Gold.Chemscore.Internal.Correction.Weighted>
   9.000000E+99

> <Gold.Protein.RotatedTorsions>
[ 6907 6896 6895 6894 ] final   57.85 input  -60.11 | X-H torsion
[ 7974 7965 7964 7962 ] final -119.08 input  175.53 | X-H torsion
[ 8008 7997 7996 7995 ] final  148.54 input   59.86 | X-H torsion
[ 10167 10162 10161 10158 ] final  -21.52 input  -65.29 | X-H torsion
[ 10718 10713 10712 10709 ] final   50.54 input   66.30 | X-H torsion
[ 10763 10752 10751 10750 ] final   71.90 input  -60.55 | X-H torsion
[ 11005 11000 10999 10996 ] final  168.74 input  -57.11 | X-H torsion

> <Gold.Protein.ActiveResidues>
 VAL166  LYS551  ARG553  GLY616  TRP617  ASP618  TYR619  PRO620  LYS621  CYS622 
 ASP623  PHE694  ASN695  SER759  ASP760  ASP761  ALA762  ILE779  LEU786  VAL792 
 PHE793  MET794  SER795  GLU796  ALA797  LYS798  CYS799  TRP800  GLU811  SER814 

> <Gold.Protein.RotatedAtoms>
  152.3770  134.6648  160.0156 H   0  0  0  0  0  0  0  0  0  0  0  0  # atno 6907 bound_to 6896
  151.6923  133.3305  159.3254 H   0  0  0  0  0  0  0  0  0  0  0  0  # atno 6908 bound_to 6896
  150.7717  134.6623  159.6391 H   0  0  0  0  0  0  0  0  0  0  0  0  # atno 6909 bound_to 6896
  145.0665  140.8328  143.4121 H   0  0  0  0  0  0  0  0  0  0  0  0  # atno 7974 bound_to 7965
  156.2787  140.2126  156.5714 H   0  0  0  0  0  0  0  0  0  0  0  0  # atno 8008 bound_to 7997
  154.7132  140.0510  157.0593 H   0  0  0  0  0  0  0  0  0  0  0  0  # atno 8009 bound_to 7997
  155.0577  140.3163  155.4674 H   0  0  0  0  0  0  0  0  0  0  0  0  # atno 8010 bound_to 7997
  140.7282  143.4620  151.0366 H   0  0  0  0  0  0  0  0  0  0  0  0  # atno 10167 bound_to 10162
  157.4894  130.8366  149.8185 H   0  0  0  0  0  0  0  0  0  0  0  0  # atno 10718 bound_to 10713
  153.0426  135.5120  154.7663 H   0  0  0  0  0  0  0  0  0  0  0  0  # atno 10763 bound_to 10752
  154.6588  135.2935  154.9895 H   0  0  0  0  0  0  0  0  0  0  0  0  # atno 10764 bound_to 10752
  154.0754  135.6671  153.4882 H   0  0  0  0  0  0  0  0  0  0  0  0  # atno 10765 bound_to 10752
  140.2904  134.7678  157.3833 H   0  0  0  0  0  0  0  0  0  0  0  0  # atno 11005 bound_to 11000
  145.1344  139.2611  143.5522 LP  0  0  0  0  0  0  0  0  0  0  0  0  # atno 17320 bound_to 7965
  146.3527  140.1004  142.8608 LP  0  0  0  0  0  0  0  0  0  0  0  0  # atno 17321 bound_to 7965
  139.8305  143.7697  152.3179 LP  0  0  0  0  0  0  0  0  0  0  0  0  # atno 17342 bound_to 10162
  139.7811  144.7444  151.0087 LP  0  0  0  0  0  0  0  0  0  0  0  0  # atno 17343 bound_to 10162
  156.0165  130.3812  150.2095 LP  0  0  0  0  0  0  0  0  0  0  0  0  # atno 17370 bound_to 10713
  157.0283  131.0000  151.3320 LP  0  0  0  0  0  0  0  0  0  0  0  0  # atno 17371 bound_to 10713
  140.1201  134.5231  155.8191 LP  0  0  0  0  0  0  0  0  0  0  0  0  # atno 17394 bound_to 11000
  141.2147  133.6753  156.6849 LP  0  0  0  0  0  0  0  0  0  0  0  0  # atno 17395 bound_to 11000

$$$$
