AV-unprocessed.smi:114|AV-procd|sdf|1108|dock3
  -GOLD-   2262018223D 1   1.00000     0.00000
 Structure written by MMmdl.
 32 34  0  0  0  0  0  0  0  0  1 V2000
  152.4447  138.7392  158.7709 N   0  0  0  0  0  0  0  0  0  0  0  0
  152.1444  139.0841  157.5109 C   0  0  0  0  0  0  0  0  0  0  0  0
  153.0706  138.8731  156.5465 N   0  0  0  0  0  0  0  0  0  0  0  0
  152.8096  139.2010  155.2747 C   0  0  0  0  0  0  0  0  0  0  0  0
  153.7916  138.9534  154.3765 F   0  0  0  0  0  0  0  0  0  0  0  0
  151.6881  139.7464  154.7906 N   0  0  0  0  0  0  0  0  0  0  0  0
  150.7550  139.9632  155.7621 C   0  0  0  0  0  0  0  0  0  0  0  0
  150.9034  139.6576  157.1404 C   0  0  0  0  0  0  0  0  0  0  0  0
  149.7479  140.0033  157.8274 N   0  0  0  0  0  0  0  0  0  0  0  0
  148.9618  140.4826  156.8999 C   0  0  0  0  0  0  0  0  0  0  0  0
  149.4984  140.5131  155.6282 N   0  0  0  0  0  0  0  0  0  0  0  0
  148.8834  140.9733  154.3402 C   0  0  1  0  0  0  0  0  0  0  0  0
  148.5486  139.8552  153.5787 O   0  0  0  0  0  0  0  0  0  0  0  0
  147.2141  139.4684  153.8781 C   0  0  2  0  0  0  0  0  0  0  0  0
  146.6627  138.5809  152.7527 C   0  0  0  0  0  0  0  0  0  0  0  0
  147.4396  138.7446  151.5857 O   0  0  0  0  0  0  0  0  0  0  0  0
  146.5078  140.8221  153.9959 C   0  0  1  0  0  0  0  0  0  0  0  0
  145.3854  140.7168  154.8489 O   0  0  0  0  0  0  0  0  0  0  0  0
  147.5699  141.7317  154.6125 C   0  0  2  0  0  0  0  0  0  0  0  0
  147.5625  142.9973  153.9847 O   0  0  0  0  0  0  0  0  0  0  0  0
  149.6666  141.5648  153.8640 H   0  0  0  0  0  0  0  0  0  0  0  0
  147.1835  138.9492  154.8383 H   0  0  0  0  0  0  0  0  0  0  0  0
  146.2074  141.1797  153.0092 H   0  0  0  0  0  0  0  0  0  0  0  0
  147.4223  141.8564  155.6868 H   0  0  0  0  0  0  0  0  0  0  0  0
  151.7683  138.8868  159.5065 H   0  0  0  0  0  0  0  0  0  0  0  0
  153.3453  138.3350  158.9830 H   0  0  0  0  0  0  0  0  0  0  0  0
  147.9636  140.8275  157.1273 H   0  0  0  0  0  0  0  0  0  0  0  0
  146.7217  137.5308  153.0404 H   0  0  0  0  0  0  0  0  0  0  0  0
  145.6151  138.8031  152.5472 H   0  0  0  0  0  0  0  0  0  0  0  0
  147.9912  139.5041  151.6957 H   0  0  0  0  0  0  0  0  0  0  0  0
  144.6263  140.5225  154.3202 H   0  0  0  0  0  0  0  0  0  0  0  0
  148.1259  143.5766  154.4753 H   0  0  0  0  0  0  0  0  0  0  0  0
  1  2  1  0  0  0  0
  1 25  1  0  0  0  0
  1 26  1  0  0  0  0
  2  8  1  0  0  0  0
  2  3  2  0  0  0  0
  3  4  1  0  0  0  0
  4  5  1  0  0  0  0
  4  6  2  0  0  0  0
  6  7  1  0  0  0  0
  7 11  1  0  0  0  0
  7  8  2  0  0  0  0
  8  9  1  0  0  0  0
  9 10  2  0  0  0  0
 10 11  1  0  0  0  0
 10 27  1  0  0  0  0
 11 12  1  0  0  0  0
 12 21  1  0  0  0  0
 12 19  1  0  0  0  0
 12 13  1  0  0  0  0
 13 14  1  0  0  0  0
 14 22  1  0  0  0  0
 14 15  1  0  0  0  0
 14 17  1  0  0  0  0
 15 16  1  0  0  0  0
 15 28  1  0  0  0  0
 15 29  1  0  0  0  0
 16 30  1  0  0  0  0
 17 23  1  0  0  0  0
 17 18  1  0  0  0  0
 17 19  1  0  0  0  0
 18 31  1  0  0  0  0
 19 24  1  0  0  0  0
 19 20  1  0  0  0  0
 20 32  1  0  0  0  0
M  END
> <s_m_source_file>
AV-unprocessed.smi

> <i_m_source_file_index>
114

> <i_lp_mmshare_version>
43012

> <i_f3d_flags>
0

> <s_epik_input>
RmMobjEpbmMoW05IMl0pYyhjMTIpbltjSF1uMltDQEBIXTNPW0NASF0oW0NIMl1bT0hdKVtDQEBIXShbT0hdKVtDQEBIXTNbT0hd

> <s_epik_cmdline>
J2VwaWtfcHl0aG9uJywgJy1waCcsICc3LjAnLCAnLXRuJywgJzgnLCAnLW1hJywgJzIwMCcsICctbWV0YWxfYmluZGluZycsICctaW1hZScsICc8aW5maWxlLm1hZT4nLCAnLW9tYWUnLCAnPG91dGZpbGUubWFlPic=

> <r_lp_tautomer_probability>
1

> <r_epik_Ionization_Penalty>
1.13199e-05

> <r_epik_Ionization_Penalty_Charging>
0

> <r_epik_Ionization_Penalty_Neutral>
1.13199e-05

> <r_epik_State_Penalty>
-0

> <r_epik_Charging_Adjusted_Penalty>
0

> <i_epik_Tot_Q>
0

> <i_epik_Tot_abs_Q>
0

> <r_epik_Metal_State_Penalty>
-0

> <b_epik_Metal_Only>
0

> <s_epik_Chemistry_Notes>
This compound contains an acetal/aminal-like group ( X-CH(R)-Y where X, Y are N, S, or O) that may be acid/base labile, releasing an aldehyde.

> <s_lp_Force_Field>
OPLS_2005

> <r_lp_Energy>
32.1203

> <b_lp_Chiralities_Consistent>
1

> <s_lp_Variant>
AV-unprocessed.smi:114-2

> <Gold.Version>
5.8.1

> <Gold.Id.Protein>
6NUR|6NUR_protein|mol2

> <Gold.PLP.Fitness>
42.7568

> <Gold.PLP.PLP>
-27.8607

> <Gold.PLP.part.hbond>
-9.0000

> <Gold.PLP.part.metal>
0.0000

> <Gold.PLP.part.buried>
-1.5471

> <Gold.PLP.part.nonpolar>
-20.8910

> <Gold.PLP.part.repulsive>
3.3868

> <Gold.PLP.ligand.clash>
0.0000

> <Gold.PLP.ligand.torsion>
0.7989

> <Gold.PLP.Chemscore.Hbond>
5.4880

> <Gold.PLP.Chemscore.CHOScore>
0.0000

> <Gold.PLP.Chemscore.Metal>
0.0000

> <Gold.Chemscore.Hbonds>
donor molecule, donor type, donor heavy atom, donor atom, acceptor molecule, acceptor atom, score
      L1  H    16    30       P1  7957  0.72
      L1  H    18    31       P1 10175  0.93
      L1  H    20    32       P1  8028  1.00
      P1  H  7954  7966       L1    16  0.96
      P1  H  7989  7998       L1     6  1.00
      P1  H  7997  8009       L1     3  0.81

> <Gold.PLP.Chemscore.Internal.Correction>
0.0299

> <Gold.Rescore>
     Score         DG    S(hbond)    S(metal)    S(lipo)     H(rot)  DE(clash)    DE(int)     intcor
      8.51     -11.22       3.82        0.00      28.17       4.03       1.87       0.84       ----

> <Gold.Chemscore.Fitness>
8.5107

> <Gold.Chemscore.DG>
-11.2176

> <Gold.Chemscore.ZeroCoef>
-5.4800

> <Gold.Chemscore.Hbond>
3.8180

> <Gold.Chemscore.Metal>
0.0000

> <Gold.Chemscore.Lipo>
28.1749

> <Gold.Chemscore.Internal_Hbond>
0.0000

> <Gold.Chemscore.DEClash>
1.8695

> <Gold.Chemscore.DEInternal>
0.8375

> <Gold.Chemscore.Rot>
4.0277

> <Gold.Chemscore.Internal.Correction>
   9.000000E+99

> <Gold.Chemscore.Hbonds>
donor molecule, donor type, donor heavy atom, donor atom, acceptor molecule, acceptor atom, score
      L1  H    16    30       P1  7957  0.72
      L1  H    18    31       P1 10175  0.84
      L1  H    20    32       P1  8028  0.88
      P1  H  7954  7966       L1    16  0.34
      P1  H  7989  7998       L1     6  0.88
      P1  H  7997  8009       L1     3  0.10

> <Gold.Chemscore.Hbond.Weighted>
-12.7521

> <Gold.Chemscore.Metal.Weighted>
-0.0000

> <Gold.Chemscore.Lipo.Weighted>
-3.2965

> <Gold.Chemscore.Internal_Hbond.Weighted>
0.0000

> <Gold.Chemscore.DEClash.Weighted>
1.8695

> <Gold.Chemscore.DEInternal.Weighted>
0.8375

> <Gold.Chemscore.Rot.Weighted>
10.3110

> <Gold.Chemscore.Internal.Correction.Weighted>
   9.000000E+99

> <Gold.Protein.RotatedTorsions>
[ 6907 6896 6895 6894 ] final -127.66 input  -60.11 | X-H torsion
[ 7974 7965 7964 7962 ] final  -69.90 input  175.53 | X-H torsion
[ 8008 7997 7996 7995 ] final  165.89 input   59.86 | X-H torsion
[ 10167 10162 10161 10158 ] final  169.85 input  -65.29 | X-H torsion
[ 10718 10713 10712 10709 ] final  131.51 input   66.30 | X-H torsion
[ 10763 10752 10751 10750 ] final -143.59 input  -60.55 | X-H torsion
[ 11005 11000 10999 10996 ] final   70.56 input  -57.11 | X-H torsion

> <Gold.Protein.ActiveResidues>
 VAL166  LYS551  ARG553  GLY616  TRP617  ASP618  TYR619  PRO620  LYS621  CYS622 
 ASP623  PHE694  ASN695  SER759  ASP760  ASP761  ALA762  ILE779  LEU786  VAL792 
 PHE793  MET794  SER795  GLU796  ALA797  LYS798  CYS799  TRP800  GLU811  SER814 

> <Gold.Protein.RotatedAtoms>
  150.9097  133.7013  159.2857 H   0  0  0  0  0  0  0  0  0  0  0  0  # atno 6907 bound_to 6896
  151.4504  135.1028  159.9706 H   0  0  0  0  0  0  0  0  0  0  0  0  # atno 6908 bound_to 6896
  152.4923  133.8484  159.7244 H   0  0  0  0  0  0  0  0  0  0  0  0  # atno 6909 bound_to 6896
  145.6978  140.9128  143.0747 H   0  0  0  0  0  0  0  0  0  0  0  0  # atno 7974 bound_to 7965
  156.1763  140.1658  156.8356 H   0  0  0  0  0  0  0  0  0  0  0  0  # atno 8008 bound_to 7997
  154.5311  140.0757  156.8379 H   0  0  0  0  0  0  0  0  0  0  0  0  # atno 8009 bound_to 7997
  155.3406  140.3384  155.4241 H   0  0  0  0  0  0  0  0  0  0  0  0  # atno 8010 bound_to 7997
  139.5003  144.3660  151.9774 H   0  0  0  0  0  0  0  0  0  0  0  0  # atno 10167 bound_to 10162
  157.4960  131.1092  150.9492 H   0  0  0  0  0  0  0  0  0  0  0  0  # atno 10718 bound_to 10713
  154.8464  135.3464  154.6211 H   0  0  0  0  0  0  0  0  0  0  0  0  # atno 10763 bound_to 10752
  153.6820  135.6979  153.5120 H   0  0  0  0  0  0  0  0  0  0  0  0  # atno 10764 bound_to 10752
  153.2661  135.4307  155.0898 H   0  0  0  0  0  0  0  0  0  0  0  0  # atno 10765 bound_to 10752
  139.9591  134.7092  156.0686 H   0  0  0  0  0  0  0  0  0  0  0  0  # atno 11005 bound_to 11000
  144.6977  139.8908  143.7453 LP  0  0  0  0  0  0  0  0  0  0  0  0  # atno 17320 bound_to 7965
  146.0824  139.3812  143.0456 LP  0  0  0  0  0  0  0  0  0  0  0  0  # atno 17321 bound_to 7965
  140.3096  144.3553  150.6037 LP  0  0  0  0  0  0  0  0  0  0  0  0  # atno 17342 bound_to 10162
  140.5809  143.2173  151.7430 LP  0  0  0  0  0  0  0  0  0  0  0  0  # atno 17343 bound_to 10162
  157.0178  130.5662  149.5328 LP  0  0  0  0  0  0  0  0  0  0  0  0  # atno 17370 bound_to 10713
  156.0201  130.5296  150.8250 LP  0  0  0  0  0  0  0  0  0  0  0  0  # atno 17371 bound_to 10713
  141.1266  133.6597  156.3353 LP  0  0  0  0  0  0  0  0  0  0  0  0  # atno 17394 bound_to 11000
  140.5541  134.5999  157.5416 LP  0  0  0  0  0  0  0  0  0  0  0  0  # atno 17395 bound_to 11000

$$$$
