AV-unprocessed.smi:3331|AV-procd|sdf|12827|dock9
  -GOLD-   2272019203D 1   1.00000     0.00000
 Structure written by MMmdl.
 46 47  0  0  0  0  0  0  0  0  1 V2000
  152.1003  142.7009  158.8789 C   0  0  0  0  0  0  0  0  0  0  0  0
  152.6121  141.9366  160.1075 C   0  0  2  0  0  0  0  0  0  0  0  0
  152.7814  142.8700  161.3280 C   0  0  0  0  0  0  0  0  0  0  0  0
  153.4205  142.1520  162.5392 C   0  0  2  0  0  0  0  0  0  0  0  0
  153.6987  143.1276  163.6909 C   0  0  0  0  0  0  0  0  0  0  0  0
  154.6984  141.4030  162.1047 C   0  0  0  0  0  0  0  0  0  0  0  0
  154.3463  140.4789  161.0196 N   0  0  0  0  0  0  0  0  0  0  0  0
  154.2666  139.1373  161.2066 C   0  0  0  0  0  0  0  0  0  0  0  0
  154.6337  138.6056  162.2568 O   0  0  0  0  0  0  0  0  0  0  0  0
  153.6867  138.2293  160.0955 C   0  0  1  0  0  0  0  0  0  0  0  0
  153.8491  136.7519  160.4868 C   0  0  0  0  0  0  0  0  0  0  0  0
  152.2674  138.5090  159.8173 N   0  0  0  0  0  0  0  0  0  0  0  0
  151.8548  138.1169  158.4723 C   0  0  0  0  0  0  0  0  0  0  0  0
  152.2926  139.1850  157.4581 C   0  0  0  0  0  0  0  0  0  0  0  0
  151.8055  138.8894  156.1225 N   0  0  0  0  0  0  0  0  0  0  0  0
  150.9518  139.6336  155.3355 C   0  0  0  0  0  0  0  0  0  0  0  0
  150.8028  138.9657  154.1539 C   0  0  0  0  0  0  0  0  0  0  0  0
  151.6155  137.8087  154.3153 C   0  0  0  0  0  0  0  0  0  0  0  0
  152.2130  137.7649  155.4951 N   0  0  0  0  0  0  0  0  0  0  0  0
  153.9425  141.2141  159.8151 C   0  0  0  0  0  0  0  0  0  0  0  0
  152.8063  143.4716  158.5681 H   0  0  0  0  0  0  0  0  0  0  0  0
  151.1470  143.1870  159.0886 H   0  0  0  0  0  0  0  0  0  0  0  0
  151.9485  142.0281  158.0346 H   0  0  0  0  0  0  0  0  0  0  0  0
  151.8658  141.1813  160.3595 H   0  0  0  0  0  0  0  0  0  0  0  0
  153.4098  143.7157  161.0444 H   0  0  0  0  0  0  0  0  0  0  0  0
  151.8153  143.2891  161.6118 H   0  0  0  0  0  0  0  0  0  0  0  0
  152.7075  141.4104  162.9034 H   0  0  0  0  0  0  0  0  0  0  0  0
  154.4084  143.9004  163.3939 H   0  0  0  0  0  0  0  0  0  0  0  0
  154.1151  142.6070  164.5538 H   0  0  0  0  0  0  0  0  0  0  0  0
  152.7828  143.6226  164.0153 H   0  0  0  0  0  0  0  0  0  0  0  0
  155.4540  142.1083  161.7553 H   0  0  0  0  0  0  0  0  0  0  0  0
  155.1452  140.8966  162.9616 H   0  0  0  0  0  0  0  0  0  0  0  0
  154.2181  138.3953  159.1593 H   0  0  0  0  0  0  0  0  0  0  0  0
  154.8918  136.5015  160.6852 H   0  0  0  0  0  0  0  0  0  0  0  0
  153.5048  136.0961  159.6865 H   0  0  0  0  0  0  0  0  0  0  0  0
  153.2749  136.5102  161.3824 H   0  0  0  0  0  0  0  0  0  0  0  0
  151.6564  138.0808  160.4977 H   0  0  0  0  0  0  0  0  0  0  0  0
  152.2696  137.1518  158.1796 H   0  0  0  0  0  0  0  0  0  0  0  0
  150.7698  138.0089  158.4590 H   0  0  0  0  0  0  0  0  0  0  0  0
  151.9051  140.1602  157.7562 H   0  0  0  0  0  0  0  0  0  0  0  0
  153.3793  139.2760  157.4296 H   0  0  0  0  0  0  0  0  0  0  0  0
  150.5319  140.5688  155.6760 H   0  0  0  0  0  0  0  0  0  0  0  0
  150.2073  139.2603  153.3027 H   0  0  0  0  0  0  0  0  0  0  0  0
  151.7880  137.0047  153.6151 H   0  0  0  0  0  0  0  0  0  0  0  0
  153.8648  140.5894  158.9275 H   0  0  0  0  0  0  0  0  0  0  0  0
  154.7138  141.9455  159.5685 H   0  0  0  0  0  0  0  0  0  0  0  0
  1  2  1  0  0  0  0
  1 21  1  0  0  0  0
  1 22  1  0  0  0  0
  1 23  1  0  0  0  0
  2 20  1  0  0  0  0
  2  3  1  0  0  0  0
  2 24  1  0  0  0  0
  3  4  1  0  0  0  0
  3 25  1  0  0  0  0
  3 26  1  0  0  0  0
  4  5  1  0  0  0  0
  4  6  1  0  0  0  0
  4 27  1  0  0  0  0
  5 28  1  0  0  0  0
  5 29  1  0  0  0  0
  5 30  1  0  0  0  0
  6  7  1  0  0  0  0
  6 31  1  0  0  0  0
  6 32  1  0  0  0  0
  7  8  1  0  0  0  0
  7 20  1  0  0  0  0
  8  9  2  0  0  0  0
  8 10  1  0  0  0  0
 10 11  1  0  0  0  0
 10 12  1  0  0  0  0
 10 33  1  0  0  0  0
 11 34  1  0  0  0  0
 11 35  1  0  0  0  0
 11 36  1  0  0  0  0
 12 13  1  0  0  0  0
 12 37  1  0  0  0  0
 13 14  1  0  0  0  0
 13 38  1  0  0  0  0
 13 39  1  0  0  0  0
 14 15  1  0  0  0  0
 14 40  1  0  0  0  0
 14 41  1  0  0  0  0
 15 19  1  0  0  0  0
 15 16  1  0  0  0  0
 16 17  2  0  0  0  0
 16 42  1  0  0  0  0
 17 18  1  0  0  0  0
 17 43  1  0  0  0  0
 18 19  2  0  0  0  0
 18 44  1  0  0  0  0
 20 45  1  0  0  0  0
 20 46  1  0  0  0  0
M  END
> <s_m_source_file>
AV-unprocessed.smi

> <i_m_source_file_index>
3331

> <i_lp_mmshare_version>
43012

> <i_f3d_flags>
0

> <s_epik_input>
W0NIM11bQ0BASF0xW0NIMl1bQ0BASF0oW0NIM10pW0NIMl1OKFtDSDJdMSlDKD1PKVtDQEhdKFtDSDNdKVtOSF1bQ0gyXVtDSDJdbjJbY0hdW2NIXVtjSF1uMg==

> <s_epik_cmdline>
J2VwaWtfcHl0aG9uJywgJy1waCcsICc3LjAnLCAnLXRuJywgJzgnLCAnLW1hJywgJzIwMCcsICctbWV0YWxfYmluZGluZycsICctaW1hZScsICc8aW5maWxlLm1hZT4nLCAnLW9tYWUnLCAnPG91dGZpbGUubWFlPic=

> <r_lp_tautomer_probability>
1

> <r_epik_Ionization_Penalty>
0.767994

> <r_epik_Ionization_Penalty_Charging>
0

> <r_epik_Ionization_Penalty_Neutral>
0.767994

> <r_epik_State_Penalty>
0.795453

> <r_epik_Charging_Adjusted_Penalty>
0.795453

> <i_epik_Tot_Q>
0

> <i_epik_Tot_abs_Q>
0

> <r_epik_Metal_State_Penalty>
0.794784

> <b_epik_Metal_Only>
0

> <s_lp_Force_Field>
OPLS_2005

> <r_lp_Energy>
28.4318

> <b_lp_Chiralities_Consistent>
1

> <s_lp_Variant>
AV-unprocessed.smi:3331-11

> <Gold.Version>
5.8.1

> <Gold.Id.Protein>
6NUR|6NUR_protein|mol2

> <Gold.PLP.Fitness>
41.6032

> <Gold.PLP.PLP>
-39.3793

> <Gold.PLP.part.hbond>
-0.3238

> <Gold.PLP.part.metal>
0.0000

> <Gold.PLP.part.buried>
0.3852

> <Gold.PLP.part.nonpolar>
-38.2710

> <Gold.PLP.part.repulsive>
0.0239

> <Gold.PLP.ligand.clash>
0.0000

> <Gold.PLP.ligand.torsion>
0.4281

> <Gold.PLP.Chemscore.Hbond>
0.0000

> <Gold.PLP.Chemscore.CHOScore>
1.0000

> <Gold.PLP.Chemscore.Metal>
0.0000

> <Gold.Chemscore.Hbonds>
donor molecule, donor type, donor heavy atom, donor atom, acceptor molecule, acceptor atom, score
      L1  C    18    44       P1  7949  1.00

> <Gold.PLP.Chemscore.Internal.Correction>
0.0801

> <Gold.Rescore>
     Score         DG    S(hbond)    S(metal)    S(lipo)     H(rot)  DE(clash)    DE(int)     intcor
     13.39     -15.00       0.00        0.00     117.80       1.66       1.20       0.41       ----

> <Gold.Chemscore.Fitness>
13.3859

> <Gold.Chemscore.DG>
-15.0000

> <Gold.Chemscore.ZeroCoef>
-5.4800

> <Gold.Chemscore.Hbond>
0.0000

> <Gold.Chemscore.Metal>
0.0000

> <Gold.Chemscore.Lipo>
117.7954

> <Gold.Chemscore.Internal_Hbond>
0.0000

> <Gold.Chemscore.DEClash>
1.1997

> <Gold.Chemscore.DEInternal>
0.4144

> <Gold.Chemscore.Rot>
1.6649

> <Gold.Chemscore.Internal.Correction>
   9.000000E+99

> <Gold.Chemscore.Hbond.Weighted>
-0.0000

> <Gold.Chemscore.Metal.Weighted>
-0.0000

> <Gold.Chemscore.Lipo.Weighted>
-13.7821

> <Gold.Chemscore.Internal_Hbond.Weighted>
0.0000

> <Gold.Chemscore.DEClash.Weighted>
1.1997

> <Gold.Chemscore.DEInternal.Weighted>
0.4144

> <Gold.Chemscore.Rot.Weighted>
4.2621

> <Gold.Chemscore.Internal.Correction.Weighted>
   9.000000E+99

> <Gold.Protein.RotatedTorsions>
[ 6907 6896 6895 6894 ] final  173.81 input  -60.11 | X-H torsion
[ 7974 7965 7964 7962 ] final  123.42 input  175.53 | X-H torsion
[ 8008 7997 7996 7995 ] final   94.97 input   59.86 | X-H torsion
[ 10167 10162 10161 10158 ] final   61.97 input  -65.29 | X-H torsion
[ 10718 10713 10712 10709 ] final    8.44 input   66.30 | X-H torsion
[ 10763 10752 10751 10750 ] final   53.85 input  -60.55 | X-H torsion
[ 11005 11000 10999 10996 ] final -150.80 input  -57.11 | X-H torsion

> <Gold.Protein.ActiveResidues>
 VAL166  LYS551  ARG553  GLY616  TRP617  ASP618  TYR619  PRO620  LYS621  CYS622 
 ASP623  PHE694  ASN695  SER759  ASP760  ASP761  ALA762  ILE779  LEU786  VAL792 
 PHE793  MET794  SER795  GLU796  ALA797  LYS798  CYS799  TRP800  GLU811  SER814 

> <Gold.Protein.RotatedAtoms>
  151.7624  133.3335  159.3421 H   0  0  0  0  0  0  0  0  0  0  0  0  # atno 6907 bound_to 6896
  150.7493  134.6093  159.6087 H   0  0  0  0  0  0  0  0  0  0  0  0  # atno 6908 bound_to 6896
  152.3396  134.7154  160.0319 H   0  0  0  0  0  0  0  0  0  0  0  0  # atno 6909 bound_to 6896
  145.0961  139.3552  143.4836 H   0  0  0  0  0  0  0  0  0  0  0  0  # atno 7974 bound_to 7965
  156.0637  140.3293  155.7493 H   0  0  0  0  0  0  0  0  0  0  0  0  # atno 8008 bound_to 7997
  155.5414  140.0602  157.2886 H   0  0  0  0  0  0  0  0  0  0  0  0  # atno 8009 bound_to 7997
  154.4494  140.1910  156.0583 H   0  0  0  0  0  0  0  0  0  0  0  0  # atno 8010 bound_to 7997
  140.1490  144.4481  150.6769 H   0  0  0  0  0  0  0  0  0  0  0  0  # atno 10167 bound_to 10162
  156.9516  130.5899  149.5657 H   0  0  0  0  0  0  0  0  0  0  0  0  # atno 10718 bound_to 10713
  152.9799  135.5765  154.4808 H   0  0  0  0  0  0  0  0  0  0  0  0  # atno 10763 bound_to 10752
  154.4357  135.2774  155.1884 H   0  0  0  0  0  0  0  0  0  0  0  0  # atno 10764 bound_to 10752
  154.3573  135.6196  153.5726 H   0  0  0  0  0  0  0  0  0  0  0  0  # atno 10765 bound_to 10752
  140.7364  134.3564  157.5156 H   0  0  0  0  0  0  0  0  0  0  0  0  # atno 11005 bound_to 11000
  146.3530  140.0817  142.8617 LP  0  0  0  0  0  0  0  0  0  0  0  0  # atno 17320 bound_to 7965
  145.1009  140.9345  143.4713 LP  0  0  0  0  0  0  0  0  0  0  0  0  # atno 17321 bound_to 7965
  140.6714  143.2287  151.5615 LP  0  0  0  0  0  0  0  0  0  0  0  0  # atno 17342 bound_to 10162
  139.5435  144.2583  152.1397 LP  0  0  0  0  0  0  0  0  0  0  0  0  # atno 17343 bound_to 10162
  156.0360  130.5448  150.8655 LP  0  0  0  0  0  0  0  0  0  0  0  0  # atno 17370 bound_to 10713
  157.5718  131.0946  150.9406 LP  0  0  0  0  0  0  0  0  0  0  0  0  # atno 17371 bound_to 10713
  139.8815  134.9052  156.2894 LP  0  0  0  0  0  0  0  0  0  0  0  0  # atno 17394 bound_to 11000
  140.9876  133.7228  156.0765 LP  0  0  0  0  0  0  0  0  0  0  0  0  # atno 17395 bound_to 11000

$$$$
