AV-unprocessed.smi:906|AV-procd|sdf|4103|dock1
  -GOLD-   22720 1593D 1   1.00000     0.00000
 Structure written by MMmdl.
 48 49  0  0  0  0  0  0  0  0  2 V2000
  146.3038  133.8581  149.7645 C   0  0  0  0  0  0  0  0  0  0  0  0
  146.3709  134.9526  150.8083 C   0  0  0  0  0  0  0  0  0  0  0  0
  145.9204  136.2653  150.5518 C   0  0  0  0  0  0  0  0  0  0  0  0
  146.0100  137.2359  151.5714 C   0  0  0  0  0  0  0  0  0  0  0  0
  146.5472  136.8743  152.8261 C   0  0  0  0  0  0  0  0  0  0  0  0
  146.6535  137.8914  153.9450 C   0  0  0  0  0  0  0  0  0  0  0  0
  148.1149  138.2189  154.2926 C   0  0  0  0  0  0  0  0  0  0  0  0
  148.2200  139.4540  155.0604 N   0  0  0  0  0  0  0  0  0  0  0  0
  149.1674  140.3922  154.8900 C   0  0  0  0  0  0  0  0  0  0  0  0
  150.0438  140.2857  154.0308 O   0  0  0  0  0  0  0  0  0  0  0  0
  149.0553  141.4680  155.7081 N   0  0  0  0  0  0  0  0  0  0  0  0
  148.1641  141.6046  156.8691 C   0  0  0  0  0  0  0  0  0  0  0  0
  149.0159  141.5716  158.1525 C   0  0  0  0  0  0  0  0  0  0  0  0
  150.0058  142.6558  158.1327 N   0  0  0  0  0  0  0  0  0  0  0  0
  150.7258  142.7606  159.4134 C   0  0  1  0  0  0  0  0  0  0  0  0
  151.8251  141.6920  159.6016 C   0  0  0  0  0  0  0  0  0  0  0  0
  151.2502  144.1943  159.6661 C   0  0  0  0  0  0  0  0  0  0  0  0
  150.2594  145.0780  159.5401 F   0  0  0  0  0  0  0  0  0  0  0  0
  151.7163  144.2732  160.9123 F   0  0  0  0  0  0  0  0  0  0  0  0
  152.2361  144.5259  158.8326 F   0  0  0  0  0  0  0  0  0  0  0  0
  150.8617  142.5635  156.9417 C   0  0  0  0  0  0  0  0  0  0  0  0
  149.9961  142.5908  155.6673 C   0  0  0  0  0  0  0  0  0  0  0  0
  146.9802  135.5459  153.0258 C   0  0  0  0  0  0  0  0  0  0  0  0
  146.8775  134.6457  152.0238 N   0  3  0  0  0  0  0  0  0  0  0  0
  146.2544  134.2812  148.7608 H   0  0  0  0  0  0  0  0  0  0  0  0
  145.4184  133.2412  149.9209 H   0  0  0  0  0  0  0  0  0  0  0  0
  147.1845  133.2174  149.8180 H   0  0  0  0  0  0  0  0  0  0  0  0
  145.5109  136.5277  149.5871 H   0  0  0  0  0  0  0  0  0  0  0  0
  145.6678  138.2447  151.3907 H   0  0  0  0  0  0  0  0  0  0  0  0
  146.1224  138.7960  153.6455 H   0  0  0  0  0  0  0  0  0  0  0  0
  146.1354  137.5098  154.8259 H   0  0  0  0  0  0  0  0  0  0  0  0
  148.5471  137.4125  154.8858 H   0  0  0  0  0  0  0  0  0  0  0  0
  148.7174  138.2937  153.3854 H   0  0  0  0  0  0  0  0  0  0  0  0
  147.5249  139.6094  155.7762 H   0  0  0  0  0  0  0  0  0  0  0  0
  147.6266  142.5519  156.8001 H   0  0  0  0  0  0  0  0  0  0  0  0
  147.3926  140.8374  156.9267 H   0  0  0  0  0  0  0  0  0  0  0  0
  148.3638  141.6836  159.0194 H   0  0  0  0  0  0  0  0  0  0  0  0
  149.5090  140.6034  158.2429 H   0  0  0  0  0  0  0  0  0  0  0  0
  149.9784  142.5881  160.1892 H   0  0  0  0  0  0  0  0  0  0  0  0
  152.2412  141.7460  160.6076 H   0  0  0  0  0  0  0  0  0  0  0  0
  152.6531  141.8309  158.9066 H   0  0  0  0  0  0  0  0  0  0  0  0
  151.4425  140.6804  159.4717 H   0  0  0  0  0  0  0  0  0  0  0  0
  151.5600  143.3972  156.9058 H   0  0  0  0  0  0  0  0  0  0  0  0
  151.4514  141.6465  156.9638 H   0  0  0  0  0  0  0  0  0  0  0  0
  150.6386  142.5690  154.7861 H   0  0  0  0  0  0  0  0  0  0  0  0
  149.4421  143.5289  155.6055 H   0  0  0  0  0  0  0  0  0  0  0  0
  147.4008  135.1782  153.9508 H   0  0  0  0  0  0  0  0  0  0  0  0
  147.1966  133.6914  152.1921 H   0  0  0  0  0  0  0  0  0  0  0  0
  1  2  1  0  0  0  0
  1 25  1  0  0  0  0
  1 26  1  0  0  0  0
  1 27  1  0  0  0  0
  2 24  1  0  0  0  0
  2  3  2  0  0  0  0
  3  4  1  0  0  0  0
  3 28  1  0  0  0  0
  4  5  2  0  0  0  0
  4 29  1  0  0  0  0
  5  6  1  0  0  0  0
  5 23  1  0  0  0  0
  6  7  1  0  0  0  0
  6 30  1  0  0  0  0
  6 31  1  0  0  0  0
  7  8  1  0  0  0  0
  7 32  1  0  0  0  0
  7 33  1  0  0  0  0
  8  9  1  0  0  0  0
  8 34  1  0  0  0  0
  9 10  2  0  0  0  0
  9 11  1  0  0  0  0
 11 22  1  0  0  0  0
 11 12  1  0  0  0  0
 12 13  1  0  0  0  0
 12 35  1  0  0  0  0
 12 36  1  0  0  0  0
 13 14  1  0  0  0  0
 13 37  1  0  0  0  0
 13 38  1  0  0  0  0
 14 15  1  0  0  0  0
 14 21  1  0  0  0  0
 15 16  1  0  0  0  0
 15 17  1  0  0  0  0
 15 39  1  0  0  0  0
 16 40  1  0  0  0  0
 16 41  1  0  0  0  0
 16 42  1  0  0  0  0
 17 18  1  0  0  0  0
 17 19  1  0  0  0  0
 17 20  1  0  0  0  0
 21 22  1  0  0  0  0
 21 43  1  0  0  0  0
 21 44  1  0  0  0  0
 22 45  1  0  0  0  0
 22 46  1  0  0  0  0
 23 24  2  0  0  0  0
 23 47  1  0  0  0  0
 24 48  1  0  0  0  0
M  CHG  1  24   1
M  END
> <s_m_source_file>
AV-unprocessed.smi

> <i_m_source_file_index>
906

> <i_lp_mmshare_version>
43012

> <i_f3d_flags>
0

> <s_epik_input>
W0NIM11jMVtjSF1bY0hdYyhbY0hdbjEpW0NIMl1bQ0gyXVtOSF1DKD1PKU4yW0NIMl1bQ0gyXU4oW0NASF0oW0NIM10pQyhGKShGKUYpW0NIMl1bQ0gyXTI=

> <s_epik_cmdline>
J2VwaWtfcHl0aG9uJywgJy1waCcsICc3LjAnLCAnLXRuJywgJzgnLCAnLW1hJywgJzIwMCcsICctbWV0YWxfYmluZGluZycsICctaW1hZScsICc8aW5maWxlLm1hZT4nLCAnLW9tYWUnLCAnPG91dGZpbGUubWFlPic=

> <r_epik_Ionization_Penalty>
1.4413

> <r_epik_Ionization_Penalty_Charging>
1.42075

> <r_epik_Ionization_Penalty_Neutral>
0.0205507

> <r_epik_State_Penalty>
1.52216

> <r_epik_Charging_Adjusted_Penalty>
2.94291

> <i_epik_Tot_Q>
1

> <i_epik_Tot_abs_Q>
1

> <r_epik_Metal_State_Penalty>
1.57308

> <b_epik_Metal_Only>
0

> <s_lp_Force_Field>
OPLS_2005

> <r_lp_Energy>
53.1846

> <b_lp_Chiralities_Consistent>
1

> <s_lp_Variant>
AV-unprocessed.smi:906-4

> <Gold.Version>
5.8.1

> <Gold.Id.Protein>
6NUR|6NUR_protein|mol2

> <Gold.PLP.Fitness>
40.2636

> <Gold.PLP.PLP>
-37.9463

> <Gold.PLP.part.hbond>
-1.0000

> <Gold.PLP.part.metal>
0.0000

> <Gold.PLP.part.buried>
-3.7415

> <Gold.PLP.part.nonpolar>
-34.6089

> <Gold.PLP.part.repulsive>
1.2609

> <Gold.PLP.ligand.clash>
0.0000

> <Gold.PLP.ligand.torsion>
0.6599

> <Gold.PLP.Chemscore.Hbond>
0.9833

> <Gold.PLP.Chemscore.CHOScore>
0.0000

> <Gold.PLP.Chemscore.Metal>
0.0000

> <Gold.Chemscore.Hbonds>
donor molecule, donor type, donor heavy atom, donor atom, acceptor molecule, acceptor atom, score
      P1  H  7989  7998       L1    10  0.83

> <Gold.PLP.Chemscore.Internal.Correction>
0.6871

> <Gold.Rescore>
     Score         DG    S(hbond)    S(metal)    S(lipo)     H(rot)  DE(clash)    DE(int)     intcor
     11.62     -13.63       0.79        0.00      83.43       1.66       1.21       0.79       ----

> <Gold.Chemscore.Fitness>
11.6227

> <Gold.Chemscore.DG>
-13.6266

> <Gold.Chemscore.ZeroCoef>
-5.4800

> <Gold.Chemscore.Hbond>
0.7853

> <Gold.Chemscore.Metal>
0.0000

> <Gold.Chemscore.Lipo>
83.4309

> <Gold.Chemscore.Internal_Hbond>
0.0000

> <Gold.Chemscore.DEClash>
1.2110

> <Gold.Chemscore.DEInternal>
0.7929

> <Gold.Chemscore.Rot>
1.6553

> <Gold.Chemscore.Internal.Correction>
   9.000000E+99

> <Gold.Chemscore.Hbonds>
donor molecule, donor type, donor heavy atom, donor atom, acceptor molecule, acceptor atom, score
      P1  H  7989  7998       L1    10  0.83

> <Gold.Chemscore.Hbond.Weighted>
-2.6228

> <Gold.Chemscore.Metal.Weighted>
-0.0000

> <Gold.Chemscore.Lipo.Weighted>
-9.7614

> <Gold.Chemscore.Internal_Hbond.Weighted>
0.0000

> <Gold.Chemscore.DEClash.Weighted>
1.2110

> <Gold.Chemscore.DEInternal.Weighted>
0.7929

> <Gold.Chemscore.Rot.Weighted>
4.2376

> <Gold.Chemscore.Internal.Correction.Weighted>
   9.000000E+99

> <Gold.Protein.RotatedTorsions>
[ 6907 6896 6895 6894 ] final  -86.05 input  -60.11 | X-H torsion
[ 7974 7965 7964 7962 ] final -122.39 input  175.53 | X-H torsion
[ 8008 7997 7996 7995 ] final  -83.25 input   59.86 | X-H torsion
[ 10167 10162 10161 10158 ] final -112.44 input  -65.29 | X-H torsion
[ 10718 10713 10712 10709 ] final -122.65 input   66.30 | X-H torsion
[ 10763 10752 10751 10750 ] final -122.92 input  -60.55 | X-H torsion
[ 11005 11000 10999 10996 ] final  -17.08 input  -57.11 | X-H torsion

> <Gold.Protein.ActiveResidues>
 VAL166  LYS551  ARG553  GLY616  TRP617  ASP618  TYR619  PRO620  LYS621  CYS622 
 ASP623  PHE694  ASN695  SER759  ASP760  ASP761  ALA762  ILE779  LEU786  VAL792 
 PHE793  MET794  SER795  GLU796  ALA797  LYS798  CYS799  TRP800  GLU811  SER814 

> <Gold.Protein.RotatedAtoms>
  150.6868  134.3110  159.4745 H   0  0  0  0  0  0  0  0  0  0  0  0  # atno 6907 bound_to 6896
  152.0996  134.9348  160.0579 H   0  0  0  0  0  0  0  0  0  0  0  0  # atno 6908 bound_to 6896
  152.0633  133.4037  159.4464 H   0  0  0  0  0  0  0  0  0  0  0  0  # atno 6909 bound_to 6896
  145.0300  140.8060  143.4329 H   0  0  0  0  0  0  0  0  0  0  0  0  # atno 7974 bound_to 7965
  154.6171  140.0621  156.9568 H   0  0  0  0  0  0  0  0  0  0  0  0  # atno 8008 bound_to 7997
  155.1878  140.3304  155.4345 H   0  0  0  0  0  0  0  0  0  0  0  0  # atno 8009 bound_to 7997
  156.2410  140.1886  156.6970 H   0  0  0  0  0  0  0  0  0  0  0  0  # atno 8010 bound_to 7997
  140.1227  143.4430  152.1680 H   0  0  0  0  0  0  0  0  0  0  0  0  # atno 10167 bound_to 10162
  156.1436  130.6484  150.9808 H   0  0  0  0  0  0  0  0  0  0  0  0  # atno 10718 bound_to 10713
  154.8698  135.4116  154.2860 H   0  0  0  0  0  0  0  0  0  0  0  0  # atno 10763 bound_to 10752
  153.3744  135.7009  153.6618 H   0  0  0  0  0  0  0  0  0  0  0  0  # atno 10764 bound_to 10752
  153.5467  135.3637  155.2713 H   0  0  0  0  0  0  0  0  0  0  0  0  # atno 10765 bound_to 10752
  140.8132  133.8124  155.9584 H   0  0  0  0  0  0  0  0  0  0  0  0  # atno 11005 bound_to 11000
  145.1783  139.2366  143.5306 LP  0  0  0  0  0  0  0  0  0  0  0  0  # atno 17320 bound_to 7965
  146.3497  140.1550  142.8591 LP  0  0  0  0  0  0  0  0  0  0  0  0  # atno 17321 bound_to 7965
  139.5560  144.7373  151.4292 LP  0  0  0  0  0  0  0  0  0  0  0  0  # atno 17342 bound_to 10162
  140.6863  143.7966  150.7191 LP  0  0  0  0  0  0  0  0  0  0  0  0  # atno 17343 bound_to 10162
  157.6597  131.0883  150.7867 LP  0  0  0  0  0  0  0  0  0  0  0  0  # atno 17370 bound_to 10713
  156.7940  130.4899  149.5380 LP  0  0  0  0  0  0  0  0  0  0  0  0  # atno 17371 bound_to 10713
  140.9176  134.2182  157.4947 LP  0  0  0  0  0  0  0  0  0  0  0  0  # atno 17394 bound_to 11000
  139.8713  134.9778  156.4972 LP  0  0  0  0  0  0  0  0  0  0  0  0  # atno 17395 bound_to 11000

$$$$
