AV-unprocessed.smi:609|AV-procd|sdf|3051|dock4
  -GOLD-   2262023573D 1   1.00000     0.00000
 Structure written by MMmdl.
 43 45  0  0  0  0  0  0  0  0  2 V2000
  152.4210  145.0243  160.2032 C   0  0  0  0  0  0  0  0  0  0  0  0
  152.0882  143.7558  159.4361 C   0  0  0  0  0  0  0  0  0  0  0  0
  151.3278  143.8653  158.2498 C   0  0  0  0  0  0  0  0  0  0  0  0
  151.0409  142.6879  157.5695 C   0  0  0  0  0  0  0  0  0  0  0  0
  150.3279  142.4622  156.3898 N   0  3  0  0  0  0  0  0  0  0  0  0
  150.3162  141.1283  156.1144 C   0  0  0  0  0  0  0  0  0  0  0  0
  151.0102  140.5002  157.1017 N   0  0  0  0  0  0  0  0  0  0  0  0
  151.3044  139.0735  157.2879 C   0  0  0  0  0  0  0  0  0  0  0  0
  150.8997  138.5559  158.6818 C   0  0  2  0  0  0  0  0  0  0  0  0
  151.6543  137.4001  158.9925 O   0  0  0  0  0  0  0  0  0  0  0  0
  149.4022  138.2195  158.7564 C   0  0  0  0  0  0  0  0  0  0  0  0
  149.1083  136.4245  158.7825 S   0  0  0  0  0  0  0  0  0  0  0  0
  148.4278  136.2477  160.4053 C   0  0  0  0  0  0  0  0  0  0  0  0
  148.2353  137.2418  161.2692 N   0  0  0  0  0  0  0  0  0  0  0  0
  147.6881  136.6407  162.3974 C   0  0  0  0  0  0  0  0  0  0  0  0
  147.5660  135.2906  162.1777 C   0  0  0  0  0  0  0  0  0  0  0  0
  148.0441  135.0537  160.8958 N   0  0  0  0  0  0  0  0  0  0  0  0
  148.1091  133.7649  160.2346 C   0  0  0  0  0  0  0  0  0  0  0  0
  151.4809  141.4326  158.0316 C   0  0  0  0  0  0  0  0  0  0  0  0
  152.2301  141.3058  159.1986 C   0  0  0  0  0  0  0  0  0  0  0  0
  152.5334  142.4921  159.9045 C   0  0  0  0  0  0  0  0  0  0  0  0
  153.3516  142.3864  161.1802 C   0  0  0  0  0  0  0  0  0  0  0  0
  152.0464  145.9111  159.6906 H   0  0  0  0  0  0  0  0  0  0  0  0
  153.4999  145.1350  160.3130 H   0  0  0  0  0  0  0  0  0  0  0  0
  151.9720  144.9987  161.1964 H   0  0  0  0  0  0  0  0  0  0  0  0
  150.9859  144.8236  157.8870 H   0  0  0  0  0  0  0  0  0  0  0  0
  149.8461  140.6544  155.2648 H   0  0  0  0  0  0  0  0  0  0  0  0
  150.8013  138.5123  156.4995 H   0  0  0  0  0  0  0  0  0  0  0  0
  152.3751  138.9371  157.1300 H   0  0  0  0  0  0  0  0  0  0  0  0
  151.1293  139.3173  159.4281 H   0  0  0  0  0  0  0  0  0  0  0  0
  151.0998  136.8012  159.4698 H   0  0  0  0  0  0  0  0  0  0  0  0
  148.9767  138.6471  159.6651 H   0  0  0  0  0  0  0  0  0  0  0  0
  148.8726  138.6635  157.9125 H   0  0  0  0  0  0  0  0  0  0  0  0
  147.4275  137.2204  163.2707 H   0  0  0  0  0  0  0  0  0  0  0  0
  147.1892  134.5004  162.8105 H   0  0  0  0  0  0  0  0  0  0  0  0
  147.7165  132.9853  160.8882 H   0  0  0  0  0  0  0  0  0  0  0  0
  149.1445  133.5293  159.9867 H   0  0  0  0  0  0  0  0  0  0  0  0
  147.5169  133.7894  159.3193 H   0  0  0  0  0  0  0  0  0  0  0  0
  152.5695  140.3436  159.5527 H   0  0  0  0  0  0  0  0  0  0  0  0
  153.5669  141.3472  161.4309 H   0  0  0  0  0  0  0  0  0  0  0  0
  152.8130  142.8253  162.0204 H   0  0  0  0  0  0  0  0  0  0  0  0
  154.3029  142.9066  161.0675 H   0  0  0  0  0  0  0  0  0  0  0  0
  149.8837  143.1642  155.8118 H   0  0  0  0  0  0  0  0  0  0  0  0
  1  2  1  0  0  0  0
  1 23  1  0  0  0  0
  1 24  1  0  0  0  0
  1 25  1  0  0  0  0
  2 21  1  0  0  0  0
  2  3  2  0  0  0  0
  3  4  1  0  0  0  0
  3 26  1  0  0  0  0
  4 19  2  0  0  0  0
  4  5  1  0  0  0  0
  5  6  2  0  0  0  0
  5 43  1  0  0  0  0
  6  7  1  0  0  0  0
  6 27  1  0  0  0  0
  7  8  1  0  0  0  0
  7 19  1  0  0  0  0
  8  9  1  0  0  0  0
  8 28  1  0  0  0  0
  8 29  1  0  0  0  0
  9 10  1  0  0  0  0
  9 11  1  0  0  0  0
  9 30  1  0  0  0  0
 10 31  1  0  0  0  0
 11 12  1  0  0  0  0
 11 32  1  0  0  0  0
 11 33  1  0  0  0  0
 12 13  1  0  0  0  0
 13 17  1  0  0  0  0
 13 14  2  0  0  0  0
 14 15  1  0  0  0  0
 15 16  2  0  0  0  0
 15 34  1  0  0  0  0
 16 17  1  0  0  0  0
 16 35  1  0  0  0  0
 17 18  1  0  0  0  0
 18 36  1  0  0  0  0
 18 37  1  0  0  0  0
 18 38  1  0  0  0  0
 19 20  1  0  0  0  0
 20 21  2  0  0  0  0
 20 39  1  0  0  0  0
 21 22  1  0  0  0  0
 22 40  1  0  0  0  0
 22 41  1  0  0  0  0
 22 42  1  0  0  0  0
M  CHG  1   5   1
M  END
> <s_m_source_file>
AV-unprocessed.smi

> <i_m_source_file_index>
609

> <i_lp_mmshare_version>
43012

> <i_f3d_flags>
0

> <s_epik_input>
W0NIM11jKFtjSF0xKWMoW0NIM10pW2NIXWMoYzEyKW4oW2NIXW4yKVtDSDJdW0NASF0oW09IXSlbQ0gyXVNjM25bY0hdW2NIXW4zW0NIM10=

> <s_epik_cmdline>
J2VwaWtfcHl0aG9uJywgJy1waCcsICc3LjAnLCAnLXRuJywgJzgnLCAnLW1hJywgJzIwMCcsICctbWV0YWxfYmluZGluZycsICctaW1hZScsICc8aW5maWxlLm1hZT4nLCAnLW9tYWUnLCAnPG91dGZpbGUubWFlPic=

> <r_epik_Ionization_Penalty>
2.09683

> <r_epik_Ionization_Penalty_Charging>
2.09682

> <r_epik_Ionization_Penalty_Neutral>
2.49751e-06

> <r_epik_State_Penalty>
2.21514

> <r_epik_Charging_Adjusted_Penalty>
4.31197

> <i_epik_Tot_Q>
1

> <i_epik_Tot_abs_Q>
1

> <r_epik_Metal_State_Penalty>
1.52634

> <b_epik_Metal_Only>
0

> <s_lp_Force_Field>
OPLS_2005

> <r_lp_Energy>
12.8682

> <b_lp_Chiralities_Consistent>
1

> <s_lp_Variant>
AV-unprocessed.smi:609-7

> <Gold.Version>
5.8.1

> <Gold.Id.Protein>
6NUR|6NUR_protein|mol2

> <Gold.PLP.Fitness>
56.4302

> <Gold.PLP.PLP>
-48.5866

> <Gold.PLP.part.hbond>
-3.0000

> <Gold.PLP.part.metal>
0.0000

> <Gold.PLP.part.buried>
-6.5210

> <Gold.PLP.part.nonpolar>
-39.2500

> <Gold.PLP.part.repulsive>
0.0818

> <Gold.PLP.ligand.clash>
0.5564

> <Gold.PLP.ligand.torsion>
1.2987

> <Gold.PLP.Chemscore.Hbond>
3.6640

> <Gold.PLP.Chemscore.CHOScore>
0.0000

> <Gold.PLP.Chemscore.Metal>
0.0000

> <Gold.Chemscore.Hbonds>
donor molecule, donor type, donor heavy atom, donor atom, acceptor molecule, acceptor atom, score
      L1  H     5    43       P1  8028  2.00
      P1  H  6931  6943       L1    14  0.76
      P1  H  6934  6947       L1    14  0.50

> <Gold.PLP.Chemscore.Internal.Correction>
0.0054

> <Gold.Rescore>
     Score         DG    S(hbond)    S(metal)    S(lipo)     H(rot)  DE(clash)    DE(int)     intcor
     19.19     -20.52       2.41        0.00     114.09       2.48       0.02       1.31       ----

> <Gold.Chemscore.Fitness>
19.1935

> <Gold.Chemscore.DG>
-20.5161

> <Gold.Chemscore.ZeroCoef>
-5.4800

> <Gold.Chemscore.Hbond>
2.4054

> <Gold.Chemscore.Metal>
0.0000

> <Gold.Chemscore.Lipo>
114.0859

> <Gold.Chemscore.Internal_Hbond>
0.0000

> <Gold.Chemscore.DEClash>
0.0158

> <Gold.Chemscore.DEInternal>
1.3068

> <Gold.Chemscore.Rot>
2.4789

> <Gold.Chemscore.Internal.Correction>
   9.000000E+99

> <Gold.Chemscore.Hbonds>
donor molecule, donor type, donor heavy atom, donor atom, acceptor molecule, acceptor atom, score
      L1  H     5    43       P1  8028  0.94
      P1  H  6931  6943       L1    14  0.19
      P1  H  6934  6947       L1    14  0.32

> <Gold.Chemscore.Hbond.Weighted>
-8.0339

> <Gold.Chemscore.Metal.Weighted>
-0.0000

> <Gold.Chemscore.Lipo.Weighted>
-13.3481

> <Gold.Chemscore.Internal_Hbond.Weighted>
0.0000

> <Gold.Chemscore.DEClash.Weighted>
0.0158

> <Gold.Chemscore.DEInternal.Weighted>
1.3068

> <Gold.Chemscore.Rot.Weighted>
6.3459

> <Gold.Chemscore.Internal.Correction.Weighted>
   9.000000E+99

> <Gold.Protein.RotatedTorsions>
[ 6907 6896 6895 6894 ] final   38.49 input  -60.11 | X-H torsion
[ 7974 7965 7964 7962 ] final -169.57 input  175.53 | X-H torsion
[ 8008 7997 7996 7995 ] final -144.93 input   59.86 | X-H torsion
[ 10167 10162 10161 10158 ] final   21.06 input  -65.29 | X-H torsion
[ 10718 10713 10712 10709 ] final   16.56 input   66.30 | X-H torsion
[ 10763 10752 10751 10750 ] final   78.51 input  -60.55 | X-H torsion
[ 11005 11000 10999 10996 ] final  -41.15 input  -57.11 | X-H torsion

> <Gold.Protein.ActiveResidues>
 VAL166  LYS551  ARG553  GLY616  TRP617  ASP618  TYR619  PRO620  LYS621  CYS622 
 ASP623  PHE694  ASN695  SER759  ASP760  ASP761  ALA762  ILE779  LEU786  VAL792 
 PHE793  MET794  SER795  GLU796  ALA797  LYS798  CYS799  TRP800  GLU811  SER814 

> <Gold.Protein.RotatedAtoms>
  152.1571  134.8942  160.0543 H   0  0  0  0  0  0  0  0  0  0  0  0  # atno 6907 bound_to 6896
  151.9951  133.3800  159.4168 H   0  0  0  0  0  0  0  0  0  0  0  0  # atno 6908 bound_to 6896
  150.6883  134.3816  159.5080 H   0  0  0  0  0  0  0  0  0  0  0  0  # atno 6909 bound_to 6896
  144.7183  140.2202  143.6317 H   0  0  0  0  0  0  0  0  0  0  0  0  # atno 7974 bound_to 7965
  155.5349  140.0603  157.2881 H   0  0  0  0  0  0  0  0  0  0  0  0  # atno 8008 bound_to 7997
  154.4471  140.1929  156.0577 H   0  0  0  0  0  0  0  0  0  0  0  0  # atno 8009 bound_to 7997
  156.0626  140.3270  155.7483 H   0  0  0  0  0  0  0  0  0  0  0  0  # atno 8010 bound_to 7997
  140.5455  143.9601  150.6545 H   0  0  0  0  0  0  0  0  0  0  0  0  # atno 10167 bound_to 10162
  157.0696  130.6342  149.5803 H   0  0  0  0  0  0  0  0  0  0  0  0  # atno 10718 bound_to 10713
  153.0880  135.4874  154.8634 H   0  0  0  0  0  0  0  0  0  0  0  0  # atno 10763 bound_to 10752
  154.7234  135.3044  154.9013 H   0  0  0  0  0  0  0  0  0  0  0  0  # atno 10764 bound_to 10752
  153.9670  135.6805  153.4799 H   0  0  0  0  0  0  0  0  0  0  0  0  # atno 10765 bound_to 10752
  141.0225  133.6856  156.2418 H   0  0  0  0  0  0  0  0  0  0  0  0  # atno 11005 bound_to 11000
  145.8508  139.2174  143.1773 LP  0  0  0  0  0  0  0  0  0  0  0  0  # atno 17320 bound_to 7965
  146.0262  140.8301  142.9898 LP  0  0  0  0  0  0  0  0  0  0  0  0  # atno 17321 bound_to 7965
  140.3013  143.3258  152.0969 LP  0  0  0  0  0  0  0  0  0  0  0  0  # atno 17342 bound_to 10162
  139.5006  144.6695  151.6277 LP  0  0  0  0  0  0  0  0  0  0  0  0  # atno 17343 bound_to 10162
  155.9954  130.5021  150.7458 LP  0  0  0  0  0  0  0  0  0  0  0  0  # atno 17370 bound_to 10713
  157.4889  131.0909  151.0450 LP  0  0  0  0  0  0  0  0  0  0  0  0  # atno 17371 bound_to 10713
  140.6548  134.5030  157.5580 LP  0  0  0  0  0  0  0  0  0  0  0  0  # atno 17394 bound_to 11000
  139.9155  134.8255  156.1381 LP  0  0  0  0  0  0  0  0  0  0  0  0  # atno 17395 bound_to 11000

$$$$
