AV-unprocessed.smi:613|AV-procd|sdf|3065|dock4
  -GOLD-   2262023593D 1   1.00000     0.00000
 Structure written by MMmdl.
 38 39  0  0  0  0  0  0  0  0  1 V2000
  151.2936  140.3463  159.0279 C   0  0  0  0  0  0  0  0  0  0  0  0
  151.6743  141.5392  158.2804 N   0  0  0  0  0  0  0  0  0  0  0  0
  151.7069  141.4641  156.8173 C   0  0  0  0  0  0  0  0  0  0  0  0
  151.6523  140.0190  156.2830 C   0  0  1  0  0  0  0  0  0  0  0  0
  150.2843  139.6379  155.6764 C   0  0  0  0  0  0  0  0  0  0  0  0
  150.2946  138.2990  155.0806 N   0  0  0  0  0  0  0  0  0  0  0  0
  149.0076  137.8991  154.4951 C   0  0  0  0  0  0  0  0  0  0  0  0
  148.3275  138.9820  153.6487 C   0  0  0  0  0  0  0  0  0  0  0  0
  148.1191  138.7026  152.3595 N   0  0  0  0  0  0  0  0  0  0  0  0
  147.9976  140.0535  154.1519 O   0  0  0  0  0  0  0  0  0  0  0  0
  151.3776  138.2064  154.1066 C   0  0  0  0  0  0  0  0  0  0  0  0
  152.7338  138.5909  154.7198 C   0  0  0  0  0  0  0  0  0  0  0  0
  152.6514  139.8996  155.2736 O   0  0  0  0  0  0  0  0  0  0  0  0
  151.7194  142.7883  158.9461 C   0  0  0  0  0  0  0  0  0  0  0  0
  152.1735  143.9617  158.2947 C   0  0  0  0  0  0  0  0  0  0  0  0
  152.1992  145.1601  159.0285 C   0  0  0  0  0  0  0  0  0  0  0  0
  151.7684  145.1097  160.3647 C   0  0  0  0  0  0  0  0  0  0  0  0
  151.3379  143.9690  160.9444 N   0  0  0  0  0  0  0  0  0  0  0  0
  151.3131  142.8320  160.2420 N   0  0  0  0  0  0  0  0  0  0  0  0
  152.0111  140.1449  159.8237 H   0  0  0  0  0  0  0  0  0  0  0  0
  151.2658  139.4711  158.3783 H   0  0  0  0  0  0  0  0  0  0  0  0
  150.3028  140.4658  159.4674 H   0  0  0  0  0  0  0  0  0  0  0  0
  150.9265  142.0706  156.3579 H   0  0  0  0  0  0  0  0  0  0  0  0
  152.6432  141.9195  156.4929 H   0  0  0  0  0  0  0  0  0  0  0  0
  151.8998  139.3276  157.0904 H   0  0  0  0  0  0  0  0  0  0  0  0
  149.5338  139.6939  156.4638 H   0  0  0  0  0  0  0  0  0  0  0  0
  150.0011  140.3748  154.9226 H   0  0  0  0  0  0  0  0  0  0  0  0
  149.1405  137.0072  153.8798 H   0  0  0  0  0  0  0  0  0  0  0  0
  148.3130  137.6192  155.2886 H   0  0  0  0  0  0  0  0  0  0  0  0
  147.6779  139.3870  151.7628 H   0  0  0  0  0  0  0  0  0  0  0  0
  148.4072  137.8098  151.9866 H   0  0  0  0  0  0  0  0  0  0  0  0
  151.4389  137.1909  153.7129 H   0  0  0  0  0  0  0  0  0  0  0  0
  151.1708  138.8580  153.2558 H   0  0  0  0  0  0  0  0  0  0  0  0
  153.0266  137.8779  155.4921 H   0  0  0  0  0  0  0  0  0  0  0  0
  153.5129  138.5753  153.9574 H   0  0  0  0  0  0  0  0  0  0  0  0
  152.4998  143.9666  157.2660 H   0  0  0  0  0  0  0  0  0  0  0  0
  152.5378  146.0838  158.5834 H   0  0  0  0  0  0  0  0  0  0  0  0
  151.7662  145.9978  160.9790 H   0  0  0  0  0  0  0  0  0  0  0  0
  1  2  1  0  0  0  0
  1 20  1  0  0  0  0
  1 21  1  0  0  0  0
  1 22  1  0  0  0  0
  2  3  1  0  0  0  0
  2 14  1  0  0  0  0
  3  4  1  0  0  0  0
  3 23  1  0  0  0  0
  3 24  1  0  0  0  0
  4 13  1  0  0  0  0
  4  5  1  0  0  0  0
  4 25  1  0  0  0  0
  5  6  1  0  0  0  0
  5 26  1  0  0  0  0
  5 27  1  0  0  0  0
  6  7  1  0  0  0  0
  6 11  1  0  0  0  0
  7  8  1  0  0  0  0
  7 28  1  0  0  0  0
  7 29  1  0  0  0  0
  8  9  1  0  0  0  0
  8 10  2  0  0  0  0
  9 30  1  0  0  0  0
  9 31  1  0  0  0  0
 11 12  1  0  0  0  0
 11 32  1  0  0  0  0
 11 33  1  0  0  0  0
 12 13  1  0  0  0  0
 12 34  1  0  0  0  0
 12 35  1  0  0  0  0
 14 19  1  0  0  0  0
 14 15  2  0  0  0  0
 15 16  1  0  0  0  0
 15 36  1  0  0  0  0
 16 17  2  0  0  0  0
 16 37  1  0  0  0  0
 17 18  1  0  0  0  0
 17 38  1  0  0  0  0
 18 19  2  0  0  0  0
M  END
> <s_m_source_file>
AV-unprocessed.smi

> <i_m_source_file_index>
613

> <i_lp_mmshare_version>
43012

> <i_f3d_flags>
0

> <s_epik_input>
bjFuW2NIXVtjSF1bY0hdYzFOKFtDSDNdKVtDSDJdW0NAQEhdMltDSDJdTihbQ0gyXVtDSDJdTzIpW0NIMl1DKD1PKVtOSDJd

> <s_epik_cmdline>
J2VwaWtfcHl0aG9uJywgJy1waCcsICc3LjAnLCAnLXRuJywgJzgnLCAnLW1hJywgJzIwMCcsICctbWV0YWxfYmluZGluZycsICctaW1hZScsICc8aW5maWxlLm1hZT4nLCAnLW9tYWUnLCAnPG91dGZpbGUubWFlPic=

> <r_lp_tautomer_probability>
1

> <r_epik_Ionization_Penalty>
0.0398875

> <r_epik_Ionization_Penalty_Charging>
0

> <r_epik_Ionization_Penalty_Neutral>
0.0398875

> <r_epik_State_Penalty>
0.0543012

> <r_epik_Charging_Adjusted_Penalty>
0.0543012

> <i_epik_Tot_Q>
0

> <i_epik_Tot_abs_Q>
0

> <r_epik_Metal_State_Penalty>
0.0489294

> <b_epik_Metal_Only>
0

> <s_lp_Force_Field>
OPLS_2005

> <r_lp_Energy>
25.1321

> <b_lp_Chiralities_Consistent>
1

> <s_lp_Variant>
AV-unprocessed.smi:613-2

> <Gold.Version>
5.8.1

> <Gold.Id.Protein>
6NUR|6NUR_protein|mol2

> <Gold.PLP.Fitness>
44.2916

> <Gold.PLP.PLP>
-38.8590

> <Gold.PLP.part.hbond>
-4.9502

> <Gold.PLP.part.metal>
0.0000

> <Gold.PLP.part.buried>
-6.2763

> <Gold.PLP.part.nonpolar>
-28.1607

> <Gold.PLP.part.repulsive>
0.4558

> <Gold.PLP.ligand.clash>
0.0000

> <Gold.PLP.ligand.torsion>
0.9679

> <Gold.PLP.Chemscore.Hbond>
2.3982

> <Gold.PLP.Chemscore.CHOScore>
0.0000

> <Gold.PLP.Chemscore.Metal>
0.0000

> <Gold.Chemscore.Hbonds>
donor molecule, donor type, donor heavy atom, donor atom, acceptor molecule, acceptor atom, score
      L1  H     9    31       P1  7948  1.00
      P1  H  7989  7998       L1    13  0.23
      P1  H  7997  8010       L1    13  1.00

> <Gold.PLP.Chemscore.Internal.Correction>
0.1739

> <Gold.Rescore>
     Score         DG    S(hbond)    S(metal)    S(lipo)     H(rot)  DE(clash)    DE(int)     intcor
     13.38     -15.84       2.01        0.00      78.97       2.18       0.24       2.22       ----

> <Gold.Chemscore.Fitness>
13.3760

> <Gold.Chemscore.DG>
-15.8402

> <Gold.Chemscore.ZeroCoef>
-5.4800

> <Gold.Chemscore.Hbond>
2.0082

> <Gold.Chemscore.Metal>
0.0000

> <Gold.Chemscore.Lipo>
78.9692

> <Gold.Chemscore.Internal_Hbond>
0.0000

> <Gold.Chemscore.DEClash>
0.2399

> <Gold.Chemscore.DEInternal>
2.2243

> <Gold.Chemscore.Rot>
2.1823

> <Gold.Chemscore.Internal.Correction>
   9.000000E+99

> <Gold.Chemscore.Hbonds>
donor molecule, donor type, donor heavy atom, donor atom, acceptor molecule, acceptor atom, score
      L1  H     9    31       P1  7948  0.99
      P1  H  7989  7998       L1    13  0.02
      P1  H  7997  8010       L1    13  0.32

> <Gold.Chemscore.Hbond.Weighted>
-6.7075

> <Gold.Chemscore.Metal.Weighted>
-0.0000

> <Gold.Chemscore.Lipo.Weighted>
-9.2394

> <Gold.Chemscore.Internal_Hbond.Weighted>
0.0000

> <Gold.Chemscore.DEClash.Weighted>
0.2399

> <Gold.Chemscore.DEInternal.Weighted>
2.2243

> <Gold.Chemscore.Rot.Weighted>
5.5867

> <Gold.Chemscore.Internal.Correction.Weighted>
   9.000000E+99

> <Gold.Protein.RotatedTorsions>
[ 6907 6896 6895 6894 ] final   56.97 input  -60.11 | X-H torsion
[ 7974 7965 7964 7962 ] final   27.38 input  175.53 | X-H torsion
[ 8008 7997 7996 7995 ] final   99.99 input   59.86 | X-H torsion
[ 10167 10162 10161 10158 ] final   74.99 input  -65.29 | X-H torsion
[ 10718 10713 10712 10709 ] final  153.99 input   66.30 | X-H torsion
[ 10763 10752 10751 10750 ] final  -19.10 input  -60.55 | X-H torsion
[ 11005 11000 10999 10996 ] final  157.20 input  -57.11 | X-H torsion

> <Gold.Protein.ActiveResidues>
 VAL166  LYS551  ARG553  GLY616  TRP617  ASP618  TYR619  PRO620  LYS621  CYS622 
 ASP623  PHE694  ASN695  SER759  ASP760  ASP761  ALA762  ILE779  LEU786  VAL792 
 PHE793  MET794  SER795  GLU796  ALA797  LYS798  CYS799  TRP800  GLU811  SER814 

> <Gold.Protein.RotatedAtoms>
  152.3687  134.6766  160.0183 H   0  0  0  0  0  0  0  0  0  0  0  0  # atno 6907 bound_to 6896
  151.7066  133.3306  159.3288 H   0  0  0  0  0  0  0  0  0  0  0  0  # atno 6908 bound_to 6896
  150.7657  134.6504  159.6329 H   0  0  0  0  0  0  0  0  0  0  0  0  # atno 6909 bound_to 6896
  146.1787  139.7200  142.8916 H   0  0  0  0  0  0  0  0  0  0  0  0  # atno 7974 bound_to 7965
  156.1160  140.3220  155.8140 H   0  0  0  0  0  0  0  0  0  0  0  0  # atno 8008 bound_to 7997
  155.4589  140.0538  157.3010 H   0  0  0  0  0  0  0  0  0  0  0  0  # atno 8009 bound_to 7997
  154.4793  140.2046  155.9816 H   0  0  0  0  0  0  0  0  0  0  0  0  # atno 8010 bound_to 7997
  140.0078  144.5637  150.7683 H   0  0  0  0  0  0  0  0  0  0  0  0  # atno 10167 bound_to 10162
  157.2375  131.0752  151.1814 H   0  0  0  0  0  0  0  0  0  0  0  0  # atno 10718 bound_to 10713
  153.5995  135.7000  153.5390 H   0  0  0  0  0  0  0  0  0  0  0  0  # atno 10763 bound_to 10752
  153.3109  135.4101  155.1334 H   0  0  0  0  0  0  0  0  0  0  0  0  # atno 10764 bound_to 10752
  154.8585  135.3672  154.5530 H   0  0  0  0  0  0  0  0  0  0  0  0  # atno 10765 bound_to 10752
  140.1747  134.8518  157.2732 H   0  0  0  0  0  0  0  0  0  0  0  0  # atno 11005 bound_to 11000
  145.4137  141.0399  143.3002 LP  0  0  0  0  0  0  0  0  0  0  0  0  # atno 17320 bound_to 7965
  144.8279  139.5678  143.6957 LP  0  0  0  0  0  0  0  0  0  0  0  0  # atno 17321 bound_to 7965
  140.7393  143.2790  151.3655 LP  0  0  0  0  0  0  0  0  0  0  0  0  # atno 17342 bound_to 10162
  139.6226  144.0877  152.2405 LP  0  0  0  0  0  0  0  0  0  0  0  0  # atno 17343 bound_to 10162
  157.3413  130.7035  149.6383 LP  0  0  0  0  0  0  0  0  0  0  0  0  # atno 17370 bound_to 10713
  155.9672  130.4279  150.4764 LP  0  0  0  0  0  0  0  0  0  0  0  0  # atno 17371 bound_to 10713
  140.2336  134.3879  155.7511 LP  0  0  0  0  0  0  0  0  0  0  0  0  # atno 17394 bound_to 11000
  141.2219  133.7228  156.8679 LP  0  0  0  0  0  0  0  0  0  0  0  0  # atno 17395 bound_to 11000

$$$$
