AV-unprocessed.smi:382|AV-procd|sdf|2463|dock7
  -GOLD-   2262022403D 1   1.00000     0.00000
 Structure written by MMmdl.
 36 37  0  0  0  0  0  0  0  0  1 V2000
  147.1287  140.2641  153.2327 C   0  0  0  0  0  0  0  0  0  0  0  0
  147.6918  141.2781  154.2384 C   0  0  0  0  0  0  0  0  0  0  0  0
  149.2212  141.2033  154.4044 C   0  0  0  0  0  0  0  0  0  0  0  0
  149.6190  140.7870  155.7453 N   0  0  0  0  0  0  0  0  0  0  0  0
  150.8378  140.3442  156.0879 C   0  0  0  0  0  0  0  0  0  0  0  0
  151.7600  140.2158  155.2812 O   0  0  0  0  0  0  0  0  0  0  0  0
  151.0303  139.9864  157.5693 C   0  0  0  0  0  0  0  0  0  0  0  0
  151.8596  140.9674  158.3029 N   0  0  0  0  0  0  0  0  0  0  0  0
  153.0037  140.5090  159.0051 C   0  0  0  0  0  0  0  0  0  0  0  0
  153.2970  139.3125  159.0305 O   0  0  0  0  0  0  0  0  0  0  0  0
  153.7934  141.5462  159.6652 C   0  0  0  0  0  0  0  0  0  0  0  0
  154.9701  141.1299  160.3538 C   0  0  0  0  0  0  0  0  0  0  0  0
  155.9204  140.8091  160.9315 N   0  0  0  0  0  0  0  0  0  0  0  0
  153.4205  142.8417  159.6147 C   0  0  0  0  0  0  0  0  0  0  0  0
  152.2830  143.2609  158.9599 N   0  0  0  0  0  0  0  0  0  0  0  0
  151.9890  144.6559  158.7891 C   0  0  0  0  0  0  0  0  0  0  0  0
  151.7715  145.5147  160.0158 C   0  0  0  0  0  0  0  0  0  0  0  0
  150.6078  145.1934  159.1100 C   0  0  0  0  0  0  0  0  0  0  0  0
  151.4988  142.3352  158.2375 C   0  0  0  0  0  0  0  0  0  0  0  0
  150.5347  142.7049  157.5619 O   0  0  0  0  0  0  0  0  0  0  0  0
  146.0525  140.3935  153.1158 H   0  0  0  0  0  0  0  0  0  0  0  0
  147.3020  139.2383  153.5590 H   0  0  0  0  0  0  0  0  0  0  0  0
  147.5868  140.3873  152.2510 H   0  0  0  0  0  0  0  0  0  0  0  0
  147.4226  142.2838  153.9146 H   0  0  0  0  0  0  0  0  0  0  0  0
  147.2064  141.1350  155.2046 H   0  0  0  0  0  0  0  0  0  0  0  0
  149.6343  140.4889  153.6918 H   0  0  0  0  0  0  0  0  0  0  0  0
  149.6733  142.1679  154.1679 H   0  0  0  0  0  0  0  0  0  0  0  0
  148.9186  140.8553  156.4695 H   0  0  0  0  0  0  0  0  0  0  0  0
  150.0521  139.8871  158.0436 H   0  0  0  0  0  0  0  0  0  0  0  0
  151.4529  138.9825  157.6248 H   0  0  0  0  0  0  0  0  0  0  0  0
  154.0327  143.5810  160.1105 H   0  0  0  0  0  0  0  0  0  0  0  0
  152.5025  145.1390  157.9595 H   0  0  0  0  0  0  0  0  0  0  0  0
  151.7912  145.0311  160.9907 H   0  0  0  0  0  0  0  0  0  0  0  0
  152.1608  146.5304  159.9924 H   0  0  0  0  0  0  0  0  0  0  0  0
  150.2237  145.9928  158.4798 H   0  0  0  0  0  0  0  0  0  0  0  0
  149.8597  144.5006  159.4906 H   0  0  0  0  0  0  0  0  0  0  0  0
  1  2  1  0  0  0  0
  1 21  1  0  0  0  0
  1 22  1  0  0  0  0
  1 23  1  0  0  0  0
  2  3  1  0  0  0  0
  2 24  1  0  0  0  0
  2 25  1  0  0  0  0
  3  4  1  0  0  0  0
  3 26  1  0  0  0  0
  3 27  1  0  0  0  0
  4  5  1  0  0  0  0
  4 28  1  0  0  0  0
  5  6  2  0  0  0  0
  5  7  1  0  0  0  0
  7  8  1  0  0  0  0
  7 29  1  0  0  0  0
  7 30  1  0  0  0  0
  8 19  1  0  0  0  0
  8  9  1  0  0  0  0
  9 10  2  0  0  0  0
  9 11  1  0  0  0  0
 11 12  1  0  0  0  0
 11 14  2  0  0  0  0
 12 13  3  0  0  0  0
 14 15  1  0  0  0  0
 14 31  1  0  0  0  0
 15 16  1  0  0  0  0
 15 19  1  0  0  0  0
 16 18  1  0  0  0  0
 16 17  1  0  0  0  0
 16 32  1  0  0  0  0
 17 18  1  0  0  0  0
 17 33  1  0  0  0  0
 17 34  1  0  0  0  0
 18 35  1  0  0  0  0
 18 36  1  0  0  0  0
 19 20  2  0  0  0  0
M  END
> <s_m_source_file>
AV-unprocessed.smi

> <i_m_source_file_index>
382

> <i_lp_mmshare_version>
43012

> <i_f3d_flags>
0

> <s_epik_input>
W0NIM11bQ0gyXVtDSDJdW05IXUMoPU8pW0NIMl1uMWMoPU8pYyhDI04pW2NIXW4oYzE9TylbQ0hdMltDSDJdW0NIMl0y

> <s_epik_cmdline>
J2VwaWtfcHl0aG9uJywgJy1waCcsICc3LjAnLCAnLXRuJywgJzgnLCAnLW1hJywgJzIwMCcsICctbWV0YWxfYmluZGluZycsICctaW1hZScsICc8aW5maWxlLm1hZT4nLCAnLW9tYWUnLCAnPG91dGZpbGUubWFlPic=

> <r_lp_tautomer_probability>
1

> <r_epik_Ionization_Penalty>
1.82511e-08

> <r_epik_Ionization_Penalty_Charging>
8.22213e-11

> <r_epik_Ionization_Penalty_Neutral>
1.81689e-08

> <r_epik_State_Penalty>
-0

> <r_epik_Charging_Adjusted_Penalty>
8.22213e-11

> <i_epik_Tot_Q>
0

> <i_epik_Tot_abs_Q>
0

> <r_epik_Metal_State_Penalty>
-0

> <b_epik_Metal_Only>
0

> <s_lp_Force_Field>
OPLS_2005

> <r_lp_Energy>
29.1959

> <b_lp_Chiralities_Consistent>
1

> <s_lp_Variant>
AV-unprocessed.smi:382-1

> <Gold.Version>
5.8.1

> <Gold.Id.Protein>
6NUR|6NUR_protein|mol2

> <Gold.PLP.Fitness>
50.1131

> <Gold.PLP.PLP>
-48.7460

> <Gold.PLP.part.hbond>
-2.0000

> <Gold.PLP.part.metal>
0.0000

> <Gold.PLP.part.buried>
-5.7959

> <Gold.PLP.part.nonpolar>
-41.0446

> <Gold.PLP.part.repulsive>
0.2495

> <Gold.PLP.ligand.clash>
0.0000

> <Gold.PLP.ligand.torsion>
0.7672

> <Gold.PLP.Chemscore.Hbond>
0.8960

> <Gold.PLP.Chemscore.CHOScore>
0.0000

> <Gold.PLP.Chemscore.Metal>
0.0000

> <Gold.Chemscore.Hbonds>
donor molecule, donor type, donor heavy atom, donor atom, acceptor molecule, acceptor atom, score
      P1  H  7989  7998       L1     6  0.86

> <Gold.PLP.Chemscore.Internal.Correction>
0.2135

> <Gold.Rescore>
     Score         DG    S(hbond)    S(metal)    S(lipo)     H(rot)  DE(clash)    DE(int)     intcor
     10.04     -13.41       0.98        0.00      84.53       2.04       0.01       3.36       ----

> <Gold.Chemscore.Fitness>
10.0381

> <Gold.Chemscore.DG>
-13.4119

> <Gold.Chemscore.ZeroCoef>
-5.4800

> <Gold.Chemscore.Hbond>
0.9804

> <Gold.Chemscore.Metal>
0.0000

> <Gold.Chemscore.Lipo>
84.5274

> <Gold.Chemscore.Internal_Hbond>
0.0000

> <Gold.Chemscore.DEClash>
0.0126

> <Gold.Chemscore.DEInternal>
3.3611

> <Gold.Chemscore.Rot>
2.0438

> <Gold.Chemscore.Internal.Correction>
   9.000000E+99

> <Gold.Chemscore.Hbonds>
donor molecule, donor type, donor heavy atom, donor atom, acceptor molecule, acceptor atom, score
      P1  H  7989  7998       L1     6  0.84

> <Gold.Chemscore.Hbond.Weighted>
-3.2744

> <Gold.Chemscore.Metal.Weighted>
-0.0000

> <Gold.Chemscore.Lipo.Weighted>
-9.8897

> <Gold.Chemscore.Internal_Hbond.Weighted>
0.0000

> <Gold.Chemscore.DEClash.Weighted>
0.0126

> <Gold.Chemscore.DEInternal.Weighted>
3.3611

> <Gold.Chemscore.Rot.Weighted>
5.2322

> <Gold.Chemscore.Internal.Correction.Weighted>
   9.000000E+99

> <Gold.Protein.RotatedTorsions>
[ 6907 6896 6895 6894 ] final -101.71 input  -60.11 | X-H torsion
[ 7974 7965 7964 7962 ] final  146.39 input  175.53 | X-H torsion
[ 8008 7997 7996 7995 ] final   91.82 input   59.86 | X-H torsion
[ 10167 10162 10161 10158 ] final -139.71 input  -65.29 | X-H torsion
[ 10718 10713 10712 10709 ] final   87.82 input   66.30 | X-H torsion
[ 10763 10752 10751 10750 ] final   18.36 input  -60.55 | X-H torsion
[ 11005 11000 10999 10996 ] final  -23.51 input  -57.11 | X-H torsion

> <Gold.Protein.ActiveResidues>
 VAL166  LYS551  ARG553  GLY616  TRP617  ASP618  TYR619  PRO620  LYS621  CYS622 
 ASP623  PHE694  ASN695  SER759  ASP760  ASP761  ALA762  ILE779  LEU786  VAL792 
 PHE793  MET794  SER795  GLU796  ALA797  LYS798  CYS799  TRP800  GLU811  SER814 

> <Gold.Protein.RotatedAtoms>
  150.7165  134.0693  159.3858 H   0  0  0  0  0  0  0  0  0  0  0  0  # atno 6907 bound_to 6896
  151.8675  135.0499  160.0485 H   0  0  0  0  0  0  0  0  0  0  0  0  # atno 6908 bound_to 6896
  152.2669  133.5312  159.5452 H   0  0  0  0  0  0  0  0  0  0  0  0  # atno 6909 bound_to 6896
  144.8675  139.5899  143.5902 H   0  0  0  0  0  0  0  0  0  0  0  0  # atno 7974 bound_to 7965
  156.0283  140.3333  155.7112 H   0  0  0  0  0  0  0  0  0  0  0  0  # atno 8008 bound_to 7997
  155.5923  140.0647  157.2773 H   0  0  0  0  0  0  0  0  0  0  0  0  # atno 8009 bound_to 7997
  154.4343  140.1825  156.1075 H   0  0  0  0  0  0  0  0  0  0  0  0  # atno 8010 bound_to 7997
  139.8352  143.7394  152.2665 H   0  0  0  0  0  0  0  0  0  0  0  0  # atno 10167 bound_to 10162
  157.6944  131.0270  150.3180 H   0  0  0  0  0  0  0  0  0  0  0  0  # atno 10718 bound_to 10713
  153.1256  135.6729  153.9262 H   0  0  0  0  0  0  0  0  0  0  0  0  # atno 10763 bound_to 10752
  153.8764  135.3063  155.3445 H   0  0  0  0  0  0  0  0  0  0  0  0  # atno 10764 bound_to 10752
  154.7662  135.4963  153.9639 H   0  0  0  0  0  0  0  0  0  0  0  0  # atno 10765 bound_to 10752
  140.8759  133.7688  156.0242 H   0  0  0  0  0  0  0  0  0  0  0  0  # atno 11005 bound_to 11000
  146.2906  139.7129  142.9163 LP  0  0  0  0  0  0  0  0  0  0  0  0  # atno 17320 bound_to 7965
  145.4193  141.0405  143.2973 LP  0  0  0  0  0  0  0  0  0  0  0  0  # atno 17321 bound_to 7965
  139.7614  144.7505  151.0359 LP  0  0  0  0  0  0  0  0  0  0  0  0  # atno 17342 bound_to 10162
  140.7803  143.4747  151.0099 LP  0  0  0  0  0  0  0  0  0  0  0  0  # atno 17343 bound_to 10162
  156.3672  130.3857  149.7204 LP  0  0  0  0  0  0  0  0  0  0  0  0  # atno 17370 bound_to 10713
  156.4631  130.7961  151.2981 LP  0  0  0  0  0  0  0  0  0  0  0  0  # atno 17371 bound_to 10713
  140.8519  134.2944  157.5272 LP  0  0  0  0  0  0  0  0  0  0  0  0  # atno 17394 bound_to 11000
  139.8715  134.9472  156.3961 LP  0  0  0  0  0  0  0  0  0  0  0  0  # atno 17395 bound_to 11000

$$$$
