AV-unprocessed.smi:1480|AV-procd|sdf|5986|dock2
  -GOLD-   22720 6 83D 1   1.00000     0.00000
 Structure written by MMmdl.
 37 38  0  0  0  0  0  0  0  0  1 V2000
  153.5596  141.7861  160.8074 C   0  0  0  0  0  0  0  0  0  0  0  0
  152.8413  141.5017  159.5639 N   0  0  0  0  0  0  0  0  0  0  0  0
  152.4391  142.6865  158.7926 C   0  0  0  0  0  0  0  0  0  0  0  0
  151.3577  142.3985  157.7432 C   0  0  0  0  0  0  0  0  0  0  0  0
  151.7351  141.1571  156.9248 C   0  0  2  0  0  0  0  0  0  0  0  0
  150.6928  140.8882  155.8294 C   0  0  0  0  0  0  0  0  0  0  0  0
  150.9096  140.0222  154.9817 O   0  0  0  0  0  0  0  0  0  0  0  0
  149.5799  141.6431  155.8833 N   0  0  0  0  0  0  0  0  0  0  0  0
  148.4600  141.6350  155.0119 C   0  0  0  0  0  0  0  0  0  0  0  0
  148.1130  140.5974  154.0950 C   0  0  0  0  0  0  0  0  0  0  0  0
  146.9774  141.0707  153.5020 C   0  0  0  0  0  0  0  0  0  0  0  0
  146.7017  142.3047  154.0563 N   0  0  0  0  0  0  0  0  0  0  0  0
  145.6010  143.2021  153.7531 C   0  0  0  0  0  0  0  0  0  0  0  0
  144.6892  143.3876  154.9668 C   0  0  0  0  0  0  0  0  0  0  0  0
  143.3992  143.0778  154.8135 N   0  0  0  0  0  0  0  0  0  0  0  0
  145.1442  143.8047  156.0296 O   0  0  0  0  0  0  0  0  0  0  0  0
  147.6168  142.6533  154.9879 N   0  0  0  0  0  0  0  0  0  0  0  0
  151.8762  139.9410  157.8628 C   0  0  0  0  0  0  0  0  0  0  0  0
  152.6643  140.2224  159.1533 C   0  0  0  0  0  0  0  0  0  0  0  0
  153.0870  139.2593  159.7936 O   0  0  0  0  0  0  0  0  0  0  0  0
  154.5713  141.3796  160.7683 H   0  0  0  0  0  0  0  0  0  0  0  0
  153.0449  141.3391  161.6590 H   0  0  0  0  0  0  0  0  0  0  0  0
  153.6470  142.8559  160.9997 H   0  0  0  0  0  0  0  0  0  0  0  0
  152.0805  143.4688  159.4632 H   0  0  0  0  0  0  0  0  0  0  0  0
  153.3282  143.0824  158.3000 H   0  0  0  0  0  0  0  0  0  0  0  0
  150.4006  142.2435  158.2447 H   0  0  0  0  0  0  0  0  0  0  0  0
  151.2332  143.2673  157.0953 H   0  0  0  0  0  0  0  0  0  0  0  0
  152.7009  141.3405  156.4494 H   0  0  0  0  0  0  0  0  0  0  0  0
  149.5314  142.3101  156.6397 H   0  0  0  0  0  0  0  0  0  0  0  0
  148.6023  139.6574  153.8909 H   0  0  0  0  0  0  0  0  0  0  0  0
  146.3472  140.6366  152.7398 H   0  0  0  0  0  0  0  0  0  0  0  0
  145.9914  144.1661  153.4221 H   0  0  0  0  0  0  0  0  0  0  0  0
  145.0307  142.7855  152.9218 H   0  0  0  0  0  0  0  0  0  0  0  0
  142.7608  143.1785  155.5894 H   0  0  0  0  0  0  0  0  0  0  0  0
  143.0681  142.7376  153.9221 H   0  0  0  0  0  0  0  0  0  0  0  0
  150.8937  139.5760  158.1660 H   0  0  0  0  0  0  0  0  0  0  0  0
  152.3575  139.1200  157.3297 H   0  0  0  0  0  0  0  0  0  0  0  0
  1  2  1  0  0  0  0
  1 21  1  0  0  0  0
  1 22  1  0  0  0  0
  1 23  1  0  0  0  0
  2 19  1  0  0  0  0
  2  3  1  0  0  0  0
  3  4  1  0  0  0  0
  3 24  1  0  0  0  0
  3 25  1  0  0  0  0
  4  5  1  0  0  0  0
  4 26  1  0  0  0  0
  4 27  1  0  0  0  0
  5  6  1  0  0  0  0
  5 18  1  0  0  0  0
  5 28  1  0  0  0  0
  6  7  2  0  0  0  0
  6  8  1  0  0  0  0
  8  9  1  0  0  0  0
  8 29  1  0  0  0  0
  9 17  2  0  0  0  0
  9 10  1  0  0  0  0
 10 11  2  0  0  0  0
 10 30  1  0  0  0  0
 11 12  1  0  0  0  0
 11 31  1  0  0  0  0
 12 13  1  0  0  0  0
 12 17  1  0  0  0  0
 13 14  1  0  0  0  0
 13 32  1  0  0  0  0
 13 33  1  0  0  0  0
 14 15  1  0  0  0  0
 14 16  2  0  0  0  0
 15 34  1  0  0  0  0
 15 35  1  0  0  0  0
 18 19  1  0  0  0  0
 18 36  1  0  0  0  0
 18 37  1  0  0  0  0
 19 20  2  0  0  0  0
M  END
> <s_m_source_file>
AV-unprocessed.smi

> <i_m_source_file_index>
1480

> <i_lp_mmshare_version>
43012

> <i_f3d_flags>
0

> <s_epik_input>
W0NIM11OMVtDSDJdW0NIMl1bQ0BIXShbQ0gyXUMxPU8pQyg9TylbTkhdYzJbY0hdW2NIXW4objIpW0NIMl1DKD1PKVtOSDJd

> <s_epik_cmdline>
J2VwaWtfcHl0aG9uJywgJy1waCcsICc3LjAnLCAnLXRuJywgJzgnLCAnLW1hJywgJzIwMCcsICctbWV0YWxfYmluZGluZycsICctaW1hZScsICc8aW5maWxlLm1hZT4nLCAnLW9tYWUnLCAnPG91dGZpbGUubWFlPic=

> <r_lp_tautomer_probability>
1

> <r_epik_Ionization_Penalty>
3.93272e-06

> <r_epik_Ionization_Penalty_Charging>
0

> <r_epik_Ionization_Penalty_Neutral>
3.93272e-06

> <r_epik_State_Penalty>
-0

> <r_epik_Charging_Adjusted_Penalty>
0

> <i_epik_Tot_Q>
0

> <i_epik_Tot_abs_Q>
0

> <r_epik_Metal_State_Penalty>
-0

> <b_epik_Metal_Only>
0

> <s_lp_Force_Field>
OPLS_2005

> <r_lp_Energy>
16.8293

> <b_lp_Chiralities_Consistent>
1

> <s_lp_Variant>
AV-unprocessed.smi:1480-2

> <Gold.Version>
5.8.1

> <Gold.Id.Protein>
6NUR|6NUR_protein|mol2

> <Gold.PLP.Fitness>
41.0105

> <Gold.PLP.PLP>
-35.8958

> <Gold.PLP.part.hbond>
-2.5585

> <Gold.PLP.part.metal>
0.0000

> <Gold.PLP.part.buried>
-6.1067

> <Gold.PLP.part.nonpolar>
-32.0628

> <Gold.PLP.part.repulsive>
4.4467

> <Gold.PLP.ligand.clash>
2.4602

> <Gold.PLP.ligand.torsion>
0.1931

> <Gold.PLP.Chemscore.Hbond>
2.0000

> <Gold.PLP.Chemscore.CHOScore>
0.6490

> <Gold.PLP.Chemscore.Metal>
0.0000

> <Gold.Chemscore.Hbonds>
donor molecule, donor type, donor heavy atom, donor atom, acceptor molecule, acceptor atom, score
      L1  H    15    35       P1 10174  1.00
      P1  H  7989  7998       L1     7  1.00
      L1  C    11    31       P1 10175  0.65

> <Gold.PLP.Chemscore.Internal.Correction>
0.0138

> <Gold.Rescore>
     Score         DG    S(hbond)    S(metal)    S(lipo)     H(rot)  DE(clash)    DE(int)     intcor
      9.63     -13.86       1.85        0.00      63.28       2.03       1.61       2.62       ----

> <Gold.Chemscore.Fitness>
9.6350

> <Gold.Chemscore.DG>
-13.8633

> <Gold.Chemscore.ZeroCoef>
-5.4800

> <Gold.Chemscore.Hbond>
1.8468

> <Gold.Chemscore.Metal>
0.0000

> <Gold.Chemscore.Lipo>
63.2800

> <Gold.Chemscore.Internal_Hbond>
0.0000

> <Gold.Chemscore.DEClash>
1.6130

> <Gold.Chemscore.DEInternal>
2.6154

> <Gold.Chemscore.Rot>
2.0269

> <Gold.Chemscore.Internal.Correction>
   9.000000E+99

> <Gold.Chemscore.Hbonds>
donor molecule, donor type, donor heavy atom, donor atom, acceptor molecule, acceptor atom, score
      L1  H    15    35       P1 10174  0.50
      P1  H  7989  7998       L1     7  0.60

> <Gold.Chemscore.Hbond.Weighted>
-6.1683

> <Gold.Chemscore.Metal.Weighted>
-0.0000

> <Gold.Chemscore.Lipo.Weighted>
-7.4038

> <Gold.Chemscore.Internal_Hbond.Weighted>
0.0000

> <Gold.Chemscore.DEClash.Weighted>
1.6130

> <Gold.Chemscore.DEInternal.Weighted>
2.6154

> <Gold.Chemscore.Rot.Weighted>
5.1888

> <Gold.Chemscore.Internal.Correction.Weighted>
   9.000000E+99

> <Gold.Protein.RotatedTorsions>
[ 6907 6896 6895 6894 ] final -178.98 input  -60.11 | X-H torsion
[ 7974 7965 7964 7962 ] final  -38.23 input  175.53 | X-H torsion
[ 8008 7997 7996 7995 ] final  -98.27 input   59.86 | X-H torsion
[ 10167 10162 10161 10158 ] final  -17.52 input  -65.29 | X-H torsion
[ 10718 10713 10712 10709 ] final -111.25 input   66.30 | X-H torsion
[ 10763 10752 10751 10750 ] final  -14.47 input  -60.55 | X-H torsion
[ 11005 11000 10999 10996 ] final   47.44 input  -57.11 | X-H torsion

> <Gold.Protein.ActiveResidues>
 VAL166  LYS551  ARG553  GLY616  TRP617  ASP618  TYR619  PRO620  LYS621  CYS622 
 ASP623  PHE694  ASN695  SER759  ASP760  ASP761  ALA762  ILE779  LEU786  VAL792 
 PHE793  MET794  SER795  GLU796  ALA797  LYS798  CYS799  TRP800  GLU811  SER814 

> <Gold.Protein.RotatedAtoms>
  151.6460  133.3323  159.3140 H   0  0  0  0  0  0  0  0  0  0  0  0  # atno 6907 bound_to 6896
  150.7984  134.7064  159.6588 H   0  0  0  0  0  0  0  0  0  0  0  0  # atno 6908 bound_to 6896
  152.4074  134.6188  160.0096 H   0  0  0  0  0  0  0  0  0  0  0  0  # atno 6909 bound_to 6896
  146.0505  140.6487  142.9044 H   0  0  0  0  0  0  0  0  0  0  0  0  # atno 7974 bound_to 7965
  154.7989  140.0456  157.1258 H   0  0  0  0  0  0  0  0  0  0  0  0  # atno 8008 bound_to 7997
  154.9502  140.3064  155.5059 H   0  0  0  0  0  0  0  0  0  0  0  0  # atno 8009 bound_to 7997
  156.2959  140.2289  156.4579 H   0  0  0  0  0  0  0  0  0  0  0  0  # atno 8010 bound_to 7997
  140.7248  143.5007  150.9873 H   0  0  0  0  0  0  0  0  0  0  0  0  # atno 10167 bound_to 10162
  156.0636  130.5857  150.8348 H   0  0  0  0  0  0  0  0  0  0  0  0  # atno 10718 bound_to 10713
  153.5287  135.7015  153.5694 H   0  0  0  0  0  0  0  0  0  0  0  0  # atno 10763 bound_to 10752
  153.3711  135.3944  155.1789 H   0  0  0  0  0  0  0  0  0  0  0  0  # atno 10764 bound_to 10752
  154.8687  135.3812  154.4782 H   0  0  0  0  0  0  0  0  0  0  0  0  # atno 10765 bound_to 10752
  140.1279  134.4744  155.8545 H   0  0  0  0  0  0  0  0  0  0  0  0  # atno 11005 bound_to 11000
  144.7120  140.4074  143.7073 LP  0  0  0  0  0  0  0  0  0  0  0  0  # atno 17320 bound_to 7965
  145.6732  139.1603  143.2742 LP  0  0  0  0  0  0  0  0  0  0  0  0  # atno 17321 bound_to 7965
  139.8716  143.7185  152.3166 LP  0  0  0  0  0  0  0  0  0  0  0  0  # atno 17342 bound_to 10162
  139.7436  144.7553  151.0615 LP  0  0  0  0  0  0  0  0  0  0  0  0  # atno 17343 bound_to 10162
  157.5663  131.0946  150.9485 LP  0  0  0  0  0  0  0  0  0  0  0  0  # atno 17370 bound_to 10713
  156.9711  130.5491  149.5290 LP  0  0  0  0  0  0  0  0  0  0  0  0  # atno 17371 bound_to 10713
  141.2164  133.6784  156.7013 LP  0  0  0  0  0  0  0  0  0  0  0  0  # atno 17394 bound_to 11000
  140.2880  134.8263  157.3992 LP  0  0  0  0  0  0  0  0  0  0  0  0  # atno 17395 bound_to 11000

$$$$
