AV-unprocessed.smi:21|AV-procd|sdf|131|dock9
  -GOLD-   2262015323D 1   1.00000     0.00000
 Structure written by MMmdl.
 62 65  0  0  0  0  0  0  0  0  2 V2000
  145.5223  134.5669  151.1264 C   0  0  0  0  0  0  0  0  0  0  0  0
  145.3175  135.2772  152.3376 O   0  0  0  0  0  0  0  0  0  0  0  0
  144.7758  136.5791  152.1545 C   0  0  1  0  0  0  0  0  0  0  0  0
  144.7863  137.3089  153.4916 C   0  0  0  0  0  0  0  0  0  0  0  0
  146.2294  137.8090  153.6284 C   0  0  2  0  0  0  0  0  0  0  0  0
  146.3873  139.0186  154.5853 C   0  0  0  0  0  0  0  0  0  0  0  0
  147.7365  139.1416  155.1369 N   0  0  0  0  0  0  0  0  0  0  0  0
  148.7793  138.2701  154.5959 C   0  0  0  0  0  0  0  0  0  0  0  0
  148.1025  140.2278  155.8825 C   0  0  0  0  0  0  0  0  0  0  0  0
  147.1205  140.9361  156.5046 N   0  0  0  0  0  0  0  0  0  0  0  0
  147.4066  141.9984  157.2603 C   0  0  0  0  0  0  0  0  0  0  0  0
  148.5978  142.5286  157.5311 N   0  0  0  0  0  0  0  0  0  0  0  0
  149.5953  141.8396  156.9097 C   0  0  0  0  0  0  0  0  0  0  0  0
  149.4430  140.6923  156.0747 C   0  0  0  0  0  0  0  0  0  0  0  0
  150.6985  140.2845  155.6308 N   0  0  0  0  0  0  0  0  0  0  0  0
  151.5329  141.1282  156.1712 C   0  0  0  0  0  0  0  0  0  0  0  0
  150.9533  142.1052  156.9448 N   0  0  0  0  0  0  0  0  0  0  0  0
  151.6413  143.1563  157.6751 C   0  0  0  0  0  0  0  0  0  0  0  0
  151.2250  143.2874  159.1638 C   0  0  2  0  0  0  0  0  0  0  0  0
  150.4960  144.6423  159.3405 C   0  0  0  0  0  0  0  0  0  0  0  0
  151.3273  145.7360  159.0118 O   0  0  0  0  0  0  0  0  0  0  0  0
  152.4289  143.1356  160.1436 C   0  0  1  0  0  0  0  0  0  0  0  0
  152.1092  143.3618  161.6132 C   0  0  0  0  0  0  0  0  0  0  0  0
  153.3069  142.7300  162.3066 C   0  0  0  0  0  0  0  0  0  0  0  0
  153.5996  141.5802  161.5284 O   0  0  0  0  0  0  0  0  0  0  0  0
  153.0672  141.7387  160.2163 C   0  0  0  0  0  0  0  0  0  0  0  0
  146.7193  138.0121  152.2340 N   0  3  2  0  0  0  0  0  0  0  0  0
  147.1659  139.3726  151.8514 C   0  0  0  0  0  0  0  0  0  0  0  0
  145.7106  137.4478  151.3065 C   0  0  0  0  0  0  0  0  0  0  0  0
  143.7653  136.5254  151.7457 H   0  0  0  0  0  0  0  0  0  0  0  0
  146.8238  136.9789  154.0107 H   0  0  0  0  0  0  0  0  0  0  0  0
  145.9549  133.5910  151.3463 H   0  0  0  0  0  0  0  0  0  0  0  0
  146.2045  135.0911  150.4575 H   0  0  0  0  0  0  0  0  0  0  0  0
  144.5791  134.4034  150.6040 H   0  0  0  0  0  0  0  0  0  0  0  0
  144.1006  138.1562  153.4460 H   0  0  0  0  0  0  0  0  0  0  0  0
  144.4762  136.6750  154.3230 H   0  0  0  0  0  0  0  0  0  0  0  0
  146.1162  139.9545  154.1013 H   0  0  0  0  0  0  0  0  0  0  0  0
  145.6842  138.9181  155.4124 H   0  0  0  0  0  0  0  0  0  0  0  0
  149.3970  137.8646  155.3981 H   0  0  0  0  0  0  0  0  0  0  0  0
  149.4224  138.8180  153.9063 H   0  0  0  0  0  0  0  0  0  0  0  0
  148.3535  137.4262  154.0532 H   0  0  0  0  0  0  0  0  0  0  0  0
  146.5600  142.4930  157.7134 H   0  0  0  0  0  0  0  0  0  0  0  0
  152.6000  141.0641  156.0150 H   0  0  0  0  0  0  0  0  0  0  0  0
  152.7179  142.9992  157.6011 H   0  0  0  0  0  0  0  0  0  0  0  0
  151.4350  144.0856  157.1431 H   0  0  0  0  0  0  0  0  0  0  0  0
  150.5009  142.4989  159.3752 H   0  0  0  0  0  0  0  0  0  0  0  0
  149.5850  144.6766  158.7421 H   0  0  0  0  0  0  0  0  0  0  0  0
  150.1944  144.7901  160.3778 H   0  0  0  0  0  0  0  0  0  0  0  0
  150.8115  146.5272  159.0463 H   0  0  0  0  0  0  0  0  0  0  0  0
  153.2044  143.8498  159.8613 H   0  0  0  0  0  0  0  0  0  0  0  0
  151.9915  144.4143  161.8724 H   0  0  0  0  0  0  0  0  0  0  0  0
  151.1975  142.8323  161.8934 H   0  0  0  0  0  0  0  0  0  0  0  0
  154.1639  143.4043  162.2798 H   0  0  0  0  0  0  0  0  0  0  0  0
  153.1062  142.4718  163.3465 H   0  0  0  0  0  0  0  0  0  0  0  0
  152.3245  140.9561  160.0594 H   0  0  0  0  0  0  0  0  0  0  0  0
  153.8584  141.6098  159.4789 H   0  0  0  0  0  0  0  0  0  0  0  0
  146.3606  140.1008  151.9547 H   0  0  0  0  0  0  0  0  0  0  0  0
  147.4922  139.3795  150.8112 H   0  0  0  0  0  0  0  0  0  0  0  0
  148.0136  139.6945  152.4562 H   0  0  0  0  0  0  0  0  0  0  0  0
  146.1835  136.9093  150.4857 H   0  0  0  0  0  0  0  0  0  0  0  0
  145.1274  138.2595  150.8679 H   0  0  0  0  0  0  0  0  0  0  0  0
  147.5346  137.4208  152.1540 H   0  0  0  0  0  0  0  0  0  0  0  0
  1  2  1  0  0  0  0
  1 32  1  0  0  0  0
  1 33  1  0  0  0  0
  1 34  1  0  0  0  0
  2  3  1  0  0  0  0
  3 30  1  0  0  0  0
  3 29  1  0  0  0  0
  3  4  1  0  0  0  0
  4  5  1  0  0  0  0
  4 35  1  0  0  0  0
  4 36  1  0  0  0  0
  5 31  1  0  0  0  0
  5  6  1  0  0  0  0
  5 27  1  0  0  0  0
  6  7  1  0  0  0  0
  6 37  1  0  0  0  0
  6 38  1  0  0  0  0
  7  8  1  0  0  0  0
  7  9  1  0  0  0  0
  8 39  1  0  0  0  0
  8 40  1  0  0  0  0
  8 41  1  0  0  0  0
  9 14  1  0  0  0  0
  9 10  2  0  0  0  0
 10 11  1  0  0  0  0
 11 12  2  0  0  0  0
 11 42  1  0  0  0  0
 12 13  1  0  0  0  0
 13 17  1  0  0  0  0
 13 14  2  0  0  0  0
 14 15  1  0  0  0  0
 15 16  2  0  0  0  0
 16 17  1  0  0  0  0
 16 43  1  0  0  0  0
 17 18  1  0  0  0  0
 18 19  1  0  0  0  0
 18 44  1  0  0  0  0
 18 45  1  0  0  0  0
 19 20  1  0  0  0  0
 19 22  1  0  0  0  0
 19 46  1  0  0  0  0
 20 21  1  0  0  0  0
 20 47  1  0  0  0  0
 20 48  1  0  0  0  0
 21 49  1  0  0  0  0
 22 26  1  0  0  0  0
 22 23  1  0  0  0  0
 22 50  1  0  0  0  0
 23 24  1  0  0  0  0
 23 51  1  0  0  0  0
 23 52  1  0  0  0  0
 24 25  1  0  0  0  0
 24 53  1  0  0  0  0
 24 54  1  0  0  0  0
 25 26  1  0  0  0  0
 26 55  1  0  0  0  0
 26 56  1  0  0  0  0
 27 28  1  0  0  0  0
 27 29  1  0  0  0  0
 27 62  1  0  0  0  0
 28 57  1  0  0  0  0
 28 58  1  0  0  0  0
 28 59  1  0  0  0  0
 29 60  1  0  0  0  0
 29 61  1  0  0  0  0
M  CHG  1  27   1
M  END
> <s_m_source_file>
AV-unprocessed.smi

> <i_m_source_file_index>
21

> <i_lp_mmshare_version>
43012

> <i_f3d_flags>
0

> <s_epik_input>
W0NIM11PW0NASF0xW0NIMl1bQ0BIXShOKFtDSDNdKVtDSDJdMSlbQ0gyXU4oW0NIM10pYyhuW2NIXW4yKWMoYzIzKW5bY0hdbjNbQ0gyXVtDQEhdKFtDSDJdW09IXSlbQ0BASF00W0NIMl1bQ0gyXU9bQ0gyXTQ=

> <s_epik_cmdline>
J2VwaWtfcHl0aG9uJywgJy1waCcsICc3LjAnLCAnLXRuJywgJzgnLCAnLW1hJywgJzIwMCcsICctbWV0YWxfYmluZGluZycsICctaW1hZScsICc8aW5maWxlLm1hZT4nLCAnLW9tYWUnLCAnPG91dGZpbGUubWFlPic=

> <r_lp_tautomer_probability>
1

> <r_epik_Ionization_Penalty>
0.0157465

> <r_epik_Ionization_Penalty_Charging>
0.015354

> <r_epik_Ionization_Penalty_Neutral>
0.000392529

> <r_epik_State_Penalty>
0.0120612

> <r_epik_Charging_Adjusted_Penalty>
0.0274152

> <i_epik_Tot_Q>
1

> <i_epik_Tot_abs_Q>
1

> <r_epik_Metal_State_Penalty>
0.0121253

> <b_epik_Metal_Only>
0

> <s_lp_Force_Field>
OPLS_2005

> <r_lp_Energy>
62.3844

> <b_lp_Chiralities_Consistent>
1

> <s_lp_Variant>
AV-unprocessed.smi:21-11

> <Gold.Version>
5.8.1

> <Gold.Id.Protein>
6NUR|6NUR_protein|mol2

> <Gold.PLP.Fitness>
48.4706

> <Gold.PLP.PLP>
-44.3478

> <Gold.PLP.part.hbond>
-2.0000

> <Gold.PLP.part.metal>
0.0000

> <Gold.PLP.part.buried>
-3.8068

> <Gold.PLP.part.nonpolar>
-38.5369

> <Gold.PLP.part.repulsive>
0.8417

> <Gold.PLP.ligand.clash>
0.0000

> <Gold.PLP.ligand.torsion>
1.3387

> <Gold.PLP.Chemscore.Hbond>
2.0000

> <Gold.PLP.Chemscore.CHOScore>
0.0000

> <Gold.PLP.Chemscore.Metal>
0.0000

> <Gold.Chemscore.Hbonds>
donor molecule, donor type, donor heavy atom, donor atom, acceptor molecule, acceptor atom, score
      L1  H    27    62       P1  7948  2.00
      P1  H  7989  7998       L1    15  0.03

> <Gold.PLP.Chemscore.Internal.Correction>
0.8001

> <Gold.Rescore>
     Score         DG    S(hbond)    S(metal)    S(lipo)     H(rot)  DE(clash)    DE(int)     intcor
      9.79     -14.18       1.00        0.00     113.12       3.08       1.73       2.66       ----

> <Gold.Chemscore.Fitness>
9.7852

> <Gold.Chemscore.DG>
-14.1767

> <Gold.Chemscore.ZeroCoef>
-5.4800

> <Gold.Chemscore.Hbond>
0.9987

> <Gold.Chemscore.Metal>
0.0000

> <Gold.Chemscore.Lipo>
113.1217

> <Gold.Chemscore.Internal_Hbond>
0.0000

> <Gold.Chemscore.DEClash>
1.7345

> <Gold.Chemscore.DEInternal>
2.6569

> <Gold.Chemscore.Rot>
3.0758

> <Gold.Chemscore.Internal.Correction>
   9.000000E+99

> <Gold.Chemscore.Hbonds>
donor molecule, donor type, donor heavy atom, donor atom, acceptor molecule, acceptor atom, score
      L1  H    27    62       P1  7948  1.00

> <Gold.Chemscore.Hbond.Weighted>
-3.3356

> <Gold.Chemscore.Metal.Weighted>
-0.0000

> <Gold.Chemscore.Lipo.Weighted>
-13.2352

> <Gold.Chemscore.Internal_Hbond.Weighted>
0.0000

> <Gold.Chemscore.DEClash.Weighted>
1.7345

> <Gold.Chemscore.DEInternal.Weighted>
2.6569

> <Gold.Chemscore.Rot.Weighted>
7.8741

> <Gold.Chemscore.Internal.Correction.Weighted>
   9.000000E+99

> <Gold.Protein.RotatedTorsions>
[ 6907 6896 6895 6894 ] final -112.87 input  -60.11 | X-H torsion
[ 7974 7965 7964 7962 ] final -131.65 input  175.53 | X-H torsion
[ 8008 7997 7996 7995 ] final  -84.88 input   59.86 | X-H torsion
[ 10167 10162 10161 10158 ] final   -3.02 input  -65.29 | X-H torsion
[ 10718 10713 10712 10709 ] final -171.57 input   66.30 | X-H torsion
[ 10763 10752 10751 10750 ] final -107.33 input  -60.55 | X-H torsion
[ 11005 11000 10999 10996 ] final  123.91 input  -57.11 | X-H torsion

> <Gold.Protein.ActiveResidues>
 VAL166  LYS551  ARG553  GLY616  TRP617  ASP618  TYR619  PRO620  LYS621  CYS622 
 ASP623  PHE694  ASN695  SER759  ASP760  ASP761  ALA762  ILE779  LEU786  VAL792 
 PHE793  MET794  SER795  GLU796  ALA797  LYS798  CYS799  TRP800  GLU811  SER814 

> <Gold.Protein.RotatedAtoms>
  150.7789  133.9026  159.3345 H   0  0  0  0  0  0  0  0  0  0  0  0  # atno 6907 bound_to 6896
  151.6894  135.0947  160.0240 H   0  0  0  0  0  0  0  0  0  0  0  0  # atno 6908 bound_to 6896
  152.3834  133.6539  159.6215 H   0  0  0  0  0  0  0  0  0  0  0  0  # atno 6909 bound_to 6896
  144.9359  140.7183  143.4877 H   0  0  0  0  0  0  0  0  0  0  0  0  # atno 7974 bound_to 7965
  154.6346  140.0599  156.9773 H   0  0  0  0  0  0  0  0  0  0  0  0  # atno 8008 bound_to 7997
  155.1611  140.3282  155.4393 H   0  0  0  0  0  0  0  0  0  0  0  0  # atno 8009 bound_to 7997
  156.2500  140.1930  156.6718 H   0  0  0  0  0  0  0  0  0  0  0  0  # atno 8010 bound_to 7997
  140.6874  143.6588  150.8284 H   0  0  0  0  0  0  0  0  0  0  0  0  # atno 10167 bound_to 10162
  156.7428  130.9349  151.3111 H   0  0  0  0  0  0  0  0  0  0  0  0  # atno 10718 bound_to 10713
  154.8069  135.4679  154.0414 H   0  0  0  0  0  0  0  0  0  0  0  0  # atno 10763 bound_to 10752
  153.1876  135.6850  153.8401 H   0  0  0  0  0  0  0  0  0  0  0  0  # atno 10764 bound_to 10752
  153.7930  135.3240  155.3358 H   0  0  0  0  0  0  0  0  0  0  0  0  # atno 10765 bound_to 10752
  139.9334  134.9640  156.8330 H   0  0  0  0  0  0  0  0  0  0  0  0  # atno 11005 bound_to 11000
  145.3068  139.1832  143.4660 LP  0  0  0  0  0  0  0  0  0  0  0  0  # atno 17320 bound_to 7965
  146.3266  140.3066  142.8624 LP  0  0  0  0  0  0  0  0  0  0  0  0  # atno 17321 bound_to 7965
  140.0297  143.5456  152.2765 LP  0  0  0  0  0  0  0  0  0  0  0  0  # atno 17342 bound_to 10162
  139.6244  144.7635  151.2669 LP  0  0  0  0  0  0  0  0  0  0  0  0  # atno 17343 bound_to 10162
  157.6811  130.9141  150.0270 LP  0  0  0  0  0  0  0  0  0  0  0  0  # atno 17370 bound_to 10713
  156.1453  130.3642  149.9519 LP  0  0  0  0  0  0  0  0  0  0  0  0  # atno 17371 bound_to 10713
  140.6140  134.0056  155.7589 LP  0  0  0  0  0  0  0  0  0  0  0  0  # atno 17394 bound_to 11000
  141.0935  133.9879  157.3198 LP  0  0  0  0  0  0  0  0  0  0  0  0  # atno 17395 bound_to 11000

$$$$
