AV-unprocessed.smi:1952|AV-procd|sdf|7887|dock2
  -GOLD-   2272010 43D 1   1.00000     0.00000
 Structure written by MMmdl.
 38 39  0  0  0  0  0  0  0  0  2 V2000
  146.7912  133.8745  162.4194 C   0  0  0  0  0  0  0  0  0  0  0  0
  147.2255  135.0291  161.5827 C   0  0  0  0  0  0  0  0  0  0  0  0
  147.5609  135.1438  160.2636 C   0  0  0  0  0  0  0  0  0  0  0  0
  147.8835  136.5218  160.1285 C   0  0  0  0  0  0  0  0  0  0  0  0
  148.2675  137.1350  158.9983 N   0  5  0  0  0  0  0  0  0  0  0  0
  149.5472  137.5488  158.8494 C   0  0  0  0  0  0  0  0  0  0  0  0
  150.5353  137.0878  159.4257 O   0  0  0  0  0  0  0  0  0  0  0  0
  149.6900  138.5575  157.9772 N   0  0  0  0  0  0  0  0  0  0  0  0
  150.9475  139.1954  157.5898 C   0  0  2  0  0  0  0  0  0  0  0  0
  151.8992  138.1531  156.9839 C   0  0  0  0  0  0  0  0  0  0  0  0
  151.5831  139.8913  158.8112 C   0  0  0  0  0  0  0  0  0  0  0  0
  152.0699  141.2534  158.5842 N   0  0  0  0  0  0  0  0  0  0  0  0
  152.7860  141.8003  159.7343 C   0  0  0  0  0  0  0  0  0  0  0  0
  153.2699  143.2381  159.4770 C   0  0  0  0  0  0  0  0  0  0  0  0
  152.1630  144.0620  159.1247 O   0  0  0  0  0  0  0  0  0  0  0  0
  151.4698  143.5851  157.9762 C   0  0  0  0  0  0  0  0  0  0  0  0
  150.9756  142.1514  158.2332 C   0  0  0  0  0  0  0  0  0  0  0  0
  147.7390  137.1881  161.2618 N   0  0  0  0  0  0  0  0  0  0  0  0
  147.3245  136.2365  162.2013 O   0  0  0  0  0  0  0  0  0  0  0  0
  145.8948  133.4139  162.0042 H   0  0  0  0  0  0  0  0  0  0  0  0
  146.5679  134.1884  163.4394 H   0  0  0  0  0  0  0  0  0  0  0  0
  147.5724  133.1155  162.4632 H   0  0  0  0  0  0  0  0  0  0  0  0
  147.5790  134.3664  159.5149 H   0  0  0  0  0  0  0  0  0  0  0  0
  148.8534  138.8985  157.5270 H   0  0  0  0  0  0  0  0  0  0  0  0
  150.7561  139.9469  156.8232 H   0  0  0  0  0  0  0  0  0  0  0  0
  152.8411  138.6122  156.6829 H   0  0  0  0  0  0  0  0  0  0  0  0
  151.4629  137.6886  156.0988 H   0  0  0  0  0  0  0  0  0  0  0  0
  152.1272  137.3605  157.6973 H   0  0  0  0  0  0  0  0  0  0  0  0
  150.8349  139.9174  159.6048 H   0  0  0  0  0  0  0  0  0  0  0  0
  152.3975  139.2735  159.1925 H   0  0  0  0  0  0  0  0  0  0  0  0
  152.1403  141.7865  160.6136 H   0  0  0  0  0  0  0  0  0  0  0  0
  153.6524  141.1829  159.9701 H   0  0  0  0  0  0  0  0  0  0  0  0
  153.7475  143.6431  160.3692 H   0  0  0  0  0  0  0  0  0  0  0  0
  154.0138  143.2562  158.6790 H   0  0  0  0  0  0  0  0  0  0  0  0
  150.6278  144.2450  157.7670 H   0  0  0  0  0  0  0  0  0  0  0  0
  152.1272  143.6172  157.1058 H   0  0  0  0  0  0  0  0  0  0  0  0
  150.4649  141.7823  157.3432 H   0  0  0  0  0  0  0  0  0  0  0  0
  150.2357  142.1641  159.0351 H   0  0  0  0  0  0  0  0  0  0  0  0
  1  2  1  0  0  0  0
  1 20  1  0  0  0  0
  1 21  1  0  0  0  0
  1 22  1  0  0  0  0
  2 19  1  0  0  0  0
  2  3  2  0  0  0  0
  3  4  1  0  0  0  0
  3 23  1  0  0  0  0
  4  5  1  0  0  0  0
  4 18  2  0  0  0  0
  5  6  1  0  0  0  0
  6  7  2  0  0  0  0
  6  8  1  0  0  0  0
  8  9  1  0  0  0  0
  8 24  1  0  0  0  0
  9 10  1  0  0  0  0
  9 11  1  0  0  0  0
  9 25  1  0  0  0  0
 10 26  1  0  0  0  0
 10 27  1  0  0  0  0
 10 28  1  0  0  0  0
 11 12  1  0  0  0  0
 11 29  1  0  0  0  0
 11 30  1  0  0  0  0
 12 17  1  0  0  0  0
 12 13  1  0  0  0  0
 13 14  1  0  0  0  0
 13 31  1  0  0  0  0
 13 32  1  0  0  0  0
 14 15  1  0  0  0  0
 14 33  1  0  0  0  0
 14 34  1  0  0  0  0
 15 16  1  0  0  0  0
 16 17  1  0  0  0  0
 16 35  1  0  0  0  0
 16 36  1  0  0  0  0
 17 37  1  0  0  0  0
 17 38  1  0  0  0  0
 18 19  1  0  0  0  0
M  CHG  1   5  -1
M  END
> <s_m_source_file>
AV-unprocessed.smi

> <i_m_source_file_index>
1952

> <i_lp_mmshare_version>
43012

> <i_f3d_flags>
0

> <s_epik_input>
W0NIM11jMVtjSF1jKG5vMSlbTkhdQyg9TylbTkhdW0NASF0oW0NIM10pW0NIMl1OMltDSDJdW0NIMl1PW0NIMl1bQ0gyXTI=

> <s_epik_cmdline>
J2VwaWtfcHl0aG9uJywgJy1waCcsICc3LjAnLCAnLXRuJywgJzgnLCAnLW1hJywgJzIwMCcsICctbWV0YWxfYmluZGluZycsICctaW1hZScsICc8aW5maWxlLm1hZT4nLCAnLW9tYWUnLCAnPG91dGZpbGUubWFlPic=

> <r_epik_Ionization_Penalty>
6.81701

> <r_epik_Ionization_Penalty_Charging>
6.50532

> <r_epik_Ionization_Penalty_Neutral>
0.311686

> <r_epik_State_Penalty>
6.70952

> <r_epik_Charging_Adjusted_Penalty>
13.2148

> <i_epik_Tot_Q>
-1

> <i_epik_Tot_abs_Q>
1

> <r_epik_Metal_State_Penalty>
2.64135

> <b_epik_Metal_Only>
1

> <s_lp_Force_Field>
OPLS_2005

> <r_lp_Energy>
18.9741

> <b_lp_Chiralities_Consistent>
1

> <s_lp_Variant>
AV-unprocessed.smi:1952-5

> <Gold.Version>
5.8.1

> <Gold.Id.Protein>
6NUR|6NUR_protein|mol2

> <Gold.PLP.Fitness>
39.3123

> <Gold.PLP.PLP>
-33.9438

> <Gold.PLP.part.hbond>
-3.0000

> <Gold.PLP.part.metal>
0.0000

> <Gold.PLP.part.buried>
-6.2976

> <Gold.PLP.part.nonpolar>
-24.8759

> <Gold.PLP.part.repulsive>
0.0983

> <Gold.PLP.ligand.clash>
0.0000

> <Gold.PLP.ligand.torsion>
1.4717

> <Gold.PLP.Chemscore.Hbond>
2.7520

> <Gold.PLP.Chemscore.CHOScore>
0.0000

> <Gold.PLP.Chemscore.Metal>
0.0000

> <Gold.Chemscore.Hbonds>
donor molecule, donor type, donor heavy atom, donor atom, acceptor molecule, acceptor atom, score
      P1  H  6896  6908       L1     7  0.75
      P1  H  6931  6943       L1    18  0.98
      P1  H  6934  6947       L1    18  0.82

> <Gold.PLP.Chemscore.Internal.Correction>
0.0559

> <Gold.Rescore>
     Score         DG    S(hbond)    S(metal)    S(lipo)     H(rot)  DE(clash)    DE(int)     intcor
     16.29     -18.99       2.60        0.00      74.70       1.53       0.01       2.69       ----

> <Gold.Chemscore.Fitness>
16.2857

> <Gold.Chemscore.DG>
-18.9876

> <Gold.Chemscore.ZeroCoef>
-5.4800

> <Gold.Chemscore.Hbond>
2.6015

> <Gold.Chemscore.Metal>
0.0000

> <Gold.Chemscore.Lipo>
74.6988

> <Gold.Chemscore.Internal_Hbond>
0.0000

> <Gold.Chemscore.DEClash>
0.0073

> <Gold.Chemscore.DEInternal>
2.6946

> <Gold.Chemscore.Rot>
1.5317

> <Gold.Chemscore.Internal.Correction>
   9.000000E+99

> <Gold.Chemscore.Hbonds>
donor molecule, donor type, donor heavy atom, donor atom, acceptor molecule, acceptor atom, score
      P1  H  6896  6908       L1     7  0.75
      P1  H  6931  6943       L1    18  0.76
      P1  H  6934  6947       L1    18  0.66

> <Gold.Chemscore.Hbond.Weighted>
-8.6890

> <Gold.Chemscore.Metal.Weighted>
-0.0000

> <Gold.Chemscore.Lipo.Weighted>
-8.7398

> <Gold.Chemscore.Internal_Hbond.Weighted>
0.0000

> <Gold.Chemscore.DEClash.Weighted>
0.0073

> <Gold.Chemscore.DEInternal.Weighted>
2.6946

> <Gold.Chemscore.Rot.Weighted>
3.9211

> <Gold.Chemscore.Internal.Correction.Weighted>
   9.000000E+99

> <Gold.Protein.RotatedTorsions>
[ 6907 6896 6895 6894 ] final -147.61 input  -60.11 | X-H torsion
[ 7974 7965 7964 7962 ] final    2.97 input  175.53 | X-H torsion
[ 8008 7997 7996 7995 ] final   84.13 input   59.86 | X-H torsion
[ 10167 10162 10161 10158 ] final  131.28 input  -65.29 | X-H torsion
[ 10718 10713 10712 10709 ] final -127.41 input   66.30 | X-H torsion
[ 10763 10752 10751 10750 ] final   -4.34 input  -60.55 | X-H torsion
[ 11005 11000 10999 10996 ] final   99.27 input  -57.11 | X-H torsion

> <Gold.Protein.ActiveResidues>
 VAL166  LYS551  ARG553  GLY616  TRP617  ASP618  TYR619  PRO620  LYS621  CYS622 
 ASP623  PHE694  ASN695  SER759  ASP760  ASP761  ALA762  ILE779  LEU786  VAL792 
 PHE793  MET794  SER795  GLU796  ALA797  LYS798  CYS799  TRP800  GLU811  SER814 

> <Gold.Protein.RotatedAtoms>
  151.1580  133.4863  159.2594 H   0  0  0  0  0  0  0  0  0  0  0  0  # atno 6907 bound_to 6896
  151.1484  135.0214  159.8667 H   0  0  0  0  0  0  0  0  0  0  0  0  # atno 6908 bound_to 6896
  152.5463  134.1467  159.8554 H   0  0  0  0  0  0  0  0  0  0  0  0  # atno 6909 bound_to 6896
  146.2444  140.0755  142.8360 H   0  0  0  0  0  0  0  0  0  0  0  0  # atno 7974 bound_to 7965
  155.9331  140.3413  155.6265 H   0  0  0  0  0  0  0  0  0  0  0  0  # atno 8008 bound_to 7997
  155.7133  140.0774  157.2380 H   0  0  0  0  0  0  0  0  0  0  0  0  # atno 8009 bound_to 7997
  154.4088  140.1619  156.2308 H   0  0  0  0  0  0  0  0  0  0  0  0  # atno 8010 bound_to 7997
  139.5391  144.6712  151.4685 H   0  0  0  0  0  0  0  0  0  0  0  0  # atno 10167 bound_to 10162
  156.1854  130.6760  151.0358 H   0  0  0  0  0  0  0  0  0  0  0  0  # atno 10718 bound_to 10713
  153.3836  135.6999  153.6547 H   0  0  0  0  0  0  0  0  0  0  0  0  # atno 10763 bound_to 10752
  153.5149  135.3624  155.2604 H   0  0  0  0  0  0  0  0  0  0  0  0  # atno 10764 bound_to 10752
  154.8695  135.4143  154.3138 H   0  0  0  0  0  0  0  0  0  0  0  0  # atno 10765 bound_to 10752
  139.8771  134.9088  156.4580 H   0  0  0  0  0  0  0  0  0  0  0  0  # atno 11005 bound_to 11000
  145.0779  140.9200  143.4843 LP  0  0  0  0  0  0  0  0  0  0  0  0  # atno 17320 bound_to 7965
  145.0902  139.2896  143.5739 LP  0  0  0  0  0  0  0  0  0  0  0  0  # atno 17321 bound_to 7965
  140.6612  143.8494  150.6890 LP  0  0  0  0  0  0  0  0  0  0  0  0  # atno 17342 bound_to 10162
  140.1889  143.4053  152.1878 LP  0  0  0  0  0  0  0  0  0  0  0  0  # atno 17343 bound_to 10162
  157.6895  131.0814  150.7147 LP  0  0  0  0  0  0  0  0  0  0  0  0  # atno 17370 bound_to 10713
  156.7204  130.4679  149.5524 LP  0  0  0  0  0  0  0  0  0  0  0  0  # atno 17371 bound_to 10713
  140.8884  133.7866  155.9544 LP  0  0  0  0  0  0  0  0  0  0  0  0  # atno 17394 bound_to 11000
  140.8780  134.2646  157.5158 LP  0  0  0  0  0  0  0  0  0  0  0  0  # atno 17395 bound_to 11000

$$$$
