AV-unprocessed.smi:2527|AV-procd|sdf|9946|dock1
  -GOLD-   2272013583D 1   1.00000     0.00000
 Structure written by MMmdl.
 36 38  0  0  0  0  0  0  0  0  3 V2000
  154.0490  137.4905  156.9057 C   0  0  0  0  0  0  0  0  0  0  0  0
  153.7126  138.4889  155.9592 O   0  0  0  0  0  0  0  0  0  0  0  0
  152.3222  138.7683  155.9322 C   0  0  0  0  0  0  0  0  0  0  0  0
  151.8908  139.4023  157.2624 C   0  0  0  0  0  0  0  0  0  0  0  0
  151.3505  140.7584  157.0861 N   0  0  0  0  0  0  0  0  0  0  0  0
  150.5284  141.2582  156.1216 C   0  0  0  0  0  0  0  0  0  0  0  0
  149.8575  140.3635  154.7578 S   0  0  0  0  0  0  0  0  0  0  0  0
  148.0747  140.6930  154.7859 C   0  0  0  0  0  0  0  0  0  0  0  0
  147.2580  139.7469  153.9336 C   0  0  0  0  0  0  0  0  0  0  0  0
  147.6026  139.6015  152.6209 N   0  0  0  0  0  0  0  0  0  0  0  0
  146.7476  138.7258  152.1022 C   0  0  0  0  0  0  0  0  0  0  0  0
  146.7921  138.3779  150.9241 O   0  0  0  0  0  0  0  0  0  0  0  0
  145.8864  138.3303  153.0719 N   0  5  0  0  0  0  0  0  0  0  0  0
  146.2535  139.0248  154.2702 N   0  0  0  0  0  0  0  0  0  0  0  0
  150.3158  142.5741  156.4008 N   0  3  0  0  0  0  0  0  0  0  0  0
  151.0054  142.9210  157.5640 C   0  0  0  0  0  0  0  0  0  0  0  0
  151.0939  144.1322  158.2432 C   0  0  0  0  0  0  0  0  0  0  0  0
  151.8826  144.1486  159.4127 C   0  0  0  0  0  0  0  0  0  0  0  0
  152.0367  145.6151  160.3078 Cl  0  0  0  0  0  0  0  0  0  0  0  0
  152.5456  142.9885  159.8641 C   0  0  0  0  0  0  0  0  0  0  0  0
  152.4516  141.7666  159.1664 C   0  0  0  0  0  0  0  0  0  0  0  0
  151.6707  141.7597  158.0110 C   0  0  0  0  0  0  0  0  0  0  0  0
  148.3592  140.0712  152.1465 H   0  0  0  0  0  0  0  0  0  0  0  0
  155.1228  137.3058  156.8756 H   0  0  0  0  0  0  0  0  0  0  0  0
  153.5400  136.5507  156.6874 H   0  0  0  0  0  0  0  0  0  0  0  0
  153.7891  137.8038  157.9175 H   0  0  0  0  0  0  0  0  0  0  0  0
  152.0952  139.4489  155.1103 H   0  0  0  0  0  0  0  0  0  0  0  0
  151.7597  137.8493  155.7595 H   0  0  0  0  0  0  0  0  0  0  0  0
  151.1509  138.7838  157.7704 H   0  0  0  0  0  0  0  0  0  0  0  0
  152.7455  139.4706  157.9359 H   0  0  0  0  0  0  0  0  0  0  0  0
  147.7317  140.6470  155.8202 H   0  0  0  0  0  0  0  0  0  0  0  0
  147.9000  141.7121  154.4403 H   0  0  0  0  0  0  0  0  0  0  0  0
  150.5847  145.0208  157.8997 H   0  0  0  0  0  0  0  0  0  0  0  0
  153.1389  143.0347  160.7659 H   0  0  0  0  0  0  0  0  0  0  0  0
  152.9598  140.8842  159.5263 H   0  0  0  0  0  0  0  0  0  0  0  0
  149.7402  143.1853  155.8361 H   0  0  0  0  0  0  0  0  0  0  0  0
  1  2  1  0  0  0  0
  1 24  1  0  0  0  0
  1 25  1  0  0  0  0
  1 26  1  0  0  0  0
  2  3  1  0  0  0  0
  3  4  1  0  0  0  0
  3 27  1  0  0  0  0
  3 28  1  0  0  0  0
  4  5  1  0  0  0  0
  4 29  1  0  0  0  0
  4 30  1  0  0  0  0
  5 22  1  0  0  0  0
  5  6  1  0  0  0  0
  6  7  1  0  0  0  0
  6 15  2  0  0  0  0
  7  8  1  0  0  0  0
  8 31  1  0  0  0  0
  8 32  1  0  0  0  0
  8  9  1  0  0  0  0
  9 14  2  0  0  0  0
  9 10  1  0  0  0  0
 10 11  1  0  0  0  0
 10 23  1  0  0  0  0
 11 13  1  0  0  0  0
 11 12  2  0  0  0  0
 13 14  1  0  0  0  0
 15 16  1  0  0  0  0
 15 36  1  0  0  0  0
 16 22  2  0  0  0  0
 16 17  1  0  0  0  0
 17 18  2  0  0  0  0
 17 33  1  0  0  0  0
 18 19  1  0  0  0  0
 18 20  1  0  0  0  0
 20 21  2  0  0  0  0
 20 34  1  0  0  0  0
 21 22  1  0  0  0  0
 21 35  1  0  0  0  0
M  CHG  1  13  -1
M  CHG  1  15   1
M  END
> <s_m_source_file>
AV-unprocessed.smi

> <i_m_source_file_index>
2527

> <i_lp_mmshare_version>
43012

> <i_f3d_flags>
0

> <s_epik_input>
W2NIXTFjKENsKVtjSF1bY0hdYyhjMTIpbihbQ0gyXVtDSDJdT1tDSDNdKWMobjIpU1tDSDJdYzNuYyg9TylbbkhdW25IXTM=

> <s_epik_cmdline>
J2VwaWtfcHl0aG9uJywgJy1waCcsICc3LjAnLCAnLXRuJywgJzgnLCAnLW1hJywgJzIwMCcsICctbWV0YWxfYmluZGluZycsICctaW1hZScsICc8aW5maWxlLm1hZT4nLCAnLW9tYWUnLCAnPG91dGZpbGUubWFlPic=

> <r_lp_tautomer_probability>
0.999897

> <r_epik_Ionization_Penalty>
4.90706

> <r_epik_Ionization_Penalty_Charging>
2.34068

> <r_epik_Ionization_Penalty_Neutral>
2.56639

> <r_epik_State_Penalty>
6.79966

> <r_epik_Charging_Adjusted_Penalty>
9.14033

> <i_epik_Tot_Q>
0

> <i_epik_Tot_abs_Q>
2

> <r_epik_Metal_State_Penalty>
4.68507

> <b_epik_Metal_Only>
1

> <s_lp_Force_Field>
OPLS_2005

> <r_lp_Energy>
18.8792

> <b_lp_Chiralities_Consistent>
1

> <s_lp_Variant>
AV-unprocessed.smi:2527-5

> <Gold.Version>
5.8.1

> <Gold.Id.Protein>
6NUR|6NUR_protein|mol2

> <Gold.PLP.Fitness>
57.4816

> <Gold.PLP.PLP>
-44.7962

> <Gold.PLP.part.hbond>
-3.8326

> <Gold.PLP.part.metal>
0.0000

> <Gold.PLP.part.buried>
-6.5179

> <Gold.PLP.part.nonpolar>
-37.5451

> <Gold.PLP.part.repulsive>
1.0777

> <Gold.PLP.ligand.clash>
0.0000

> <Gold.PLP.ligand.torsion>
0.8288

> <Gold.PLP.Chemscore.Hbond>
4.6800

> <Gold.PLP.Chemscore.CHOScore>
0.0000

> <Gold.PLP.Chemscore.Metal>
0.0000

> <Gold.Chemscore.Hbonds>
donor molecule, donor type, donor heavy atom, donor atom, acceptor molecule, acceptor atom, score
      L1  H    10    23       P1  7957  1.00
      L1  H    15    36       P1  8028  1.95
      P1  H  7954  7966       L1    12  1.00
      P1  H  7997  8010       L1     2  0.70

> <Gold.PLP.Chemscore.Internal.Correction>
0.3029

> <Gold.Rescore>
     Score         DG    S(hbond)    S(metal)    S(lipo)     H(rot)  DE(clash)    DE(int)     intcor
     19.59     -20.94       3.22        0.00     103.25       2.88       0.52       0.82       ----

> <Gold.Chemscore.Fitness>
19.5911

> <Gold.Chemscore.DG>
-20.9353

> <Gold.Chemscore.ZeroCoef>
-5.4800

> <Gold.Chemscore.Hbond>
3.2156

> <Gold.Chemscore.Metal>
0.0000

> <Gold.Chemscore.Lipo>
103.2497

> <Gold.Chemscore.Internal_Hbond>
0.0000

> <Gold.Chemscore.DEClash>
0.5248

> <Gold.Chemscore.DEInternal>
0.8194

> <Gold.Chemscore.Rot>
2.8770

> <Gold.Chemscore.Internal.Correction>
   9.000000E+99

> <Gold.Chemscore.Hbonds>
donor molecule, donor type, donor heavy atom, donor atom, acceptor molecule, acceptor atom, score
      L1  H    10    23       P1  7957  0.92
      L1  H    15    36       P1  8028  0.93
      P1  H  7954  7966       L1    12  0.97
      P1  H  7997  8010       L1     2  0.19

> <Gold.Chemscore.Hbond.Weighted>
-10.7401

> <Gold.Chemscore.Metal.Weighted>
-0.0000

> <Gold.Chemscore.Lipo.Weighted>
-12.0802

> <Gold.Chemscore.Internal_Hbond.Weighted>
0.0000

> <Gold.Chemscore.DEClash.Weighted>
0.5248

> <Gold.Chemscore.DEInternal.Weighted>
0.8194

> <Gold.Chemscore.Rot.Weighted>
7.3650

> <Gold.Chemscore.Internal.Correction.Weighted>
   9.000000E+99

> <Gold.Protein.RotatedTorsions>
[ 6907 6896 6895 6894 ] final   94.30 input  -60.11 | X-H torsion
[ 7974 7965 7964 7962 ] final -153.88 input  175.53 | X-H torsion
[ 8008 7997 7996 7995 ] final   80.40 input   59.86 | X-H torsion
[ 10167 10162 10161 10158 ] final  -66.90 input  -65.29 | X-H torsion
[ 10718 10713 10712 10709 ] final   51.09 input   66.30 | X-H torsion
[ 10763 10752 10751 10750 ] final -103.67 input  -60.55 | X-H torsion
[ 11005 11000 10999 10996 ] final  -16.96 input  -57.11 | X-H torsion

> <Gold.Protein.ActiveResidues>
 VAL166  LYS551  ARG553  GLY616  TRP617  ASP618  TYR619  PRO620  LYS621  CYS622 
 ASP623  PHE694  ASN695  SER759  ASP760  ASP761  ALA762  ILE779  LEU786  VAL792 
 PHE793  MET794  SER795  GLU796  ALA797  LYS798  CYS799  TRP800  GLU811  SER814 

> <Gold.Protein.RotatedAtoms>
  152.5450  134.1215  159.8400 H   0  0  0  0  0  0  0  0  0  0  0  0  # atno 6907 bound_to 6896
  151.1271  133.5056  159.2607 H   0  0  0  0  0  0  0  0  0  0  0  0  # atno 6908 bound_to 6896
  151.1716  135.0330  159.8808 H   0  0  0  0  0  0  0  0  0  0  0  0  # atno 6909 bound_to 6896
  144.7717  140.4464  143.5902 H   0  0  0  0  0  0  0  0  0  0  0  0  # atno 7974 bound_to 7965
  155.8830  140.3443  155.5901 H   0  0  0  0  0  0  0  0  0  0  0  0  # atno 8008 bound_to 7997
  155.7698  140.0844  157.2133 H   0  0  0  0  0  0  0  0  0  0  0  0  # atno 8009 bound_to 7997
  154.4026  140.1520  156.2916 H   0  0  0  0  0  0  0  0  0  0  0  0  # atno 8010 bound_to 7997
  140.5622  143.2313  151.6704 H   0  0  0  0  0  0  0  0  0  0  0  0  # atno 10167 bound_to 10162
  157.4948  130.8399  149.8245 H   0  0  0  0  0  0  0  0  0  0  0  0  # atno 10718 bound_to 10713
  154.7824  135.4814  153.9873 H   0  0  0  0  0  0  0  0  0  0  0  0  # atno 10763 bound_to 10752
  153.1512  135.6791  153.8886 H   0  0  0  0  0  0  0  0  0  0  0  0  # atno 10764 bound_to 10752
  153.8530  135.3165  155.3412 H   0  0  0  0  0  0  0  0  0  0  0  0  # atno 10765 bound_to 10752
  140.8121  133.8133  155.9573 H   0  0  0  0  0  0  0  0  0  0  0  0  # atno 11005 bound_to 11000
  145.6303  139.1535  143.2973 LP  0  0  0  0  0  0  0  0  0  0  0  0  # atno 17320 bound_to 7965
  146.1869  140.6407  142.9163 LP  0  0  0  0  0  0  0  0  0  0  0  0  # atno 17321 bound_to 7965
  139.5076  144.3642  152.0533 LP  0  0  0  0  0  0  0  0  0  0  0  0  # atno 17342 bound_to 10162
  140.2769  144.3902  150.6132 LP  0  0  0  0  0  0  0  0  0  0  0  0  # atno 17343 bound_to 10162
  156.0194  130.3801  150.2009 LP  0  0  0  0  0  0  0  0  0  0  0  0  # atno 17370 bound_to 10713
  157.0198  130.9976  151.3343 LP  0  0  0  0  0  0  0  0  0  0  0  0  # atno 17371 bound_to 10713
  140.9187  134.2169  157.4940 LP  0  0  0  0  0  0  0  0  0  0  0  0  # atno 17394 bound_to 11000
  139.8713  134.9783  156.4991 LP  0  0  0  0  0  0  0  0  0  0  0  0  # atno 17395 bound_to 11000

$$$$
