AV-unprocessed.smi:840|AV-procd|sdf|3913|dock3
  -GOLD-   22720 1373D 1   1.00000     0.00000
 Structure written by MMmdl.
 36 37  0  0  0  0  0  0  0  0  2 V2000
  149.8561  139.7255  156.7225 C   0  0  0  0  0  0  0  0  0  0  0  0
  150.6687  138.7855  157.6284 C   0  0  2  0  0  0  0  0  0  0  0  0
  149.8627  138.4874  158.8120 N   0  0  0  0  0  0  0  0  0  0  0  0
  149.3650  137.2868  159.1458 C   0  0  0  0  0  0  0  0  0  0  0  0
  149.5776  136.3104  158.4225 O   0  0  0  0  0  0  0  0  0  0  0  0
  148.6504  137.2932  160.2941 N   0  5  0  0  0  0  0  0  0  0  0  0
  148.0809  136.1609  160.7380 C   0  0  0  0  0  0  0  0  0  0  0  0
  147.9391  135.0695  159.9770 N   0  0  0  0  0  0  0  0  0  0  0  0
  147.3290  134.0045  160.6419 C   0  0  0  0  0  0  0  0  0  0  0  0
  147.0060  134.2884  161.9424 C   0  0  0  0  0  0  0  0  0  0  0  0
  147.4605  135.9124  162.3727 S   0  0  0  0  0  0  0  0  0  0  0  0
  151.9685  139.5035  158.0245 C   0  0  0  0  0  0  0  0  0  0  0  0
  153.0632  139.0706  157.6602 O   0  0  0  0  0  0  0  0  0  0  0  0
  151.8278  140.5975  158.7880 N   0  0  0  0  0  0  0  0  0  0  0  0
  152.9230  141.4346  159.2693 C   0  0  0  0  0  0  0  0  0  0  0  0
  153.1193  141.2589  160.7878 C   0  0  0  0  0  0  0  0  0  0  0  0
  153.1791  142.6705  161.3753 C   0  0  0  0  0  0  0  0  0  0  0  0
  152.3286  143.5109  160.4284 C   0  0  0  0  0  0  0  0  0  0  0  0
  152.6277  142.9312  159.0458 C   0  0  0  0  0  0  0  0  0  0  0  0
  150.4106  139.9823  155.8188 H   0  0  0  0  0  0  0  0  0  0  0  0
  149.5958  140.6556  157.2302 H   0  0  0  0  0  0  0  0  0  0  0  0
  148.9256  139.2519  156.4080 H   0  0  0  0  0  0  0  0  0  0  0  0
  150.8920  137.8633  157.0881 H   0  0  0  0  0  0  0  0  0  0  0  0
  149.6729  139.2560  159.4379 H   0  0  0  0  0  0  0  0  0  0  0  0
  147.1650  133.0784  160.1117 H   0  0  0  0  0  0  0  0  0  0  0  0
  146.5324  133.6463  162.6695 H   0  0  0  0  0  0  0  0  0  0  0  0
  150.8916  140.8810  159.0374 H   0  0  0  0  0  0  0  0  0  0  0  0
  153.8447  141.1641  158.7505 H   0  0  0  0  0  0  0  0  0  0  0  0
  152.2734  140.7277  161.2276 H   0  0  0  0  0  0  0  0  0  0  0  0
  154.0157  140.6840  161.0224 H   0  0  0  0  0  0  0  0  0  0  0  0
  152.8261  142.7117  162.4062 H   0  0  0  0  0  0  0  0  0  0  0  0
  154.2085  143.0312  161.3602 H   0  0  0  0  0  0  0  0  0  0  0  0
  151.2721  143.3742  160.6633 H   0  0  0  0  0  0  0  0  0  0  0  0
  152.5509  144.5763  160.4946 H   0  0  0  0  0  0  0  0  0  0  0  0
  153.5170  143.4141  158.6391 H   0  0  0  0  0  0  0  0  0  0  0  0
  151.8148  143.1156  158.3416 H   0  0  0  0  0  0  0  0  0  0  0  0
  1  2  1  0  0  0  0
  1 20  1  0  0  0  0
  1 21  1  0  0  0  0
  1 22  1  0  0  0  0
  2  3  1  0  0  0  0
  2 12  1  0  0  0  0
  2 23  1  0  0  0  0
  3  4  1  0  0  0  0
  3 24  1  0  0  0  0
  4  5  2  0  0  0  0
  4  6  1  0  0  0  0
  6  7  1  0  0  0  0
  7 11  1  0  0  0  0
  7  8  2  0  0  0  0
  8  9  1  0  0  0  0
  9 10  2  0  0  0  0
  9 25  1  0  0  0  0
 10 11  1  0  0  0  0
 10 26  1  0  0  0  0
 12 13  2  0  0  0  0
 12 14  1  0  0  0  0
 14 15  1  0  0  0  0
 14 27  1  0  0  0  0
 15 19  1  0  0  0  0
 15 16  1  0  0  0  0
 15 28  1  0  0  0  0
 16 17  1  0  0  0  0
 16 29  1  0  0  0  0
 16 30  1  0  0  0  0
 17 18  1  0  0  0  0
 17 31  1  0  0  0  0
 17 32  1  0  0  0  0
 18 19  1  0  0  0  0
 18 33  1  0  0  0  0
 18 34  1  0  0  0  0
 19 35  1  0  0  0  0
 19 36  1  0  0  0  0
M  CHG  1   6  -1
M  END
> <s_m_source_file>
AV-unprocessed.smi

> <i_m_source_file_index>
840

> <i_lp_mmshare_version>
43012

> <i_f3d_flags>
0

> <s_epik_input>
W0NIMl0xW0NIMl1bQ0gyXVtDSDJdW0NIXTFbTkhdQyg9TylbQ0BIXShbQ0gzXSlbTkhdQyg9TylbTkhdYzJuW2NIXVtjSF1zMg==

> <s_epik_cmdline>
J2VwaWtfcHl0aG9uJywgJy1waCcsICc3LjAnLCAnLXRuJywgJzgnLCAnLW1hJywgJzIwMCcsICctbWV0YWxfYmluZGluZycsICctaW1hZScsICc8aW5maWxlLm1hZT4nLCAnLW9tYWUnLCAnPG91dGZpbGUubWFlPic=

> <r_lp_tautomer_probability>
1

> <r_epik_Ionization_Penalty>
6.35467

> <r_epik_Ionization_Penalty_Charging>
5.47395

> <r_epik_Ionization_Penalty_Neutral>
0.880717

> <r_epik_State_Penalty>
5.4739

> <r_epik_Charging_Adjusted_Penalty>
10.9479

> <i_epik_Tot_Q>
-1

> <i_epik_Tot_abs_Q>
1

> <r_epik_Metal_State_Penalty>
1.48639

> <b_epik_Metal_Only>
1

> <s_lp_Force_Field>
OPLS_2005

> <r_lp_Energy>
14.0087

> <b_lp_Chiralities_Consistent>
1

> <s_lp_Variant>
AV-unprocessed.smi:840-3

> <Gold.Version>
5.8.1

> <Gold.Id.Protein>
6NUR|6NUR_protein|mol2

> <Gold.PLP.Fitness>
47.7907

> <Gold.PLP.PLP>
-38.5377

> <Gold.PLP.part.hbond>
-3.7715

> <Gold.PLP.part.metal>
0.0000

> <Gold.PLP.part.buried>
-4.8776

> <Gold.PLP.part.nonpolar>
-30.3392

> <Gold.PLP.part.repulsive>
0.3496

> <Gold.PLP.ligand.clash>
0.0000

> <Gold.PLP.ligand.torsion>
0.2918

> <Gold.PLP.Chemscore.Hbond>
3.2480

> <Gold.PLP.Chemscore.CHOScore>
0.0000

> <Gold.PLP.Chemscore.Metal>
0.0000

> <Gold.Chemscore.Hbonds>
donor molecule, donor type, donor heavy atom, donor atom, acceptor molecule, acceptor atom, score
      P1  H  6896  6907       L1     5  0.34
      P1  H  6931  6943       L1     6  1.18
      P1  H  6934  6947       L1     6  0.20
      P1  H  7997  8008       L1    13  0.99

> <Gold.PLP.Chemscore.Internal.Correction>
0.0925

> <Gold.Rescore>
     Score         DG    S(hbond)    S(metal)    S(lipo)     H(rot)  DE(clash)    DE(int)     intcor
     17.86     -19.93       2.51        0.00      87.26       1.62       0.04       2.03       ----

> <Gold.Chemscore.Fitness>
17.8572

> <Gold.Chemscore.DG>
-19.9307

> <Gold.Chemscore.ZeroCoef>
-5.4800

> <Gold.Chemscore.Hbond>
2.5119

> <Gold.Chemscore.Metal>
0.0000

> <Gold.Chemscore.Lipo>
87.2559

> <Gold.Chemscore.Internal_Hbond>
0.0000

> <Gold.Chemscore.DEClash>
0.0409

> <Gold.Chemscore.DEInternal>
2.0326

> <Gold.Chemscore.Rot>
1.6204

> <Gold.Chemscore.Internal.Correction>
   9.000000E+99

> <Gold.Chemscore.Hbonds>
donor molecule, donor type, donor heavy atom, donor atom, acceptor molecule, acceptor atom, score
      P1  H  6896  6907       L1     5  0.23
      P1  H  6931  6943       L1     6  0.26
      P1  H  6934  6947       L1     6  0.06
      P1  H  7997  8008       L1    13  0.92

> <Gold.Chemscore.Hbond.Weighted>
-8.3899

> <Gold.Chemscore.Metal.Weighted>
-0.0000

> <Gold.Chemscore.Lipo.Weighted>
-10.2089

> <Gold.Chemscore.Internal_Hbond.Weighted>
0.0000

> <Gold.Chemscore.DEClash.Weighted>
0.0409

> <Gold.Chemscore.DEInternal.Weighted>
2.0326

> <Gold.Chemscore.Rot.Weighted>
4.1481

> <Gold.Chemscore.Internal.Correction.Weighted>
   9.000000E+99

> <Gold.Protein.RotatedTorsions>
[ 6907 6896 6895 6894 ] final  -56.97 input  -60.11 | X-H torsion
[ 7974 7965 7964 7962 ] final  -68.04 input  175.53 | X-H torsion
[ 8008 7997 7996 7995 ] final  -97.16 input   59.86 | X-H torsion
[ 10167 10162 10161 10158 ] final -115.12 input  -65.29 | X-H torsion
[ 10718 10713 10712 10709 ] final -152.64 input   66.30 | X-H torsion
[ 10763 10752 10751 10750 ] final  112.79 input  -60.55 | X-H torsion
[ 11005 11000 10999 10996 ] final   80.11 input  -57.11 | X-H torsion

> <Gold.Protein.ActiveResidues>
 VAL166  LYS551  ARG553  GLY616  TRP617  ASP618  TYR619  PRO620  LYS621  CYS622 
 ASP623  PHE694  ASN695  SER759  ASP760  ASP761  ALA762  ILE779  LEU786  VAL792 
 PHE793  MET794  SER795  GLU796  ALA797  LYS798  CYS799  TRP800  GLU811  SER814 

> <Gold.Protein.RotatedAtoms>
  150.8124  134.7286  159.6699 H   0  0  0  0  0  0  0  0  0  0  0  0  # atno 6907 bound_to 6896
  152.4243  134.5894  159.9979 H   0  0  0  0  0  0  0  0  0  0  0  0  # atno 6908 bound_to 6896
  151.6100  133.3311  159.3101 H   0  0  0  0  0  0  0  0  0  0  0  0  # atno 6909 bound_to 6896
  145.7216  140.9036  143.0627 H   0  0  0  0  0  0  0  0  0  0  0  0  # atno 7974 bound_to 7965
  154.7840  140.0465  157.1149 H   0  0  0  0  0  0  0  0  0  0  0  0  # atno 8008 bound_to 7997
  154.9670  140.3085  155.4985 H   0  0  0  0  0  0  0  0  0  0  0  0  # atno 8009 bound_to 7997
  156.2940  140.2260  156.4760 H   0  0  0  0  0  0  0  0  0  0  0  0  # atno 8010 bound_to 7997
  140.0935  143.4678  152.1855 H   0  0  0  0  0  0  0  0  0  0  0  0  # atno 10167 bound_to 10162
  156.4752  130.8277  151.2505 H   0  0  0  0  0  0  0  0  0  0  0  0  # atno 10718 bound_to 10713
  153.4830  135.3675  155.2452 H   0  0  0  0  0  0  0  0  0  0  0  0  # atno 10763 bound_to 10752
  154.8754  135.3959  154.3677 H   0  0  0  0  0  0  0  0  0  0  0  0  # atno 10764 bound_to 10752
  153.4284  135.7082  153.6312 H   0  0  0  0  0  0  0  0  0  0  0  0  # atno 10765 bound_to 10752
  139.9147  134.7895  156.1866 H   0  0  0  0  0  0  0  0  0  0  0  0  # atno 11005 bound_to 11000
  144.6915  139.9210  143.7468 LP  0  0  0  0  0  0  0  0  0  0  0  0  # atno 17320 bound_to 7965
  146.0620  139.3613  143.0575 LP  0  0  0  0  0  0  0  0  0  0  0  0  # atno 17321 bound_to 7965
  139.5711  144.7463  151.3888 LP  0  0  0  0  0  0  0  0  0  0  0  0  # atno 17342 bound_to 10162
  140.7016  143.7618  150.7412 LP  0  0  0  0  0  0  0  0  0  0  0  0  # atno 17343 bound_to 10162
  157.7488  131.0063  150.3147 LP  0  0  0  0  0  0  0  0  0  0  0  0  # atno 17370 bound_to 10713
  156.3578  130.3842  149.7276 LP  0  0  0  0  0  0  0  0  0  0  0  0  # atno 17371 bound_to 10713
  141.0609  133.6842  156.1951 LP  0  0  0  0  0  0  0  0  0  0  0  0  # atno 17394 bound_to 11000
  140.6662  134.4916  157.5585 LP  0  0  0  0  0  0  0  0  0  0  0  0  # atno 17395 bound_to 11000

$$$$
