AV-unprocessed.smi:2536|AV-procd|sdf|9979|dock4
  -GOLD-   2272014 23D 1   1.00000     0.00000
 Structure written by MMmdl.
 32 33  0  0  0  0  0  0  0  0  1 V2000
  151.4283  145.5829  159.8893 C   0  0  0  0  0  0  0  0  0  0  0  0
  151.6657  144.2071  159.2961 C   0  0  0  0  0  0  0  0  0  0  0  0
  151.1929  143.8841  158.0060 C   0  0  0  0  0  0  0  0  0  0  0  0
  151.3876  142.6657  157.4571 N   0  0  0  0  0  0  0  0  0  0  0  0
  152.0508  141.7690  158.1899 C   0  0  0  0  0  0  0  0  0  0  0  0
  152.2261  140.5316  157.5965 N   0  0  0  0  0  0  0  0  0  0  0  0
  151.9342  140.2209  156.2026 C   0  0  1  0  0  0  0  0  0  0  0  0
  152.2195  138.7443  155.8774 C   0  0  0  0  0  0  0  0  0  0  0  0
  151.8087  138.4425  154.4324 C   0  0  0  0  0  0  0  0  0  0  0  0
  150.3531  138.8709  154.1895 C   0  0  0  0  0  0  0  0  0  0  0  0
  150.1953  140.2509  154.5030 O   0  0  0  0  0  0  0  0  0  0  0  0
  150.4668  140.5486  155.8690 C   0  0  0  0  0  0  0  0  0  0  0  0
  152.5459  141.9634  159.4174 N   0  0  0  0  0  0  0  0  0  0  0  0
  152.3589  143.1781  159.9795 C   0  0  0  0  0  0  0  0  0  0  0  0
  152.9347  143.3449  161.3742 C   0  0  0  0  0  0  0  0  0  0  0  0
  150.8602  146.2135  159.2049 H   0  0  0  0  0  0  0  0  0  0  0  0
  152.3774  146.0789  160.0945 H   0  0  0  0  0  0  0  0  0  0  0  0
  150.8663  145.5044  160.8202 H   0  0  0  0  0  0  0  0  0  0  0  0
  150.6532  144.6041  157.4089 H   0  0  0  0  0  0  0  0  0  0  0  0
  152.6645  139.8152  158.1567 H   0  0  0  0  0  0  0  0  0  0  0  0
  152.5659  140.8486  155.5726 H   0  0  0  0  0  0  0  0  0  0  0  0
  153.2748  138.5103  156.0194 H   0  0  0  0  0  0  0  0  0  0  0  0
  151.6613  138.0986  156.5568 H   0  0  0  0  0  0  0  0  0  0  0  0
  152.4658  138.9771  153.7454 H   0  0  0  0  0  0  0  0  0  0  0  0
  151.9303  137.3801  154.2199 H   0  0  0  0  0  0  0  0  0  0  0  0
  150.0857  138.7145  153.1443 H   0  0  0  0  0  0  0  0  0  0  0  0
  149.6660  138.2702  154.7875 H   0  0  0  0  0  0  0  0  0  0  0  0
  149.7823  139.9935  156.5131 H   0  0  0  0  0  0  0  0  0  0  0  0
  150.2710  141.6083  156.0361 H   0  0  0  0  0  0  0  0  0  0  0  0
  152.8311  144.3592  161.7561 H   0  0  0  0  0  0  0  0  0  0  0  0
  153.9967  143.0976  161.3729 H   0  0  0  0  0  0  0  0  0  0  0  0
  152.4308  142.6714  162.0678 H   0  0  0  0  0  0  0  0  0  0  0  0
  1  2  1  0  0  0  0
  1 16  1  0  0  0  0
  1 17  1  0  0  0  0
  1 18  1  0  0  0  0
  2 14  1  0  0  0  0
  2  3  2  0  0  0  0
  3  4  1  0  0  0  0
  3 19  1  0  0  0  0
  4  5  2  0  0  0  0
  5  6  1  0  0  0  0
  5 13  1  0  0  0  0
  6  7  1  0  0  0  0
  6 20  1  0  0  0  0
  7 12  1  0  0  0  0
  7  8  1  0  0  0  0
  7 21  1  0  0  0  0
  8  9  1  0  0  0  0
  8 22  1  0  0  0  0
  8 23  1  0  0  0  0
  9 10  1  0  0  0  0
  9 24  1  0  0  0  0
  9 25  1  0  0  0  0
 10 11  1  0  0  0  0
 10 26  1  0  0  0  0
 10 27  1  0  0  0  0
 11 12  1  0  0  0  0
 12 28  1  0  0  0  0
 12 29  1  0  0  0  0
 13 14  2  0  0  0  0
 14 15  1  0  0  0  0
 15 30  1  0  0  0  0
 15 31  1  0  0  0  0
 15 32  1  0  0  0  0
M  END
> <s_m_source_file>
AV-unprocessed.smi

> <i_m_source_file_index>
2536

> <i_lp_mmshare_version>
43012

> <i_f3d_flags>
0

> <s_epik_input>
W0NIM11jMVtjSF1uYyhuYzFbQ0gzXSlbTkhdW0NAQEhdMltDSDJdW0NIMl1bQ0gyXU9bQ0gyXTI=

> <s_epik_cmdline>
J2VwaWtfcHl0aG9uJywgJy1waCcsICc3LjAnLCAnLXRuJywgJzgnLCAnLW1hJywgJzIwMCcsICctbWV0YWxfYmluZGluZycsICctaW1hZScsICc8aW5maWxlLm1hZT4nLCAnLW9tYWUnLCAnPG91dGZpbGUubWFlPic=

> <r_lp_tautomer_probability>
1

> <r_epik_Ionization_Penalty>
0.00982357

> <r_epik_Ionization_Penalty_Charging>
0

> <r_epik_Ionization_Penalty_Neutral>
0.00982357

> <r_epik_State_Penalty>
0.0064698

> <r_epik_Charging_Adjusted_Penalty>
0.0064698

> <i_epik_Tot_Q>
0

> <i_epik_Tot_abs_Q>
0

> <r_epik_Metal_State_Penalty>
-0

> <b_epik_Metal_Only>
0

> <s_lp_Force_Field>
OPLS_2005

> <r_lp_Energy>
1.83983

> <b_lp_Chiralities_Consistent>
1

> <s_lp_Variant>
AV-unprocessed.smi:2536-2

> <Gold.Version>
5.8.1

> <Gold.Id.Protein>
6NUR|6NUR_protein|mol2

> <Gold.PLP.Fitness>
42.5900

> <Gold.PLP.PLP>
-36.7358

> <Gold.PLP.part.hbond>
-1.0000

> <Gold.PLP.part.metal>
0.0000

> <Gold.PLP.part.buried>
-4.6572

> <Gold.PLP.part.nonpolar>
-30.8580

> <Gold.PLP.part.repulsive>
0.2708

> <Gold.PLP.ligand.clash>
0.0000

> <Gold.PLP.ligand.torsion>
0.0287

> <Gold.PLP.Chemscore.Hbond>
1.0000

> <Gold.PLP.Chemscore.CHOScore>
0.9695

> <Gold.PLP.Chemscore.Metal>
0.0000

> <Gold.Chemscore.Hbonds>
donor molecule, donor type, donor heavy atom, donor atom, acceptor molecule, acceptor atom, score
      P1  H  7989  7998       L1    11  0.85
      L1  C     3    19       P1  8028  1.00

> <Gold.PLP.Chemscore.Internal.Correction>
0.0029

> <Gold.Rescore>
     Score         DG    S(hbond)    S(metal)    S(lipo)     H(rot)  DE(clash)    DE(int)     intcor
     15.43     -16.90       0.89        0.00      94.07       1.00       0.02       1.45       ----

> <Gold.Chemscore.Fitness>
15.4330

> <Gold.Chemscore.DG>
-16.9039

> <Gold.Chemscore.ZeroCoef>
-5.4800

> <Gold.Chemscore.Hbond>
0.8914

> <Gold.Chemscore.Metal>
0.0000

> <Gold.Chemscore.Lipo>
94.0738

> <Gold.Chemscore.Internal_Hbond>
0.0000

> <Gold.Chemscore.DEClash>
0.0234

> <Gold.Chemscore.DEInternal>
1.4474

> <Gold.Chemscore.Rot>
1.0000

> <Gold.Chemscore.Internal.Correction>
   9.000000E+99

> <Gold.Chemscore.Hbonds>
donor molecule, donor type, donor heavy atom, donor atom, acceptor molecule, acceptor atom, score
      P1  H  7989  7998       L1    11  0.09

> <Gold.Chemscore.Hbond.Weighted>
-2.9773

> <Gold.Chemscore.Metal.Weighted>
-0.0000

> <Gold.Chemscore.Lipo.Weighted>
-11.0066

> <Gold.Chemscore.Internal_Hbond.Weighted>
0.0000

> <Gold.Chemscore.DEClash.Weighted>
0.0234

> <Gold.Chemscore.DEInternal.Weighted>
1.4474

> <Gold.Chemscore.Rot.Weighted>
2.5600

> <Gold.Chemscore.Internal.Correction.Weighted>
   9.000000E+99

> <Gold.Protein.RotatedTorsions>
[ 6907 6896 6895 6894 ] final  -56.03 input  -60.11 | X-H torsion
[ 7974 7965 7964 7962 ] final  133.93 input  175.53 | X-H torsion
[ 8008 7997 7996 7995 ] final -115.38 input   59.86 | X-H torsion
[ 10167 10162 10161 10158 ] final   17.55 input  -65.29 | X-H torsion
[ 10718 10713 10712 10709 ] final  -70.62 input   66.30 | X-H torsion
[ 10763 10752 10751 10750 ] final   68.36 input  -60.55 | X-H torsion
[ 11005 11000 10999 10996 ] final   37.51 input  -57.11 | X-H torsion

> <Gold.Protein.ActiveResidues>
 VAL166  LYS551  ARG553  GLY616  TRP617  ASP618  TYR619  PRO620  LYS621  CYS622 
 ASP623  PHE694  ASN695  SER759  ASP760  ASP761  ALA762  ILE779  LEU786  VAL792 
 PHE793  MET794  SER795  GLU796  ALA797  LYS798  CYS799  TRP800  GLU811  SER814 

> <Gold.Protein.RotatedAtoms>
  150.8201  134.7405  159.6764 H   0  0  0  0  0  0  0  0  0  0  0  0  # atno 6907 bound_to 6896
  152.4318  134.5760  159.9944 H   0  0  0  0  0  0  0  0  0  0  0  0  # atno 6908 bound_to 6896
  151.5947  133.3325  159.3071 H   0  0  0  0  0  0  0  0  0  0  0  0  # atno 6909 bound_to 6896
  144.9815  139.4500  143.5384 H   0  0  0  0  0  0  0  0  0  0  0  0  # atno 7974 bound_to 7965
  155.0512  140.0393  157.2544 H   0  0  0  0  0  0  0  0  0  0  0  0  # atno 8008 bound_to 7997
  154.7136  140.2697  155.6582 H   0  0  0  0  0  0  0  0  0  0  0  0  # atno 8009 bound_to 7997
  156.2796  140.2717  156.1785 H   0  0  0  0  0  0  0  0  0  0  0  0  # atno 8010 bound_to 7997
  140.5718  143.9148  150.6718 H   0  0  0  0  0  0  0  0  0  0  0  0  # atno 10167 bound_to 10162
  156.0399  130.4335  150.2322 H   0  0  0  0  0  0  0  0  0  0  0  0  # atno 10718 bound_to 10713
  153.0232  135.5250  154.7123 H   0  0  0  0  0  0  0  0  0  0  0  0  # atno 10763 bound_to 10752
  154.6202  135.2888  155.0337 H   0  0  0  0  0  0  0  0  0  0  0  0  # atno 10764 bound_to 10752
  154.1326  135.6590  153.4978 H   0  0  0  0  0  0  0  0  0  0  0  0  # atno 10765 bound_to 10752
  140.2219  134.3631  155.8001 H   0  0  0  0  0  0  0  0  0  0  0  0  # atno 11005 bound_to 11000
  146.3409  139.9090  142.8783 LP  0  0  0  0  0  0  0  0  0  0  0  0  # atno 17320 bound_to 7965
  145.2415  141.0011  143.3933 LP  0  0  0  0  0  0  0  0  0  0  0  0  # atno 17321 bound_to 7965
  140.2625  143.3514  152.1310 LP  0  0  0  0  0  0  0  0  0  0  0  0  # atno 17342 bound_to 10162
  139.5121  144.6912  151.5755 LP  0  0  0  0  0  0  0  0  0  0  0  0  # atno 17343 bound_to 10162
  157.0418  131.0037  151.3281 LP  0  0  0  0  0  0  0  0  0  0  0  0  # atno 17370 bound_to 10713
  157.5204  130.7994  149.7802 LP  0  0  0  0  0  0  0  0  0  0  0  0  # atno 17371 bound_to 10713
  141.2222  133.7198  156.8589 LP  0  0  0  0  0  0  0  0  0  0  0  0  # atno 17394 bound_to 11000
  140.1841  134.9012  157.2983 LP  0  0  0  0  0  0  0  0  0  0  0  0  # atno 17395 bound_to 11000

$$$$
