AV-unprocessed.smi:1433|AV-procd|sdf|5844|dock9
  -GOLD-   22720 5513D 1   1.00000     0.00000
 Structure written by MMmdl.
 45 46  0  0  0  0  0  0  0  0  2 V2000
  145.4070  131.7076  150.6928 C   0  0  0  0  0  0  0  0  0  0  0  0
  145.6732  132.6414  151.8786 C   0  0  1  0  0  0  0  0  0  0  0  0
  146.9177  133.5279  151.6463 C   0  0  0  0  0  0  0  0  0  0  0  0
  147.1068  134.5126  152.7469 N   0  3  2  0  0  0  0  0  0  0  0  0
  147.7209  133.9389  153.9930 C   0  0  1  0  0  0  0  0  0  0  0  0
  148.9389  133.0604  153.6241 C   0  0  0  0  0  0  0  0  0  0  0  0
  148.1244  135.0180  155.0354 C   0  0  0  0  0  0  0  0  0  0  0  0
  148.9489  136.0810  154.4660 N   0  0  0  0  0  0  0  0  0  0  0  0
  149.4237  137.1447  155.1356 C   0  0  0  0  0  0  0  0  0  0  0  0
  149.1781  137.3614  156.3216 O   0  0  0  0  0  0  0  0  0  0  0  0
  150.2896  138.1301  154.3449 C   0  0  0  0  0  0  0  0  0  0  0  0
  149.7781  139.4886  154.4191 N   0  0  0  0  0  0  0  0  0  0  0  0
  148.5425  139.9611  154.0283 C   0  0  0  0  0  0  0  0  0  0  0  0
  148.5190  141.3016  154.2875 C   0  0  0  0  0  0  0  0  0  0  0  0
  149.8009  141.5602  154.8484 C   0  0  0  0  0  0  0  0  0  0  0  0
  150.5517  140.4735  154.9265 N   0  0  0  0  0  0  0  0  0  0  0  0
  145.8480  135.2913  152.9037 C   0  0  0  0  0  0  0  0  0  0  0  0
  144.6452  134.3599  153.1557 C   0  0  1  0  0  0  0  0  0  0  0  0
  143.3299  135.1363  153.2802 C   0  0  0  0  0  0  0  0  0  0  0  0
  144.5273  133.4684  152.0523 O   0  0  0  0  0  0  0  0  0  0  0  0
  146.2532  131.0425  150.5189 H   0  0  0  0  0  0  0  0  0  0  0  0
  145.2313  132.2720  149.7764 H   0  0  0  0  0  0  0  0  0  0  0  0
  144.5293  131.0869  150.8746 H   0  0  0  0  0  0  0  0  0  0  0  0
  145.8045  132.0260  152.7693 H   0  0  0  0  0  0  0  0  0  0  0  0
  147.7995  132.9088  151.4951 H   0  0  0  0  0  0  0  0  0  0  0  0
  146.7906  134.0856  150.7173 H   0  0  0  0  0  0  0  0  0  0  0  0
  146.9825  133.2994  154.4761 H   0  0  0  0  0  0  0  0  0  0  0  0
  149.3610  132.5668  154.4988 H   0  0  0  0  0  0  0  0  0  0  0  0
  149.7301  133.6585  153.1710 H   0  0  0  0  0  0  0  0  0  0  0  0
  148.6920  132.2611  152.9285 H   0  0  0  0  0  0  0  0  0  0  0  0
  147.2366  135.4270  155.5211 H   0  0  0  0  0  0  0  0  0  0  0  0
  148.7355  134.5805  155.8241 H   0  0  0  0  0  0  0  0  0  0  0  0
  149.2003  135.9900  153.4921 H   0  0  0  0  0  0  0  0  0  0  0  0
  151.3076  138.1120  154.7358 H   0  0  0  0  0  0  0  0  0  0  0  0
  150.3429  137.8285  153.2976 H   0  0  0  0  0  0  0  0  0  0  0  0
  147.7921  139.3118  153.6016 H   0  0  0  0  0  0  0  0  0  0  0  0
  147.7090  141.9924  154.1064 H   0  0  0  0  0  0  0  0  0  0  0  0
  150.2051  142.4985  155.1987 H   0  0  0  0  0  0  0  0  0  0  0  0
  145.9289  136.0661  153.6641 H   0  0  0  0  0  0  0  0  0  0  0  0
  145.6787  135.8381  151.9747 H   0  0  0  0  0  0  0  0  0  0  0  0
  144.7951  133.7855  154.0713 H   0  0  0  0  0  0  0  0  0  0  0  0
  143.3607  135.8302  154.1205 H   0  0  0  0  0  0  0  0  0  0  0  0
  142.4913  134.4585  153.4410 H   0  0  0  0  0  0  0  0  0  0  0  0
  143.1236  135.7121  152.3776 H   0  0  0  0  0  0  0  0  0  0  0  0
  147.7887  135.1804  152.4160 H   0  0  0  0  0  0  0  0  0  0  0  0
  1  2  1  0  0  0  0
  1 21  1  0  0  0  0
  1 22  1  0  0  0  0
  1 23  1  0  0  0  0
  2 20  1  0  0  0  0
  2  3  1  0  0  0  0
  2 24  1  0  0  0  0
  3  4  1  0  0  0  0
  3 25  1  0  0  0  0
  3 26  1  0  0  0  0
  4  5  1  0  0  0  0
  4 17  1  0  0  0  0
  4 45  1  0  0  0  0
  5  6  1  0  0  0  0
  5  7  1  0  0  0  0
  5 27  1  0  0  0  0
  6 28  1  0  0  0  0
  6 29  1  0  0  0  0
  6 30  1  0  0  0  0
  7  8  1  0  0  0  0
  7 31  1  0  0  0  0
  7 32  1  0  0  0  0
  8  9  1  0  0  0  0
  8 33  1  0  0  0  0
  9 10  2  0  0  0  0
  9 11  1  0  0  0  0
 11 12  1  0  0  0  0
 11 34  1  0  0  0  0
 11 35  1  0  0  0  0
 12 16  1  0  0  0  0
 12 13  1  0  0  0  0
 13 14  2  0  0  0  0
 13 36  1  0  0  0  0
 14 15  1  0  0  0  0
 14 37  1  0  0  0  0
 15 16  2  0  0  0  0
 15 38  1  0  0  0  0
 17 18  1  0  0  0  0
 17 39  1  0  0  0  0
 17 40  1  0  0  0  0
 18 19  1  0  0  0  0
 18 20  1  0  0  0  0
 18 41  1  0  0  0  0
 19 42  1  0  0  0  0
 19 43  1  0  0  0  0
 19 44  1  0  0  0  0
M  CHG  1   4   1
M  END
> <s_m_source_file>
AV-unprocessed.smi

> <i_m_source_file_index>
1433

> <i_lp_mmshare_version>
43012

> <i_f3d_flags>
0

> <s_epik_input>
W0NIM11bQ0BASF0xW0NIMl1OKFtDSDJdW0NASF0oTzEpW0NIM10pW0NASF0oW0NIM10pW0NIMl1bTkhdQyg9TylbQ0gyXW4yW2NIXVtjSF1bY0hdbjI=

> <s_epik_cmdline>
J2VwaWtfcHl0aG9uJywgJy1waCcsICc3LjAnLCAnLXRuJywgJzgnLCAnLW1hJywgJzIwMCcsICctbWV0YWxfYmluZGluZycsICctaW1hZScsICc8aW5maWxlLm1hZT4nLCAnLW9tYWUnLCAnPG91dGZpbGUubWFlPic=

> <r_lp_tautomer_probability>
1

> <r_epik_Ionization_Penalty>
0.748405

> <r_epik_Ionization_Penalty_Charging>
0.748396

> <r_epik_Ionization_Penalty_Neutral>
8.54426e-06

> <r_epik_State_Penalty>
0.775162

> <r_epik_Charging_Adjusted_Penalty>
1.52356

> <i_epik_Tot_Q>
1

> <i_epik_Tot_abs_Q>
1

> <r_epik_Metal_State_Penalty>
0.775167

> <b_epik_Metal_Only>
0

> <s_lp_Force_Field>
OPLS_2005

> <r_lp_Energy>
22.8293

> <b_lp_Chiralities_Consistent>
1

> <s_lp_Variant>
AV-unprocessed.smi:1433-10

> <Gold.Version>
5.8.1

> <Gold.Id.Protein>
6NUR|6NUR_protein|mol2

> <Gold.PLP.Fitness>
47.8415

> <Gold.PLP.PLP>
-33.1063

> <Gold.PLP.part.hbond>
-3.0000

> <Gold.PLP.part.metal>
0.0000

> <Gold.PLP.part.buried>
-3.8909

> <Gold.PLP.part.nonpolar>
-27.0503

> <Gold.PLP.part.repulsive>
0.1990

> <Gold.PLP.ligand.clash>
0.0000

> <Gold.PLP.ligand.torsion>
0.1599

> <Gold.PLP.Chemscore.Hbond>
3.9920

> <Gold.PLP.Chemscore.CHOScore>
1.0000

> <Gold.PLP.Chemscore.Metal>
0.0000

> <Gold.Chemscore.Hbonds>
donor molecule, donor type, donor heavy atom, donor atom, acceptor molecule, acceptor atom, score
      L1  H     4    45       P1  7948  2.00
      L1  H     8    33       P1  7948  1.00
      P1  H  7989  7998       L1    16  0.80
      L1  C    15    38       P1  8028  0.74

> <Gold.PLP.Chemscore.Internal.Correction>
0.0791

> <Gold.Rescore>
     Score         DG    S(hbond)    S(metal)    S(lipo)     H(rot)  DE(clash)    DE(int)     intcor
     17.57     -17.95       2.65        0.00      71.69       1.87       0.03       0.35       ----

> <Gold.Chemscore.Fitness>
17.5736

> <Gold.Chemscore.DG>
-17.9476

> <Gold.Chemscore.ZeroCoef>
-5.4800

> <Gold.Chemscore.Hbond>
2.6514

> <Gold.Chemscore.Metal>
0.0000

> <Gold.Chemscore.Lipo>
71.6934

> <Gold.Chemscore.Internal_Hbond>
0.0000

> <Gold.Chemscore.DEClash>
0.0276

> <Gold.Chemscore.DEInternal>
0.3464

> <Gold.Chemscore.Rot>
1.8657

> <Gold.Chemscore.Internal.Correction>
   9.000000E+99

> <Gold.Chemscore.Hbonds>
donor molecule, donor type, donor heavy atom, donor atom, acceptor molecule, acceptor atom, score
      L1  H     4    45       P1  7948  0.98
      L1  H     8    33       P1  7948  0.80
      P1  H  7989  7998       L1    16  0.04

> <Gold.Chemscore.Hbond.Weighted>
-8.8556

> <Gold.Chemscore.Metal.Weighted>
-0.0000

> <Gold.Chemscore.Lipo.Weighted>
-8.3881

> <Gold.Chemscore.Internal_Hbond.Weighted>
0.0000

> <Gold.Chemscore.DEClash.Weighted>
0.0276

> <Gold.Chemscore.DEInternal.Weighted>
0.3464

> <Gold.Chemscore.Rot.Weighted>
4.7761

> <Gold.Chemscore.Internal.Correction.Weighted>
   9.000000E+99

> <Gold.Protein.RotatedTorsions>
[ 6907 6896 6895 6894 ] final  -28.89 input  -60.11 | X-H torsion
[ 7974 7965 7964 7962 ] final  144.52 input  175.53 | X-H torsion
[ 8008 7997 7996 7995 ] final  170.93 input   59.86 | X-H torsion
[ 10167 10162 10161 10158 ] final   41.61 input  -65.29 | X-H torsion
[ 10718 10713 10712 10709 ] final   84.66 input   66.30 | X-H torsion
[ 10763 10752 10751 10750 ] final  -69.26 input  -60.55 | X-H torsion
[ 11005 11000 10999 10996 ] final  -39.23 input  -57.11 | X-H torsion

> <Gold.Protein.ActiveResidues>
 VAL166  LYS551  ARG553  GLY616  TRP617  ASP618  TYR619  PRO620  LYS621  CYS622 
 ASP623  PHE694  ASN695  SER759  ASP760  ASP761  ALA762  ILE779  LEU786  VAL792 
 PHE793  MET794  SER795  GLU796  ALA797  LYS798  CYS799  TRP800  GLU811  SER814 

> <Gold.Protein.RotatedAtoms>
  151.1267  135.0108  159.8563 H   0  0  0  0  0  0  0  0  0  0  0  0  # atno 6907 bound_to 6896
  152.5450  134.1659  159.8587 H   0  0  0  0  0  0  0  0  0  0  0  0  # atno 6908 bound_to 6896
  151.1722  133.4732  159.2627 H   0  0  0  0  0  0  0  0  0  0  0  0  # atno 6909 bound_to 6896
  144.8829  139.5672  143.5834 H   0  0  0  0  0  0  0  0  0  0  0  0  # atno 7974 bound_to 7965
  156.1319  140.1525  156.9053 H   0  0  0  0  0  0  0  0  0  0  0  0  # atno 8008 bound_to 7997
  154.4916  140.0850  156.7646 H   0  0  0  0  0  0  0  0  0  0  0  0  # atno 8009 bound_to 7997
  155.4241  140.3424  155.4276 H   0  0  0  0  0  0  0  0  0  0  0  0  # atno 8010 bound_to 7997
  140.3626  144.2209  150.6137 H   0  0  0  0  0  0  0  0  0  0  0  0  # atno 10167 bound_to 10162
  157.6902  131.0142  150.2706 H   0  0  0  0  0  0  0  0  0  0  0  0  # atno 10718 bound_to 10713
  154.4009  135.6031  153.5896 H   0  0  0  0  0  0  0  0  0  0  0  0  # atno 10763 bound_to 10752
  152.9788  135.5906  154.4186 H   0  0  0  0  0  0  0  0  0  0  0  0  # atno 10764 bound_to 10752
  154.3984  135.2842  155.2090 H   0  0  0  0  0  0  0  0  0  0  0  0  # atno 10765 bound_to 10752
  141.0087  133.6919  156.2159 H   0  0  0  0  0  0  0  0  0  0  0  0  # atno 11005 bound_to 11000
  146.3006  139.7414  142.9094 LP  0  0  0  0  0  0  0  0  0  0  0  0  # atno 17320 bound_to 7965
  145.3921  141.0374  143.3118 LP  0  0  0  0  0  0  0  0  0  0  0  0  # atno 17321 bound_to 7965
  140.5112  143.2290  151.8532 LP  0  0  0  0  0  0  0  0  0  0  0  0  # atno 17342 bound_to 10162
  139.4812  144.4947  151.9139 LP  0  0  0  0  0  0  0  0  0  0  0  0  # atno 17343 bound_to 10162
  156.3270  130.3794  149.7525 LP  0  0  0  0  0  0  0  0  0  0  0  0  # atno 17370 bound_to 10713
  156.5077  130.8157  151.3157 LP  0  0  0  0  0  0  0  0  0  0  0  0  # atno 17371 bound_to 10713
  140.6770  134.4807  157.5588 LP  0  0  0  0  0  0  0  0  0  0  0  0  # atno 17394 bound_to 11000
  139.9077  134.8412  156.1642 LP  0  0  0  0  0  0  0  0  0  0  0  0  # atno 17395 bound_to 11000

$$$$
