AV-unprocessed.smi:680|AV-procd|sdf|3324|dock8
  -GOLD-   22720 0293D 1   1.00000     0.00000
 Structure written by MMmdl.
 32 33  0  0  0  0  0  0  0  0  1 V2000
  150.3301  141.7872  156.1936 C   0  0  0  0  0  0  0  0  0  0  0  0
  150.0797  140.5952  155.3179 C   0  0  0  0  0  0  0  0  0  0  0  0
  148.8339  140.0794  154.8640 C   0  0  0  0  0  0  0  0  0  0  0  0
  149.2092  138.9984  154.1118 C   0  0  0  0  0  0  0  0  0  0  0  0
  148.4191  138.1229  153.4373 N   0  0  0  0  0  0  0  0  0  0  0  0
  147.0768  138.0788  153.3654 C   0  0  0  0  0  0  0  0  0  0  0  0
  146.3057  138.8580  153.9256 O   0  0  0  0  0  0  0  0  0  0  0  0
  146.6699  137.0648  152.5878 N   0  0  0  0  0  0  0  0  0  0  0  0
  145.2814  136.7389  152.2712 C   0  0  0  0  0  0  0  0  0  0  0  0
  145.1632  135.3799  151.5548 C   0  0  1  0  0  0  0  0  0  0  0  0
  146.2367  134.3976  152.0577 C   0  0  0  0  0  0  0  0  0  0  0  0
  146.3737  132.9268  151.0027 S   0  0  0  0  0  0  0  0  0  0  0  0
  144.7093  132.2380  151.2101 C   0  0  0  0  0  0  0  0  0  0  0  0
  143.6260  133.2049  150.7176 C   0  0  0  0  0  0  0  0  0  0  0  0
  143.4987  134.6738  151.7745 S   0  0  0  0  0  0  0  0  0  0  0  0
  150.5564  138.8520  154.1006 O   0  0  0  0  0  0  0  0  0  0  0  0
  151.1043  139.8817  154.8747 N   0  0  0  0  0  0  0  0  0  0  0  0
  149.3947  142.2705  156.4766 H   0  0  0  0  0  0  0  0  0  0  0  0
  150.9453  142.5285  155.6829 H   0  0  0  0  0  0  0  0  0  0  0  0
  150.8447  141.4996  157.1107 H   0  0  0  0  0  0  0  0  0  0  0  0
  147.8427  140.4540  155.0695 H   0  0  0  0  0  0  0  0  0  0  0  0
  148.9142  137.4192  152.9097 H   0  0  0  0  0  0  0  0  0  0  0  0
  147.3767  136.4778  152.1692 H   0  0  0  0  0  0  0  0  0  0  0  0
  144.7378  136.7058  153.2158 H   0  0  0  0  0  0  0  0  0  0  0  0
  144.8059  137.5204  151.6760 H   0  0  0  0  0  0  0  0  0  0  0  0
  145.3168  135.5439  150.4873 H   0  0  0  0  0  0  0  0  0  0  0  0
  147.2137  134.8815  152.0633 H   0  0  0  0  0  0  0  0  0  0  0  0
  146.0315  134.0913  153.0841 H   0  0  0  0  0  0  0  0  0  0  0  0
  144.6563  131.3071  150.6452 H   0  0  0  0  0  0  0  0  0  0  0  0
  144.5500  131.9828  152.2583 H   0  0  0  0  0  0  0  0  0  0  0  0
  143.8208  133.5124  149.6897 H   0  0  0  0  0  0  0  0  0  0  0  0
  142.6581  132.7035  150.7205 H   0  0  0  0  0  0  0  0  0  0  0  0
  1  2  1  0  0  0  0
  1 18  1  0  0  0  0
  1 19  1  0  0  0  0
  1 20  1  0  0  0  0
  2 17  2  0  0  0  0
  2  3  1  0  0  0  0
  3  4  2  0  0  0  0
  3 21  1  0  0  0  0
  4  5  1  0  0  0  0
  4 16  1  0  0  0  0
  5  6  1  0  0  0  0
  5 22  1  0  0  0  0
  6  7  2  0  0  0  0
  6  8  1  0  0  0  0
  8  9  1  0  0  0  0
  8 23  1  0  0  0  0
  9 10  1  0  0  0  0
  9 24  1  0  0  0  0
  9 25  1  0  0  0  0
 10 15  1  0  0  0  0
 10 11  1  0  0  0  0
 10 26  1  0  0  0  0
 11 12  1  0  0  0  0
 11 27  1  0  0  0  0
 11 28  1  0  0  0  0
 12 13  1  0  0  0  0
 13 14  1  0  0  0  0
 13 29  1  0  0  0  0
 13 30  1  0  0  0  0
 14 15  1  0  0  0  0
 14 31  1  0  0  0  0
 14 32  1  0  0  0  0
 16 17  1  0  0  0  0
M  END
> <s_m_source_file>
AV-unprocessed.smi

> <i_m_source_file_index>
680

> <i_lp_mmshare_version>
43012

> <i_f3d_flags>
0

> <s_epik_input>
W0NIM11jMVtjSF1jKG9uMSlbTkhdQyg9TylbTkhdW0NIMl1bQ0BASF0yW0NIMl1TW0NIMl1bQ0gyXVMy

> <s_epik_cmdline>
J2VwaWtfcHl0aG9uJywgJy1waCcsICc3LjAnLCAnLXRuJywgJzgnLCAnLW1hJywgJzIwMCcsICctbWV0YWxfYmluZGluZycsICctaW1hZScsICc8aW5maWxlLm1hZT4nLCAnLW9tYWUnLCAnPG91dGZpbGUubWFlPic=

> <r_epik_Ionization_Penalty>
0.000554698

> <r_epik_Ionization_Penalty_Charging>
0

> <r_epik_Ionization_Penalty_Neutral>
0.000554698

> <r_epik_State_Penalty>
0.000333438

> <r_epik_Charging_Adjusted_Penalty>
0.000333438

> <i_epik_Tot_Q>
0

> <i_epik_Tot_abs_Q>
0

> <r_epik_Metal_State_Penalty>
-0

> <b_epik_Metal_Only>
0

> <s_lp_Force_Field>
OPLS_2005

> <r_lp_Energy>
4.32293

> <b_lp_Chiralities_Consistent>
1

> <s_lp_Variant>
AV-unprocessed.smi:680-2

> <Gold.Version>
5.8.1

> <Gold.Id.Protein>
6NUR|6NUR_protein|mol2

> <Gold.PLP.Fitness>
35.5204

> <Gold.PLP.PLP>
-27.5833

> <Gold.PLP.part.hbond>
-3.5331

> <Gold.PLP.part.metal>
0.0000

> <Gold.PLP.part.buried>
-1.8171

> <Gold.PLP.part.nonpolar>
-22.9487

> <Gold.PLP.part.repulsive>
0.4995

> <Gold.PLP.ligand.clash>
0.0000

> <Gold.PLP.ligand.torsion>
0.3229

> <Gold.PLP.Chemscore.Hbond>
2.8600

> <Gold.PLP.Chemscore.CHOScore>
0.0000

> <Gold.PLP.Chemscore.Metal>
0.0000

> <Gold.Chemscore.Hbonds>
donor molecule, donor type, donor heavy atom, donor atom, acceptor molecule, acceptor atom, score
      L1  H     5    22       P1  7948  1.00
      L1  H     8    23       P1  7948  0.98
      P1  H  7989  7998       L1    17  0.80

> <Gold.PLP.Chemscore.Internal.Correction>
0.0029

> <Gold.Rescore>
     Score         DG    S(hbond)    S(metal)    S(lipo)     H(rot)  DE(clash)    DE(int)     intcor
     14.68     -16.11       1.93        0.00      63.36       1.26       0.07       1.36       ----

> <Gold.Chemscore.Fitness>
14.6841

> <Gold.Chemscore.DG>
-16.1078

> <Gold.Chemscore.ZeroCoef>
-5.4800

> <Gold.Chemscore.Hbond>
1.9275

> <Gold.Chemscore.Metal>
0.0000

> <Gold.Chemscore.Lipo>
63.3593

> <Gold.Chemscore.Internal_Hbond>
0.0000

> <Gold.Chemscore.DEClash>
0.0667

> <Gold.Chemscore.DEInternal>
1.3570

> <Gold.Chemscore.Rot>
1.2590

> <Gold.Chemscore.Internal.Correction>
   9.000000E+99

> <Gold.Chemscore.Hbonds>
donor molecule, donor type, donor heavy atom, donor atom, acceptor molecule, acceptor atom, score
      L1  H     5    22       P1  7948  0.93
      L1  H     8    23       P1  7948  0.92
      P1  H  7989  7998       L1    17  0.04

> <Gold.Chemscore.Hbond.Weighted>
-6.4380

> <Gold.Chemscore.Metal.Weighted>
-0.0000

> <Gold.Chemscore.Lipo.Weighted>
-7.4130

> <Gold.Chemscore.Internal_Hbond.Weighted>
0.0000

> <Gold.Chemscore.DEClash.Weighted>
0.0667

> <Gold.Chemscore.DEInternal.Weighted>
1.3570

> <Gold.Chemscore.Rot.Weighted>
3.2232

> <Gold.Chemscore.Internal.Correction.Weighted>
   9.000000E+99

> <Gold.Protein.RotatedTorsions>
[ 6907 6896 6895 6894 ] final  -56.63 input  -60.11 | X-H torsion
[ 7974 7965 7964 7962 ] final   22.61 input  175.53 | X-H torsion
[ 8008 7997 7996 7995 ] final  142.28 input   59.86 | X-H torsion
[ 10167 10162 10161 10158 ] final   -6.20 input  -65.29 | X-H torsion
[ 10718 10713 10712 10709 ] final -131.28 input   66.30 | X-H torsion
[ 10763 10752 10751 10750 ] final  -64.52 input  -60.55 | X-H torsion
[ 11005 11000 10999 10996 ] final -177.93 input  -57.11 | X-H torsion

> <Gold.Protein.ActiveResidues>
 VAL166  LYS551  ARG553  GLY616  TRP617  ASP618  TYR619  PRO620  LYS621  CYS622 
 ASP623  PHE694  ASN695  SER759  ASP760  ASP761  ALA762  ILE779  LEU786  VAL792 
 PHE793  MET794  SER795  GLU796  ALA797  LYS798  CYS799  TRP800  GLU811  SER814 

> <Gold.Protein.RotatedAtoms>
  150.8152  134.7329  159.6723 H   0  0  0  0  0  0  0  0  0  0  0  0  # atno 6907 bound_to 6896
  152.4271  134.5845  159.9967 H   0  0  0  0  0  0  0  0  0  0  0  0  # atno 6908 bound_to 6896
  151.6044  133.3316  159.3090 H   0  0  0  0  0  0  0  0  0  0  0  0  # atno 6909 bound_to 6896
  146.2021  139.7861  142.8753 H   0  0  0  0  0  0  0  0  0  0  0  0  # atno 7974 bound_to 7965
  156.2952  140.2293  156.4703 H   0  0  0  0  0  0  0  0  0  0  0  0  # atno 8008 bound_to 7997
  154.7941  140.0452  157.1244 H   0  0  0  0  0  0  0  0  0  0  0  0  # atno 8009 bound_to 7997
  154.9610  140.3054  155.5034 H   0  0  0  0  0  0  0  0  0  0  0  0  # atno 8010 bound_to 7997
  140.6989  143.6221  150.8602 H   0  0  0  0  0  0  0  0  0  0  0  0  # atno 10167 bound_to 10162
  156.2229  130.6989  151.0775 H   0  0  0  0  0  0  0  0  0  0  0  0  # atno 10718 bound_to 10713
  154.3314  135.6176  153.5553 H   0  0  0  0  0  0  0  0  0  0  0  0  # atno 10763 bound_to 10752
  152.9811  135.5747  154.4958 H   0  0  0  0  0  0  0  0  0  0  0  0  # atno 10764 bound_to 10752
  154.4645  135.2857  155.1665 H   0  0  0  0  0  0  0  0  0  0  0  0  # atno 10765 bound_to 10752
  140.4355  134.6480  157.4732 H   0  0  0  0  0  0  0  0  0  0  0  0  # atno 11005 bound_to 11000
  145.3447  141.0295  143.3372 LP  0  0  0  0  0  0  0  0  0  0  0  0  # atno 17320 bound_to 7965
  144.8707  139.5042  143.6769 LP  0  0  0  0  0  0  0  0  0  0  0  0  # atno 17321 bound_to 7965
  139.9942  143.5814  152.2899 LP  0  0  0  0  0  0  0  0  0  0  0  0  # atno 17342 bound_to 10162
  139.6480  144.7659  151.2204 LP  0  0  0  0  0  0  0  0  0  0  0  0  # atno 17343 bound_to 10162
  157.7096  131.0740  150.6547 LP  0  0  0  0  0  0  0  0  0  0  0  0  # atno 17370 bound_to 10713
  156.6611  130.4512  149.5687 LP  0  0  0  0  0  0  0  0  0  0  0  0  # atno 17371 bound_to 10713
  140.0105  134.6697  155.9388 LP  0  0  0  0  0  0  0  0  0  0  0  0  # atno 17394 bound_to 11000
  141.1728  133.6538  156.4714 LP  0  0  0  0  0  0  0  0  0  0  0  0  # atno 17395 bound_to 11000

$$$$
