AV-unprocessed.smi:1056|AV-procd|sdf|4640|dock8
  -GOLD-   22720 3143D 1   1.00000     0.00000
 Structure written by MMmdl.
 45 47  0  0  0  0  0  0  0  0  2 V2000
  151.8232  144.9869  160.6996 C   0  0  0  0  0  0  0  0  0  0  0  0
  151.8211  143.8120  159.7364 C   0  0  0  0  0  0  0  0  0  0  0  0
  151.1376  143.9499  158.5070 C   0  0  0  0  0  0  0  0  0  0  0  0
  151.1503  142.8571  157.6485 C   0  0  0  0  0  0  0  0  0  0  0  0
  150.5811  142.6780  156.3857 N   0  3  0  0  0  0  0  0  0  0  0  0
  150.8643  141.4249  155.9334 C   0  0  0  0  0  0  0  0  0  0  0  0
  151.6052  140.8022  156.8897 N   0  0  0  0  0  0  0  0  0  0  0  0
  152.1701  139.4463  156.9127 C   0  0  0  0  0  0  0  0  0  0  0  0
  152.1772  138.7720  155.5251 C   0  0  2  0  0  0  0  0  0  0  0  0
  152.8752  139.6150  154.6272 O   0  0  0  0  0  0  0  0  0  0  0  0
  150.7472  138.5275  154.9915 C   0  0  0  0  0  0  0  0  0  0  0  0
  150.0963  137.3050  155.4740 N   0  0  0  0  0  0  0  0  0  0  0  0
  148.7388  137.1263  154.9574 C   0  0  0  0  0  0  0  0  0  0  0  0
  148.1384  135.7768  155.3813 C   0  0  0  0  0  0  0  0  0  0  0  0
  148.3440  135.5064  156.8003 N   0  0  0  0  0  0  0  0  0  0  0  0
  149.2687  136.1103  157.5642 C   0  0  0  0  0  0  0  0  0  0  0  0
  149.4348  135.8027  158.7423 O   0  0  0  0  0  0  0  0  0  0  0  0
  150.1147  137.2388  156.9440 C   0  0  0  0  0  0  0  0  0  0  0  0
  151.8103  141.6572  157.9770 C   0  0  0  0  0  0  0  0  0  0  0  0
  152.4903  141.5046  159.1826 C   0  0  0  0  0  0  0  0  0  0  0  0
  152.4907  142.6056  160.0689 C   0  0  0  0  0  0  0  0  0  0  0  0
  153.2244  142.4698  161.3924 C   0  0  0  0  0  0  0  0  0  0  0  0
  151.2589  145.8308  160.3011 H   0  0  0  0  0  0  0  0  0  0  0  0
  152.8420  145.3266  160.8874 H   0  0  0  0  0  0  0  0  0  0  0  0
  151.3710  144.7033  161.6503 H   0  0  0  0  0  0  0  0  0  0  0  0
  150.6267  144.8653  158.2464 H   0  0  0  0  0  0  0  0  0  0  0  0
  150.5589  141.0022  154.9871 H   0  0  0  0  0  0  0  0  0  0  0  0
  153.1776  139.5035  157.3265 H   0  0  0  0  0  0  0  0  0  0  0  0
  151.5792  138.8580  157.6164 H   0  0  0  0  0  0  0  0  0  0  0  0
  152.7108  137.8234  155.5978 H   0  0  0  0  0  0  0  0  0  0  0  0
  153.3094  139.0746  153.9850 H   0  0  0  0  0  0  0  0  0  0  0  0
  150.1332  139.3709  155.3121 H   0  0  0  0  0  0  0  0  0  0  0  0
  150.7308  138.5669  153.9005 H   0  0  0  0  0  0  0  0  0  0  0  0
  148.1012  137.9401  155.3082 H   0  0  0  0  0  0  0  0  0  0  0  0
  148.7284  137.1716  153.8692 H   0  0  0  0  0  0  0  0  0  0  0  0
  147.0721  135.7466  155.1570 H   0  0  0  0  0  0  0  0  0  0  0  0
  148.6051  134.9700  154.8153 H   0  0  0  0  0  0  0  0  0  0  0  0
  147.7769  134.7841  157.2200 H   0  0  0  0  0  0  0  0  0  0  0  0
  151.1425  137.1361  157.2952 H   0  0  0  0  0  0  0  0  0  0  0  0
  149.7377  138.1747  157.3597 H   0  0  0  0  0  0  0  0  0  0  0  0
  152.9986  140.5855  159.4343 H   0  0  0  0  0  0  0  0  0  0  0  0
  153.7267  141.5053  161.4735 H   0  0  0  0  0  0  0  0  0  0  0  0
  152.5267  142.5539  162.2262 H   0  0  0  0  0  0  0  0  0  0  0  0
  153.9821  143.2469  161.4942 H   0  0  0  0  0  0  0  0  0  0  0  0
  150.0397  143.3581  155.8680 H   0  0  0  0  0  0  0  0  0  0  0  0
  1  2  1  0  0  0  0
  1 23  1  0  0  0  0
  1 24  1  0  0  0  0
  1 25  1  0  0  0  0
  2 21  1  0  0  0  0
  2  3  2  0  0  0  0
  3  4  1  0  0  0  0
  3 26  1  0  0  0  0
  4 19  2  0  0  0  0
  4  5  1  0  0  0  0
  5  6  2  0  0  0  0
  5 45  1  0  0  0  0
  6  7  1  0  0  0  0
  6 27  1  0  0  0  0
  7  8  1  0  0  0  0
  7 19  1  0  0  0  0
  8  9  1  0  0  0  0
  8 28  1  0  0  0  0
  8 29  1  0  0  0  0
  9 10  1  0  0  0  0
  9 11  1  0  0  0  0
  9 30  1  0  0  0  0
 10 31  1  0  0  0  0
 11 12  1  0  0  0  0
 11 32  1  0  0  0  0
 11 33  1  0  0  0  0
 12 18  1  0  0  0  0
 12 13  1  0  0  0  0
 13 14  1  0  0  0  0
 13 34  1  0  0  0  0
 13 35  1  0  0  0  0
 14 15  1  0  0  0  0
 14 36  1  0  0  0  0
 14 37  1  0  0  0  0
 15 16  1  0  0  0  0
 15 38  1  0  0  0  0
 16 17  2  0  0  0  0
 16 18  1  0  0  0  0
 18 39  1  0  0  0  0
 18 40  1  0  0  0  0
 19 20  1  0  0  0  0
 20 21  2  0  0  0  0
 20 41  1  0  0  0  0
 21 22  1  0  0  0  0
 22 42  1  0  0  0  0
 22 43  1  0  0  0  0
 22 44  1  0  0  0  0
M  CHG  1   5   1
M  END
> <s_m_source_file>
AV-unprocessed.smi

> <i_m_source_file_index>
1056

> <i_lp_mmshare_version>
43012

> <i_f3d_flags>
0

> <s_epik_input>
W0NIM11jKFtjSF0xKWMoW0NIM10pW2NIXWMoYzEyKW4oW2NIXW4yKVtDSDJdW0NASF0oW09IXSlbQ0gyXU4zW0NIMl1bQ0gyXVtOSF1DKD1PKVtDSDJdMw==

> <s_epik_cmdline>
J2VwaWtfcHl0aG9uJywgJy1waCcsICc3LjAnLCAnLXRuJywgJzgnLCAnLW1hJywgJzIwMCcsICctbWV0YWxfYmluZGluZycsICctaW1hZScsICc8aW5maWxlLm1hZT4nLCAnLW9tYWUnLCAnPG91dGZpbGUubWFlPic=

> <r_epik_Ionization_Penalty>
2.47196

> <r_epik_Ionization_Penalty_Charging>
1.21809

> <r_epik_Ionization_Penalty_Neutral>
1.25387

> <r_epik_State_Penalty>
2.6255

> <r_epik_Charging_Adjusted_Penalty>
3.84359

> <i_epik_Tot_Q>
1

> <i_epik_Tot_abs_Q>
1

> <r_epik_Metal_State_Penalty>
2.76698

> <b_epik_Metal_Only>
0

> <s_lp_Force_Field>
OPLS_2005

> <r_lp_Energy>
35.3562

> <b_lp_Chiralities_Consistent>
1

> <s_lp_Variant>
AV-unprocessed.smi:1056-11

> <Gold.Version>
5.8.1

> <Gold.Id.Protein>
6NUR|6NUR_protein|mol2

> <Gold.PLP.Fitness>
53.9415

> <Gold.PLP.PLP>
-41.8549

> <Gold.PLP.part.hbond>
-3.9720

> <Gold.PLP.part.metal>
0.0000

> <Gold.PLP.part.buried>
-5.6594

> <Gold.PLP.part.nonpolar>
-31.9611

> <Gold.PLP.part.repulsive>
0.1822

> <Gold.PLP.ligand.clash>
0.0000

> <Gold.PLP.ligand.torsion>
0.4596

> <Gold.PLP.Chemscore.Hbond>
4.3299

> <Gold.PLP.Chemscore.CHOScore>
0.0000

> <Gold.PLP.Chemscore.Metal>
0.0000

> <Gold.Chemscore.Hbonds>
donor molecule, donor type, donor heavy atom, donor atom, acceptor molecule, acceptor atom, score
      L1  H     5    45       P1  8028  2.00
      P1  H  6896  6908       L1    17  1.00
      P1  H  7989  7998       L1    10  0.39
      P1  H  7997  8008       L1    10  0.84

> <Gold.PLP.Chemscore.Internal.Correction>
0.0160

> <Gold.Rescore>
     Score         DG    S(hbond)    S(metal)    S(lipo)     H(rot)  DE(clash)    DE(int)     intcor
     18.88     -20.66       2.46        0.00     111.48       2.37       0.04       1.74       ----

> <Gold.Chemscore.Fitness>
18.8781

> <Gold.Chemscore.DG>
-20.6570

> <Gold.Chemscore.ZeroCoef>
-5.4800

> <Gold.Chemscore.Hbond>
2.4574

> <Gold.Chemscore.Metal>
0.0000

> <Gold.Chemscore.Lipo>
111.4754

> <Gold.Chemscore.Internal_Hbond>
0.0000

> <Gold.Chemscore.DEClash>
0.0391

> <Gold.Chemscore.DEInternal>
1.7399

> <Gold.Chemscore.Rot>
2.3724

> <Gold.Chemscore.Internal.Correction>
   9.000000E+99

> <Gold.Chemscore.Hbonds>
donor molecule, donor type, donor heavy atom, donor atom, acceptor molecule, acceptor atom, score
      L1  H     5    45       P1  8028  0.99
      P1  H  6896  6908       L1    17  1.00
      P1  H  7989  7998       L1    10  0.14
      P1  H  7997  8008       L1    10  0.07

> <Gold.Chemscore.Hbond.Weighted>
-8.2078

> <Gold.Chemscore.Metal.Weighted>
-0.0000

> <Gold.Chemscore.Lipo.Weighted>
-13.0426

> <Gold.Chemscore.Internal_Hbond.Weighted>
0.0000

> <Gold.Chemscore.DEClash.Weighted>
0.0391

> <Gold.Chemscore.DEInternal.Weighted>
1.7399

> <Gold.Chemscore.Rot.Weighted>
6.0734

> <Gold.Chemscore.Internal.Correction.Weighted>
   9.000000E+99

> <Gold.Protein.RotatedTorsions>
[ 6907 6896 6895 6894 ] final  175.29 input  -60.11 | X-H torsion
[ 7974 7965 7964 7962 ] final  137.54 input  175.53 | X-H torsion
[ 8008 7997 7996 7995 ] final  -13.02 input   59.86 | X-H torsion
[ 10167 10162 10161 10158 ] final  101.19 input  -65.29 | X-H torsion
[ 10718 10713 10712 10709 ] final  -24.55 input   66.30 | X-H torsion
[ 10763 10752 10751 10750 ] final   94.30 input  -60.55 | X-H torsion
[ 11005 11000 10999 10996 ] final  160.56 input  -57.11 | X-H torsion

> <Gold.Protein.ActiveResidues>
 VAL166  LYS551  ARG553  GLY616  TRP617  ASP618  TYR619  PRO620  LYS621  CYS622 
 ASP623  PHE694  ASN695  SER759  ASP760  ASP761  ALA762  ILE779  LEU786  VAL792 
 PHE793  MET794  SER795  GLU796  ALA797  LYS798  CYS799  TRP800  GLU811  SER814 

> <Gold.Protein.RotatedAtoms>
  151.7386  133.3321  159.3359 H   0  0  0  0  0  0  0  0  0  0  0  0  # atno 6907 bound_to 6896
  150.7583  134.6298  159.6190 H   0  0  0  0  0  0  0  0  0  0  0  0  # atno 6908 bound_to 6896
  152.3545  134.6961  160.0278 H   0  0  0  0  0  0  0  0  0  0  0  0  # atno 6909 bound_to 6896
  144.9458  139.4877  143.5550 H   0  0  0  0  0  0  0  0  0  0  0  0  # atno 7974 bound_to 7965
  154.5328  140.2260  155.8775 H   0  0  0  0  0  0  0  0  0  0  0  0  # atno 8008 bound_to 7997
  156.1781  140.3106  155.9060 H   0  0  0  0  0  0  0  0  0  0  0  0  # atno 8009 bound_to 7997
  155.3417  140.0451  157.3035 H   0  0  0  0  0  0  0  0  0  0  0  0  # atno 8010 bound_to 7997
  139.7460  144.6998  151.0504 H   0  0  0  0  0  0  0  0  0  0  0  0  # atno 10167 bound_to 10162
  156.4761  130.4535  149.6839 H   0  0  0  0  0  0  0  0  0  0  0  0  # atno 10718 bound_to 10713
  153.2400  135.4295  155.0688 H   0  0  0  0  0  0  0  0  0  0  0  0  # atno 10763 bound_to 10752
  154.8336  135.3400  154.6663 H   0  0  0  0  0  0  0  0  0  0  0  0  # atno 10764 bound_to 10752
  153.7087  135.7024  153.5100 H   0  0  0  0  0  0  0  0  0  0  0  0  # atno 10765 bound_to 10752
  140.2071  134.8295  157.3081 H   0  0  0  0  0  0  0  0  0  0  0  0  # atno 11005 bound_to 11000
  146.3303  139.8508  142.8873 LP  0  0  0  0  0  0  0  0  0  0  0  0  # atno 17320 bound_to 7965
  145.2921  141.0170  143.3657 LP  0  0  0  0  0  0  0  0  0  0  0  0  # atno 17321 bound_to 7965
  140.7792  143.4867  150.9947 LP  0  0  0  0  0  0  0  0  0  0  0  0  # atno 17342 bound_to 10162
  139.8555  143.7383  152.3176 LP  0  0  0  0  0  0  0  0  0  0  0  0  # atno 17343 bound_to 10162
  156.3569  130.7461  151.2428 LP  0  0  0  0  0  0  0  0  0  0  0  0  # atno 17370 bound_to 10713
  157.7487  131.0361  150.4395 LP  0  0  0  0  0  0  0  0  0  0  0  0  # atno 17371 bound_to 10713
  140.1991  134.4277  155.7672 LP  0  0  0  0  0  0  0  0  0  0  0  0  # atno 17394 bound_to 11000
  141.2227  133.7063  156.8154 LP  0  0  0  0  0  0  0  0  0  0  0  0  # atno 17395 bound_to 11000

$$$$
