AV-unprocessed.smi:876|AV-procd|sdf|4025|dock7
  -GOLD-   22720 1513D 1   1.00000     0.00000
 Structure written by MMmdl.
 40 41  0  0  0  0  0  0  0  0  1 V2000
  150.9242  142.1771  155.9707 C   0  0  0  0  0  0  0  0  0  0  0  0
  150.7759  140.8627  155.3584 N   0  0  0  0  0  0  0  0  0  0  0  0
  151.8988  139.9306  155.3561 C   0  0  0  0  0  0  0  0  0  0  0  0
  149.5379  140.4742  154.7972 C   0  0  0  0  0  0  0  0  0  0  0  0
  148.5177  141.4201  154.5276 C   0  0  0  0  0  0  0  0  0  0  0  0
  147.3017  140.9849  153.9660 C   0  0  0  0  0  0  0  0  0  0  0  0
  147.1318  139.6114  153.6774 C   0  0  0  0  0  0  0  0  0  0  0  0
  145.9508  139.0425  153.1281 N   0  0  0  0  0  0  0  0  0  0  0  0
  145.5956  137.7483  153.0550 C   0  0  0  0  0  0  0  0  0  0  0  0
  146.2523  136.8012  153.4868 O   0  0  0  0  0  0  0  0  0  0  0  0
  144.4036  137.6082  152.4585 N   0  0  0  0  0  0  0  0  0  0  0  0
  143.7282  136.3352  152.2326 C   0  0  2  0  0  0  0  0  0  0  0  0
  143.7551  135.4956  153.4798 C   0  0  0  0  0  0  0  0  0  0  0  0
  144.3452  134.3172  153.2941 C   0  0  0  0  0  0  0  0  0  0  0  0
  144.8567  134.1328  151.8881 C   0  0  1  0  0  0  0  0  0  0  0  0
  144.2867  132.8763  151.2073 C   0  0  0  0  0  0  0  0  0  0  0  0
  142.8923  132.7867  151.4146 O   0  0  0  0  0  0  0  0  0  0  0  0
  144.4463  135.4496  151.1801 C   0  0  0  0  0  0  0  0  0  0  0  0
  148.1960  138.7443  153.9922 C   0  0  0  0  0  0  0  0  0  0  0  0
  149.3624  139.1570  154.5294 N   0  0  0  0  0  0  0  0  0  0  0  0
  142.6869  136.5051  151.9529 H   0  0  0  0  0  0  0  0  0  0  0  0
  145.9450  134.0667  151.9299 H   0  0  0  0  0  0  0  0  0  0  0  0
  150.2141  142.3021  156.7885 H   0  0  0  0  0  0  0  0  0  0  0  0
  150.7539  142.9644  155.2356 H   0  0  0  0  0  0  0  0  0  0  0  0
  151.9259  142.3145  156.3782 H   0  0  0  0  0  0  0  0  0  0  0  0
  152.1452  139.6286  154.3379 H   0  0  0  0  0  0  0  0  0  0  0  0
  151.6562  139.0379  155.9334 H   0  0  0  0  0  0  0  0  0  0  0  0
  152.7902  140.3795  155.7940 H   0  0  0  0  0  0  0  0  0  0  0  0
  148.6406  142.4708  154.7427 H   0  0  0  0  0  0  0  0  0  0  0  0
  146.5256  141.7114  153.7833 H   0  0  0  0  0  0  0  0  0  0  0  0
  145.2684  139.7075  152.7947 H   0  0  0  0  0  0  0  0  0  0  0  0
  143.9275  138.4394  152.1396 H   0  0  0  0  0  0  0  0  0  0  0  0
  143.3225  135.8333  154.4101 H   0  0  0  0  0  0  0  0  0  0  0  0
  144.4715  133.5606  154.0545 H   0  0  0  0  0  0  0  0  0  0  0  0
  144.4904  132.8881  150.1358 H   0  0  0  0  0  0  0  0  0  0  0  0
  144.7540  131.9798  151.6158 H   0  0  0  0  0  0  0  0  0  0  0  0
  142.4715  133.4830  150.9339 H   0  0  0  0  0  0  0  0  0  0  0  0
  143.7768  135.2562  150.3409 H   0  0  0  0  0  0  0  0  0  0  0  0
  145.3265  135.9437  150.7660 H   0  0  0  0  0  0  0  0  0  0  0  0
  148.1133  137.6837  153.8044 H   0  0  0  0  0  0  0  0  0  0  0  0
  1  2  1  0  0  0  0
  1 23  1  0  0  0  0
  1 24  1  0  0  0  0
  1 25  1  0  0  0  0
  2  3  1  0  0  0  0
  2  4  1  0  0  0  0
  3 26  1  0  0  0  0
  3 27  1  0  0  0  0
  3 28  1  0  0  0  0
  4 20  1  0  0  0  0
  4  5  2  0  0  0  0
  5  6  1  0  0  0  0
  5 29  1  0  0  0  0
  6  7  2  0  0  0  0
  6 30  1  0  0  0  0
  7  8  1  0  0  0  0
  7 19  1  0  0  0  0
  8  9  1  0  0  0  0
  8 31  1  0  0  0  0
  9 10  2  0  0  0  0
  9 11  1  0  0  0  0
 11 12  1  0  0  0  0
 11 32  1  0  0  0  0
 12 21  1  0  0  0  0
 12 18  1  0  0  0  0
 12 13  1  0  0  0  0
 13 14  2  0  0  0  0
 13 33  1  0  0  0  0
 14 15  1  0  0  0  0
 14 34  1  0  0  0  0
 15 22  1  0  0  0  0
 15 16  1  0  0  0  0
 15 18  1  0  0  0  0
 16 17  1  0  0  0  0
 16 35  1  0  0  0  0
 16 36  1  0  0  0  0
 17 37  1  0  0  0  0
 18 38  1  0  0  0  0
 18 39  1  0  0  0  0
 19 20  2  0  0  0  0
 19 40  1  0  0  0  0
M  END
> <s_m_source_file>
AV-unprocessed.smi

> <i_m_source_file_index>
876

> <i_lp_mmshare_version>
43012

> <i_f3d_flags>
0

> <s_epik_input>
W0NIM11OKFtDSDNdKWMxW2NIXVtjSF1jKFtjSF1uMSlbTkhdQyg9TylbTkhdW0NAQEhdMltDSF09W0NIXVtDQEBIXShbQ0gyXTIpW0NIMl1bT0hd

> <s_epik_cmdline>
J2VwaWtfcHl0aG9uJywgJy1waCcsICc3LjAnLCAnLXRuJywgJzgnLCAnLW1hJywgJzIwMCcsICctbWV0YWxfYmluZGluZycsICctaW1hZScsICc8aW5maWxlLm1hZT4nLCAnLW9tYWUnLCAnPG91dGZpbGUubWFlPic=

> <r_lp_tautomer_probability>
1

> <r_epik_Ionization_Penalty>
0.617998

> <r_epik_Ionization_Penalty_Charging>
0

> <r_epik_Ionization_Penalty_Neutral>
0.617998

> <r_epik_State_Penalty>
0.632637

> <r_epik_Charging_Adjusted_Penalty>
0.632637

> <i_epik_Tot_Q>
0

> <i_epik_Tot_abs_Q>
0

> <r_epik_Metal_State_Penalty>
0.305596

> <b_epik_Metal_Only>
0

> <s_lp_Force_Field>
OPLS_2005

> <r_lp_Energy>
20.6099

> <b_lp_Chiralities_Consistent>
1

> <s_lp_Variant>
AV-unprocessed.smi:876-7

> <Gold.Version>
5.8.1

> <Gold.Id.Protein>
6NUR|6NUR_protein|mol2

> <Gold.PLP.Fitness>
47.0250

> <Gold.PLP.PLP>
-36.2812

> <Gold.PLP.part.hbond>
-4.0000

> <Gold.PLP.part.metal>
0.0000

> <Gold.PLP.part.buried>
-4.4336

> <Gold.PLP.part.nonpolar>
-28.8855

> <Gold.PLP.part.repulsive>
0.3252

> <Gold.PLP.ligand.clash>
0.0000

> <Gold.PLP.ligand.torsion>
0.3237

> <Gold.PLP.Chemscore.Hbond>
2.7920

> <Gold.PLP.Chemscore.CHOScore>
1.0000

> <Gold.PLP.Chemscore.Metal>
0.0000

> <Gold.Chemscore.Hbonds>
donor molecule, donor type, donor heavy atom, donor atom, acceptor molecule, acceptor atom, score
      L1  H     8    31       P1 10175  1.00
      L1  H    11    32       P1 10175  0.90
      L1  H    17    37       P1 10186  0.54
      L1  C    19    40       P1  7948  0.93

> <Gold.PLP.Chemscore.Internal.Correction>
0.0152

> <Gold.Rescore>
     Score         DG    S(hbond)    S(metal)    S(lipo)     H(rot)  DE(clash)    DE(int)     intcor
     14.76     -17.72       2.67        0.00      67.73       1.80       0.18       2.78       ----

> <Gold.Chemscore.Fitness>
14.7599

> <Gold.Chemscore.DG>
-17.7178

> <Gold.Chemscore.ZeroCoef>
-5.4800

> <Gold.Chemscore.Hbond>
2.6696

> <Gold.Chemscore.Metal>
0.0000

> <Gold.Chemscore.Lipo>
67.7298

> <Gold.Chemscore.Internal_Hbond>
0.0000

> <Gold.Chemscore.DEClash>
0.1820

> <Gold.Chemscore.DEInternal>
2.7759

> <Gold.Chemscore.Rot>
1.7980

> <Gold.Chemscore.Internal.Correction>
   9.000000E+99

> <Gold.Chemscore.Hbonds>
donor molecule, donor type, donor heavy atom, donor atom, acceptor molecule, acceptor atom, score
      L1  H     8    31       P1 10175  1.00
      L1  H    11    32       P1 10175  0.83
      L1  H    17    37       P1 10186  0.46

> <Gold.Chemscore.Hbond.Weighted>
-8.9163

> <Gold.Chemscore.Metal.Weighted>
-0.0000

> <Gold.Chemscore.Lipo.Weighted>
-7.9244

> <Gold.Chemscore.Internal_Hbond.Weighted>
0.0000

> <Gold.Chemscore.DEClash.Weighted>
0.1820

> <Gold.Chemscore.DEInternal.Weighted>
2.7759

> <Gold.Chemscore.Rot.Weighted>
4.6029

> <Gold.Chemscore.Internal.Correction.Weighted>
   9.000000E+99

> <Gold.Protein.RotatedTorsions>
[ 6907 6896 6895 6894 ] final -121.77 input  -60.11 | X-H torsion
[ 7974 7965 7964 7962 ] final   74.01 input  175.53 | X-H torsion
[ 8008 7997 7996 7995 ] final  125.13 input   59.86 | X-H torsion
[ 10167 10162 10161 10158 ] final   -3.05 input  -65.29 | X-H torsion
[ 10718 10713 10712 10709 ] final -107.77 input   66.30 | X-H torsion
[ 10763 10752 10751 10750 ] final -169.27 input  -60.55 | X-H torsion
[ 11005 11000 10999 10996 ] final -142.52 input  -57.11 | X-H torsion

> <Gold.Protein.ActiveResidues>
 VAL166  LYS551  ARG553  GLY616  TRP617  ASP618  TYR619  PRO620  LYS621  CYS622 
 ASP623  PHE694  ASN695  SER759  ASP760  ASP761  ALA762  ILE779  LEU786  VAL792 
 PHE793  MET794  SER795  GLU796  ALA797  LYS798  CYS799  TRP800  GLU811  SER814 

> <Gold.Protein.RotatedAtoms>
  150.8514  133.7782  159.3024 H   0  0  0  0  0  0  0  0  0  0  0  0  # atno 6907 bound_to 6896
  151.5453  135.1066  159.9946 H   0  0  0  0  0  0  0  0  0  0  0  0  # atno 6908 bound_to 6896
  152.4555  133.7671  159.6835 H   0  0  0  0  0  0  0  0  0  0  0  0  # atno 6909 bound_to 6896
  145.7337  139.2693  143.1526 H   0  0  0  0  0  0  0  0  0  0  0  0  # atno 7974 bound_to 7965
  156.2824  140.2723  156.1900 H   0  0  0  0  0  0  0  0  0  0  0  0  # atno 8008 bound_to 7997
  155.0468  140.0386  157.2547 H   0  0  0  0  0  0  0  0  0  0  0  0  # atno 8009 bound_to 7997
  154.7228  140.2691  155.6531 H   0  0  0  0  0  0  0  0  0  0  0  0  # atno 8010 bound_to 7997
  140.6875  143.6586  150.8287 H   0  0  0  0  0  0  0  0  0  0  0  0  # atno 10167 bound_to 10162
  156.0453  130.5679  150.7868 H   0  0  0  0  0  0  0  0  0  0  0  0  # atno 10718 bound_to 10713
  154.6541  135.2915  154.9950 H   0  0  0  0  0  0  0  0  0  0  0  0  # atno 10763 bound_to 10752
  154.1032  135.6573  153.4876 H   0  0  0  0  0  0  0  0  0  0  0  0  # atno 10764 bound_to 10752
  153.0393  135.5247  154.7462 H   0  0  0  0  0  0  0  0  0  0  0  0  # atno 10765 bound_to 10752
  140.8217  134.2623  157.4897 H   0  0  0  0  0  0  0  0  0  0  0  0  # atno 11005 bound_to 11000
  146.0514  140.8066  142.9780 LP  0  0  0  0  0  0  0  0  0  0  0  0  # atno 17320 bound_to 7965
  144.6887  140.3058  143.7256 LP  0  0  0  0  0  0  0  0  0  0  0  0  # atno 17321 bound_to 7965
  140.0294  143.5459  152.2766 LP  0  0  0  0  0  0  0  0  0  0  0  0  # atno 17342 bound_to 10162
  139.6246  144.7635  151.2666 LP  0  0  0  0  0  0  0  0  0  0  0  0  # atno 17343 bound_to 10162
  157.5320  131.0937  150.9942 LP  0  0  0  0  0  0  0  0  0  0  0  0  # atno 17370 bound_to 10713
  157.0246  130.5687  149.5335 LP  0  0  0  0  0  0  0  0  0  0  0  0  # atno 17371 bound_to 10713
  139.8708  134.9539  156.4159 LP  0  0  0  0  0  0  0  0  0  0  0  0  # atno 17394 bound_to 11000
  140.9092  133.7724  155.9771 LP  0  0  0  0  0  0  0  0  0  0  0  0  # atno 17395 bound_to 11000

$$$$
