AV-unprocessed.smi:1762|AV-procd|sdf|7118|dock9
  -GOLD-   22720 8353D 1   1.00000     0.00000
 Structure written by MMmdl.
 53 54  0  0  0  0  0  0  0  0  2 V2000
  149.4284  133.4369  153.9728 C   0  0  0  0  0  0  0  0  0  0  0  0
  147.9973  133.3219  154.5282 C   0  0  1  0  0  0  0  0  0  0  0  0
  147.4879  134.6172  155.1864 C   0  0  0  0  0  0  0  0  0  0  0  0
  147.1902  135.6705  154.1730 N   0  3  2  0  0  0  0  0  0  0  0  0
  146.8070  136.9868  154.7911 C   0  0  1  0  0  0  0  0  0  0  0  0
  147.5714  137.2177  156.1130 C   0  0  0  0  0  0  0  0  0  0  0  0
  148.7569  136.8962  156.2066 O   0  0  0  0  0  0  0  0  0  0  0  0
  146.8807  137.7731  157.1200 N   0  0  0  0  0  0  0  0  0  0  0  0
  147.4267  138.0762  158.4362 C   0  0  0  0  0  0  0  0  0  0  0  0
  148.2372  136.8865  158.9685 C   0  0  0  0  0  0  0  0  0  0  0  0
  147.6847  136.3526  160.2768 C   0  0  0  0  0  0  0  0  0  0  0  0
  147.3981  134.9795  160.4317 C   0  0  0  0  0  0  0  0  0  0  0  0
  146.8908  134.5356  161.6684 C   0  0  0  0  0  0  0  0  0  0  0  0
  146.6926  135.4765  162.6971 C   0  0  0  0  0  0  0  0  0  0  0  0
  147.0113  136.8253  162.4424 C   0  0  0  0  0  0  0  0  0  0  0  0
  147.4967  137.2617  161.2599 N   0  0  0  0  0  0  0  0  0  0  0  0
  146.9696  138.2207  153.8392 C   0  0  0  0  0  0  0  0  0  0  0  0
  146.5691  139.5653  154.4816 C   0  0  0  0  0  0  0  0  0  0  0  0
  146.2498  138.0469  152.4870 C   0  0  0  0  0  0  0  0  0  0  0  0
  146.2236  135.1217  153.1826 C   0  0  0  0  0  0  0  0  0  0  0  0
  146.7648  133.8313  152.5389 C   0  0  2  0  0  0  0  0  0  0  0  0
  145.7492  133.2004  151.5800 C   0  0  0  0  0  0  0  0  0  0  0  0
  147.0638  132.8746  153.5487 O   0  0  0  0  0  0  0  0  0  0  0  0
  150.1376  133.6428  154.7749 H   0  0  0  0  0  0  0  0  0  0  0  0
  149.5276  134.2395  153.2425 H   0  0  0  0  0  0  0  0  0  0  0  0
  149.7351  132.5070  153.4935 H   0  0  0  0  0  0  0  0  0  0  0  0
  148.0198  132.5475  155.2954 H   0  0  0  0  0  0  0  0  0  0  0  0
  146.5787  134.4047  155.7511 H   0  0  0  0  0  0  0  0  0  0  0  0
  148.2295  134.9481  155.9130 H   0  0  0  0  0  0  0  0  0  0  0  0
  145.7449  136.9106  155.0327 H   0  0  0  0  0  0  0  0  0  0  0  0
  145.9118  138.0104  156.9618 H   0  0  0  0  0  0  0  0  0  0  0  0
  148.0596  138.9612  158.3588 H   0  0  0  0  0  0  0  0  0  0  0  0
  146.6233  138.3148  159.1357 H   0  0  0  0  0  0  0  0  0  0  0  0
  148.2425  136.0800  158.2336 H   0  0  0  0  0  0  0  0  0  0  0  0
  149.2788  137.1776  159.1114 H   0  0  0  0  0  0  0  0  0  0  0  0
  147.5627  134.2810  159.6244 H   0  0  0  0  0  0  0  0  0  0  0  0
  146.6590  133.4923  161.8250 H   0  0  0  0  0  0  0  0  0  0  0  0
  146.3058  135.1724  163.6585 H   0  0  0  0  0  0  0  0  0  0  0  0
  146.8725  137.5736  163.2084 H   0  0  0  0  0  0  0  0  0  0  0  0
  148.0199  138.2909  153.5609 H   0  0  0  0  0  0  0  0  0  0  0  0
  145.4962  139.6198  154.6675 H   0  0  0  0  0  0  0  0  0  0  0  0
  146.8252  140.3987  153.8268 H   0  0  0  0  0  0  0  0  0  0  0  0
  147.0763  139.7338  155.4311 H   0  0  0  0  0  0  0  0  0  0  0  0
  145.1646  138.0755  152.5913 H   0  0  0  0  0  0  0  0  0  0  0  0
  146.5173  137.1004  152.0163 H   0  0  0  0  0  0  0  0  0  0  0  0
  146.5263  138.8433  151.7953 H   0  0  0  0  0  0  0  0  0  0  0  0
  145.2657  134.9357  153.6713 H   0  0  0  0  0  0  0  0  0  0  0  0
  146.0416  135.8235  152.3716 H   0  0  0  0  0  0  0  0  0  0  0  0
  147.6664  134.0583  151.9698 H   0  0  0  0  0  0  0  0  0  0  0  0
  145.4936  133.8855  150.7713 H   0  0  0  0  0  0  0  0  0  0  0  0
  144.8272  132.9360  152.0984 H   0  0  0  0  0  0  0  0  0  0  0  0
  146.1504  132.2919  151.1301 H   0  0  0  0  0  0  0  0  0  0  0  0
  148.0490  135.8419  153.6691 H   0  0  0  0  0  0  0  0  0  0  0  0
  1  2  1  0  0  0  0
  1 24  1  0  0  0  0
  1 25  1  0  0  0  0
  1 26  1  0  0  0  0
  2 23  1  0  0  0  0
  2  3  1  0  0  0  0
  2 27  1  0  0  0  0
  3  4  1  0  0  0  0
  3 28  1  0  0  0  0
  3 29  1  0  0  0  0
  4  5  1  0  0  0  0
  4 20  1  0  0  0  0
  4 53  1  0  0  0  0
  5  6  1  0  0  0  0
  5 17  1  0  0  0  0
  5 30  1  0  0  0  0
  6  7  2  0  0  0  0
  6  8  1  0  0  0  0
  8  9  1  0  0  0  0
  8 31  1  0  0  0  0
  9 10  1  0  0  0  0
  9 32  1  0  0  0  0
  9 33  1  0  0  0  0
 10 11  1  0  0  0  0
 10 34  1  0  0  0  0
 10 35  1  0  0  0  0
 11 16  1  0  0  0  0
 11 12  2  0  0  0  0
 12 13  1  0  0  0  0
 12 36  1  0  0  0  0
 13 14  2  0  0  0  0
 13 37  1  0  0  0  0
 14 15  1  0  0  0  0
 14 38  1  0  0  0  0
 15 16  2  0  0  0  0
 15 39  1  0  0  0  0
 17 18  1  0  0  0  0
 17 19  1  0  0  0  0
 17 40  1  0  0  0  0
 18 41  1  0  0  0  0
 18 42  1  0  0  0  0
 18 43  1  0  0  0  0
 19 44  1  0  0  0  0
 19 45  1  0  0  0  0
 19 46  1  0  0  0  0
 20 21  1  0  0  0  0
 20 47  1  0  0  0  0
 20 48  1  0  0  0  0
 21 22  1  0  0  0  0
 21 23  1  0  0  0  0
 21 49  1  0  0  0  0
 22 50  1  0  0  0  0
 22 51  1  0  0  0  0
 22 52  1  0  0  0  0
M  CHG  1   4   1
M  END
> <s_m_source_file>
AV-unprocessed.smi

> <i_m_source_file_index>
1762

> <i_lp_mmshare_version>
43012

> <i_f3d_flags>
0

> <s_epik_input>
W0NIM11bQ0BASF0xW0NIMl1OKFtDSDJdW0NASF0oTzEpW0NIM10pW0NAQEhdKFtDSF0oW0NIM10pW0NIM10pQyg9TylbTkhdW0NIMl1bQ0gyXWMyW2NIXVtjSF1bY0hdW2NIXW4y

> <s_epik_cmdline>
J2VwaWtfcHl0aG9uJywgJy1waCcsICc3LjAnLCAnLXRuJywgJzgnLCAnLW1hJywgJzIwMCcsICctbWV0YWxfYmluZGluZycsICctaW1hZScsICc8aW5maWxlLm1hZT4nLCAnLW9tYWUnLCAnPG91dGZpbGUubWFlPic=

> <r_epik_Ionization_Penalty>
2.27005

> <r_epik_Ionization_Penalty_Charging>
2.24983

> <r_epik_Ionization_Penalty_Neutral>
0.0202209

> <r_epik_State_Penalty>
2.40228

> <r_epik_Charging_Adjusted_Penalty>
4.65211

> <i_epik_Tot_Q>
1

> <i_epik_Tot_abs_Q>
1

> <r_epik_Metal_State_Penalty>
2.40762

> <b_epik_Metal_Only>
0

> <s_lp_Force_Field>
OPLS_2005

> <r_lp_Energy>
25.0813

> <b_lp_Chiralities_Consistent>
1

> <s_lp_Variant>
AV-unprocessed.smi:1762-20

> <Gold.Version>
5.8.1

> <Gold.Id.Protein>
6NUR|6NUR_protein|mol2

> <Gold.PLP.Fitness>
40.5790

> <Gold.PLP.PLP>
-32.4376

> <Gold.PLP.part.hbond>
-3.0000

> <Gold.PLP.part.metal>
0.0000

> <Gold.PLP.part.buried>
-3.8639

> <Gold.PLP.part.nonpolar>
-25.9806

> <Gold.PLP.part.repulsive>
0.1538

> <Gold.PLP.ligand.clash>
0.0000

> <Gold.PLP.ligand.torsion>
1.5844

> <Gold.PLP.Chemscore.Hbond>
3.6906

> <Gold.PLP.Chemscore.CHOScore>
0.0000

> <Gold.PLP.Chemscore.Metal>
0.0000

> <Gold.Chemscore.Hbonds>
donor molecule, donor type, donor heavy atom, donor atom, acceptor molecule, acceptor atom, score
      L1  H     4    53       P1  7948  1.81
      P1  H  6931  6943       L1    16  0.84
      P1  H  6934  6947       L1    16  0.93

> <Gold.PLP.Chemscore.Internal.Correction>
0.2385

> <Gold.Rescore>
     Score         DG    S(hbond)    S(metal)    S(lipo)     H(rot)  DE(clash)    DE(int)     intcor
     13.53     -18.06       2.24        0.00      79.94       1.66       0.11       4.42       ----

> <Gold.Chemscore.Fitness>
13.5348

> <Gold.Chemscore.DG>
-18.0622

> <Gold.Chemscore.ZeroCoef>
-5.4800

> <Gold.Chemscore.Hbond>
2.2419

> <Gold.Chemscore.Metal>
0.0000

> <Gold.Chemscore.Lipo>
79.9394

> <Gold.Chemscore.Internal_Hbond>
0.0000

> <Gold.Chemscore.DEClash>
0.1101

> <Gold.Chemscore.DEInternal>
4.4174

> <Gold.Chemscore.Rot>
1.6635

> <Gold.Chemscore.Internal.Correction>
   9.000000E+99

> <Gold.Chemscore.Hbonds>
donor molecule, donor type, donor heavy atom, donor atom, acceptor molecule, acceptor atom, score
      L1  H     4    53       P1  7948  0.83
      P1  H  6931  6943       L1    16  0.18
      P1  H  6934  6947       L1    16  0.78

> <Gold.Chemscore.Hbond.Weighted>
-7.4879

> <Gold.Chemscore.Metal.Weighted>
-0.0000

> <Gold.Chemscore.Lipo.Weighted>
-9.3529

> <Gold.Chemscore.Internal_Hbond.Weighted>
0.0000

> <Gold.Chemscore.DEClash.Weighted>
0.1101

> <Gold.Chemscore.DEInternal.Weighted>
4.4174

> <Gold.Chemscore.Rot.Weighted>
4.2586

> <Gold.Chemscore.Internal.Correction.Weighted>
   9.000000E+99

> <Gold.Protein.RotatedTorsions>
[ 6907 6896 6895 6894 ] final  -75.53 input  -60.11 | X-H torsion
[ 7974 7965 7964 7962 ] final   51.74 input  175.53 | X-H torsion
[ 8008 7997 7996 7995 ] final -143.62 input   59.86 | X-H torsion
[ 10167 10162 10161 10158 ] final  -94.74 input  -65.29 | X-H torsion
[ 10718 10713 10712 10709 ] final   88.38 input   66.30 | X-H torsion
[ 10763 10752 10751 10750 ] final -159.05 input  -60.55 | X-H torsion
[ 11005 11000 10999 10996 ] final  -19.21 input  -57.11 | X-H torsion

> <Gold.Protein.ActiveResidues>
 VAL166  LYS551  ARG553  GLY616  TRP617  ASP618  TYR619  PRO620  LYS621  CYS622 
 ASP623  PHE694  ASN695  SER759  ASP760  ASP761  ALA762  ILE779  LEU786  VAL792 
 PHE793  MET794  SER795  GLU796  ALA797  LYS798  CYS799  TRP800  GLU811  SER814 

> <Gold.Protein.RotatedAtoms>
  150.7056  134.4707  159.5423 H   0  0  0  0  0  0  0  0  0  0  0  0  # atno 6907 bound_to 6896
  152.2364  134.8269  160.0475 H   0  0  0  0  0  0  0  0  0  0  0  0  # atno 6908 bound_to 6896
  151.9066  133.3516  159.3886 H   0  0  0  0  0  0  0  0  0  0  0  0  # atno 6909 bound_to 6896
  145.9884  139.4313  143.0089 H   0  0  0  0  0  0  0  0  0  0  0  0  # atno 7974 bound_to 7965
  155.5136  140.0585  157.2919 H   0  0  0  0  0  0  0  0  0  0  0  0  # atno 8008 bound_to 7997
  154.4543  140.1965  156.0374 H   0  0  0  0  0  0  0  0  0  0  0  0  # atno 8009 bound_to 7997
  156.0767  140.3252  155.7646 H   0  0  0  0  0  0  0  0  0  0  0  0  # atno 8010 bound_to 7997
  140.3113  143.3103  152.0145 H   0  0  0  0  0  0  0  0  0  0  0  0  # atno 10167 bound_to 10162
  157.6948  131.0292  150.3266 H   0  0  0  0  0  0  0  0  0  0  0  0  # atno 10718 bound_to 10713
  154.7506  135.3091  154.8563 H   0  0  0  0  0  0  0  0  0  0  0  0  # atno 10763 bound_to 10752
  153.9352  135.6781  153.4749 H   0  0  0  0  0  0  0  0  0  0  0  0  # atno 10764 bound_to 10752
  153.1103  135.4870  154.8950 H   0  0  0  0  0  0  0  0  0  0  0  0  # atno 10765 bound_to 10752
  140.8345  133.7972  155.9793 H   0  0  0  0  0  0  0  0  0  0  0  0  # atno 11005 bound_to 11000
  145.7667  140.9913  143.1171 LP  0  0  0  0  0  0  0  0  0  0  0  0  # atno 17320 bound_to 7965
  144.6881  139.9397  143.7474 LP  0  0  0  0  0  0  0  0  0  0  0  0  # atno 17321 bound_to 7965
  139.4893  144.6382  151.6931 LP  0  0  0  0  0  0  0  0  0  0  0  0  # atno 17342 bound_to 10162
  140.5566  144.0338  150.6150 LP  0  0  0  0  0  0  0  0  0  0  0  0  # atno 17343 bound_to 10162
  156.3746  130.3869  149.7149 LP  0  0  0  0  0  0  0  0  0  0  0  0  # atno 17370 bound_to 10713
  156.4551  130.7925  151.2946 LP  0  0  0  0  0  0  0  0  0  0  0  0  # atno 17371 bound_to 10713
  140.8963  134.2434  157.5067 LP  0  0  0  0  0  0  0  0  0  0  0  0  # atno 17394 bound_to 11000
  139.8704  134.9685  156.4634 LP  0  0  0  0  0  0  0  0  0  0  0  0  # atno 17395 bound_to 11000

$$$$
