AV-unprocessed.smi:2088|AV-procd|sdf|8527|dock1
  -GOLD-   2272011243D 1   1.00000     0.00000
 Structure written by MMmdl.
 33 34  0  0  0  0  0  0  0  0  1 V2000
  150.0411  140.2123  154.4073 O   0  0  0  0  0  0  0  0  0  0  0  0
  149.4664  141.2307  154.7909 C   0  0  0  0  0  0  0  0  0  0  0  0
  148.1436  141.6482  154.1502 C   0  0  0  0  0  0  0  0  0  0  0  0
  147.5086  140.5076  153.5152 N   0  0  0  0  0  0  0  0  0  0  0  0
  147.3795  140.2394  152.1695 C   0  0  0  0  0  0  0  0  0  0  0  0
  146.7387  139.0394  152.0554 C   0  0  0  0  0  0  0  0  0  0  0  0
  146.5117  138.6369  153.4038 C   0  0  0  0  0  0  0  0  0  0  0  0
  145.8473  137.3822  153.9058 C   0  0  0  0  0  0  0  0  0  0  0  0
  145.4122  136.6474  152.8823 F   0  0  0  0  0  0  0  0  0  0  0  0
  146.7170  136.6603  154.6126 F   0  0  0  0  0  0  0  0  0  0  0  0
  144.8094  137.6950  154.6816 F   0  0  0  0  0  0  0  0  0  0  0  0
  146.9742  139.5256  154.2730 N   0  0  0  0  0  0  0  0  0  0  0  0
  149.9139  142.0090  155.7884 N   0  0  0  0  0  0  0  0  0  0  0  0
  151.0623  141.7183  156.6390 C   0  0  0  0  0  0  0  0  0  0  0  0
  151.2048  142.7702  157.7519 C   0  0  1  0  0  0  0  0  0  0  0  0
  152.2884  142.4745  158.7904 C   0  0  0  0  0  0  0  0  0  0  0  0
  152.5881  143.8590  159.3156 C   0  0  0  0  0  0  0  0  0  0  0  0
  152.4951  144.6993  158.0449 C   0  0  0  0  0  0  0  0  0  0  0  0
  151.5602  144.0344  157.1984 O   0  0  0  0  0  0  0  0  0  0  0  0
  147.4718  142.0720  154.8985 H   0  0  0  0  0  0  0  0  0  0  0  0
  148.3191  142.4190  153.3987 H   0  0  0  0  0  0  0  0  0  0  0  0
  147.7562  140.9142  151.4148 H   0  0  0  0  0  0  0  0  0  0  0  0
  146.4758  138.5225  151.1445 H   0  0  0  0  0  0  0  0  0  0  0  0
  149.3706  142.8265  156.0258 H   0  0  0  0  0  0  0  0  0  0  0  0
  150.9965  140.7171  157.0676 H   0  0  0  0  0  0  0  0  0  0  0  0
  151.9556  141.7247  156.0140 H   0  0  0  0  0  0  0  0  0  0  0  0
  150.2496  142.8972  158.2643 H   0  0  0  0  0  0  0  0  0  0  0  0
  151.9584  141.7835  159.5670 H   0  0  0  0  0  0  0  0  0  0  0  0
  153.1760  142.0563  158.3132 H   0  0  0  0  0  0  0  0  0  0  0  0
  151.8188  144.1637  160.0263 H   0  0  0  0  0  0  0  0  0  0  0  0
  153.5585  143.9331  159.8074 H   0  0  0  0  0  0  0  0  0  0  0  0
  152.1885  145.7254  158.2481 H   0  0  0  0  0  0  0  0  0  0  0  0
  153.4594  144.7285  157.5367 H   0  0  0  0  0  0  0  0  0  0  0  0
  1  2  2  0  0  0  0
  2  3  1  0  0  0  0
  2 13  1  0  0  0  0
  3  4  1  0  0  0  0
  3 20  1  0  0  0  0
  3 21  1  0  0  0  0
  4 12  1  0  0  0  0
  4  5  1  0  0  0  0
  5  6  2  0  0  0  0
  5 22  1  0  0  0  0
  6  7  1  0  0  0  0
  6 23  1  0  0  0  0
  7  8  1  0  0  0  0
  7 12  2  0  0  0  0
  8  9  1  0  0  0  0
  8 10  1  0  0  0  0
  8 11  1  0  0  0  0
 13 14  1  0  0  0  0
 13 24  1  0  0  0  0
 14 15  1  0  0  0  0
 14 25  1  0  0  0  0
 14 26  1  0  0  0  0
 15 19  1  0  0  0  0
 15 16  1  0  0  0  0
 15 27  1  0  0  0  0
 16 17  1  0  0  0  0
 16 28  1  0  0  0  0
 16 29  1  0  0  0  0
 17 18  1  0  0  0  0
 17 30  1  0  0  0  0
 17 31  1  0  0  0  0
 18 19  1  0  0  0  0
 18 32  1  0  0  0  0
 18 33  1  0  0  0  0
M  END
> <s_m_source_file>
AV-unprocessed.smi

> <i_m_source_file_index>
2088

> <i_lp_mmshare_version>
43012

> <i_f3d_flags>
0

> <s_epik_input>
TzFbQ0gyXVtDSDJdW0NIMl1bQ0BIXTFbQ0gyXVtOSF1DKD1PKVtDSDJdbjJbY0hdW2NIXWMobjIpQyhGKShGKUY=

> <s_epik_cmdline>
J2VwaWtfcHl0aG9uJywgJy1waCcsICc3LjAnLCAnLXRuJywgJzgnLCAnLW1hJywgJzIwMCcsICctbWV0YWxfYmluZGluZycsICctaW1hZScsICc8aW5maWxlLm1hZT4nLCAnLW9tYWUnLCAnPG91dGZpbGUubWFlPic=

> <r_lp_tautomer_probability>
1

> <r_epik_Ionization_Penalty>
2.25732e-07

> <r_epik_Ionization_Penalty_Charging>
0

> <r_epik_Ionization_Penalty_Neutral>
2.25732e-07

> <r_epik_State_Penalty>
-0

> <r_epik_Charging_Adjusted_Penalty>
0

> <i_epik_Tot_Q>
0

> <i_epik_Tot_abs_Q>
0

> <r_epik_Metal_State_Penalty>
-0

> <b_epik_Metal_Only>
0

> <s_lp_Force_Field>
OPLS_2005

> <r_lp_Energy>
19.1857

> <b_lp_Chiralities_Consistent>
1

> <s_lp_Variant>
AV-unprocessed.smi:2088-2

> <Gold.Version>
5.8.1

> <Gold.Id.Protein>
6NUR|6NUR_protein|mol2

> <Gold.PLP.Fitness>
41.2846

> <Gold.PLP.PLP>
-35.1222

> <Gold.PLP.part.hbond>
-2.0000

> <Gold.PLP.part.metal>
0.0000

> <Gold.PLP.part.buried>
1.3219

> <Gold.PLP.part.nonpolar>
-33.5004

> <Gold.PLP.part.repulsive>
0.5165

> <Gold.PLP.ligand.clash>
0.0000

> <Gold.PLP.ligand.torsion>
0.4955

> <Gold.PLP.Chemscore.Hbond>
1.9840

> <Gold.PLP.Chemscore.CHOScore>
0.3836

> <Gold.PLP.Chemscore.Metal>
0.0000

> <Gold.Chemscore.Hbonds>
donor molecule, donor type, donor heavy atom, donor atom, acceptor molecule, acceptor atom, score
      L1  H    13    24       P1  8028  0.98
      P1  H  7989  7998       L1     1  0.98
      L1  C     5    22       P1  7957  0.37

> <Gold.PLP.Chemscore.Internal.Correction>
0.0507

> <Gold.Rescore>
     Score         DG    S(hbond)    S(metal)    S(lipo)     H(rot)  DE(clash)    DE(int)     intcor
     14.49     -16.58       1.58        0.00      91.05       1.89       1.57       0.52       ----

> <Gold.Chemscore.Fitness>
14.4879

> <Gold.Chemscore.DG>
-16.5808

> <Gold.Chemscore.ZeroCoef>
-5.4800

> <Gold.Chemscore.Hbond>
1.5848

> <Gold.Chemscore.Metal>
0.0000

> <Gold.Chemscore.Lipo>
91.0506

> <Gold.Chemscore.Internal_Hbond>
0.0000

> <Gold.Chemscore.DEClash>
1.5696

> <Gold.Chemscore.DEInternal>
0.5234

> <Gold.Chemscore.Rot>
1.8928

> <Gold.Chemscore.Internal.Correction>
   9.000000E+99

> <Gold.Chemscore.Hbonds>
donor molecule, donor type, donor heavy atom, donor atom, acceptor molecule, acceptor atom, score
      L1  H    13    24       P1  8028  0.91
      P1  H  7989  7998       L1     1  0.41

> <Gold.Chemscore.Hbond.Weighted>
-5.2934

> <Gold.Chemscore.Metal.Weighted>
-0.0000

> <Gold.Chemscore.Lipo.Weighted>
-10.6529

> <Gold.Chemscore.Internal_Hbond.Weighted>
0.0000

> <Gold.Chemscore.DEClash.Weighted>
1.5696

> <Gold.Chemscore.DEInternal.Weighted>
0.5234

> <Gold.Chemscore.Rot.Weighted>
4.8455

> <Gold.Chemscore.Internal.Correction.Weighted>
   9.000000E+99

> <Gold.Protein.RotatedTorsions>
[ 6907 6896 6895 6894 ] final   52.40 input  -60.11 | X-H torsion
[ 7974 7965 7964 7962 ] final -159.36 input  175.53 | X-H torsion
[ 8008 7997 7996 7995 ] final -157.74 input   59.86 | X-H torsion
[ 10167 10162 10161 10158 ] final  -13.90 input  -65.29 | X-H torsion
[ 10718 10713 10712 10709 ] final  114.08 input   66.30 | X-H torsion
[ 10763 10752 10751 10750 ] final  138.85 input  -60.55 | X-H torsion
[ 11005 11000 10999 10996 ] final -152.98 input  -57.11 | X-H torsion

> <Gold.Protein.ActiveResidues>
 VAL166  LYS551  ARG553  GLY616  TRP617  ASP618  TYR619  PRO620  LYS621  CYS622 
 ASP623  PHE694  ASN695  SER759  ASP760  ASP761  ALA762  ILE779  LEU786  VAL792 
 PHE793  MET794  SER795  GLU796  ALA797  LYS798  CYS799  TRP800  GLU811  SER814 

> <Gold.Protein.RotatedAtoms>
  152.3229  134.7358  160.0309 H   0  0  0  0  0  0  0  0  0  0  0  0  # atno 6907 bound_to 6896
  151.7800  133.3343  159.3477 H   0  0  0  0  0  0  0  0  0  0  0  0  # atno 6908 bound_to 6896
  150.7379  134.5871  159.6012 H   0  0  0  0  0  0  0  0  0  0  0  0  # atno 6909 bound_to 6896
  144.7468  140.3696  143.6078 H   0  0  0  0  0  0  0  0  0  0  0  0  # atno 7974 bound_to 7965
  155.7370  140.0809  157.2263 H   0  0  0  0  0  0  0  0  0  0  0  0  # atno 8008 bound_to 7997
  154.4026  140.1585  156.2628 H   0  0  0  0  0  0  0  0  0  0  0  0  # atno 8009 bound_to 7997
  155.9056  140.3407  155.6062 H   0  0  0  0  0  0  0  0  0  0  0  0  # atno 8010 bound_to 7997
  140.7191  143.5377  150.9445 H   0  0  0  0  0  0  0  0  0  0  0  0  # atno 10167 bound_to 10162
  157.6301  131.0993  150.7134 H   0  0  0  0  0  0  0  0  0  0  0  0  # atno 10718 bound_to 10713
  153.8964  135.3027  155.3448 H   0  0  0  0  0  0  0  0  0  0  0  0  # atno 10763 bound_to 10752
  154.7692  135.4895  153.9617 H   0  0  0  0  0  0  0  0  0  0  0  0  # atno 10764 bound_to 10752
  153.1269  135.6795  153.9341 H   0  0  0  0  0  0  0  0  0  0  0  0  # atno 10765 bound_to 10752
  140.7130  134.3811  157.5195 H   0  0  0  0  0  0  0  0  0  0  0  0  # atno 11005 bound_to 11000
  145.7091  139.1680  143.2549 LP  0  0  0  0  0  0  0  0  0  0  0  0  # atno 17320 bound_to 7965
  146.1360  140.7122  142.9389 LP  0  0  0  0  0  0  0  0  0  0  0  0  # atno 17321 bound_to 7965
  139.9099  143.6733  152.3117 LP  0  0  0  0  0  0  0  0  0  0  0  0  # atno 17342 bound_to 10162
  139.7112  144.7620  151.1109 LP  0  0  0  0  0  0  0  0  0  0  0  0  # atno 17343 bound_to 10162
  156.7475  130.4758  149.5464 LP  0  0  0  0  0  0  0  0  0  0  0  0  # atno 17370 bound_to 10713
  156.1500  130.6303  151.0582 LP  0  0  0  0  0  0  0  0  0  0  0  0  # atno 17371 bound_to 10713
  139.8867  134.8903  156.2572 LP  0  0  0  0  0  0  0  0  0  0  0  0  # atno 17394 bound_to 11000
  141.0068  133.7119  156.1047 LP  0  0  0  0  0  0  0  0  0  0  0  0  # atno 17395 bound_to 11000

$$$$
