AV-unprocessed.smi:450|AV-procd|sdf|2607|dock1
  -GOLD-   2262023 03D 1   1.00000     0.00000
 Structure written by MMmdl.
 32 32  0  0  0  0  0  0  0  0  1 V2000
  153.0646  141.6673  160.7498 C   0  0  0  0  0  0  0  0  0  0  0  0
  152.7384  143.1490  160.9868 C   0  0  0  0  0  0  0  0  0  0  0  0
  152.2431  143.8875  159.7282 C   0  0  2  0  0  0  0  0  0  0  0  0
  151.7004  145.2833  160.0654 C   0  0  0  0  0  0  0  0  0  0  0  0
  151.1987  143.1146  159.0576 N   0  0  0  0  0  0  0  0  0  0  0  0
  150.9974  143.0420  157.7327 C   0  0  0  0  0  0  0  0  0  0  0  0
  151.6884  143.6409  156.9071 O   0  0  0  0  0  0  0  0  0  0  0  0
  149.8348  142.1454  157.2900 C   0  0  0  0  0  0  0  0  0  0  0  0
  150.1905  141.2635  156.1791 N   0  0  0  0  0  0  0  0  0  0  0  0
  149.9515  141.4426  154.8641 C   0  0  0  0  0  0  0  0  0  0  0  0
  149.2929  142.5738  154.4049 N   0  0  0  0  0  0  0  0  0  0  0  0
  150.3914  140.4575  154.0860 N   0  0  0  0  0  0  0  0  0  0  0  0
  150.9664  139.5359  154.9588 C   0  0  0  0  0  0  0  0  0  0  0  0
  151.5515  138.3234  154.4949 C   0  0  0  0  0  0  0  0  0  0  0  0
  152.0277  137.3376  154.1209 N   0  0  0  0  0  0  0  0  0  0  0  0
  150.8389  140.0321  156.2384 C   0  0  0  0  0  0  0  0  0  0  0  0
  151.2784  139.4099  157.4261 C   0  0  0  0  0  0  0  0  0  0  0  0
  151.6379  138.8987  158.3995 N   0  0  0  0  0  0  0  0  0  0  0  0
  153.4672  141.2110  161.6542 H   0  0  0  0  0  0  0  0  0  0  0  0
  153.8069  141.5495  159.9599 H   0  0  0  0  0  0  0  0  0  0  0  0
  152.1778  141.1012  160.4642 H   0  0  0  0  0  0  0  0  0  0  0  0
  151.9954  143.2312  161.7811 H   0  0  0  0  0  0  0  0  0  0  0  0
  153.6353  143.6448  161.3599 H   0  0  0  0  0  0  0  0  0  0  0  0
  153.0974  144.0245  159.0631 H   0  0  0  0  0  0  0  0  0  0  0  0
  152.4642  145.8955  160.5455 H   0  0  0  0  0  0  0  0  0  0  0  0
  150.8465  145.2261  160.7413 H   0  0  0  0  0  0  0  0  0  0  0  0
  151.3781  145.8073  159.1649 H   0  0  0  0  0  0  0  0  0  0  0  0
  150.5791  142.5860  159.6546 H   0  0  0  0  0  0  0  0  0  0  0  0
  149.4988  141.5423  158.1342 H   0  0  0  0  0  0  0  0  0  0  0  0
  148.9872  142.7668  156.9995 H   0  0  0  0  0  0  0  0  0  0  0  0
  148.9762  143.2906  155.0419 H   0  0  0  0  0  0  0  0  0  0  0  0
  149.1477  142.7390  153.4195 H   0  0  0  0  0  0  0  0  0  0  0  0
  1  2  1  0  0  0  0
  1 19  1  0  0  0  0
  1 20  1  0  0  0  0
  1 21  1  0  0  0  0
  2  3  1  0  0  0  0
  2 22  1  0  0  0  0
  2 23  1  0  0  0  0
  3  4  1  0  0  0  0
  3  5  1  0  0  0  0
  3 24  1  0  0  0  0
  4 25  1  0  0  0  0
  4 26  1  0  0  0  0
  4 27  1  0  0  0  0
  5  6  1  0  0  0  0
  5 28  1  0  0  0  0
  6  7  2  0  0  0  0
  6  8  1  0  0  0  0
  8  9  1  0  0  0  0
  8 29  1  0  0  0  0
  8 30  1  0  0  0  0
  9 16  1  0  0  0  0
  9 10  1  0  0  0  0
 10 11  1  0  0  0  0
 10 12  2  0  0  0  0
 11 31  1  0  0  0  0
 11 32  1  0  0  0  0
 12 13  1  0  0  0  0
 13 14  1  0  0  0  0
 13 16  2  0  0  0  0
 14 15  3  0  0  0  0
 16 17  1  0  0  0  0
 17 18  3  0  0  0  0
M  END
> <s_m_source_file>
AV-unprocessed.smi

> <i_m_source_file_index>
450

> <i_lp_mmshare_version>
43012

> <i_f3d_flags>
0

> <s_epik_input>
W0NIM11bQ0gyXVtDQEhdKFtDSDNdKVtOSF1DKD1PKVtDSDJdbjFjKFtOSDJdKW5jKEMjTiljMUMjTg==

> <s_epik_cmdline>
J2VwaWtfcHl0aG9uJywgJy1waCcsICc3LjAnLCAnLXRuJywgJzgnLCAnLW1hJywgJzIwMCcsICctbWV0YWxfYmluZGluZycsICctaW1hZScsICc8aW5maWxlLm1hZT4nLCAnLW9tYWUnLCAnPG91dGZpbGUubWFlPic=

> <r_epik_Ionization_Penalty>
0.000482749

> <r_epik_Ionization_Penalty_Charging>
7.71074e-10

> <r_epik_Ionization_Penalty_Neutral>
0.000482748

> <r_epik_State_Penalty>
0.000433536

> <r_epik_Charging_Adjusted_Penalty>
0.000433537

> <i_epik_Tot_Q>
0

> <i_epik_Tot_abs_Q>
0

> <r_epik_Metal_State_Penalty>
-0

> <b_epik_Metal_Only>
0

> <s_lp_Force_Field>
OPLS_2005

> <r_lp_Energy>
6.35239

> <b_lp_Chiralities_Consistent>
1

> <s_lp_Variant>
AV-unprocessed.smi:450-1

> <Gold.Version>
5.8.1

> <Gold.Id.Protein>
6NUR|6NUR_protein|mol2

> <Gold.PLP.Fitness>
42.8404

> <Gold.PLP.PLP>
-36.6878

> <Gold.PLP.part.hbond>
-3.0000

> <Gold.PLP.part.metal>
0.0000

> <Gold.PLP.part.buried>
-5.8860

> <Gold.PLP.part.nonpolar>
-30.2126

> <Gold.PLP.part.repulsive>
1.8174

> <Gold.PLP.ligand.clash>
0.0000

> <Gold.PLP.ligand.torsion>
0.9171

> <Gold.PLP.Chemscore.Hbond>
2.6480

> <Gold.PLP.Chemscore.CHOScore>
0.0000

> <Gold.PLP.Chemscore.Metal>
0.0000

> <Gold.Chemscore.Hbonds>
donor molecule, donor type, donor heavy atom, donor atom, acceptor molecule, acceptor atom, score
      L1  H    11    31       P1  8028  1.00
      P1  H  7989  7998       L1    12  0.56
      P1  H 10752 10763       L1    15  0.94

> <Gold.PLP.Chemscore.Internal.Correction>
0.0428

> <Gold.Rescore>
     Score         DG    S(hbond)    S(metal)    S(lipo)     H(rot)  DE(clash)    DE(int)     intcor
     13.56     -14.84       2.40        0.00      59.95       2.21       0.12       1.16       ----

> <Gold.Chemscore.Fitness>
13.5554

> <Gold.Chemscore.DG>
-14.8379

> <Gold.Chemscore.ZeroCoef>
-5.4800

> <Gold.Chemscore.Hbond>
2.3972

> <Gold.Chemscore.Metal>
0.0000

> <Gold.Chemscore.Lipo>
59.9497

> <Gold.Chemscore.Internal_Hbond>
0.0000

> <Gold.Chemscore.DEClash>
0.1191

> <Gold.Chemscore.DEInternal>
1.1635

> <Gold.Chemscore.Rot>
2.2121

> <Gold.Chemscore.Internal.Correction>
   9.000000E+99

> <Gold.Chemscore.Hbonds>
donor molecule, donor type, donor heavy atom, donor atom, acceptor molecule, acceptor atom, score
      L1  H    11    31       P1  8028  0.93
      P1  H  7989  7998       L1    12  0.06
      P1  H 10752 10763       L1    15  0.91

> <Gold.Chemscore.Hbond.Weighted>
-8.0067

> <Gold.Chemscore.Metal.Weighted>
-0.0000

> <Gold.Chemscore.Lipo.Weighted>
-7.0141

> <Gold.Chemscore.Internal_Hbond.Weighted>
0.0000

> <Gold.Chemscore.DEClash.Weighted>
0.1191

> <Gold.Chemscore.DEInternal.Weighted>
1.1635

> <Gold.Chemscore.Rot.Weighted>
5.6629

> <Gold.Chemscore.Internal.Correction.Weighted>
   9.000000E+99

> <Gold.Protein.RotatedTorsions>
[ 6907 6896 6895 6894 ] final -143.81 input  -60.11 | X-H torsion
[ 7974 7965 7964 7962 ] final  110.36 input  175.53 | X-H torsion
[ 8008 7997 7996 7995 ] final  -50.65 input   59.86 | X-H torsion
[ 10167 10162 10161 10158 ] final  155.76 input  -65.29 | X-H torsion
[ 10718 10713 10712 10709 ] final -177.42 input   66.30 | X-H torsion
[ 10763 10752 10751 10750 ] final   32.05 input  -60.55 | X-H torsion
[ 11005 11000 10999 10996 ] final  -80.95 input  -57.11 | X-H torsion

> <Gold.Protein.ActiveResidues>
 VAL166  LYS551  ARG553  GLY616  TRP617  ASP618  TYR619  PRO620  LYS621  CYS622 
 ASP623  PHE694  ASN695  SER759  ASP760  ASP761  ALA762  ILE779  LEU786  VAL792 
 PHE793  MET794  SER795  GLU796  ALA797  LYS798  CYS799  TRP800  GLU811  SER814 

> <Gold.Protein.RotatedAtoms>
  151.1055  133.5212  159.2607 H   0  0  0  0  0  0  0  0  0  0  0  0  # atno 6907 bound_to 6896
  151.2026  135.0448  159.8888 H   0  0  0  0  0  0  0  0  0  0  0  0  # atno 6908 bound_to 6896
  152.5446  134.0881  159.8318 H   0  0  0  0  0  0  0  0  0  0  0  0  # atno 6909 bound_to 6896
  145.2559  139.2721  143.4042 H   0  0  0  0  0  0  0  0  0  0  0  0  # atno 7974 bound_to 7965
  154.4066  140.1267  156.4701 H   0  0  0  0  0  0  0  0  0  0  0  0  # atno 8008 bound_to 7997
  155.7188  140.3493  155.4987 H   0  0  0  0  0  0  0  0  0  0  0  0  # atno 8009 bound_to 7997
  155.9234  140.1056  157.1179 H   0  0  0  0  0  0  0  0  0  0  0  0  # atno 8010 bound_to 7997
  139.4821  144.5070  151.8083 H   0  0  0  0  0  0  0  0  0  0  0  0  # atno 10167 bound_to 10162
  156.8292  130.9647  151.3107 H   0  0  0  0  0  0  0  0  0  0  0  0  # atno 10718 bound_to 10713
  153.0283  135.6423  154.1295 H   0  0  0  0  0  0  0  0  0  0  0  0  # atno 10763 bound_to 10752
  154.1020  135.2859  155.3251 H   0  0  0  0  0  0  0  0  0  0  0  0  # atno 10764 bound_to 10752
  154.6391  135.5466  153.7832 H   0  0  0  0  0  0  0  0  0  0  0  0  # atno 10765 bound_to 10752
  141.1667  133.7174  156.8350 H   0  0  0  0  0  0  0  0  0  0  0  0  # atno 11005 bound_to 11000
  146.3289  140.2963  142.8618 LP  0  0  0  0  0  0  0  0  0  0  0  0  # atno 17320 bound_to 7965
  144.9461  140.8130  143.5600 LP  0  0  0  0  0  0  0  0  0  0  0  0  # atno 17321 bound_to 7965
  140.4569  144.1777  150.5902 LP  0  0  0  0  0  0  0  0  0  0  0  0  # atno 17342 bound_to 10162
  140.4526  143.2480  151.9327 LP  0  0  0  0  0  0  0  0  0  0  0  0  # atno 17343 bound_to 10162
  157.6416  130.8810  149.9459 LP  0  0  0  0  0  0  0  0  0  0  0  0  # atno 17370 bound_to 10713
  156.0944  130.3660  150.0334 LP  0  0  0  0  0  0  0  0  0  0  0  0  # atno 17371 bound_to 10713
  140.2024  134.8887  157.3184 LP  0  0  0  0  0  0  0  0  0  0  0  0  # atno 17394 bound_to 11000
  140.2173  134.4066  155.7583 LP  0  0  0  0  0  0  0  0  0  0  0  0  # atno 17395 bound_to 11000

$$$$
