AV-unprocessed.smi:3228|AV-procd|sdf|12324|dock8
  -GOLD-   2272018173D 1   1.00000     0.00000
 Structure written by MMmdl.
 30 31  0  0  0  0  0  0  0  0  2 V2000
  151.0824  140.6093  155.2059 O   0  0  0  0  0  0  0  0  0  0  0  0
  150.2691  141.4016  155.6871 C   0  0  0  0  0  0  0  0  0  0  0  0
  150.5240  141.9833  156.8664 N   0  0  0  0  0  0  0  0  0  0  0  0
  151.7177  141.7589  157.6722 C   0  0  0  0  0  0  0  0  0  0  0  0
  151.6280  142.5109  159.0136 C   0  0  1  0  0  0  0  0  0  0  0  0
  152.7607  142.2124  160.0050 C   0  0  0  0  0  0  0  0  0  0  0  0
  152.8081  143.4161  160.9587 C   0  0  0  0  0  0  0  0  0  0  0  0
  151.9076  144.4996  160.3439 C   0  0  0  0  0  0  0  0  0  0  0  0
  151.6149  144.0430  158.9106 C   0  0  1  0  0  0  0  0  0  0  0  0
  152.6421  144.5166  158.0592 O   0  0  0  0  0  0  0  0  0  0  0  0
  149.0889  141.7719  155.1399 N   0  5  0  0  0  0  0  0  0  0  0  0
  148.4561  140.9495  154.2874 C   0  0  0  0  0  0  0  0  0  0  0  0
  147.3983  141.3264  153.5598 N   0  0  0  0  0  0  0  0  0  0  0  0
  146.8931  140.3103  152.7466 C   0  0  0  0  0  0  0  0  0  0  0  0
  147.5769  139.1295  152.8639 C   0  0  0  0  0  0  0  0  0  0  0  0
  148.8834  139.2591  154.0068 S   0  0  0  0  0  0  0  0  0  0  0  0
  149.8355  142.6257  157.2300 H   0  0  0  0  0  0  0  0  0  0  0  0
  151.8349  140.6871  157.8386 H   0  0  0  0  0  0  0  0  0  0  0  0
  152.5942  142.0969  157.1173 H   0  0  0  0  0  0  0  0  0  0  0  0
  150.6925  142.2196  159.4951 H   0  0  0  0  0  0  0  0  0  0  0  0
  152.6055  141.2720  160.5348 H   0  0  0  0  0  0  0  0  0  0  0  0
  153.7100  142.1337  159.4732 H   0  0  0  0  0  0  0  0  0  0  0  0
  152.4552  143.1458  161.9545 H   0  0  0  0  0  0  0  0  0  0  0  0
  153.8329  143.7738  161.0631 H   0  0  0  0  0  0  0  0  0  0  0  0
  150.9713  144.5403  160.9021 H   0  0  0  0  0  0  0  0  0  0  0  0
  152.3524  145.4945  160.3928 H   0  0  0  0  0  0  0  0  0  0  0  0
  150.6570  144.4196  158.5505 H   0  0  0  0  0  0  0  0  0  0  0  0
  153.1489  143.7763  157.7619 H   0  0  0  0  0  0  0  0  0  0  0  0
  146.0414  140.5159  152.1157 H   0  0  0  0  0  0  0  0  0  0  0  0
  147.3933  138.1967  152.3528 H   0  0  0  0  0  0  0  0  0  0  0  0
  1  2  2  0  0  0  0
  2  3  1  0  0  0  0
  2 11  1  0  0  0  0
  3  4  1  0  0  0  0
  3 17  1  0  0  0  0
  4  5  1  0  0  0  0
  4 18  1  0  0  0  0
  4 19  1  0  0  0  0
  5  9  1  0  0  0  0
  5  6  1  0  0  0  0
  5 20  1  0  0  0  0
  6  7  1  0  0  0  0
  6 21  1  0  0  0  0
  6 22  1  0  0  0  0
  7  8  1  0  0  0  0
  7 23  1  0  0  0  0
  7 24  1  0  0  0  0
  8  9  1  0  0  0  0
  8 25  1  0  0  0  0
  8 26  1  0  0  0  0
  9 10  1  0  0  0  0
  9 27  1  0  0  0  0
 10 28  1  0  0  0  0
 11 12  1  0  0  0  0
 12 16  1  0  0  0  0
 12 13  2  0  0  0  0
 13 14  1  0  0  0  0
 14 15  2  0  0  0  0
 14 29  1  0  0  0  0
 15 16  1  0  0  0  0
 15 30  1  0  0  0  0
M  CHG  1  11  -1
M  END
> <s_m_source_file>
AV-unprocessed.smi

> <i_m_source_file_index>
3228

> <i_lp_mmshare_version>
43012

> <i_f3d_flags>
0

> <s_epik_input>
czFbY0hdW2NIXW5jMVtOSF1DKD1PKVtOSF1bQ0gyXVtDQEBIXTJbQ0gyXVtDSDJdW0NIMl1bQ0BIXTJbT0hd

> <s_epik_cmdline>
J2VwaWtfcHl0aG9uJywgJy1waCcsICc3LjAnLCAnLXRuJywgJzgnLCAnLW1hJywgJzIwMCcsICctbWV0YWxfYmluZGluZycsICctaW1hZScsICc8aW5maWxlLm1hZT4nLCAnLW9tYWUnLCAnPG91dGZpbGUubWFlPic=

> <r_lp_tautomer_probability>
0.999

> <r_epik_Ionization_Penalty>
8.49756

> <r_epik_Ionization_Penalty_Charging>
6.79645

> <r_epik_Ionization_Penalty_Neutral>
1.70111

> <r_epik_State_Penalty>
6.79662

> <r_epik_Charging_Adjusted_Penalty>
13.5931

> <i_epik_Tot_Q>
-1

> <i_epik_Tot_abs_Q>
1

> <r_epik_Metal_State_Penalty>
2.71629

> <b_epik_Metal_Only>
1

> <s_lp_Force_Field>
OPLS_2005

> <r_lp_Energy>
20.5315

> <b_lp_Chiralities_Consistent>
1

> <s_lp_Variant>
AV-unprocessed.smi:3228-6

> <Gold.Version>
5.8.1

> <Gold.Id.Protein>
6NUR|6NUR_protein|mol2

> <Gold.PLP.Fitness>
40.5441

> <Gold.PLP.PLP>
-32.1177

> <Gold.PLP.part.hbond>
-1.0000

> <Gold.PLP.part.metal>
0.0000

> <Gold.PLP.part.buried>
-3.5530

> <Gold.PLP.part.nonpolar>
-28.0515

> <Gold.PLP.part.repulsive>
0.8184

> <Gold.PLP.ligand.clash>
0.0000

> <Gold.PLP.ligand.torsion>
0.1970

> <Gold.PLP.Chemscore.Hbond>
0.9600

> <Gold.PLP.Chemscore.CHOScore>
1.9792

> <Gold.PLP.Chemscore.Metal>
0.0000

> <Gold.Chemscore.Hbonds>
donor molecule, donor type, donor heavy atom, donor atom, acceptor molecule, acceptor atom, score
      P1  H  7989  7998       L1     1  0.91
      L1  C    14    29       P1 10175  0.95
      L1  C    15    30       P1  7948  0.99

> <Gold.PLP.Chemscore.Internal.Correction>
0.0029

> <Gold.Rescore>
     Score         DG    S(hbond)    S(metal)    S(lipo)     H(rot)  DE(clash)    DE(int)     intcor
     11.64     -13.40       0.92        0.00      81.93       1.85       0.20       1.55       ----

> <Gold.Chemscore.Fitness>
11.6418

> <Gold.Chemscore.DG>
-13.3980

> <Gold.Chemscore.ZeroCoef>
-5.4800

> <Gold.Chemscore.Hbond>
0.9172

> <Gold.Chemscore.Metal>
0.0000

> <Gold.Chemscore.Lipo>
81.9289

> <Gold.Chemscore.Internal_Hbond>
0.0000

> <Gold.Chemscore.DEClash>
0.2025

> <Gold.Chemscore.DEInternal>
1.5537

> <Gold.Chemscore.Rot>
1.8481

> <Gold.Chemscore.Internal.Correction>
   9.000000E+99

> <Gold.Chemscore.Hbonds>
donor molecule, donor type, donor heavy atom, donor atom, acceptor molecule, acceptor atom, score
      P1  H  7989  7998       L1     1  0.84

> <Gold.Chemscore.Hbond.Weighted>
-3.0636

> <Gold.Chemscore.Metal.Weighted>
-0.0000

> <Gold.Chemscore.Lipo.Weighted>
-9.5857

> <Gold.Chemscore.Internal_Hbond.Weighted>
0.0000

> <Gold.Chemscore.DEClash.Weighted>
0.2025

> <Gold.Chemscore.DEInternal.Weighted>
1.5537

> <Gold.Chemscore.Rot.Weighted>
4.7313

> <Gold.Chemscore.Internal.Correction.Weighted>
   9.000000E+99

> <Gold.Protein.RotatedTorsions>
[ 6907 6896 6895 6894 ] final    4.68 input  -60.11 | X-H torsion
[ 7974 7965 7964 7962 ] final  117.73 input  175.53 | X-H torsion
[ 8008 7997 7996 7995 ] final   71.86 input   59.86 | X-H torsion
[ 10167 10162 10161 10158 ] final  -96.42 input  -65.29 | X-H torsion
[ 10718 10713 10712 10709 ] final  129.31 input   66.30 | X-H torsion
[ 10763 10752 10751 10750 ] final   52.52 input  -60.55 | X-H torsion
[ 11005 11000 10999 10996 ] final  -49.03 input  -57.11 | X-H torsion

> <Gold.Protein.ActiveResidues>
 VAL166  LYS551  ARG553  GLY616  TRP617  ASP618  TYR619  PRO620  LYS621  CYS622 
 ASP623  PHE694  ASN695  SER759  ASP760  ASP761  ALA762  ILE779  LEU786  VAL792 
 PHE793  MET794  SER795  GLU796  ALA797  LYS798  CYS799  TRP800  GLU811  SER814 

> <Gold.Protein.RotatedAtoms>
  151.6452  135.1008  160.0149 H   0  0  0  0  0  0  0  0  0  0  0  0  # atno 6907 bound_to 6896
  152.4032  133.6844  159.6342 H   0  0  0  0  0  0  0  0  0  0  0  0  # atno 6908 bound_to 6896
  150.7929  133.8672  159.3289 H   0  0  0  0  0  0  0  0  0  0  0  0  # atno 6909 bound_to 6896
  145.1638  139.3140  143.4503 H   0  0  0  0  0  0  0  0  0  0  0  0  # atno 7974 bound_to 7965
  155.7601  140.3487  155.5194 H   0  0  0  0  0  0  0  0  0  0  0  0  # atno 8008 bound_to 7997
  155.8922  140.1020  157.1431 H   0  0  0  0  0  0  0  0  0  0  0  0  # atno 8009 bound_to 7997
  154.4034  140.1302  156.4317 H   0  0  0  0  0  0  0  0  0  0  0  0  # atno 8010 bound_to 7997
  140.2940  143.3204  152.0317 H   0  0  0  0  0  0  0  0  0  0  0  0  # atno 10167 bound_to 10162
  157.5166  131.1097  150.9215 H   0  0  0  0  0  0  0  0  0  0  0  0  # atno 10718 bound_to 10713
  152.9789  135.5809  154.4593 H   0  0  0  0  0  0  0  0  0  0  0  0  # atno 10763 bound_to 10752
  154.4171  135.2771  155.2001 H   0  0  0  0  0  0  0  0  0  0  0  0  # atno 10764 bound_to 10752
  154.3766  135.6156  153.5822 H   0  0  0  0  0  0  0  0  0  0  0  0  # atno 10765 bound_to 10752
  141.0736  133.6672  156.3527 H   0  0  0  0  0  0  0  0  0  0  0  0  # atno 11005 bound_to 11000
  146.3478  140.1759  142.8589 LP  0  0  0  0  0  0  0  0  0  0  0  0  # atno 17320 bound_to 7965
  145.0303  140.8865  143.5113 LP  0  0  0  0  0  0  0  0  0  0  0  0  # atno 17321 bound_to 7965
  139.4931  144.6504  151.6687 LP  0  0  0  0  0  0  0  0  0  0  0  0  # atno 17342 bound_to 10162
  140.5708  144.0112  150.6216 LP  0  0  0  0  0  0  0  0  0  0  0  0  # atno 17343 bound_to 10162
  156.9839  130.5537  149.5298 LP  0  0  0  0  0  0  0  0  0  0  0  0  # atno 17370 bound_to 10713
  156.0324  130.5415  150.8569 LP  0  0  0  0  0  0  0  0  0  0  0  0  # atno 17371 bound_to 10713
  140.5622  134.5923  157.5436 LP  0  0  0  0  0  0  0  0  0  0  0  0  # atno 17394 bound_to 11000
  139.9548  134.7554  156.0366 LP  0  0  0  0  0  0  0  0  0  0  0  0  # atno 17395 bound_to 11000

$$$$
