AV-unprocessed.smi:188|AV-procd|sdf|1472|dock2
  -GOLD-   2262019293D 1   1.00000     0.00000
 Structure written by MMmdl.
 49 53  0  0  0  0  0  0  0  0  1 V2000
  143.3387  132.0846  147.8462 O   0  0  0  0  0  0  0  0  0  0  0  0
  143.5817  132.5796  148.9442 C   0  0  0  0  0  0  0  0  0  0  0  0
  142.8875  132.3800  150.0682 N   0  0  0  0  0  0  0  0  0  0  0  0
  143.3889  133.0505  151.1037 C   0  0  0  0  0  0  0  0  0  0  0  0
  142.9524  133.0508  152.2535 O   0  0  0  0  0  0  0  0  0  0  0  0
  144.6113  133.8303  150.6203 C   0  0  0  0  0  0  0  0  0  0  0  0
  145.9250  133.3893  151.3066 C   0  0  0  0  0  0  0  0  0  0  0  0
  146.0494  133.9316  152.7429 C   0  0  0  0  0  0  0  0  0  0  0  0
  145.8518  135.3807  152.7770 N   0  0  0  0  0  0  0  0  0  0  0  0
  146.2741  135.9784  153.9205 C   0  0  0  0  0  0  0  0  0  0  0  0
  146.5424  135.2258  155.0214 N   0  0  0  0  0  0  0  0  0  0  0  0
  146.9724  135.8036  156.1467 C   0  0  0  0  0  0  0  0  0  0  0  0
  147.1948  137.0966  156.3880 N   0  0  0  0  0  0  0  0  0  0  0  0
  146.9151  137.8601  155.2937 C   0  0  0  0  0  0  0  0  0  0  0  0
  146.4579  137.3860  154.0309 C   0  0  0  0  0  0  0  0  0  0  0  0
  146.2777  138.4558  153.1620 N   0  0  0  0  0  0  0  0  0  0  0  0
  146.6184  139.4998  153.8667 C   0  0  0  0  0  0  0  0  0  0  0  0
  147.0048  139.2353  155.1617 N   0  0  0  0  0  0  0  0  0  0  0  0
  147.4270  140.2106  156.1565 C   0  0  0  0  0  0  0  0  0  0  0  0
  148.7559  140.9220  155.8245 C   0  0  0  0  0  0  0  0  0  0  0  0
  149.1724  141.8677  156.9650 C   0  0  0  0  0  0  0  0  0  0  0  0
  150.1532  142.7914  156.5371 O   0  0  0  0  0  0  0  0  0  0  0  0
  149.8880  140.0252  155.3021 C   0  0  0  0  0  0  0  0  0  0  0  0
  150.1217  140.8871  154.1687 O   0  0  0  0  0  0  0  0  0  0  0  0
  148.8539  141.5299  154.4181 C   0  0  0  0  0  0  0  0  0  0  0  0
  144.5956  135.8545  152.1926 C   0  0  0  0  0  0  0  0  0  0  0  0
  144.4405  135.3619  150.7421 C   0  0  0  0  0  0  0  0  0  0  0  0
  144.5900  133.4155  149.2260 N   0  0  0  0  0  0  0  0  0  0  0  0
  142.0728  131.7865  150.1263 H   0  0  0  0  0  0  0  0  0  0  0  0
  146.0056  132.3013  151.3204 H   0  0  0  0  0  0  0  0  0  0  0  0
  146.7736  133.7461  150.7210 H   0  0  0  0  0  0  0  0  0  0  0  0
  145.3104  133.4614  153.3923 H   0  0  0  0  0  0  0  0  0  0  0  0
  147.0250  133.6556  153.1417 H   0  0  0  0  0  0  0  0  0  0  0  0
  147.1653  135.1337  156.9715 H   0  0  0  0  0  0  0  0  0  0  0  0
  146.5878  140.5007  153.4611 H   0  0  0  0  0  0  0  0  0  0  0  0
  146.6217  140.9370  156.2723 H   0  0  0  0  0  0  0  0  0  0  0  0
  147.4991  139.7033  157.1193 H   0  0  0  0  0  0  0  0  0  0  0  0
  148.3194  142.4117  157.3708 H   0  0  0  0  0  0  0  0  0  0  0  0
  149.5898  141.3012  157.7982 H   0  0  0  0  0  0  0  0  0  0  0  0
  149.7211  143.5940  156.2873 H   0  0  0  0  0  0  0  0  0  0  0  0
  150.7489  139.9591  155.9684 H   0  0  0  0  0  0  0  0  0  0  0  0
  149.5644  139.0331  154.9845 H   0  0  0  0  0  0  0  0  0  0  0  0
  148.0820  141.1816  153.7298 H   0  0  0  0  0  0  0  0  0  0  0  0
  148.9247  142.6181  154.4055 H   0  0  0  0  0  0  0  0  0  0  0  0
  143.7597  135.5103  152.8024 H   0  0  0  0  0  0  0  0  0  0  0  0
  144.5689  136.9451  152.2038 H   0  0  0  0  0  0  0  0  0  0  0  0
  145.1869  135.8574  150.1194 H   0  0  0  0  0  0  0  0  0  0  0  0
  143.4699  135.6740  150.3537 H   0  0  0  0  0  0  0  0  0  0  0  0
  145.2708  133.7330  148.5512 H   0  0  0  0  0  0  0  0  0  0  0  0
  1  2  2  0  0  0  0
  2 28  1  0  0  0  0
  2  3  1  0  0  0  0
  3  4  1  0  0  0  0
  3 29  1  0  0  0  0
  4  5  2  0  0  0  0
  4  6  1  0  0  0  0
  6 27  1  0  0  0  0
  6  7  1  0  0  0  0
  6 28  1  0  0  0  0
  7  8  1  0  0  0  0
  7 30  1  0  0  0  0
  7 31  1  0  0  0  0
  8  9  1  0  0  0  0
  8 32  1  0  0  0  0
  8 33  1  0  0  0  0
  9 10  1  0  0  0  0
  9 26  1  0  0  0  0
 10 15  1  0  0  0  0
 10 11  2  0  0  0  0
 11 12  1  0  0  0  0
 12 13  2  0  0  0  0
 12 34  1  0  0  0  0
 13 14  1  0  0  0  0
 14 18  1  0  0  0  0
 14 15  2  0  0  0  0
 15 16  1  0  0  0  0
 16 17  2  0  0  0  0
 17 18  1  0  0  0  0
 17 35  1  0  0  0  0
 18 19  1  0  0  0  0
 19 20  1  0  0  0  0
 19 36  1  0  0  0  0
 19 37  1  0  0  0  0
 20 25  1  0  0  0  0
 20 21  1  0  0  0  0
 20 23  1  0  0  0  0
 21 22  1  0  0  0  0
 21 38  1  0  0  0  0
 21 39  1  0  0  0  0
 22 40  1  0  0  0  0
 23 24  1  0  0  0  0
 23 41  1  0  0  0  0
 23 42  1  0  0  0  0
 24 25  1  0  0  0  0
 25 43  1  0  0  0  0
 25 44  1  0  0  0  0
 26 27  1  0  0  0  0
 26 45  1  0  0  0  0
 26 46  1  0  0  0  0
 27 47  1  0  0  0  0
 27 48  1  0  0  0  0
 28 49  1  0  0  0  0
M  END
> <s_m_source_file>
AV-unprocessed.smi

> <i_m_source_file_index>
188

> <i_lp_mmshare_version>
43012

> <i_f3d_flags>
0

> <s_epik_input>
Tz1DKFtOSF0xKVtOSF1DKD1PKUMxMltDSDJdW0NIMl1OKFtDSDJdW0NIMl0yKWMobltjSF1uMyljKGMzNCluW2NIXW40W0NIMl1DNShbQ0gyXVtPSF0pW0NIMl1PW0NIMl01

> <s_epik_cmdline>
J2VwaWtfcHl0aG9uJywgJy1waCcsICc3LjAnLCAnLXRuJywgJzgnLCAnLW1hJywgJzIwMCcsICctbWV0YWxfYmluZGluZycsICctaW1hZScsICc8aW5maWxlLm1hZT4nLCAnLW9tYWUnLCAnPG91dGZpbGUubWFlPic=

> <r_lp_tautomer_probability>
1

> <r_epik_Ionization_Penalty>
0.00868263

> <r_epik_Ionization_Penalty_Charging>
0

> <r_epik_Ionization_Penalty_Neutral>
0.00868263

> <r_epik_State_Penalty>
0.00519311

> <r_epik_Charging_Adjusted_Penalty>
0.00519311

> <i_epik_Tot_Q>
0

> <i_epik_Tot_abs_Q>
0

> <r_epik_Metal_State_Penalty>
0.404007

> <b_epik_Metal_Only>
0

> <s_lp_Force_Field>
OPLS_2005

> <r_lp_Energy>
48.5208

> <b_lp_Chiralities_Consistent>
1

> <s_lp_Variant>
AV-unprocessed.smi:188-1

> <Gold.Version>
5.8.1

> <Gold.Id.Protein>
6NUR|6NUR_protein|mol2

> <Gold.PLP.Fitness>
42.0630

> <Gold.PLP.PLP>
-30.6165

> <Gold.PLP.part.hbond>
-6.1701

> <Gold.PLP.part.metal>
0.0000

> <Gold.PLP.part.buried>
-4.5434

> <Gold.PLP.part.nonpolar>
-23.8114

> <Gold.PLP.part.repulsive>
2.1590

> <Gold.PLP.ligand.clash>
0.0000

> <Gold.PLP.ligand.torsion>
0.5977

> <Gold.PLP.Chemscore.Hbond>
3.9709

> <Gold.PLP.Chemscore.CHOScore>
0.0000

> <Gold.PLP.Chemscore.Metal>
0.0000

> <Gold.Chemscore.Hbonds>
donor molecule, donor type, donor heavy atom, donor atom, acceptor molecule, acceptor atom, score
      L1  H     3    29       P1 10952  1.00
      L1  H    22    40       P1  8028  1.00
      L1  H    28    49       P1  7921  1.00
      P1  H  7989  7998       L1    24  0.61
      P1  H 10785 10796       L1     1  0.22

> <Gold.PLP.Chemscore.Internal.Correction>
0.7293

> <Gold.Rescore>
     Score         DG    S(hbond)    S(metal)    S(lipo)     H(rot)  DE(clash)    DE(int)     intcor
     11.01     -13.36       2.78        0.00      50.95       2.88       0.86       1.49       ----

> <Gold.Chemscore.Fitness>
11.0141

> <Gold.Chemscore.DG>
-13.3597

> <Gold.Chemscore.ZeroCoef>
-5.4800

> <Gold.Chemscore.Hbond>
2.7795

> <Gold.Chemscore.Metal>
0.0000

> <Gold.Chemscore.Lipo>
50.9513

> <Gold.Chemscore.Internal_Hbond>
0.0000

> <Gold.Chemscore.DEClash>
0.8583

> <Gold.Chemscore.DEInternal>
1.4873

> <Gold.Chemscore.Rot>
2.8770

> <Gold.Chemscore.Internal.Correction>
   9.000000E+99

> <Gold.Chemscore.Hbonds>
donor molecule, donor type, donor heavy atom, donor atom, acceptor molecule, acceptor atom, score
      L1  H     3    29       P1 10952  0.79
      L1  H    22    40       P1  8028  0.93
      L1  H    28    49       P1  7921  0.74
      P1  H  7989  7998       L1    24  0.58
      P1  H 10785 10796       L1     1  0.02

> <Gold.Chemscore.Hbond.Weighted>
-9.2835

> <Gold.Chemscore.Metal.Weighted>
-0.0000

> <Gold.Chemscore.Lipo.Weighted>
-5.9613

> <Gold.Chemscore.Internal_Hbond.Weighted>
0.0000

> <Gold.Chemscore.DEClash.Weighted>
0.8583

> <Gold.Chemscore.DEInternal.Weighted>
1.4873

> <Gold.Chemscore.Rot.Weighted>
7.3651

> <Gold.Chemscore.Internal.Correction.Weighted>
   9.000000E+99

> <Gold.Protein.RotatedTorsions>
[ 6907 6896 6895 6894 ] final  154.16 input  -60.11 | X-H torsion
[ 7974 7965 7964 7962 ] final -106.20 input  175.53 | X-H torsion
[ 8008 7997 7996 7995 ] final -167.16 input   59.86 | X-H torsion
[ 10167 10162 10161 10158 ] final  -86.76 input  -65.29 | X-H torsion
[ 10718 10713 10712 10709 ] final  -79.49 input   66.30 | X-H torsion
[ 10763 10752 10751 10750 ] final   81.72 input  -60.55 | X-H torsion
[ 11005 11000 10999 10996 ] final  -52.01 input  -57.11 | X-H torsion

> <Gold.Protein.ActiveResidues>
 VAL166  LYS551  ARG553  GLY616  TRP617  ASP618  TYR619  PRO620  LYS621  CYS622 
 ASP623  PHE694  ASN695  SER759  ASP760  ASP761  ALA762  ILE779  LEU786  VAL792 
 PHE793  MET794  SER795  GLU796  ALA797  LYS798  CYS799  TRP800  GLU811  SER814 

> <Gold.Protein.RotatedAtoms>
  152.0624  133.4068  159.4423 H   0  0  0  0  0  0  0  0  0  0  0  0  # atno 6907 bound_to 6896
  150.6866  134.3185  159.4786 H   0  0  0  0  0  0  0  0  0  0  0  0  # atno 6908 bound_to 6896
  152.1008  134.9343  160.0620 H   0  0  0  0  0  0  0  0  0  0  0  0  # atno 6909 bound_to 6896
  145.2208  140.9133  143.3260 H   0  0  0  0  0  0  0  0  0  0  0  0  # atno 7974 bound_to 7965
  155.8739  140.0998  157.1531 H   0  0  0  0  0  0  0  0  0  0  0  0  # atno 8008 bound_to 7997
  154.3999  140.1342  156.4176 H   0  0  0  0  0  0  0  0  0  0  0  0  # atno 8009 bound_to 7997
  155.7719  140.3460  155.5254 H   0  0  0  0  0  0  0  0  0  0  0  0  # atno 8010 bound_to 7997
  140.3911  143.2704  151.9264 H   0  0  0  0  0  0  0  0  0  0  0  0  # atno 10167 bound_to 10162
  156.0091  130.4547  150.3656 H   0  0  0  0  0  0  0  0  0  0  0  0  # atno 10718 bound_to 10713
  153.1141  135.4755  154.9085 H   0  0  0  0  0  0  0  0  0  0  0  0  # atno 10763 bound_to 10752
  154.7511  135.3106  154.8559 H   0  0  0  0  0  0  0  0  0  0  0  0  # atno 10764 bound_to 10752
  153.9140  135.6862  153.4803 H   0  0  0  0  0  0  0  0  0  0  0  0  # atno 10765 bound_to 10752
  141.0902  133.6634  156.3961 H   0  0  0  0  0  0  0  0  0  0  0  0  # atno 11005 bound_to 11000
  144.9767  139.3825  143.6282 LP  0  0  0  0  0  0  0  0  0  0  0  0  # atno 17320 bound_to 7965
  146.3376  139.8889  142.8812 LP  0  0  0  0  0  0  0  0  0  0  0  0  # atno 17321 bound_to 7965
  139.4789  144.5727  151.8062 LP  0  0  0  0  0  0  0  0  0  0  0  0  # atno 17342 bound_to 10162
  140.4839  144.1409  150.5937 LP  0  0  0  0  0  0  0  0  0  0  0  0  # atno 17343 bound_to 10162
  157.1742  131.0376  151.2780 LP  0  0  0  0  0  0  0  0  0  0  0  0  # atno 17370 bound_to 10713
  157.4202  130.7433  149.6907 LP  0  0  0  0  0  0  0  0  0  0  0  0  # atno 17371 bound_to 10713
  140.5270  134.6249  157.5337 LP  0  0  0  0  0  0  0  0  0  0  0  0  # atno 17394 bound_to 11000
  139.9726  134.7267  156.0011 LP  0  0  0  0  0  0  0  0  0  0  0  0  # atno 17395 bound_to 11000

$$$$
