AV-unprocessed.smi:2958|AV-procd|sdf|11308|dock3
  -GOLD-   2272016203D 1   1.00000     0.00000
 Structure written by MMmdl.
 40 42  0  0  0  0  0  0  0  0  2 V2000
  151.8615  145.0255  159.1090 C   0  0  0  0  0  0  0  0  0  0  0  0
  152.2277  143.5894  159.4220 C   0  0  0  0  0  0  0  0  0  0  0  0
  153.1473  143.2961  160.4489 C   0  0  0  0  0  0  0  0  0  0  0  0
  153.4807  141.9589  160.7318 C   0  0  0  0  0  0  0  0  0  0  0  0
  152.8959  140.9149  159.9904 C   0  0  0  0  0  0  0  0  0  0  0  0
  151.9731  141.1903  158.9608 C   0  0  0  0  0  0  0  0  0  0  0  0
  151.4470  140.1085  158.2878 O   0  0  0  0  0  0  0  0  0  0  0  0
  150.3583  140.3316  157.4039 C   0  0  0  0  0  0  0  0  0  0  0  0
  150.9179  140.6164  156.0052 C   0  0  0  0  0  0  0  0  0  0  0  0
  150.1906  139.8779  154.9652 N   0  0  0  0  0  0  0  0  0  0  0  0
  150.4605  138.6720  154.3881 C   0  0  0  0  0  0  0  0  0  0  0  0
  151.6143  137.7738  154.6890 C   0  0  0  0  0  0  0  0  0  0  0  0
  151.4898  136.5141  154.0673 O   0  0  0  0  0  0  0  0  0  0  0  0
  149.4781  138.4338  153.4736 N   0  3  0  0  0  0  0  0  0  0  0  0
  148.5690  139.4929  153.4704 C   0  0  0  0  0  0  0  0  0  0  0  0
  147.4154  139.7023  152.7210 C   0  0  0  0  0  0  0  0  0  0  0  0
  146.7083  140.8973  152.9687 C   0  0  0  0  0  0  0  0  0  0  0  0
  147.1532  141.8283  153.9299 C   0  0  0  0  0  0  0  0  0  0  0  0
  148.3248  141.6055  154.6832 C   0  0  0  0  0  0  0  0  0  0  0  0
  149.0189  140.4230  154.4299 C   0  0  0  0  0  0  0  0  0  0  0  0
  151.6435  142.5412  158.6813 C   0  0  0  0  0  0  0  0  0  0  0  0
  152.3762  145.7215  159.7718 H   0  0  0  0  0  0  0  0  0  0  0  0
  150.7878  145.1747  159.2257 H   0  0  0  0  0  0  0  0  0  0  0  0
  152.1334  145.2698  158.0818 H   0  0  0  0  0  0  0  0  0  0  0  0
  153.5995  144.0920  161.0223 H   0  0  0  0  0  0  0  0  0  0  0  0
  154.1852  141.7329  161.5186 H   0  0  0  0  0  0  0  0  0  0  0  0
  153.1575  139.8912  160.2150 H   0  0  0  0  0  0  0  0  0  0  0  0
  149.7137  139.4518  157.3676 H   0  0  0  0  0  0  0  0  0  0  0  0
  149.7624  141.1788  157.7474 H   0  0  0  0  0  0  0  0  0  0  0  0
  150.8845  141.6817  155.7752 H   0  0  0  0  0  0  0  0  0  0  0  0
  151.9666  140.3214  155.9523 H   0  0  0  0  0  0  0  0  0  0  0  0
  152.5390  138.2477  154.3582 H   0  0  0  0  0  0  0  0  0  0  0  0
  151.6938  137.6322  155.7671 H   0  0  0  0  0  0  0  0  0  0  0  0
  151.2550  136.6472  153.1613 H   0  0  0  0  0  0  0  0  0  0  0  0
  147.0719  138.9901  151.9849 H   0  0  0  0  0  0  0  0  0  0  0  0
  145.8061  141.1038  152.4110 H   0  0  0  0  0  0  0  0  0  0  0  0
  146.5845  142.7323  154.0929 H   0  0  0  0  0  0  0  0  0  0  0  0
  148.6567  142.3239  155.4181 H   0  0  0  0  0  0  0  0  0  0  0  0
  150.9427  142.7990  157.9017 H   0  0  0  0  0  0  0  0  0  0  0  0
  149.4368  137.6056  152.8937 H   0  0  0  0  0  0  0  0  0  0  0  0
  1  2  1  0  0  0  0
  1 22  1  0  0  0  0
  1 23  1  0  0  0  0
  1 24  1  0  0  0  0
  2 21  1  0  0  0  0
  2  3  2  0  0  0  0
  3  4  1  0  0  0  0
  3 25  1  0  0  0  0
  4  5  2  0  0  0  0
  4 26  1  0  0  0  0
  5  6  1  0  0  0  0
  5 27  1  0  0  0  0
  6  7  1  0  0  0  0
  6 21  2  0  0  0  0
  7  8  1  0  0  0  0
  8  9  1  0  0  0  0
  8 28  1  0  0  0  0
  8 29  1  0  0  0  0
  9 10  1  0  0  0  0
  9 30  1  0  0  0  0
  9 31  1  0  0  0  0
 10 20  1  0  0  0  0
 10 11  1  0  0  0  0
 11 12  1  0  0  0  0
 11 14  2  0  0  0  0
 12 13  1  0  0  0  0
 12 32  1  0  0  0  0
 12 33  1  0  0  0  0
 13 34  1  0  0  0  0
 14 15  1  0  0  0  0
 14 40  1  0  0  0  0
 15 20  2  0  0  0  0
 15 16  1  0  0  0  0
 16 17  2  0  0  0  0
 16 35  1  0  0  0  0
 17 18  1  0  0  0  0
 17 36  1  0  0  0  0
 18 19  2  0  0  0  0
 18 37  1  0  0  0  0
 19 20  1  0  0  0  0
 19 38  1  0  0  0  0
 21 39  1  0  0  0  0
M  CHG  1  14   1
M  END
> <s_m_source_file>
AV-unprocessed.smi

> <i_m_source_file_index>
2958

> <i_lp_mmshare_version>
43012

> <i_f3d_flags>
0

> <s_epik_input>
W0NIM11jMVtjSF1bY0hdW2NIXWMoW2NIXTEpT1tDSDJdW0NIMl1uKGMobjIpW0NIMl1bT0hdKWMoYzIzKVtjSF1bY0hdW2NIXVtjSF0z

> <s_epik_cmdline>
J2VwaWtfcHl0aG9uJywgJy1waCcsICc3LjAnLCAnLXRuJywgJzgnLCAnLW1hJywgJzIwMCcsICctbWV0YWxfYmluZGluZycsICctaW1hZScsICc8aW5maWxlLm1hZT4nLCAnLW9tYWUnLCAnPG91dGZpbGUubWFlPic=

> <r_lp_tautomer_probability>
1

> <r_epik_Ionization_Penalty>
1.51131

> <r_epik_Ionization_Penalty_Charging>
1.51045

> <r_epik_Ionization_Penalty_Neutral>
0.000855784

> <r_epik_State_Penalty>
1.60143

> <r_epik_Charging_Adjusted_Penalty>
3.11188

> <i_epik_Tot_Q>
1

> <i_epik_Tot_abs_Q>
1

> <r_epik_Metal_State_Penalty>
5.65313

> <b_epik_Metal_Only>
0

> <s_lp_Force_Field>
OPLS_2005

> <r_lp_Energy>
18.3571

> <b_lp_Chiralities_Consistent>
1

> <s_lp_Variant>
AV-unprocessed.smi:2958-2

> <Gold.Version>
5.8.1

> <Gold.Id.Protein>
6NUR|6NUR_protein|mol2

> <Gold.PLP.Fitness>
59.4503

> <Gold.PLP.PLP>
-49.5203

> <Gold.PLP.part.hbond>
-4.0172

> <Gold.PLP.part.metal>
0.0000

> <Gold.PLP.part.buried>
1.2644

> <Gold.PLP.part.nonpolar>
-47.5280

> <Gold.PLP.part.repulsive>
0.0751

> <Gold.PLP.ligand.clash>
0.0000

> <Gold.PLP.ligand.torsion>
1.0459

> <Gold.PLP.Chemscore.Hbond>
3.9920

> <Gold.PLP.Chemscore.CHOScore>
0.0000

> <Gold.PLP.Chemscore.Metal>
0.0000

> <Gold.Chemscore.Hbonds>
donor molecule, donor type, donor heavy atom, donor atom, acceptor molecule, acceptor atom, score
      L1  H    13    34       P1  7949  0.96
      L1  H    14    40       P1  7948  2.00
      P1  H 10752 10765       L1    13  1.00

> <Gold.PLP.Chemscore.Internal.Correction>
0.0458

> <Gold.Rescore>
     Score         DG    S(hbond)    S(metal)    S(lipo)     H(rot)  DE(clash)    DE(int)     intcor
     20.79     -23.52       2.47        0.00     132.35       2.23       1.87       0.86       ----

> <Gold.Chemscore.Fitness>
20.7917

> <Gold.Chemscore.DG>
-23.5199

> <Gold.Chemscore.ZeroCoef>
-5.4800

> <Gold.Chemscore.Hbond>
2.4709

> <Gold.Chemscore.Metal>
0.0000

> <Gold.Chemscore.Lipo>
132.3520

> <Gold.Chemscore.Internal_Hbond>
0.0000

> <Gold.Chemscore.DEClash>
1.8703

> <Gold.Chemscore.DEInternal>
0.8580

> <Gold.Chemscore.Rot>
2.2258

> <Gold.Chemscore.Internal.Correction>
   9.000000E+99

> <Gold.Chemscore.Hbonds>
donor molecule, donor type, donor heavy atom, donor atom, acceptor molecule, acceptor atom, score
      L1  H    13    34       P1  7949  0.60
      L1  H    14    40       P1  7948  0.88
      P1  H 10752 10765       L1    13  0.30

> <Gold.Chemscore.Hbond.Weighted>
-8.2529

> <Gold.Chemscore.Metal.Weighted>
-0.0000

> <Gold.Chemscore.Lipo.Weighted>
-15.4852

> <Gold.Chemscore.Internal_Hbond.Weighted>
0.0000

> <Gold.Chemscore.DEClash.Weighted>
1.8703

> <Gold.Chemscore.DEInternal.Weighted>
0.8580

> <Gold.Chemscore.Rot.Weighted>
5.6982

> <Gold.Chemscore.Internal.Correction.Weighted>
   9.000000E+99

> <Gold.Protein.RotatedTorsions>
[ 6907 6896 6895 6894 ] final  -90.84 input  -60.11 | X-H torsion
[ 7974 7965 7964 7962 ] final   91.66 input  175.53 | X-H torsion
[ 8008 7997 7996 7995 ] final   28.21 input   59.86 | X-H torsion
[ 10167 10162 10161 10158 ] final -176.19 input  -65.29 | X-H torsion
[ 10718 10713 10712 10709 ] final -112.90 input   66.30 | X-H torsion
[ 10763 10752 10751 10750 ] final  139.83 input  -60.55 | X-H torsion
[ 11005 11000 10999 10996 ] final   90.39 input  -57.11 | X-H torsion

> <Gold.Protein.ActiveResidues>
 VAL166  LYS551  ARG553  GLY616  TRP617  ASP618  TYR619  PRO620  LYS621  CYS622 
 ASP623  PHE694  ASN695  SER759  ASP760  ASP761  ALA762  ILE779  LEU786  VAL792 
 PHE793  MET794  SER795  GLU796  ALA797  LYS798  CYS799  TRP800  GLU811  SER814 

> <Gold.Protein.RotatedAtoms>
  150.6886  134.2370  159.4457 H   0  0  0  0  0  0  0  0  0  0  0  0  # atno 6907 bound_to 6896
  152.0317  134.9761  160.0582 H   0  0  0  0  0  0  0  0  0  0  0  0  # atno 6908 bound_to 6896
  152.1298  133.4366  159.4752 H   0  0  0  0  0  0  0  0  0  0  0  0  # atno 6909 bound_to 6896
  145.5026  139.2276  143.2769 H   0  0  0  0  0  0  0  0  0  0  0  0  # atno 7974 bound_to 7965
  155.0551  140.3184  155.4679 H   0  0  0  0  0  0  0  0  0  0  0  0  # atno 8008 bound_to 7997
  156.2826  140.2139  156.5621 H   0  0  0  0  0  0  0  0  0  0  0  0  # atno 8009 bound_to 7997
  154.7178  140.0492  157.0599 H   0  0  0  0  0  0  0  0  0  0  0  0  # atno 8010 bound_to 7997
  139.5542  144.2031  152.1131 H   0  0  0  0  0  0  0  0  0  0  0  0  # atno 10167 bound_to 10162
  156.0734  130.5945  150.8571 H   0  0  0  0  0  0  0  0  0  0  0  0  # atno 10718 bound_to 10713
  153.9127  135.3009  155.3448 H   0  0  0  0  0  0  0  0  0  0  0  0  # atno 10763 bound_to 10752
  154.7615  135.4931  153.9476 H   0  0  0  0  0  0  0  0  0  0  0  0  # atno 10764 bound_to 10752
  153.1184  135.6776  153.9480 H   0  0  0  0  0  0  0  0  0  0  0  0  # atno 10765 bound_to 10752
  139.8857  134.8611  156.3278 H   0  0  0  0  0  0  0  0  0  0  0  0  # atno 11005 bound_to 11000
  146.2216  140.5828  142.9014 LP  0  0  0  0  0  0  0  0  0  0  0  0  # atno 17320 bound_to 7965
  144.7771  140.5763  143.6630 LP  0  0  0  0  0  0  0  0  0  0  0  0  # atno 17321 bound_to 7965
  140.1532  144.5095  150.6675 LP  0  0  0  0  0  0  0  0  0  0  0  0  # atno 17342 bound_to 10162
  140.6812  143.2327  151.5379 LP  0  0  0  0  0  0  0  0  0  0  0  0  # atno 17343 bound_to 10162
  157.5817  131.0946  150.9261 LP  0  0  0  0  0  0  0  0  0  0  0  0  # atno 17370 bound_to 10713
  156.9455  130.5400  149.5281 LP  0  0  0  0  0  0  0  0  0  0  0  0  # atno 17371 bound_to 10713
  140.9743  133.7307  156.0580 LP  0  0  0  0  0  0  0  0  0  0  0  0  # atno 17394 bound_to 11000
  140.7830  134.3703  157.5483 LP  0  0  0  0  0  0  0  0  0  0  0  0  # atno 17395 bound_to 11000

$$$$
