AV-unprocessed.smi:2510|AV-procd|sdf|9870|dock3
  -GOLD-   2272013503D 1   1.00000     0.00000
 Structure written by MMmdl.
 48 49  0  0  0  0  0  0  0  0  1 V2000
  148.4520  141.9084  157.6788 C   0  0  0  0  0  0  0  0  0  0  0  0
  149.4307  141.2491  156.6925 C   0  0  0  0  0  0  0  0  0  0  0  0
  150.8104  140.8692  157.2905 C   0  0  0  0  0  0  0  0  0  0  0  0
  151.5206  142.1697  157.7437 C   0  0  0  0  0  0  0  0  0  0  0  0
  152.3845  142.0491  159.0111 C   0  0  0  0  0  0  0  0  0  0  0  0
  150.8311  139.7425  158.3655 C   0  0  1  0  0  0  0  0  0  0  0  0
  149.7141  138.8056  158.2447 N   0  0  0  0  0  0  0  0  0  0  0  0
  149.5976  137.6396  158.8965 C   0  0  0  0  0  0  0  0  0  0  0  0
  150.3982  137.2550  159.7484 O   0  0  0  0  0  0  0  0  0  0  0  0
  148.3994  136.7672  158.5146 C   0  0  0  0  0  0  0  0  0  0  0  0
  147.5388  136.5122  159.7251 C   0  0  0  0  0  0  0  0  0  0  0  0
  147.0522  135.2614  160.2080 C   0  0  0  0  0  0  0  0  0  0  0  0
  146.2891  135.5909  161.2923 C   0  0  0  0  0  0  0  0  0  0  0  0
  145.4893  134.7506  162.2285 C   0  0  0  0  0  0  0  0  0  0  0  0
  146.3615  136.9595  161.4117 N   0  0  0  0  0  0  0  0  0  0  0  0
  147.1247  137.5334  160.4637 N   0  0  0  0  0  0  0  0  0  0  0  0
  152.1180  139.1873  157.7257 C   0  0  1  0  0  0  0  0  0  0  0  0
  152.4276  137.6911  157.6907 C   0  0  0  0  0  0  0  0  0  0  0  0
  151.7121  139.9256  156.4401 C   0  0  1  0  0  0  0  0  0  0  0  0
  150.9922  139.0560  155.5728 O   0  0  0  0  0  0  0  0  0  0  0  0
  151.8336  138.2243  154.7928 C   0  0  0  0  0  0  0  0  0  0  0  0
  145.9002  137.5072  162.1242 H   0  0  0  0  0  0  0  0  0  0  0  0
  147.4710  142.0281  157.2189 H   0  0  0  0  0  0  0  0  0  0  0  0
  148.7856  142.9000  157.9821 H   0  0  0  0  0  0  0  0  0  0  0  0
  148.3208  141.3063  158.5780 H   0  0  0  0  0  0  0  0  0  0  0  0
  148.9357  140.3624  156.2968 H   0  0  0  0  0  0  0  0  0  0  0  0
  149.5458  141.8945  155.8233 H   0  0  0  0  0  0  0  0  0  0  0  0
  152.1267  142.5799  156.9368 H   0  0  0  0  0  0  0  0  0  0  0  0
  150.7803  142.9457  157.9374 H   0  0  0  0  0  0  0  0  0  0  0  0
  152.7399  143.0318  159.3211 H   0  0  0  0  0  0  0  0  0  0  0  0
  153.2661  141.4305  158.8479 H   0  0  0  0  0  0  0  0  0  0  0  0
  151.8247  141.6272  159.8453 H   0  0  0  0  0  0  0  0  0  0  0  0
  150.9811  140.1193  159.3789 H   0  0  0  0  0  0  0  0  0  0  0  0
  149.0069  139.0329  157.5602 H   0  0  0  0  0  0  0  0  0  0  0  0
  147.8188  137.2643  157.7368 H   0  0  0  0  0  0  0  0  0  0  0  0
  148.7625  135.8326  158.0849 H   0  0  0  0  0  0  0  0  0  0  0  0
  147.2240  134.2742  159.8051 H   0  0  0  0  0  0  0  0  0  0  0  0
  145.6141  133.6911  162.0038 H   0  0  0  0  0  0  0  0  0  0  0  0
  144.4282  134.9881  162.1506 H   0  0  0  0  0  0  0  0  0  0  0  0
  145.7999  134.9150  163.2604 H   0  0  0  0  0  0  0  0  0  0  0  0
  152.9657  139.7111  158.1698 H   0  0  0  0  0  0  0  0  0  0  0  0
  151.6481  137.1219  157.1849 H   0  0  0  0  0  0  0  0  0  0  0  0
  152.5263  137.2870  158.6982 H   0  0  0  0  0  0  0  0  0  0  0  0
  153.3622  137.4972  157.1649 H   0  0  0  0  0  0  0  0  0  0  0  0
  152.5678  140.4013  155.9588 H   0  0  0  0  0  0  0  0  0  0  0  0
  151.2248  137.6155  154.1246 H   0  0  0  0  0  0  0  0  0  0  0  0
  152.4128  137.5518  155.4265 H   0  0  0  0  0  0  0  0  0  0  0  0
  152.5235  138.8073  154.1830 H   0  0  0  0  0  0  0  0  0  0  0  0
  1  2  1  0  0  0  0
  1 23  1  0  0  0  0
  1 24  1  0  0  0  0
  1 25  1  0  0  0  0
  2  3  1  0  0  0  0
  2 26  1  0  0  0  0
  2 27  1  0  0  0  0
  3 19  1  0  0  0  0
  3  4  1  0  0  0  0
  3  6  1  0  0  0  0
  4  5  1  0  0  0  0
  4 28  1  0  0  0  0
  4 29  1  0  0  0  0
  5 30  1  0  0  0  0
  5 31  1  0  0  0  0
  5 32  1  0  0  0  0
  6  7  1  0  0  0  0
  6 17  1  0  0  0  0
  6 33  1  0  0  0  0
  7  8  1  0  0  0  0
  7 34  1  0  0  0  0
  8  9  2  0  0  0  0
  8 10  1  0  0  0  0
 10 11  1  0  0  0  0
 10 35  1  0  0  0  0
 10 36  1  0  0  0  0
 11 16  2  0  0  0  0
 11 12  1  0  0  0  0
 12 13  2  0  0  0  0
 12 37  1  0  0  0  0
 13 14  1  0  0  0  0
 13 15  1  0  0  0  0
 14 38  1  0  0  0  0
 14 39  1  0  0  0  0
 14 40  1  0  0  0  0
 15 22  1  0  0  0  0
 15 16  1  0  0  0  0
 17 18  1  0  0  0  0
 17 19  1  0  0  0  0
 17 41  1  0  0  0  0
 18 42  1  0  0  0  0
 18 43  1  0  0  0  0
 18 44  1  0  0  0  0
 19 20  1  0  0  0  0
 19 45  1  0  0  0  0
 20 21  1  0  0  0  0
 21 46  1  0  0  0  0
 21 47  1  0  0  0  0
 21 48  1  0  0  0  0
M  END
> <s_m_source_file>
AV-unprocessed.smi

> <i_m_source_file_index>
2510

> <i_lp_mmshare_version>
43012

> <i_f3d_flags>
0

> <s_epik_input>
W0NIM11PW0NAQEhdMVtDQEhdKFtDSDNdKVtDQEBIXShDMShbQ0gyXVtDSDNdKVtDSDJdW0NIM10pW05IXUMoPU8pW0NIMl1jMltjSF1jKFtDSDNdKVtuSF1uMg==

> <s_epik_cmdline>
J2VwaWtfcHl0aG9uJywgJy1waCcsICc3LjAnLCAnLXRuJywgJzgnLCAnLW1hJywgJzIwMCcsICctbWV0YWxfYmluZGluZycsICctaW1hZScsICc8aW5maWxlLm1hZT4nLCAnLW9tYWUnLCAnPG91dGZpbGUubWFlPic=

> <r_lp_tautomer_probability>
0.5

> <r_epik_Ionization_Penalty>
9.73156e-05

> <r_epik_Ionization_Penalty_Charging>
0

> <r_epik_Ionization_Penalty_Neutral>
9.73156e-05

> <r_epik_State_Penalty>
0.41068

> <r_epik_Charging_Adjusted_Penalty>
0.41068

> <i_epik_Tot_Q>
0

> <i_epik_Tot_abs_Q>
0

> <r_epik_Metal_State_Penalty>
0.410699

> <b_epik_Metal_Only>
0

> <s_lp_Force_Field>
OPLS_2005

> <r_lp_Energy>
26.8932

> <b_lp_Chiralities_Consistent>
1

> <s_lp_Variant>
AV-unprocessed.smi:2510-1

> <Gold.Version>
5.8.1

> <Gold.Id.Protein>
6NUR|6NUR_protein|mol2

> <Gold.PLP.Fitness>
41.9629

> <Gold.PLP.PLP>
-35.8542

> <Gold.PLP.part.hbond>
-2.9882

> <Gold.PLP.part.metal>
0.0000

> <Gold.PLP.part.buried>
-6.6183

> <Gold.PLP.part.nonpolar>
-26.4275

> <Gold.PLP.part.repulsive>
0.3108

> <Gold.PLP.ligand.clash>
0.0000

> <Gold.PLP.ligand.torsion>
1.0454

> <Gold.PLP.Chemscore.Hbond>
2.4944

> <Gold.PLP.Chemscore.CHOScore>
0.0000

> <Gold.PLP.Chemscore.Metal>
0.0000

> <Gold.Chemscore.Hbonds>
donor molecule, donor type, donor heavy atom, donor atom, acceptor molecule, acceptor atom, score
      P1  H  6896  6909       L1     9  0.29
      P1  H  6934  6947       L1    16  1.00

> <Gold.PLP.Chemscore.Internal.Correction>
0.7162

> <Gold.Rescore>
     Score         DG    S(hbond)    S(metal)    S(lipo)     H(rot)  DE(clash)    DE(int)     intcor
     18.06     -19.69       2.48        0.00      90.25       1.81       0.10       1.53       ----

> <Gold.Chemscore.Fitness>
18.0589

> <Gold.Chemscore.DG>
-19.6899

> <Gold.Chemscore.ZeroCoef>
-5.4800

> <Gold.Chemscore.Hbond>
2.4804

> <Gold.Chemscore.Metal>
0.0000

> <Gold.Chemscore.Lipo>
90.2519

> <Gold.Chemscore.Internal_Hbond>
0.0000

> <Gold.Chemscore.DEClash>
0.1033

> <Gold.Chemscore.DEInternal>
1.5277

> <Gold.Chemscore.Rot>
1.8102

> <Gold.Chemscore.Internal.Correction>
   9.000000E+99

> <Gold.Chemscore.Hbonds>
donor molecule, donor type, donor heavy atom, donor atom, acceptor molecule, acceptor atom, score
      P1  H  6896  6909       L1     9  0.31
      P1  H  6934  6947       L1    16  0.38

> <Gold.Chemscore.Hbond.Weighted>
-8.2845

> <Gold.Chemscore.Metal.Weighted>
-0.0000

> <Gold.Chemscore.Lipo.Weighted>
-10.5595

> <Gold.Chemscore.Internal_Hbond.Weighted>
0.0000

> <Gold.Chemscore.DEClash.Weighted>
0.1033

> <Gold.Chemscore.DEInternal.Weighted>
1.5277

> <Gold.Chemscore.Rot.Weighted>
4.6341

> <Gold.Chemscore.Internal.Correction.Weighted>
   9.000000E+99

> <Gold.Protein.RotatedTorsions>
[ 6907 6896 6895 6894 ] final  107.62 input  -60.11 | X-H torsion
[ 7974 7965 7964 7962 ] final  161.71 input  175.53 | X-H torsion
[ 8008 7997 7996 7995 ] final  -90.58 input   59.86 | X-H torsion
[ 10167 10162 10161 10158 ] final   29.56 input  -65.29 | X-H torsion
[ 10718 10713 10712 10709 ] final -108.26 input   66.30 | X-H torsion
[ 10763 10752 10751 10750 ] final   16.64 input  -60.55 | X-H torsion
[ 11005 11000 10999 10996 ] final  135.79 input  -57.11 | X-H torsion

> <Gold.Protein.ActiveResidues>
 VAL166  LYS551  ARG553  GLY616  TRP617  ASP618  TYR619  PRO620  LYS621  CYS622 
 ASP623  PHE694  ASN695  SER759  ASP760  ASP761  ALA762  ILE779  LEU786  VAL792 
 PHE793  MET794  SER795  GLU796  ALA797  LYS798  CYS799  TRP800  GLU811  SER814 

> <Gold.Protein.RotatedAtoms>
  152.5147  133.9208  159.7533 H   0  0  0  0  0  0  0  0  0  0  0  0  # atno 6907 bound_to 6896
  150.9580  133.6467  159.2766 H   0  0  0  0  0  0  0  0  0  0  0  0  # atno 6908 bound_to 6896
  151.3722  135.0930  159.9522 H   0  0  0  0  0  0  0  0  0  0  0  0  # atno 6909 bound_to 6896
  144.7672  139.7937  143.6310 H   0  0  0  0  0  0  0  0  0  0  0  0  # atno 7974 bound_to 7965
  154.7003  140.0529  157.0451 H   0  0  0  0  0  0  0  0  0  0  0  0  # atno 8008 bound_to 7997
  155.0694  140.3198  155.4616 H   0  0  0  0  0  0  0  0  0  0  0  0  # atno 8009 bound_to 7997
  156.2758  140.2084  156.5821 H   0  0  0  0  0  0  0  0  0  0  0  0  # atno 8010 bound_to 7997
  140.4755  144.0696  150.6249 H   0  0  0  0  0  0  0  0  0  0  0  0  # atno 10167 bound_to 10162
  156.0477  130.5704  150.7936 H   0  0  0  0  0  0  0  0  0  0  0  0  # atno 10718 bound_to 10713
  153.1412  135.6760  153.9025 H   0  0  0  0  0  0  0  0  0  0  0  0  # atno 10763 bound_to 10752
  153.8481  135.3097  155.3432 H   0  0  0  0  0  0  0  0  0  0  0  0  # atno 10764 bound_to 10752
  154.7789  135.4899  153.9885 H   0  0  0  0  0  0  0  0  0  0  0  0  # atno 10765 bound_to 10752
  140.0003  134.9481  157.0056 H   0  0  0  0  0  0  0  0  0  0  0  0  # atno 11005 bound_to 11000
  146.1789  139.4973  142.9879 LP  0  0  0  0  0  0  0  0  0  0  0  0  # atno 17320 bound_to 7965
  145.6433  141.0279  143.1799 LP  0  0  0  0  0  0  0  0  0  0  0  0  # atno 17321 bound_to 7965
  140.3923  143.2746  152.0045 LP  0  0  0  0  0  0  0  0  0  0  0  0  # atno 17342 bound_to 10162
  139.4825  144.6067  151.7509 LP  0  0  0  0  0  0  0  0  0  0  0  0  # atno 17343 bound_to 10162
  157.5370  131.0939  150.9879 LP  0  0  0  0  0  0  0  0  0  0  0  0  # atno 17370 bound_to 10713
  157.0171  130.5659  149.5327 LP  0  0  0  0  0  0  0  0  0  0  0  0  # atno 17371 bound_to 10713
  140.4741  134.1356  155.7207 LP  0  0  0  0  0  0  0  0  0  0  0  0  # atno 17394 bound_to 11000
  141.1636  133.8745  157.1777 LP  0  0  0  0  0  0  0  0  0  0  0  0  # atno 17395 bound_to 11000

$$$$
