AV-unprocessed.smi:2886|AV-procd|sdf|11096|dock6
  -GOLD-   2272015563D 1   1.00000     0.00000
 Structure written by MMmdl.
 27 29  0  0  0  0  0  0  0  0  2 V2000
  151.3845  136.9852  156.8197 O   0  0  0  0  0  0  0  0  0  0  0  0
  151.3162  138.1728  156.5074 C   0  0  0  0  0  0  0  0  0  0  0  0
  151.0968  138.5751  155.2189 N   0  5  0  0  0  0  0  0  0  0  0  0
  151.0351  139.9838  154.8985 N   0  0  0  0  0  0  0  0  0  0  0  0
  151.1727  140.8700  155.8039 C   0  0  0  0  0  0  0  0  0  0  0  0
  151.3976  140.5224  157.2287 C   0  0  0  0  0  0  0  0  0  0  0  0
  151.5486  141.4880  158.2158 N   0  0  0  0  0  0  0  0  0  0  0  0
  151.5219  142.9381  158.0817 C   0  0  1  0  0  0  0  0  0  0  0  0
  150.3978  143.5941  158.8851 C   0  0  0  0  0  0  0  0  0  0  0  0
  151.1734  144.6278  159.7145 C   0  0  1  0  0  0  0  0  0  0  0  0
  151.9493  143.9633  160.8589 C   0  0  0  0  0  0  0  0  0  0  0  0
  153.0820  143.2692  160.1048 C   0  0  0  0  0  0  0  0  0  0  0  0
  152.7683  143.6414  158.6458 C   0  0  2  0  0  0  0  0  0  0  0  0
  152.2386  144.9435  158.8323 O   0  0  0  0  0  0  0  0  0  0  0  0
  151.4712  139.2037  157.5409 C   0  0  0  0  0  0  0  0  0  0  0  0
  151.7451  138.6974  159.1764 Cl  0  0  0  0  0  0  0  0  0  0  0  0
  151.1360  141.9348  155.5628 H   0  0  0  0  0  0  0  0  0  0  0  0
  151.5488  141.1537  159.1687 H   0  0  0  0  0  0  0  0  0  0  0  0
  151.3925  143.2156  157.0356 H   0  0  0  0  0  0  0  0  0  0  0  0
  149.6892  144.0821  158.2152 H   0  0  0  0  0  0  0  0  0  0  0  0
  149.8431  142.8973  159.5153 H   0  0  0  0  0  0  0  0  0  0  0  0
  150.5755  145.4850  160.0252 H   0  0  0  0  0  0  0  0  0  0  0  0
  152.3489  144.7116  161.5440 H   0  0  0  0  0  0  0  0  0  0  0  0
  151.3331  143.2691  161.4316 H   0  0  0  0  0  0  0  0  0  0  0  0
  154.0452  143.6823  160.4061 H   0  0  0  0  0  0  0  0  0  0  0  0
  153.1113  142.1927  160.2750 H   0  0  0  0  0  0  0  0  0  0  0  0
  153.6338  143.6000  157.9837 H   0  0  0  0  0  0  0  0  0  0  0  0
  1  2  2  0  0  0  0
  2 15  1  0  0  0  0
  2  3  1  0  0  0  0
  3  4  1  0  0  0  0
  4  5  2  0  0  0  0
  5  6  1  0  0  0  0
  5 17  1  0  0  0  0
  6  7  1  0  0  0  0
  6 15  2  0  0  0  0
  7  8  1  0  0  0  0
  7 18  1  0  0  0  0
  8 13  1  0  0  0  0
  8  9  1  0  0  0  0
  8 19  1  0  0  0  0
  9 10  1  0  0  0  0
  9 20  1  0  0  0  0
  9 21  1  0  0  0  0
 10 14  1  0  0  0  0
 10 11  1  0  0  0  0
 10 22  1  0  0  0  0
 11 12  1  0  0  0  0
 11 23  1  0  0  0  0
 11 24  1  0  0  0  0
 12 13  1  0  0  0  0
 12 25  1  0  0  0  0
 12 26  1  0  0  0  0
 13 14  1  0  0  0  0
 13 27  1  0  0  0  0
 15 16  1  0  0  0  0
M  CHG  1   3  -1
M  END
> <s_m_source_file>
AV-unprocessed.smi

> <i_m_source_file_index>
2886

> <i_lp_mmshare_version>
43012

> <i_f3d_flags>
0

> <s_epik_input>
Tz1jMVtuSF1uW2NIXWMoYzFDbClbTkhdW0NASF0oW0NIMl1bQ0BASF0yMylbQ0BASF0oTzMpW0NIMl1bQ0gyXTI=

> <s_epik_cmdline>
J2VwaWtfcHl0aG9uJywgJy1waCcsICc3LjAnLCAnLXRuJywgJzgnLCAnLW1hJywgJzIwMCcsICctbWV0YWxfYmluZGluZycsICctaW1hZScsICc8aW5maWxlLm1hZT4nLCAnLW9tYWUnLCAnPG91dGZpbGUubWFlPic=

> <r_lp_tautomer_probability>
0.986175

> <r_epik_Ionization_Penalty>
3.84253

> <r_epik_Ionization_Penalty_Charging>
0.0129711

> <r_epik_Ionization_Penalty_Neutral>
3.82956

> <r_epik_State_Penalty>
3.8249

> <r_epik_Charging_Adjusted_Penalty>
3.83787

> <i_epik_Tot_Q>
-1

> <i_epik_Tot_abs_Q>
1

> <r_epik_Metal_State_Penalty>
0.57612

> <b_epik_Metal_Only>
1

> <s_lp_Force_Field>
OPLS_2005

> <r_lp_Energy>
60.9826

> <b_lp_Chiralities_Consistent>
1

> <s_lp_Variant>
AV-unprocessed.smi:2886-10

> <Gold.Version>
5.8.1

> <Gold.Id.Protein>
6NUR|6NUR_protein|mol2

> <Gold.PLP.Fitness>
32.5474

> <Gold.PLP.PLP>
-29.5679

> <Gold.PLP.part.hbond>
-1.0000

> <Gold.PLP.part.metal>
0.0000

> <Gold.PLP.part.buried>
-5.8807

> <Gold.PLP.part.nonpolar>
-23.0831

> <Gold.PLP.part.repulsive>
0.2306

> <Gold.PLP.ligand.clash>
0.0000

> <Gold.PLP.ligand.torsion>
0.0148

> <Gold.PLP.Chemscore.Hbond>
1.0000

> <Gold.PLP.Chemscore.CHOScore>
0.0000

> <Gold.PLP.Chemscore.Metal>
0.0000

> <Gold.Chemscore.Hbonds>
donor molecule, donor type, donor heavy atom, donor atom, acceptor molecule, acceptor atom, score
      P1  H  7989  7998       L1     4  1.00

> <Gold.PLP.Chemscore.Internal.Correction>
0.0091

> <Gold.Rescore>
     Score         DG    S(hbond)    S(metal)    S(lipo)     H(rot)  DE(clash)    DE(int)     intcor
     16.23     -16.26       0.88        0.00      88.88       1.00       0.02       0.01       ----

> <Gold.Chemscore.Fitness>
16.2330

> <Gold.Chemscore.DG>
-16.2591

> <Gold.Chemscore.ZeroCoef>
-5.4800

> <Gold.Chemscore.Hbond>
0.8802

> <Gold.Chemscore.Metal>
0.0000

> <Gold.Chemscore.Lipo>
88.8836

> <Gold.Chemscore.Internal_Hbond>
0.0000

> <Gold.Chemscore.DEClash>
0.0158

> <Gold.Chemscore.DEInternal>
0.0104

> <Gold.Chemscore.Rot>
1.0000

> <Gold.Chemscore.Internal.Correction>
   9.000000E+99

> <Gold.Chemscore.Hbonds>
donor molecule, donor type, donor heavy atom, donor atom, acceptor molecule, acceptor atom, score
      P1  H  7989  7998       L1     4  0.26

> <Gold.Chemscore.Hbond.Weighted>
-2.9398

> <Gold.Chemscore.Metal.Weighted>
-0.0000

> <Gold.Chemscore.Lipo.Weighted>
-10.3994

> <Gold.Chemscore.Internal_Hbond.Weighted>
0.0000

> <Gold.Chemscore.DEClash.Weighted>
0.0158

> <Gold.Chemscore.DEInternal.Weighted>
0.0104

> <Gold.Chemscore.Rot.Weighted>
2.5600

> <Gold.Chemscore.Internal.Correction.Weighted>
   9.000000E+99

> <Gold.Protein.RotatedTorsions>
[ 6907 6896 6895 6894 ] final  142.36 input  -60.11 | X-H torsion
[ 7974 7965 7964 7962 ] final -124.68 input  175.53 | X-H torsion
[ 8008 7997 7996 7995 ] final  157.77 input   59.86 | X-H torsion
[ 10167 10162 10161 10158 ] final -149.77 input  -65.29 | X-H torsion
[ 10718 10713 10712 10709 ] final -125.37 input   66.30 | X-H torsion
[ 10763 10752 10751 10750 ] final -149.13 input  -60.55 | X-H torsion
[ 11005 11000 10999 10996 ] final  -68.29 input  -57.11 | X-H torsion

> <Gold.Protein.ActiveResidues>
 VAL166  LYS551  ARG553  GLY616  TRP617  ASP618  TYR619  PRO620  LYS621  CYS622 
 ASP623  PHE694  ASN695  SER759  ASP760  ASP761  ALA762  ILE779  LEU786  VAL792 
 PHE793  MET794  SER795  GLU796  ALA797  LYS798  CYS799  TRP800  GLU811  SER814 

> <Gold.Protein.RotatedAtoms>
  152.2197  133.4973  159.5155 H   0  0  0  0  0  0  0  0  0  0  0  0  # atno 6907 bound_to 6896
  150.7009  134.1359  159.4096 H   0  0  0  0  0  0  0  0  0  0  0  0  # atno 6908 bound_to 6896
  151.9280  135.0269  160.0578 H   0  0  0  0  0  0  0  0  0  0  0  0  # atno 6909 bound_to 6896
  145.0055  140.7859  143.4470 H   0  0  0  0  0  0  0  0  0  0  0  0  # atno 7974 bound_to 7965
  156.2343  140.1876  156.7160 H   0  0  0  0  0  0  0  0  0  0  0  0  # atno 8008 bound_to 7997
  154.6079  140.0626  156.9482 H   0  0  0  0  0  0  0  0  0  0  0  0  # atno 8009 bound_to 7997
  155.2065  140.3296  155.4337 H   0  0  0  0  0  0  0  0  0  0  0  0  # atno 8010 bound_to 7997
  139.7413  143.8658  152.2563 H   0  0  0  0  0  0  0  0  0  0  0  0  # atno 10167 bound_to 10162
  156.1669  130.6641  151.0127 H   0  0  0  0  0  0  0  0  0  0  0  0  # atno 10718 bound_to 10713
  154.8194  135.3317  154.7082 H   0  0  0  0  0  0  0  0  0  0  0  0  # atno 10763 bound_to 10752
  153.7717  135.6925  153.4909 H   0  0  0  0  0  0  0  0  0  0  0  0  # atno 10764 bound_to 10752
  153.2040  135.4506  155.0249 H   0  0  0  0  0  0  0  0  0  0  0  0  # atno 10765 bound_to 10752
  141.1528  133.6737  156.6423 H   0  0  0  0  0  0  0  0  0  0  0  0  # atno 11005 bound_to 11000
  145.2094  139.2212  143.5151 LP  0  0  0  0  0  0  0  0  0  0  0  0  # atno 17320 bound_to 7965
  146.3460  140.1929  142.8589 LP  0  0  0  0  0  0  0  0  0  0  0  0  # atno 17321 bound_to 7965
  139.8609  144.7117  150.9100 LP  0  0  0  0  0  0  0  0  0  0  0  0  # atno 17342 bound_to 10162
  140.7786  143.3818  151.1463 LP  0  0  0  0  0  0  0  0  0  0  0  0  # atno 17343 bound_to 10162
  157.6774  131.0847  150.7458 LP  0  0  0  0  0  0  0  0  0  0  0  0  # atno 17370 bound_to 10713
  156.7518  130.4771  149.5455 LP  0  0  0  0  0  0  0  0  0  0  0  0  # atno 17371 bound_to 10713
  140.3384  134.7870  157.4379 LP  0  0  0  0  0  0  0  0  0  0  0  0  # atno 17394 bound_to 11000
  140.0958  134.5539  155.8400 LP  0  0  0  0  0  0  0  0  0  0  0  0  # atno 17395 bound_to 11000

$$$$
