AV-unprocessed.smi:2775|AV-procd|sdf|10700|dock8
  -GOLD-   2272015143D 1   1.00000     0.00000
 Structure written by MMmdl.
 43 46  0  0  0  0  0  0  0  0  2 V2000
  150.5737  141.5997  155.6207 C   0  0  0  0  0  0  0  0  0  0  0  0
  149.2851  141.0702  155.0213 C   0  0  0  0  0  0  0  0  0  0  0  0
  148.2773  141.9483  154.8202 N   0  3  0  0  0  0  0  0  0  0  0  0
  147.0841  141.5928  154.2997 C   0  0  0  0  0  0  0  0  0  0  0  0
  146.8479  140.2532  153.9345 C   0  0  0  0  0  0  0  0  0  0  0  0
  147.8767  139.2940  154.1093 C   0  0  0  0  0  0  0  0  0  0  0  0
  147.7166  137.9203  153.7842 N   0  0  0  0  0  0  0  0  0  0  0  0
  146.6433  137.1312  153.9818 C   0  0  0  0  0  0  0  0  0  0  0  0
  145.6165  137.4782  154.5613 O   0  0  0  0  0  0  0  0  0  0  0  0
  146.7626  135.9092  153.4344 N   0  0  0  0  0  0  0  0  0  0  0  0
  145.7796  134.8205  153.4684 C   0  0  2  0  0  0  0  0  0  0  0  0
  146.3867  133.4240  153.7688 C   0  0  2  0  0  0  0  0  0  0  0  0
  147.8074  133.2103  154.2366 C   0  0  0  0  0  0  0  0  0  0  0  0
  148.5370  132.8218  152.9482 C   0  0  0  0  0  0  0  0  0  0  0  0
  147.7173  133.3310  151.8993 O   0  0  0  0  0  0  0  0  0  0  0  0
  146.3583  133.1300  152.2737 C   0  0  2  0  0  0  0  0  0  0  0  0
  145.4300  134.3315  152.0527 C   0  0  0  0  0  0  0  0  0  0  0  0
  145.5460  135.2087  150.7946 C   0  0  0  0  0  0  0  0  0  0  0  0
  144.3385  134.4605  150.2236 C   0  0  0  0  0  0  0  0  0  0  0  0
  143.9668  134.0779  151.6591 C   0  0  0  0  0  0  0  0  0  0  0  0
  149.1075  139.7102  154.6738 C   0  0  0  0  0  0  0  0  0  0  0  0
  150.3880  138.5712  154.9270 Cl  0  0  0  0  0  0  0  0  0  0  0  0
  151.4138  141.3965  154.9560 H   0  0  0  0  0  0  0  0  0  0  0  0
  150.7699  141.1210  156.5806 H   0  0  0  0  0  0  0  0  0  0  0  0
  150.5248  142.6772  155.7834 H   0  0  0  0  0  0  0  0  0  0  0  0
  146.3561  142.3847  154.1976 H   0  0  0  0  0  0  0  0  0  0  0  0
  145.8809  139.9824  153.5383 H   0  0  0  0  0  0  0  0  0  0  0  0
  148.4521  137.5218  153.2184 H   0  0  0  0  0  0  0  0  0  0  0  0
  147.5894  135.7365  152.8805 H   0  0  0  0  0  0  0  0  0  0  0  0
  144.8887  135.0395  154.0595 H   0  0  0  0  0  0  0  0  0  0  0  0
  145.6608  132.8023  154.2951 H   0  0  0  0  0  0  0  0  0  0  0  0
  148.2433  134.1054  154.6762 H   0  0  0  0  0  0  0  0  0  0  0  0
  147.8803  132.4183  154.9824 H   0  0  0  0  0  0  0  0  0  0  0  0
  149.5478  133.2270  152.8986 H   0  0  0  0  0  0  0  0  0  0  0  0
  148.5980  131.7364  152.8551 H   0  0  0  0  0  0  0  0  0  0  0  0
  145.9600  132.1477  152.0154 H   0  0  0  0  0  0  0  0  0  0  0  0
  145.3305  136.2607  150.9877 H   0  0  0  0  0  0  0  0  0  0  0  0
  146.4688  135.0841  150.2273 H   0  0  0  0  0  0  0  0  0  0  0  0
  143.6093  135.0910  149.7143 H   0  0  0  0  0  0  0  0  0  0  0  0
  144.6239  133.5989  149.6179 H   0  0  0  0  0  0  0  0  0  0  0  0
  143.6256  133.0497  151.7834 H   0  0  0  0  0  0  0  0  0  0  0  0
  143.2767  134.7888  152.1162 H   0  0  0  0  0  0  0  0  0  0  0  0
  148.4239  142.9245  155.0787 H   0  0  0  0  0  0  0  0  0  0  0  0
  1  2  1  0  0  0  0
  1 23  1  0  0  0  0
  1 24  1  0  0  0  0
  1 25  1  0  0  0  0
  2 21  1  0  0  0  0
  2  3  2  0  0  0  0
  3  4  1  0  0  0  0
  3 43  1  0  0  0  0
  4  5  2  0  0  0  0
  4 26  1  0  0  0  0
  5  6  1  0  0  0  0
  5 27  1  0  0  0  0
  6  7  1  0  0  0  0
  6 21  2  0  0  0  0
  7  8  1  0  0  0  0
  7 28  1  0  0  0  0
  8  9  2  0  0  0  0
  8 10  1  0  0  0  0
 10 11  1  0  0  0  0
 10 29  1  0  0  0  0
 11 17  1  0  0  0  0
 11 12  1  0  0  0  0
 11 30  1  0  0  0  0
 12 16  1  0  0  0  0
 12 13  1  0  0  0  0
 12 31  1  0  0  0  0
 13 14  1  0  0  0  0
 13 32  1  0  0  0  0
 13 33  1  0  0  0  0
 14 15  1  0  0  0  0
 14 34  1  0  0  0  0
 14 35  1  0  0  0  0
 15 16  1  0  0  0  0
 16 17  1  0  0  0  0
 16 36  1  0  0  0  0
 17 20  1  0  0  0  0
 17 18  1  0  0  0  0
 18 19  1  0  0  0  0
 18 37  1  0  0  0  0
 18 38  1  0  0  0  0
 19 20  1  0  0  0  0
 19 39  1  0  0  0  0
 19 40  1  0  0  0  0
 20 41  1  0  0  0  0
 20 42  1  0  0  0  0
 21 22  1  0  0  0  0
M  CHG  1   3   1
M  END
> <s_m_source_file>
AV-unprocessed.smi

> <i_m_source_file_index>
2775

> <i_lp_mmshare_version>
43012

> <i_f3d_flags>
0

> <s_epik_input>
W0NIM11jMW5bY0hdW2NIXWMoYzFDbClbTkhdQyg9TylbTkhdW0NAQEhdMltDQEhdKFtDSDJdW0NIMl1PMylbQ0BASF0zQzI0W0NIMl1bQ0gyXVtDSDJdNA==

> <s_epik_cmdline>
J2VwaWtfcHl0aG9uJywgJy1waCcsICc3LjAnLCAnLXRuJywgJzgnLCAnLW1hJywgJzIwMCcsICctbWV0YWxfYmluZGluZycsICctaW1hZScsICc8aW5maWxlLm1hZT4nLCAnLW9tYWUnLCAnPG91dGZpbGUubWFlPic=

> <r_epik_Ionization_Penalty>
2.4104

> <r_epik_Ionization_Penalty_Charging>
2.41038

> <r_epik_Ionization_Penalty_Neutral>
1.9872e-05

> <r_epik_State_Penalty>
2.56896

> <r_epik_Charging_Adjusted_Penalty>
4.97934

> <i_epik_Tot_Q>
1

> <i_epik_Tot_abs_Q>
1

> <r_epik_Metal_State_Penalty>
2.57906

> <b_epik_Metal_Only>
0

> <s_lp_Force_Field>
OPLS_2005

> <r_lp_Energy>
62.9708

> <b_lp_Chiralities_Consistent>
1

> <s_lp_Variant>
AV-unprocessed.smi:2775-13

> <Gold.Version>
5.8.1

> <Gold.Id.Protein>
6NUR|6NUR_protein|mol2

> <Gold.PLP.Fitness>
45.0809

> <Gold.PLP.PLP>
-33.8764

> <Gold.PLP.part.hbond>
-3.0000

> <Gold.PLP.part.metal>
0.0000

> <Gold.PLP.part.buried>
-4.0488

> <Gold.PLP.part.nonpolar>
-26.7847

> <Gold.PLP.part.repulsive>
0.4987

> <Gold.PLP.ligand.clash>
0.0000

> <Gold.PLP.ligand.torsion>
0.4412

> <Gold.PLP.Chemscore.Hbond>
3.9600

> <Gold.PLP.Chemscore.CHOScore>
0.0000

> <Gold.PLP.Chemscore.Metal>
0.0000

> <Gold.Chemscore.Hbonds>
donor molecule, donor type, donor heavy atom, donor atom, acceptor molecule, acceptor atom, score
      L1  H     3    43       P1  8028  2.00
      L1  H     7    28       P1  7948  0.98
      L1  H    10    29       P1  7948  1.00

> <Gold.PLP.Chemscore.Internal.Correction>
0.2068

> <Gold.Rescore>
     Score         DG    S(hbond)    S(metal)    S(lipo)     H(rot)  DE(clash)    DE(int)     intcor
     21.68     -22.71       2.90        0.00      86.34       1.00       0.11       0.92       ----

> <Gold.Chemscore.Fitness>
21.6836

> <Gold.Chemscore.DG>
-22.7109

> <Gold.Chemscore.ZeroCoef>
-5.4800

> <Gold.Chemscore.Hbond>
2.9009

> <Gold.Chemscore.Metal>
0.0000

> <Gold.Chemscore.Lipo>
86.3411

> <Gold.Chemscore.Internal_Hbond>
0.0000

> <Gold.Chemscore.DEClash>
0.1085

> <Gold.Chemscore.DEInternal>
0.9188

> <Gold.Chemscore.Rot>
1.0000

> <Gold.Chemscore.Internal.Correction>
   9.000000E+99

> <Gold.Chemscore.Hbonds>
donor molecule, donor type, donor heavy atom, donor atom, acceptor molecule, acceptor atom, score
      L1  H     3    43       P1  8028  0.99
      L1  H     7    28       P1  7948  0.92
      L1  H    10    29       P1  7948  0.98

> <Gold.Chemscore.Hbond.Weighted>
-9.6890

> <Gold.Chemscore.Metal.Weighted>
-0.0000

> <Gold.Chemscore.Lipo.Weighted>
-10.1019

> <Gold.Chemscore.Internal_Hbond.Weighted>
0.0000

> <Gold.Chemscore.DEClash.Weighted>
0.1085

> <Gold.Chemscore.DEInternal.Weighted>
0.9188

> <Gold.Chemscore.Rot.Weighted>
2.5600

> <Gold.Chemscore.Internal.Correction.Weighted>
   9.000000E+99

> <Gold.Protein.RotatedTorsions>
[ 6907 6896 6895 6894 ] final  -96.01 input  -60.11 | X-H torsion
[ 7974 7965 7964 7962 ] final  109.96 input  175.53 | X-H torsion
[ 8008 7997 7996 7995 ] final -157.58 input   59.86 | X-H torsion
[ 10167 10162 10161 10158 ] final  161.79 input  -65.29 | X-H torsion
[ 10718 10713 10712 10709 ] final   37.26 input   66.30 | X-H torsion
[ 10763 10752 10751 10750 ] final   97.37 input  -60.55 | X-H torsion
[ 11005 11000 10999 10996 ] final -152.30 input  -57.11 | X-H torsion

> <Gold.Protein.ActiveResidues>
 VAL166  LYS551  ARG553  GLY616  TRP617  ASP618  TYR619  PRO620  LYS621  CYS622 
 ASP623  PHE694  ASN695  SER759  ASP760  ASP761  ALA762  ILE779  LEU786  VAL792 
 PHE793  MET794  SER795  GLU796  ALA797  LYS798  CYS799  TRP800  GLU811  SER814 

> <Gold.Protein.RotatedAtoms>
  150.6978  134.1569  159.4161 H   0  0  0  0  0  0  0  0  0  0  0  0  # atno 6907 bound_to 6896
  151.9550  135.0148  160.0553 H   0  0  0  0  0  0  0  0  0  0  0  0  # atno 6908 bound_to 6896
  152.1977  133.4783  159.5078 H   0  0  0  0  0  0  0  0  0  0  0  0  # atno 6909 bound_to 6896
  145.2611  139.2702  143.4016 H   0  0  0  0  0  0  0  0  0  0  0  0  # atno 7974 bound_to 7965
  155.7346  140.0806  157.2273 H   0  0  0  0  0  0  0  0  0  0  0  0  # atno 8008 bound_to 7997
  154.4029  140.1589  156.2602 H   0  0  0  0  0  0  0  0  0  0  0  0  # atno 8009 bound_to 7997
  155.9077  140.3406  155.6077 H   0  0  0  0  0  0  0  0  0  0  0  0  # atno 8010 bound_to 7997
  139.4853  144.4501  151.8840 H   0  0  0  0  0  0  0  0  0  0  0  0  # atno 10167 bound_to 10162
  157.3447  130.7566  149.6936 H   0  0  0  0  0  0  0  0  0  0  0  0  # atno 10718 bound_to 10713
  153.2761  135.4185  155.1035 H   0  0  0  0  0  0  0  0  0  0  0  0  # atno 10763 bound_to 10752
  154.8473  135.3484  154.6176 H   0  0  0  0  0  0  0  0  0  0  0  0  # atno 10764 bound_to 10752
  153.6596  135.7049  153.5239 H   0  0  0  0  0  0  0  0  0  0  0  0  # atno 10765 bound_to 10752
  140.7204  134.3733  157.5184 H   0  0  0  0  0  0  0  0  0  0  0  0  # atno 11005 bound_to 11000
  146.3275  140.3029  142.8622 LP  0  0  0  0  0  0  0  0  0  0  0  0  # atno 17320 bound_to 7965
  144.9417  140.8085  143.5626 LP  0  0  0  0  0  0  0  0  0  0  0  0  # atno 17321 bound_to 7965
  140.3958  144.2557  150.5896 LP  0  0  0  0  0  0  0  0  0  0  0  0  # atno 17342 bound_to 10162
  140.5104  143.2292  151.8544 LP  0  0  0  0  0  0  0  0  0  0  0  0  # atno 17343 bound_to 10162
  155.9712  130.4157  150.4197 LP  0  0  0  0  0  0  0  0  0  0  0  0  # atno 17370 bound_to 10713
  157.2250  131.0491  151.2525 LP  0  0  0  0  0  0  0  0  0  0  0  0  # atno 17371 bound_to 10713
  139.8849  134.8951  156.2672 LP  0  0  0  0  0  0  0  0  0  0  0  0  # atno 17394 bound_to 11000
  141.0008  133.7152  156.0958 LP  0  0  0  0  0  0  0  0  0  0  0  0  # atno 17395 bound_to 11000

$$$$
