AV-unprocessed.smi:2453|AV-procd|sdf|9694|dock5
  -GOLD-   2272013333D 1   1.00000     0.00000
 Structure written by MMmdl.
 41 42  0  0  0  0  0  0  0  0  2 V2000
  150.2040  138.7404  154.4869 C   0  0  0  0  0  0  0  0  0  0  0  0
  149.1274  139.8023  154.3461 C   0  0  0  0  0  0  0  0  0  0  0  0
  149.4021  141.1280  154.7472 C   0  0  0  0  0  0  0  0  0  0  0  0
  148.4561  142.0831  154.6264 N   0  3  0  0  0  0  0  0  0  0  0  0
  147.2284  141.8343  154.1254 C   0  0  0  0  0  0  0  0  0  0  0  0
  146.8912  140.5324  153.7057 C   0  0  0  0  0  0  0  0  0  0  0  0
  147.8454  139.4892  153.8249 C   0  0  0  0  0  0  0  0  0  0  0  0
  147.5909  138.1538  153.4011 N   0  0  0  0  0  0  0  0  0  0  0  0
  146.4315  137.4739  153.4134 C   0  0  0  0  0  0  0  0  0  0  0  0
  145.3614  137.9013  153.8461 O   0  0  0  0  0  0  0  0  0  0  0  0
  146.5864  136.2443  152.9020 N   0  0  0  0  0  0  0  0  0  0  0  0
  145.5285  135.2440  152.7698 C   0  0  1  0  0  0  0  0  0  0  0  0
  144.3754  135.8165  151.9177 C   0  0  0  0  0  0  0  0  0  0  0  0
  143.2656  134.7797  151.6932 C   0  0  0  0  0  0  0  0  0  0  0  0
  143.8268  133.5046  151.0502 C   0  0  0  0  0  0  0  0  0  0  0  0
  144.9606  132.9129  151.9008 C   0  0  0  0  0  0  0  0  0  0  0  0
  146.0893  133.9377  152.1477 C   0  0  2  0  0  0  0  0  0  0  0  0
  147.2549  133.3164  152.9501 C   0  0  0  0  0  0  0  0  0  0  0  0
  147.4782  131.9681  152.5905 O   0  0  0  0  0  0  0  0  0  0  0  0
  151.1148  139.1540  154.9208 H   0  0  0  0  0  0  0  0  0  0  0  0
  150.4557  138.3205  153.5126 H   0  0  0  0  0  0  0  0  0  0  0  0
  149.8603  137.9325  155.1337 H   0  0  0  0  0  0  0  0  0  0  0  0
  150.3469  141.4541  155.1575 H   0  0  0  0  0  0  0  0  0  0  0  0
  146.5587  142.6799  154.0682 H   0  0  0  0  0  0  0  0  0  0  0  0
  145.9107  140.3640  153.2877 H   0  0  0  0  0  0  0  0  0  0  0  0
  148.4027  137.6352  153.0996 H   0  0  0  0  0  0  0  0  0  0  0  0
  147.5029  135.9770  152.5740 H   0  0  0  0  0  0  0  0  0  0  0  0
  145.1367  135.0082  153.7613 H   0  0  0  0  0  0  0  0  0  0  0  0
  143.9527  136.6988  152.3996 H   0  0  0  0  0  0  0  0  0  0  0  0
  144.7594  136.1480  150.9518 H   0  0  0  0  0  0  0  0  0  0  0  0
  142.7957  134.5340  152.6462 H   0  0  0  0  0  0  0  0  0  0  0  0
  142.4836  135.2025  151.0620 H   0  0  0  0  0  0  0  0  0  0  0  0
  143.0312  132.7689  150.9276 H   0  0  0  0  0  0  0  0  0  0  0  0
  144.1971  133.7298  150.0492 H   0  0  0  0  0  0  0  0  0  0  0  0
  144.5525  132.5726  152.8534 H   0  0  0  0  0  0  0  0  0  0  0  0
  145.3619  132.0285  151.4051 H   0  0  0  0  0  0  0  0  0  0  0  0
  146.4955  134.1963  151.1681 H   0  0  0  0  0  0  0  0  0  0  0  0
  148.1730  133.8785  152.7769 H   0  0  0  0  0  0  0  0  0  0  0  0
  147.0605  133.3647  154.0216 H   0  0  0  0  0  0  0  0  0  0  0  0
  147.8804  131.9467  151.7356 H   0  0  0  0  0  0  0  0  0  0  0  0
  148.6802  143.0338  154.9217 H   0  0  0  0  0  0  0  0  0  0  0  0
  1  2  1  0  0  0  0
  1 20  1  0  0  0  0
  1 21  1  0  0  0  0
  1 22  1  0  0  0  0
  2  7  1  0  0  0  0
  2  3  2  0  0  0  0
  3  4  1  0  0  0  0
  3 23  1  0  0  0  0
  4  5  2  0  0  0  0
  4 41  1  0  0  0  0
  5  6  1  0  0  0  0
  5 24  1  0  0  0  0
  6  7  2  0  0  0  0
  6 25  1  0  0  0  0
  7  8  1  0  0  0  0
  8  9  1  0  0  0  0
  8 26  1  0  0  0  0
  9 10  2  0  0  0  0
  9 11  1  0  0  0  0
 11 12  1  0  0  0  0
 11 27  1  0  0  0  0
 12 17  1  0  0  0  0
 12 13  1  0  0  0  0
 12 28  1  0  0  0  0
 13 14  1  0  0  0  0
 13 29  1  0  0  0  0
 13 30  1  0  0  0  0
 14 15  1  0  0  0  0
 14 31  1  0  0  0  0
 14 32  1  0  0  0  0
 15 16  1  0  0  0  0
 15 33  1  0  0  0  0
 15 34  1  0  0  0  0
 16 17  1  0  0  0  0
 16 35  1  0  0  0  0
 16 36  1  0  0  0  0
 17 18  1  0  0  0  0
 17 37  1  0  0  0  0
 18 19  1  0  0  0  0
 18 38  1  0  0  0  0
 18 39  1  0  0  0  0
 19 40  1  0  0  0  0
M  CHG  1   4   1
M  END
> <s_m_source_file>
AV-unprocessed.smi

> <i_m_source_file_index>
2453

> <i_lp_mmshare_version>
43012

> <i_f3d_flags>
0

> <s_epik_input>
W0NIM11jMVtjSF1uW2NIXVtjSF1jMVtOSF1DKD1PKVtOSF1bQ0BASF0yW0NIMl1bQ0gyXVtDSDJdW0NIMl1bQ0BIXTJbQ0gyXVtPSF0=

> <s_epik_cmdline>
J2VwaWtfcHl0aG9uJywgJy1waCcsICc3LjAnLCAnLXRuJywgJzgnLCAnLW1hJywgJzIwMCcsICctbWV0YWxfYmluZGluZycsICctaW1hZScsICc8aW5maWxlLm1hZT4nLCAnLW9tYWUnLCAnPG91dGZpbGUubWFlPic=

> <r_epik_Ionization_Penalty>
0.71493

> <r_epik_Ionization_Penalty_Charging>
0.714909

> <r_epik_Ionization_Penalty_Neutral>
2.10174e-05

> <r_epik_State_Penalty>
0.738815

> <r_epik_Charging_Adjusted_Penalty>
1.45372

> <i_epik_Tot_Q>
1

> <i_epik_Tot_abs_Q>
1

> <r_epik_Metal_State_Penalty>
0.896004

> <b_epik_Metal_Only>
0

> <s_lp_Force_Field>
OPLS_2005

> <r_lp_Energy>
25.5942

> <b_lp_Chiralities_Consistent>
1

> <s_lp_Variant>
AV-unprocessed.smi:2453-8

> <Gold.Version>
5.8.1

> <Gold.Id.Protein>
6NUR|6NUR_protein|mol2

> <Gold.PLP.Fitness>
46.2646

> <Gold.PLP.PLP>
-32.8087

> <Gold.PLP.part.hbond>
-3.8264

> <Gold.PLP.part.metal>
0.0000

> <Gold.PLP.part.buried>
-4.4767

> <Gold.PLP.part.nonpolar>
-26.2028

> <Gold.PLP.part.repulsive>
0.3868

> <Gold.PLP.ligand.clash>
0.0000

> <Gold.PLP.ligand.torsion>
0.4077

> <Gold.PLP.Chemscore.Hbond>
4.7513

> <Gold.PLP.Chemscore.CHOScore>
0.0000

> <Gold.PLP.Chemscore.Metal>
0.0000

> <Gold.Chemscore.Hbonds>
donor molecule, donor type, donor heavy atom, donor atom, acceptor molecule, acceptor atom, score
      L1  H     4    41       P1  8028  2.00
      L1  H     8    26       P1  7948  0.85
      L1  H    11    27       P1  7948  1.00
      L1  H    19    40       P1 10747  0.75

> <Gold.PLP.Chemscore.Internal.Correction>
0.0175

> <Gold.Rescore>
     Score         DG    S(hbond)    S(metal)    S(lipo)     H(rot)  DE(clash)    DE(int)     intcor
     20.94     -22.26       3.76        0.00      75.01       1.77       0.06       1.27       ----

> <Gold.Chemscore.Fitness>
20.9353

> <Gold.Chemscore.DG>
-22.2592

> <Gold.Chemscore.ZeroCoef>
-5.4800

> <Gold.Chemscore.Hbond>
3.7561

> <Gold.Chemscore.Metal>
0.0000

> <Gold.Chemscore.Lipo>
75.0062

> <Gold.Chemscore.Internal_Hbond>
0.0000

> <Gold.Chemscore.DEClash>
0.0575

> <Gold.Chemscore.DEInternal>
1.2664

> <Gold.Chemscore.Rot>
1.7742

> <Gold.Chemscore.Internal.Correction>
   9.000000E+99

> <Gold.Chemscore.Hbonds>
donor molecule, donor type, donor heavy atom, donor atom, acceptor molecule, acceptor atom, score
      L1  H     4    41       P1  8028  1.00
      L1  H     8    26       P1  7948  0.82
      L1  H    11    27       P1  7948  0.97
      L1  H    19    40       P1 10747  0.71

> <Gold.Chemscore.Hbond.Weighted>
-12.5454

> <Gold.Chemscore.Metal.Weighted>
-0.0000

> <Gold.Chemscore.Lipo.Weighted>
-8.7757

> <Gold.Chemscore.Internal_Hbond.Weighted>
0.0000

> <Gold.Chemscore.DEClash.Weighted>
0.0575

> <Gold.Chemscore.DEInternal.Weighted>
1.2664

> <Gold.Chemscore.Rot.Weighted>
4.5419

> <Gold.Chemscore.Internal.Correction.Weighted>
   9.000000E+99

> <Gold.Protein.RotatedTorsions>
[ 6907 6896 6895 6894 ] final  -52.73 input  -60.11 | X-H torsion
[ 7974 7965 7964 7962 ] final   57.73 input  175.53 | X-H torsion
[ 8008 7997 7996 7995 ] final  134.28 input   59.86 | X-H torsion
[ 10167 10162 10161 10158 ] final  -42.64 input  -65.29 | X-H torsion
[ 10718 10713 10712 10709 ] final   84.06 input   66.30 | X-H torsion
[ 10763 10752 10751 10750 ] final   27.30 input  -60.55 | X-H torsion
[ 11005 11000 10999 10996 ] final  -49.45 input  -57.11 | X-H torsion

> <Gold.Protein.ActiveResidues>
 VAL166  LYS551  ARG553  GLY616  TRP617  ASP618  TYR619  PRO620  LYS621  CYS622 
 ASP623  PHE694  ASN695  SER759  ASP760  ASP761  ALA762  ILE779  LEU786  VAL792 
 PHE793  MET794  SER795  GLU796  ALA797  LYS798  CYS799  TRP800  GLU811  SER814 

> <Gold.Protein.RotatedAtoms>
  150.8491  134.7810  159.6994 H   0  0  0  0  0  0  0  0  0  0  0  0  # atno 6907 bound_to 6896
  152.4560  134.5286  159.9814 H   0  0  0  0  0  0  0  0  0  0  0  0  # atno 6908 bound_to 6896
  151.5411  133.3395  159.2971 H   0  0  0  0  0  0  0  0  0  0  0  0  # atno 6909 bound_to 6896
  145.9259  139.3767  143.0450 H   0  0  0  0  0  0  0  0  0  0  0  0  # atno 7974 bound_to 7965
  156.2998  140.2500  156.3392 H   0  0  0  0  0  0  0  0  0  0  0  0  # atno 8008 bound_to 7997
  154.9071  140.0404  157.1945 H   0  0  0  0  0  0  0  0  0  0  0  0  # atno 8009 bound_to 7997
  154.8442  140.2896  155.5644 H   0  0  0  0  0  0  0  0  0  0  0  0  # atno 8010 bound_to 7997
  140.6962  143.3027  151.3237 H   0  0  0  0  0  0  0  0  0  0  0  0  # atno 10167 bound_to 10162
  157.6891  131.0117  150.2617 H   0  0  0  0  0  0  0  0  0  0  0  0  # atno 10718 bound_to 10713
  153.0565  135.6540  154.0565 H   0  0  0  0  0  0  0  0  0  0  0  0  # atno 10763 bound_to 10752
  154.0242  135.2917  155.3378 H   0  0  0  0  0  0  0  0  0  0  0  0  # atno 10764 bound_to 10752
  154.6882  135.5293  153.8423 H   0  0  0  0  0  0  0  0  0  0  0  0  # atno 10765 bound_to 10752
  141.0760  133.6666  156.3588 H   0  0  0  0  0  0  0  0  0  0  0  0  # atno 11005 bound_to 11000
  145.8490  140.9539  143.0760 LP  0  0  0  0  0  0  0  0  0  0  0  0  # atno 17320 bound_to 7965
  144.6758  140.0382  143.7481 LP  0  0  0  0  0  0  0  0  0  0  0  0  # atno 17321 bound_to 7965
  139.6421  144.0520  152.2562 LP  0  0  0  0  0  0  0  0  0  0  0  0  # atno 17342 bound_to 10162
  140.0029  144.6280  150.7714 LP  0  0  0  0  0  0  0  0  0  0  0  0  # atno 17343 bound_to 10162
  156.3195  130.3783  149.7588 LP  0  0  0  0  0  0  0  0  0  0  0  0  # atno 17370 bound_to 10713
  156.5163  130.8195  151.3187 LP  0  0  0  0  0  0  0  0  0  0  0  0  # atno 17371 bound_to 10713
  140.5572  134.5970  157.5424 LP  0  0  0  0  0  0  0  0  0  0  0  0  # atno 17394 bound_to 11000
  139.9572  134.7514  156.0315 LP  0  0  0  0  0  0  0  0  0  0  0  0  # atno 17395 bound_to 11000

$$$$
