AV-unprocessed.smi:1269|AV-procd|sdf|5329|dock3
  -GOLD-   22720 4453D 1   1.00000     0.00000
 Structure written by MMmdl.
 44 45  0  0  0  0  0  0  0  0  2 V2000
  150.9561  141.8473  157.6038 C   0  0  0  0  0  0  0  0  0  0  0  0
  150.6705  141.6413  156.2247 O   0  0  0  0  0  0  0  0  0  0  0  0
  150.3575  140.3650  155.8042 C   0  0  0  0  0  0  0  0  0  0  0  0
  149.9627  139.4156  156.7672 C   0  0  0  0  0  0  0  0  0  0  0  0
  149.6388  138.1114  156.3470 C   0  0  0  0  0  0  0  0  0  0  0  0
  149.7269  137.7932  154.9698 C   0  0  0  0  0  0  0  0  0  0  0  0
  149.4155  136.5246  154.4066 N   0  0  0  0  0  0  0  0  0  0  0  0
  149.0112  135.3986  155.0191 C   0  0  0  0  0  0  0  0  0  0  0  0
  148.8671  135.2556  156.2325 O   0  0  0  0  0  0  0  0  0  0  0  0
  148.7720  134.4238  154.1292 N   0  0  0  0  0  0  0  0  0  0  0  0
  148.3304  133.0627  154.4401 C   0  0  2  0  0  0  0  0  0  0  0  0
  149.0788  132.5657  155.6846 C   0  0  0  0  0  0  0  0  0  0  0  0
  148.5455  132.1127  153.2389 C   0  0  0  0  0  0  0  0  0  0  0  0
  147.4123  132.1223  152.2793 N   0  3  0  0  0  0  0  0  0  0  0  0
  146.1962  131.4597  152.8053 C   0  0  0  0  0  0  0  0  0  0  0  0
  145.0990  131.4320  151.7273 C   0  0  0  0  0  0  0  0  0  0  0  0
  144.8223  132.7573  151.2901 O   0  0  0  0  0  0  0  0  0  0  0  0
  145.9644  133.3800  150.7138 C   0  0  0  0  0  0  0  0  0  0  0  0
  147.0831  133.4733  151.7641 C   0  0  0  0  0  0  0  0  0  0  0  0
  150.1268  138.8185  154.0873 C   0  0  0  0  0  0  0  0  0  0  0  0
  150.4365  140.0707  154.4831 N   0  0  0  0  0  0  0  0  0  0  0  0
  151.1812  142.9005  157.7713 H   0  0  0  0  0  0  0  0  0  0  0  0
  151.8245  141.2686  157.9221 H   0  0  0  0  0  0  0  0  0  0  0  0
  150.1026  141.5874  158.2319 H   0  0  0  0  0  0  0  0  0  0  0  0
  149.9054  139.6846  157.8117 H   0  0  0  0  0  0  0  0  0  0  0  0
  149.3224  137.3969  157.0895 H   0  0  0  0  0  0  0  0  0  0  0  0
  149.5376  136.4619  153.4062 H   0  0  0  0  0  0  0  0  0  0  0  0
  148.9216  134.6346  153.1529 H   0  0  0  0  0  0  0  0  0  0  0  0
  147.2707  133.0805  154.6982 H   0  0  0  0  0  0  0  0  0  0  0  0
  148.7488  131.5656  155.9674 H   0  0  0  0  0  0  0  0  0  0  0  0
  148.9023  133.2217  156.5379 H   0  0  0  0  0  0  0  0  0  0  0  0
  150.1550  132.5242  155.5131 H   0  0  0  0  0  0  0  0  0  0  0  0
  149.4538  132.4244  152.7204 H   0  0  0  0  0  0  0  0  0  0  0  0
  148.7275  131.0921  153.5796 H   0  0  0  0  0  0  0  0  0  0  0  0
  146.4313  130.4398  153.1124 H   0  0  0  0  0  0  0  0  0  0  0  0
  145.8422  131.9903  153.6906 H   0  0  0  0  0  0  0  0  0  0  0  0
  145.4010  130.8133  150.8805 H   0  0  0  0  0  0  0  0  0  0  0  0
  144.1856  130.9949  152.1311 H   0  0  0  0  0  0  0  0  0  0  0  0
  146.2985  132.8199  149.8385 H   0  0  0  0  0  0  0  0  0  0  0  0
  145.6886  134.3768  150.3689 H   0  0  0  0  0  0  0  0  0  0  0  0
  146.7692  134.1158  152.5883 H   0  0  0  0  0  0  0  0  0  0  0  0
  147.9621  133.9358  151.3164 H   0  0  0  0  0  0  0  0  0  0  0  0
  150.2021  138.6290  153.0263 H   0  0  0  0  0  0  0  0  0  0  0  0
  147.7102  131.5723  151.4858 H   0  0  0  0  0  0  0  0  0  0  0  0
  1  2  1  0  0  0  0
  1 22  1  0  0  0  0
  1 23  1  0  0  0  0
  1 24  1  0  0  0  0
  2  3  1  0  0  0  0
  3 21  1  0  0  0  0
  3  4  2  0  0  0  0
  4  5  1  0  0  0  0
  4 25  1  0  0  0  0
  5  6  2  0  0  0  0
  5 26  1  0  0  0  0
  6  7  1  0  0  0  0
  6 20  1  0  0  0  0
  7  8  1  0  0  0  0
  7 27  1  0  0  0  0
  8  9  2  0  0  0  0
  8 10  1  0  0  0  0
 10 11  1  0  0  0  0
 10 28  1  0  0  0  0
 11 12  1  0  0  0  0
 11 13  1  0  0  0  0
 11 29  1  0  0  0  0
 12 30  1  0  0  0  0
 12 31  1  0  0  0  0
 12 32  1  0  0  0  0
 13 14  1  0  0  0  0
 13 33  1  0  0  0  0
 13 34  1  0  0  0  0
 14 19  1  0  0  0  0
 14 15  1  0  0  0  0
 14 44  1  0  0  0  0
 15 16  1  0  0  0  0
 15 35  1  0  0  0  0
 15 36  1  0  0  0  0
 16 17  1  0  0  0  0
 16 37  1  0  0  0  0
 16 38  1  0  0  0  0
 17 18  1  0  0  0  0
 18 19  1  0  0  0  0
 18 39  1  0  0  0  0
 18 40  1  0  0  0  0
 19 41  1  0  0  0  0
 19 42  1  0  0  0  0
 20 21  2  0  0  0  0
 20 43  1  0  0  0  0
M  CHG  1  14   1
M  END
> <s_m_source_file>
AV-unprocessed.smi

> <i_m_source_file_index>
1269

> <i_lp_mmshare_version>
43012

> <i_f3d_flags>
0

> <s_epik_input>
W0NIM11PYzFbY0hdW2NIXWMoW2NIXW4xKVtOSF1DKD1PKVtOSF1bQ0BIXShbQ0gzXSlbQ0gyXU4yW0NIMl1bQ0gyXU9bQ0gyXVtDSDJdMg==

> <s_epik_cmdline>
J2VwaWtfcHl0aG9uJywgJy1waCcsICc3LjAnLCAnLXRuJywgJzgnLCAnLW1hJywgJzIwMCcsICctbWV0YWxfYmluZGluZycsICctaW1hZScsICc8aW5maWxlLm1hZT4nLCAnLW9tYWUnLCAnPG91dGZpbGUubWFlPic=

> <r_lp_tautomer_probability>
1

> <r_epik_Ionization_Penalty>
0.602604

> <r_epik_Ionization_Penalty_Charging>
0.602531

> <r_epik_Ionization_Penalty_Neutral>
7.37831e-05

> <r_epik_State_Penalty>
0.617039

> <r_epik_Charging_Adjusted_Penalty>
1.21957

> <i_epik_Tot_Q>
1

> <i_epik_Tot_abs_Q>
1

> <r_epik_Metal_State_Penalty>
0.617045

> <b_epik_Metal_Only>
0

> <s_lp_Force_Field>
OPLS_2005

> <r_lp_Energy>
25.4267

> <b_lp_Chiralities_Consistent>
1

> <s_lp_Variant>
AV-unprocessed.smi:1269-3

> <Gold.Version>
5.8.1

> <Gold.Id.Protein>
6NUR|6NUR_protein|mol2

> <Gold.PLP.Fitness>
42.2047

> <Gold.PLP.PLP>
-29.7434

> <Gold.PLP.part.hbond>
-4.0000

> <Gold.PLP.part.metal>
0.0000

> <Gold.PLP.part.buried>
-4.6991

> <Gold.PLP.part.nonpolar>
-21.6347

> <Gold.PLP.part.repulsive>
0.3259

> <Gold.PLP.ligand.clash>
0.0000

> <Gold.PLP.ligand.torsion>
0.8435

> <Gold.PLP.Chemscore.Hbond>
3.6240

> <Gold.PLP.Chemscore.CHOScore>
1.0821

> <Gold.PLP.Chemscore.Metal>
0.0000

> <Gold.Chemscore.Hbonds>
donor molecule, donor type, donor heavy atom, donor atom, acceptor molecule, acceptor atom, score
      L1  H     7    27       P1  7948  1.00
      L1  H    10    28       P1  7948  0.64
      L1  H    14    44       P1 10747  1.00
      P1  H  7989  7998       L1    21  1.00
      L1  C    20    43       P1  7948  0.08
      L1  C    20    43       P1  7957  1.00

> <Gold.PLP.Chemscore.Internal.Correction>
0.0300

> <Gold.Rescore>
     Score         DG    S(hbond)    S(metal)    S(lipo)     H(rot)  DE(clash)    DE(int)     intcor
     14.31     -18.22       2.77        0.00      68.68       1.78       0.06       3.85       ----

> <Gold.Chemscore.Fitness>
14.3066

> <Gold.Chemscore.DG>
-18.2177

> <Gold.Chemscore.ZeroCoef>
-5.4800

> <Gold.Chemscore.Hbond>
2.7723

> <Gold.Chemscore.Metal>
0.0000

> <Gold.Chemscore.Lipo>
68.6759

> <Gold.Chemscore.Internal_Hbond>
0.0000

> <Gold.Chemscore.DEClash>
0.0578

> <Gold.Chemscore.DEInternal>
3.8532

> <Gold.Chemscore.Rot>
1.7801

> <Gold.Chemscore.Internal.Correction>
   9.000000E+99

> <Gold.Chemscore.Hbonds>
donor molecule, donor type, donor heavy atom, donor atom, acceptor molecule, acceptor atom, score
      L1  H     7    27       P1  7948  0.59
      L1  H    10    28       P1  7948  0.07
      L1  H    14    44       P1 10747  0.98
      P1  H  7989  7998       L1    21  0.88

> <Gold.Chemscore.Hbond.Weighted>
-9.2596

> <Gold.Chemscore.Metal.Weighted>
-0.0000

> <Gold.Chemscore.Lipo.Weighted>
-8.0351

> <Gold.Chemscore.Internal_Hbond.Weighted>
0.0000

> <Gold.Chemscore.DEClash.Weighted>
0.0578

> <Gold.Chemscore.DEInternal.Weighted>
3.8532

> <Gold.Chemscore.Rot.Weighted>
4.5570

> <Gold.Chemscore.Internal.Correction.Weighted>
   9.000000E+99

> <Gold.Protein.RotatedTorsions>
[ 6907 6896 6895 6894 ] final  -70.75 input  -60.11 | X-H torsion
[ 7974 7965 7964 7962 ] final   54.76 input  175.53 | X-H torsion
[ 8008 7997 7996 7995 ] final    4.80 input   59.86 | X-H torsion
[ 10167 10162 10161 10158 ] final  -43.27 input  -65.29 | X-H torsion
[ 10718 10713 10712 10709 ] final  -32.61 input   66.30 | X-H torsion
[ 10763 10752 10751 10750 ] final -106.02 input  -60.55 | X-H torsion
[ 11005 11000 10999 10996 ] final    7.06 input  -57.11 | X-H torsion

> <Gold.Protein.ActiveResidues>
 VAL166  LYS551  ARG553  GLY616  TRP617  ASP618  TYR619  PRO620  LYS621  CYS622 
 ASP623  PHE694  ASN695  SER759  ASP760  ASP761  ALA762  ILE779  LEU786  VAL792 
 PHE793  MET794  SER795  GLU796  ALA797  LYS798  CYS799  TRP800  GLU811  SER814 

> <Gold.Protein.RotatedAtoms>
  150.7243  134.5408  159.5745 H   0  0  0  0  0  0  0  0  0  0  0  0  # atno 6907 bound_to 6896
  152.2919  134.7709  160.0385 H   0  0  0  0  0  0  0  0  0  0  0  0  # atno 6908 bound_to 6896
  151.8319  133.3374  159.3653 H   0  0  0  0  0  0  0  0  0  0  0  0  # atno 6909 bound_to 6896
  145.9575  139.4028  143.0268 H   0  0  0  0  0  0  0  0  0  0  0  0  # atno 7974 bound_to 7965
  154.7204  140.2710  155.6547 H   0  0  0  0  0  0  0  0  0  0  0  0  # atno 8008 bound_to 7997
  156.2822  140.2735  156.1798 H   0  0  0  0  0  0  0  0  0  0  0  0  # atno 8009 bound_to 7997
  155.0515  140.0371  157.2535 H   0  0  0  0  0  0  0  0  0  0  0  0  # atno 8010 bound_to 7997
  140.6940  143.2992  151.3328 H   0  0  0  0  0  0  0  0  0  0  0  0  # atno 10167 bound_to 10162
  156.3728  130.4342  149.7531 H   0  0  0  0  0  0  0  0  0  0  0  0  # atno 10718 bound_to 10713
  154.7985  135.4727  154.0218 H   0  0  0  0  0  0  0  0  0  0  0  0  # atno 10763 bound_to 10752
  153.1742  135.6830  153.8573 H   0  0  0  0  0  0  0  0  0  0  0  0  # atno 10764 bound_to 10752
  153.8145  135.3212  155.3382 H   0  0  0  0  0  0  0  0  0  0  0  0  # atno 10765 bound_to 10752
  140.5524  134.0270  155.7942 H   0  0  0  0  0  0  0  0  0  0  0  0  # atno 11005 bound_to 11000
  145.8086  140.9737  143.0961 LP  0  0  0  0  0  0  0  0  0  0  0  0  # atno 17320 bound_to 7965
  144.6808  139.9892  143.7484 LP  0  0  0  0  0  0  0  0  0  0  0  0  # atno 17321 bound_to 7965
  139.6373  144.0605  152.2526 LP  0  0  0  0  0  0  0  0  0  0  0  0  # atno 17342 bound_to 10162
  140.0100  144.6231  150.7656 LP  0  0  0  0  0  0  0  0  0  0  0  0  # atno 17343 bound_to 10162
  156.4652  130.7970  151.2990 LP  0  0  0  0  0  0  0  0  0  0  0  0  # atno 17370 bound_to 10713
  157.7485  131.0053  150.3109 LP  0  0  0  0  0  0  0  0  0  0  0  0  # atno 17371 bound_to 10713
  141.1163  133.9534  157.2815 LP  0  0  0  0  0  0  0  0  0  0  0  0  # atno 17394 bound_to 11000
  139.9448  135.0186  156.8820 LP  0  0  0  0  0  0  0  0  0  0  0  0  # atno 17395 bound_to 11000

$$$$
