AV-unprocessed.smi:2526|AV-procd|sdf|9941|dock5
  -GOLD-   2272013583D 1   1.00000     0.00000
 Structure written by MMmdl.
 28 29  0  0  0  0  0  0  0  0  1 V2000
  151.7779  144.8971  159.9162 C   0  0  0  0  0  0  0  0  0  0  0  0
  151.1718  143.9456  159.0097 N   0  0  0  0  0  0  0  0  0  0  0  0
  151.6469  143.4903  157.7993 C   0  0  0  0  0  0  0  0  0  0  0  0
  150.7304  142.6055  157.3005 C   0  0  0  0  0  0  0  0  0  0  0  0
  150.7611  141.8178  156.0114 C   0  0  1  0  0  0  0  0  0  0  0  0
  151.8732  140.8617  156.0149 N   0  0  0  0  0  0  0  0  0  0  0  0
  151.8726  139.6113  155.5192 C   0  0  0  0  0  0  0  0  0  0  0  0
  152.8845  138.9145  155.5361 O   0  0  0  0  0  0  0  0  0  0  0  0
  150.5689  139.0340  154.9494 C   0  0  0  0  0  0  0  0  0  0  0  0
  149.5292  140.1100  154.6039 C   0  0  0  0  0  0  0  0  0  0  0  0
  149.4037  141.1230  155.7474 C   0  0  2  0  0  0  0  0  0  0  0  0
  148.3730  142.0949  155.4291 N   0  0  0  0  0  0  0  0  0  0  0  0
  149.7172  142.5900  158.3026 C   0  0  0  0  0  0  0  0  0  0  0  0
  149.9817  143.3931  159.3199 N   0  0  0  0  0  0  0  0  0  0  0  0
  152.8484  144.9677  159.7205 H   0  0  0  0  0  0  0  0  0  0  0  0
  151.6288  144.5795  160.9489 H   0  0  0  0  0  0  0  0  0  0  0  0
  151.3244  145.8782  159.7734 H   0  0  0  0  0  0  0  0  0  0  0  0
  152.5898  143.8298  157.3959 H   0  0  0  0  0  0  0  0  0  0  0  0
  150.9674  142.4910  155.1777 H   0  0  0  0  0  0  0  0  0  0  0  0
  152.7436  141.1991  156.4001 H   0  0  0  0  0  0  0  0  0  0  0  0
  150.7909  138.4321  154.0676 H   0  0  0  0  0  0  0  0  0  0  0  0
  150.1552  138.3547  155.6955 H   0  0  0  0  0  0  0  0  0  0  0  0
  149.8175  140.6168  153.6813 H   0  0  0  0  0  0  0  0  0  0  0  0
  148.5669  139.6347  154.4098 H   0  0  0  0  0  0  0  0  0  0  0  0
  149.0914  140.5899  156.6467 H   0  0  0  0  0  0  0  0  0  0  0  0
  147.5453  141.9038  155.9755 H   0  0  0  0  0  0  0  0  0  0  0  0
  148.6843  143.0182  155.6950 H   0  0  0  0  0  0  0  0  0  0  0  0
  148.7996  142.0207  158.3182 H   0  0  0  0  0  0  0  0  0  0  0  0
  1  2  1  0  0  0  0
  1 15  1  0  0  0  0
  1 16  1  0  0  0  0
  1 17  1  0  0  0  0
  2 14  1  0  0  0  0
  2  3  1  0  0  0  0
  3  4  2  0  0  0  0
  3 18  1  0  0  0  0
  4  5  1  0  0  0  0
  4 13  1  0  0  0  0
  5 11  1  0  0  0  0
  5  6  1  0  0  0  0
  5 19  1  0  0  0  0
  6  7  1  0  0  0  0
  6 20  1  0  0  0  0
  7  8  2  0  0  0  0
  7  9  1  0  0  0  0
  9 10  1  0  0  0  0
  9 21  1  0  0  0  0
  9 22  1  0  0  0  0
 10 11  1  0  0  0  0
 10 23  1  0  0  0  0
 10 24  1  0  0  0  0
 11 12  1  0  0  0  0
 11 25  1  0  0  0  0
 12 26  1  0  0  0  0
 12 27  1  0  0  0  0
 13 14  2  0  0  0  0
 13 28  1  0  0  0  0
M  END
> <s_m_source_file>
AV-unprocessed.smi

> <i_m_source_file_index>
2526

> <i_lp_mmshare_version>
43012

> <i_f3d_flags>
0

> <s_epik_input>
W0NIM11uMVtjSF1jKFtjSF1uMSlbQ0BASF0yW05IXUMoPU8pW0NIMl1bQ0gyXVtDQEhdMltOSDJd

> <s_epik_cmdline>
J2VwaWtfcHl0aG9uJywgJy1waCcsICc3LjAnLCAnLXRuJywgJzgnLCAnLW1hJywgJzIwMCcsICctbWV0YWxfYmluZGluZycsICctaW1hZScsICc8aW5maWxlLm1hZT4nLCAnLW9tYWUnLCAnPG91dGZpbGUubWFlPic=

> <r_lp_tautomer_probability>
1

> <r_epik_Ionization_Penalty>
2.50279

> <r_epik_Ionization_Penalty_Charging>
0

> <r_epik_Ionization_Penalty_Neutral>
2.50279

> <r_epik_State_Penalty>
2.66754

> <r_epik_Charging_Adjusted_Penalty>
2.66754

> <i_epik_Tot_Q>
0

> <i_epik_Tot_abs_Q>
0

> <r_epik_Metal_State_Penalty>
2.66721

> <b_epik_Metal_Only>
0

> <s_lp_Force_Field>
OPLS_2005

> <r_lp_Energy>
8.34042

> <b_lp_Chiralities_Consistent>
1

> <s_lp_Variant>
AV-unprocessed.smi:2526-8

> <Gold.Version>
5.8.1

> <Gold.Id.Protein>
6NUR|6NUR_protein|mol2

> <Gold.PLP.Fitness>
34.2774

> <Gold.PLP.PLP>
-28.4738

> <Gold.PLP.part.hbond>
-2.6287

> <Gold.PLP.part.metal>
0.0000

> <Gold.PLP.part.buried>
-2.7417

> <Gold.PLP.part.nonpolar>
-23.8784

> <Gold.PLP.part.repulsive>
0.2875

> <Gold.PLP.ligand.clash>
0.0000

> <Gold.PLP.ligand.torsion>
0.1112

> <Gold.PLP.Chemscore.Hbond>
2.0000

> <Gold.PLP.Chemscore.CHOScore>
0.0000

> <Gold.PLP.Chemscore.Metal>
0.0000

> <Gold.Chemscore.Hbonds>
donor molecule, donor type, donor heavy atom, donor atom, acceptor molecule, acceptor atom, score
      L1  H    12    27       P1  8028  1.00
      P1  H  7997  8010       L1     8  1.00

> <Gold.PLP.Chemscore.Internal.Correction>
0.0260

> <Gold.Rescore>
     Score         DG    S(hbond)    S(metal)    S(lipo)     H(rot)  DE(clash)    DE(int)     intcor
     15.46     -16.74       1.93        0.00      63.07       1.00       1.25       0.02       ----

> <Gold.Chemscore.Fitness>
15.4577

> <Gold.Chemscore.DG>
-16.7353

> <Gold.Chemscore.ZeroCoef>
-5.4800

> <Gold.Chemscore.Hbond>
1.9271

> <Gold.Chemscore.Metal>
0.0000

> <Gold.Chemscore.Lipo>
63.0659

> <Gold.Chemscore.Internal_Hbond>
0.0000

> <Gold.Chemscore.DEClash>
1.2550

> <Gold.Chemscore.DEInternal>
0.0226

> <Gold.Chemscore.Rot>
1.0000

> <Gold.Chemscore.Internal.Correction>
   9.000000E+99

> <Gold.Chemscore.Hbonds>
donor molecule, donor type, donor heavy atom, donor atom, acceptor molecule, acceptor atom, score
      L1  H    12    27       P1  8028  0.99
      P1  H  7997  8010       L1     8  0.53

> <Gold.Chemscore.Hbond.Weighted>
-6.4366

> <Gold.Chemscore.Metal.Weighted>
-0.0000

> <Gold.Chemscore.Lipo.Weighted>
-7.3787

> <Gold.Chemscore.Internal_Hbond.Weighted>
0.0000

> <Gold.Chemscore.DEClash.Weighted>
1.2550

> <Gold.Chemscore.DEInternal.Weighted>
0.0226

> <Gold.Chemscore.Rot.Weighted>
2.5600

> <Gold.Chemscore.Internal.Correction.Weighted>
   9.000000E+99

> <Gold.Protein.RotatedTorsions>
[ 6907 6896 6895 6894 ] final -145.33 input  -60.11 | X-H torsion
[ 7974 7965 7964 7962 ] final  176.60 input  175.53 | X-H torsion
[ 8008 7997 7996 7995 ] final   90.21 input   59.86 | X-H torsion
[ 10167 10162 10161 10158 ] final  102.35 input  -65.29 | X-H torsion
[ 10718 10713 10712 10709 ] final  -61.53 input   66.30 | X-H torsion
[ 10763 10752 10751 10750 ] final  125.33 input  -60.55 | X-H torsion
[ 11005 11000 10999 10996 ] final  -15.01 input  -57.11 | X-H torsion

> <Gold.Protein.ActiveResidues>
 VAL166  LYS551  ARG553  GLY616  TRP617  ASP618  TYR619  PRO620  LYS621  CYS622 
 ASP623  PHE694  ASN695  SER759  ASP760  ASP761  ALA762  ILE779  LEU786  VAL792 
 PHE793  MET794  SER795  GLU796  ALA797  LYS798  CYS799  TRP800  GLU811  SER814 

> <Gold.Protein.RotatedAtoms>
  151.1263  133.5068  159.2600 H   0  0  0  0  0  0  0  0  0  0  0  0  # atno 6907 bound_to 6896
  151.1807  135.0359  159.8801 H   0  0  0  0  0  0  0  0  0  0  0  0  # atno 6908 bound_to 6896
  152.5458  134.1115  159.8414 H   0  0  0  0  0  0  0  0  0  0  0  0  # atno 6909 bound_to 6896
  144.7182  140.0121  143.6440 H   0  0  0  0  0  0  0  0  0  0  0  0  # atno 7974 bound_to 7965
  156.0092  140.3352  155.6924 H   0  0  0  0  0  0  0  0  0  0  0  0  # atno 8008 bound_to 7997
  155.6181  140.0672  157.2704 H   0  0  0  0  0  0  0  0  0  0  0  0  # atno 8009 bound_to 7997
  154.4275  140.1781  156.1331 H   0  0  0  0  0  0  0  0  0  0  0  0  # atno 8010 bound_to 7997
  139.7358  144.7024  151.0652 H   0  0  0  0  0  0  0  0  0  0  0  0  # atno 10167 bound_to 10162
  156.0916  130.4199  150.1007 H   0  0  0  0  0  0  0  0  0  0  0  0  # atno 10718 bound_to 10713
  153.6756  135.3323  155.3165 H   0  0  0  0  0  0  0  0  0  0  0  0  # atno 10763 bound_to 10752
  154.8479  135.4397  154.1659 H   0  0  0  0  0  0  0  0  0  0  0  0  # atno 10764 bound_to 10752
  153.2662  135.6996  153.7604 H   0  0  0  0  0  0  0  0  0  0  0  0  # atno 10765 bound_to 10752
  140.7922  133.8279  155.9391 H   0  0  0  0  0  0  0  0  0  0  0  0  # atno 11005 bound_to 11000
  146.0250  139.3284  143.0790 LP  0  0  0  0  0  0  0  0  0  0  0  0  # atno 17320 bound_to 7965
  145.8523  140.9522  143.0743 LP  0  0  0  0  0  0  0  0  0  0  0  0  # atno 17321 bound_to 7965
  140.7778  143.4986  150.9800 LP  0  0  0  0  0  0  0  0  0  0  0  0  # atno 17342 bound_to 10162
  139.8674  143.7236  152.3169 LP  0  0  0  0  0  0  0  0  0  0  0  0  # atno 17343 bound_to 10162
  156.9015  130.9622  151.3575 LP  0  0  0  0  0  0  0  0  0  0  0  0  # atno 17370 bound_to 10713
  157.6066  130.8552  149.8885 LP  0  0  0  0  0  0  0  0  0  0  0  0  # atno 17371 bound_to 10713
  140.9378  134.1940  157.4819 LP  0  0  0  0  0  0  0  0  0  0  0  0  # atno 17394 bound_to 11000
  139.8730  134.9859  156.5302 LP  0  0  0  0  0  0  0  0  0  0  0  0  # atno 17395 bound_to 11000

$$$$
