AV-unprocessed.smi:2922|AV-procd|sdf|11200|dock9
  -GOLD-   2272016 93D 1   1.00000     0.00000
 Structure written by MMmdl.
 30 31  0  0  0  0  0  0  0  0  1 V2000
  144.2566  141.5135  155.0072 N   0  0  0  0  0  0  0  0  0  0  0  0
  145.4504  141.6962  155.5790 C   0  0  0  0  0  0  0  0  0  0  0  0
  145.5869  141.7177  156.8008 O   0  0  0  0  0  0  0  0  0  0  0  0
  146.6664  141.8548  154.6535 C   0  0  2  0  0  0  0  0  0  0  0  0
  146.9218  140.6541  153.7222 C   0  0  0  0  0  0  0  0  0  0  0  0
  148.3169  140.1889  154.0990 C   0  0  0  0  0  0  0  0  0  0  0  0
  148.9403  141.4482  154.6939 C   0  0  2  0  0  0  0  0  0  0  0  0
  150.1348  141.1898  155.6214 C   0  0  0  0  0  0  0  0  0  0  0  0
  150.4218  142.3412  156.4636 N   0  0  0  0  0  0  0  0  0  0  0  0
  151.1201  142.2768  157.6543 C   0  0  0  0  0  0  0  0  0  0  0  0
  151.3097  141.0750  158.2137 N   0  0  0  0  0  0  0  0  0  0  0  0
  151.9944  141.0401  159.3779 C   0  0  0  0  0  0  0  0  0  0  0  0
  152.4869  142.2160  159.9784 C   0  0  0  0  0  0  0  0  0  0  0  0
  153.3605  142.1791  161.4655 Cl  0  0  0  0  0  0  0  0  0  0  0  0
  152.2283  143.4240  159.3004 C   0  0  0  0  0  0  0  0  0  0  0  0
  151.5432  143.4490  158.1356 N   0  0  0  0  0  0  0  0  0  0  0  0
  147.8565  141.9893  155.4305 O   0  0  0  0  0  0  0  0  0  0  0  0
  143.4334  141.4088  155.5821 H   0  0  0  0  0  0  0  0  0  0  0  0
  144.1845  141.4847  154.0003 H   0  0  0  0  0  0  0  0  0  0  0  0
  146.5378  142.7599  154.0583 H   0  0  0  0  0  0  0  0  0  0  0  0
  146.1976  139.8447  153.8242 H   0  0  0  0  0  0  0  0  0  0  0  0
  146.8998  140.9828  152.6823 H   0  0  0  0  0  0  0  0  0  0  0  0
  148.2516  139.4064  154.8563 H   0  0  0  0  0  0  0  0  0  0  0  0
  148.8779  139.7950  153.2511 H   0  0  0  0  0  0  0  0  0  0  0  0
  149.2104  142.1512  153.9032 H   0  0  0  0  0  0  0  0  0  0  0  0
  149.9199  140.3360  156.2648 H   0  0  0  0  0  0  0  0  0  0  0  0
  151.0190  140.9344  155.0361 H   0  0  0  0  0  0  0  0  0  0  0  0
  150.0749  143.2450  156.1769 H   0  0  0  0  0  0  0  0  0  0  0  0
  152.1478  140.0714  159.8299 H   0  0  0  0  0  0  0  0  0  0  0  0
  152.5699  144.3713  159.6910 H   0  0  0  0  0  0  0  0  0  0  0  0
  1  2  1  0  0  0  0
  1 18  1  0  0  0  0
  1 19  1  0  0  0  0
  2  3  2  0  0  0  0
  2  4  1  0  0  0  0
  4 17  1  0  0  0  0
  4  5  1  0  0  0  0
  4 20  1  0  0  0  0
  5  6  1  0  0  0  0
  5 21  1  0  0  0  0
  5 22  1  0  0  0  0
  6  7  1  0  0  0  0
  6 23  1  0  0  0  0
  6 24  1  0  0  0  0
  7  8  1  0  0  0  0
  7 17  1  0  0  0  0
  7 25  1  0  0  0  0
  8  9  1  0  0  0  0
  8 26  1  0  0  0  0
  8 27  1  0  0  0  0
  9 10  1  0  0  0  0
  9 28  1  0  0  0  0
 10 16  1  0  0  0  0
 10 11  2  0  0  0  0
 11 12  1  0  0  0  0
 12 13  2  0  0  0  0
 12 29  1  0  0  0  0
 13 14  1  0  0  0  0
 13 15  1  0  0  0  0
 15 16  2  0  0  0  0
 15 30  1  0  0  0  0
M  END
> <s_m_source_file>
AV-unprocessed.smi

> <i_m_source_file_index>
2922

> <i_lp_mmshare_version>
43012

> <i_f3d_flags>
0

> <s_epik_input>
W05IMl1DKD1PKVtDQEBIXTFbQ0gyXVtDSDJdW0NASF0oTzEpW0NIMl1bTkhdYzJuW2NIXWMoQ2wpW2NIXW4y

> <s_epik_cmdline>
J2VwaWtfcHl0aG9uJywgJy1waCcsICc3LjAnLCAnLXRuJywgJzgnLCAnLW1hJywgJzIwMCcsICctbWV0YWxfYmluZGluZycsICctaW1hZScsICc8aW5maWxlLm1hZT4nLCAnLW9tYWUnLCAnPG91dGZpbGUubWFlPic=

> <r_lp_tautomer_probability>
1

> <r_epik_Ionization_Penalty>
6.13883e-06

> <r_epik_Ionization_Penalty_Charging>
0

> <r_epik_Ionization_Penalty_Neutral>
6.13883e-06

> <r_epik_State_Penalty>
-0

> <r_epik_Charging_Adjusted_Penalty>
0

> <i_epik_Tot_Q>
0

> <i_epik_Tot_abs_Q>
0

> <r_epik_Metal_State_Penalty>
-0

> <b_epik_Metal_Only>
0

> <s_lp_Force_Field>
OPLS_2005

> <r_lp_Energy>
9.86342

> <b_lp_Chiralities_Consistent>
1

> <s_lp_Variant>
AV-unprocessed.smi:2922-3

> <Gold.Version>
5.8.1

> <Gold.Id.Protein>
6NUR|6NUR_protein|mol2

> <Gold.PLP.Fitness>
37.8032

> <Gold.PLP.PLP>
-32.4073

> <Gold.PLP.part.hbond>
-2.0000

> <Gold.PLP.part.metal>
0.0000

> <Gold.PLP.part.buried>
-5.8821

> <Gold.PLP.part.nonpolar>
-26.8886

> <Gold.PLP.part.repulsive>
1.6013

> <Gold.PLP.ligand.clash>
0.0000

> <Gold.PLP.ligand.torsion>
0.3112

> <Gold.PLP.Chemscore.Hbond>
2.0000

> <Gold.PLP.Chemscore.CHOScore>
0.0000

> <Gold.PLP.Chemscore.Metal>
0.0000

> <Gold.Chemscore.Hbonds>
donor molecule, donor type, donor heavy atom, donor atom, acceptor molecule, acceptor atom, score
      L1  H     1    19       P1 10175  0.85
      L1  H     9    28       P1  8028  1.00

> <Gold.PLP.Chemscore.Internal.Correction>
0.0182

> <Gold.Rescore>
     Score         DG    S(hbond)    S(metal)    S(lipo)     H(rot)  DE(clash)    DE(int)     intcor
     15.85     -16.23       2.00        0.00      76.75       1.91       0.02       0.36       ----

> <Gold.Chemscore.Fitness>
15.8524

> <Gold.Chemscore.DG>
-16.2318

> <Gold.Chemscore.ZeroCoef>
-5.4800

> <Gold.Chemscore.Hbond>
1.9976

> <Gold.Chemscore.Metal>
0.0000

> <Gold.Chemscore.Lipo>
76.7519

> <Gold.Chemscore.Internal_Hbond>
0.0000

> <Gold.Chemscore.DEClash>
0.0174

> <Gold.Chemscore.DEInternal>
0.3620

> <Gold.Chemscore.Rot>
1.9142

> <Gold.Chemscore.Internal.Correction>
   9.000000E+99

> <Gold.Chemscore.Hbonds>
donor molecule, donor type, donor heavy atom, donor atom, acceptor molecule, acceptor atom, score
      L1  H     1    19       P1 10175  0.16
      L1  H     9    28       P1  8028  0.98

> <Gold.Chemscore.Hbond.Weighted>
-6.6721

> <Gold.Chemscore.Metal.Weighted>
-0.0000

> <Gold.Chemscore.Lipo.Weighted>
-8.9800

> <Gold.Chemscore.Internal_Hbond.Weighted>
0.0000

> <Gold.Chemscore.DEClash.Weighted>
0.0174

> <Gold.Chemscore.DEInternal.Weighted>
0.3620

> <Gold.Chemscore.Rot.Weighted>
4.9002

> <Gold.Chemscore.Internal.Correction.Weighted>
   9.000000E+99

> <Gold.Protein.RotatedTorsions>
[ 6907 6896 6895 6894 ] final  -44.31 input  -60.11 | X-H torsion
[ 7974 7965 7964 7962 ] final  102.76 input  175.53 | X-H torsion
[ 8008 7997 7996 7995 ] final  165.66 input   59.86 | X-H torsion
[ 10167 10162 10161 10158 ] final  131.33 input  -65.29 | X-H torsion
[ 10718 10713 10712 10709 ] final -155.00 input   66.30 | X-H torsion
[ 10763 10752 10751 10750 ] final  -13.54 input  -60.55 | X-H torsion
[ 11005 11000 10999 10996 ] final   88.81 input  -57.11 | X-H torsion

> <Gold.Protein.ActiveResidues>
 VAL166  LYS551  ARG553  GLY616  TRP617  ASP618  TYR619  PRO620  LYS621  CYS622 
 ASP623  PHE694  ASN695  SER759  ASP760  ASP761  ALA762  ILE779  LEU786  VAL792 
 PHE793  MET794  SER795  GLU796  ALA797  LYS798  CYS799  TRP800  GLU811  SER814 

> <Gold.Protein.RotatedAtoms>
  150.9343  134.8756  159.7571 H   0  0  0  0  0  0  0  0  0  0  0  0  # atno 6907 bound_to 6896
  152.5052  134.4034  159.9434 H   0  0  0  0  0  0  0  0  0  0  0  0  # atno 6908 bound_to 6896
  151.4059  133.3703  159.2773 H   0  0  0  0  0  0  0  0  0  0  0  0  # atno 6909 bound_to 6896
  145.3548  139.2431  143.3538 H   0  0  0  0  0  0  0  0  0  0  0  0  # atno 7974 bound_to 7965
  156.1782  140.1664  156.8324 H   0  0  0  0  0  0  0  0  0  0  0  0  # atno 8008 bound_to 7997
  154.5330  140.0752  156.8412 H   0  0  0  0  0  0  0  0  0  0  0  0  # atno 8009 bound_to 7997
  155.3368  140.3382  155.4241 H   0  0  0  0  0  0  0  0  0  0  0  0  # atno 8010 bound_to 7997
  139.5389  144.6711  151.4692 H   0  0  0  0  0  0  0  0  0  0  0  0  # atno 10167 bound_to 10162
  156.5069  130.8417  151.2631 H   0  0  0  0  0  0  0  0  0  0  0  0  # atno 10718 bound_to 10713
  153.5148  135.7016  153.5762 H   0  0  0  0  0  0  0  0  0  0  0  0  # atno 10763 bound_to 10752
  153.3836  135.3914  155.1874 H   0  0  0  0  0  0  0  0  0  0  0  0  # atno 10764 bound_to 10752
  154.8700  135.3841  154.4631 H   0  0  0  0  0  0  0  0  0  0  0  0  # atno 10765 bound_to 10752
  139.8888  134.8512  156.3054 H   0  0  0  0  0  0  0  0  0  0  0  0  # atno 11005 bound_to 11000
  146.2952  140.4171  142.8724 LP  0  0  0  0  0  0  0  0  0  0  0  0  # atno 17320 bound_to 7965
  144.8690  140.7246  143.6059 LP  0  0  0  0  0  0  0  0  0  0  0  0  # atno 17321 bound_to 7965
  140.6609  143.8500  150.6887 LP  0  0  0  0  0  0  0  0  0  0  0  0  # atno 17342 bound_to 10162
  140.1894  143.4049  152.1874 LP  0  0  0  0  0  0  0  0  0  0  0  0  # atno 17343 bound_to 10162
  157.7456  130.9963  150.2774 LP  0  0  0  0  0  0  0  0  0  0  0  0  # atno 17370 bound_to 10713
  156.3278  130.3795  149.7518 LP  0  0  0  0  0  0  0  0  0  0  0  0  # atno 17371 bound_to 10713
  140.9886  133.7223  156.0779 LP  0  0  0  0  0  0  0  0  0  0  0  0  # atno 17394 bound_to 11000
  140.7655  134.3891  157.5518 LP  0  0  0  0  0  0  0  0  0  0  0  0  # atno 17395 bound_to 11000

$$$$
