AV-unprocessed.smi:2424|AV-procd|sdf|9571|dock2
  -GOLD-   2272013203D 1   1.00000     0.00000
 Structure written by MMmdl.
 49 50  0  0  0  0  0  0  0  0  2 V2000
  147.2227  141.1928  153.4743 C   0  0  0  0  0  0  0  0  0  0  0  0
  147.0445  139.6714  153.6155 C   0  0  0  0  0  0  0  0  0  0  0  0
  147.6207  139.0615  154.9159 C   0  0  0  0  0  0  0  0  0  0  0  0
  147.0843  139.8607  156.1338 C   0  0  0  0  0  0  0  0  0  0  0  0
  145.5569  139.8665  156.3330 C   0  0  0  0  0  0  0  0  0  0  0  0
  147.4894  137.5196  155.1035 C   0  0  1  0  0  0  0  0  0  0  0  0
  147.3773  136.7744  153.8462 N   0  0  0  0  0  0  0  0  0  0  0  0
  146.4325  135.8689  153.5610 C   0  0  0  0  0  0  0  0  0  0  0  0
  145.5242  135.5708  154.3357 O   0  0  0  0  0  0  0  0  0  0  0  0
  146.6283  135.3518  152.3357 N   0  0  0  0  0  0  0  0  0  0  0  0
  145.8621  134.3977  151.6549 C   0  0  0  0  0  0  0  0  0  0  0  0
  145.0006  134.7871  150.6498 C   0  0  0  0  0  0  0  0  0  0  0  0
  144.1890  134.0240  149.8863 N   0  5  0  0  0  0  0  0  0  0  0  0
  144.1834  132.6775  150.1020 C   0  0  0  0  0  0  0  0  0  0  0  0
  143.4743  131.9194  149.4415 O   0  0  0  0  0  0  0  0  0  0  0  0
  145.0531  132.1218  151.1584 C   0  0  0  0  0  0  0  0  0  0  0  0
  145.0340  130.6227  151.4051 C   0  0  0  0  0  0  0  0  0  0  0  0
  145.8422  132.9533  151.8839 C   0  0  0  0  0  0  0  0  0  0  0  0
  148.9273  137.4767  155.6514 C   0  0  1  0  0  0  0  0  0  0  0  0
  149.8270  136.2735  155.3776 C   0  0  0  0  0  0  0  0  0  0  0  0
  149.1507  138.7955  154.8955 C   0  0  2  0  0  0  0  0  0  0  0  0
  149.9137  139.7590  155.6048 O   0  0  0  0  0  0  0  0  0  0  0  0
  149.8017  141.0666  155.0708 C   0  0  0  0  0  0  0  0  0  0  0  0
  146.7046  141.5574  152.5875 H   0  0  0  0  0  0  0  0  0  0  0  0
  148.2708  141.4712  153.3714 H   0  0  0  0  0  0  0  0  0  0  0  0
  146.8188  141.7280  154.3331 H   0  0  0  0  0  0  0  0  0  0  0  0
  145.9785  139.4547  153.5433 H   0  0  0  0  0  0  0  0  0  0  0  0
  147.4675  139.1787  152.7407 H   0  0  0  0  0  0  0  0  0  0  0  0
  147.5509  139.5000  157.0506 H   0  0  0  0  0  0  0  0  0  0  0  0
  147.4028  140.9005  156.0624 H   0  0  0  0  0  0  0  0  0  0  0  0
  145.2840  140.5469  157.1396 H   0  0  0  0  0  0  0  0  0  0  0  0
  145.1775  138.8829  156.6080 H   0  0  0  0  0  0  0  0  0  0  0  0
  145.0258  140.1931  155.4403 H   0  0  0  0  0  0  0  0  0  0  0  0
  146.7514  137.2385  155.8570 H   0  0  0  0  0  0  0  0  0  0  0  0
  148.0810  136.9569  153.1462 H   0  0  0  0  0  0  0  0  0  0  0  0
  147.4345  135.6866  151.8288 H   0  0  0  0  0  0  0  0  0  0  0  0
  144.9616  135.8742  150.4212 H   0  0  0  0  0  0  0  0  0  0  0  0
  145.7117  130.3434  152.2123 H   0  0  0  0  0  0  0  0  0  0  0  0
  145.3400  130.0850  150.5070 H   0  0  0  0  0  0  0  0  0  0  0  0
  144.0310  130.2941  151.6790 H   0  0  0  0  0  0  0  0  0  0  0  0
  146.4582  132.5136  152.6511 H   0  0  0  0  0  0  0  0  0  0  0  0
  148.8919  137.6744  156.7238 H   0  0  0  0  0  0  0  0  0  0  0  0
  150.0524  136.1697  154.3160 H   0  0  0  0  0  0  0  0  0  0  0  0
  149.3554  135.3476  155.7071 H   0  0  0  0  0  0  0  0  0  0  0  0
  150.7763  136.3605  155.9052 H   0  0  0  0  0  0  0  0  0  0  0  0
  149.5183  138.6366  153.8789 H   0  0  0  0  0  0  0  0  0  0  0  0
  150.3802  141.7595  155.6815 H   0  0  0  0  0  0  0  0  0  0  0  0
  148.7650  141.4053  155.0701 H   0  0  0  0  0  0  0  0  0  0  0  0
  150.1888  141.1182  154.0537 H   0  0  0  0  0  0  0  0  0  0  0  0
  1  2  1  0  0  0  0
  1 24  1  0  0  0  0
  1 25  1  0  0  0  0
  1 26  1  0  0  0  0
  2  3  1  0  0  0  0
  2 27  1  0  0  0  0
  2 28  1  0  0  0  0
  3 21  1  0  0  0  0
  3  4  1  0  0  0  0
  3  6  1  0  0  0  0
  4  5  1  0  0  0  0
  4 29  1  0  0  0  0
  4 30  1  0  0  0  0
  5 31  1  0  0  0  0
  5 32  1  0  0  0  0
  5 33  1  0  0  0  0
  6  7  1  0  0  0  0
  6 19  1  0  0  0  0
  6 34  1  0  0  0  0
  7  8  1  0  0  0  0
  7 35  1  0  0  0  0
  8  9  2  0  0  0  0
  8 10  1  0  0  0  0
 10 11  1  0  0  0  0
 10 36  1  0  0  0  0
 11 18  1  0  0  0  0
 11 12  2  0  0  0  0
 12 13  1  0  0  0  0
 12 37  1  0  0  0  0
 13 14  1  0  0  0  0
 14 15  2  0  0  0  0
 14 16  1  0  0  0  0
 16 17  1  0  0  0  0
 16 18  2  0  0  0  0
 17 38  1  0  0  0  0
 17 39  1  0  0  0  0
 17 40  1  0  0  0  0
 18 41  1  0  0  0  0
 19 20  1  0  0  0  0
 19 21  1  0  0  0  0
 19 42  1  0  0  0  0
 20 43  1  0  0  0  0
 20 44  1  0  0  0  0
 20 45  1  0  0  0  0
 21 22  1  0  0  0  0
 21 46  1  0  0  0  0
 22 23  1  0  0  0  0
 23 47  1  0  0  0  0
 23 48  1  0  0  0  0
 23 49  1  0  0  0  0
M  CHG  1  13  -1
M  END
> <s_m_source_file>
AV-unprocessed.smi

> <i_m_source_file_index>
2424

> <i_lp_mmshare_version>
43012

> <i_f3d_flags>
0

> <s_epik_input>
W0NIM11PW0NAQEhdMVtDQEhdKFtDSDNdKVtDQEBIXShDMShbQ0gyXVtDSDNdKVtDSDJdW0NIM10pW05IXUMoPU8pW05IXWMyW2NIXVtuSF1jKD1PKWMoW0NIM10pW2NIXTI=

> <s_epik_cmdline>
J2VwaWtfcHl0aG9uJywgJy1waCcsICc3LjAnLCAnLXRuJywgJzgnLCAnLW1hJywgJzIwMCcsICctbWV0YWxfYmluZGluZycsICctaW1hZScsICc8aW5maWxlLm1hZT4nLCAnLW9tYWUnLCAnPG91dGZpbGUubWFlPic=

> <r_lp_tautomer_probability>
1

> <r_epik_Ionization_Penalty>
7.6122

> <r_epik_Ionization_Penalty_Charging>
1.53843

> <r_epik_Ionization_Penalty_Neutral>
6.07377

> <r_epik_State_Penalty>
6.07371

> <r_epik_Charging_Adjusted_Penalty>
7.61214

> <i_epik_Tot_Q>
-1

> <i_epik_Tot_abs_Q>
1

> <r_epik_Metal_State_Penalty>
2.02136

> <b_epik_Metal_Only>
1

> <s_lp_Force_Field>
OPLS_2005

> <r_lp_Energy>
40.0486

> <b_lp_Chiralities_Consistent>
1

> <s_lp_Variant>
AV-unprocessed.smi:2424-13

> <Gold.Version>
5.8.1

> <Gold.Id.Protein>
6NUR|6NUR_protein|mol2

> <Gold.PLP.Fitness>
36.1353

> <Gold.PLP.PLP>
-29.1339

> <Gold.PLP.part.hbond>
-2.8557

> <Gold.PLP.part.metal>
0.0000

> <Gold.PLP.part.buried>
-5.2348

> <Gold.PLP.part.nonpolar>
-22.5064

> <Gold.PLP.part.repulsive>
1.0437

> <Gold.PLP.ligand.clash>
0.0000

> <Gold.PLP.ligand.torsion>
1.0738

> <Gold.PLP.Chemscore.Hbond>
2.8560

> <Gold.PLP.Chemscore.CHOScore>
0.0000

> <Gold.PLP.Chemscore.Metal>
0.0000

> <Gold.Chemscore.Hbonds>
donor molecule, donor type, donor heavy atom, donor atom, acceptor molecule, acceptor atom, score
      L1  H     7    35       P1  7948  0.86
      L1  H    10    36       P1  7948  1.00
      P1  H 10785 10796       L1    15  1.00

> <Gold.PLP.Chemscore.Internal.Correction>
0.5809

> <Gold.Rescore>
     Score         DG    S(hbond)    S(metal)    S(lipo)     H(rot)  DE(clash)    DE(int)     intcor
     17.48     -18.88       2.68        0.00      71.19       1.52       0.27       1.13       ----

> <Gold.Chemscore.Fitness>
17.4766

> <Gold.Chemscore.DG>
-18.8766

> <Gold.Chemscore.ZeroCoef>
-5.4800

> <Gold.Chemscore.Hbond>
2.6825

> <Gold.Chemscore.Metal>
0.0000

> <Gold.Chemscore.Lipo>
71.1905

> <Gold.Chemscore.Internal_Hbond>
0.0000

> <Gold.Chemscore.DEClash>
0.2653

> <Gold.Chemscore.DEInternal>
1.1347

> <Gold.Chemscore.Rot>
1.5204

> <Gold.Chemscore.Internal.Correction>
   9.000000E+99

> <Gold.Chemscore.Hbonds>
donor molecule, donor type, donor heavy atom, donor atom, acceptor molecule, acceptor atom, score
      L1  H     7    35       P1  7948  0.85
      L1  H    10    36       P1  7948  0.92
      P1  H 10785 10796       L1    15  0.95

> <Gold.Chemscore.Hbond.Weighted>
-8.9596

> <Gold.Chemscore.Metal.Weighted>
-0.0000

> <Gold.Chemscore.Lipo.Weighted>
-8.3293

> <Gold.Chemscore.Internal_Hbond.Weighted>
0.0000

> <Gold.Chemscore.DEClash.Weighted>
0.2653

> <Gold.Chemscore.DEInternal.Weighted>
1.1347

> <Gold.Chemscore.Rot.Weighted>
3.8922

> <Gold.Chemscore.Internal.Correction.Weighted>
   9.000000E+99

> <Gold.Protein.RotatedTorsions>
[ 6907 6896 6895 6894 ] final  -58.54 input  -60.11 | X-H torsion
[ 7974 7965 7964 7962 ] final  -63.37 input  175.53 | X-H torsion
[ 8008 7997 7996 7995 ] final -173.02 input   59.86 | X-H torsion
[ 10167 10162 10161 10158 ] final -116.71 input  -65.29 | X-H torsion
[ 10718 10713 10712 10709 ] final -138.68 input   66.30 | X-H torsion
[ 10763 10752 10751 10750 ] final   21.72 input  -60.55 | X-H torsion
[ 11005 11000 10999 10996 ] final   25.08 input  -57.11 | X-H torsion

> <Gold.Protein.ActiveResidues>
 VAL166  LYS551  ARG553  GLY616  TRP617  ASP618  TYR619  PRO620  LYS621  CYS622 
 ASP623  PHE694  ASN695  SER759  ASP760  ASP761  ALA762  ILE779  LEU786  VAL792 
 PHE793  MET794  SER795  GLU796  ALA797  LYS798  CYS799  TRP800  GLU811  SER814 

> <Gold.Protein.RotatedAtoms>
  150.7999  134.7085  159.6590 H   0  0  0  0  0  0  0  0  0  0  0  0  # atno 6907 bound_to 6896
  152.4115  134.6113  160.0036 H   0  0  0  0  0  0  0  0  0  0  0  0  # atno 6908 bound_to 6896
  151.6355  133.3292  159.3154 H   0  0  0  0  0  0  0  0  0  0  0  0  # atno 6909 bound_to 6896
  145.7798  140.8768  143.0336 H   0  0  0  0  0  0  0  0  0  0  0  0  # atno 7974 bound_to 7965
  155.9520  140.1128  157.0968 H   0  0  0  0  0  0  0  0  0  0  0  0  # atno 8008 bound_to 7997
  154.4112  140.1198  156.5132 H   0  0  0  0  0  0  0  0  0  0  0  0  # atno 8009 bound_to 7997
  155.6829  140.3473  155.4865 H   0  0  0  0  0  0  0  0  0  0  0  0  # atno 8010 bound_to 7997
  140.0763  143.4830  152.1951 H   0  0  0  0  0  0  0  0  0  0  0  0  # atno 10167 bound_to 10162
  156.3021  130.7434  151.1489 H   0  0  0  0  0  0  0  0  0  0  0  0  # atno 10718 bound_to 10713
  153.0972  135.6663  153.9740 H   0  0  0  0  0  0  0  0  0  0  0  0  # atno 10763 bound_to 10752
  153.9320  135.3003  155.3447 H   0  0  0  0  0  0  0  0  0  0  0  0  # atno 10764 bound_to 10752
  154.7392  135.5087  153.9167 H   0  0  0  0  0  0  0  0  0  0  0  0  # atno 10765 bound_to 10752
  140.3517  134.2222  155.7679 H   0  0  0  0  0  0  0  0  0  0  0  0  # atno 11005 bound_to 11000
  144.6798  139.9973  143.7484 LP  0  0  0  0  0  0  0  0  0  0  0  0  # atno 17320 bound_to 7965
  146.0085  139.3150  143.0884 LP  0  0  0  0  0  0  0  0  0  0  0  0  # atno 17321 bound_to 7965
  139.5806  144.7508  151.3650 LP  0  0  0  0  0  0  0  0  0  0  0  0  # atno 17342 bound_to 10162
  140.7100  143.7414  150.7550 LP  0  0  0  0  0  0  0  0  0  0  0  0  # atno 17343 bound_to 10162
  157.7370  131.0556  150.5378 LP  0  0  0  0  0  0  0  0  0  0  0  0  # atno 17370 bound_to 10713
  156.5507  130.4231  149.6109 LP  0  0  0  0  0  0  0  0  0  0  0  0  # atno 17371 bound_to 10713
  141.2010  133.7973  157.0461 LP  0  0  0  0  0  0  0  0  0  0  0  0  # atno 17394 bound_to 11000
  140.0698  134.9709  157.1447 LP  0  0  0  0  0  0  0  0  0  0  0  0  # atno 17395 bound_to 11000

$$$$
