AV-unprocessed.smi:38|AV-procd|sdf|336|dock7
  -GOLD-   2262016173D 1   1.00000     0.00000
 Structure written by MMmdl.
 28 29  0  0  0  0  0  0  0  0  1 V2000
  151.1705  137.1582  159.7990 O   0  0  0  0  0  0  0  0  0  0  0  0
  150.8473  137.6294  158.7104 C   0  0  0  0  0  0  0  0  0  0  0  0
  151.8064  138.2372  157.8949 N   0  0  0  0  0  0  0  0  0  0  0  0
  151.5648  138.8070  156.6433 C   0  0  0  0  0  0  0  0  0  0  0  0
  152.4873  139.3310  156.0207 O   0  0  0  0  0  0  0  0  0  0  0  0
  150.2394  138.7551  156.1567 N   0  0  0  0  0  0  0  0  0  0  0  0
  149.9160  139.3539  154.8069 C   0  0  2  0  0  0  0  0  0  0  0  0
  150.0595  140.8762  154.8374 C   0  0  0  0  0  0  0  0  0  0  0  0
  148.8898  141.3022  153.9751 C   0  0  2  0  0  0  0  0  0  0  0  0
  148.4822  142.6188  154.2863 O   0  0  0  0  0  0  0  0  0  0  0  0
  147.8299  140.2588  154.3373 C   0  0  1  0  0  0  0  0  0  0  0  0
  146.7610  140.0689  153.2506 C   0  0  0  0  0  0  0  0  0  0  0  0
  147.3121  139.3901  152.1428 O   0  0  0  0  0  0  0  0  0  0  0  0
  148.5884  139.0583  154.4842 O   0  0  0  0  0  0  0  0  0  0  0  0
  149.2515  138.1710  156.9384 C   0  0  0  0  0  0  0  0  0  0  0  0
  149.4981  137.6251  158.1528 C   0  0  0  0  0  0  0  0  0  0  0  0
  148.4892  137.0789  158.8525 F   0  0  0  0  0  0  0  0  0  0  0  0
  152.7536  138.2700  158.2427 H   0  0  0  0  0  0  0  0  0  0  0  0
  150.5486  138.8722  154.0599 H   0  0  0  0  0  0  0  0  0  0  0  0
  149.1578  141.2300  152.9199 H   0  0  0  0  0  0  0  0  0  0  0  0
  147.3757  140.5192  155.2952 H   0  0  0  0  0  0  0  0  0  0  0  0
  149.9415  141.2382  155.8605 H   0  0  0  0  0  0  0  0  0  0  0  0
  151.0310  141.1923  154.4563 H   0  0  0  0  0  0  0  0  0  0  0  0
  148.1867  142.6391  155.1839 H   0  0  0  0  0  0  0  0  0  0  0  0
  145.9417  139.4591  153.6324 H   0  0  0  0  0  0  0  0  0  0  0  0
  146.3366  141.0241  152.9401 H   0  0  0  0  0  0  0  0  0  0  0  0
  148.1846  139.7205  151.9915 H   0  0  0  0  0  0  0  0  0  0  0  0
  148.2350  138.1474  156.5763 H   0  0  0  0  0  0  0  0  0  0  0  0
  1  2  2  0  0  0  0
  2 16  1  0  0  0  0
  2  3  1  0  0  0  0
  3 18  1  0  0  0  0
  3  4  1  0  0  0  0
  4  5  2  0  0  0  0
  4  6  1  0  0  0  0
  6  7  1  0  0  0  0
  6 15  1  0  0  0  0
  7 19  1  0  0  0  0
  7 14  1  0  0  0  0
  7  8  1  0  0  0  0
  8  9  1  0  0  0  0
  8 22  1  0  0  0  0
  8 23  1  0  0  0  0
  9 20  1  0  0  0  0
  9 10  1  0  0  0  0
  9 11  1  0  0  0  0
 10 24  1  0  0  0  0
 11 21  1  0  0  0  0
 11 12  1  0  0  0  0
 11 14  1  0  0  0  0
 12 13  1  0  0  0  0
 12 25  1  0  0  0  0
 12 26  1  0  0  0  0
 13 27  1  0  0  0  0
 15 16  2  0  0  0  0
 15 28  1  0  0  0  0
 16 17  1  0  0  0  0
M  END
> <s_m_source_file>
AV-unprocessed.smi

> <i_m_source_file_index>
38

> <i_lp_mmshare_version>
43012

> <i_f3d_flags>
0

> <s_epik_input>
Tz1jMVtuSF1jKD1PKW4oW2NIXWMxRilbQ0BIXTJbQ0gyXVtDQEhdKFtPSF0pW0NASF0oTzIpW0NIMl1bT0hd

> <s_epik_cmdline>
J2VwaWtfcHl0aG9uJywgJy1waCcsICc3LjAnLCAnLXRuJywgJzgnLCAnLW1hJywgJzIwMCcsICctbWV0YWxfYmluZGluZycsICctaW1hZScsICc8aW5maWxlLm1hZT4nLCAnLW9tYWUnLCAnPG91dGZpbGUubWFlPic=

> <r_lp_tautomer_probability>
0.999537

> <r_epik_Ionization_Penalty>
0.0357432

> <r_epik_Ionization_Penalty_Charging>
0.0357431

> <r_epik_Ionization_Penalty_Neutral>
1.19946e-07

> <r_epik_State_Penalty>
0.0298169

> <r_epik_Charging_Adjusted_Penalty>
0.06556

> <i_epik_Tot_Q>
0

> <i_epik_Tot_abs_Q>
0

> <r_epik_Metal_State_Penalty>
2.348

> <b_epik_Metal_Only>
0

> <s_epik_Chemistry_Notes>
This compound contains an acetal/aminal-like group ( X-CH(R)-Y where X, Y are N, S, or O) that may be acid/base labile, releasing an aldehyde.

> <s_lp_Force_Field>
OPLS_2005

> <r_lp_Energy>
26.798

> <b_lp_Chiralities_Consistent>
1

> <s_lp_Variant>
AV-unprocessed.smi:38-2

> <Gold.Version>
5.8.1

> <Gold.Id.Protein>
6NUR|6NUR_protein|mol2

> <Gold.PLP.Fitness>
32.2463

> <Gold.PLP.PLP>
-22.6406

> <Gold.PLP.part.hbond>
-4.6849

> <Gold.PLP.part.metal>
0.0000

> <Gold.PLP.part.buried>
-2.0780

> <Gold.PLP.part.nonpolar>
-15.9746

> <Gold.PLP.part.repulsive>
0.1912

> <Gold.PLP.ligand.clash>
0.0000

> <Gold.PLP.ligand.torsion>
0.2141

> <Gold.PLP.Chemscore.Hbond>
3.3413

> <Gold.PLP.Chemscore.CHOScore>
0.0000

> <Gold.PLP.Chemscore.Metal>
0.0000

> <Gold.Chemscore.Hbonds>
donor molecule, donor type, donor heavy atom, donor atom, acceptor molecule, acceptor atom, score
      L1  H    13    27       P1  7957  1.00
      P1  H  6896  6908       L1     1  1.00
      P1  H  7997  8009       L1     5  0.96
      P1  H  8022  8030       L1    10  0.47

> <Gold.PLP.Chemscore.Internal.Correction>
0.0102

> <Gold.Rescore>
     Score         DG    S(hbond)    S(metal)    S(lipo)     H(rot)  DE(clash)    DE(int)     intcor
     12.37     -12.90       3.36        0.00      31.18       2.91       0.17       0.36       ----

> <Gold.Chemscore.Fitness>
12.3664

> <Gold.Chemscore.DG>
-12.8965

> <Gold.Chemscore.ZeroCoef>
-5.4800

> <Gold.Chemscore.Hbond>
3.3619

> <Gold.Chemscore.Metal>
0.0000

> <Gold.Chemscore.Lipo>
31.1773

> <Gold.Chemscore.Internal_Hbond>
0.0000

> <Gold.Chemscore.DEClash>
0.1723

> <Gold.Chemscore.DEInternal>
0.3578

> <Gold.Chemscore.Rot>
2.9141

> <Gold.Chemscore.Internal.Correction>
   9.000000E+99

> <Gold.Chemscore.Hbonds>
donor molecule, donor type, donor heavy atom, donor atom, acceptor molecule, acceptor atom, score
      L1  H    10    24       P1  8028  0.02
      L1  H    13    27       P1  7957  0.99
      P1  H  6896  6908       L1     1  0.92
      P1  H  7997  8009       L1     5  0.91
      P1  H  8022  8030       L1    10  0.25

> <Gold.Chemscore.Hbond.Weighted>
-11.2289

> <Gold.Chemscore.Metal.Weighted>
-0.0000

> <Gold.Chemscore.Lipo.Weighted>
-3.6477

> <Gold.Chemscore.Internal_Hbond.Weighted>
0.0000

> <Gold.Chemscore.DEClash.Weighted>
0.1723

> <Gold.Chemscore.DEInternal.Weighted>
0.3578

> <Gold.Chemscore.Rot.Weighted>
7.4601

> <Gold.Chemscore.Internal.Correction.Weighted>
   9.000000E+99

> <Gold.Protein.RotatedTorsions>
[ 6907 6896 6895 6894 ] final -122.61 input  -60.11 | X-H torsion
[ 7974 7965 7964 7962 ] final  118.71 input  175.53 | X-H torsion
[ 8008 7997 7996 7995 ] final -168.79 input   59.86 | X-H torsion
[ 10167 10162 10161 10158 ] final   72.54 input  -65.29 | X-H torsion
[ 10718 10713 10712 10709 ] final  106.81 input   66.30 | X-H torsion
[ 10763 10752 10751 10750 ] final -169.48 input  -60.55 | X-H torsion
[ 11005 11000 10999 10996 ] final   20.25 input  -57.11 | X-H torsion

> <Gold.Protein.ActiveResidues>
 VAL166  LYS551  ARG553  GLY616  TRP617  ASP618  TYR619  PRO620  LYS621  CYS622 
 ASP623  PHE694  ASN695  SER759  ASP760  ASP761  ALA762  ILE779  LEU786  VAL792 
 PHE793  MET794  SER795  GLU796  ALA797  LYS798  CYS799  TRP800  GLU811  SER814 

> <Gold.Protein.RotatedAtoms>
  150.8592  133.7669  159.2997 H   0  0  0  0  0  0  0  0  0  0  0  0  # atno 6907 bound_to 6896
  151.5316  135.1067  159.9913 H   0  0  0  0  0  0  0  0  0  0  0  0  # atno 6908 bound_to 6896
  152.4613  133.7785  159.6893 H   0  0  0  0  0  0  0  0  0  0  0  0  # atno 6909 bound_to 6896
  145.1518  139.3206  143.4562 H   0  0  0  0  0  0  0  0  0  0  0  0  # atno 7974 bound_to 7965
  155.8962  140.1033  157.1383 H   0  0  0  0  0  0  0  0  0  0  0  0  # atno 8008 bound_to 7997
  154.4020  140.1301  156.4442 H   0  0  0  0  0  0  0  0  0  0  0  0  # atno 8009 bound_to 7997
  155.7476  140.3465  155.5137 H   0  0  0  0  0  0  0  0  0  0  0  0  # atno 8010 bound_to 7997
  140.0342  144.5442  150.7484 H   0  0  0  0  0  0  0  0  0  0  0  0  # atno 10167 bound_to 10162
  157.6654  131.0859  150.6062 H   0  0  0  0  0  0  0  0  0  0  0  0  # atno 10718 bound_to 10713
  154.6518  135.2912  154.9977 H   0  0  0  0  0  0  0  0  0  0  0  0  # atno 10763 bound_to 10752
  154.1067  135.6568  153.4881 H   0  0  0  0  0  0  0  0  0  0  0  0  # atno 10764 bound_to 10752
  153.0381  135.5255  154.7430 H   0  0  0  0  0  0  0  0  0  0  0  0  # atno 10765 bound_to 10752
  140.4047  134.1681  155.7665 H   0  0  0  0  0  0  0  0  0  0  0  0  # atno 11005 bound_to 11000
  146.3493  140.1596  142.8591 LP  0  0  0  0  0  0  0  0  0  0  0  0  # atno 17320 bound_to 7965
  145.0422  140.8954  143.5045 LP  0  0  0  0  0  0  0  0  0  0  0  0  # atno 17321 bound_to 7965
  140.7289  143.2666  151.4023 LP  0  0  0  0  0  0  0  0  0  0  0  0  # atno 17342 bound_to 10162
  139.6056  144.1204  152.2245 LP  0  0  0  0  0  0  0  0  0  0  0  0  # atno 17343 bound_to 10162
  156.6363  130.4446  149.5768 LP  0  0  0  0  0  0  0  0  0  0  0  0  # atno 17370 bound_to 10713
  156.2243  130.6756  151.1400 LP  0  0  0  0  0  0  0  0  0  0  0  0  # atno 17371 bound_to 10713
  141.1844  133.8345  157.1142 LP  0  0  0  0  0  0  0  0  0  0  0  0  # atno 17394 bound_to 11000
  140.0311  134.9901  157.0782 LP  0  0  0  0  0  0  0  0  0  0  0  0  # atno 17395 bound_to 11000

$$$$
