AV-unprocessed.smi:8|AV-procd|sdf|45|dock1
  -GOLD-   2262015163D 1   1.00000     0.00000
 Structure written by MMmdl.
 34 35  0  0  0  0  0  0  0  0  1 V2000
  152.0666  145.6172  159.5180 C   0  0  0  0  0  0  0  0  0  0  0  0
  151.0288  144.4848  159.5350 C   0  0  0  0  0  0  0  0  0  0  0  0
  151.4704  143.3073  158.8290 N   0  0  0  0  0  0  0  0  0  0  0  0
  150.8835  142.8848  157.6461 C   0  0  0  0  0  0  0  0  0  0  0  0
  151.2634  141.7685  156.9739 C   0  0  0  0  0  0  0  0  0  0  0  0
  150.6051  141.3578  155.6658 C   0  0  0  0  0  0  0  0  0  0  0  0
  149.1916  141.0375  155.8175 N   0  0  0  0  0  0  0  0  0  0  0  0
  148.5113  140.3274  154.8165 C   0  0  0  0  0  0  0  0  0  0  0  0
  148.8688  139.0456  154.5634 N   0  0  0  0  0  0  0  0  0  0  0  0
  148.2001  138.3994  153.6054 C   0  0  0  0  0  0  0  0  0  0  0  0
  147.2055  138.8848  152.8599 N   0  0  0  0  0  0  0  0  0  0  0  0
  146.8357  140.1604  153.1008 C   0  0  0  0  0  0  0  0  0  0  0  0
  147.4670  140.9469  154.0886 C   0  0  0  0  0  0  0  0  0  0  0  0
  147.0354  142.3799  154.3416 C   0  0  0  0  0  0  0  0  0  0  0  0
  152.3673  140.9564  157.4988 C   0  0  0  0  0  0  0  0  0  0  0  0
  152.8141  139.9371  156.9757 O   0  0  0  0  0  0  0  0  0  0  0  0
  152.9247  141.4168  158.6955 N   0  0  0  0  0  0  0  0  0  0  0  0
  152.5241  142.5545  159.3940 C   0  0  0  0  0  0  0  0  0  0  0  0
  153.0829  142.8571  160.4485 O   0  0  0  0  0  0  0  0  0  0  0  0
  153.6824  140.8779  159.0893 H   0  0  0  0  0  0  0  0  0  0  0  0
  151.7131  146.4730  160.0934 H   0  0  0  0  0  0  0  0  0  0  0  0
  152.2684  145.9631  158.5041 H   0  0  0  0  0  0  0  0  0  0  0  0
  153.0110  145.2912  159.9547 H   0  0  0  0  0  0  0  0  0  0  0  0
  150.8225  144.1692  160.5588 H   0  0  0  0  0  0  0  0  0  0  0  0
  150.0697  144.7891  159.1107 H   0  0  0  0  0  0  0  0  0  0  0  0
  150.0743  143.4742  157.2385 H   0  0  0  0  0  0  0  0  0  0  0  0
  150.7081  142.1604  154.9345 H   0  0  0  0  0  0  0  0  0  0  0  0
  151.1368  140.4937  155.2646 H   0  0  0  0  0  0  0  0  0  0  0  0
  148.6564  141.5287  156.5185 H   0  0  0  0  0  0  0  0  0  0  0  0
  148.4963  137.3789  153.4126 H   0  0  0  0  0  0  0  0  0  0  0  0
  146.0298  140.5543  152.4991 H   0  0  0  0  0  0  0  0  0  0  0  0
  146.2203  142.6692  153.6779 H   0  0  0  0  0  0  0  0  0  0  0  0
  147.8682  143.0633  154.1736 H   0  0  0  0  0  0  0  0  0  0  0  0
  146.6929  142.4977  155.3700 H   0  0  0  0  0  0  0  0  0  0  0  0
  1  2  1  0  0  0  0
  1 21  1  0  0  0  0
  1 22  1  0  0  0  0
  1 23  1  0  0  0  0
  2  3  1  0  0  0  0
  2 24  1  0  0  0  0
  2 25  1  0  0  0  0
  3 18  1  0  0  0  0
  3  4  1  0  0  0  0
  4  5  2  0  0  0  0
  4 26  1  0  0  0  0
  5  6  1  0  0  0  0
  5 15  1  0  0  0  0
  6  7  1  0  0  0  0
  6 27  1  0  0  0  0
  6 28  1  0  0  0  0
  7  8  1  0  0  0  0
  7 29  1  0  0  0  0
  8 13  1  0  0  0  0
  8  9  2  0  0  0  0
  9 10  1  0  0  0  0
 10 11  2  0  0  0  0
 10 30  1  0  0  0  0
 11 12  1  0  0  0  0
 12 13  2  0  0  0  0
 12 31  1  0  0  0  0
 13 14  1  0  0  0  0
 14 32  1  0  0  0  0
 14 33  1  0  0  0  0
 14 34  1  0  0  0  0
 15 16  2  0  0  0  0
 15 17  1  0  0  0  0
 17 20  1  0  0  0  0
 17 18  1  0  0  0  0
 18 19  2  0  0  0  0
M  END
> <s_m_source_file>
AV-unprocessed.smi

> <i_m_source_file_index>
8

> <i_lp_mmshare_version>
43012

> <i_f3d_flags>
0

> <s_epik_input>
W0NIM11bQ0gyXW4xW2NIXWMoYyg9TylbbkhdYzE9TylbQ0gyXVtOSF1jMm5bY0hdbltjSF1jMltDSDNd

> <s_epik_cmdline>
J2VwaWtfcHl0aG9uJywgJy1waCcsICc3LjAnLCAnLXRuJywgJzgnLCAnLW1hJywgJzIwMCcsICctbWV0YWxfYmluZGluZycsICctaW1hZScsICc8aW5maWxlLm1hZT4nLCAnLW9tYWUnLCAnPG91dGZpbGUubWFlPic=

> <r_lp_tautomer_probability>
0.999537

> <r_epik_Ionization_Penalty>
0.0165471

> <r_epik_Ionization_Penalty_Charging>
0.000694205

> <r_epik_Ionization_Penalty_Neutral>
0.0158529

> <r_epik_State_Penalty>
0.0119799

> <r_epik_Charging_Adjusted_Penalty>
0.0126741

> <i_epik_Tot_Q>
0

> <i_epik_Tot_abs_Q>
0

> <r_epik_Metal_State_Penalty>
0.262409

> <b_epik_Metal_Only>
0

> <s_lp_Force_Field>
OPLS_2005

> <r_lp_Energy>
9.23324

> <b_lp_Chiralities_Consistent>
1

> <s_lp_Variant>
AV-unprocessed.smi:8-1

> <Gold.Version>
5.8.1

> <Gold.Id.Protein>
6NUR|6NUR_protein|mol2

> <Gold.PLP.Fitness>
42.4329

> <Gold.PLP.PLP>
-32.0202

> <Gold.PLP.part.hbond>
-1.0000

> <Gold.PLP.part.metal>
0.0000

> <Gold.PLP.part.buried>
-3.2093

> <Gold.PLP.part.nonpolar>
-28.7406

> <Gold.PLP.part.repulsive>
0.5639

> <Gold.PLP.ligand.clash>
0.0000

> <Gold.PLP.ligand.torsion>
0.8049

> <Gold.PLP.Chemscore.Hbond>
1.0000

> <Gold.PLP.Chemscore.CHOScore>
2.9963

> <Gold.PLP.Chemscore.Metal>
0.0000

> <Gold.Chemscore.Hbonds>
donor molecule, donor type, donor heavy atom, donor atom, acceptor molecule, acceptor atom, score
      P1  H  7997  8009       L1    16  1.00
      L1  C     4    26       P1  8028  1.00
      L1  C    10    30       P1  7948  0.86
      L1  C    12    31       P1 10175  1.00

> <Gold.PLP.Chemscore.Internal.Correction>
0.0336

> <Gold.Rescore>
     Score         DG    S(hbond)    S(metal)    S(lipo)     H(rot)  DE(clash)    DE(int)     intcor
     10.45     -11.77       0.81        0.00      68.65       1.73       0.45       0.87       ----

> <Gold.Chemscore.Fitness>
10.4492

> <Gold.Chemscore.DG>
-11.7716

> <Gold.Chemscore.ZeroCoef>
-5.4800

> <Gold.Chemscore.Hbond>
0.8053

> <Gold.Chemscore.Metal>
0.0000

> <Gold.Chemscore.Lipo>
68.6540

> <Gold.Chemscore.Internal_Hbond>
0.0000

> <Gold.Chemscore.DEClash>
0.4476

> <Gold.Chemscore.DEInternal>
0.8748

> <Gold.Chemscore.Rot>
1.7307

> <Gold.Chemscore.Internal.Correction>
   9.000000E+99

> <Gold.Chemscore.Hbonds>
donor molecule, donor type, donor heavy atom, donor atom, acceptor molecule, acceptor atom, score
      P1  H  7997  8009       L1    16  0.83

> <Gold.Chemscore.Hbond.Weighted>
-2.6897

> <Gold.Chemscore.Metal.Weighted>
-0.0000

> <Gold.Chemscore.Lipo.Weighted>
-8.0325

> <Gold.Chemscore.Internal_Hbond.Weighted>
0.0000

> <Gold.Chemscore.DEClash.Weighted>
0.4476

> <Gold.Chemscore.DEInternal.Weighted>
0.8748

> <Gold.Chemscore.Rot.Weighted>
4.4305

> <Gold.Chemscore.Internal.Correction.Weighted>
   9.000000E+99

> <Gold.Protein.RotatedTorsions>
[ 6907 6896 6895 6894 ] final -171.64 input  -60.11 | X-H torsion
[ 7974 7965 7964 7962 ] final  -24.85 input  175.53 | X-H torsion
[ 8008 7997 7996 7995 ] final -165.44 input   59.86 | X-H torsion
[ 10167 10162 10161 10158 ] final   36.15 input  -65.29 | X-H torsion
[ 10718 10713 10712 10709 ] final   30.27 input   66.30 | X-H torsion
[ 10763 10752 10751 10750 ] final   74.35 input  -60.55 | X-H torsion
[ 11005 11000 10999 10996 ] final   57.72 input  -57.11 | X-H torsion

> <Gold.Protein.ActiveResidues>
 VAL166  LYS551  ARG553  GLY616  TRP617  ASP618  TYR619  PRO620  LYS621  CYS622 
 ASP623  PHE694  ASN695  SER759  ASP760  ASP761  ALA762  ILE779  LEU786  VAL792 
 PHE793  MET794  SER795  GLU796  ALA797  LYS798  CYS799  TRP800  GLU811  SER814 

> <Gold.Protein.RotatedAtoms>
  151.5271  133.3456  159.2911 H   0  0  0  0  0  0  0  0  0  0  0  0  # atno 6907 bound_to 6896
  150.8616  134.7972  159.7098 H   0  0  0  0  0  0  0  0  0  0  0  0  # atno 6908 bound_to 6896
  152.4634  134.5141  159.9814 H   0  0  0  0  0  0  0  0  0  0  0  0  # atno 6909 bound_to 6896
  146.1528  140.4807  142.8604 H   0  0  0  0  0  0  0  0  0  0  0  0  # atno 7974 bound_to 7965
  155.8498  140.0961  157.1682 H   0  0  0  0  0  0  0  0  0  0  0  0  # atno 8008 bound_to 7997
  154.3985  140.1385  156.3892 H   0  0  0  0  0  0  0  0  0  0  0  0  # atno 8009 bound_to 7997
  155.7974  140.3454  155.5385 H   0  0  0  0  0  0  0  0  0  0  0  0  # atno 8010 bound_to 7997
  140.4155  144.1533  150.6143 H   0  0  0  0  0  0  0  0  0  0  0  0  # atno 10167 bound_to 10162
  157.2573  130.7144  149.6436 H   0  0  0  0  0  0  0  0  0  0  0  0  # atno 10718 bound_to 10713
  153.0581  135.5029  154.8029 H   0  0  0  0  0  0  0  0  0  0  0  0  # atno 10763 bound_to 10752
  154.6840  135.2973  154.9576 H   0  0  0  0  0  0  0  0  0  0  0  0  # atno 10764 bound_to 10752
  154.0353  135.6724  153.4837 H   0  0  0  0  0  0  0  0  0  0  0  0  # atno 10765 bound_to 10752
  140.0431  134.5845  155.9357 H   0  0  0  0  0  0  0  0  0  0  0  0  # atno 11005 bound_to 11000
  144.7926  140.6061  143.6531 LP  0  0  0  0  0  0  0  0  0  0  0  0  # atno 17320 bound_to 7965
  145.4781  139.1497  143.3777 LP  0  0  0  0  0  0  0  0  0  0  0  0  # atno 17321 bound_to 7965
  140.4591  143.2456  151.9244 LP  0  0  0  0  0  0  0  0  0  0  0  0  # atno 17342 bound_to 10162
  139.4782  144.5486  151.8421 LP  0  0  0  0  0  0  0  0  0  0  0  0  # atno 17343 bound_to 10162
  155.9664  130.4408  150.5316 LP  0  0  0  0  0  0  0  0  0  0  0  0  # atno 17370 bound_to 10713
  157.3213  131.0682  151.1930 LP  0  0  0  0  0  0  0  0  0  0  0  0  # atno 17371 bound_to 10713
  141.1893  133.6565  156.5362 LP  0  0  0  0  0  0  0  0  0  0  0  0  # atno 17394 bound_to 11000
  140.4037  134.7334  157.4795 LP  0  0  0  0  0  0  0  0  0  0  0  0  # atno 17395 bound_to 11000

$$$$
