AV-unprocessed.smi:912|AV-procd|sdf|4143|dock4
  -GOLD-   22720 2 53D 1   1.00000     0.00000
 Structure written by MMmdl.
 27 27  0  0  0  0  0  0  0  0  2 V2000
  146.1183  137.6495  151.8081 C   0  0  0  0  0  0  0  0  0  0  0  0
  146.2215  136.2134  151.4576 N   0  3  0  0  0  0  0  0  0  0  0  0
  145.3576  135.2450  152.1937 C   0  0  2  0  0  0  0  0  0  0  0  0
  143.9962  135.9044  152.5384 C   0  0  0  0  0  0  0  0  0  0  0  0
  146.1183  134.8051  153.4709 C   0  0  0  0  0  0  0  0  0  0  0  0
  147.3469  135.2979  153.6686 N   0  0  0  0  0  0  0  0  0  0  0  0
  145.6018  134.0401  154.2833 O   0  0  0  0  0  0  0  0  0  0  0  0
  145.0962  133.9954  151.3259 C   0  0  0  0  0  0  0  0  0  0  0  0
  146.1425  133.1851  150.8153 C   0  0  0  0  0  0  0  0  0  0  0  0
  145.8170  132.0628  150.0268 C   0  0  0  0  0  0  0  0  0  0  0  0
  144.5520  131.7091  149.7231 N   0  0  0  0  0  0  0  0  0  0  0  0
  143.5533  132.4764  150.2040 C   0  0  0  0  0  0  0  0  0  0  0  0
  143.7704  133.6173  151.0011 C   0  0  0  0  0  0  0  0  0  0  0  0
  146.8769  138.2081  151.2599 H   0  0  0  0  0  0  0  0  0  0  0  0
  146.2827  137.8258  152.8712 H   0  0  0  0  0  0  0  0  0  0  0  0
  145.1488  138.0615  151.5290 H   0  0  0  0  0  0  0  0  0  0  0  0
  146.0066  136.1259  150.4747 H   0  0  0  0  0  0  0  0  0  0  0  0
  143.3264  135.2143  153.0524 H   0  0  0  0  0  0  0  0  0  0  0  0
  143.4833  136.2381  151.6358 H   0  0  0  0  0  0  0  0  0  0  0  0
  144.1023  136.7694  153.1934 H   0  0  0  0  0  0  0  0  0  0  0  0
  147.8666  135.0592  154.5008 H   0  0  0  0  0  0  0  0  0  0  0  0
  147.7426  135.9347  152.9911 H   0  0  0  0  0  0  0  0  0  0  0  0
  147.1842  133.3926  151.0063 H   0  0  0  0  0  0  0  0  0  0  0  0
  146.5977  131.4314  149.6291 H   0  0  0  0  0  0  0  0  0  0  0  0
  142.5492  132.1725  149.9476 H   0  0  0  0  0  0  0  0  0  0  0  0
  142.9243  134.1863  151.3577 H   0  0  0  0  0  0  0  0  0  0  0  0
  147.1799  135.9272  151.5961 H   0  0  0  0  0  0  0  0  0  0  0  0
  1  2  1  0  0  0  0
  1 14  1  0  0  0  0
  1 15  1  0  0  0  0
  1 16  1  0  0  0  0
  2  3  1  0  0  0  0
  2 17  1  0  0  0  0
  2 27  1  0  0  0  0
  3  4  1  0  0  0  0
  3  5  1  0  0  0  0
  3  8  1  0  0  0  0
  4 18  1  0  0  0  0
  4 19  1  0  0  0  0
  4 20  1  0  0  0  0
  5  6  1  0  0  0  0
  5  7  2  0  0  0  0
  6 21  1  0  0  0  0
  6 22  1  0  0  0  0
  8 13  1  0  0  0  0
  8  9  2  0  0  0  0
  9 10  1  0  0  0  0
  9 23  1  0  0  0  0
 10 11  2  0  0  0  0
 10 24  1  0  0  0  0
 11 12  1  0  0  0  0
 12 13  2  0  0  0  0
 12 25  1  0  0  0  0
 13 26  1  0  0  0  0
M  CHG  1   2   1
M  END
> <s_m_source_file>
AV-unprocessed.smi

> <i_m_source_file_index>
912

> <i_lp_mmshare_version>
43012

> <i_f3d_flags>
0

> <s_epik_input>
W0NIM11bTkhdW0NAQF0oW0NIM10pKEMoPU8pW05IMl0pYzFbY0hdW2NIXW5bY0hdW2NIXTE=

> <s_epik_cmdline>
J2VwaWtfcHl0aG9uJywgJy1waCcsICc3LjAnLCAnLXRuJywgJzgnLCAnLW1hJywgJzIwMCcsICctbWV0YWxfYmluZGluZycsICctaW1hZScsICc8aW5maWxlLm1hZT4nLCAnLW9tYWUnLCAnPG91dGZpbGUubWFlPic=

> <r_epik_Ionization_Penalty>
0.8426

> <r_epik_Ionization_Penalty_Charging>
0.842363

> <r_epik_Ionization_Penalty_Neutral>
0.000236815

> <r_epik_State_Penalty>
0.498415

> <r_epik_Charging_Adjusted_Penalty>
1.34078

> <i_epik_Tot_Q>
1

> <i_epik_Tot_abs_Q>
1

> <r_epik_Metal_State_Penalty>
0.661775

> <b_epik_Metal_Only>
0

> <s_lp_Force_Field>
OPLS_2005

> <r_lp_Energy>
11.5286

> <b_lp_Chiralities_Consistent>
1

> <s_lp_Variant>
AV-unprocessed.smi:912-4

> <Gold.Version>
5.8.1

> <Gold.Id.Protein>
6NUR|6NUR_protein|mol2

> <Gold.PLP.Fitness>
37.4196

> <Gold.PLP.PLP>
-21.9042

> <Gold.PLP.part.hbond>
-2.9473

> <Gold.PLP.part.metal>
0.0000

> <Gold.PLP.part.buried>
-1.2407

> <Gold.PLP.part.nonpolar>
-19.1788

> <Gold.PLP.part.repulsive>
0.3239

> <Gold.PLP.ligand.clash>
0.0000

> <Gold.PLP.ligand.torsion>
0.4958

> <Gold.PLP.Chemscore.Hbond>
3.2221

> <Gold.PLP.Chemscore.CHOScore>
2.2774

> <Gold.PLP.Chemscore.Metal>
0.0000

> <Gold.Chemscore.Hbonds>
donor molecule, donor type, donor heavy atom, donor atom, acceptor molecule, acceptor atom, score
      L1  H     2    27       P1  7948  2.00
      L1  H     6    22       P1  7948  0.93
      P1  H 10785 10796       L1    11  0.15
      L1  C    10    24       P1 10747  1.00
      L1  C    12    25       P1 10186  0.27
      L1  C    12    25       P1 10952  0.99

> <Gold.PLP.Chemscore.Internal.Correction>
0.0087

> <Gold.Rescore>
     Score         DG    S(hbond)    S(metal)    S(lipo)     H(rot)  DE(clash)    DE(int)     intcor
     13.40     -13.94       1.94        0.00      56.87       1.83       0.01       0.53       ----

> <Gold.Chemscore.Fitness>
13.4000

> <Gold.Chemscore.DG>
-13.9442

> <Gold.Chemscore.ZeroCoef>
-5.4800

> <Gold.Chemscore.Hbond>
1.9423

> <Gold.Chemscore.Metal>
0.0000

> <Gold.Chemscore.Lipo>
56.8720

> <Gold.Chemscore.Internal_Hbond>
0.0000

> <Gold.Chemscore.DEClash>
0.0127

> <Gold.Chemscore.DEInternal>
0.5316

> <Gold.Chemscore.Rot>
1.8270

> <Gold.Chemscore.Internal.Correction>
   9.000000E+99

> <Gold.Chemscore.Hbonds>
donor molecule, donor type, donor heavy atom, donor atom, acceptor molecule, acceptor atom, score
      L1  H     2    27       P1  7948  0.98
      L1  H     6    22       P1  7948  0.91
      P1  H 10785 10796       L1    11  0.03

> <Gold.Chemscore.Hbond.Weighted>
-6.4873

> <Gold.Chemscore.Metal.Weighted>
-0.0000

> <Gold.Chemscore.Lipo.Weighted>
-6.6540

> <Gold.Chemscore.Internal_Hbond.Weighted>
0.0000

> <Gold.Chemscore.DEClash.Weighted>
0.0127

> <Gold.Chemscore.DEInternal.Weighted>
0.5316

> <Gold.Chemscore.Rot.Weighted>
4.6771

> <Gold.Chemscore.Internal.Correction.Weighted>
   9.000000E+99

> <Gold.Protein.RotatedTorsions>
[ 6907 6896 6895 6894 ] final -176.92 input  -60.11 | X-H torsion
[ 7974 7965 7964 7962 ] final  -19.23 input  175.53 | X-H torsion
[ 8008 7997 7996 7995 ] final  -61.87 input   59.86 | X-H torsion
[ 10167 10162 10161 10158 ] final   -9.80 input  -65.29 | X-H torsion
[ 10718 10713 10712 10709 ] final -102.63 input   66.30 | X-H torsion
[ 10763 10752 10751 10750 ] final   84.21 input  -60.55 | X-H torsion
[ 11005 11000 10999 10996 ] final  128.97 input  -57.11 | X-H torsion

> <Gold.Protein.ActiveResidues>
 VAL166  LYS551  ARG553  GLY616  TRP617  ASP618  TYR619  PRO620  LYS621  CYS622 
 ASP623  PHE694  ASN695  SER759  ASP760  ASP761  ALA762  ILE779  LEU786  VAL792 
 PHE793  MET794  SER795  GLU796  ALA797  LYS798  CYS799  TRP800  GLU811  SER814 

> <Gold.Protein.RotatedAtoms>
  151.6127  133.3346  159.3070 H   0  0  0  0  0  0  0  0  0  0  0  0  # atno 6907 bound_to 6896
  150.8148  134.7327  159.6731 H   0  0  0  0  0  0  0  0  0  0  0  0  # atno 6908 bound_to 6896
  152.4244  134.5901  160.0023 H   0  0  0  0  0  0  0  0  0  0  0  0  # atno 6909 bound_to 6896
  146.1852  140.4033  142.8479 H   0  0  0  0  0  0  0  0  0  0  0  0  # atno 7974 bound_to 7965
  154.4470  140.1008  156.6498 H   0  0  0  0  0  0  0  0  0  0  0  0  # atno 8008 bound_to 7997
  155.5410  140.3483  155.4428 H   0  0  0  0  0  0  0  0  0  0  0  0  # atno 8009 bound_to 7997
  156.0597  140.1323  156.9945 H   0  0  0  0  0  0  0  0  0  0  0  0  # atno 8010 bound_to 7997
  140.7097  143.5818  150.8984 H   0  0  0  0  0  0  0  0  0  0  0  0  # atno 10167 bound_to 10162
  156.0235  130.5429  150.7136 H   0  0  0  0  0  0  0  0  0  0  0  0  # atno 10718 bound_to 10713
  153.1361  135.4662  154.9424 H   0  0  0  0  0  0  0  0  0  0  0  0  # atno 10763 bound_to 10752
  154.7707  135.3158  154.8198 H   0  0  0  0  0  0  0  0  0  0  0  0  # atno 10764 bound_to 10752
  153.8730  135.6901  153.4827 H   0  0  0  0  0  0  0  0  0  0  0  0  # atno 10765 bound_to 10752
  139.9589  134.9607  156.9079 H   0  0  0  0  0  0  0  0  0  0  0  0  # atno 11005 bound_to 11000
  144.8384  140.6819  143.6245 LP  0  0  0  0  0  0  0  0  0  0  0  0  # atno 17320 bound_to 7965
  145.3960  139.1607  143.4203 LP  0  0  0  0  0  0  0  0  0  0  0  0  # atno 17321 bound_to 7965
  139.9544  143.6235  152.3020 LP  0  0  0  0  0  0  0  0  0  0  0  0  # atno 17342 bound_to 10162
  139.6765  144.7658  151.1686 LP  0  0  0  0  0  0  0  0  0  0  0  0  # atno 17343 bound_to 10162
  157.4768  131.0898  151.0581 LP  0  0  0  0  0  0  0  0  0  0  0  0  # atno 17370 bound_to 10713
  157.1025  130.5988  149.5463 LP  0  0  0  0  0  0  0  0  0  0  0  0  # atno 17371 bound_to 10713
  140.5545  134.0595  155.7379 LP  0  0  0  0  0  0  0  0  0  0  0  0  # atno 17394 bound_to 11000
  141.1264  133.9375  157.2626 LP  0  0  0  0  0  0  0  0  0  0  0  0  # atno 17395 bound_to 11000

$$$$
