AV-unprocessed.smi:1536|AV-procd|sdf|6189|dock6
  -GOLD-   22720 6353D 1   1.00000     0.00000
 Structure written by MMmdl.
 48 49  0  0  0  0  0  0  0  0  2 V2000
  144.0986  133.3528  151.2238 C   0  0  0  0  0  0  0  0  0  0  0  0
  145.3204  134.1871  150.8001 C   0  0  2  0  0  0  0  0  0  0  0  0
  146.6429  133.4053  150.9122 C   0  0  0  0  0  0  0  0  0  0  0  0
  147.0860  133.2200  152.3738 C   0  0  0  0  0  0  0  0  0  0  0  0
  147.1827  134.5338  153.0642 N   0  3  2  0  0  0  0  0  0  0  0  0
  147.8836  134.5288  154.3879 C   0  0  1  0  0  0  0  0  0  0  0  0
  147.0671  133.8628  155.5369 C   0  0  0  0  0  0  0  0  0  0  0  0
  147.7261  133.8823  156.8400 N   0  0  0  0  0  0  0  0  0  0  0  0
  147.3565  134.6467  157.8789 C   0  0  0  0  0  0  0  0  0  0  0  0
  146.3797  135.3962  157.8451 O   0  0  0  0  0  0  0  0  0  0  0  0
  148.2164  134.5165  159.1416 C   0  0  0  0  0  0  0  0  0  0  0  0
  147.7928  135.4120  160.2037 N   0  0  0  0  0  0  0  0  0  0  0  0
  147.3749  135.1639  161.4467 C   0  0  0  0  0  0  0  0  0  0  0  0
  147.0740  136.2796  162.0931 N   0  0  0  0  0  0  0  0  0  0  0  0
  147.3357  137.2658  161.1567 N   0  0  0  0  0  0  0  0  0  0  0  0
  147.7625  136.7570  160.0334 N   0  0  0  0  0  0  0  0  0  0  0  0
  149.3038  133.9109  154.2301 C   0  0  0  0  0  0  0  0  0  0  0  0
  149.2912  132.3701  154.2256 C   0  0  0  0  0  0  0  0  0  0  0  0
  150.2696  134.3958  155.3302 C   0  0  0  0  0  0  0  0  0  0  0  0
  145.9036  135.2912  153.0308 C   0  0  0  0  0  0  0  0  0  0  0  0
  145.4364  135.5100  151.5809 C   0  0  0  0  0  0  0  0  0  0  0  0
  144.1433  133.0569  152.2717 H   0  0  0  0  0  0  0  0  0  0  0  0
  144.0220  132.4429  150.6279 H   0  0  0  0  0  0  0  0  0  0  0  0
  143.1752  133.9142  151.0799 H   0  0  0  0  0  0  0  0  0  0  0  0
  145.1740  134.4368  149.7484 H   0  0  0  0  0  0  0  0  0  0  0  0
  146.5520  132.4353  150.4220 H   0  0  0  0  0  0  0  0  0  0  0  0
  147.4231  133.9440  150.3724 H   0  0  0  0  0  0  0  0  0  0  0  0
  146.3845  132.5673  152.8928 H   0  0  0  0  0  0  0  0  0  0  0  0
  148.0539  132.7192  152.3912 H   0  0  0  0  0  0  0  0  0  0  0  0
  148.0461  135.5697  154.6711 H   0  0  0  0  0  0  0  0  0  0  0  0
  146.0970  134.3486  155.6431 H   0  0  0  0  0  0  0  0  0  0  0  0
  146.8492  132.8215  155.2997 H   0  0  0  0  0  0  0  0  0  0  0  0
  148.5411  133.2960  156.9495 H   0  0  0  0  0  0  0  0  0  0  0  0
  148.1624  133.4912  159.5094 H   0  0  0  0  0  0  0  0  0  0  0  0
  149.2612  134.7208  158.9020 H   0  0  0  0  0  0  0  0  0  0  0  0
  147.2889  134.1751  161.8726 H   0  0  0  0  0  0  0  0  0  0  0  0
  149.7168  134.2289  153.2724 H   0  0  0  0  0  0  0  0  0  0  0  0
  148.7917  131.9739  155.1103 H   0  0  0  0  0  0  0  0  0  0  0  0
  150.3051  131.9688  154.2132 H   0  0  0  0  0  0  0  0  0  0  0  0
  148.7911  131.9677  153.3453 H   0  0  0  0  0  0  0  0  0  0  0  0
  149.8956  134.1471  156.3240 H   0  0  0  0  0  0  0  0  0  0  0  0
  150.4277  135.4736  155.2917 H   0  0  0  0  0  0  0  0  0  0  0  0
  151.2509  133.9324  155.2234 H   0  0  0  0  0  0  0  0  0  0  0  0
  145.1311  134.7668  153.5895 H   0  0  0  0  0  0  0  0  0  0  0  0
  146.0341  136.2626  153.5091 H   0  0  0  0  0  0  0  0  0  0  0  0
  146.1494  136.1623  151.0746 H   0  0  0  0  0  0  0  0  0  0  0  0
  144.4834  136.0400  151.5705 H   0  0  0  0  0  0  0  0  0  0  0  0
  147.7960  135.0845  152.4802 H   0  0  0  0  0  0  0  0  0  0  0  0
  1  2  1  0  0  0  0
  1 22  1  0  0  0  0
  1 23  1  0  0  0  0
  1 24  1  0  0  0  0
  2 21  1  0  0  0  0
  2  3  1  0  0  0  0
  2 25  1  0  0  0  0
  3  4  1  0  0  0  0
  3 26  1  0  0  0  0
  3 27  1  0  0  0  0
  4  5  1  0  0  0  0
  4 28  1  0  0  0  0
  4 29  1  0  0  0  0
  5  6  1  0  0  0  0
  5 20  1  0  0  0  0
  5 48  1  0  0  0  0
  6  7  1  0  0  0  0
  6 17  1  0  0  0  0
  6 30  1  0  0  0  0
  7  8  1  0  0  0  0
  7 31  1  0  0  0  0
  7 32  1  0  0  0  0
  8  9  1  0  0  0  0
  8 33  1  0  0  0  0
  9 10  2  0  0  0  0
  9 11  1  0  0  0  0
 11 12  1  0  0  0  0
 11 34  1  0  0  0  0
 11 35  1  0  0  0  0
 12 16  1  0  0  0  0
 12 13  1  0  0  0  0
 13 14  2  0  0  0  0
 13 36  1  0  0  0  0
 14 15  1  0  0  0  0
 15 16  2  0  0  0  0
 17 18  1  0  0  0  0
 17 19  1  0  0  0  0
 17 37  1  0  0  0  0
 18 38  1  0  0  0  0
 18 39  1  0  0  0  0
 18 40  1  0  0  0  0
 19 41  1  0  0  0  0
 19 42  1  0  0  0  0
 19 43  1  0  0  0  0
 20 21  1  0  0  0  0
 20 44  1  0  0  0  0
 20 45  1  0  0  0  0
 21 46  1  0  0  0  0
 21 47  1  0  0  0  0
M  CHG  1   5   1
M  END
> <s_m_source_file>
AV-unprocessed.smi

> <i_m_source_file_index>
1536

> <i_lp_mmshare_version>
43012

> <i_f3d_flags>
0

> <s_epik_input>
W0NIM11bQ0hdMVtDSDJdW0NIMl1OKFtDSDJdW0NIMl0xKVtDQEBIXShbQ0hdKFtDSDNdKVtDSDNdKVtDSDJdW05IXUMoPU8pW0NIMl1uMltjSF1ubm4y

> <s_epik_cmdline>
J2VwaWtfcHl0aG9uJywgJy1waCcsICc3LjAnLCAnLXRuJywgJzgnLCAnLW1hJywgJzIwMCcsICctbWV0YWxfYmluZGluZycsICctaW1hZScsICc8aW5maWxlLm1hZT4nLCAnLW9tYWUnLCAnPG91dGZpbGUubWFlPic=

> <r_lp_tautomer_probability>
1

> <r_epik_Ionization_Penalty>
0.00109671

> <r_epik_Ionization_Penalty_Charging>
0.00109273

> <r_epik_Ionization_Penalty_Neutral>
3.97951e-06

> <r_epik_State_Penalty>
0.000716588

> <r_epik_Charging_Adjusted_Penalty>
0.00180932

> <i_epik_Tot_Q>
1

> <i_epik_Tot_abs_Q>
1

> <r_epik_Metal_State_Penalty>
-0

> <b_epik_Metal_Only>
0

> <s_lp_Force_Field>
OPLS_2005

> <r_lp_Energy>
37.5817

> <b_lp_Chiralities_Consistent>
1

> <s_lp_Variant>
AV-unprocessed.smi:1536-4

> <Gold.Version>
5.8.1

> <Gold.Id.Protein>
6NUR|6NUR_protein|mol2

> <Gold.PLP.Fitness>
42.5754

> <Gold.PLP.PLP>
-31.3570

> <Gold.PLP.part.hbond>
-3.0000

> <Gold.PLP.part.metal>
0.0000

> <Gold.PLP.part.buried>
-4.6960

> <Gold.PLP.part.nonpolar>
-23.4602

> <Gold.PLP.part.repulsive>
0.0052

> <Gold.PLP.ligand.clash>
0.0000

> <Gold.PLP.ligand.torsion>
0.4845

> <Gold.PLP.Chemscore.Hbond>
3.8720

> <Gold.PLP.Chemscore.CHOScore>
0.0000

> <Gold.PLP.Chemscore.Metal>
0.0000

> <Gold.Chemscore.Hbonds>
donor molecule, donor type, donor heavy atom, donor atom, acceptor molecule, acceptor atom, score
      L1  H     5    48       P1  7948  2.00
      P1  H  6931  6943       L1    15  0.68
      P1  H  6934  6947       L1    15  1.00

> <Gold.PLP.Chemscore.Internal.Correction>
0.5714

> <Gold.Rescore>
     Score         DG    S(hbond)    S(metal)    S(lipo)     H(rot)  DE(clash)    DE(int)     intcor
     12.50     -13.43       2.48        0.00      57.74       2.77       0.03       0.91       ----

> <Gold.Chemscore.Fitness>
12.4953

> <Gold.Chemscore.DG>
-13.4316

> <Gold.Chemscore.ZeroCoef>
-5.4800

> <Gold.Chemscore.Hbond>
2.4818

> <Gold.Chemscore.Metal>
0.0000

> <Gold.Chemscore.Lipo>
57.7416

> <Gold.Chemscore.Internal_Hbond>
0.0000

> <Gold.Chemscore.DEClash>
0.0310

> <Gold.Chemscore.DEInternal>
0.9053

> <Gold.Chemscore.Rot>
2.7709

> <Gold.Chemscore.Internal.Correction>
   9.000000E+99

> <Gold.Chemscore.Hbonds>
donor molecule, donor type, donor heavy atom, donor atom, acceptor molecule, acceptor atom, score
      L1  H     5    48       P1  7948  0.97
      P1  H  6931  6943       L1    15  0.13
      P1  H  6934  6947       L1    15  0.63

> <Gold.Chemscore.Hbond.Weighted>
-8.2893

> <Gold.Chemscore.Metal.Weighted>
-0.0000

> <Gold.Chemscore.Lipo.Weighted>
-6.7558

> <Gold.Chemscore.Internal_Hbond.Weighted>
0.0000

> <Gold.Chemscore.DEClash.Weighted>
0.0310

> <Gold.Chemscore.DEInternal.Weighted>
0.9053

> <Gold.Chemscore.Rot.Weighted>
7.0935

> <Gold.Chemscore.Internal.Correction.Weighted>
   9.000000E+99

> <Gold.Protein.RotatedTorsions>
[ 6907 6896 6895 6894 ] final -165.50 input  -60.11 | X-H torsion
[ 7974 7965 7964 7962 ] final  -91.37 input  175.53 | X-H torsion
[ 8008 7997 7996 7995 ] final   81.78 input   59.86 | X-H torsion
[ 10167 10162 10161 10158 ] final   44.17 input  -65.29 | X-H torsion
[ 10718 10713 10712 10709 ] final  -68.58 input   66.30 | X-H torsion
[ 10763 10752 10751 10750 ] final    1.35 input  -60.55 | X-H torsion
[ 11005 11000 10999 10996 ] final  138.15 input  -57.11 | X-H torsion

> <Gold.Protein.ActiveResidues>
 VAL166  LYS551  ARG553  GLY616  TRP617  ASP618  TYR619  PRO620  LYS621  CYS622 
 ASP623  PHE694  ASN695  SER759  ASP760  ASP761  ALA762  ILE779  LEU786  VAL792 
 PHE793  MET794  SER795  GLU796  ALA797  LYS798  CYS799  TRP800  GLU811  SER814 

> <Gold.Protein.RotatedAtoms>
  151.4287  133.3677  159.2765 H   0  0  0  0  0  0  0  0  0  0  0  0  # atno 6907 bound_to 6896
  150.9241  134.8659  159.7519 H   0  0  0  0  0  0  0  0  0  0  0  0  # atno 6908 bound_to 6896
  152.4996  134.4227  159.9538 H   0  0  0  0  0  0  0  0  0  0  0  0  # atno 6909 bound_to 6896
  145.4140  140.9547  143.2218 H   0  0  0  0  0  0  0  0  0  0  0  0  # atno 7974 bound_to 7965
  155.9018  140.3433  155.6032 H   0  0  0  0  0  0  0  0  0  0  0  0  # atno 8008 bound_to 7997
  155.7491  140.0817  157.2228 H   0  0  0  0  0  0  0  0  0  0  0  0  # atno 8009 bound_to 7997
  154.4044  140.1556  156.2691 H   0  0  0  0  0  0  0  0  0  0  0  0  # atno 8010 bound_to 7997
  140.3370  144.2517  150.6160 H   0  0  0  0  0  0  0  0  0  0  0  0  # atno 10167 bound_to 10162
  156.0498  130.4297  150.2022 H   0  0  0  0  0  0  0  0  0  0  0  0  # atno 10718 bound_to 10713
  153.3091  135.6961  153.7132 H   0  0  0  0  0  0  0  0  0  0  0  0  # atno 10763 bound_to 10752
  153.6016  135.3461  155.2948 H   0  0  0  0  0  0  0  0  0  0  0  0  # atno 10764 bound_to 10752
  154.8570  135.4342  154.2224 H   0  0  0  0  0  0  0  0  0  0  0  0  # atno 10765 bound_to 10752
  140.0163  134.9416  157.0383 H   0  0  0  0  0  0  0  0  0  0  0  0  # atno 11005 bound_to 11000
  144.8290  139.5661  143.6952 LP  0  0  0  0  0  0  0  0  0  0  0  0  # atno 17320 bound_to 7965
  146.2690  139.6590  142.9309 LP  0  0  0  0  0  0  0  0  0  0  0  0  # atno 17321 bound_to 7965
  140.5344  143.2236  151.8186 LP  0  0  0  0  0  0  0  0  0  0  0  0  # atno 17342 bound_to 10162
  139.4847  144.4680  151.9461 LP  0  0  0  0  0  0  0  0  0  0  0  0  # atno 17343 bound_to 10162
  157.0107  130.9950  151.3366 LP  0  0  0  0  0  0  0  0  0  0  0  0  # atno 17370 bound_to 10713
  157.5412  130.8121  149.8031 LP  0  0  0  0  0  0  0  0  0  0  0  0  # atno 17371 bound_to 10713
  140.4464  134.1627  155.7178 LP  0  0  0  0  0  0  0  0  0  0  0  0  # atno 17394 bound_to 11000
  141.1745  133.8542  157.1465 LP  0  0  0  0  0  0  0  0  0  0  0  0  # atno 17395 bound_to 11000

$$$$
