AV-unprocessed.smi:1007|AV-procd|sdf|4403|dock10
  -GOLD-   22720 2343D 1   1.00000     0.00000
 Structure written by MMmdl.
 57 59  0  0  0  0  0  0  0  0  3 V2000
  152.8739  137.5367  158.7160 C   0  0  0  0  0  0  0  0  0  0  0  0
  152.3760  136.2846  158.2709 O   0  0  0  0  0  0  0  0  0  0  0  0
  150.9817  136.2802  158.0006 C   0  0  0  0  0  0  0  0  0  0  0  0
  150.6300  137.2448  156.8521 C   0  0  0  0  0  0  0  0  0  0  0  0
  150.7178  136.6607  155.5103 N   0  0  0  0  0  0  0  0  0  0  0  0
  149.6469  135.7032  155.2364 C   0  0  0  0  0  0  0  0  0  0  0  0
  148.2685  136.3678  155.0381 C   0  0  0  0  0  0  0  0  0  0  0  0
  148.3274  137.3759  153.9478 N   0  3  0  0  0  0  0  0  0  0  0  0
  147.0022  137.9916  153.6772 C   0  0  0  0  0  0  0  0  0  0  0  0
  146.1609  137.1895  152.6641 C   0  0  1  0  0  0  0  0  0  0  0  0
  146.5685  137.5284  151.3522 O   0  0  0  0  0  0  0  0  0  0  0  0
  146.3156  135.6685  152.8626 C   0  0  0  0  0  0  0  0  0  0  0  0
  145.2688  134.8985  152.1777 N   0  0  0  0  0  0  0  0  0  0  0  0
  144.1285  135.3187  151.5645 C   0  0  0  0  0  0  0  0  0  0  0  0
  143.4865  134.2148  151.0908 N   0  3  0  0  0  0  0  0  0  0  0  0
  144.2291  133.0737  151.4026 C   0  0  0  0  0  0  0  0  0  0  0  0
  143.9905  131.7302  151.1383 C   0  0  0  0  0  0  0  0  0  0  0  0
  144.9540  130.8020  151.5938 C   0  0  0  0  0  0  0  0  0  0  0  0
  144.7223  129.3249  151.3240 C   0  0  0  0  0  0  0  0  0  0  0  0
  146.1130  131.2344  152.2895 C   0  0  0  0  0  0  0  0  0  0  0  0
  147.1437  130.2277  152.7719 C   0  0  0  0  0  0  0  0  0  0  0  0
  146.3361  132.6053  152.5508 C   0  0  0  0  0  0  0  0  0  0  0  0
  145.3760  133.5059  152.0961 C   0  0  0  0  0  0  0  0  0  0  0  0
  149.4089  138.3644  154.2073 C   0  0  0  0  0  0  0  0  0  0  0  0
  150.7537  137.6410  154.4227 C   0  0  0  0  0  0  0  0  0  0  0  0
  153.9509  137.4659  158.8675 H   0  0  0  0  0  0  0  0  0  0  0  0
  152.4264  137.8390  159.6625 H   0  0  0  0  0  0  0  0  0  0  0  0
  152.6926  138.3185  157.9772 H   0  0  0  0  0  0  0  0  0  0  0  0
  150.6403  135.2640  157.8015 H   0  0  0  0  0  0  0  0  0  0  0  0
  150.4740  136.6071  158.9085 H   0  0  0  0  0  0  0  0  0  0  0  0
  149.6055  137.5816  157.0155 H   0  0  0  0  0  0  0  0  0  0  0  0
  151.2478  138.1388  156.9173 H   0  0  0  0  0  0  0  0  0  0  0  0
  149.8980  135.1386  154.3374 H   0  0  0  0  0  0  0  0  0  0  0  0
  149.5920  134.9684  156.0406 H   0  0  0  0  0  0  0  0  0  0  0  0
  147.5364  135.6002  154.7845 H   0  0  0  0  0  0  0  0  0  0  0  0
  147.9244  136.8363  155.9611 H   0  0  0  0  0  0  0  0  0  0  0  0
  146.4402  138.0706  154.6092 H   0  0  0  0  0  0  0  0  0  0  0  0
  147.1502  139.0135  153.3242 H   0  0  0  0  0  0  0  0  0  0  0  0
  145.1068  137.4434  152.7652 H   0  0  0  0  0  0  0  0  0  0  0  0
  145.8819  138.0316  150.9407 H   0  0  0  0  0  0  0  0  0  0  0  0
  147.2787  135.3285  152.4791 H   0  0  0  0  0  0  0  0  0  0  0  0
  146.2952  135.4075  153.9215 H   0  0  0  0  0  0  0  0  0  0  0  0
  143.7898  136.3408  151.4743 H   0  0  0  0  0  0  0  0  0  0  0  0
  143.1063  131.4080  150.6078 H   0  0  0  0  0  0  0  0  0  0  0  0
  144.6553  128.7712  152.2607 H   0  0  0  0  0  0  0  0  0  0  0  0
  145.5389  128.9100  150.7329 H   0  0  0  0  0  0  0  0  0  0  0  0
  143.7960  129.1601  150.7727 H   0  0  0  0  0  0  0  0  0  0  0  0
  147.9792  130.7194  153.2713 H   0  0  0  0  0  0  0  0  0  0  0  0
  147.5467  129.6590  151.9334 H   0  0  0  0  0  0  0  0  0  0  0  0
  146.6955  129.5307  153.4804 H   0  0  0  0  0  0  0  0  0  0  0  0
  147.2174  132.9339  153.0809 H   0  0  0  0  0  0  0  0  0  0  0  0
  149.5142  139.0423  153.3617 H   0  0  0  0  0  0  0  0  0  0  0  0
  149.1550  138.9811  155.0702 H   0  0  0  0  0  0  0  0  0  0  0  0
  151.5464  138.3692  154.5899 H   0  0  0  0  0  0  0  0  0  0  0  0
  151.0248  137.1294  153.4982 H   0  0  0  0  0  0  0  0  0  0  0  0
  148.5860  136.8705  153.1119 H   0  0  0  0  0  0  0  0  0  0  0  0
  142.6060  134.2412  150.5923 H   0  0  0  0  0  0  0  0  0  0  0  0
  1  2  1  0  0  0  0
  1 26  1  0  0  0  0
  1 27  1  0  0  0  0
  1 28  1  0  0  0  0
  2  3  1  0  0  0  0
  3  4  1  0  0  0  0
  3 29  1  0  0  0  0
  3 30  1  0  0  0  0
  4  5  1  0  0  0  0
  4 31  1  0  0  0  0
  4 32  1  0  0  0  0
  5 25  1  0  0  0  0
  5  6  1  0  0  0  0
  6  7  1  0  0  0  0
  6 33  1  0  0  0  0
  6 34  1  0  0  0  0
  7  8  1  0  0  0  0
  7 35  1  0  0  0  0
  7 36  1  0  0  0  0
  8  9  1  0  0  0  0
  8 24  1  0  0  0  0
  8 56  1  0  0  0  0
  9 10  1  0  0  0  0
  9 37  1  0  0  0  0
  9 38  1  0  0  0  0
 10 11  1  0  0  0  0
 10 12  1  0  0  0  0
 10 39  1  0  0  0  0
 11 40  1  0  0  0  0
 12 13  1  0  0  0  0
 12 41  1  0  0  0  0
 12 42  1  0  0  0  0
 13 23  1  0  0  0  0
 13 14  1  0  0  0  0
 14 15  2  0  0  0  0
 14 43  1  0  0  0  0
 15 16  1  0  0  0  0
 15 57  1  0  0  0  0
 16 23  2  0  0  0  0
 16 17  1  0  0  0  0
 17 18  2  0  0  0  0
 17 44  1  0  0  0  0
 18 19  1  0  0  0  0
 18 20  1  0  0  0  0
 19 45  1  0  0  0  0
 19 46  1  0  0  0  0
 19 47  1  0  0  0  0
 20 21  1  0  0  0  0
 20 22  2  0  0  0  0
 21 48  1  0  0  0  0
 21 49  1  0  0  0  0
 21 50  1  0  0  0  0
 22 23  1  0  0  0  0
 22 51  1  0  0  0  0
 24 25  1  0  0  0  0
 24 52  1  0  0  0  0
 24 53  1  0  0  0  0
 25 54  1  0  0  0  0
 25 55  1  0  0  0  0
M  CHG  1   8   1
M  CHG  1  15   1
M  END
> <s_m_source_file>
AV-unprocessed.smi

> <i_m_source_file_index>
1007

> <i_lp_mmshare_version>
43012

> <i_f3d_flags>
0

> <s_epik_input>
W0NIM11PW0NIMl1bQ0gyXU4xW0NIMl1bQ0gyXU4oW0NIMl1bQ0gyXTEpW0NIMl1bQ0BIXShbT0hdKVtDSDJdbihbY0hdbjIpYyhjMjMpW2NIXWMoW0NIM10pYyhbY0hdMylbQ0gzXQ==

> <s_epik_cmdline>
J2VwaWtfcHl0aG9uJywgJy1waCcsICc3LjAnLCAnLXRuJywgJzgnLCAnLW1hJywgJzIwMCcsICctbWV0YWxfYmluZGluZycsICctaW1hZScsICc8aW5maWxlLm1hZT4nLCAnLW9tYWUnLCAnPG91dGZpbGUubWFlPic=

> <r_epik_Ionization_Penalty>
1.19231

> <r_epik_Ionization_Penalty_Charging>
1.17974

> <r_epik_Ionization_Penalty_Neutral>
0.0125676

> <r_epik_State_Penalty>
1.24499

> <r_epik_Charging_Adjusted_Penalty>
2.42472

> <i_epik_Tot_Q>
2

> <i_epik_Tot_abs_Q>
2

> <r_epik_Metal_State_Penalty>
5.24866

> <b_epik_Metal_Only>
0

> <s_lp_Force_Field>
OPLS_2005

> <r_lp_Energy>
41.9182

> <b_lp_Chiralities_Consistent>
1

> <s_lp_Variant>
AV-unprocessed.smi:1007-6

> <Gold.Version>
5.8.1

> <Gold.Id.Protein>
6NUR|6NUR_protein|mol2

> <Gold.PLP.Fitness>
57.9409

> <Gold.PLP.PLP>
-38.9028

> <Gold.PLP.part.hbond>
-4.8434

> <Gold.PLP.part.metal>
0.0000

> <Gold.PLP.part.buried>
-3.8045

> <Gold.PLP.part.nonpolar>
-30.9090

> <Gold.PLP.part.repulsive>
0.0875

> <Gold.PLP.ligand.clash>
0.0000

> <Gold.PLP.ligand.torsion>
1.0705

> <Gold.PLP.Chemscore.Hbond>
6.0000

> <Gold.PLP.Chemscore.CHOScore>
1.0000

> <Gold.PLP.Chemscore.Metal>
0.0000

> <Gold.Chemscore.Hbonds>
donor molecule, donor type, donor heavy atom, donor atom, acceptor molecule, acceptor atom, score
      L1  H     8    56       P1  7948  1.56
      L1  H    11    40       P1 10171  0.16
      L1  H    15    57       P1 10186  2.00
      P1  H  6896  6907       L1     2  0.14
      P1  H  7954  7966       L1    11  0.59
      L1  C    14    43       P1 10171  0.36

> <Gold.PLP.Chemscore.Internal.Correction>
0.1791

> <Gold.Rescore>
     Score         DG    S(hbond)    S(metal)    S(lipo)     H(rot)  DE(clash)    DE(int)     intcor
     18.95     -23.56       3.76        0.00     105.04       2.64       2.97       1.63       ----

> <Gold.Chemscore.Fitness>
18.9548

> <Gold.Chemscore.DG>
-23.5614

> <Gold.Chemscore.ZeroCoef>
-5.4800

> <Gold.Chemscore.Hbond>
3.7601

> <Gold.Chemscore.Metal>
0.0000

> <Gold.Chemscore.Lipo>
105.0368

> <Gold.Chemscore.Internal_Hbond>
0.0000

> <Gold.Chemscore.DEClash>
2.9748

> <Gold.Chemscore.DEInternal>
1.6317

> <Gold.Chemscore.Rot>
2.6432

> <Gold.Chemscore.Internal.Correction>
   9.000000E+99

> <Gold.Chemscore.Hbonds>
donor molecule, donor type, donor heavy atom, donor atom, acceptor molecule, acceptor atom, score
      L1  H     8    56       P1  7948  0.79
      L1  H    11    40       P1 10171  0.18
      L1  H    15    57       P1 10186  0.60
      P1  H  7954  7966       L1    11  0.13

> <Gold.Chemscore.Hbond.Weighted>
-12.5586

> <Gold.Chemscore.Metal.Weighted>
-0.0000

> <Gold.Chemscore.Lipo.Weighted>
-12.2893

> <Gold.Chemscore.Internal_Hbond.Weighted>
0.0000

> <Gold.Chemscore.DEClash.Weighted>
2.9748

> <Gold.Chemscore.DEInternal.Weighted>
1.6317

> <Gold.Chemscore.Rot.Weighted>
6.7665

> <Gold.Chemscore.Internal.Correction.Weighted>
   9.000000E+99

> <Gold.Protein.RotatedTorsions>
[ 6907 6896 6895 6894 ] final   29.65 input  -60.11 | X-H torsion
[ 7974 7965 7964 7962 ] final  -70.53 input  175.53 | X-H torsion
[ 8008 7997 7996 7995 ] final  -20.97 input   59.86 | X-H torsion
[ 10167 10162 10161 10158 ] final  108.78 input  -65.29 | X-H torsion
[ 10718 10713 10712 10709 ] final   92.23 input   66.30 | X-H torsion
[ 10763 10752 10751 10750 ] final   17.71 input  -60.55 | X-H torsion
[ 11005 11000 10999 10996 ] final  124.43 input  -57.11 | X-H torsion

> <Gold.Protein.ActiveResidues>
 VAL166  LYS551  ARG553  GLY616  TRP617  ASP618  TYR619  PRO620  LYS621  CYS622 
 ASP623  PHE694  ASN695  SER759  ASP760  ASP761  ALA762  ILE779  LEU786  VAL792 
 PHE793  MET794  SER795  GLU796  ALA797  LYS798  CYS799  TRP800  GLU811  SER814 

> <Gold.Protein.RotatedAtoms>
  152.0346  134.9748  160.0572 H   0  0  0  0  0  0  0  0  0  0  0  0  # atno 6907 bound_to 6896
  152.1211  133.4349  159.4684 H   0  0  0  0  0  0  0  0  0  0  0  0  # atno 6908 bound_to 6896
  150.6849  134.2453  159.4532 H   0  0  0  0  0  0  0  0  0  0  0  0  # atno 6909 bound_to 6896
  145.6897  140.9157  143.0788 H   0  0  0  0  0  0  0  0  0  0  0  0  # atno 7974 bound_to 7965
  154.4735  140.2047  155.9935 H   0  0  0  0  0  0  0  0  0  0  0  0  # atno 8008 bound_to 7997
  156.1051  140.3238  155.7965 H   0  0  0  0  0  0  0  0  0  0  0  0  # atno 8009 bound_to 7997
  155.4731  140.0533  157.2967 H   0  0  0  0  0  0  0  0  0  0  0  0  # atno 8010 bound_to 7997
  139.6818  144.7117  151.1501 H   0  0  0  0  0  0  0  0  0  0  0  0  # atno 10167 bound_to 10162
  157.6959  131.0435  150.3849 H   0  0  0  0  0  0  0  0  0  0  0  0  # atno 10718 bound_to 10713
  153.1314  135.6741  153.9172 H   0  0  0  0  0  0  0  0  0  0  0  0  # atno 10763 bound_to 10752
  153.8657  135.3076  155.3441 H   0  0  0  0  0  0  0  0  0  0  0  0  # atno 10764 bound_to 10752
  154.7710  135.4939  153.9731 H   0  0  0  0  0  0  0  0  0  0  0  0  # atno 10765 bound_to 10752
  139.9358  134.9639  156.8407 H   0  0  0  0  0  0  0  0  0  0  0  0  # atno 11005 bound_to 11000
  144.7000  139.8806  143.7447 LP  0  0  0  0  0  0  0  0  0  0  0  0  # atno 17320 bound_to 7965
  146.0892  139.3881  143.0416 LP  0  0  0  0  0  0  0  0  0  0  0  0  # atno 17321 bound_to 7965
  140.7655  143.5687  150.9019 LP  0  0  0  0  0  0  0  0  0  0  0  0  # atno 17342 bound_to 10162
  139.9360  143.6438  152.3065 LP  0  0  0  0  0  0  0  0  0  0  0  0  # atno 17343 bound_to 10162
  156.4259  130.3962  149.6793 LP  0  0  0  0  0  0  0  0  0  0  0  0  # atno 17370 bound_to 10713
  156.4027  130.7683  151.2692 LP  0  0  0  0  0  0  0  0  0  0  0  0  # atno 17371 bound_to 10713
  140.6080  134.0110  155.7564 LP  0  0  0  0  0  0  0  0  0  0  0  0  # atno 17394 bound_to 11000
  141.0971  133.9827  157.3142 LP  0  0  0  0  0  0  0  0  0  0  0  0  # atno 17395 bound_to 11000

$$$$
