AV-unprocessed.smi:861|AV-procd|sdf|3967|dock1
  -GOLD-   22720 1443D 1   1.00000     0.00000
 Structure written by MMmdl.
 44 45  0  0  0  0  0  0  0  0  2 V2000
  145.9449  132.4141  150.0154 C   0  0  0  0  0  0  0  0  0  0  0  0
  145.7967  133.3116  151.2532 C   0  0  0  0  0  0  0  0  0  0  0  0
  145.3531  134.7248  150.8388 C   0  0  0  0  0  0  0  0  0  0  0  0
  147.0999  133.3225  152.0788 C   0  0  0  0  0  0  0  0  0  0  0  0
  146.9498  133.9679  153.4700 C   0  0  0  0  0  0  0  0  0  0  0  0
  148.2122  134.5967  153.9427 N   0  3  2  0  0  0  0  0  0  0  0  0
  149.3274  133.6328  154.1074 C   0  0  0  0  0  0  0  0  0  0  0  0
  149.1757  132.8260  155.4091 C   0  0  0  0  0  0  0  0  0  0  0  0
  149.0973  133.7203  156.5119 O   0  0  0  0  0  0  0  0  0  0  0  0
  147.9640  134.5806  156.4406 C   0  0  1  0  0  0  0  0  0  0  0  0
  147.9483  135.4541  157.7025 C   0  0  0  0  0  0  0  0  0  0  0  0
  147.8130  134.6527  158.9110 N   0  0  0  0  0  0  0  0  0  0  0  0
  147.5497  135.2619  160.1451 C   0  0  0  0  0  0  0  0  0  0  0  0
  147.2496  134.4502  161.2571 C   0  0  0  0  0  0  0  0  0  0  0  0
  146.9886  135.0910  162.4808 C   0  0  0  0  0  0  0  0  0  0  0  0
  147.0478  136.4965  162.4988 C   0  0  0  0  0  0  0  0  0  0  0  0
  147.3407  137.2269  161.3993 N   0  0  0  0  0  0  0  0  0  0  0  0
  147.5880  136.6154  160.2355 N   0  0  0  0  0  0  0  0  0  0  0  0
  148.0742  135.4379  155.1601 C   0  0  0  0  0  0  0  0  0  0  0  0
  146.7229  132.7846  149.3473 H   0  0  0  0  0  0  0  0  0  0  0  0
  145.0143  132.3684  149.4487 H   0  0  0  0  0  0  0  0  0  0  0  0
  146.2055  131.3935  150.2966 H   0  0  0  0  0  0  0  0  0  0  0  0
  145.0069  132.8803  151.8697 H   0  0  0  0  0  0  0  0  0  0  0  0
  146.1217  135.2244  150.2482 H   0  0  0  0  0  0  0  0  0  0  0  0
  145.1360  135.3511  151.7035 H   0  0  0  0  0  0  0  0  0  0  0  0
  144.4454  134.6885  150.2356 H   0  0  0  0  0  0  0  0  0  0  0  0
  147.4385  132.2945  152.2145 H   0  0  0  0  0  0  0  0  0  0  0  0
  147.8786  133.8233  151.5039 H   0  0  0  0  0  0  0  0  0  0  0  0
  146.1378  134.6934  153.4802 H   0  0  0  0  0  0  0  0  0  0  0  0
  146.6653  133.1834  154.1723 H   0  0  0  0  0  0  0  0  0  0  0  0
  149.3982  132.9698  153.2444 H   0  0  0  0  0  0  0  0  0  0  0  0
  150.2630  134.1928  154.1390 H   0  0  0  0  0  0  0  0  0  0  0  0
  148.2949  132.1828  155.3790 H   0  0  0  0  0  0  0  0  0  0  0  0
  150.0385  132.1744  155.5472 H   0  0  0  0  0  0  0  0  0  0  0  0
  147.0495  133.9859  156.4147 H   0  0  0  0  0  0  0  0  0  0  0  0
  148.8572  136.0550  157.7563 H   0  0  0  0  0  0  0  0  0  0  0  0
  147.1067  136.1465  157.6544 H   0  0  0  0  0  0  0  0  0  0  0  0
  148.0082  133.6628  158.8700 H   0  0  0  0  0  0  0  0  0  0  0  0
  147.2196  133.3732  161.1785 H   0  0  0  0  0  0  0  0  0  0  0  0
  146.7520  134.5280  163.3713 H   0  0  0  0  0  0  0  0  0  0  0  0
  146.8572  137.0453  163.4092 H   0  0  0  0  0  0  0  0  0  0  0  0
  148.9578  136.0742  155.2286 H   0  0  0  0  0  0  0  0  0  0  0  0
  147.2246  136.1140  155.0752 H   0  0  0  0  0  0  0  0  0  0  0  0
  148.4923  135.2158  153.1951 H   0  0  0  0  0  0  0  0  0  0  0  0
  1  2  1  0  0  0  0
  1 20  1  0  0  0  0
  1 21  1  0  0  0  0
  1 22  1  0  0  0  0
  2  3  1  0  0  0  0
  2  4  1  0  0  0  0
  2 23  1  0  0  0  0
  3 24  1  0  0  0  0
  3 25  1  0  0  0  0
  3 26  1  0  0  0  0
  4  5  1  0  0  0  0
  4 27  1  0  0  0  0
  4 28  1  0  0  0  0
  5  6  1  0  0  0  0
  5 29  1  0  0  0  0
  5 30  1  0  0  0  0
  6 19  1  0  0  0  0
  6  7  1  0  0  0  0
  6 44  1  0  0  0  0
  7  8  1  0  0  0  0
  7 31  1  0  0  0  0
  7 32  1  0  0  0  0
  8  9  1  0  0  0  0
  8 33  1  0  0  0  0
  8 34  1  0  0  0  0
  9 10  1  0  0  0  0
 10 11  1  0  0  0  0
 10 19  1  0  0  0  0
 10 35  1  0  0  0  0
 11 12  1  0  0  0  0
 11 36  1  0  0  0  0
 11 37  1  0  0  0  0
 12 13  1  0  0  0  0
 12 38  1  0  0  0  0
 13 18  1  0  0  0  0
 13 14  2  0  0  0  0
 14 15  1  0  0  0  0
 14 39  1  0  0  0  0
 15 16  2  0  0  0  0
 15 40  1  0  0  0  0
 16 17  1  0  0  0  0
 16 41  1  0  0  0  0
 17 18  2  0  0  0  0
 19 42  1  0  0  0  0
 19 43  1  0  0  0  0
M  CHG  1   6   1
M  END
> <s_m_source_file>
AV-unprocessed.smi

> <i_m_source_file_index>
861

> <i_lp_mmshare_version>
43012

> <i_f3d_flags>
0

> <s_epik_input>
W0NIM11bQ0hdKFtDSDNdKVtDSDJdW0NIMl1OMVtDSDJdW0NIMl1PW0NASF0oW0NIMl0xKVtDSDJdW05IXWMyW2NIXVtjSF1bY0hdbm4y

> <s_epik_cmdline>
J2VwaWtfcHl0aG9uJywgJy1waCcsICc3LjAnLCAnLXRuJywgJzgnLCAnLW1hJywgJzIwMCcsICctbWV0YWxfYmluZGluZycsICctaW1hZScsICc8aW5maWxlLm1hZT4nLCAnLW9tYWUnLCAnPG91dGZpbGUubWFlPic=

> <r_lp_tautomer_probability>
0.999978

> <r_epik_Ionization_Penalty>
0.114704

> <r_epik_Ionization_Penalty_Charging>
0.0953451

> <r_epik_Ionization_Penalty_Neutral>
0.0193593

> <r_epik_State_Penalty>
0.104983

> <r_epik_Charging_Adjusted_Penalty>
0.200328

> <i_epik_Tot_Q>
1

> <i_epik_Tot_abs_Q>
1

> <r_epik_Metal_State_Penalty>
0.100113

> <b_epik_Metal_Only>
0

> <s_lp_Force_Field>
OPLS_2005

> <r_lp_Energy>
26.6721

> <b_lp_Chiralities_Consistent>
1

> <s_lp_Variant>
AV-unprocessed.smi:861-2

> <Gold.Version>
5.8.1

> <Gold.Id.Protein>
6NUR|6NUR_protein|mol2

> <Gold.PLP.Fitness>
44.7895

> <Gold.PLP.PLP>
-33.8860

> <Gold.PLP.part.hbond>
-3.0000

> <Gold.PLP.part.metal>
0.0000

> <Gold.PLP.part.buried>
-5.1661

> <Gold.PLP.part.nonpolar>
-25.8650

> <Gold.PLP.part.repulsive>
0.0760

> <Gold.PLP.ligand.clash>
0.0000

> <Gold.PLP.ligand.torsion>
0.3303

> <Gold.PLP.Chemscore.Hbond>
3.8160

> <Gold.PLP.Chemscore.CHOScore>
0.0000

> <Gold.PLP.Chemscore.Metal>
0.0000

> <Gold.Chemscore.Hbonds>
donor molecule, donor type, donor heavy atom, donor atom, acceptor molecule, acceptor atom, score
      L1  H     6    44       P1  7948  2.00
      P1  H  6931  6943       L1    17  0.84
      P1  H  6934  6947       L1    17  0.96

> <Gold.PLP.Chemscore.Internal.Correction>
0.1160

> <Gold.Rescore>
     Score         DG    S(hbond)    S(metal)    S(lipo)     H(rot)  DE(clash)    DE(int)     intcor
     16.32     -16.71       2.03        0.00      75.41       1.71       0.00       0.38       ----

> <Gold.Chemscore.Fitness>
16.3246

> <Gold.Chemscore.DG>
-16.7138

> <Gold.Chemscore.ZeroCoef>
-5.4800

> <Gold.Chemscore.Hbond>
2.0345

> <Gold.Chemscore.Metal>
0.0000

> <Gold.Chemscore.Lipo>
75.4099

> <Gold.Chemscore.Internal_Hbond>
0.0000

> <Gold.Chemscore.DEClash>
0.0048

> <Gold.Chemscore.DEInternal>
0.3844

> <Gold.Chemscore.Rot>
1.7127

> <Gold.Chemscore.Internal.Correction>
   9.000000E+99

> <Gold.Chemscore.Hbonds>
donor molecule, donor type, donor heavy atom, donor atom, acceptor molecule, acceptor atom, score
      L1  H     6    44       P1  7948  0.91
      P1  H  6931  6943       L1    17  0.21
      P1  H  6934  6947       L1    17  0.41

> <Gold.Chemscore.Hbond.Weighted>
-6.7953

> <Gold.Chemscore.Metal.Weighted>
-0.0000

> <Gold.Chemscore.Lipo.Weighted>
-8.8230

> <Gold.Chemscore.Internal_Hbond.Weighted>
0.0000

> <Gold.Chemscore.DEClash.Weighted>
0.0048

> <Gold.Chemscore.DEInternal.Weighted>
0.3844

> <Gold.Chemscore.Rot.Weighted>
4.3844

> <Gold.Chemscore.Internal.Correction.Weighted>
   9.000000E+99

> <Gold.Protein.RotatedTorsions>
[ 6907 6896 6895 6894 ] final   80.14 input  -60.11 | X-H torsion
[ 7974 7965 7964 7962 ] final  105.95 input  175.53 | X-H torsion
[ 8008 7997 7996 7995 ] final  -97.87 input   59.86 | X-H torsion
[ 10167 10162 10161 10158 ] final  162.60 input  -65.29 | X-H torsion
[ 10718 10713 10712 10709 ] final  109.14 input   66.30 | X-H torsion
[ 10763 10752 10751 10750 ] final  -38.81 input  -60.55 | X-H torsion
[ 11005 11000 10999 10996 ] final -113.82 input  -57.11 | X-H torsion

> <Gold.Protein.ActiveResidues>
 VAL166  LYS551  ARG553  GLY616  TRP617  ASP618  TYR619  PRO620  LYS621  CYS622 
 ASP623  PHE694  ASN695  SER759  ASP760  ASP761  ALA762  ILE779  LEU786  VAL792 
 PHE793  MET794  SER795  GLU796  ALA797  LYS798  CYS799  TRP800  GLU811  SER814 

> <Gold.Protein.RotatedAtoms>
  152.5224  134.3404  159.9214 H   0  0  0  0  0  0  0  0  0  0  0  0  # atno 6907 bound_to 6896
  151.3353  133.3977  159.2674 H   0  0  0  0  0  0  0  0  0  0  0  0  # atno 6908 bound_to 6896
  150.9847  134.9213  159.7922 H   0  0  0  0  0  0  0  0  0  0  0  0  # atno 6909 bound_to 6896
  145.3130  139.2535  143.3753 H   0  0  0  0  0  0  0  0  0  0  0  0  # atno 7974 bound_to 7965
  154.7936  140.0459  157.1219 H   0  0  0  0  0  0  0  0  0  0  0  0  # atno 8008 bound_to 7997
  154.9562  140.3071  155.5032 H   0  0  0  0  0  0  0  0  0  0  0  0  # atno 8009 bound_to 7997
  156.2953  140.2279  156.4643 H   0  0  0  0  0  0  0  0  0  0  0  0  # atno 8010 bound_to 7997
  139.4862  144.4421  151.8938 H   0  0  0  0  0  0  0  0  0  0  0  0  # atno 10167 bound_to 10162
  157.6555  131.0908  150.6410 H   0  0  0  0  0  0  0  0  0  0  0  0  # atno 10718 bound_to 10713
  153.9190  135.6784  153.4748 H   0  0  0  0  0  0  0  0  0  0  0  0  # atno 10763 bound_to 10752
  153.1038  135.4815  154.8912 H   0  0  0  0  0  0  0  0  0  0  0  0  # atno 10764 bound_to 10752
  154.7488  135.3179  154.8552 H   0  0  0  0  0  0  0  0  0  0  0  0  # atno 10765 bound_to 10752
  141.0591  133.9565  157.2700 H   0  0  0  0  0  0  0  0  0  0  0  0  # atno 11005 bound_to 11000
  146.3111  140.3670  142.8670 LP  0  0  0  0  0  0  0  0  0  0  0  0  # atno 17320 bound_to 7965
  144.9000  140.7631  143.5872 LP  0  0  0  0  0  0  0  0  0  0  0  0  # atno 17321 bound_to 7965
  140.3874  144.2659  150.5903 LP  0  0  0  0  0  0  0  0  0  0  0  0  # atno 17342 bound_to 10162
  140.5178  143.2273  151.8436 LP  0  0  0  0  0  0  0  0  0  0  0  0  # atno 17343 bound_to 10162
  156.6717  130.4541  149.5655 LP  0  0  0  0  0  0  0  0  0  0  0  0  # atno 17370 bound_to 10713
  156.1993  130.6609  151.1149 LP  0  0  0  0  0  0  0  0  0  0  0  0  # atno 17371 bound_to 10713
  139.9416  135.0190  156.8726 LP  0  0  0  0  0  0  0  0  0  0  0  0  # atno 17394 bound_to 11000
  140.5905  134.0266  155.7498 LP  0  0  0  0  0  0  0  0  0  0  0  0  # atno 17395 bound_to 11000

$$$$
