AV-unprocessed.smi:1598|AV-procd|sdf|6421|dock9
  -GOLD-   22720 7 63D 1   1.00000     0.00000
 Structure written by MMmdl.
 39 39  0  0  0  0  0  0  0  0  1 V2000
  151.3847  137.1701  154.1873 C   0  0  0  0  0  0  0  0  0  0  0  0
  150.4240  136.3222  154.7905 O   0  0  0  0  0  0  0  0  0  0  0  0
  150.8574  134.9723  154.8624 C   0  0  0  0  0  0  0  0  0  0  0  0
  149.6400  134.0363  154.9652 C   0  0  2  0  0  0  0  0  0  0  0  0
  150.0392  132.5956  155.3129 C   0  0  0  0  0  0  0  0  0  0  0  0
  148.8836  134.0469  153.7182 N   0  0  0  0  0  0  0  0  0  0  0  0
  147.8540  133.2395  153.4118 C   0  0  0  0  0  0  0  0  0  0  0  0
  147.4501  132.3570  154.1679 O   0  0  0  0  0  0  0  0  0  0  0  0
  147.1455  133.4502  152.0600 C   0  0  0  0  0  0  0  0  0  0  0  0
  145.8108  134.1009  152.1408 N   0  0  0  0  0  0  0  0  0  0  0  0
  144.6665  133.4601  151.5688 C   0  0  0  0  0  0  0  0  0  0  0  0
  144.8249  132.0876  150.8981 C   0  0  0  0  0  0  0  0  0  0  0  0
  143.6619  131.6524  150.4112 F   0  0  0  0  0  0  0  0  0  0  0  0
  145.6718  132.1572  149.8705 F   0  0  0  0  0  0  0  0  0  0  0  0
  145.2481  131.1578  151.7539 F   0  0  0  0  0  0  0  0  0  0  0  0
  143.4599  134.0509  151.6479 C   0  0  0  0  0  0  0  0  0  0  0  0
  143.3192  135.3248  152.2974 C   0  0  0  0  0  0  0  0  0  0  0  0
  144.3901  135.9438  152.8440 C   0  0  0  0  0  0  0  0  0  0  0  0
  144.2941  137.2548  153.5261 C   0  0  0  0  0  0  0  0  0  0  0  0
  143.2542  138.0030  153.1368 N   0  0  0  0  0  0  0  0  0  0  0  0
  145.0533  137.7001  154.3866 O   0  0  0  0  0  0  0  0  0  0  0  0
  145.7364  135.3187  152.7808 C   0  0  0  0  0  0  0  0  0  0  0  0
  146.7517  135.8228  153.2701 O   0  0  0  0  0  0  0  0  0  0  0  0
  151.0083  138.1927  154.1662 H   0  0  0  0  0  0  0  0  0  0  0  0
  151.5898  136.8647  153.1605 H   0  0  0  0  0  0  0  0  0  0  0  0
  152.3206  137.1673  154.7476 H   0  0  0  0  0  0  0  0  0  0  0  0
  151.4471  134.7222  153.9790 H   0  0  0  0  0  0  0  0  0  0  0  0
  151.5065  134.8372  155.7292 H   0  0  0  0  0  0  0  0  0  0  0  0
  148.9973  134.3982  155.7695 H   0  0  0  0  0  0  0  0  0  0  0  0
  150.5916  132.5582  156.2520 H   0  0  0  0  0  0  0  0  0  0  0  0
  150.6693  132.1571  154.5385 H   0  0  0  0  0  0  0  0  0  0  0  0
  149.1588  131.9614  155.4229 H   0  0  0  0  0  0  0  0  0  0  0  0
  149.1466  134.7485  153.0415 H   0  0  0  0  0  0  0  0  0  0  0  0
  147.8154  134.0294  151.4219 H   0  0  0  0  0  0  0  0  0  0  0  0
  147.1107  132.4930  151.5487 H   0  0  0  0  0  0  0  0  0  0  0  0
  142.5814  133.5822  151.2303 H   0  0  0  0  0  0  0  0  0  0  0  0
  142.3295  135.7558  152.3268 H   0  0  0  0  0  0  0  0  0  0  0  0
  143.1059  138.9153  153.5428 H   0  0  0  0  0  0  0  0  0  0  0  0
  142.6219  137.6501  152.4330 H   0  0  0  0  0  0  0  0  0  0  0  0
  1  2  1  0  0  0  0
  1 24  1  0  0  0  0
  1 25  1  0  0  0  0
  1 26  1  0  0  0  0
  2  3  1  0  0  0  0
  3  4  1  0  0  0  0
  3 27  1  0  0  0  0
  3 28  1  0  0  0  0
  4  5  1  0  0  0  0
  4  6  1  0  0  0  0
  4 29  1  0  0  0  0
  5 30  1  0  0  0  0
  5 31  1  0  0  0  0
  5 32  1  0  0  0  0
  6  7  1  0  0  0  0
  6 33  1  0  0  0  0
  7  8  2  0  0  0  0
  7  9  1  0  0  0  0
  9 10  1  0  0  0  0
  9 34  1  0  0  0  0
  9 35  1  0  0  0  0
 10 22  1  0  0  0  0
 10 11  1  0  0  0  0
 11 12  1  0  0  0  0
 11 16  2  0  0  0  0
 12 13  1  0  0  0  0
 12 14  1  0  0  0  0
 12 15  1  0  0  0  0
 16 17  1  0  0  0  0
 16 36  1  0  0  0  0
 17 18  2  0  0  0  0
 17 37  1  0  0  0  0
 18 19  1  0  0  0  0
 18 22  1  0  0  0  0
 19 20  1  0  0  0  0
 19 21  2  0  0  0  0
 20 38  1  0  0  0  0
 20 39  1  0  0  0  0
 22 23  2  0  0  0  0
M  END
> <s_m_source_file>
AV-unprocessed.smi

> <i_m_source_file_index>
1598

> <i_lp_mmshare_version>
43012

> <i_f3d_flags>
0

> <s_epik_input>
W0NIM11PW0NIMl1bQ0BIXShbQ0gzXSlbTkhdQyg9TylbQ0gyXW4xYyhDKEYpKEYpRilbY0hdW2NIXWMoYzE9TylDKD1PKVtOSDJd

> <s_epik_cmdline>
J2VwaWtfcHl0aG9uJywgJy1waCcsICc3LjAnLCAnLXRuJywgJzgnLCAnLW1hJywgJzIwMCcsICctbWV0YWxfYmluZGluZycsICctaW1hZScsICc8aW5maWxlLm1hZT4nLCAnLW9tYWUnLCAnPG91dGZpbGUubWFlPic=

> <r_lp_tautomer_probability>
1

> <r_epik_Ionization_Penalty>
2.07884e-06

> <r_epik_Ionization_Penalty_Charging>
8.00383e-10

> <r_epik_Ionization_Penalty_Neutral>
2.07804e-06

> <r_epik_State_Penalty>
-0

> <r_epik_Charging_Adjusted_Penalty>
8.00383e-10

> <i_epik_Tot_Q>
0

> <i_epik_Tot_abs_Q>
0

> <r_epik_Metal_State_Penalty>
-0

> <b_epik_Metal_Only>
0

> <s_lp_Force_Field>
OPLS_2005

> <r_lp_Energy>
25.9184

> <b_lp_Chiralities_Consistent>
1

> <s_lp_Variant>
AV-unprocessed.smi:1598-1

> <Gold.Version>
5.8.1

> <Gold.Id.Protein>
6NUR|6NUR_protein|mol2

> <Gold.PLP.Fitness>
37.7058

> <Gold.PLP.PLP>
-35.1913

> <Gold.PLP.part.hbond>
-2.0000

> <Gold.PLP.part.metal>
0.0000

> <Gold.PLP.part.buried>
-4.3620

> <Gold.PLP.part.nonpolar>
-30.8229

> <Gold.PLP.part.repulsive>
2.2873

> <Gold.PLP.ligand.clash>
3.8849

> <Gold.PLP.ligand.torsion>
0.7247

> <Gold.PLP.Chemscore.Hbond>
1.2696

> <Gold.PLP.Chemscore.CHOScore>
0.0000

> <Gold.PLP.Chemscore.Metal>
0.0000

> <Gold.Chemscore.Hbonds>
donor molecule, donor type, donor heavy atom, donor atom, acceptor molecule, acceptor atom, score
      L1  H     6    33       P1  7948  0.50
      L1  H    20    38       P1 10175  0.35

> <Gold.PLP.Chemscore.Internal.Correction>
4.0399

> <Gold.Rescore>
     Score         DG    S(hbond)    S(metal)    S(lipo)     H(rot)  DE(clash)    DE(int)     intcor
      0.69      -6.92       0.47        0.00      51.96       2.43       1.04       5.19       ----

> <Gold.Chemscore.Fitness>
0.6919

> <Gold.Chemscore.DG>
-6.9204

> <Gold.Chemscore.ZeroCoef>
-5.4800

> <Gold.Chemscore.Hbond>
0.4728

> <Gold.Chemscore.Metal>
0.0000

> <Gold.Chemscore.Lipo>
51.9598

> <Gold.Chemscore.Internal_Hbond>
0.0000

> <Gold.Chemscore.DEClash>
1.0417

> <Gold.Chemscore.DEInternal>
5.1868

> <Gold.Chemscore.Rot>
2.4289

> <Gold.Chemscore.Internal.Correction>
   9.000000E+99

> <Gold.Chemscore.Hbonds>
donor molecule, donor type, donor heavy atom, donor atom, acceptor molecule, acceptor atom, score
      L1  H     6    33       P1  7948  0.02
      L1  H    20    38       P1 10175  0.34

> <Gold.Chemscore.Hbond.Weighted>
-1.5791

> <Gold.Chemscore.Metal.Weighted>
-0.0000

> <Gold.Chemscore.Lipo.Weighted>
-6.0793

> <Gold.Chemscore.Internal_Hbond.Weighted>
0.0000

> <Gold.Chemscore.DEClash.Weighted>
1.0417

> <Gold.Chemscore.DEInternal.Weighted>
5.1868

> <Gold.Chemscore.Rot.Weighted>
6.2180

> <Gold.Chemscore.Internal.Correction.Weighted>
   9.000000E+99

> <Gold.Protein.RotatedTorsions>
[ 6907 6896 6895 6894 ] final   24.77 input  -60.11 | X-H torsion
[ 7974 7965 7964 7962 ] final   28.77 input  175.53 | X-H torsion
[ 8008 7997 7996 7995 ] final  -56.61 input   59.86 | X-H torsion
[ 10167 10162 10161 10158 ] final -105.77 input  -65.29 | X-H torsion
[ 10718 10713 10712 10709 ] final  -12.02 input   66.30 | X-H torsion
[ 10763 10752 10751 10750 ] final  -48.02 input  -60.55 | X-H torsion
[ 11005 11000 10999 10996 ] final   20.67 input  -57.11 | X-H torsion

> <Gold.Protein.ActiveResidues>
 VAL166  LYS551  ARG553  GLY616  TRP617  ASP618  TYR619  PRO620  LYS621  CYS622 
 ASP623  PHE694  ASN695  SER759  ASP760  ASP761  ALA762  ILE779  LEU786  VAL792 
 PHE793  MET794  SER795  GLU796  ALA797  LYS798  CYS799  TRP800  GLU811  SER814 

> <Gold.Protein.RotatedAtoms>
  151.9625  135.0116  160.0548 H   0  0  0  0  0  0  0  0  0  0  0  0  # atno 6907 bound_to 6896
  152.1855  133.4732  159.4989 H   0  0  0  0  0  0  0  0  0  0  0  0  # atno 6908 bound_to 6896
  150.6925  134.1696  159.4250 H   0  0  0  0  0  0  0  0  0  0  0  0  # atno 6909 bound_to 6896
  146.1710  139.7012  142.8967 H   0  0  0  0  0  0  0  0  0  0  0  0  # atno 7974 bound_to 7965
  154.4237  140.1125  156.5666 H   0  0  0  0  0  0  0  0  0  0  0  0  # atno 8008 bound_to 7997
  155.6256  140.3495  155.4647 H   0  0  0  0  0  0  0  0  0  0  0  0  # atno 8009 bound_to 7997
  155.9989  140.1195  157.0556 H   0  0  0  0  0  0  0  0  0  0  0  0  # atno 8010 bound_to 7997
  140.1950  143.3863  152.1176 H   0  0  0  0  0  0  0  0  0  0  0  0  # atno 10167 bound_to 10162
  156.6506  130.4954  149.6063 H   0  0  0  0  0  0  0  0  0  0  0  0  # atno 10718 bound_to 10713
  154.0709  135.6605  153.4824 H   0  0  0  0  0  0  0  0  0  0  0  0  # atno 10763 bound_to 10752
  153.0391  135.5157  154.7567 H   0  0  0  0  0  0  0  0  0  0  0  0  # atno 10764 bound_to 10752
  154.6633  135.3018  154.9806 H   0  0  0  0  0  0  0  0  0  0  0  0  # atno 10765 bound_to 10752
  140.4000  134.1728  155.7663 H   0  0  0  0  0  0  0  0  0  0  0  0  # atno 11005 bound_to 11000
  145.4340  141.0417  143.2895 LP  0  0  0  0  0  0  0  0  0  0  0  0  # atno 17320 bound_to 7965
  144.8163  139.5871  143.7007 LP  0  0  0  0  0  0  0  0  0  0  0  0  # atno 17321 bound_to 7965
  139.5240  144.7079  151.5298 LP  0  0  0  0  0  0  0  0  0  0  0  0  # atno 17342 bound_to 10162
  140.6430  143.8851  150.6710 LP  0  0  0  0  0  0  0  0  0  0  0  0  # atno 17343 bound_to 10162
  156.2087  130.6665  151.1246 LP  0  0  0  0  0  0  0  0  0  0  0  0  # atno 17370 bound_to 10713
  157.7142  131.0718  150.6389 LP  0  0  0  0  0  0  0  0  0  0  0  0  # atno 17371 bound_to 10713
  141.1860  133.8311  157.1084 LP  0  0  0  0  0  0  0  0  0  0  0  0  # atno 17394 bound_to 11000
  140.0343  134.9886  157.0841 LP  0  0  0  0  0  0  0  0  0  0  0  0  # atno 17395 bound_to 11000

$$$$
