AV-unprocessed.smi:2906|AV-procd|sdf|11162|dock10
  -GOLD-   2272016 53D 1   1.00000     0.00000
 Structure written by MMmdl.
 40 41  0  0  0  0  0  0  0  0  1 V2000
  151.5415  145.6727  159.7777 C   0  0  0  0  0  0  0  0  0  0  0  0
  152.1064  144.2631  159.5393 C   0  0  0  0  0  0  0  0  0  0  0  0
  152.5645  143.5530  160.8247 C   0  0  0  0  0  0  0  0  0  0  0  0
  152.3506  144.0726  161.9211 O   0  0  0  0  0  0  0  0  0  0  0  0
  153.1932  142.3644  160.7074 N   0  0  0  0  0  0  0  0  0  0  0  0
  153.6533  141.5848  161.8516 C   0  0  0  0  0  0  0  0  0  0  0  0
  154.5733  140.4992  161.2960 C   0  0  0  0  0  0  0  0  0  0  0  0
  154.2639  140.4039  159.8019 C   0  0  1  0  0  0  0  0  0  0  0  0
  153.5275  139.1836  159.4824 N   0  0  0  0  0  0  0  0  0  0  0  0
  152.8636  138.9626  158.3386 C   0  0  0  0  0  0  0  0  0  0  0  0
  152.7969  139.7846  157.4240 O   0  0  0  0  0  0  0  0  0  0  0  0
  152.2951  137.7441  158.3336 N   0  0  0  0  0  0  0  0  0  0  0  0
  151.5025  137.1515  157.3163 C   0  0  0  0  0  0  0  0  0  0  0  0
  150.8472  135.9932  157.4507 N   0  0  0  0  0  0  0  0  0  0  0  0
  150.1459  135.6440  156.2926 C   0  0  0  0  0  0  0  0  0  0  0  0
  149.3465  134.3770  156.2587 C   0  0  0  0  0  0  0  0  0  0  0  0
  149.7760  133.4488  155.1170 C   0  0  0  0  0  0  0  0  0  0  0  0
  150.2850  136.5595  155.2778 C   0  0  0  0  0  0  0  0  0  0  0  0
  151.3031  137.8976  155.7386 S   0  0  0  0  0  0  0  0  0  0  0  0
  153.4645  141.6701  159.4510 C   0  0  0  0  0  0  0  0  0  0  0  0
  151.2355  146.1284  158.8359 H   0  0  0  0  0  0  0  0  0  0  0  0
  152.2839  146.3286  160.2336 H   0  0  0  0  0  0  0  0  0  0  0  0
  150.6670  145.6465  160.4290 H   0  0  0  0  0  0  0  0  0  0  0  0
  151.3448  143.6549  159.0505 H   0  0  0  0  0  0  0  0  0  0  0  0
  152.9509  144.3298  158.8527 H   0  0  0  0  0  0  0  0  0  0  0  0
  154.1734  142.2013  162.5865 H   0  0  0  0  0  0  0  0  0  0  0  0
  152.7878  141.1364  162.3414 H   0  0  0  0  0  0  0  0  0  0  0  0
  155.6105  140.8110  161.4261 H   0  0  0  0  0  0  0  0  0  0  0  0
  154.4573  139.5514  161.8236 H   0  0  0  0  0  0  0  0  0  0  0  0
  155.2040  140.3916  159.2469 H   0  0  0  0  0  0  0  0  0  0  0  0
  153.5284  138.4560  160.1820 H   0  0  0  0  0  0  0  0  0  0  0  0
  152.4460  137.1740  159.1527 H   0  0  0  0  0  0  0  0  0  0  0  0
  149.4447  133.8472  157.2067 H   0  0  0  0  0  0  0  0  0  0  0  0
  148.2859  134.6082  156.1545 H   0  0  0  0  0  0  0  0  0  0  0  0
  149.1834  132.5340  155.1165 H   0  0  0  0  0  0  0  0  0  0  0  0
  150.8249  133.1668  155.2129 H   0  0  0  0  0  0  0  0  0  0  0  0
  149.6449  133.9303  154.1474 H   0  0  0  0  0  0  0  0  0  0  0  0
  149.8504  136.5277  154.2899 H   0  0  0  0  0  0  0  0  0  0  0  0
  152.5306  141.4380  158.9363 H   0  0  0  0  0  0  0  0  0  0  0  0
  154.0547  142.3088  158.7924 H   0  0  0  0  0  0  0  0  0  0  0  0
  1  2  1  0  0  0  0
  1 21  1  0  0  0  0
  1 22  1  0  0  0  0
  1 23  1  0  0  0  0
  2  3  1  0  0  0  0
  2 24  1  0  0  0  0
  2 25  1  0  0  0  0
  3  4  2  0  0  0  0
  3  5  1  0  0  0  0
  5 20  1  0  0  0  0
  5  6  1  0  0  0  0
  6  7  1  0  0  0  0
  6 26  1  0  0  0  0
  6 27  1  0  0  0  0
  7  8  1  0  0  0  0
  7 28  1  0  0  0  0
  7 29  1  0  0  0  0
  8  9  1  0  0  0  0
  8 20  1  0  0  0  0
  8 30  1  0  0  0  0
  9 10  1  0  0  0  0
  9 31  1  0  0  0  0
 10 11  2  0  0  0  0
 10 12  1  0  0  0  0
 12 13  1  0  0  0  0
 12 32  1  0  0  0  0
 13 19  1  0  0  0  0
 13 14  2  0  0  0  0
 14 15  1  0  0  0  0
 15 16  1  0  0  0  0
 15 18  2  0  0  0  0
 16 17  1  0  0  0  0
 16 33  1  0  0  0  0
 16 34  1  0  0  0  0
 17 35  1  0  0  0  0
 17 36  1  0  0  0  0
 17 37  1  0  0  0  0
 18 19  1  0  0  0  0
 18 38  1  0  0  0  0
 20 39  1  0  0  0  0
 20 40  1  0  0  0  0
M  END
> <s_m_source_file>
AV-unprocessed.smi

> <i_m_source_file_index>
2906

> <i_lp_mmshare_version>
43012

> <i_f3d_flags>
0

> <s_epik_input>
W0NIM11bQ0gyXUMoPU8pTjFbQ0gyXVtDSDJdW0NASF0oW0NIMl0xKVtOSF1DKD1PKVtOSF1jMm5jKFtjSF1zMilbQ0gyXVtDSDNd

> <s_epik_cmdline>
J2VwaWtfcHl0aG9uJywgJy1waCcsICc3LjAnLCAnLXRuJywgJzgnLCAnLW1hJywgJzIwMCcsICctbWV0YWxfYmluZGluZycsICctaW1hZScsICc8aW5maWxlLm1hZT4nLCAnLW9tYWUnLCAnPG91dGZpbGUubWFlPic=

> <r_lp_tautomer_probability>
1

> <r_epik_Ionization_Penalty>
0.000174744

> <r_epik_Ionization_Penalty_Charging>
0

> <r_epik_Ionization_Penalty_Neutral>
0.000174744

> <r_epik_State_Penalty>
-0

> <r_epik_Charging_Adjusted_Penalty>
0

> <i_epik_Tot_Q>
0

> <i_epik_Tot_abs_Q>
0

> <r_epik_Metal_State_Penalty>
0.0273865

> <b_epik_Metal_Only>
0

> <s_lp_Force_Field>
OPLS_2005

> <r_lp_Energy>
22.1367

> <b_lp_Chiralities_Consistent>
1

> <s_lp_Variant>
AV-unprocessed.smi:2906-1

> <Gold.Version>
5.8.1

> <Gold.Id.Protein>
6NUR|6NUR_protein|mol2

> <Gold.PLP.Fitness>
45.2125

> <Gold.PLP.PLP>
-39.6919

> <Gold.PLP.part.hbond>
-1.4811

> <Gold.PLP.part.metal>
0.0000

> <Gold.PLP.part.buried>
-5.3691

> <Gold.PLP.part.nonpolar>
-32.4926

> <Gold.PLP.part.repulsive>
0.3444

> <Gold.PLP.ligand.clash>
0.0000

> <Gold.PLP.ligand.torsion>
0.2552

> <Gold.PLP.Chemscore.Hbond>
1.0000

> <Gold.PLP.Chemscore.CHOScore>
1.0083

> <Gold.PLP.Chemscore.Metal>
0.0000

> <Gold.Chemscore.Hbonds>
donor molecule, donor type, donor heavy atom, donor atom, acceptor molecule, acceptor atom, score
      P1  H  7997  8008       L1    11  1.00
      L1  C    18    38       P1  7948  0.89

> <Gold.PLP.Chemscore.Internal.Correction>
0.0060

> <Gold.Rescore>
     Score         DG    S(hbond)    S(metal)    S(lipo)     H(rot)  DE(clash)    DE(int)     intcor
     13.04     -15.85       1.21        0.00      85.08       1.41       0.00       2.80       ----

> <Gold.Chemscore.Fitness>
13.0429

> <Gold.Chemscore.DG>
-15.8496

> <Gold.Chemscore.ZeroCoef>
-5.4800

> <Gold.Chemscore.Hbond>
1.2051

> <Gold.Chemscore.Metal>
0.0000

> <Gold.Chemscore.Lipo>
85.0823

> <Gold.Chemscore.Internal_Hbond>
0.0000

> <Gold.Chemscore.DEClash>
0.0038

> <Gold.Chemscore.DEInternal>
2.8029

> <Gold.Chemscore.Rot>
1.4102

> <Gold.Chemscore.Internal.Correction>
   9.000000E+99

> <Gold.Chemscore.Hbonds>
donor molecule, donor type, donor heavy atom, donor atom, acceptor molecule, acceptor atom, score
      P1  H  7997  8008       L1    11  0.65

> <Gold.Chemscore.Hbond.Weighted>
-4.0250

> <Gold.Chemscore.Metal.Weighted>
-0.0000

> <Gold.Chemscore.Lipo.Weighted>
-9.9546

> <Gold.Chemscore.Internal_Hbond.Weighted>
0.0000

> <Gold.Chemscore.DEClash.Weighted>
0.0038

> <Gold.Chemscore.DEInternal.Weighted>
2.8029

> <Gold.Chemscore.Rot.Weighted>
3.6101

> <Gold.Chemscore.Internal.Correction.Weighted>
   9.000000E+99

> <Gold.Protein.RotatedTorsions>
[ 6907 6896 6895 6894 ] final  125.60 input  -60.11 | X-H torsion
[ 7974 7965 7964 7962 ] final   95.93 input  175.53 | X-H torsion
[ 8008 7997 7996 7995 ] final  -71.33 input   59.86 | X-H torsion
[ 10167 10162 10161 10158 ] final  -61.02 input  -65.29 | X-H torsion
[ 10718 10713 10712 10709 ] final  132.25 input   66.30 | X-H torsion
[ 10763 10752 10751 10750 ] final -157.70 input  -60.55 | X-H torsion
[ 11005 11000 10999 10996 ] final -111.01 input  -57.11 | X-H torsion

> <Gold.Protein.ActiveResidues>
 VAL166  LYS551  ARG553  GLY616  TRP617  ASP618  TYR619  PRO620  LYS621  CYS622 
 ASP623  PHE694  ASN695  SER759  ASP760  ASP761  ALA762  ILE779  LEU786  VAL792 
 PHE793  MET794  SER795  GLU796  ALA797  LYS798  CYS799  TRP800  GLU811  SER814 

> <Gold.Protein.RotatedAtoms>
  152.3978  133.6772  159.6290 H   0  0  0  0  0  0  0  0  0  0  0  0  # atno 6907 bound_to 6896
  150.7874  133.8844  159.3304 H   0  0  0  0  0  0  0  0  0  0  0  0  # atno 6908 bound_to 6896
  151.6617  135.0990  160.0232 H   0  0  0  0  0  0  0  0  0  0  0  0  # atno 6909 bound_to 6896
  145.4456  139.2297  143.3068 H   0  0  0  0  0  0  0  0  0  0  0  0  # atno 7974 bound_to 7965
  154.5079  140.0817  156.7932 H   0  0  0  0  0  0  0  0  0  0  0  0  # atno 8008 bound_to 7997
  155.3851  140.3430  155.4230 H   0  0  0  0  0  0  0  0  0  0  0  0  # atno 8009 bound_to 7997
  156.1538  140.1567  156.8713 H   0  0  0  0  0  0  0  0  0  0  0  0  # atno 8010 bound_to 7997
  140.6033  143.2367  151.5879 H   0  0  0  0  0  0  0  0  0  0  0  0  # atno 10167 bound_to 10162
  157.4889  131.1089  150.9583 H   0  0  0  0  0  0  0  0  0  0  0  0  # atno 10718 bound_to 10713
  154.7615  135.3119  154.8369 H   0  0  0  0  0  0  0  0  0  0  0  0  # atno 10763 bound_to 10752
  153.9128  135.6804  153.4754 H   0  0  0  0  0  0  0  0  0  0  0  0  # atno 10764 bound_to 10752
  153.1216  135.4820  154.9137 H   0  0  0  0  0  0  0  0  0  0  0  0  # atno 10765 bound_to 10752
  141.0759  133.9302  157.2391 H   0  0  0  0  0  0  0  0  0  0  0  0  # atno 11005 bound_to 11000
  146.2532  140.5210  142.8884 LP  0  0  0  0  0  0  0  0  0  0  0  0  # atno 17320 bound_to 7965
  144.8094  140.6358  143.6425 LP  0  0  0  0  0  0  0  0  0  0  0  0  # atno 17321 bound_to 7965
  139.5307  144.2926  152.1140 LP  0  0  0  0  0  0  0  0  0  0  0  0  # atno 17342 bound_to 10162
  140.2111  144.4562  150.6385 LP  0  0  0  0  0  0  0  0  0  0  0  0  # atno 17343 bound_to 10162
  157.0291  130.5704  149.5341 LP  0  0  0  0  0  0  0  0  0  0  0  0  # atno 17370 bound_to 10713
  156.0162  130.5256  150.8141 LP  0  0  0  0  0  0  0  0  0  0  0  0  # atno 17371 bound_to 10713
  139.9571  135.0163  156.9159 LP  0  0  0  0  0  0  0  0  0  0  0  0  # atno 17394 bound_to 11000
  140.5575  134.0567  155.7388 LP  0  0  0  0  0  0  0  0  0  0  0  0  # atno 17395 bound_to 11000

$$$$
