AV-unprocessed.smi:70|AV-procd|sdf|660|dock3
  -GOLD-   2262016563D 1   1.00000     0.00000
 Structure written by MMmdl.
 25 26  0  0  0  0  0  0  0  0  2 V2000
  149.6817  141.2503  153.3148 O   0  0  0  0  0  0  0  0  0  0  0  0
  148.8236  140.5149  154.1707 C   0  0  2  0  0  0  0  0  0  0  0  0
  149.3290  139.0556  154.2569 C   0  0  0  0  0  0  0  0  0  0  0  0
  150.7642  138.9523  154.4671 N   0  0  0  0  0  0  0  0  0  0  0  0
  151.5916  137.8735  154.2301 C   0  0  0  0  0  0  0  0  0  0  0  0
  152.8234  138.3286  154.6052 C   0  0  0  0  0  0  0  0  0  0  0  0
  152.6974  139.6445  155.0458 N   0  0  0  0  0  0  0  0  0  0  0  0
  151.4579  140.0102  154.9518 N   0  0  0  0  0  0  0  0  0  0  0  0
  147.3920  140.6332  153.6418 C   0  0  0  0  0  0  0  0  0  0  0  0
  146.9230  141.9966  154.1535 C   0  0  0  0  0  0  0  0  0  0  0  0
  147.6656  142.2450  155.4045 N   0  3  0  0  0  0  0  0  0  0  0  0
  148.7456  141.2441  155.5225 C   0  0  0  0  0  0  0  0  0  0  0  0
  150.5544  141.2415  153.6790 H   0  0  0  0  0  0  0  0  0  0  0  0
  148.8381  138.5413  155.0841 H   0  0  0  0  0  0  0  0  0  0  0  0
  149.0625  138.5027  153.3545 H   0  0  0  0  0  0  0  0  0  0  0  0
  151.2510  136.9272  153.8363 H   0  0  0  0  0  0  0  0  0  0  0  0
  153.7792  137.8253  154.5947 H   0  0  0  0  0  0  0  0  0  0  0  0
  147.3197  140.5375  152.5575 H   0  0  0  0  0  0  0  0  0  0  0  0
  146.7672  139.8540  154.0813 H   0  0  0  0  0  0  0  0  0  0  0  0
  147.1855  142.7770  153.4384 H   0  0  0  0  0  0  0  0  0  0  0  0
  145.8451  142.0349  154.3129 H   0  0  0  0  0  0  0  0  0  0  0  0
  148.0602  143.1743  155.3756 H   0  0  0  0  0  0  0  0  0  0  0  0
  148.4555  140.5464  156.3090 H   0  0  0  0  0  0  0  0  0  0  0  0
  149.6897  141.7016  155.8219 H   0  0  0  0  0  0  0  0  0  0  0  0
  147.0461  142.1639  156.1981 H   0  0  0  0  0  0  0  0  0  0  0  0
  1  2  1  0  0  0  0
  1 13  1  0  0  0  0
  2 12  1  0  0  0  0
  2  3  1  0  0  0  0
  2  9  1  0  0  0  0
  3  4  1  0  0  0  0
  3 14  1  0  0  0  0
  3 15  1  0  0  0  0
  4  8  1  0  0  0  0
  4  5  1  0  0  0  0
  5  6  2  0  0  0  0
  5 16  1  0  0  0  0
  6  7  1  0  0  0  0
  6 17  1  0  0  0  0
  7  8  2  0  0  0  0
  9 10  1  0  0  0  0
  9 18  1  0  0  0  0
  9 19  1  0  0  0  0
 10 11  1  0  0  0  0
 10 20  1  0  0  0  0
 10 21  1  0  0  0  0
 11 12  1  0  0  0  0
 11 22  1  0  0  0  0
 11 25  1  0  0  0  0
 12 23  1  0  0  0  0
 12 24  1  0  0  0  0
M  CHG  1  11   1
M  END
> <s_m_source_file>
AV-unprocessed.smi

> <i_m_source_file_index>
70

> <i_lp_mmshare_version>
43012

> <i_f3d_flags>
0

> <s_epik_input>
W0NIMl0xW05IXVtDSDJdW0NIMl1bQ0BAXTEoW09IXSlbQ0gyXW4yW2NIXVtjSF1ubjI=

> <s_epik_cmdline>
J2VwaWtfcHl0aG9uJywgJy1waCcsICc3LjAnLCAnLXRuJywgJzgnLCAnLW1hJywgJzIwMCcsICctbWV0YWxfYmluZGluZycsICctaW1hZScsICc8aW5maWxlLm1hZT4nLCAnLW9tYWUnLCAnPG91dGZpbGUubWFlPic=

> <r_lp_tautomer_probability>
1

> <r_epik_Ionization_Penalty>
0.00649776

> <r_epik_Ionization_Penalty_Charging>
0.00648305

> <r_epik_Ionization_Penalty_Neutral>
1.4704e-05

> <r_epik_State_Penalty>
0.00479756

> <r_epik_Charging_Adjusted_Penalty>
0.0112806

> <i_epik_Tot_Q>
1

> <i_epik_Tot_abs_Q>
1

> <r_epik_Metal_State_Penalty>
-0

> <b_epik_Metal_Only>
0

> <s_lp_Force_Field>
OPLS_2005

> <r_lp_Energy>
24.9841

> <b_lp_Chiralities_Consistent>
1

> <s_lp_Variant>
AV-unprocessed.smi:70-2

> <Gold.Version>
5.8.1

> <Gold.Id.Protein>
6NUR|6NUR_protein|mol2

> <Gold.PLP.Fitness>
44.0234

> <Gold.PLP.PLP>
-27.6206

> <Gold.PLP.part.hbond>
-6.1297

> <Gold.PLP.part.metal>
0.0000

> <Gold.PLP.part.buried>
-0.5175

> <Gold.PLP.part.nonpolar>
-21.1777

> <Gold.PLP.part.repulsive>
0.1431

> <Gold.PLP.ligand.clash>
0.0000

> <Gold.PLP.ligand.torsion>
0.4219

> <Gold.PLP.Chemscore.Hbond>
4.7600

> <Gold.PLP.Chemscore.CHOScore>
0.9882

> <Gold.PLP.Chemscore.Metal>
0.0000

> <Gold.Chemscore.Hbonds>
donor molecule, donor type, donor heavy atom, donor atom, acceptor molecule, acceptor atom, score
      L1  H    11    22       P1  8028  2.00
      P1  H  7989  7998       L1     8  0.71
      P1  H  7997  8010       L1     7  1.00
      P1  H  8011  8017       L1     1  0.99
      L1  C     5    16       P1  7949  1.00

> <Gold.PLP.Chemscore.Internal.Correction>
0.0019

> <Gold.Rescore>
     Score         DG    S(hbond)    S(metal)    S(lipo)     H(rot)  DE(clash)    DE(int)     intcor
     12.84     -16.19       2.89        0.00      49.95       1.87       1.31       2.03       ----

> <Gold.Chemscore.Fitness>
12.8403

> <Gold.Chemscore.DG>
-16.1888

> <Gold.Chemscore.ZeroCoef>
-5.4800

> <Gold.Chemscore.Hbond>
2.8875

> <Gold.Chemscore.Metal>
0.0000

> <Gold.Chemscore.Lipo>
49.9452

> <Gold.Chemscore.Internal_Hbond>
0.0000

> <Gold.Chemscore.DEClash>
1.3141

> <Gold.Chemscore.DEInternal>
2.0344

> <Gold.Chemscore.Rot>
1.8669

> <Gold.Chemscore.Internal.Correction>
   9.000000E+99

> <Gold.Chemscore.Hbonds>
donor molecule, donor type, donor heavy atom, donor atom, acceptor molecule, acceptor atom, score
      L1  H    11    22       P1  8028  0.82
      P1  H  7989  7998       L1     8  0.02
      P1  H  7997  8010       L1     7  0.62
      P1  H  8011  8017       L1     1  0.23

> <Gold.Chemscore.Hbond.Weighted>
-9.6443

> <Gold.Chemscore.Metal.Weighted>
-0.0000

> <Gold.Chemscore.Lipo.Weighted>
-5.8436

> <Gold.Chemscore.Internal_Hbond.Weighted>
0.0000

> <Gold.Chemscore.DEClash.Weighted>
1.3141

> <Gold.Chemscore.DEInternal.Weighted>
2.0344

> <Gold.Chemscore.Rot.Weighted>
4.7791

> <Gold.Chemscore.Internal.Correction.Weighted>
   9.000000E+99

> <Gold.Protein.RotatedTorsions>
[ 6907 6896 6895 6894 ] final   -1.90 input  -60.11 | X-H torsion
[ 7974 7965 7964 7962 ] final  -42.30 input  175.53 | X-H torsion
[ 8008 7997 7996 7995 ] final  103.87 input   59.86 | X-H torsion
[ 10167 10162 10161 10158 ] final  171.10 input  -65.29 | X-H torsion
[ 10718 10713 10712 10709 ] final  -95.23 input   66.30 | X-H torsion
[ 10763 10752 10751 10750 ] final  127.83 input  -60.55 | X-H torsion
[ 11005 11000 10999 10996 ] final    9.60 input  -57.11 | X-H torsion

> <Gold.Protein.ActiveResidues>
 VAL166  LYS551  ARG553  GLY616  TRP617  ASP618  TYR619  PRO620  LYS621  CYS622 
 ASP623  PHE694  ASN695  SER759  ASP760  ASP761  ALA762  ILE779  LEU786  VAL792 
 PHE793  MET794  SER795  GLU796  ALA797  LYS798  CYS799  TRP800  GLU811  SER814 

> <Gold.Protein.RotatedAtoms>
  151.5385  135.1068  159.9920 H   0  0  0  0  0  0  0  0  0  0  0  0  # atno 6907 bound_to 6896
  152.4546  133.7693  159.6800 H   0  0  0  0  0  0  0  0  0  0  0  0  # atno 6908 bound_to 6896
  150.8485  133.7757  159.3058 H   0  0  0  0  0  0  0  0  0  0  0  0  # atno 6909 bound_to 6896
  146.0129  140.6943  142.9215 H   0  0  0  0  0  0  0  0  0  0  0  0  # atno 7974 bound_to 7965
  156.1523  140.3157  155.8668 H   0  0  0  0  0  0  0  0  0  0  0  0  # atno 8008 bound_to 7997
  155.3947  140.0496  157.3056 H   0  0  0  0  0  0  0  0  0  0  0  0  # atno 8009 bound_to 7997
  154.5069  140.2150  155.9244 H   0  0  0  0  0  0  0  0  0  0  0  0  # atno 8010 bound_to 7997
  139.5037  144.3523  151.9910 H   0  0  0  0  0  0  0  0  0  0  0  0  # atno 10167 bound_to 10162
  156.0040  130.5100  150.6045 H   0  0  0  0  0  0  0  0  0  0  0  0  # atno 10718 bound_to 10713
  153.7158  135.3261  155.3256 H   0  0  0  0  0  0  0  0  0  0  0  0  # atno 10763 bound_to 10752
  154.8371  135.4488  154.1267 H   0  0  0  0  0  0  0  0  0  0  0  0  # atno 10764 bound_to 10752
  153.2374  135.6967  153.7901 H   0  0  0  0  0  0  0  0  0  0  0  0  # atno 10765 bound_to 10752
  140.5239  134.0532  155.7853 H   0  0  0  0  0  0  0  0  0  0  0  0  # atno 11005 bound_to 11000
  144.6960  140.3430  143.7196 LP  0  0  0  0  0  0  0  0  0  0  0  0  # atno 17320 bound_to 7965
  145.7314  139.1737  143.2428 LP  0  0  0  0  0  0  0  0  0  0  0  0  # atno 17321 bound_to 7965
  140.2960  144.3701  150.6074 LP  0  0  0  0  0  0  0  0  0  0  0  0  # atno 17342 bound_to 10162
  140.5910  143.2168  151.7252 LP  0  0  0  0  0  0  0  0  0  0  0  0  # atno 17343 bound_to 10162
  157.3888  131.0792  151.1412 LP  0  0  0  0  0  0  0  0  0  0  0  0  # atno 17370 bound_to 10713
  157.2111  130.6438  149.5774 LP  0  0  0  0  0  0  0  0  0  0  0  0  # atno 17371 bound_to 10713
  141.1319  133.9287  157.2517 LP  0  0  0  0  0  0  0  0  0  0  0  0  # atno 17394 bound_to 11000
  139.9591  135.0158  156.9211 LP  0  0  0  0  0  0  0  0  0  0  0  0  # atno 17395 bound_to 11000

$$$$
