AV-unprocessed.smi:511|AV-procd|sdf|2764|dock7
  -GOLD-   2262023233D 1   1.00000     0.00000
 Structure written by MMmdl.
 46 48  0  0  0  0  0  0  0  0  2 V2000
  152.4749  143.8534  162.7234 C   0  0  0  0  0  0  0  0  0  0  0  0
  152.4115  143.6263  161.3265 O   0  0  0  0  0  0  0  0  0  0  0  0
  153.2697  142.5793  160.9079 C   0  0  0  0  0  0  0  0  0  0  0  0
  153.2212  142.4829  159.3783 C   0  0  0  0  0  0  0  0  0  0  0  0
  152.7314  141.1787  158.9407 N   0  0  0  0  0  0  0  0  0  0  0  0
  151.7098  140.8919  158.0889 C   0  0  0  0  0  0  0  0  0  0  0  0
  150.9856  141.8909  157.4388 N   0  0  0  0  0  0  0  0  0  0  0  0
  150.3142  141.7340  156.1499 C   0  0  0  0  0  0  0  0  0  0  0  0
  148.7934  141.5627  156.3248 C   0  0  0  0  0  0  0  0  0  0  0  0
  148.2127  142.6937  157.0871 N   0  3  0  0  0  0  0  0  0  0  0  0
  146.7512  142.5677  157.2698 C   0  0  0  0  0  0  0  0  0  0  0  0
  148.9298  142.9232  158.3637 C   0  0  0  0  0  0  0  0  0  0  0  0
  150.4418  143.0636  158.1171 C   0  0  0  0  0  0  0  0  0  0  0  0
  151.4467  139.5893  157.9498 N   0  0  0  0  0  0  0  0  0  0  0  0
  152.4000  138.9925  158.7605 C   0  0  0  0  0  0  0  0  0  0  0  0
  153.1771  139.9262  159.3639 C   0  0  0  0  0  0  0  0  0  0  0  0
  154.2517  139.5701  160.2990 C   0  0  0  0  0  0  0  0  0  0  0  0
  154.9565  140.4000  160.8686 O   0  0  0  0  0  0  0  0  0  0  0  0
  154.3837  138.2319  160.4700 N   0  0  0  0  0  0  0  0  0  0  0  0
  153.6414  137.2403  159.8883 C   0  0  0  0  0  0  0  0  0  0  0  0
  153.8909  136.0628  160.1437 O   0  0  0  0  0  0  0  0  0  0  0  0
  152.6361  137.6165  159.0318 N   0  0  0  0  0  0  0  0  0  0  0  0
  151.7822  136.6344  158.3608 C   0  0  0  0  0  0  0  0  0  0  0  0
  155.1130  137.9317  161.1004 H   0  0  0  0  0  0  0  0  0  0  0  0
  151.7972  144.6631  162.9942 H   0  0  0  0  0  0  0  0  0  0  0  0
  153.4812  144.1399  163.0316 H   0  0  0  0  0  0  0  0  0  0  0  0
  152.1768  142.9648  163.2814 H   0  0  0  0  0  0  0  0  0  0  0  0
  154.2892  142.7740  161.2440 H   0  0  0  0  0  0  0  0  0  0  0  0
  152.9503  141.6352  161.3523 H   0  0  0  0  0  0  0  0  0  0  0  0
  152.5883  143.2763  158.9898 H   0  0  0  0  0  0  0  0  0  0  0  0
  154.2072  142.6574  158.9487 H   0  0  0  0  0  0  0  0  0  0  0  0
  150.5336  142.5968  155.5200 H   0  0  0  0  0  0  0  0  0  0  0  0
  150.7020  140.8574  155.6315 H   0  0  0  0  0  0  0  0  0  0  0  0
  148.3140  141.4942  155.3477 H   0  0  0  0  0  0  0  0  0  0  0  0
  148.5862  140.6280  156.8488 H   0  0  0  0  0  0  0  0  0  0  0  0
  146.5047  141.6910  157.8701 H   0  0  0  0  0  0  0  0  0  0  0  0
  146.2494  142.4748  156.3060 H   0  0  0  0  0  0  0  0  0  0  0  0
  146.3495  143.4493  157.7705 H   0  0  0  0  0  0  0  0  0  0  0  0
  148.5475  143.8252  158.8428 H   0  0  0  0  0  0  0  0  0  0  0  0
  148.7391  142.0930  159.0462 H   0  0  0  0  0  0  0  0  0  0  0  0
  150.9610  143.2085  159.0655 H   0  0  0  0  0  0  0  0  0  0  0  0
  150.6467  143.9508  157.5162 H   0  0  0  0  0  0  0  0  0  0  0  0
  151.9478  135.6068  158.6857 H   0  0  0  0  0  0  0  0  0  0  0  0
  151.9507  136.6709  157.2843 H   0  0  0  0  0  0  0  0  0  0  0  0
  150.7320  136.8643  158.5442 H   0  0  0  0  0  0  0  0  0  0  0  0
  148.3637  143.5199  156.5259 H   0  0  0  0  0  0  0  0  0  0  0  0
  1  2  1  0  0  0  0
  1 25  1  0  0  0  0
  1 26  1  0  0  0  0
  1 27  1  0  0  0  0
  2  3  1  0  0  0  0
  3  4  1  0  0  0  0
  3 28  1  0  0  0  0
  3 29  1  0  0  0  0
  4  5  1  0  0  0  0
  4 30  1  0  0  0  0
  4 31  1  0  0  0  0
  5 16  1  0  0  0  0
  5  6  1  0  0  0  0
  6  7  1  0  0  0  0
  6 14  2  0  0  0  0
  7 13  1  0  0  0  0
  7  8  1  0  0  0  0
  8  9  1  0  0  0  0
  8 32  1  0  0  0  0
  8 33  1  0  0  0  0
  9 10  1  0  0  0  0
  9 34  1  0  0  0  0
  9 35  1  0  0  0  0
 10 11  1  0  0  0  0
 10 12  1  0  0  0  0
 10 46  1  0  0  0  0
 11 36  1  0  0  0  0
 11 37  1  0  0  0  0
 11 38  1  0  0  0  0
 12 13  1  0  0  0  0
 12 39  1  0  0  0  0
 12 40  1  0  0  0  0
 13 41  1  0  0  0  0
 13 42  1  0  0  0  0
 14 15  1  0  0  0  0
 15 22  1  0  0  0  0
 15 16  2  0  0  0  0
 16 17  1  0  0  0  0
 17 18  2  0  0  0  0
 17 19  1  0  0  0  0
 19 24  1  0  0  0  0
 19 20  1  0  0  0  0
 20 21  2  0  0  0  0
 20 22  1  0  0  0  0
 22 23  1  0  0  0  0
 23 43  1  0  0  0  0
 23 44  1  0  0  0  0
 23 45  1  0  0  0  0
M  CHG  1  10   1
M  END
> <s_m_source_file>
AV-unprocessed.smi

> <i_m_source_file_index>
511

> <i_lp_mmshare_version>
43012

> <i_f3d_flags>
0

> <s_epik_input>
W0NIM11uMWMoPU8pW25IXWMoPU8pYyhjMTIpbihbQ0gyXVtDSDJdT1tDSDNdKWMobjIpTjNbQ0gyXVtDSDJdTihbQ0gzXSlbQ0gyXVtDSDJdMw==

> <s_epik_cmdline>
J2VwaWtfcHl0aG9uJywgJy1waCcsICc3LjAnLCAnLXRuJywgJzgnLCAnLW1hJywgJzIwMCcsICctbWV0YWxfYmluZGluZycsICctaW1hZScsICc8aW5maWxlLm1hZT4nLCAnLW9tYWUnLCAnPG91dGZpbGUubWFlPic=

> <r_epik_Ionization_Penalty>
0.064781

> <r_epik_Ionization_Penalty_Charging>
0.0647789

> <r_epik_Ionization_Penalty_Neutral>
2.1607e-06

> <r_epik_State_Penalty>
0.0564218

> <r_epik_Charging_Adjusted_Penalty>
0.121201

> <i_epik_Tot_Q>
1

> <i_epik_Tot_abs_Q>
1

> <r_epik_Metal_State_Penalty>
0.0833038

> <b_epik_Metal_Only>
0

> <s_lp_Force_Field>
OPLS_2005

> <r_lp_Energy>
49.4722

> <b_lp_Chiralities_Consistent>
1

> <s_lp_Variant>
AV-unprocessed.smi:511-1

> <Gold.Version>
5.8.1

> <Gold.Id.Protein>
6NUR|6NUR_protein|mol2

> <Gold.PLP.Fitness>
40.1996

> <Gold.PLP.PLP>
-32.7204

> <Gold.PLP.part.hbond>
-2.0005

> <Gold.PLP.part.metal>
0.0000

> <Gold.PLP.part.buried>
-0.5738

> <Gold.PLP.part.nonpolar>
-30.3780

> <Gold.PLP.part.repulsive>
0.1439

> <Gold.PLP.ligand.clash>
0.0000

> <Gold.PLP.ligand.torsion>
1.0399

> <Gold.PLP.Chemscore.Hbond>
3.0000

> <Gold.PLP.Chemscore.CHOScore>
0.0000

> <Gold.PLP.Chemscore.Metal>
0.0000

> <Gold.Chemscore.Hbonds>
donor molecule, donor type, donor heavy atom, donor atom, acceptor molecule, acceptor atom, score
      L1  H    10    46       P1  8028  2.00
      P1  H  6896  6907       L1    21  1.00

> <Gold.PLP.Chemscore.Internal.Correction>
0.5589

> <Gold.Rescore>
     Score         DG    S(hbond)    S(metal)    S(lipo)     H(rot)  DE(clash)    DE(int)     intcor
     12.22     -16.35       1.86        0.00      72.92       1.51       1.52       2.61       ----

> <Gold.Chemscore.Fitness>
12.2199

> <Gold.Chemscore.DG>
-16.3499

> <Gold.Chemscore.ZeroCoef>
-5.4800

> <Gold.Chemscore.Hbond>
1.8565

> <Gold.Chemscore.Metal>
0.0000

> <Gold.Chemscore.Lipo>
72.9159

> <Gold.Chemscore.Internal_Hbond>
0.0000

> <Gold.Chemscore.DEClash>
1.5200

> <Gold.Chemscore.DEInternal>
2.6099

> <Gold.Chemscore.Rot>
1.5086

> <Gold.Chemscore.Internal.Correction>
   9.000000E+99

> <Gold.Chemscore.Hbonds>
donor molecule, donor type, donor heavy atom, donor atom, acceptor molecule, acceptor atom, score
      L1  H    10    46       P1  8028  0.24
      P1  H  6896  6907       L1    21  0.90

> <Gold.Chemscore.Hbond.Weighted>
-6.2007

> <Gold.Chemscore.Metal.Weighted>
-0.0000

> <Gold.Chemscore.Lipo.Weighted>
-8.5312

> <Gold.Chemscore.Internal_Hbond.Weighted>
0.0000

> <Gold.Chemscore.DEClash.Weighted>
1.5200

> <Gold.Chemscore.DEInternal.Weighted>
2.6099

> <Gold.Chemscore.Rot.Weighted>
3.8620

> <Gold.Chemscore.Internal.Correction.Weighted>
   9.000000E+99

> <Gold.Protein.RotatedTorsions>
[ 6907 6896 6895 6894 ] final   50.68 input  -60.11 | X-H torsion
[ 7974 7965 7964 7962 ] final  155.18 input  175.53 | X-H torsion
[ 8008 7997 7996 7995 ] final   88.63 input   59.86 | X-H torsion
[ 10167 10162 10161 10158 ] final   -5.92 input  -65.29 | X-H torsion
[ 10718 10713 10712 10709 ] final -158.04 input   66.30 | X-H torsion
[ 10763 10752 10751 10750 ] final   20.98 input  -60.55 | X-H torsion
[ 11005 11000 10999 10996 ] final -157.44 input  -57.11 | X-H torsion

> <Gold.Protein.ActiveResidues>
 VAL166  LYS551  ARG553  GLY616  TRP617  ASP618  TYR619  PRO620  LYS621  CYS622 
 ASP623  PHE694  ASN695  SER759  ASP760  ASP761  ALA762  ILE779  LEU786  VAL792 
 PHE793  MET794  SER795  GLU796  ALA797  LYS798  CYS799  TRP800  GLU811  SER814 

> <Gold.Protein.RotatedAtoms>
  152.3044  134.7572  160.0350 H   0  0  0  0  0  0  0  0  0  0  0  0  # atno 6907 bound_to 6896
  151.8074  133.3372  159.3553 H   0  0  0  0  0  0  0  0  0  0  0  0  # atno 6908 bound_to 6896
  150.7289  134.5626  159.5894 H   0  0  0  0  0  0  0  0  0  0  0  0  # atno 6909 bound_to 6896
  144.8041  139.7034  143.6169 H   0  0  0  0  0  0  0  0  0  0  0  0  # atno 7974 bound_to 7965
  155.9901  140.3369  155.6745 H   0  0  0  0  0  0  0  0  0  0  0  0  # atno 8008 bound_to 7997
  155.6432  140.0697  157.2629 H   0  0  0  0  0  0  0  0  0  0  0  0  # atno 8009 bound_to 7997
  154.4217  140.1739  156.1583 H   0  0  0  0  0  0  0  0  0  0  0  0  # atno 8010 bound_to 7997
  140.6980  143.6253  150.8574 H   0  0  0  0  0  0  0  0  0  0  0  0  # atno 10167 bound_to 10162
  156.5486  130.8595  151.2772 H   0  0  0  0  0  0  0  0  0  0  0  0  # atno 10718 bound_to 10713
  153.1033  135.6678  153.9633 H   0  0  0  0  0  0  0  0  0  0  0  0  # atno 10763 bound_to 10752
  153.9197  135.3016  155.3449 H   0  0  0  0  0  0  0  0  0  0  0  0  # atno 10764 bound_to 10752
  154.7454  135.5060  153.9270 H   0  0  0  0  0  0  0  0  0  0  0  0  # atno 10765 bound_to 10752
  140.6646  134.4312  157.5233 H   0  0  0  0  0  0  0  0  0  0  0  0  # atno 11005 bound_to 11000
  146.2329  139.5848  142.9543 LP  0  0  0  0  0  0  0  0  0  0  0  0  # atno 17320 bound_to 7965
  145.5481  141.0415  143.2293 LP  0  0  0  0  0  0  0  0  0  0  0  0  # atno 17321 bound_to 7965
  139.9972  143.5783  152.2889 LP  0  0  0  0  0  0  0  0  0  0  0  0  # atno 17342 bound_to 10162
  139.6459  144.7658  151.2244 LP  0  0  0  0  0  0  0  0  0  0  0  0  # atno 17343 bound_to 10162
  157.7392  130.9827  150.2298 LP  0  0  0  0  0  0  0  0  0  0  0  0  # atno 17370 bound_to 10713
  156.2905  130.3745  149.7846 LP  0  0  0  0  0  0  0  0  0  0  0  0  # atno 17371 bound_to 10713
  139.9001  134.8575  156.1931 LP  0  0  0  0  0  0  0  0  0  0  0  0  # atno 17394 bound_to 11000
  141.0439  133.6923  156.1647 LP  0  0  0  0  0  0  0  0  0  0  0  0  # atno 17395 bound_to 11000

$$$$
