AV-unprocessed.smi:2061|AV-procd|sdf|8379|dock7
  -GOLD-   2272011 53D 1   1.00000     0.00000
 Structure written by MMmdl.
 44 45  0  0  0  0  0  0  0  0  2 V2000
  147.2842  133.8705  162.0908 C   0  0  0  0  0  0  0  0  0  0  0  0
  148.0114  134.8424  161.2258 C   0  0  0  0  0  0  0  0  0  0  0  0
  148.3165  136.1658  161.3717 C   0  0  0  0  0  0  0  0  0  0  0  0
  149.0288  136.4682  160.1790 C   0  0  0  0  0  0  0  0  0  0  0  0
  149.5346  137.6656  159.8455 N   0  5  0  0  0  0  0  0  0  0  0  0
  150.1958  137.8239  158.6755 C   0  0  0  0  0  0  0  0  0  0  0  0
  150.4729  136.9343  157.8680 O   0  0  0  0  0  0  0  0  0  0  0  0
  150.5647  139.0908  158.4347 N   0  0  0  0  0  0  0  0  0  0  0  0
  151.2888  139.5801  157.2625 C   0  0  0  0  0  0  0  0  0  0  0  0
  151.0993  141.1052  157.0203 C   0  0  1  0  0  0  0  0  0  0  0  0
  149.7162  141.3459  156.3628 C   0  0  0  0  0  0  0  0  0  0  0  0
  151.2997  141.9225  158.2416 N   0  0  0  0  0  0  0  0  0  0  0  0
  151.5498  143.3363  157.9366 C   0  0  0  0  0  0  0  0  0  0  0  0
  151.7869  144.2081  159.1860 C   0  0  1  0  0  0  0  0  0  0  0  0
  150.5033  144.4877  159.9867 C   0  0  0  0  0  0  0  0  0  0  0  0
  152.8102  143.6412  160.0006 O   0  0  0  0  0  0  0  0  0  0  0  0
  152.6024  142.2779  160.3520 C   0  0  2  0  0  0  0  0  0  0  0  0
  153.8133  141.8086  161.1657 C   0  0  0  0  0  0  0  0  0  0  0  0
  152.4037  141.4397  159.0762 C   0  0  0  0  0  0  0  0  0  0  0  0
  149.1304  135.4253  159.3723 N   0  0  0  0  0  0  0  0  0  0  0  0
  148.4857  134.3766  160.0391 O   0  0  0  0  0  0  0  0  0  0  0  0
  146.2171  134.0913  162.1049 H   0  0  0  0  0  0  0  0  0  0  0  0
  147.6531  133.9160  163.1155 H   0  0  0  0  0  0  0  0  0  0  0  0
  147.4140  132.8496  161.7311 H   0  0  0  0  0  0  0  0  0  0  0  0
  148.0742  136.8143  162.2002 H   0  0  0  0  0  0  0  0  0  0  0  0
  150.3157  139.7788  159.1300 H   0  0  0  0  0  0  0  0  0  0  0  0
  152.3513  139.3369  157.3115 H   0  0  0  0  0  0  0  0  0  0  0  0
  150.8811  138.9973  156.4391 H   0  0  0  0  0  0  0  0  0  0  0  0
  151.8531  141.4038  156.2901 H   0  0  0  0  0  0  0  0  0  0  0  0
  149.5612  140.7253  155.4816 H   0  0  0  0  0  0  0  0  0  0  0  0
  149.5946  142.3672  156.0066 H   0  0  0  0  0  0  0  0  0  0  0  0
  148.9061  141.1313  157.0606 H   0  0  0  0  0  0  0  0  0  0  0  0
  152.4190  143.4146  157.2818 H   0  0  0  0  0  0  0  0  0  0  0  0
  150.7126  143.7724  157.3952 H   0  0  0  0  0  0  0  0  0  0  0  0
  152.1665  145.1737  158.8512 H   0  0  0  0  0  0  0  0  0  0  0  0
  149.7837  145.0408  159.3829 H   0  0  0  0  0  0  0  0  0  0  0  0
  150.7196  145.0848  160.8726 H   0  0  0  0  0  0  0  0  0  0  0  0
  150.0147  143.5694  160.3123 H   0  0  0  0  0  0  0  0  0  0  0  0
  151.7165  142.1954  160.9822 H   0  0  0  0  0  0  0  0  0  0  0  0
  153.6999  140.7689  161.4742 H   0  0  0  0  0  0  0  0  0  0  0  0
  153.9342  142.4108  162.0666 H   0  0  0  0  0  0  0  0  0  0  0  0
  154.7334  141.8876  160.5859 H   0  0  0  0  0  0  0  0  0  0  0  0
  152.2195  140.4187  159.4036 H   0  0  0  0  0  0  0  0  0  0  0  0
  153.3270  141.4268  158.4953 H   0  0  0  0  0  0  0  0  0  0  0  0
  1  2  1  0  0  0  0
  1 22  1  0  0  0  0
  1 23  1  0  0  0  0
  1 24  1  0  0  0  0
  2 21  1  0  0  0  0
  2  3  2  0  0  0  0
  3  4  1  0  0  0  0
  3 25  1  0  0  0  0
  4  5  1  0  0  0  0
  4 20  2  0  0  0  0
  5  6  1  0  0  0  0
  6  7  2  0  0  0  0
  6  8  1  0  0  0  0
  8  9  1  0  0  0  0
  8 26  1  0  0  0  0
  9 10  1  0  0  0  0
  9 27  1  0  0  0  0
  9 28  1  0  0  0  0
 10 11  1  0  0  0  0
 10 12  1  0  0  0  0
 10 29  1  0  0  0  0
 11 30  1  0  0  0  0
 11 31  1  0  0  0  0
 11 32  1  0  0  0  0
 12 19  1  0  0  0  0
 12 13  1  0  0  0  0
 13 14  1  0  0  0  0
 13 33  1  0  0  0  0
 13 34  1  0  0  0  0
 14 15  1  0  0  0  0
 14 16  1  0  0  0  0
 14 35  1  0  0  0  0
 15 36  1  0  0  0  0
 15 37  1  0  0  0  0
 15 38  1  0  0  0  0
 16 17  1  0  0  0  0
 17 18  1  0  0  0  0
 17 19  1  0  0  0  0
 17 39  1  0  0  0  0
 18 40  1  0  0  0  0
 18 41  1  0  0  0  0
 18 42  1  0  0  0  0
 19 43  1  0  0  0  0
 19 44  1  0  0  0  0
 20 21  1  0  0  0  0
M  CHG  1   5  -1
M  END
> <s_m_source_file>
AV-unprocessed.smi

> <i_m_source_file_index>
2061

> <i_lp_mmshare_version>
43012

> <i_f3d_flags>
0

> <s_epik_input>
W0NIM11jMVtjSF1jKG5vMSlbTkhdQyg9TylbTkhdW0NIMl1bQ0BIXShbQ0gzXSlOMltDSDJdW0NAQEhdKFtDSDNdKU9bQ0BASF0oW0NIM10pW0NIMl0y

> <s_epik_cmdline>
J2VwaWtfcHl0aG9uJywgJy1waCcsICc3LjAnLCAnLXRuJywgJzgnLCAnLW1hJywgJzIwMCcsICctbWV0YWxfYmluZGluZycsICctaW1hZScsICc8aW5maWxlLm1hZT4nLCAnLW9tYWUnLCAnPG91dGZpbGUubWFlPic=

> <r_epik_Ionization_Penalty>
6.88367

> <r_epik_Ionization_Penalty_Charging>
6.57198

> <r_epik_Ionization_Penalty_Neutral>
0.311681

> <r_epik_State_Penalty>
6.77619

> <r_epik_Charging_Adjusted_Penalty>
13.3482

> <i_epik_Tot_Q>
-1

> <i_epik_Tot_abs_Q>
1

> <r_epik_Metal_State_Penalty>
2.70524

> <b_epik_Metal_Only>
1

> <s_lp_Force_Field>
OPLS_2005

> <r_lp_Energy>
24.642

> <b_lp_Chiralities_Consistent>
1

> <s_lp_Variant>
AV-unprocessed.smi:2061-20

> <Gold.Version>
5.8.1

> <Gold.Id.Protein>
6NUR|6NUR_protein|mol2

> <Gold.PLP.Fitness>
41.6787

> <Gold.PLP.PLP>
-39.6936

> <Gold.PLP.part.hbond>
-2.6262

> <Gold.PLP.part.metal>
0.0000

> <Gold.PLP.part.buried>
-5.3844

> <Gold.PLP.part.nonpolar>
-32.7411

> <Gold.PLP.part.repulsive>
0.1696

> <Gold.PLP.ligand.clash>
0.0000

> <Gold.PLP.ligand.torsion>
0.5724

> <Gold.PLP.Chemscore.Hbond>
1.0097

> <Gold.PLP.Chemscore.CHOScore>
0.0000

> <Gold.PLP.Chemscore.Metal>
0.0000

> <Gold.Chemscore.Hbonds>
donor molecule, donor type, donor heavy atom, donor atom, acceptor molecule, acceptor atom, score
      P1  H  6896  6908       L1    20  0.70
      P1  H  6931  6943       L1     5  0.05

> <Gold.PLP.Chemscore.Internal.Correction>
0.1009

> <Gold.Rescore>
     Score         DG    S(hbond)    S(metal)    S(lipo)     H(rot)  DE(clash)    DE(int)     intcor
     13.33     -15.55       0.68        0.00      99.94       1.52       0.14       2.08       ----

> <Gold.Chemscore.Fitness>
13.3280

> <Gold.Chemscore.DG>
-15.5470

> <Gold.Chemscore.ZeroCoef>
-5.4800

> <Gold.Chemscore.Hbond>
0.6775

> <Gold.Chemscore.Metal>
0.0000

> <Gold.Chemscore.Lipo>
99.9373

> <Gold.Chemscore.Internal_Hbond>
0.0000

> <Gold.Chemscore.DEClash>
0.1416

> <Gold.Chemscore.DEInternal>
2.0774

> <Gold.Chemscore.Rot>
1.5190

> <Gold.Chemscore.Internal.Correction>
   9.000000E+99

> <Gold.Chemscore.Hbonds>
donor molecule, donor type, donor heavy atom, donor atom, acceptor molecule, acceptor atom, score
      P1  H  6896  6908       L1    20  0.03

> <Gold.Chemscore.Hbond.Weighted>
-2.2630

> <Gold.Chemscore.Metal.Weighted>
-0.0000

> <Gold.Chemscore.Lipo.Weighted>
-11.6927

> <Gold.Chemscore.Internal_Hbond.Weighted>
0.0000

> <Gold.Chemscore.DEClash.Weighted>
0.1416

> <Gold.Chemscore.DEInternal.Weighted>
2.0774

> <Gold.Chemscore.Rot.Weighted>
3.8886

> <Gold.Chemscore.Internal.Correction.Weighted>
   9.000000E+99

> <Gold.Protein.RotatedTorsions>
[ 6907 6896 6895 6894 ] final -174.74 input  -60.11 | X-H torsion
[ 7974 7965 7964 7962 ] final   22.60 input  175.53 | X-H torsion
[ 8008 7997 7996 7995 ] final   78.77 input   59.86 | X-H torsion
[ 10167 10162 10161 10158 ] final  169.19 input  -65.29 | X-H torsion
[ 10718 10713 10712 10709 ] final -140.00 input   66.30 | X-H torsion
[ 10763 10752 10751 10750 ] final -111.33 input  -60.55 | X-H torsion
[ 11005 11000 10999 10996 ] final   70.45 input  -57.11 | X-H torsion

> <Gold.Protein.ActiveResidues>
 VAL166  LYS551  ARG553  GLY616  TRP617  ASP618  TYR619  PRO620  LYS621  CYS622 
 ASP623  PHE694  ASN695  SER759  ASP760  ASP761  ALA762  ILE779  LEU786  VAL792 
 PHE793  MET794  SER795  GLU796  ALA797  LYS798  CYS799  TRP800  GLU811  SER814 

> <Gold.Protein.RotatedAtoms>
  151.5772  133.3382  159.3000 H   0  0  0  0  0  0  0  0  0  0  0  0  # atno 6907 bound_to 6896
  150.8334  134.7600  159.6884 H   0  0  0  0  0  0  0  0  0  0  0  0  # atno 6908 bound_to 6896
  152.4414  134.5590  159.9940 H   0  0  0  0  0  0  0  0  0  0  0  0  # atno 6909 bound_to 6896
  146.2022  139.7863  142.8753 H   0  0  0  0  0  0  0  0  0  0  0  0  # atno 7974 bound_to 7965
  155.8603  140.3454  155.5752 H   0  0  0  0  0  0  0  0  0  0  0  0  # atno 8008 bound_to 7997
  155.7940  140.0875  157.2013 H   0  0  0  0  0  0  0  0  0  0  0  0  # atno 8009 bound_to 7997
  154.4011  140.1478  156.3184 H   0  0  0  0  0  0  0  0  0  0  0  0  # atno 8010 bound_to 7997
  139.4986  144.3733  151.9701 H   0  0  0  0  0  0  0  0  0  0  0  0  # atno 10167 bound_to 10162
  156.3172  130.7514  151.1604 H   0  0  0  0  0  0  0  0  0  0  0  0  # atno 10718 bound_to 10713
  154.8294  135.4531  154.1022 H   0  0  0  0  0  0  0  0  0  0  0  0  # atno 10763 bound_to 10752
  153.2308  135.6905  153.7898 H   0  0  0  0  0  0  0  0  0  0  0  0  # atno 10764 bound_to 10752
  153.7281  135.3331  155.3257 H   0  0  0  0  0  0  0  0  0  0  0  0  # atno 10765 bound_to 10752
  139.9597  134.7083  156.0674 H   0  0  0  0  0  0  0  0  0  0  0  0  # atno 11005 bound_to 11000
  145.3445  141.0295  143.3373 LP  0  0  0  0  0  0  0  0  0  0  0  0  # atno 17320 bound_to 7965
  144.8709  139.5040  143.6768 LP  0  0  0  0  0  0  0  0  0  0  0  0  # atno 17321 bound_to 7965
  140.3169  144.3472  150.6019 LP  0  0  0  0  0  0  0  0  0  0  0  0  # atno 17342 bound_to 10162
  140.5753  143.2177  151.7525 LP  0  0  0  0  0  0  0  0  0  0  0  0  # atno 17343 bound_to 10162
  157.7404  131.0517  150.5168 LP  0  0  0  0  0  0  0  0  0  0  0  0  # atno 17370 bound_to 10713
  156.5315  130.4186  149.6199 LP  0  0  0  0  0  0  0  0  0  0  0  0  # atno 17371 bound_to 10713
  141.1272  133.6596  156.3369 LP  0  0  0  0  0  0  0  0  0  0  0  0  # atno 17394 bound_to 11000
  140.5529  134.6010  157.5412 LP  0  0  0  0  0  0  0  0  0  0  0  0  # atno 17395 bound_to 11000

$$$$
