AV-unprocessed.smi:2282|AV-procd|sdf|9197|dock1
  -GOLD-   2272012413D 1   1.00000     0.00000
 Structure written by MMmdl.
 32 33  0  0  0  0  0  0  0  0  1 V2000
  152.9158  143.4211  161.2683 C   0  0  0  0  0  0  0  0  0  0  0  0
  152.2819  143.0801  159.9327 C   0  0  0  0  0  0  0  0  0  0  0  0
  151.4134  143.9940  159.4475 N   0  0  0  0  0  0  0  0  0  0  0  0
  150.8149  143.7366  158.2667 C   0  0  0  0  0  0  0  0  0  0  0  0
  151.0542  142.5706  157.5148 C   0  0  0  0  0  0  0  0  0  0  0  0
  151.9761  141.6185  158.0116 C   0  0  0  0  0  0  0  0  0  0  0  0
  152.2745  140.3983  157.3439 N   0  0  0  0  0  0  0  0  0  0  0  0
  151.8337  139.9606  156.1503 C   0  0  0  0  0  0  0  0  0  0  0  0
  151.0675  140.5838  155.4149 O   0  0  0  0  0  0  0  0  0  0  0  0
  152.3566  138.5862  155.7166 C   0  0  2  0  0  0  0  0  0  0  0  0
  151.7619  138.0789  154.3898 C   0  0  0  0  0  0  0  0  0  0  0  0
  150.8380  136.9569  154.8188 C   0  0  0  0  0  0  0  0  0  0  0  0
  151.5354  136.4416  156.0725 C   0  0  2  0  0  0  0  0  0  0  0  0
  150.6286  135.6344  157.0071 C   0  0  0  0  0  0  0  0  0  0  0  0
  151.9706  137.6346  156.7069 O   0  0  0  0  0  0  0  0  0  0  0  0
  152.5935  141.8759  159.2583 C   0  0  0  0  0  0  0  0  0  0  0  0
  153.7129  140.7448  159.9427 Cl  0  0  0  0  0  0  0  0  0  0  0  0
  154.0005  143.4694  161.1716 H   0  0  0  0  0  0  0  0  0  0  0  0
  152.6684  142.6616  162.0101 H   0  0  0  0  0  0  0  0  0  0  0  0
  152.5680  144.3843  161.6439 H   0  0  0  0  0  0  0  0  0  0  0  0
  150.1169  144.4805  157.9125 H   0  0  0  0  0  0  0  0  0  0  0  0
  150.5200  142.4254  156.5888 H   0  0  0  0  0  0  0  0  0  0  0  0
  152.9644  139.8174  157.7981 H   0  0  0  0  0  0  0  0  0  0  0  0
  153.4456  138.6027  155.6453 H   0  0  0  0  0  0  0  0  0  0  0  0
  151.2391  138.8430  153.8129 H   0  0  0  0  0  0  0  0  0  0  0  0
  152.5586  137.6841  153.7581 H   0  0  0  0  0  0  0  0  0  0  0  0
  149.8546  137.3592  155.0665 H   0  0  0  0  0  0  0  0  0  0  0  0
  150.7126  136.1906  154.0535 H   0  0  0  0  0  0  0  0  0  0  0  0
  152.4116  135.8531  155.7952 H   0  0  0  0  0  0  0  0  0  0  0  0
  150.2648  134.7321  156.5153 H   0  0  0  0  0  0  0  0  0  0  0  0
  149.7627  136.2187  157.3200 H   0  0  0  0  0  0  0  0  0  0  0  0
  151.1669  135.3309  157.9052 H   0  0  0  0  0  0  0  0  0  0  0  0
  1  2  1  0  0  0  0
  1 18  1  0  0  0  0
  1 19  1  0  0  0  0
  1 20  1  0  0  0  0
  2 16  1  0  0  0  0
  2  3  2  0  0  0  0
  3  4  1  0  0  0  0
  4  5  2  0  0  0  0
  4 21  1  0  0  0  0
  5  6  1  0  0  0  0
  5 22  1  0  0  0  0
  6  7  1  0  0  0  0
  6 16  2  0  0  0  0
  7  8  1  0  0  0  0
  7 23  1  0  0  0  0
  8  9  2  0  0  0  0
  8 10  1  0  0  0  0
 10 15  1  0  0  0  0
 10 11  1  0  0  0  0
 10 24  1  0  0  0  0
 11 12  1  0  0  0  0
 11 25  1  0  0  0  0
 11 26  1  0  0  0  0
 12 13  1  0  0  0  0
 12 27  1  0  0  0  0
 12 28  1  0  0  0  0
 13 14  1  0  0  0  0
 13 15  1  0  0  0  0
 13 29  1  0  0  0  0
 14 30  1  0  0  0  0
 14 31  1  0  0  0  0
 14 32  1  0  0  0  0
 16 17  1  0  0  0  0
M  END
> <s_m_source_file>
AV-unprocessed.smi

> <i_m_source_file_index>
2282

> <i_lp_mmshare_version>
43012

> <i_f3d_flags>
0

> <s_epik_input>
W0NIM11jMW5bY0hdW2NIXWMoYzFDbClbTkhdQyg9TylbQ0BASF0yW0NIMl1bQ0gyXVtDQEhdKE8yKVtDSDNd

> <s_epik_cmdline>
J2VwaWtfcHl0aG9uJywgJy1waCcsICc3LjAnLCAnLXRuJywgJzgnLCAnLW1hJywgJzIwMCcsICctbWV0YWxfYmluZGluZycsICctaW1hZScsICc8aW5maWxlLm1hZT4nLCAnLW9tYWUnLCAnPG91dGZpbGUubWFlPic=

> <r_epik_Ionization_Penalty>
0.00037231

> <r_epik_Ionization_Penalty_Charging>
0

> <r_epik_Ionization_Penalty_Neutral>
0.00037231

> <r_epik_State_Penalty>
0.000225113

> <r_epik_Charging_Adjusted_Penalty>
0.000225113

> <i_epik_Tot_Q>
0

> <i_epik_Tot_abs_Q>
0

> <r_epik_Metal_State_Penalty>
-0

> <b_epik_Metal_Only>
0

> <s_lp_Force_Field>
OPLS_2005

> <r_lp_Energy>
23.9667

> <b_lp_Chiralities_Consistent>
1

> <s_lp_Variant>
AV-unprocessed.smi:2282-3

> <Gold.Version>
5.8.1

> <Gold.Id.Protein>
6NUR|6NUR_protein|mol2

> <Gold.PLP.Fitness>
39.0901

> <Gold.PLP.PLP>
-33.3732

> <Gold.PLP.part.hbond>
-1.0000

> <Gold.PLP.part.metal>
0.0000

> <Gold.PLP.part.buried>
-4.8976

> <Gold.PLP.part.nonpolar>
-28.2666

> <Gold.PLP.part.repulsive>
0.2012

> <Gold.PLP.ligand.clash>
0.0000

> <Gold.PLP.ligand.torsion>
0.0196

> <Gold.PLP.Chemscore.Hbond>
0.8640

> <Gold.PLP.Chemscore.CHOScore>
1.0515

> <Gold.PLP.Chemscore.Metal>
0.0000

> <Gold.Chemscore.Hbonds>
donor molecule, donor type, donor heavy atom, donor atom, acceptor molecule, acceptor atom, score
      P1  H  7989  7998       L1     9  0.90
      L1  C     4    21       P1  8028  0.82
      L1  C     4    21       P1  8029  0.23

> <Gold.PLP.Chemscore.Internal.Correction>
0.0095

> <Gold.Rescore>
     Score         DG    S(hbond)    S(metal)    S(lipo)     H(rot)  DE(clash)    DE(int)     intcor
     15.81     -17.30       0.95        0.00      95.69       1.00       0.21       1.28       ----

> <Gold.Chemscore.Fitness>
15.8110

> <Gold.Chemscore.DG>
-17.2987

> <Gold.Chemscore.ZeroCoef>
-5.4800

> <Gold.Chemscore.Hbond>
0.9530

> <Gold.Chemscore.Metal>
0.0000

> <Gold.Chemscore.Lipo>
95.6898

> <Gold.Chemscore.Internal_Hbond>
0.0000

> <Gold.Chemscore.DEClash>
0.2111

> <Gold.Chemscore.DEInternal>
1.2765

> <Gold.Chemscore.Rot>
1.0000

> <Gold.Chemscore.Internal.Correction>
   9.000000E+99

> <Gold.Chemscore.Hbonds>
donor molecule, donor type, donor heavy atom, donor atom, acceptor molecule, acceptor atom, score
      P1  H  7989  7998       L1     9  0.80

> <Gold.Chemscore.Hbond.Weighted>
-3.1830

> <Gold.Chemscore.Metal.Weighted>
-0.0000

> <Gold.Chemscore.Lipo.Weighted>
-11.1957

> <Gold.Chemscore.Internal_Hbond.Weighted>
0.0000

> <Gold.Chemscore.DEClash.Weighted>
0.2111

> <Gold.Chemscore.DEInternal.Weighted>
1.2765

> <Gold.Chemscore.Rot.Weighted>
2.5600

> <Gold.Chemscore.Internal.Correction.Weighted>
   9.000000E+99

> <Gold.Protein.RotatedTorsions>
[ 6907 6896 6895 6894 ] final  179.45 input  -60.11 | X-H torsion
[ 7974 7965 7964 7962 ] final -129.50 input  175.53 | X-H torsion
[ 8008 7997 7996 7995 ] final   97.74 input   59.86 | X-H torsion
[ 10167 10162 10161 10158 ] final   80.77 input  -65.29 | X-H torsion
[ 10718 10713 10712 10709 ] final  172.59 input   66.30 | X-H torsion
[ 10763 10752 10751 10750 ] final -178.81 input  -60.55 | X-H torsion
[ 11005 11000 10999 10996 ] final  -36.41 input  -57.11 | X-H torsion

> <Gold.Protein.ActiveResidues>
 VAL166  LYS551  ARG553  GLY616  TRP617  ASP618  TYR619  PRO620  LYS621  CYS622 
 ASP623  PHE694  ASN695  SER759  ASP760  ASP761  ALA762  ILE779  LEU786  VAL792 
 PHE793  MET794  SER795  GLU796  ALA797  LYS798  CYS799  TRP800  GLU811  SER814 

> <Gold.Protein.RotatedAtoms>
  151.6714  133.3314  159.3197 H   0  0  0  0  0  0  0  0  0  0  0  0  # atno 6907 bound_to 6896
  150.7866  134.6859  159.6479 H   0  0  0  0  0  0  0  0  0  0  0  0  # atno 6908 bound_to 6896
  152.3937  134.6404  160.0150 H   0  0  0  0  0  0  0  0  0  0  0  0  # atno 6909 bound_to 6896
  144.9566  140.7402  143.4755 H   0  0  0  0  0  0  0  0  0  0  0  0  # atno 7974 bound_to 7965
  156.0933  140.3254  155.7844 H   0  0  0  0  0  0  0  0  0  0  0  0  # atno 8008 bound_to 7997
  155.4961  140.0565  157.2963 H   0  0  0  0  0  0  0  0  0  0  0  0  # atno 8009 bound_to 7997
  154.4651  140.1985  156.0157 H   0  0  0  0  0  0  0  0  0  0  0  0  # atno 8010 bound_to 7997
  139.9463  144.6056  150.8203 H   0  0  0  0  0  0  0  0  0  0  0  0  # atno 10167 bound_to 10162
  156.9767  131.0106  151.2892 H   0  0  0  0  0  0  0  0  0  0  0  0  # atno 10718 bound_to 10713
  154.5430  135.2807  155.1078 H   0  0  0  0  0  0  0  0  0  0  0  0  # atno 10763 bound_to 10752
  154.2554  135.6331  153.5259 H   0  0  0  0  0  0  0  0  0  0  0  0  # atno 10764 bound_to 10752
  152.9983  135.5592  154.5974 H   0  0  0  0  0  0  0  0  0  0  0  0  # atno 10765 bound_to 10752
  140.9872  133.7024  156.1786 H   0  0  0  0  0  0  0  0  0  0  0  0  # atno 11005 bound_to 11000
  145.2763  139.1935  143.4815 LP  0  0  0  0  0  0  0  0  0  0  0  0  # atno 17320 bound_to 7965
  146.3339  140.2718  142.8606 LP  0  0  0  0  0  0  0  0  0  0  0  0  # atno 17321 bound_to 7965
  140.7596  143.3133  151.2794 LP  0  0  0  0  0  0  0  0  0  0  0  0  # atno 17342 bound_to 10162
  139.6664  144.0098  152.2725 LP  0  0  0  0  0  0  0  0  0  0  0  0  # atno 17343 bound_to 10162
  157.5555  130.8210  149.8198 LP  0  0  0  0  0  0  0  0  0  0  0  0  # atno 17370 bound_to 10713
  156.0261  130.3779  150.1820 LP  0  0  0  0  0  0  0  0  0  0  0  0  # atno 17371 bound_to 10713
  140.7096  134.4476  157.5582 LP  0  0  0  0  0  0  0  0  0  0  0  0  # atno 17394 bound_to 11000
  139.8976  134.8633  156.2038 LP  0  0  0  0  0  0  0  0  0  0  0  0  # atno 17395 bound_to 11000

$$$$
