AV-unprocessed.smi:1702|AV-procd|sdf|6845|dock7
  -GOLD-   22720 8 23D 1   1.00000     0.00000
 Structure written by MMmdl.
 44 46  0  0  0  0  0  0  0  0  2 V2000
  149.4825  133.8050  155.5635 C   0  0  0  0  0  0  0  0  0  0  0  0
  149.6038  135.3354  155.5672 C   0  0  2  0  0  0  0  0  0  0  0  0
  148.2810  136.0137  155.1731 C   0  0  0  0  0  0  0  0  0  0  0  0
  148.4227  137.5450  155.1506 C   0  0  0  0  0  0  0  0  0  0  0  0
  149.5158  137.9712  154.2364 N   0  3  1  0  0  0  0  0  0  0  0  0
  149.6151  139.4461  154.0860 C   0  0  0  0  0  0  0  0  0  0  0  0
  149.3298  140.1961  155.4021 C   0  0  2  0  0  0  0  0  0  0  0  0
  148.0794  140.8484  155.2871 O   0  0  0  0  0  0  0  0  0  0  0  0
  150.4220  141.2376  155.7128 C   0  0  0  0  0  0  0  0  0  0  0  0
  151.1130  140.9625  156.9603 N   0  0  0  0  0  0  0  0  0  0  0  0
  151.6261  139.7818  157.3562 C   0  0  0  0  0  0  0  0  0  0  0  0
  152.2205  139.7436  158.5449 N   0  0  0  0  0  0  0  0  0  0  0  0
  152.0827  141.0539  158.9694 C   0  0  0  0  0  0  0  0  0  0  0  0
  152.5045  141.6796  160.1640 C   0  0  0  0  0  0  0  0  0  0  0  0
  152.2482  143.0492  160.3830 C   0  0  0  0  0  0  0  0  0  0  0  0
  152.6595  143.6328  161.5337 F   0  0  0  0  0  0  0  0  0  0  0  0
  151.5661  143.8122  159.4121 C   0  0  0  0  0  0  0  0  0  0  0  0
  151.3235  145.1263  159.6301 F   0  0  0  0  0  0  0  0  0  0  0  0
  151.1350  143.2102  158.2142 C   0  0  0  0  0  0  0  0  0  0  0  0
  151.3940  141.8438  157.9997 C   0  0  0  0  0  0  0  0  0  0  0  0
  150.8137  137.3550  154.6142 C   0  0  0  0  0  0  0  0  0  0  0  0
  150.7194  135.8199  154.6264 C   0  0  0  0  0  0  0  0  0  0  0  0
  149.2271  133.4284  154.5725 H   0  0  0  0  0  0  0  0  0  0  0  0
  148.7091  133.4712  156.2558 H   0  0  0  0  0  0  0  0  0  0  0  0
  150.4193  133.3359  155.8661 H   0  0  0  0  0  0  0  0  0  0  0  0
  149.8562  135.6454  156.5825 H   0  0  0  0  0  0  0  0  0  0  0  0
  147.9623  135.6630  154.1903 H   0  0  0  0  0  0  0  0  0  0  0  0
  147.4934  135.7295  155.8719 H   0  0  0  0  0  0  0  0  0  0  0  0
  147.4745  137.9816  154.8394 H   0  0  0  0  0  0  0  0  0  0  0  0
  148.6228  137.9160  156.1572 H   0  0  0  0  0  0  0  0  0  0  0  0
  150.6046  139.7021  153.7039 H   0  0  0  0  0  0  0  0  0  0  0  0
  148.9034  139.7917  153.3342 H   0  0  0  0  0  0  0  0  0  0  0  0
  149.2727  139.4964  156.2355 H   0  0  0  0  0  0  0  0  0  0  0  0
  147.6255  140.7777  156.1139 H   0  0  0  0  0  0  0  0  0  0  0  0
  151.1631  141.2548  154.9126 H   0  0  0  0  0  0  0  0  0  0  0  0
  149.9952  142.2403  155.7615 H   0  0  0  0  0  0  0  0  0  0  0  0
  151.5555  138.8985  156.7381 H   0  0  0  0  0  0  0  0  0  0  0  0
  153.0270  141.1057  160.9149 H   0  0  0  0  0  0  0  0  0  0  0  0
  150.6115  143.7936  157.4718 H   0  0  0  0  0  0  0  0  0  0  0  0
  151.5845  137.6566  153.9039 H   0  0  0  0  0  0  0  0  0  0  0  0
  151.1222  137.7230  155.5941 H   0  0  0  0  0  0  0  0  0  0  0  0
  151.6766  135.3964  154.9325 H   0  0  0  0  0  0  0  0  0  0  0  0
  150.5327  135.4588  153.6137 H   0  0  0  0  0  0  0  0  0  0  0  0
  149.2933  137.6111  153.3189 H   0  0  0  0  0  0  0  0  0  0  0  0
  1  2  1  0  0  0  0
  1 23  1  0  0  0  0
  1 24  1  0  0  0  0
  1 25  1  0  0  0  0
  2 22  1  0  0  0  0
  2  3  1  0  0  0  0
  2 26  1  0  0  0  0
  3  4  1  0  0  0  0
  3 27  1  0  0  0  0
  3 28  1  0  0  0  0
  4  5  1  0  0  0  0
  4 29  1  0  0  0  0
  4 30  1  0  0  0  0
  5  6  1  0  0  0  0
  5 21  1  0  0  0  0
  5 44  1  0  0  0  0
  6  7  1  0  0  0  0
  6 31  1  0  0  0  0
  6 32  1  0  0  0  0
  7  8  1  0  0  0  0
  7  9  1  0  0  0  0
  7 33  1  0  0  0  0
  8 34  1  0  0  0  0
  9 10  1  0  0  0  0
  9 35  1  0  0  0  0
  9 36  1  0  0  0  0
 10 20  1  0  0  0  0
 10 11  1  0  0  0  0
 11 12  2  0  0  0  0
 11 37  1  0  0  0  0
 12 13  1  0  0  0  0
 13 20  2  0  0  0  0
 13 14  1  0  0  0  0
 14 15  2  0  0  0  0
 14 38  1  0  0  0  0
 15 16  1  0  0  0  0
 15 17  1  0  0  0  0
 17 18  1  0  0  0  0
 17 19  2  0  0  0  0
 19 20  1  0  0  0  0
 19 39  1  0  0  0  0
 21 22  1  0  0  0  0
 21 40  1  0  0  0  0
 21 41  1  0  0  0  0
 22 42  1  0  0  0  0
 22 43  1  0  0  0  0
M  CHG  1   5   1
M  END
> <s_m_source_file>
AV-unprocessed.smi

> <i_m_source_file_index>
1702

> <i_lp_mmshare_version>
43012

> <i_f3d_flags>
0

> <s_epik_input>
W0NIM11bQ0hdMVtDSDJdW0NIMl1OKFtDSDJdW0NIMl0xKVtDSDJdW0NASF0oW09IXSlbQ0gyXW4oW2NIXW4yKWMoYzIzKVtjSF1jKEYpYyhGKVtjSF0z

> <s_epik_cmdline>
J2VwaWtfcHl0aG9uJywgJy1waCcsICc3LjAnLCAnLXRuJywgJzgnLCAnLW1hJywgJzIwMCcsICctbWV0YWxfYmluZGluZycsICctaW1hZScsICc8aW5maWxlLm1hZT4nLCAnLW9tYWUnLCAnPG91dGZpbGUubWFlPic=

> <r_epik_Ionization_Penalty>
0.0135195

> <r_epik_Ionization_Penalty_Charging>
0.00181365

> <r_epik_Ionization_Penalty_Neutral>
0.0117059

> <r_epik_State_Penalty>
0.00902283

> <r_epik_Charging_Adjusted_Penalty>
0.0108365

> <i_epik_Tot_Q>
1

> <i_epik_Tot_abs_Q>
1

> <r_epik_Metal_State_Penalty>
9.09181e-06

> <b_epik_Metal_Only>
0

> <s_lp_Force_Field>
OPLS_2005

> <r_lp_Energy>
21.6828

> <b_lp_Chiralities_Consistent>
1

> <s_lp_Variant>
AV-unprocessed.smi:1702-1

> <Gold.Version>
5.8.1

> <Gold.Id.Protein>
6NUR|6NUR_protein|mol2

> <Gold.PLP.Fitness>
44.9449

> <Gold.PLP.PLP>
-42.6185

> <Gold.PLP.part.hbond>
-1.0000

> <Gold.PLP.part.metal>
0.0000

> <Gold.PLP.part.buried>
-2.7761

> <Gold.PLP.part.nonpolar>
-37.9686

> <Gold.PLP.part.repulsive>
0.0251

> <Gold.PLP.ligand.clash>
0.0000

> <Gold.PLP.ligand.torsion>
1.8720

> <Gold.PLP.Chemscore.Hbond>
2.0000

> <Gold.PLP.Chemscore.CHOScore>
0.0000

> <Gold.PLP.Chemscore.Metal>
0.0000

> <Gold.Chemscore.Hbonds>
donor molecule, donor type, donor heavy atom, donor atom, acceptor molecule, acceptor atom, score
      L1  H     5    44       P1  7948  2.00

> <Gold.PLP.Chemscore.Internal.Correction>
0.0703

> <Gold.Rescore>
     Score         DG    S(hbond)    S(metal)    S(lipo)     H(rot)  DE(clash)    DE(int)     intcor
     12.54     -14.48       0.98        0.00      98.54       2.26       0.09       1.85       ----

> <Gold.Chemscore.Fitness>
12.5411

> <Gold.Chemscore.DG>
-14.4773

> <Gold.Chemscore.ZeroCoef>
-5.4800

> <Gold.Chemscore.Hbond>
0.9755

> <Gold.Chemscore.Metal>
0.0000

> <Gold.Chemscore.Lipo>
98.5431

> <Gold.Chemscore.Internal_Hbond>
0.0000

> <Gold.Chemscore.DEClash>
0.0891

> <Gold.Chemscore.DEInternal>
1.8471

> <Gold.Chemscore.Rot>
2.2619

> <Gold.Chemscore.Internal.Correction>
   9.000000E+99

> <Gold.Chemscore.Hbonds>
donor molecule, donor type, donor heavy atom, donor atom, acceptor molecule, acceptor atom, score
      L1  H     5    44       P1  7948  0.93

> <Gold.Chemscore.Hbond.Weighted>
-3.2581

> <Gold.Chemscore.Metal.Weighted>
-0.0000

> <Gold.Chemscore.Lipo.Weighted>
-11.5295

> <Gold.Chemscore.Internal_Hbond.Weighted>
0.0000

> <Gold.Chemscore.DEClash.Weighted>
0.0891

> <Gold.Chemscore.DEInternal.Weighted>
1.8471

> <Gold.Chemscore.Rot.Weighted>
5.7904

> <Gold.Chemscore.Internal.Correction.Weighted>
   9.000000E+99

> <Gold.Protein.RotatedTorsions>
[ 6907 6896 6895 6894 ] final -124.99 input  -60.11 | X-H torsion
[ 7974 7965 7964 7962 ] final   82.55 input  175.53 | X-H torsion
[ 8008 7997 7996 7995 ] final  174.46 input   59.86 | X-H torsion
[ 10167 10162 10161 10158 ] final   38.91 input  -65.29 | X-H torsion
[ 10718 10713 10712 10709 ] final  -86.10 input   66.30 | X-H torsion
[ 10763 10752 10751 10750 ] final   13.53 input  -60.55 | X-H torsion
[ 11005 11000 10999 10996 ] final  -23.29 input  -57.11 | X-H torsion

> <Gold.Protein.ActiveResidues>
 VAL166  LYS551  ARG553  GLY616  TRP617  ASP618  TYR619  PRO620  LYS621  CYS622 
 ASP623  PHE694  ASN695  SER759  ASP760  ASP761  ALA762  ILE779  LEU786  VAL792 
 PHE793  MET794  SER795  GLU796  ALA797  LYS798  CYS799  TRP800  GLU811  SER814 

> <Gold.Protein.RotatedAtoms>
  150.8823  133.7355  159.2928 H   0  0  0  0  0  0  0  0  0  0  0  0  # atno 6907 bound_to 6896
  151.4932  135.1057  159.9818 H   0  0  0  0  0  0  0  0  0  0  0  0  # atno 6908 bound_to 6896
  152.4768  133.8111  159.7059 H   0  0  0  0  0  0  0  0  0  0  0  0  # atno 6909 bound_to 6896
  145.6236  139.2390  143.2124 H   0  0  0  0  0  0  0  0  0  0  0  0  # atno 7974 bound_to 7965
  156.0972  140.1434  156.9516 H   0  0  0  0  0  0  0  0  0  0  0  0  # atno 8008 bound_to 7997
  154.4679  140.0920  156.7114 H   0  0  0  0  0  0  0  0  0  0  0  0  # atno 8009 bound_to 7997
  155.4821  140.3445  155.4343 H   0  0  0  0  0  0  0  0  0  0  0  0  # atno 8010 bound_to 7997
  140.3891  144.1877  150.6130 H   0  0  0  0  0  0  0  0  0  0  0  0  # atno 10167 bound_to 10162
  155.9992  130.4753  150.4663 H   0  0  0  0  0  0  0  0  0  0  0  0  # atno 10718 bound_to 10713
  153.1712  135.6812  153.8605 H   0  0  0  0  0  0  0  0  0  0  0  0  # atno 10763 bound_to 10752
  153.7968  135.3161  155.3386 H   0  0  0  0  0  0  0  0  0  0  0  0  # atno 10764 bound_to 10752
  154.7999  135.4784  154.0343 H   0  0  0  0  0  0  0  0  0  0  0  0  # atno 10765 bound_to 10752
  140.8737  133.7702  156.0218 H   0  0  0  0  0  0  0  0  0  0  0  0  # atno 11005 bound_to 11000
  146.1412  140.7055  142.9366 LP  0  0  0  0  0  0  0  0  0  0  0  0  # atno 17320 bound_to 7965
  144.7221  140.4408  143.7000 LP  0  0  0  0  0  0  0  0  0  0  0  0  # atno 17321 bound_to 7965
  140.4859  143.2363  151.8889 LP  0  0  0  0  0  0  0  0  0  0  0  0  # atno 17342 bound_to 10162
  139.4790  144.5219  151.8789 LP  0  0  0  0  0  0  0  0  0  0  0  0  # atno 17343 bound_to 10162
  157.2682  131.0581  151.2277 LP  0  0  0  0  0  0  0  0  0  0  0  0  # atno 17370 bound_to 10713
  157.3366  130.7012  149.6356 LP  0  0  0  0  0  0  0  0  0  0  0  0  # atno 17371 bound_to 10713
  140.8543  134.2917  157.5262 LP  0  0  0  0  0  0  0  0  0  0  0  0  # atno 17394 bound_to 11000
  139.8714  134.9484  156.3996 LP  0  0  0  0  0  0  0  0  0  0  0  0  # atno 17395 bound_to 11000

$$$$
