AV-unprocessed.smi:656|AV-procd|sdf|3219|dock3
  -GOLD-   22720 0153D 1   1.00000     0.00000
 Structure written by MMmdl.
 41 42  0  0  0  0  0  0  0  0  2 V2000
  148.2382  127.5672  150.9226 C   0  0  0  0  0  0  0  0  0  0  0  0
  146.8307  128.0290  151.3157 C   0  0  0  0  0  0  0  0  0  0  0  0
  146.8531  129.0697  152.4488 C   0  0  0  0  0  0  0  0  0  0  0  0
  146.8495  130.4664  151.9435 N   0  3  2  0  0  0  0  0  0  0  0  0
  146.9974  131.4568  153.0417 C   0  0  0  0  0  0  0  0  0  0  0  0
  147.1231  132.8910  152.4949 C   0  0  0  0  0  0  0  0  0  0  0  0
  145.9429  133.2665  151.5828 C   0  0  2  0  0  0  0  0  0  0  0  0
  144.7225  133.4409  152.3706 N   0  0  0  0  0  0  0  0  0  0  0  0
  143.9756  134.5543  152.4077 C   0  0  0  0  0  0  0  0  0  0  0  0
  144.2375  135.5677  151.7596 O   0  0  0  0  0  0  0  0  0  0  0  0
  142.9254  134.4086  153.2342 N   0  0  0  0  0  0  0  0  0  0  0  0
  141.8966  135.3460  153.5138 C   0  0  0  0  0  0  0  0  0  0  0  0
  142.2215  136.6949  153.2558 C   0  0  0  0  0  0  0  0  0  0  0  0
  141.2499  137.6763  153.5163 C   0  0  0  0  0  0  0  0  0  0  0  0
  140.0131  137.2391  154.0204 C   0  0  0  0  0  0  0  0  0  0  0  0
  139.7448  135.9358  154.2523 N   0  0  0  0  0  0  0  0  0  0  0  0
  140.6745  135.0073  154.0019 N   0  0  0  0  0  0  0  0  0  0  0  0
  145.7778  132.1919  150.4902 C   0  0  0  0  0  0  0  0  0  0  0  0
  145.6759  130.7760  151.0838 C   0  0  0  0  0  0  0  0  0  0  0  0
  148.1949  126.8295  150.1209 H   0  0  0  0  0  0  0  0  0  0  0  0
  148.7531  127.1097  151.7679 H   0  0  0  0  0  0  0  0  0  0  0  0
  148.8450  128.4027  150.5725 H   0  0  0  0  0  0  0  0  0  0  0  0
  146.3358  128.4512  150.4402 H   0  0  0  0  0  0  0  0  0  0  0  0
  146.2504  127.1543  151.6078 H   0  0  0  0  0  0  0  0  0  0  0  0
  146.0154  128.9188  153.1315 H   0  0  0  0  0  0  0  0  0  0  0  0
  147.7593  128.9061  153.0341 H   0  0  0  0  0  0  0  0  0  0  0  0
  146.1448  131.3806  153.7183 H   0  0  0  0  0  0  0  0  0  0  0  0
  147.8863  131.2239  153.6292 H   0  0  0  0  0  0  0  0  0  0  0  0
  147.2060  133.6009  153.3189 H   0  0  0  0  0  0  0  0  0  0  0  0
  148.0522  132.9752  151.9294 H   0  0  0  0  0  0  0  0  0  0  0  0
  146.1723  134.2219  151.1071 H   0  0  0  0  0  0  0  0  0  0  0  0
  144.4339  132.6605  152.9422 H   0  0  0  0  0  0  0  0  0  0  0  0
  142.8472  133.5239  153.7132 H   0  0  0  0  0  0  0  0  0  0  0  0
  143.1903  136.9746  152.8680 H   0  0  0  0  0  0  0  0  0  0  0  0
  141.4453  138.7231  153.3372 H   0  0  0  0  0  0  0  0  0  0  0  0
  139.2259  137.9445  154.2419 H   0  0  0  0  0  0  0  0  0  0  0  0
  144.9050  132.4006  149.8704 H   0  0  0  0  0  0  0  0  0  0  0  0
  146.6361  132.2335  149.8183 H   0  0  0  0  0  0  0  0  0  0  0  0
  145.6067  130.0619  150.2642 H   0  0  0  0  0  0  0  0  0  0  0  0
  144.7579  130.6749  151.6649 H   0  0  0  0  0  0  0  0  0  0  0  0
  147.6723  130.5632  151.3658 H   0  0  0  0  0  0  0  0  0  0  0  0
  1  2  1  0  0  0  0
  1 20  1  0  0  0  0
  1 21  1  0  0  0  0
  1 22  1  0  0  0  0
  2  3  1  0  0  0  0
  2 23  1  0  0  0  0
  2 24  1  0  0  0  0
  3  4  1  0  0  0  0
  3 25  1  0  0  0  0
  3 26  1  0  0  0  0
  4 19  1  0  0  0  0
  4  5  1  0  0  0  0
  4 41  1  0  0  0  0
  5  6  1  0  0  0  0
  5 27  1  0  0  0  0
  5 28  1  0  0  0  0
  6  7  1  0  0  0  0
  6 29  1  0  0  0  0
  6 30  1  0  0  0  0
  7  8  1  0  0  0  0
  7 18  1  0  0  0  0
  7 31  1  0  0  0  0
  8  9  1  0  0  0  0
  8 32  1  0  0  0  0
  9 10  2  0  0  0  0
  9 11  1  0  0  0  0
 11 12  1  0  0  0  0
 11 33  1  0  0  0  0
 12 17  1  0  0  0  0
 12 13  2  0  0  0  0
 13 14  1  0  0  0  0
 13 34  1  0  0  0  0
 14 15  2  0  0  0  0
 14 35  1  0  0  0  0
 15 16  1  0  0  0  0
 15 36  1  0  0  0  0
 16 17  2  0  0  0  0
 18 19  1  0  0  0  0
 18 37  1  0  0  0  0
 18 38  1  0  0  0  0
 19 39  1  0  0  0  0
 19 40  1  0  0  0  0
M  CHG  1   4   1
M  END
> <s_m_source_file>
AV-unprocessed.smi

> <i_m_source_file_index>
656

> <i_lp_mmshare_version>
43012

> <i_f3d_flags>
0

> <s_epik_input>
W0NIM11bQ0gyXVtDSDJdTjFbQ0gyXVtDSDJdW0NIXShbQ0gyXVtDSDJdMSlbTkhdQyg9TylbTkhdYzJbY0hdW2NIXVtjSF1ubjI=

> <s_epik_cmdline>
J2VwaWtfcHl0aG9uJywgJy1waCcsICc3LjAnLCAnLXRuJywgJzgnLCAnLW1hJywgJzIwMCcsICctbWV0YWxfYmluZGluZycsICctaW1hZScsICc8aW5maWxlLm1hZT4nLCAnLW9tYWUnLCAnPG91dGZpbGUubWFlPic=

> <r_lp_tautomer_probability>
1

> <r_epik_Ionization_Penalty>
0.00614766

> <r_epik_Ionization_Penalty_Charging>
0.00269617

> <r_epik_Ionization_Penalty_Neutral>
0.00345149

> <r_epik_State_Penalty>
-0

> <r_epik_Charging_Adjusted_Penalty>
0.00269617

> <i_epik_Tot_Q>
1

> <i_epik_Tot_abs_Q>
1

> <r_epik_Metal_State_Penalty>
-0

> <b_epik_Metal_Only>
0

> <s_lp_Force_Field>
OPLS_2005

> <r_lp_Energy>
22.9398

> <b_lp_Chiralities_Consistent>
1

> <s_lp_Variant>
AV-unprocessed.smi:656-2

> <Gold.Version>
5.8.1

> <Gold.Id.Protein>
6NUR|6NUR_protein|mol2

> <Gold.PLP.Fitness>
47.4528

> <Gold.PLP.PLP>
-40.0322

> <Gold.PLP.part.hbond>
-4.9304

> <Gold.PLP.part.metal>
0.0000

> <Gold.PLP.part.buried>
-8.8407

> <Gold.PLP.part.nonpolar>
-27.6011

> <Gold.PLP.part.repulsive>
0.4650

> <Gold.PLP.ligand.clash>
0.0000

> <Gold.PLP.ligand.torsion>
0.3511

> <Gold.PLP.Chemscore.Hbond>
2.6988

> <Gold.PLP.Chemscore.CHOScore>
0.0000

> <Gold.PLP.Chemscore.Metal>
0.0000

> <Gold.Chemscore.Hbonds>
donor molecule, donor type, donor heavy atom, donor atom, acceptor molecule, acceptor atom, score
      L1  H     4    41       P1 10747  1.00
      L1  H    11    33       P1 10957  0.93
      P1  H 11000 11005       L1    17  0.79

> <Gold.PLP.Chemscore.Internal.Correction>
0.0265

> <Gold.Rescore>
     Score         DG    S(hbond)    S(metal)    S(lipo)     H(rot)  DE(clash)    DE(int)     intcor
     17.27     -19.09       2.18        0.00      86.01       1.45       0.08       1.74       ----

> <Gold.Chemscore.Fitness>
17.2695

> <Gold.Chemscore.DG>
-19.0910

> <Gold.Chemscore.ZeroCoef>
-5.4800

> <Gold.Chemscore.Hbond>
2.1751

> <Gold.Chemscore.Metal>
0.0000

> <Gold.Chemscore.Lipo>
86.0066

> <Gold.Chemscore.Internal_Hbond>
0.0000

> <Gold.Chemscore.DEClash>
0.0836

> <Gold.Chemscore.DEInternal>
1.7380

> <Gold.Chemscore.Rot>
1.4518

> <Gold.Chemscore.Internal.Correction>
   9.000000E+99

> <Gold.Chemscore.Hbonds>
donor molecule, donor type, donor heavy atom, donor atom, acceptor molecule, acceptor atom, score
      L1  H     4    41       P1 10747  1.00
      L1  H    11    33       P1 10957  0.89
      P1  H 11000 11005       L1    17  0.13

> <Gold.Chemscore.Hbond.Weighted>
-7.2648

> <Gold.Chemscore.Metal.Weighted>
-0.0000

> <Gold.Chemscore.Lipo.Weighted>
-10.0628

> <Gold.Chemscore.Internal_Hbond.Weighted>
0.0000

> <Gold.Chemscore.DEClash.Weighted>
0.0836

> <Gold.Chemscore.DEInternal.Weighted>
1.7380

> <Gold.Chemscore.Rot.Weighted>
3.7165

> <Gold.Chemscore.Internal.Correction.Weighted>
   9.000000E+99

> <Gold.Protein.RotatedTorsions>
[ 6907 6896 6895 6894 ] final  -87.44 input  -60.11 | X-H torsion
[ 7974 7965 7964 7962 ] final  121.34 input  175.53 | X-H torsion
[ 8008 7997 7996 7995 ] final  161.26 input   59.86 | X-H torsion
[ 10167 10162 10161 10158 ] final    6.43 input  -65.29 | X-H torsion
[ 10718 10713 10712 10709 ] final -177.44 input   66.30 | X-H torsion
[ 10763 10752 10751 10750 ] final  -81.27 input  -60.55 | X-H torsion
[ 11005 11000 10999 10996 ] final    8.17 input  -57.11 | X-H torsion

> <Gold.Protein.ActiveResidues>
 VAL166  LYS551  ARG553  GLY616  TRP617  ASP618  TYR619  PRO620  LYS621  CYS622 
 ASP623  PHE694  ASN695  SER759  ASP760  ASP761  ALA762  ILE779  LEU786  VAL792 
 PHE793  MET794  SER795  GLU796  ALA797  LYS798  CYS799  TRP800  GLU811  SER814 

> <Gold.Protein.RotatedAtoms>
  150.6866  134.2896  159.4660 H   0  0  0  0  0  0  0  0  0  0  0  0  # atno 6907 bound_to 6896
  152.0802  134.9473  160.0583 H   0  0  0  0  0  0  0  0  0  0  0  0  # atno 6908 bound_to 6896
  152.0829  133.4127  159.4546 H   0  0  0  0  0  0  0  0  0  0  0  0  # atno 6909 bound_to 6896
  145.1205  139.3392  143.4716 H   0  0  0  0  0  0  0  0  0  0  0  0  # atno 7974 bound_to 7965
  156.2115  140.1782  156.7684 H   0  0  0  0  0  0  0  0  0  0  0  0  # atno 8008 bound_to 7997
  154.5730  140.0679  156.9022 H   0  0  0  0  0  0  0  0  0  0  0  0  # atno 8009 bound_to 7997
  155.2639  140.3338  155.4273 H   0  0  0  0  0  0  0  0  0  0  0  0  # atno 8010 bound_to 7997
  140.6428  143.7734  150.7453 H   0  0  0  0  0  0  0  0  0  0  0  0  # atno 10167 bound_to 10162
  156.8296  130.9648  151.3107 H   0  0  0  0  0  0  0  0  0  0  0  0  # atno 10718 bound_to 10713
  154.5614  135.5632  153.7011 H   0  0  0  0  0  0  0  0  0  0  0  0  # atno 10763 bound_to 10752
  153.0019  135.6275  154.2239 H   0  0  0  0  0  0  0  0  0  0  0  0  # atno 10764 bound_to 10752
  154.2177  135.2871  155.2916 H   0  0  0  0  0  0  0  0  0  0  0  0  # atno 10765 bound_to 10752
  140.5400  134.0384  155.7901 H   0  0  0  0  0  0  0  0  0  0  0  0  # atno 11005 bound_to 11000
  146.3521  140.1162  142.8602 LP  0  0  0  0  0  0  0  0  0  0  0  0  # atno 17320 bound_to 7965
  145.0746  140.9179  143.4862 LP  0  0  0  0  0  0  0  0  0  0  0  0  # atno 17321 bound_to 7965
  140.1369  143.4476  152.2219 LP  0  0  0  0  0  0  0  0  0  0  0  0  # atno 17342 bound_to 10162
  139.5637  144.7422  151.4082 LP  0  0  0  0  0  0  0  0  0  0  0  0  # atno 17343 bound_to 10162
  157.6414  130.8808  149.9455 LP  0  0  0  0  0  0  0  0  0  0  0  0  # atno 17370 bound_to 10713
  156.0942  130.3661  150.0338 LP  0  0  0  0  0  0  0  0  0  0  0  0  # atno 17371 bound_to 10713
  141.1233  133.9426  157.2687 LP  0  0  0  0  0  0  0  0  0  0  0  0  # atno 17394 bound_to 11000
  139.9509  135.0175  156.8990 LP  0  0  0  0  0  0  0  0  0  0  0  0  # atno 17395 bound_to 11000

$$$$
