AV-unprocessed.smi:3323|AV-procd|sdf|12777|dock4
  -GOLD-   2272019123D 1   1.00000     0.00000
 Structure written by MMmdl.
 37 38  0  0  0  0  0  0  0  0  1 V2000
  145.3531  139.3883  156.3790 C   0  0  0  0  0  0  0  0  0  0  0  0
  146.3916  139.6224  155.2770 C   0  0  2  0  0  0  0  0  0  0  0  0
  146.5601  141.1195  154.9520 C   0  0  0  0  0  0  0  0  0  0  0  0
  147.5515  141.3419  153.7921 C   0  0  1  0  0  0  0  0  0  0  0  0
  149.0351  141.1158  154.1675 C   0  0  0  0  0  0  0  0  0  0  0  0
  149.5172  142.0982  155.1350 N   0  0  0  0  0  0  0  0  0  0  0  0
  150.3904  141.8556  156.1236 C   0  0  0  0  0  0  0  0  0  0  0  0
  150.9073  140.7559  156.3176 O   0  0  0  0  0  0  0  0  0  0  0  0
  150.6145  142.9639  156.8509 N   0  0  0  0  0  0  0  0  0  0  0  0
  151.4400  143.1384  157.9959 C   0  0  0  0  0  0  0  0  0  0  0  0
  151.6624  144.3737  158.6531 C   0  0  0  0  0  0  0  0  0  0  0  0
  152.5177  144.4046  159.7717 C   0  0  0  0  0  0  0  0  0  0  0  0
  153.1238  143.2042  160.1897 C   0  0  0  0  0  0  0  0  0  0  0  0
  152.9285  142.0224  159.5690 N   0  0  0  0  0  0  0  0  0  0  0  0
  152.1071  142.0004  158.4978 C   0  0  0  0  0  0  0  0  0  0  0  0
  147.1139  140.4619  152.6076 C   0  0  0  0  0  0  0  0  0  0  0  0
  146.8968  138.9992  153.0358 C   0  0  0  0  0  0  0  0  0  0  0  0
  145.9602  138.9351  154.1060 O   0  0  0  0  0  0  0  0  0  0  0  0
  145.6480  139.8818  157.3054 H   0  0  0  0  0  0  0  0  0  0  0  0
  145.2423  138.3246  156.5906 H   0  0  0  0  0  0  0  0  0  0  0  0
  144.3753  139.7745  156.0896 H   0  0  0  0  0  0  0  0  0  0  0  0
  147.3415  139.2014  155.6094 H   0  0  0  0  0  0  0  0  0  0  0  0
  145.5899  141.5288  154.6673 H   0  0  0  0  0  0  0  0  0  0  0  0
  146.8624  141.6719  155.8412 H   0  0  0  0  0  0  0  0  0  0  0  0
  147.4632  142.3828  153.4775 H   0  0  0  0  0  0  0  0  0  0  0  0
  149.2010  140.1003  154.5282 H   0  0  0  0  0  0  0  0  0  0  0  0
  149.6524  141.2157  153.2743 H   0  0  0  0  0  0  0  0  0  0  0  0
  149.1482  143.0340  155.0493 H   0  0  0  0  0  0  0  0  0  0  0  0
  150.1498  143.8004  156.5292 H   0  0  0  0  0  0  0  0  0  0  0  0
  151.2108  145.2960  158.3248 H   0  0  0  0  0  0  0  0  0  0  0  0
  152.7075  145.3295  160.2959 H   0  0  0  0  0  0  0  0  0  0  0  0
  153.7863  143.1941  161.0425 H   0  0  0  0  0  0  0  0  0  0  0  0
  151.9777  141.0376  158.0252 H   0  0  0  0  0  0  0  0  0  0  0  0
  146.1784  140.8492  152.2016 H   0  0  0  0  0  0  0  0  0  0  0  0
  147.8419  140.5161  151.7977 H   0  0  0  0  0  0  0  0  0  0  0  0
  146.5074  138.4211  152.1977 H   0  0  0  0  0  0  0  0  0  0  0  0
  147.8354  138.5286  153.3307 H   0  0  0  0  0  0  0  0  0  0  0  0
  1  2  1  0  0  0  0
  1 19  1  0  0  0  0
  1 20  1  0  0  0  0
  1 21  1  0  0  0  0
  2 18  1  0  0  0  0
  2  3  1  0  0  0  0
  2 22  1  0  0  0  0
  3  4  1  0  0  0  0
  3 23  1  0  0  0  0
  3 24  1  0  0  0  0
  4  5  1  0  0  0  0
  4 16  1  0  0  0  0
  4 25  1  0  0  0  0
  5  6  1  0  0  0  0
  5 26  1  0  0  0  0
  5 27  1  0  0  0  0
  6  7  1  0  0  0  0
  6 28  1  0  0  0  0
  7  8  2  0  0  0  0
  7  9  1  0  0  0  0
  9 10  1  0  0  0  0
  9 29  1  0  0  0  0
 10 15  1  0  0  0  0
 10 11  2  0  0  0  0
 11 12  1  0  0  0  0
 11 30  1  0  0  0  0
 12 13  2  0  0  0  0
 12 31  1  0  0  0  0
 13 14  1  0  0  0  0
 13 32  1  0  0  0  0
 14 15  2  0  0  0  0
 15 33  1  0  0  0  0
 16 17  1  0  0  0  0
 16 34  1  0  0  0  0
 16 35  1  0  0  0  0
 17 18  1  0  0  0  0
 17 36  1  0  0  0  0
 17 37  1  0  0  0  0
M  END
> <s_m_source_file>
AV-unprocessed.smi

> <i_m_source_file_index>
3323

> <i_lp_mmshare_version>
43012

> <i_f3d_flags>
0

> <s_epik_input>
W0NIM11bQ0BASF0xW0NIMl1bQ0BIXShbQ0gyXVtDSDJdTzEpW0NIMl1bTkhdQyg9TylbTkhdYzJbY0hdW2NIXVtjSF1uW2NIXTI=

> <s_epik_cmdline>
J2VwaWtfcHl0aG9uJywgJy1waCcsICc3LjAnLCAnLXRuJywgJzgnLCAnLW1hJywgJzIwMCcsICctbWV0YWxfYmluZGluZycsICctaW1hZScsICc8aW5maWxlLm1hZT4nLCAnLW9tYWUnLCAnPG91dGZpbGUubWFlPic=

> <r_epik_Ionization_Penalty>
0.00485293

> <r_epik_Ionization_Penalty_Charging>
0

> <r_epik_Ionization_Penalty_Neutral>
0.00485293

> <r_epik_State_Penalty>
0.00349083

> <r_epik_Charging_Adjusted_Penalty>
0.00349083

> <i_epik_Tot_Q>
0

> <i_epik_Tot_abs_Q>
0

> <r_epik_Metal_State_Penalty>
-0

> <b_epik_Metal_Only>
0

> <s_lp_Force_Field>
OPLS_2005

> <r_lp_Energy>
13.5955

> <b_lp_Chiralities_Consistent>
1

> <s_lp_Variant>
AV-unprocessed.smi:3323-1

> <Gold.Version>
5.8.1

> <Gold.Id.Protein>
6NUR|6NUR_protein|mol2

> <Gold.PLP.Fitness>
40.0651

> <Gold.PLP.PLP>
-34.4649

> <Gold.PLP.part.hbond>
-2.0000

> <Gold.PLP.part.metal>
0.0000

> <Gold.PLP.part.buried>
-3.6497

> <Gold.PLP.part.nonpolar>
-28.5877

> <Gold.PLP.part.repulsive>
0.3925

> <Gold.PLP.ligand.clash>
0.0000

> <Gold.PLP.ligand.torsion>
0.2021

> <Gold.PLP.Chemscore.Hbond>
2.0000

> <Gold.PLP.Chemscore.CHOScore>
0.0000

> <Gold.PLP.Chemscore.Metal>
0.0000

> <Gold.Chemscore.Hbonds>
donor molecule, donor type, donor heavy atom, donor atom, acceptor molecule, acceptor atom, score
      L1  H     6    28       P1  8028  1.00
      L1  H     9    29       P1  8028  1.00

> <Gold.PLP.Chemscore.Internal.Correction>
0.0045

> <Gold.Rescore>
     Score         DG    S(hbond)    S(metal)    S(lipo)     H(rot)  DE(clash)    DE(int)     intcor
     17.86     -19.60       1.94        0.00      92.17       1.23       0.09       1.66       ----

> <Gold.Chemscore.Fitness>
17.8551

> <Gold.Chemscore.DG>
-19.6048

> <Gold.Chemscore.ZeroCoef>
-5.4800

> <Gold.Chemscore.Hbond>
1.9411

> <Gold.Chemscore.Metal>
0.0000

> <Gold.Chemscore.Lipo>
92.1660

> <Gold.Chemscore.Internal_Hbond>
0.0000

> <Gold.Chemscore.DEClash>
0.0859

> <Gold.Chemscore.DEInternal>
1.6638

> <Gold.Chemscore.Rot>
1.2273

> <Gold.Chemscore.Internal.Correction>
   9.000000E+99

> <Gold.Chemscore.Hbonds>
donor molecule, donor type, donor heavy atom, donor atom, acceptor molecule, acceptor atom, score
      L1  H     6    28       P1  8028  0.98
      L1  H     9    29       P1  8028  0.99

> <Gold.Chemscore.Hbond.Weighted>
-6.4832

> <Gold.Chemscore.Metal.Weighted>
-0.0000

> <Gold.Chemscore.Lipo.Weighted>
-10.7834

> <Gold.Chemscore.Internal_Hbond.Weighted>
0.0000

> <Gold.Chemscore.DEClash.Weighted>
0.0859

> <Gold.Chemscore.DEInternal.Weighted>
1.6638

> <Gold.Chemscore.Rot.Weighted>
3.1418

> <Gold.Chemscore.Internal.Correction.Weighted>
   9.000000E+99

> <Gold.Protein.RotatedTorsions>
[ 6907 6896 6895 6894 ] final -161.83 input  -60.11 | X-H torsion
[ 7974 7965 7964 7962 ] final  -67.03 input  175.53 | X-H torsion
[ 8008 7997 7996 7995 ] final  -63.36 input   59.86 | X-H torsion
[ 10167 10162 10161 10158 ] final -102.80 input  -65.29 | X-H torsion
[ 10718 10713 10712 10709 ] final  -11.29 input   66.30 | X-H torsion
[ 10763 10752 10751 10750 ] final  147.74 input  -60.55 | X-H torsion
[ 11005 11000 10999 10996 ] final -135.36 input  -57.11 | X-H torsion

> <Gold.Protein.ActiveResidues>
 VAL166  LYS551  ARG553  GLY616  TRP617  ASP618  TYR619  PRO620  LYS621  CYS622 
 ASP623  PHE694  ASN695  SER759  ASP760  ASP761  ALA762  ILE779  LEU786  VAL792 
 PHE793  MET794  SER795  GLU796  ALA797  LYS798  CYS799  TRP800  GLU811  SER814 

> <Gold.Protein.RotatedAtoms>
  151.3708  133.3856  159.2699 H   0  0  0  0  0  0  0  0  0  0  0  0  # atno 6907 bound_to 6896
  150.9653  134.9035  159.7766 H   0  0  0  0  0  0  0  0  0  0  0  0  # atno 6908 bound_to 6896
  152.5164  134.3668  159.9356 H   0  0  0  0  0  0  0  0  0  0  0  0  # atno 6909 bound_to 6896
  145.7343  140.8982  143.0563 H   0  0  0  0  0  0  0  0  0  0  0  0  # atno 7974 bound_to 7965
  154.4550  140.0976  156.6730 H   0  0  0  0  0  0  0  0  0  0  0  0  # atno 8008 bound_to 7997
  155.5166  140.3478  155.4380 H   0  0  0  0  0  0  0  0  0  0  0  0  # atno 8009 bound_to 7997
  156.0759  140.1361  156.9761 H   0  0  0  0  0  0  0  0  0  0  0  0  # atno 8010 bound_to 7997
  140.2268  143.3636  152.0922 H   0  0  0  0  0  0  0  0  0  0  0  0  # atno 10167 bound_to 10162
  156.6611  130.4982  149.6030 H   0  0  0  0  0  0  0  0  0  0  0  0  # atno 10718 bound_to 10713
  154.0433  135.2888  155.3351 H   0  0  0  0  0  0  0  0  0  0  0  0  # atno 10763 bound_to 10752
  154.6915  135.5224  153.8402 H   0  0  0  0  0  0  0  0  0  0  0  0  # atno 10764 bound_to 10752
  153.0591  135.6607  154.0635 H   0  0  0  0  0  0  0  0  0  0  0  0  # atno 10765 bound_to 10752
  140.8906  134.1817  157.4530 H   0  0  0  0  0  0  0  0  0  0  0  0  # atno 11005 bound_to 11000
  144.6885  139.9374  143.7474 LP  0  0  0  0  0  0  0  0  0  0  0  0  # atno 17320 bound_to 7965
  146.0508  139.3509  143.0641 LP  0  0  0  0  0  0  0  0  0  0  0  0  # atno 17321 bound_to 7965
  139.5124  144.6916  151.5743 LP  0  0  0  0  0  0  0  0  0  0  0  0  # atno 17342 bound_to 10162
  140.6215  143.9250  150.6530 LP  0  0  0  0  0  0  0  0  0  0  0  0  # atno 17343 bound_to 10162
  156.2010  130.6620  151.1167 LP  0  0  0  0  0  0  0  0  0  0  0  0  # atno 17370 bound_to 10713
  157.7109  131.0734  150.6503 LP  0  0  0  0  0  0  0  0  0  0  0  0  # atno 17371 bound_to 10713
  139.8729  134.9857  156.5291 LP  0  0  0  0  0  0  0  0  0  0  0  0  # atno 17394 bound_to 11000
  140.8352  133.8248  155.9022 LP  0  0  0  0  0  0  0  0  0  0  0  0  # atno 17395 bound_to 11000

$$$$
