AV-unprocessed.smi:850|AV-procd|sdf|3947|dock6
  -GOLD-   22720 1413D 1   1.00000     0.00000
 Structure written by MMmdl.
 40 42  0  0  0  0  0  0  0  0  1 V2000
  152.7687  139.0521  157.4029 C   0  0  0  0  0  0  0  0  0  0  0  0
  151.9890  140.2548  157.1364 N   0  0  0  0  0  0  0  0  0  0  0  0
  151.2190  140.5054  156.0519 C   0  0  0  0  0  0  0  0  0  0  0  0
  151.0457  139.7506  155.0951 O   0  0  0  0  0  0  0  0  0  0  0  0
  150.6741  141.7366  156.2000 N   0  0  0  0  0  0  0  0  0  0  0  0
  149.7722  142.4059  155.2644 C   0  0  0  0  0  0  0  0  0  0  0  0
  148.8196  141.4086  154.5747 C   0  0  2  0  0  0  0  0  0  0  0  0
  149.4883  140.8368  153.4685 O   0  0  0  0  0  0  0  0  0  0  0  0
  147.5546  142.0951  154.0380 C   0  0  0  0  0  0  0  0  0  0  0  0
  146.7510  142.4978  155.1396 O   0  0  0  0  0  0  0  0  0  0  0  0
  145.7581  143.4276  154.9199 C   0  0  0  0  0  0  0  0  0  0  0  0
  144.9915  143.8197  156.0369 C   0  0  0  0  0  0  0  0  0  0  0  0
  143.9580  144.7670  155.9054 C   0  0  0  0  0  0  0  0  0  0  0  0
  143.6794  145.3337  154.6483 C   0  0  0  0  0  0  0  0  0  0  0  0
  144.4353  144.9509  153.5248 C   0  0  0  0  0  0  0  0  0  0  0  0
  145.4688  144.0028  153.6562 C   0  0  0  0  0  0  0  0  0  0  0  0
  151.1140  142.2912  157.4106 C   0  0  0  0  0  0  0  0  0  0  0  0
  150.8482  143.5334  158.0134 C   0  0  0  0  0  0  0  0  0  0  0  0
  151.4617  143.7902  159.2621 C   0  0  0  0  0  0  0  0  0  0  0  0
  152.3079  142.8260  159.8693 C   0  0  0  0  0  0  0  0  0  0  0  0
  152.5605  141.5847  159.2394 C   0  0  0  0  0  0  0  0  0  0  0  0
  151.9392  141.3564  157.9997 C   0  0  0  0  0  0  0  0  0  0  0  0
  152.6900  138.3233  156.5951 H   0  0  0  0  0  0  0  0  0  0  0  0
  152.4236  138.5759  158.3210 H   0  0  0  0  0  0  0  0  0  0  0  0
  153.8218  139.3064  157.5249 H   0  0  0  0  0  0  0  0  0  0  0  0
  149.1920  143.1336  155.8343 H   0  0  0  0  0  0  0  0  0  0  0  0
  150.3283  142.9917  154.5316 H   0  0  0  0  0  0  0  0  0  0  0  0
  148.5264  140.6096  155.2572 H   0  0  0  0  0  0  0  0  0  0  0  0
  148.8900  140.2544  153.0258 H   0  0  0  0  0  0  0  0  0  0  0  0
  147.8282  142.9525  153.4204 H   0  0  0  0  0  0  0  0  0  0  0  0
  146.9888  141.3967  153.4186 H   0  0  0  0  0  0  0  0  0  0  0  0
  145.1996  143.3900  157.0058 H   0  0  0  0  0  0  0  0  0  0  0  0
  143.3794  145.0584  156.7696 H   0  0  0  0  0  0  0  0  0  0  0  0
  142.8870  146.0606  154.5460 H   0  0  0  0  0  0  0  0  0  0  0  0
  144.2223  145.3847  152.5590 H   0  0  0  0  0  0  0  0  0  0  0  0
  146.0255  143.7334  152.7715 H   0  0  0  0  0  0  0  0  0  0  0  0
  150.2053  144.2652  157.5474 H   0  0  0  0  0  0  0  0  0  0  0  0
  151.2836  144.7321  159.7597 H   0  0  0  0  0  0  0  0  0  0  0  0
  152.7652  143.0429  160.8235 H   0  0  0  0  0  0  0  0  0  0  0  0
  153.2041  140.8460  159.6936 H   0  0  0  0  0  0  0  0  0  0  0  0
  1  2  1  0  0  0  0
  1 23  1  0  0  0  0
  1 24  1  0  0  0  0
  1 25  1  0  0  0  0
  2 22  1  0  0  0  0
  2  3  1  0  0  0  0
  3  4  2  0  0  0  0
  3  5  1  0  0  0  0
  5  6  1  0  0  0  0
  5 17  1  0  0  0  0
  6  7  1  0  0  0  0
  6 26  1  0  0  0  0
  6 27  1  0  0  0  0
  7  8  1  0  0  0  0
  7  9  1  0  0  0  0
  7 28  1  0  0  0  0
  8 29  1  0  0  0  0
  9 10  1  0  0  0  0
  9 30  1  0  0  0  0
  9 31  1  0  0  0  0
 10 11  1  0  0  0  0
 11 16  1  0  0  0  0
 11 12  2  0  0  0  0
 12 13  1  0  0  0  0
 12 32  1  0  0  0  0
 13 14  2  0  0  0  0
 13 33  1  0  0  0  0
 14 15  1  0  0  0  0
 14 34  1  0  0  0  0
 15 16  2  0  0  0  0
 15 35  1  0  0  0  0
 16 36  1  0  0  0  0
 17 22  2  0  0  0  0
 17 18  1  0  0  0  0
 18 19  2  0  0  0  0
 18 37  1  0  0  0  0
 19 20  1  0  0  0  0
 19 38  1  0  0  0  0
 20 21  2  0  0  0  0
 20 39  1  0  0  0  0
 21 22  1  0  0  0  0
 21 40  1  0  0  0  0
M  END
> <s_m_source_file>
AV-unprocessed.smi

> <i_m_source_file_index>
850

> <i_lp_mmshare_version>
43012

> <i_f3d_flags>
0

> <s_epik_input>
W2NIXTFbY0hdW2NIXVtjSF1jKGMxMiluKFtDSDNdKWMoPU8pbjJbQ0gyXVtDQEhdKFtPSF0pW0NIMl1PYzNbY0hdW2NIXVtjSF1bY0hdW2NIXTM=

> <s_epik_cmdline>
J2VwaWtfcHl0aG9uJywgJy1waCcsICc3LjAnLCAnLXRuJywgJzgnLCAnLW1hJywgJzIwMCcsICctbWV0YWxfYmluZGluZycsICctaW1hZScsICc8aW5maWxlLm1hZT4nLCAnLW9tYWUnLCAnPG91dGZpbGUubWFlPic=

> <r_lp_tautomer_probability>
1

> <r_epik_Ionization_Penalty>
2.40205e-06

> <r_epik_Ionization_Penalty_Charging>
2.75209e-09

> <r_epik_Ionization_Penalty_Neutral>
2.3993e-06

> <r_epik_State_Penalty>
-0

> <r_epik_Charging_Adjusted_Penalty>
2.75209e-09

> <i_epik_Tot_Q>
0

> <i_epik_Tot_abs_Q>
0

> <r_epik_Metal_State_Penalty>
-0

> <b_epik_Metal_Only>
0

> <s_lp_Force_Field>
OPLS_2005

> <r_lp_Energy>
46.059

> <b_lp_Chiralities_Consistent>
1

> <s_lp_Variant>
AV-unprocessed.smi:850-1

> <Gold.Version>
5.8.1

> <Gold.Id.Protein>
6NUR|6NUR_protein|mol2

> <Gold.PLP.Fitness>
50.7836

> <Gold.PLP.PLP>
-46.0131

> <Gold.PLP.part.hbond>
-3.6213

> <Gold.PLP.part.metal>
0.0000

> <Gold.PLP.part.buried>
-2.3182

> <Gold.PLP.part.nonpolar>
-40.4212

> <Gold.PLP.part.repulsive>
0.6117

> <Gold.PLP.ligand.clash>
0.0000

> <Gold.PLP.ligand.torsion>
0.7017

> <Gold.PLP.Chemscore.Hbond>
2.0382

> <Gold.PLP.Chemscore.CHOScore>
0.0000

> <Gold.PLP.Chemscore.Metal>
0.0000

> <Gold.Chemscore.Hbonds>
donor molecule, donor type, donor heavy atom, donor atom, acceptor molecule, acceptor atom, score
      L1  H     8    29       P1  7957  0.13
      P1  H  7989  7998       L1     4  0.99
      P1  H  8011  8017       L1     8  1.00

> <Gold.PLP.Chemscore.Internal.Correction>
0.0591

> <Gold.Rescore>
     Score         DG    S(hbond)    S(metal)    S(lipo)     H(rot)  DE(clash)    DE(int)     intcor
     14.38     -18.70       1.55        0.00     115.16       2.12       2.07       2.25       ----

> <Gold.Chemscore.Fitness>
14.3819

> <Gold.Chemscore.DG>
-18.7000

> <Gold.Chemscore.ZeroCoef>
-5.4800

> <Gold.Chemscore.Hbond>
1.5477

> <Gold.Chemscore.Metal>
0.0000

> <Gold.Chemscore.Lipo>
115.1621

> <Gold.Chemscore.Internal_Hbond>
0.0000

> <Gold.Chemscore.DEClash>
2.0713

> <Gold.Chemscore.DEInternal>
2.2469

> <Gold.Chemscore.Rot>
2.1184

> <Gold.Chemscore.Internal.Correction>
   9.000000E+99

> <Gold.Chemscore.Hbonds>
donor molecule, donor type, donor heavy atom, donor atom, acceptor molecule, acceptor atom, score
      L1  H     8    29       P1  7957  0.13
      P1  H  7989  7998       L1     4  0.37
      P1  H  8011  8017       L1     8  0.24

> <Gold.Chemscore.Hbond.Weighted>
-5.1692

> <Gold.Chemscore.Metal.Weighted>
-0.0000

> <Gold.Chemscore.Lipo.Weighted>
-13.4740

> <Gold.Chemscore.Internal_Hbond.Weighted>
0.0000

> <Gold.Chemscore.DEClash.Weighted>
2.0713

> <Gold.Chemscore.DEInternal.Weighted>
2.2469

> <Gold.Chemscore.Rot.Weighted>
5.4231

> <Gold.Chemscore.Internal.Correction.Weighted>
   9.000000E+99

> <Gold.Protein.RotatedTorsions>
[ 6907 6896 6895 6894 ] final  152.19 input  -60.11 | X-H torsion
[ 7974 7965 7964 7962 ] final  -73.49 input  175.53 | X-H torsion
[ 8008 7997 7996 7995 ] final  -17.41 input   59.86 | X-H torsion
[ 10167 10162 10161 10158 ] final  173.44 input  -65.29 | X-H torsion
[ 10718 10713 10712 10709 ] final   76.92 input   66.30 | X-H torsion
[ 10763 10752 10751 10750 ] final   98.13 input  -60.55 | X-H torsion
[ 11005 11000 10999 10996 ] final   72.23 input  -57.11 | X-H torsion

> <Gold.Protein.ActiveResidues>
 VAL166  LYS551  ARG553  GLY616  TRP617  ASP618  TYR619  PRO620  LYS621  CYS622 
 ASP623  PHE694  ASN695  SER759  ASP760  ASP761  ALA762  ILE779  LEU786  VAL792 
 PHE793  MET794  SER795  GLU796  ALA797  LYS798  CYS799  TRP800  GLU811  SER814 

> <Gold.Protein.RotatedAtoms>
  152.0902  133.4196  159.4539 H   0  0  0  0  0  0  0  0  0  0  0  0  # atno 6907 bound_to 6896
  150.6862  134.2881  159.4664 H   0  0  0  0  0  0  0  0  0  0  0  0  # atno 6908 bound_to 6896
  152.0731  134.9520  160.0625 H   0  0  0  0  0  0  0  0  0  0  0  0  # atno 6909 bound_to 6896
  145.6514  140.9281  143.0983 H   0  0  0  0  0  0  0  0  0  0  0  0  # atno 7974 bound_to 7965
  154.4980  140.2143  155.9406 H   0  0  0  0  0  0  0  0  0  0  0  0  # atno 8008 bound_to 7997
  156.1396  140.3182  155.8442 H   0  0  0  0  0  0  0  0  0  0  0  0  # atno 8009 bound_to 7997
  155.4145  140.0492  157.3020 H   0  0  0  0  0  0  0  0  0  0  0  0  # atno 8010 bound_to 7997
  139.5108  144.3260  152.0157 H   0  0  0  0  0  0  0  0  0  0  0  0  # atno 10167 bound_to 10162
  157.6691  130.9797  150.1567 H   0  0  0  0  0  0  0  0  0  0  0  0  # atno 10718 bound_to 10713
  153.2853  135.4159  155.1116 H   0  0  0  0  0  0  0  0  0  0  0  0  # atno 10763 bound_to 10752
  154.8503  135.3505  154.6056 H   0  0  0  0  0  0  0  0  0  0  0  0  # atno 10764 bound_to 10752
  153.6478  135.7054  153.5277 H   0  0  0  0  0  0  0  0  0  0  0  0  # atno 10765 bound_to 10752
  139.9502  134.7241  156.0882 H   0  0  0  0  0  0  0  0  0  0  0  0  # atno 11005 bound_to 11000
  144.7121  139.8331  143.7411 LP  0  0  0  0  0  0  0  0  0  0  0  0  # atno 17320 bound_to 7965
  146.1200  139.4217  143.0234 LP  0  0  0  0  0  0  0  0  0  0  0  0  # atno 17321 bound_to 7965
  140.2701  144.3973  150.6154 LP  0  0  0  0  0  0  0  0  0  0  0  0  # atno 17342 bound_to 10162
  140.6095  143.2169  151.6915 LP  0  0  0  0  0  0  0  0  0  0  0  0  # atno 17343 bound_to 10162
  156.2353  130.3686  149.8398 LP  0  0  0  0  0  0  0  0  0  0  0  0  # atno 17370 bound_to 10713
  156.6214  130.8628  151.3476 LP  0  0  0  0  0  0  0  0  0  0  0  0  # atno 17371 bound_to 10713
  141.1162  133.6627  156.3101 LP  0  0  0  0  0  0  0  0  0  0  0  0  # atno 17394 bound_to 11000
  140.5738  134.5814  157.5464 LP  0  0  0  0  0  0  0  0  0  0  0  0  # atno 17395 bound_to 11000

$$$$
