AV-unprocessed.smi:1403|AV-procd|sdf|5702|dock9
  -GOLD-   22720 5333D 1   1.00000     0.00000
 Structure written by MMmdl.
 35 36  0  0  0  0  0  0  0  0  2 V2000
  153.3599  142.5526  161.9276 C   0  0  0  0  0  0  0  0  0  0  0  0
  153.2839  142.2987  160.4129 C   0  0  1  0  0  0  0  0  0  0  0  0
  153.0175  140.8852  160.1585 N   0  0  0  0  0  0  0  0  0  0  0  0
  153.8775  140.0173  159.6043 C   0  0  0  0  0  0  0  0  0  0  0  0
  155.0054  140.3321  159.2230 O   0  0  0  0  0  0  0  0  0  0  0  0
  153.3687  138.5802  159.4322 C   0  0  0  0  0  0  0  0  0  0  0  0
  153.0444  138.2565  158.0339 N   0  0  0  0  0  0  0  0  0  0  0  0
  152.5873  139.2990  157.2084 C   0  0  0  0  0  0  0  0  0  0  0  0
  152.2697  139.0941  155.9157 C   0  0  0  0  0  0  0  0  0  0  0  0
  152.4095  137.7476  155.3754 C   0  0  0  0  0  0  0  0  0  0  0  0
  152.1176  137.5408  154.1991 O   0  0  0  0  0  0  0  0  0  0  0  0
  152.8632  136.7711  156.2147 N   0  5  0  0  0  0  0  0  0  0  0  0
  153.1847  136.9943  157.5269 C   0  0  0  0  0  0  0  0  0  0  0  0
  153.5936  136.0987  158.2669 O   0  0  0  0  0  0  0  0  0  0  0  0
  152.1981  143.1619  159.7425 C   0  0  2  0  0  0  0  0  0  0  0  0
  152.1964  143.1173  158.2118 C   0  0  0  0  0  0  0  0  0  0  0  0
  151.6144  144.4637  157.8059 C   0  0  0  0  0  0  0  0  0  0  0  0
  151.5916  145.2705  159.1061 C   0  0  0  0  0  0  0  0  0  0  0  0
  152.4169  144.5400  160.0009 O   0  0  0  0  0  0  0  0  0  0  0  0
  153.5757  143.5998  162.1411 H   0  0  0  0  0  0  0  0  0  0  0  0
  154.1480  141.9573  162.3899 H   0  0  0  0  0  0  0  0  0  0  0  0
  152.4205  142.2995  162.4202 H   0  0  0  0  0  0  0  0  0  0  0  0
  154.2455  142.5626  159.9684 H   0  0  0  0  0  0  0  0  0  0  0  0
  152.1128  140.5358  160.4393 H   0  0  0  0  0  0  0  0  0  0  0  0
  154.1053  137.8732  159.8187 H   0  0  0  0  0  0  0  0  0  0  0  0
  152.4908  138.4540  160.0670 H   0  0  0  0  0  0  0  0  0  0  0  0
  152.5182  140.2661  157.6841 H   0  0  0  0  0  0  0  0  0  0  0  0
  151.9228  139.9062  155.2938 H   0  0  0  0  0  0  0  0  0  0  0  0
  151.2102  142.8876  160.1181 H   0  0  0  0  0  0  0  0  0  0  0  0
  153.2165  143.0341  157.8340 H   0  0  0  0  0  0  0  0  0  0  0  0
  151.6256  142.2749  157.8199 H   0  0  0  0  0  0  0  0  0  0  0  0
  152.2435  144.9403  157.0533 H   0  0  0  0  0  0  0  0  0  0  0  0
  150.6105  144.3652  157.3912 H   0  0  0  0  0  0  0  0  0  0  0  0
  151.9541  146.2902  158.9747 H   0  0  0  0  0  0  0  0  0  0  0  0
  150.5795  145.3180  159.5109 H   0  0  0  0  0  0  0  0  0  0  0  0
  1  2  1  0  0  0  0
  1 20  1  0  0  0  0
  1 21  1  0  0  0  0
  1 22  1  0  0  0  0
  2  3  1  0  0  0  0
  2 15  1  0  0  0  0
  2 23  1  0  0  0  0
  3  4  1  0  0  0  0
  3 24  1  0  0  0  0
  4  5  2  0  0  0  0
  4  6  1  0  0  0  0
  6  7  1  0  0  0  0
  6 25  1  0  0  0  0
  6 26  1  0  0  0  0
  7 13  1  0  0  0  0
  7  8  1  0  0  0  0
  8  9  2  0  0  0  0
  8 27  1  0  0  0  0
  9 10  1  0  0  0  0
  9 28  1  0  0  0  0
 10 11  2  0  0  0  0
 10 12  1  0  0  0  0
 12 13  1  0  0  0  0
 13 14  2  0  0  0  0
 15 19  1  0  0  0  0
 15 16  1  0  0  0  0
 15 29  1  0  0  0  0
 16 17  1  0  0  0  0
 16 30  1  0  0  0  0
 16 31  1  0  0  0  0
 17 18  1  0  0  0  0
 17 32  1  0  0  0  0
 17 33  1  0  0  0  0
 18 19  1  0  0  0  0
 18 34  1  0  0  0  0
 18 35  1  0  0  0  0
M  CHG  1  12  -1
M  END
> <s_m_source_file>
AV-unprocessed.smi

> <i_m_source_file_index>
1403

> <i_lp_mmshare_version>
43012

> <i_f3d_flags>
0

> <s_epik_input>
TzFbQ0gyXVtDSDJdW0NIMl1bQ0BIXTFbQ0BIXShbQ0gzXSlbTkhdQyg9TylbQ0gyXW4yW2NIXVtjSF1jKD1PKVtuSF1jMj1P

> <s_epik_cmdline>
J2VwaWtfcHl0aG9uJywgJy1waCcsICc3LjAnLCAnLXRuJywgJzgnLCAnLW1hJywgJzIwMCcsICctbWV0YWxfYmluZGluZycsICctaW1hZScsICc8aW5maWxlLm1hZT4nLCAnLW9tYWUnLCAnPG91dGZpbGUubWFlPic=

> <r_lp_tautomer_probability>
0.999537

> <r_epik_Ionization_Penalty>
3.07438

> <r_epik_Ionization_Penalty_Charging>
2.82466e-08

> <r_epik_Ionization_Penalty_Neutral>
3.07438

> <r_epik_State_Penalty>
3.07341

> <r_epik_Charging_Adjusted_Penalty>
3.07341

> <i_epik_Tot_Q>
-1

> <i_epik_Tot_abs_Q>
1

> <r_epik_Metal_State_Penalty>
0.45947

> <b_epik_Metal_Only>
1

> <s_lp_Force_Field>
OPLS_2005

> <r_lp_Energy>
26.8934

> <b_lp_Chiralities_Consistent>
1

> <s_lp_Variant>
AV-unprocessed.smi:1403-6

> <Gold.Version>
5.8.1

> <Gold.Id.Protein>
6NUR|6NUR_protein|mol2

> <Gold.PLP.Fitness>
45.9370

> <Gold.PLP.PLP>
-36.1010

> <Gold.PLP.part.hbond>
-4.0000

> <Gold.PLP.part.metal>
0.0000

> <Gold.PLP.part.buried>
-3.6041

> <Gold.PLP.part.nonpolar>
-28.0607

> <Gold.PLP.part.repulsive>
0.3063

> <Gold.PLP.ligand.clash>
0.0000

> <Gold.PLP.ligand.torsion>
0.6124

> <Gold.PLP.Chemscore.Hbond>
3.6763

> <Gold.PLP.Chemscore.CHOScore>
0.0000

> <Gold.PLP.Chemscore.Metal>
0.0000

> <Gold.Chemscore.Hbonds>
donor molecule, donor type, donor heavy atom, donor atom, acceptor molecule, acceptor atom, score
      P1  H  7997  8009       L1     5  0.85
      P1  H 10752 10763       L1    11  0.28
      P1  H 10752 10764       L1    12  1.50

> <Gold.PLP.Chemscore.Internal.Correction>
0.0319

> <Gold.Rescore>
     Score         DG    S(hbond)    S(metal)    S(lipo)     H(rot)  DE(clash)    DE(int)     intcor
     16.70     -17.40       2.03        0.00      87.54       1.99       0.07       0.63       ----

> <Gold.Chemscore.Fitness>
16.7015

> <Gold.Chemscore.DG>
-17.3955

> <Gold.Chemscore.ZeroCoef>
-5.4800

> <Gold.Chemscore.Hbond>
2.0294

> <Gold.Chemscore.Metal>
0.0000

> <Gold.Chemscore.Lipo>
87.5377

> <Gold.Chemscore.Internal_Hbond>
0.0000

> <Gold.Chemscore.DEClash>
0.0682

> <Gold.Chemscore.DEInternal>
0.6258

> <Gold.Chemscore.Rot>
1.9940

> <Gold.Chemscore.Internal.Correction>
   9.000000E+99

> <Gold.Chemscore.Hbonds>
donor molecule, donor type, donor heavy atom, donor atom, acceptor molecule, acceptor atom, score
      P1  H  6896  6909       L1    14  0.01
      P1  H  7997  8009       L1     5  0.66
      P1  H 10752 10763       L1    11  0.11
      P1  H 10752 10764       L1    12  0.59

> <Gold.Chemscore.Hbond.Weighted>
-6.7783

> <Gold.Chemscore.Metal.Weighted>
-0.0000

> <Gold.Chemscore.Lipo.Weighted>
-10.2419

> <Gold.Chemscore.Internal_Hbond.Weighted>
0.0000

> <Gold.Chemscore.DEClash.Weighted>
0.0682

> <Gold.Chemscore.DEInternal.Weighted>
0.6258

> <Gold.Chemscore.Rot.Weighted>
5.1047

> <Gold.Chemscore.Internal.Correction.Weighted>
   9.000000E+99

> <Gold.Protein.RotatedTorsions>
[ 6907 6896 6895 6894 ] final  169.08 input  -60.11 | X-H torsion
[ 7974 7965 7964 7962 ] final  126.07 input  175.53 | X-H torsion
[ 8008 7997 7996 7995 ] final  115.86 input   59.86 | X-H torsion
[ 10167 10162 10161 10158 ] final -107.65 input  -65.29 | X-H torsion
[ 10718 10713 10712 10709 ] final -177.84 input   66.30 | X-H torsion
[ 10763 10752 10751 10750 ] final   -1.25 input  -60.55 | X-H torsion
[ 11005 11000 10999 10996 ] final  -63.89 input  -57.11 | X-H torsion

> <Gold.Protein.ActiveResidues>
 VAL166  LYS551  ARG553  GLY616  TRP617  ASP618  TYR619  PRO620  LYS621  CYS622 
 ASP623  PHE694  ASN695  SER759  ASP760  ASP761  ALA762  ILE779  LEU786  VAL792 
 PHE793  MET794  SER795  GLU796  ALA797  LYS798  CYS799  TRP800  GLU811  SER814 

> <Gold.Protein.RotatedAtoms>
  151.8375  133.3418  159.3632 H   0  0  0  0  0  0  0  0  0  0  0  0  # atno 6907 bound_to 6896
  150.7245  134.5423  159.5762 H   0  0  0  0  0  0  0  0  0  0  0  0  # atno 6908 bound_to 6896
  152.2889  134.7744  160.0433 H   0  0  0  0  0  0  0  0  0  0  0  0  # atno 6909 bound_to 6896
  145.0658  139.3769  143.4982 H   0  0  0  0  0  0  0  0  0  0  0  0  # atno 7974 bound_to 7965
  156.2406  140.2929  156.0434 H   0  0  0  0  0  0  0  0  0  0  0  0  # atno 8008 bound_to 7997
  155.1962  140.0408  157.2926 H   0  0  0  0  0  0  0  0  0  0  0  0  # atno 8009 bound_to 7997
  154.6161  140.2464  155.7615 H   0  0  0  0  0  0  0  0  0  0  0  0  # atno 8010 bound_to 7997
  140.1746  143.4015  152.1328 H   0  0  0  0  0  0  0  0  0  0  0  0  # atno 10167 bound_to 10162
  156.8355  130.9668  151.3103 H   0  0  0  0  0  0  0  0  0  0  0  0  # atno 10718 bound_to 10713
  153.3424  135.6981  153.6856 H   0  0  0  0  0  0  0  0  0  0  0  0  # atno 10763 bound_to 10752
  153.5615  135.3534  155.2802 H   0  0  0  0  0  0  0  0  0  0  0  0  # atno 10764 bound_to 10752
  154.8639  135.4250  154.2640 H   0  0  0  0  0  0  0  0  0  0  0  0  # atno 10765 bound_to 10752
  141.1407  133.6658  156.5750 H   0  0  0  0  0  0  0  0  0  0  0  0  # atno 11005 bound_to 11000
  146.3526  140.0379  142.8645 LP  0  0  0  0  0  0  0  0  0  0  0  0  # atno 17320 bound_to 7965
  145.1352  140.9541  143.4521 LP  0  0  0  0  0  0  0  0  0  0  0  0  # atno 17321 bound_to 7965
  139.5322  144.7172  151.5015 LP  0  0  0  0  0  0  0  0  0  0  0  0  # atno 17342 bound_to 10162
  140.6559  143.8599  150.6835 LP  0  0  0  0  0  0  0  0  0  0  0  0  # atno 17343 bound_to 10162
  157.6384  130.8785  149.9401 LP  0  0  0  0  0  0  0  0  0  0  0  0  # atno 17370 bound_to 10713
  156.0910  130.3663  150.0395 LP  0  0  0  0  0  0  0  0  0  0  0  0  # atno 17371 bound_to 10713
  140.3883  134.7463  157.4705 LP  0  0  0  0  0  0  0  0  0  0  0  0  # atno 17394 bound_to 11000
  140.0585  134.6029  155.8776 LP  0  0  0  0  0  0  0  0  0  0  0  0  # atno 17395 bound_to 11000

$$$$
