AV-unprocessed.smi:922|AV-procd|sdf|4176|dock1
  -GOLD-   22720 2 83D 1   1.00000     0.00000
 Structure written by MMmdl.
 33 34  0  0  0  0  0  0  0  0  1 V2000
  153.8816  141.4397  160.6341 C   0  0  0  0  0  0  0  0  0  0  0  0
  153.0249  142.1438  159.5772 C   0  0  1  0  0  0  0  0  0  0  0  0
  151.7486  141.3464  159.2500 C   0  0  0  0  0  0  0  0  0  0  0  0
  150.9020  142.0962  158.3312 N   0  0  0  0  0  0  0  0  0  0  0  0
  150.4024  141.6137  157.1205 C   0  0  0  0  0  0  0  0  0  0  0  0
  151.3039  140.9673  156.1722 C   0  0  0  0  0  0  0  0  0  0  0  0
  150.9176  140.4990  155.0356 N   0  0  0  0  0  0  0  0  0  0  0  0
  149.5931  140.6160  154.7003 N   0  0  0  0  0  0  0  0  0  0  0  0
  148.6180  141.1775  155.4516 C   0  0  0  0  0  0  0  0  0  0  0  0
  147.4550  141.2265  155.0551 O   0  0  0  0  0  0  0  0  0  0  0  0
  149.0900  141.6984  156.7434 C   0  0  0  0  0  0  0  0  0  0  0  0
  147.8788  142.3731  157.7817 Cl  0  0  0  0  0  0  0  0  0  0  0  0
  150.5485  143.3945  158.8948 C   0  0  0  0  0  0  0  0  0  0  0  0
  151.8133  144.2138  159.2401 C   0  0  0  0  0  0  0  0  0  0  0  0
  152.5640  144.6811  157.9746 C   0  0  0  0  0  0  0  0  0  0  0  0
  151.4236  145.4412  160.0781 C   0  0  0  0  0  0  0  0  0  0  0  0
  152.6635  143.4290  160.0848 O   0  0  0  0  0  0  0  0  0  0  0  0
  149.3594  140.2318  153.7959 H   0  0  0  0  0  0  0  0  0  0  0  0
  154.1975  140.4546  160.2897 H   0  0  0  0  0  0  0  0  0  0  0  0
  153.3306  141.3086  161.5659 H   0  0  0  0  0  0  0  0  0  0  0  0
  154.7790  142.0176  160.8558 H   0  0  0  0  0  0  0  0  0  0  0  0
  153.6328  142.2647  158.6815 H   0  0  0  0  0  0  0  0  0  0  0  0
  151.9965  140.3682  158.8384 H   0  0  0  0  0  0  0  0  0  0  0  0
  151.1834  141.1570  160.1634 H   0  0  0  0  0  0  0  0  0  0  0  0
  152.3473  140.9047  156.4817 H   0  0  0  0  0  0  0  0  0  0  0  0
  149.9243  143.9597  158.2019 H   0  0  0  0  0  0  0  0  0  0  0  0
  149.9487  143.2278  159.7905 H   0  0  0  0  0  0  0  0  0  0  0  0
  151.9513  145.3684  157.3907 H   0  0  0  0  0  0  0  0  0  0  0  0
  152.8262  143.8550  157.3145 H   0  0  0  0  0  0  0  0  0  0  0  0
  153.4862  145.2011  158.2349 H   0  0  0  0  0  0  0  0  0  0  0  0
  150.7550  146.1031  159.5264 H   0  0  0  0  0  0  0  0  0  0  0  0
  152.3028  146.0202  160.3629 H   0  0  0  0  0  0  0  0  0  0  0  0
  150.9143  145.1469  160.9964 H   0  0  0  0  0  0  0  0  0  0  0  0
  1  2  1  0  0  0  0
  1 19  1  0  0  0  0
  1 20  1  0  0  0  0
  1 21  1  0  0  0  0
  2 17  1  0  0  0  0
  2  3  1  0  0  0  0
  2 22  1  0  0  0  0
  3  4  1  0  0  0  0
  3 23  1  0  0  0  0
  3 24  1  0  0  0  0
  4  5  1  0  0  0  0
  4 13  1  0  0  0  0
  5 11  2  0  0  0  0
  5  6  1  0  0  0  0
  6  7  2  0  0  0  0
  6 25  1  0  0  0  0
  7  8  1  0  0  0  0
  8 18  1  0  0  0  0
  8  9  1  0  0  0  0
  9 10  2  0  0  0  0
  9 11  1  0  0  0  0
 11 12  1  0  0  0  0
 13 14  1  0  0  0  0
 13 26  1  0  0  0  0
 13 27  1  0  0  0  0
 14 15  1  0  0  0  0
 14 16  1  0  0  0  0
 14 17  1  0  0  0  0
 15 28  1  0  0  0  0
 15 29  1  0  0  0  0
 15 30  1  0  0  0  0
 16 31  1  0  0  0  0
 16 32  1  0  0  0  0
 16 33  1  0  0  0  0
M  END
> <s_m_source_file>
AV-unprocessed.smi

> <i_m_source_file_index>
922

> <i_lp_mmshare_version>
43012

> <i_f3d_flags>
0

> <s_epik_input>
W0NIM11bQ0BASF0oTzEpW0NIMl1OKFtDSDJdQzEoW0NIM10pW0NIM10pYzJbY0hdbltuSF1jKD1PKWMyQ2w=

> <s_epik_cmdline>
J2VwaWtfcHl0aG9uJywgJy1waCcsICc3LjAnLCAnLXRuJywgJzgnLCAnLW1hJywgJzIwMCcsICctbWV0YWxfYmluZGluZycsICctaW1hZScsICc8aW5maWxlLm1hZT4nLCAnLW9tYWUnLCAnPG91dGZpbGUubWFlPic=

> <r_lp_tautomer_probability>
0.986175

> <r_epik_Ionization_Penalty>
0.00909695

> <r_epik_Ionization_Penalty_Charging>
0.00909694

> <r_epik_Ionization_Penalty_Neutral>
4.87729e-09

> <r_epik_State_Penalty>
1.54226

> <r_epik_Charging_Adjusted_Penalty>
1.55136

> <i_epik_Tot_Q>
0

> <i_epik_Tot_abs_Q>
0

> <r_epik_Metal_State_Penalty>
3.93934

> <b_epik_Metal_Only>
0

> <s_lp_Force_Field>
OPLS_2005

> <r_lp_Energy>
35.5656

> <b_lp_Chiralities_Consistent>
1

> <s_lp_Variant>
AV-unprocessed.smi:922-4

> <Gold.Version>
5.8.1

> <Gold.Id.Protein>
6NUR|6NUR_protein|mol2

> <Gold.PLP.Fitness>
41.0210

> <Gold.PLP.PLP>
-38.6694

> <Gold.PLP.part.hbond>
-1.0000

> <Gold.PLP.part.metal>
0.0000

> <Gold.PLP.part.buried>
-6.1716

> <Gold.PLP.part.nonpolar>
-31.7070

> <Gold.PLP.part.repulsive>
0.3192

> <Gold.PLP.ligand.clash>
0.0000

> <Gold.PLP.ligand.torsion>
0.7962

> <Gold.PLP.Chemscore.Hbond>
1.0000

> <Gold.PLP.Chemscore.CHOScore>
0.0000

> <Gold.PLP.Chemscore.Metal>
0.0000

> <Gold.Chemscore.Hbonds>
donor molecule, donor type, donor heavy atom, donor atom, acceptor molecule, acceptor atom, score
      P1  H  7989  7998       L1     7  1.00

> <Gold.PLP.Chemscore.Internal.Correction>
0.9441

> <Gold.Rescore>
     Score         DG    S(hbond)    S(metal)    S(lipo)     H(rot)  DE(clash)    DE(int)     intcor
     18.12     -19.07       0.79        0.00      93.54       0.00       0.01       0.94       ----

> <Gold.Chemscore.Fitness>
18.1223

> <Gold.Chemscore.DG>
-19.0725

> <Gold.Chemscore.ZeroCoef>
-5.4800

> <Gold.Chemscore.Hbond>
0.7931

> <Gold.Chemscore.Metal>
0.0000

> <Gold.Chemscore.Lipo>
93.5352

> <Gold.Chemscore.Internal_Hbond>
0.0000

> <Gold.Chemscore.DEClash>
0.0126

> <Gold.Chemscore.DEInternal>
0.9376

> <Gold.Chemscore.Rot>
0.0000

> <Gold.Chemscore.Internal.Correction>
   9.000000E+99

> <Gold.Chemscore.Hbonds>
donor molecule, donor type, donor heavy atom, donor atom, acceptor molecule, acceptor atom, score
      P1  H  7989  7998       L1     7  0.24

> <Gold.Chemscore.Hbond.Weighted>
-2.6489

> <Gold.Chemscore.Metal.Weighted>
-0.0000

> <Gold.Chemscore.Lipo.Weighted>
-10.9436

> <Gold.Chemscore.Internal_Hbond.Weighted>
0.0000

> <Gold.Chemscore.DEClash.Weighted>
0.0126

> <Gold.Chemscore.DEInternal.Weighted>
0.9376

> <Gold.Chemscore.Rot.Weighted>
0.0000

> <Gold.Chemscore.Internal.Correction.Weighted>
   9.000000E+99

> <Gold.Protein.RotatedTorsions>
[ 6907 6896 6895 6894 ] final  -14.11 input  -60.11 | X-H torsion
[ 7974 7965 7964 7962 ] final -151.60 input  175.53 | X-H torsion
[ 8008 7997 7996 7995 ] final    6.62 input   59.86 | X-H torsion
[ 10167 10162 10161 10158 ] final  -55.65 input  -65.29 | X-H torsion
[ 10718 10713 10712 10709 ] final   44.64 input   66.30 | X-H torsion
[ 10763 10752 10751 10750 ] final    3.52 input  -60.55 | X-H torsion
[ 11005 11000 10999 10996 ] final   29.25 input  -57.11 | X-H torsion

> <Gold.Protein.ActiveResidues>
 VAL166  LYS551  ARG553  GLY616  TRP617  ASP618  TYR619  PRO620  LYS621  CYS622 
 ASP623  PHE694  ASN695  SER759  ASP760  ASP761  ALA762  ILE779  LEU786  VAL792 
 PHE793  MET794  SER795  GLU796  ALA797  LYS798  CYS799  TRP800  GLU811  SER814 

> <Gold.Protein.RotatedAtoms>
  151.3444  135.0871  159.9381 H   0  0  0  0  0  0  0  0  0  0  0  0  # atno 6907 bound_to 6896
  152.5203  133.9415  159.7639 H   0  0  0  0  0  0  0  0  0  0  0  0  # atno 6908 bound_to 6896
  150.9778  133.6223  159.2757 H   0  0  0  0  0  0  0  0  0  0  0  0  # atno 6909 bound_to 6896
  144.7840  140.4775  143.5819 H   0  0  0  0  0  0  0  0  0  0  0  0  # atno 7974 bound_to 7965
  154.7433  140.2753  155.6354 H   0  0  0  0  0  0  0  0  0  0  0  0  # atno 8008 bound_to 7997
  156.2879  140.2693  156.2092 H   0  0  0  0  0  0  0  0  0  0  0  0  # atno 8009 bound_to 7997
  155.0230  140.0371  157.2434 H   0  0  0  0  0  0  0  0  0  0  0  0  # atno 8010 bound_to 7997
  140.6362  143.2484  151.5110 H   0  0  0  0  0  0  0  0  0  0  0  0  # atno 10167 bound_to 10162
  157.4290  130.8013  149.7585 H   0  0  0  0  0  0  0  0  0  0  0  0  # atno 10718 bound_to 10713
  153.2824  135.6941  153.7373 H   0  0  0  0  0  0  0  0  0  0  0  0  # atno 10763 bound_to 10752
  153.6355  135.3402  155.3056 H   0  0  0  0  0  0  0  0  0  0  0  0  # atno 10764 bound_to 10752
  154.8499  135.4419  154.1881 H   0  0  0  0  0  0  0  0  0  0  0  0  # atno 10765 bound_to 10752
  140.3069  134.2693  155.7742 H   0  0  0  0  0  0  0  0  0  0  0  0  # atno 11005 bound_to 11000
  145.5971  139.1500  143.3150 LP  0  0  0  0  0  0  0  0  0  0  0  0  # atno 17320 bound_to 7965
  146.2063  140.6094  142.9079 LP  0  0  0  0  0  0  0  0  0  0  0  0  # atno 17321 bound_to 7965
  139.5573  144.2244  152.1633 LP  0  0  0  0  0  0  0  0  0  0  0  0  # atno 17342 bound_to 10162
  140.1501  144.5122  150.6692 LP  0  0  0  0  0  0  0  0  0  0  0  0  # atno 17343 bound_to 10162
  155.9906  130.3943  150.3020 LP  0  0  0  0  0  0  0  0  0  0  0  0  # atno 17370 bound_to 10713
  157.1175  131.0238  151.3023 LP  0  0  0  0  0  0  0  0  0  0  0  0  # atno 17371 bound_to 10713
  141.2116  133.7682  156.9850 LP  0  0  0  0  0  0  0  0  0  0  0  0  # atno 17394 bound_to 11000
  140.1059  134.9507  157.1993 LP  0  0  0  0  0  0  0  0  0  0  0  0  # atno 17395 bound_to 11000

$$$$
