AV-unprocessed.smi:1031|AV-procd|sdf|4481|dock2
  -GOLD-   22720 2453D 1   1.00000     0.00000
 Structure written by MMmdl.
 35 36  0  0  0  0  0  0  0  0  1 V2000
  149.1206  142.3305  157.8748 C   0  0  0  0  0  0  0  0  0  0  0  0
  150.4462  141.6224  157.5637 C   0  0  1  0  0  0  0  0  0  0  0  0
  150.8216  141.7629  156.0729 C   0  0  0  0  0  0  0  0  0  0  0  0
  149.8135  141.2132  155.1838 N   0  0  0  0  0  0  0  0  0  0  0  0
  148.5269  141.6600  154.9660 C   0  0  0  0  0  0  0  0  0  0  0  0
  147.9634  140.8368  154.0340 C   0  0  0  0  0  0  0  0  0  0  0  0
  148.9955  139.9019  153.7413 C   0  0  0  0  0  0  0  0  0  0  0  0
  150.1002  140.1270  154.4341 N   0  0  0  0  0  0  0  0  0  0  0  0
  151.4923  142.1818  158.4191 N   0  0  0  0  0  0  0  0  0  0  0  0
  152.3288  141.4784  159.1994 C   0  0  0  0  0  0  0  0  0  0  0  0
  152.2973  140.2507  159.2914 O   0  0  0  0  0  0  0  0  0  0  0  0
  153.3686  142.2901  159.9883 C   0  0  0  0  0  0  0  0  0  0  0  0
  153.9829  141.4687  161.1464 C   0  0  0  0  0  0  0  0  0  0  0  0
  153.6516  142.2123  162.4469 C   0  0  0  0  0  0  0  0  0  0  0  0
  152.4731  143.1190  162.1048 C   0  0  0  0  0  0  0  0  0  0  0  0
  152.7365  143.5264  160.6563 C   0  0  0  0  0  0  0  0  0  0  0  0
  148.3063  141.9178  157.2787 H   0  0  0  0  0  0  0  0  0  0  0  0
  149.1802  143.3985  157.6623 H   0  0  0  0  0  0  0  0  0  0  0  0
  148.8500  142.2138  158.9248 H   0  0  0  0  0  0  0  0  0  0  0  0
  150.3053  140.5645  157.7924 H   0  0  0  0  0  0  0  0  0  0  0  0
  150.9566  142.8152  155.8182 H   0  0  0  0  0  0  0  0  0  0  0  0
  151.7736  141.2708  155.8687 H   0  0  0  0  0  0  0  0  0  0  0  0
  148.1274  142.5216  155.4806 H   0  0  0  0  0  0  0  0  0  0  0  0
  146.9669  140.8946  153.6224 H   0  0  0  0  0  0  0  0  0  0  0  0
  148.9747  139.0714  153.0510 H   0  0  0  0  0  0  0  0  0  0  0  0
  151.5939  143.1864  158.4096 H   0  0  0  0  0  0  0  0  0  0  0  0
  154.1556  142.6154  159.3053 H   0  0  0  0  0  0  0  0  0  0  0  0
  153.5756  140.4568  161.1884 H   0  0  0  0  0  0  0  0  0  0  0  0
  155.0618  141.3630  161.0276 H   0  0  0  0  0  0  0  0  0  0  0  0
  153.4292  141.5345  163.2718 H   0  0  0  0  0  0  0  0  0  0  0  0
  154.5047  142.8238  162.7434 H   0  0  0  0  0  0  0  0  0  0  0  0
  151.5411  142.5559  162.1696 H   0  0  0  0  0  0  0  0  0  0  0  0
  152.3934  143.9756  162.7746 H   0  0  0  0  0  0  0  0  0  0  0  0
  153.4466  144.3540  160.6328 H   0  0  0  0  0  0  0  0  0  0  0  0
  151.8278  143.8732  160.1613 H   0  0  0  0  0  0  0  0  0  0  0  0
  1  2  1  0  0  0  0
  1 17  1  0  0  0  0
  1 18  1  0  0  0  0
  1 19  1  0  0  0  0
  2  3  1  0  0  0  0
  2  9  1  0  0  0  0
  2 20  1  0  0  0  0
  3  4  1  0  0  0  0
  3 21  1  0  0  0  0
  3 22  1  0  0  0  0
  4  8  1  0  0  0  0
  4  5  1  0  0  0  0
  5  6  2  0  0  0  0
  5 23  1  0  0  0  0
  6  7  1  0  0  0  0
  6 24  1  0  0  0  0
  7  8  2  0  0  0  0
  7 25  1  0  0  0  0
  9 10  1  0  0  0  0
  9 26  1  0  0  0  0
 10 11  2  0  0  0  0
 10 12  1  0  0  0  0
 12 16  1  0  0  0  0
 12 13  1  0  0  0  0
 12 27  1  0  0  0  0
 13 14  1  0  0  0  0
 13 28  1  0  0  0  0
 13 29  1  0  0  0  0
 14 15  1  0  0  0  0
 14 30  1  0  0  0  0
 14 31  1  0  0  0  0
 15 16  1  0  0  0  0
 15 32  1  0  0  0  0
 15 33  1  0  0  0  0
 16 34  1  0  0  0  0
 16 35  1  0  0  0  0
M  END
> <s_m_source_file>
AV-unprocessed.smi

> <i_m_source_file_index>
1031

> <i_lp_mmshare_version>
43012

> <i_f3d_flags>
0

> <s_epik_input>
bjFbY0hdW2NIXVtjSF1uMVtDSDJdW0NAQEhdKFtDSDNdKVtOSF1DKD1PKVtDSF0yW0NIMl1bQ0gyXVtDSDJdW0NIMl0y

> <s_epik_cmdline>
J2VwaWtfcHl0aG9uJywgJy1waCcsICc3LjAnLCAnLXRuJywgJzgnLCAnLW1hJywgJzIwMCcsICctbWV0YWxfYmluZGluZycsICctaW1hZScsICc8aW5maWxlLm1hZT4nLCAnLW9tYWUnLCAnPG91dGZpbGUubWFlPic=

> <r_lp_tautomer_probability>
1

> <r_epik_Ionization_Penalty>
0.000326659

> <r_epik_Ionization_Penalty_Charging>
0

> <r_epik_Ionization_Penalty_Neutral>
0.000326659

> <r_epik_State_Penalty>
-0

> <r_epik_Charging_Adjusted_Penalty>
0

> <i_epik_Tot_Q>
0

> <i_epik_Tot_abs_Q>
0

> <r_epik_Metal_State_Penalty>
-0

> <b_epik_Metal_Only>
0

> <s_lp_Force_Field>
OPLS_2005

> <r_lp_Energy>
19.4397

> <b_lp_Chiralities_Consistent>
1

> <s_lp_Variant>
AV-unprocessed.smi:1031-2

> <Gold.Version>
5.8.1

> <Gold.Id.Protein>
6NUR|6NUR_protein|mol2

> <Gold.PLP.Fitness>
43.0098

> <Gold.PLP.PLP>
-36.5724

> <Gold.PLP.part.hbond>
-1.0000

> <Gold.PLP.part.metal>
0.0000

> <Gold.PLP.part.buried>
0.1855

> <Gold.PLP.part.nonpolar>
-34.6098

> <Gold.PLP.part.repulsive>
0.1730

> <Gold.PLP.ligand.clash>
0.0000

> <Gold.PLP.ligand.torsion>
0.5493

> <Gold.PLP.Chemscore.Hbond>
1.0000

> <Gold.PLP.Chemscore.CHOScore>
1.5008

> <Gold.PLP.Chemscore.Metal>
0.0000

> <Gold.Chemscore.Hbonds>
donor molecule, donor type, donor heavy atom, donor atom, acceptor molecule, acceptor atom, score
      P1  H  7989  7998       L1     8  0.85
      L1  C     5    23       P1  8028  1.00
      L1  C     7    25       P1  7957  0.45

> <Gold.PLP.Chemscore.Internal.Correction>
0.0337

> <Gold.Rescore>
     Score         DG    S(hbond)    S(metal)    S(lipo)     H(rot)  DE(clash)    DE(int)     intcor
     13.80     -15.57       0.83        0.00      95.60       1.51       1.56       0.21       ----

> <Gold.Chemscore.Fitness>
13.8021

> <Gold.Chemscore.DG>
-15.5708

> <Gold.Chemscore.ZeroCoef>
-5.4800

> <Gold.Chemscore.Hbond>
0.8333

> <Gold.Chemscore.Metal>
0.0000

> <Gold.Chemscore.Lipo>
95.5991

> <Gold.Chemscore.Internal_Hbond>
0.0000

> <Gold.Chemscore.DEClash>
1.5562

> <Gold.Chemscore.DEInternal>
0.2125

> <Gold.Chemscore.Rot>
1.5146

> <Gold.Chemscore.Internal.Correction>
   9.000000E+99

> <Gold.Chemscore.Hbonds>
donor molecule, donor type, donor heavy atom, donor atom, acceptor molecule, acceptor atom, score
      P1  H  7989  7998       L1     8  0.13

> <Gold.Chemscore.Hbond.Weighted>
-2.7831

> <Gold.Chemscore.Metal.Weighted>
-0.0000

> <Gold.Chemscore.Lipo.Weighted>
-11.1851

> <Gold.Chemscore.Internal_Hbond.Weighted>
0.0000

> <Gold.Chemscore.DEClash.Weighted>
1.5562

> <Gold.Chemscore.DEInternal.Weighted>
0.2125

> <Gold.Chemscore.Rot.Weighted>
3.8773

> <Gold.Chemscore.Internal.Correction.Weighted>
   9.000000E+99

> <Gold.Protein.RotatedTorsions>
[ 6907 6896 6895 6894 ] final   33.42 input  -60.11 | X-H torsion
[ 7974 7965 7964 7962 ] final -141.62 input  175.53 | X-H torsion
[ 8008 7997 7996 7995 ] final  116.50 input   59.86 | X-H torsion
[ 10167 10162 10161 10158 ] final   51.88 input  -65.29 | X-H torsion
[ 10718 10713 10712 10709 ] final -165.81 input   66.30 | X-H torsion
[ 10763 10752 10751 10750 ] final -118.88 input  -60.55 | X-H torsion
[ 11005 11000 10999 10996 ] final -178.11 input  -57.11 | X-H torsion

> <Gold.Protein.ActiveResidues>
 VAL166  LYS551  ARG553  GLY616  TRP617  ASP618  TYR619  PRO620  LYS621  CYS622 
 ASP623  PHE694  ASN695  SER759  ASP760  ASP761  ALA762  ILE779  LEU786  VAL792 
 PHE793  MET794  SER795  GLU796  ALA797  LYS798  CYS799  TRP800  GLU811  SER814 

> <Gold.Protein.RotatedAtoms>
  152.0882  134.9425  160.0572 H   0  0  0  0  0  0  0  0  0  0  0  0  # atno 6907 bound_to 6896
  152.0686  133.4091  159.4457 H   0  0  0  0  0  0  0  0  0  0  0  0  # atno 6908 bound_to 6896
  150.6836  134.3037  159.4761 H   0  0  0  0  0  0  0  0  0  0  0  0  # atno 6909 bound_to 6896
  144.8506  140.6058  143.5393 H   0  0  0  0  0  0  0  0  0  0  0  0  # atno 7974 bound_to 7965
  156.2442  140.2916  156.0532 H   0  0  0  0  0  0  0  0  0  0  0  0  # atno 8008 bound_to 7997
  155.1858  140.0405  157.2908 H   0  0  0  0  0  0  0  0  0  0  0  0  # atno 8009 bound_to 7997
  154.6228  140.2480  155.7535 H   0  0  0  0  0  0  0  0  0  0  0  0  # atno 8010 bound_to 7997
  140.2573  144.3413  150.6329 H   0  0  0  0  0  0  0  0  0  0  0  0  # atno 10167 bound_to 10162
  156.6588  130.9037  151.3026 H   0  0  0  0  0  0  0  0  0  0  0  0  # atno 10718 bound_to 10713
  154.8601  135.4258  154.2209 H   0  0  0  0  0  0  0  0  0  0  0  0  # atno 10763 bound_to 10752
  153.3215  135.6982  153.7032 H   0  0  0  0  0  0  0  0  0  0  0  0  # atno 10764 bound_to 10752
  153.6085  135.3523  155.2944 H   0  0  0  0  0  0  0  0  0  0  0  0  # atno 10765 bound_to 10752
  140.4334  134.6498  157.4723 H   0  0  0  0  0  0  0  0  0  0  0  0  # atno 11005 bound_to 11000
  145.4508  139.1524  143.3919 LP  0  0  0  0  0  0  0  0  0  0  0  0  # atno 17320 bound_to 7965
  146.2781  140.4634  142.8787 LP  0  0  0  0  0  0  0  0  0  0  0  0  # atno 17321 bound_to 7965
  140.5994  143.2167  151.7102 LP  0  0  0  0  0  0  0  0  0  0  0  0  # atno 17342 bound_to 10162
  139.5027  144.3817  152.0369 LP  0  0  0  0  0  0  0  0  0  0  0  0  # atno 17343 bound_to 10162
  157.7116  130.9447  150.1110 LP  0  0  0  0  0  0  0  0  0  0  0  0  # atno 17370 bound_to 10713
  156.2027  130.3661  149.8768 LP  0  0  0  0  0  0  0  0  0  0  0  0  # atno 17371 bound_to 10713
  140.0119  134.6678  155.9368 LP  0  0  0  0  0  0  0  0  0  0  0  0  # atno 17394 bound_to 11000
  141.1736  133.6539  156.4744 LP  0  0  0  0  0  0  0  0  0  0  0  0  # atno 17395 bound_to 11000

$$$$
