AV-unprocessed.smi:1184|AV-procd|sdf|4969|dock10
  -GOLD-   22720 3563D 1   1.00000     0.00000
 Structure written by MMmdl.
 43 44  0  0  0  0  0  0  0  0  2 V2000
  146.1628  129.6152  152.0592 C   0  0  0  0  0  0  0  0  0  0  0  0
  147.2210  130.0017  153.1027 C   0  0  0  0  0  0  0  0  0  0  0  0
  147.8591  131.3029  152.7946 N   0  3  1  0  0  0  0  0  0  0  0  0
  146.9162  132.4391  152.6607 C   0  0  0  0  0  0  0  0  0  0  0  0
  147.5610  133.6418  153.3668 C   0  0  0  0  0  0  0  0  0  0  0  0
  149.0201  133.2342  153.5645 C   0  0  1  0  0  0  0  0  0  0  0  0
  149.7444  133.9687  154.7121 C   0  0  0  0  0  0  0  0  0  0  0  0
  149.9135  135.3855  154.4126 N   0  0  0  0  0  0  0  0  0  0  0  0
  150.1996  136.3386  155.3127 C   0  0  0  0  0  0  0  0  0  0  0  0
  150.5286  136.1012  156.4744 O   0  0  0  0  0  0  0  0  0  0  0  0
  150.0200  137.7814  154.8429 C   0  0  0  0  0  0  0  0  0  0  0  0
  150.8389  138.6838  155.7333 C   0  0  0  0  0  0  0  0  0  0  0  0
  152.2075  139.0533  155.5870 C   0  0  0  0  0  0  0  0  0  0  0  0
  153.1725  138.6555  154.5075 C   0  0  0  0  0  0  0  0  0  0  0  0
  152.6206  139.8231  156.5797 N   0  0  0  0  0  0  0  0  0  0  0  0
  151.5137  139.9961  157.4162 O   0  0  0  0  0  0  0  0  0  0  0  0
  150.4669  139.3098  156.8912 C   0  0  0  0  0  0  0  0  0  0  0  0
  149.1872  139.3515  157.6553 C   0  0  0  0  0  0  0  0  0  0  0  0
  148.9136  131.7190  153.7395 C   0  0  0  0  0  0  0  0  0  0  0  0
  145.6641  128.6879  152.3416 H   0  0  0  0  0  0  0  0  0  0  0  0
  146.6039  129.4607  151.0740 H   0  0  0  0  0  0  0  0  0  0  0  0
  145.3984  130.3874  151.9669 H   0  0  0  0  0  0  0  0  0  0  0  0
  146.7411  130.0726  154.0796 H   0  0  0  0  0  0  0  0  0  0  0  0
  147.9805  129.2225  153.1802 H   0  0  0  0  0  0  0  0  0  0  0  0
  146.7591  132.6418  151.6007 H   0  0  0  0  0  0  0  0  0  0  0  0
  145.9437  132.2159  153.1024 H   0  0  0  0  0  0  0  0  0  0  0  0
  147.4591  134.5664  152.7977 H   0  0  0  0  0  0  0  0  0  0  0  0
  147.0798  133.7943  154.3339 H   0  0  0  0  0  0  0  0  0  0  0  0
  149.5500  133.4265  152.6298 H   0  0  0  0  0  0  0  0  0  0  0  0
  149.2027  133.8443  155.6511 H   0  0  0  0  0  0  0  0  0  0  0  0
  150.7364  133.5424  154.8645 H   0  0  0  0  0  0  0  0  0  0  0  0
  149.6773  135.6819  153.4765 H   0  0  0  0  0  0  0  0  0  0  0  0
  150.3277  137.8647  153.7999 H   0  0  0  0  0  0  0  0  0  0  0  0
  148.9601  138.0368  154.8714 H   0  0  0  0  0  0  0  0  0  0  0  0
  153.5834  137.6645  154.7010 H   0  0  0  0  0  0  0  0  0  0  0  0
  154.0064  139.3546  154.4348 H   0  0  0  0  0  0  0  0  0  0  0  0
  152.6824  138.6265  153.5342 H   0  0  0  0  0  0  0  0  0  0  0  0
  148.3494  139.5756  156.9946 H   0  0  0  0  0  0  0  0  0  0  0  0
  149.2170  140.1163  158.4320 H   0  0  0  0  0  0  0  0  0  0  0  0
  148.9941  138.3909  158.1332 H   0  0  0  0  0  0  0  0  0  0  0  0
  148.6150  131.4790  154.7615 H   0  0  0  0  0  0  0  0  0  0  0  0
  149.8542  131.2089  153.5320 H   0  0  0  0  0  0  0  0  0  0  0  0
  148.3069  131.2105  151.8939 H   0  0  0  0  0  0  0  0  0  0  0  0
  1  2  1  0  0  0  0
  1 20  1  0  0  0  0
  1 21  1  0  0  0  0
  1 22  1  0  0  0  0
  2  3  1  0  0  0  0
  2 23  1  0  0  0  0
  2 24  1  0  0  0  0
  3 19  1  0  0  0  0
  3  4  1  0  0  0  0
  3 43  1  0  0  0  0
  4  5  1  0  0  0  0
  4 25  1  0  0  0  0
  4 26  1  0  0  0  0
  5  6  1  0  0  0  0
  5 27  1  0  0  0  0
  5 28  1  0  0  0  0
  6  7  1  0  0  0  0
  6 19  1  0  0  0  0
  6 29  1  0  0  0  0
  7  8  1  0  0  0  0
  7 30  1  0  0  0  0
  7 31  1  0  0  0  0
  8  9  1  0  0  0  0
  8 32  1  0  0  0  0
  9 10  2  0  0  0  0
  9 11  1  0  0  0  0
 11 12  1  0  0  0  0
 11 33  1  0  0  0  0
 11 34  1  0  0  0  0
 12 17  2  0  0  0  0
 12 13  1  0  0  0  0
 13 14  1  0  0  0  0
 13 15  2  0  0  0  0
 14 35  1  0  0  0  0
 14 36  1  0  0  0  0
 14 37  1  0  0  0  0
 15 16  1  0  0  0  0
 16 17  1  0  0  0  0
 17 18  1  0  0  0  0
 18 38  1  0  0  0  0
 18 39  1  0  0  0  0
 18 40  1  0  0  0  0
 19 41  1  0  0  0  0
 19 42  1  0  0  0  0
M  CHG  1   3   1
M  END
> <s_m_source_file>
AV-unprocessed.smi

> <i_m_source_file_index>
1184

> <i_lp_mmshare_version>
43012

> <i_f3d_flags>
0

> <s_epik_input>
W0NIM11bQ0gyXU4xW0NIMl1bQ0gyXVtDQEhdKFtDSDJdMSlbQ0gyXVtOSF1DKD1PKVtDSDJdYzJjKFtDSDNdKW5vYzJbQ0gzXQ==

> <s_epik_cmdline>
J2VwaWtfcHl0aG9uJywgJy1waCcsICc3LjAnLCAnLXRuJywgJzgnLCAnLW1hJywgJzIwMCcsICctbWV0YWxfYmluZGluZycsICctaW1hZScsICc8aW5maWxlLm1hZT4nLCAnLW9tYWUnLCAnPG91dGZpbGUubWFlPic=

> <r_epik_Ionization_Penalty>
0.000590726

> <r_epik_Ionization_Penalty_Charging>
0.000590692

> <r_epik_Ionization_Penalty_Neutral>
3.44741e-08

> <r_epik_State_Penalty>
0.000371644

> <r_epik_Charging_Adjusted_Penalty>
0.000962336

> <i_epik_Tot_Q>
1

> <i_epik_Tot_abs_Q>
1

> <r_epik_Metal_State_Penalty>
-0

> <b_epik_Metal_Only>
0

> <s_lp_Force_Field>
OPLS_2005

> <r_lp_Energy>
20.0287

> <b_lp_Chiralities_Consistent>
1

> <s_lp_Variant>
AV-unprocessed.smi:1184-1

> <Gold.Version>
5.8.1

> <Gold.Id.Protein>
6NUR|6NUR_protein|mol2

> <Gold.PLP.Fitness>
38.9009

> <Gold.PLP.PLP>
-32.4288

> <Gold.PLP.part.hbond>
-3.4095

> <Gold.PLP.part.metal>
0.0000

> <Gold.PLP.part.buried>
-4.0219

> <Gold.PLP.part.nonpolar>
-25.4236

> <Gold.PLP.part.repulsive>
0.0691

> <Gold.PLP.ligand.clash>
0.0000

> <Gold.PLP.ligand.torsion>
0.8253

> <Gold.PLP.Chemscore.Hbond>
2.7000

> <Gold.PLP.Chemscore.CHOScore>
0.0000

> <Gold.PLP.Chemscore.Metal>
0.0000

> <Gold.Chemscore.Hbonds>
donor molecule, donor type, donor heavy atom, donor atom, acceptor molecule, acceptor atom, score
      L1  H     3    43       P1 10747  1.00
      L1  H     8    32       P1  7948  0.70
      P1  H  7997  8009       L1    15  1.00

> <Gold.PLP.Chemscore.Internal.Correction>
0.0227

> <Gold.Rescore>
     Score         DG    S(hbond)    S(metal)    S(lipo)     H(rot)  DE(clash)    DE(int)     intcor
     17.87     -18.79       2.64        0.00      74.82       1.67       0.08       0.84       ----

> <Gold.Chemscore.Fitness>
17.8670

> <Gold.Chemscore.DG>
-18.7934

> <Gold.Chemscore.ZeroCoef>
-5.4800

> <Gold.Chemscore.Hbond>
2.6441

> <Gold.Chemscore.Metal>
0.0000

> <Gold.Chemscore.Lipo>
74.8154

> <Gold.Chemscore.Internal_Hbond>
0.0000

> <Gold.Chemscore.DEClash>
0.0821

> <Gold.Chemscore.DEInternal>
0.8442

> <Gold.Chemscore.Rot>
1.6684

> <Gold.Chemscore.Internal.Correction>
   9.000000E+99

> <Gold.Chemscore.Hbonds>
donor molecule, donor type, donor heavy atom, donor atom, acceptor molecule, acceptor atom, score
      L1  H     3    43       P1 10747  1.00
      L1  H     8    32       P1  7948  0.07
      P1  H  7997  8009       L1    15  0.82

> <Gold.Chemscore.Hbond.Weighted>
-8.8312

> <Gold.Chemscore.Metal.Weighted>
-0.0000

> <Gold.Chemscore.Lipo.Weighted>
-8.7534

> <Gold.Chemscore.Internal_Hbond.Weighted>
0.0000

> <Gold.Chemscore.DEClash.Weighted>
0.0821

> <Gold.Chemscore.DEInternal.Weighted>
0.8442

> <Gold.Chemscore.Rot.Weighted>
4.2712

> <Gold.Chemscore.Internal.Correction.Weighted>
   9.000000E+99

> <Gold.Protein.RotatedTorsions>
[ 6907 6896 6895 6894 ] final   33.84 input  -60.11 | X-H torsion
[ 7974 7965 7964 7962 ] final   30.40 input  175.53 | X-H torsion
[ 8008 7997 7996 7995 ] final -172.26 input   59.86 | X-H torsion
[ 10167 10162 10161 10158 ] final   49.77 input  -65.29 | X-H torsion
[ 10718 10713 10712 10709 ] final -153.68 input   66.30 | X-H torsion
[ 10763 10752 10751 10750 ] final  157.45 input  -60.55 | X-H torsion
[ 11005 11000 10999 10996 ] final   11.10 input  -57.11 | X-H torsion

> <Gold.Protein.ActiveResidues>
 VAL166  LYS551  ARG553  GLY616  TRP617  ASP618  TYR619  PRO620  LYS621  CYS622 
 ASP623  PHE694  ASN695  SER759  ASP760  ASP761  ALA762  ILE779  LEU786  VAL792 
 PHE793  MET794  SER795  GLU796  ALA797  LYS798  CYS799  TRP800  GLU811  SER814 

> <Gold.Protein.RotatedAtoms>
  152.0941  134.9387  160.0570 H   0  0  0  0  0  0  0  0  0  0  0  0  # atno 6907 bound_to 6896
  152.0627  133.4065  159.4433 H   0  0  0  0  0  0  0  0  0  0  0  0  # atno 6908 bound_to 6896
  150.6837  134.3102  159.4786 H   0  0  0  0  0  0  0  0  0  0  0  0  # atno 6909 bound_to 6896
  146.1614  139.6793  142.9031 H   0  0  0  0  0  0  0  0  0  0  0  0  # atno 7974 bound_to 7965
  155.9423  140.1111  157.1045 H   0  0  0  0  0  0  0  0  0  0  0  0  # atno 8008 bound_to 7997
  154.4092  140.1216  156.5009 H   0  0  0  0  0  0  0  0  0  0  0  0  # atno 8009 bound_to 7997
  155.6946  140.3472  155.4910 H   0  0  0  0  0  0  0  0  0  0  0  0  # atno 8010 bound_to 7997
  140.2794  144.3174  150.6268 H   0  0  0  0  0  0  0  0  0  0  0  0  # atno 10167 bound_to 10162
  156.4890  130.8339  151.2562 H   0  0  0  0  0  0  0  0  0  0  0  0  # atno 10718 bound_to 10713
  154.2005  135.2790  155.2992 H   0  0  0  0  0  0  0  0  0  0  0  0  # atno 10763 bound_to 10752
  154.5858  135.5575  153.7233 H   0  0  0  0  0  0  0  0  0  0  0  0  # atno 10764 bound_to 10752
  153.0089  135.6356  154.2143 H   0  0  0  0  0  0  0  0  0  0  0  0  # atno 10765 bound_to 10752
  140.5070  134.0689  155.7808 H   0  0  0  0  0  0  0  0  0  0  0  0  # atno 11005 bound_to 11000
  145.4579  141.0431  143.2768 LP  0  0  0  0  0  0  0  0  0  0  0  0  # atno 17320 bound_to 7965
  144.8032  139.6101  143.7062 LP  0  0  0  0  0  0  0  0  0  0  0  0  # atno 17321 bound_to 7965
  140.5824  143.2172  151.7403 LP  0  0  0  0  0  0  0  0  0  0  0  0  # atno 17342 bound_to 10162
  139.4967  144.4060  152.0131 LP  0  0  0  0  0  0  0  0  0  0  0  0  # atno 17343 bound_to 10162
  157.7476  131.0019  150.2983 LP  0  0  0  0  0  0  0  0  0  0  0  0  # atno 17370 bound_to 10713
  156.3445  130.3821  149.7381 LP  0  0  0  0  0  0  0  0  0  0  0  0  # atno 17371 bound_to 10713
  141.1405  133.9146  157.2336 LP  0  0  0  0  0  0  0  0  0  0  0  0  # atno 17394 bound_to 11000
  139.9680  135.0136  156.9438 LP  0  0  0  0  0  0  0  0  0  0  0  0  # atno 17395 bound_to 11000

$$$$
