AV-unprocessed.smi:1959|AV-procd|sdf|7913|dock6
  -GOLD-   2272010 83D 1   1.00000     0.00000
 Structure written by MMmdl.
 44 45  0  0  0  0  0  0  0  0  1 V2000
  153.9172  140.7240  160.5315 C   0  0  0  0  0  0  0  0  0  0  0  0
  153.2384  141.9425  159.9788 C   0  0  0  0  0  0  0  0  0  0  0  0
  153.2090  143.2579  160.5209 C   0  0  0  0  0  0  0  0  0  0  0  0
  152.4602  143.9732  159.6295 C   0  0  0  0  0  0  0  0  0  0  0  0
  152.0661  145.4136  159.6390 C   0  0  0  0  0  0  0  0  0  0  0  0
  152.0827  143.0968  158.6274 N   0  0  0  0  0  0  0  0  0  0  0  0
  151.2796  143.3505  157.4390 C   0  0  0  0  0  0  0  0  0  0  0  0
  150.7397  142.0694  156.7910 C   0  0  0  0  0  0  0  0  0  0  0  0
  151.3936  141.0250  156.7942 O   0  0  0  0  0  0  0  0  0  0  0  0
  149.5247  142.1724  156.2313 N   0  0  0  0  0  0  0  0  0  0  0  0
  148.8050  141.0976  155.5515 C   0  0  1  0  0  0  0  0  0  0  0  0
  148.4472  139.9795  156.5430 C   0  0  0  0  0  0  0  0  0  0  0  0
  147.5914  141.6171  154.7411 C   0  0  0  0  0  0  0  0  0  0  0  0
  146.6655  142.5189  155.4338 N   0  0  0  0  0  0  0  0  0  0  0  0
  145.9508  141.8109  156.4913 C   0  0  0  0  0  0  0  0  0  0  0  0
  144.9747  142.7295  157.2457 C   0  0  0  0  0  0  0  0  0  0  0  0
  144.0559  143.3045  156.3235 O   0  0  0  0  0  0  0  0  0  0  0  0
  144.7046  144.0463  155.2962 C   0  0  0  0  0  0  0  0  0  0  0  0
  145.6891  143.1377  154.5387 C   0  0  0  0  0  0  0  0  0  0  0  0
  152.5630  141.8528  158.8450 N   0  0  0  0  0  0  0  0  0  0  0  0
  154.4923  140.9637  161.4263 H   0  0  0  0  0  0  0  0  0  0  0  0
  154.6039  140.2920  159.8030 H   0  0  0  0  0  0  0  0  0  0  0  0
  153.1895  139.9582  160.8006 H   0  0  0  0  0  0  0  0  0  0  0  0
  153.6682  143.6217  161.4281 H   0  0  0  0  0  0  0  0  0  0  0  0
  152.4685  145.9217  160.5155 H   0  0  0  0  0  0  0  0  0  0  0  0
  150.9814  145.5202  159.6590 H   0  0  0  0  0  0  0  0  0  0  0  0
  152.4423  145.9254  158.7532 H   0  0  0  0  0  0  0  0  0  0  0  0
  150.4469  143.9994  157.7120 H   0  0  0  0  0  0  0  0  0  0  0  0
  151.8807  143.8963  156.7096 H   0  0  0  0  0  0  0  0  0  0  0  0
  149.0613  143.0685  156.2736 H   0  0  0  0  0  0  0  0  0  0  0  0
  149.5006  140.6608  154.8323 H   0  0  0  0  0  0  0  0  0  0  0  0
  147.9422  139.1565  156.0368 H   0  0  0  0  0  0  0  0  0  0  0  0
  147.7887  140.3378  157.3350 H   0  0  0  0  0  0  0  0  0  0  0  0
  149.3425  139.5752  157.0163 H   0  0  0  0  0  0  0  0  0  0  0  0
  147.9281  142.0739  153.8093 H   0  0  0  0  0  0  0  0  0  0  0  0
  147.0296  140.7330  154.4361 H   0  0  0  0  0  0  0  0  0  0  0  0
  145.3987  140.9708  156.0667 H   0  0  0  0  0  0  0  0  0  0  0  0
  146.6629  141.3879  157.2008 H   0  0  0  0  0  0  0  0  0  0  0  0
  144.4209  142.1622  157.9938 H   0  0  0  0  0  0  0  0  0  0  0  0
  145.5141  143.5172  157.7742 H   0  0  0  0  0  0  0  0  0  0  0  0
  143.9525  144.4421  154.6135 H   0  0  0  0  0  0  0  0  0  0  0  0
  145.2252  144.9012  155.7309 H   0  0  0  0  0  0  0  0  0  0  0  0
  146.1938  143.7397  153.7851 H   0  0  0  0  0  0  0  0  0  0  0  0
  145.1331  142.3650  154.0057 H   0  0  0  0  0  0  0  0  0  0  0  0
  1  2  1  0  0  0  0
  1 21  1  0  0  0  0
  1 22  1  0  0  0  0
  1 23  1  0  0  0  0
  2 20  2  0  0  0  0
  2  3  1  0  0  0  0
  3  4  2  0  0  0  0
  3 24  1  0  0  0  0
  4  5  1  0  0  0  0
  4  6  1  0  0  0  0
  5 25  1  0  0  0  0
  5 26  1  0  0  0  0
  5 27  1  0  0  0  0
  6  7  1  0  0  0  0
  6 20  1  0  0  0  0
  7  8  1  0  0  0  0
  7 28  1  0  0  0  0
  7 29  1  0  0  0  0
  8  9  2  0  0  0  0
  8 10  1  0  0  0  0
 10 11  1  0  0  0  0
 10 30  1  0  0  0  0
 11 12  1  0  0  0  0
 11 13  1  0  0  0  0
 11 31  1  0  0  0  0
 12 32  1  0  0  0  0
 12 33  1  0  0  0  0
 12 34  1  0  0  0  0
 13 14  1  0  0  0  0
 13 35  1  0  0  0  0
 13 36  1  0  0  0  0
 14 19  1  0  0  0  0
 14 15  1  0  0  0  0
 15 16  1  0  0  0  0
 15 37  1  0  0  0  0
 15 38  1  0  0  0  0
 16 17  1  0  0  0  0
 16 39  1  0  0  0  0
 16 40  1  0  0  0  0
 17 18  1  0  0  0  0
 18 19  1  0  0  0  0
 18 41  1  0  0  0  0
 18 42  1  0  0  0  0
 19 43  1  0  0  0  0
 19 44  1  0  0  0  0
M  END
> <s_m_source_file>
AV-unprocessed.smi

> <i_m_source_file_index>
1959

> <i_lp_mmshare_version>
43012

> <i_f3d_flags>
0

> <s_epik_input>
W0NIM11jMVtjSF1jKFtDSDNdKW4objEpW0NIMl1DKD1PKVtOSF1bQ0BIXShbQ0gzXSlbQ0gyXU4yW0NIMl1bQ0gyXU9bQ0gyXVtDSDJdMg==

> <s_epik_cmdline>
J2VwaWtfcHl0aG9uJywgJy1waCcsICc3LjAnLCAnLXRuJywgJzgnLCAnLW1hJywgJzIwMCcsICctbWV0YWxfYmluZGluZycsICctaW1hZScsICc8aW5maWxlLm1hZT4nLCAnLW9tYWUnLCAnPG91dGZpbGUubWFlPic=

> <r_lp_tautomer_probability>
1

> <r_epik_Ionization_Penalty>
0.197284

> <r_epik_Ionization_Penalty_Charging>
0

> <r_epik_Ionization_Penalty_Neutral>
0.197284

> <r_epik_State_Penalty>
0.186684

> <r_epik_Charging_Adjusted_Penalty>
0.186684

> <i_epik_Tot_Q>
0

> <i_epik_Tot_abs_Q>
0

> <r_epik_Metal_State_Penalty>
0.186639

> <b_epik_Metal_Only>
0

> <s_lp_Force_Field>
OPLS_2005

> <r_lp_Energy>
28.5782

> <b_lp_Chiralities_Consistent>
1

> <s_lp_Variant>
AV-unprocessed.smi:1959-2

> <Gold.Version>
5.8.1

> <Gold.Id.Protein>
6NUR|6NUR_protein|mol2

> <Gold.PLP.Fitness>
45.7499

> <Gold.PLP.PLP>
-44.3013

> <Gold.PLP.part.hbond>
-1.0000

> <Gold.PLP.part.metal>
0.0000

> <Gold.PLP.part.buried>
-6.4101

> <Gold.PLP.part.nonpolar>
-38.0479

> <Gold.PLP.part.repulsive>
0.9022

> <Gold.PLP.ligand.clash>
0.0000

> <Gold.PLP.ligand.torsion>
0.8073

> <Gold.PLP.Chemscore.Hbond>
1.0000

> <Gold.PLP.Chemscore.CHOScore>
0.0000

> <Gold.PLP.Chemscore.Metal>
0.0000

> <Gold.Chemscore.Hbonds>
donor molecule, donor type, donor heavy atom, donor atom, acceptor molecule, acceptor atom, score
      L1  H    10    30       P1  8028  0.99

> <Gold.PLP.Chemscore.Internal.Correction>
0.0633

> <Gold.Rescore>
     Score         DG    S(hbond)    S(metal)    S(lipo)     H(rot)  DE(clash)    DE(int)     intcor
     14.08     -16.59       1.00        0.00     103.56       1.70       0.04       2.46       ----

> <Gold.Chemscore.Fitness>
14.0847

> <Gold.Chemscore.DG>
-16.5866

> <Gold.Chemscore.ZeroCoef>
-5.4800

> <Gold.Chemscore.Hbond>
0.9968

> <Gold.Chemscore.Metal>
0.0000

> <Gold.Chemscore.Lipo>
103.5647

> <Gold.Chemscore.Internal_Hbond>
0.0000

> <Gold.Chemscore.DEClash>
0.0422

> <Gold.Chemscore.DEInternal>
2.4598

> <Gold.Chemscore.Rot>
1.6952

> <Gold.Chemscore.Internal.Correction>
   9.000000E+99

> <Gold.Chemscore.Hbonds>
donor molecule, donor type, donor heavy atom, donor atom, acceptor molecule, acceptor atom, score
      L1  H    10    30       P1  8028  0.94

> <Gold.Chemscore.Hbond.Weighted>
-3.3294

> <Gold.Chemscore.Metal.Weighted>
-0.0000

> <Gold.Chemscore.Lipo.Weighted>
-12.1171

> <Gold.Chemscore.Internal_Hbond.Weighted>
0.0000

> <Gold.Chemscore.DEClash.Weighted>
0.0422

> <Gold.Chemscore.DEInternal.Weighted>
2.4598

> <Gold.Chemscore.Rot.Weighted>
4.3398

> <Gold.Chemscore.Internal.Correction.Weighted>
   9.000000E+99

> <Gold.Protein.RotatedTorsions>
[ 6907 6896 6895 6894 ] final    4.61 input  -60.11 | X-H torsion
[ 7974 7965 7964 7962 ] final -107.12 input  175.53 | X-H torsion
[ 8008 7997 7996 7995 ] final -100.44 input   59.86 | X-H torsion
[ 10167 10162 10161 10158 ] final  -30.30 input  -65.29 | X-H torsion
[ 10718 10713 10712 10709 ] final -176.32 input   66.30 | X-H torsion
[ 10763 10752 10751 10750 ] final -152.09 input  -60.55 | X-H torsion
[ 11005 11000 10999 10996 ] final  -85.20 input  -57.11 | X-H torsion

> <Gold.Protein.ActiveResidues>
 VAL166  LYS551  ARG553  GLY616  TRP617  ASP618  TYR619  PRO620  LYS621  CYS622 
 ASP623  PHE694  ASN695  SER759  ASP760  ASP761  ALA762  ILE779  LEU786  VAL792 
 PHE793  MET794  SER795  GLU796  ALA797  LYS798  CYS799  TRP800  GLU811  SER814 

> <Gold.Protein.RotatedAtoms>
  151.6441  135.1009  160.0147 H   0  0  0  0  0  0  0  0  0  0  0  0  # atno 6907 bound_to 6896
  152.4037  133.6853  159.6347 H   0  0  0  0  0  0  0  0  0  0  0  0  # atno 6908 bound_to 6896
  150.7934  133.8663  159.3287 H   0  0  0  0  0  0  0  0  0  0  0  0  # atno 6909 bound_to 6896
  145.2092  140.9089  143.3324 H   0  0  0  0  0  0  0  0  0  0  0  0  # atno 7974 bound_to 7965
  154.8287  140.0441  157.1462 H   0  0  0  0  0  0  0  0  0  0  0  0  # atno 8008 bound_to 7997
  154.9177  140.3022  155.5212 H   0  0  0  0  0  0  0  0  0  0  0  0  # atno 8009 bound_to 7997
  156.2985  140.2346  156.4223 H   0  0  0  0  0  0  0  0  0  0  0  0  # atno 8010 bound_to 7997
  140.7251  143.3860  151.1515 H   0  0  0  0  0  0  0  0  0  0  0  0  # atno 10167 bound_to 10162
  156.8129  130.9592  151.3115 H   0  0  0  0  0  0  0  0  0  0  0  0  # atno 10718 bound_to 10713
  154.8016  135.3244  154.7535 H   0  0  0  0  0  0  0  0  0  0  0  0  # atno 10763 bound_to 10752
  153.8202  135.6888  153.4832 H   0  0  0  0  0  0  0  0  0  0  0  0  # atno 10764 bound_to 10752
  153.1737  135.4613  154.9880 H   0  0  0  0  0  0  0  0  0  0  0  0  # atno 10765 bound_to 10752
  141.1643  133.7387  156.8981 H   0  0  0  0  0  0  0  0  0  0  0  0  # atno 11005 bound_to 11000
  144.9872  139.3725  143.6233 LP  0  0  0  0  0  0  0  0  0  0  0  0  # atno 17320 bound_to 7965
  146.3401  139.9039  142.8790 LP  0  0  0  0  0  0  0  0  0  0  0  0  # atno 17321 bound_to 7965
  139.7457  143.8856  152.3063 LP  0  0  0  0  0  0  0  0  0  0  0  0  # atno 17342 bound_to 10162
  139.8692  144.7077  150.9007 LP  0  0  0  0  0  0  0  0  0  0  0  0  # atno 17343 bound_to 10162
  157.6496  130.8873  149.9607 LP  0  0  0  0  0  0  0  0  0  0  0  0  # atno 17370 bound_to 10713
  156.1034  130.3654  150.0177 LP  0  0  0  0  0  0  0  0  0  0  0  0  # atno 17371 bound_to 10713
  140.1602  134.9171  157.2705 LP  0  0  0  0  0  0  0  0  0  0  0  0  # atno 17394 bound_to 11000
  140.2620  134.3560  155.7403 LP  0  0  0  0  0  0  0  0  0  0  0  0  # atno 17395 bound_to 11000

$$$$
