AV-unprocessed.smi:1803|AV-procd|sdf|7287|dock10
  -GOLD-   22720 8543D 1   1.00000     0.00000
 Structure written by MMmdl.
 35 37  0  0  0  0  0  0  0  0  3 V2000
  149.7343  137.6608  159.2529 O   0  0  0  0  0  0  0  0  0  0  0  0
  149.1249  136.6404  158.9354 C   0  0  0  0  0  0  0  0  0  0  0  0
  148.8854  135.6150  159.7937 N   0  5  0  0  0  0  0  0  0  0  0  0
  148.0644  135.7327  160.8538 C   0  0  0  0  0  0  0  0  0  0  0  0
  147.5956  136.9185  161.2749 N   0  0  0  0  0  0  0  0  0  0  0  0
  146.7599  136.8140  162.3784 N   0  0  0  0  0  0  0  0  0  0  0  0
  146.6309  135.5472  162.7723 C   0  0  0  0  0  0  0  0  0  0  0  0
  147.5088  134.3659  161.8238 S   0  0  0  0  0  0  0  0  0  0  0  0
  148.6659  136.5233  157.6753 N   0  0  0  0  0  0  0  0  0  0  0  0
  148.8332  137.5053  156.6111 C   0  0  2  0  0  0  0  0  0  0  0  0
  147.5292  138.2014  156.1906 C   0  0  0  0  0  0  0  0  0  0  0  0
  147.6095  138.3261  154.6566 C   0  0  0  0  0  0  0  0  0  0  0  0
  148.9444  137.8231  154.2579 N   0  3  1  0  0  0  0  0  0  0  0  0
  149.9258  138.9267  154.0703 C   0  0  0  0  0  0  0  0  0  0  0  0
  151.3574  138.4036  153.8931 C   0  0  0  0  0  0  0  0  0  0  0  0
  151.7644  137.5569  155.1017 C   0  0  0  0  0  0  0  0  0  0  0  0
  150.7815  136.3925  155.2650 C   0  0  0  0  0  0  0  0  0  0  0  0
  149.3052  136.8462  155.3130 C   0  0  1  0  0  0  0  0  0  0  0  0
  146.0136  135.3068  163.6250 H   0  0  0  0  0  0  0  0  0  0  0  0
  148.1620  135.6797  157.4434 H   0  0  0  0  0  0  0  0  0  0  0  0
  149.5597  138.2581  156.9216 H   0  0  0  0  0  0  0  0  0  0  0  0
  146.6528  137.6144  156.4700 H   0  0  0  0  0  0  0  0  0  0  0  0
  147.4370  139.1757  156.6717 H   0  0  0  0  0  0  0  0  0  0  0  0
  146.8535  137.6866  154.1993 H   0  0  0  0  0  0  0  0  0  0  0  0
  147.4238  139.3435  154.3095 H   0  0  0  0  0  0  0  0  0  0  0  0
  149.6360  139.5141  153.1985 H   0  0  0  0  0  0  0  0  0  0  0  0
  149.8925  139.6034  154.9259 H   0  0  0  0  0  0  0  0  0  0  0  0
  151.4283  137.8112  152.9798 H   0  0  0  0  0  0  0  0  0  0  0  0
  152.0467  139.2403  153.7769 H   0  0  0  0  0  0  0  0  0  0  0  0
  152.7776  137.1760  154.9715 H   0  0  0  0  0  0  0  0  0  0  0  0
  151.7762  138.1706  156.0032 H   0  0  0  0  0  0  0  0  0  0  0  0
  150.9094  135.7116  154.4225 H   0  0  0  0  0  0  0  0  0  0  0  0
  151.0270  135.8149  156.1566 H   0  0  0  0  0  0  0  0  0  0  0  0
  148.6855  135.9630  155.1436 H   0  0  0  0  0  0  0  0  0  0  0  0
  148.8691  137.3346  153.3774 H   0  0  0  0  0  0  0  0  0  0  0  0
  1  2  2  0  0  0  0
  2  3  1  0  0  0  0
  2  9  1  0  0  0  0
  3  4  1  0  0  0  0
  4  8  1  0  0  0  0
  4  5  2  0  0  0  0
  5  6  1  0  0  0  0
  6  7  2  0  0  0  0
  7  8  1  0  0  0  0
  7 19  1  0  0  0  0
  9 10  1  0  0  0  0
  9 20  1  0  0  0  0
 10 18  1  0  0  0  0
 10 11  1  0  0  0  0
 10 21  1  0  0  0  0
 11 12  1  0  0  0  0
 11 22  1  0  0  0  0
 11 23  1  0  0  0  0
 12 13  1  0  0  0  0
 12 24  1  0  0  0  0
 12 25  1  0  0  0  0
 13 18  1  0  0  0  0
 13 14  1  0  0  0  0
 13 35  1  0  0  0  0
 14 15  1  0  0  0  0
 14 26  1  0  0  0  0
 14 27  1  0  0  0  0
 15 16  1  0  0  0  0
 15 28  1  0  0  0  0
 15 29  1  0  0  0  0
 16 17  1  0  0  0  0
 16 30  1  0  0  0  0
 16 31  1  0  0  0  0
 17 18  1  0  0  0  0
 17 32  1  0  0  0  0
 17 33  1  0  0  0  0
 18 34  1  0  0  0  0
M  CHG  1   3  -1
M  CHG  1  13   1
M  END
> <s_m_source_file>
AV-unprocessed.smi

> <i_m_source_file_index>
1803

> <i_lp_mmshare_version>
43012

> <i_f3d_flags>
0

> <s_epik_input>
czFbY0hdbm5jMVtOSF1DKD1PKVtOSF1bQ0BIXShbQ0gyXVtDSDJdMilbQ0BASF0oTjIzKVtDSDJdW0NIMl1bQ0gyXVtDSDJdMw==

> <s_epik_cmdline>
J2VwaWtfcHl0aG9uJywgJy1waCcsICc3LjAnLCAnLXRuJywgJzgnLCAnLW1hJywgJzIwMCcsICctbWV0YWxfYmluZGluZycsICctaW1hZScsICc8aW5maWxlLm1hZT4nLCAnLW9tYWUnLCAnPG91dGZpbGUubWFlPic=

> <r_lp_tautomer_probability>
1

> <r_epik_Ionization_Penalty>
3.78828

> <r_epik_Ionization_Penalty_Charging>
3.7591

> <r_epik_Ionization_Penalty_Neutral>
0.0291838

> <r_epik_State_Penalty>
3.757

> <r_epik_Charging_Adjusted_Penalty>
7.51609

> <i_epik_Tot_Q>
0

> <i_epik_Tot_abs_Q>
2

> <r_epik_Metal_State_Penalty>
0.558016

> <b_epik_Metal_Only>
1

> <s_lp_Force_Field>
OPLS_2005

> <r_lp_Energy>
31.4386

> <b_lp_Chiralities_Consistent>
1

> <s_lp_Variant>
AV-unprocessed.smi:1803-9

> <Gold.Version>
5.8.1

> <Gold.Id.Protein>
6NUR|6NUR_protein|mol2

> <Gold.PLP.Fitness>
39.1255

> <Gold.PLP.PLP>
-24.5772

> <Gold.PLP.part.hbond>
-4.6748

> <Gold.PLP.part.metal>
0.0000

> <Gold.PLP.part.buried>
-3.9952

> <Gold.PLP.part.nonpolar>
-16.7845

> <Gold.PLP.part.repulsive>
0.0340

> <Gold.PLP.ligand.clash>
0.0000

> <Gold.PLP.ligand.torsion>
0.7783

> <Gold.PLP.Chemscore.Hbond>
5.3652

> <Gold.PLP.Chemscore.CHOScore>
0.0000

> <Gold.PLP.Chemscore.Metal>
0.0000

> <Gold.Chemscore.Hbonds>
donor molecule, donor type, donor heavy atom, donor atom, acceptor molecule, acceptor atom, score
      L1  H    13    35       P1  7948  2.00
      P1  H  6896  6907       L1     3  1.73
      P1  H  6931  6943       L1     5  0.93
      P1  H  6934  6947       L1     5  0.44

> <Gold.PLP.Chemscore.Internal.Correction>
0.0092

> <Gold.Rescore>
     Score         DG    S(hbond)    S(metal)    S(lipo)     H(rot)  DE(clash)    DE(int)     intcor
     13.58     -15.14       1.82        0.00      52.54       1.00       0.76       0.80       ----

> <Gold.Chemscore.Fitness>
13.5752

> <Gold.Chemscore.DG>
-15.1360

> <Gold.Chemscore.ZeroCoef>
-5.4800

> <Gold.Chemscore.Hbond>
1.8171

> <Gold.Chemscore.Metal>
0.0000

> <Gold.Chemscore.Lipo>
52.5366

> <Gold.Chemscore.Internal_Hbond>
0.0000

> <Gold.Chemscore.DEClash>
0.7566

> <Gold.Chemscore.DEInternal>
0.8042

> <Gold.Chemscore.Rot>
1.0000

> <Gold.Chemscore.Internal.Correction>
   9.000000E+99

> <Gold.Chemscore.Hbonds>
donor molecule, donor type, donor heavy atom, donor atom, acceptor molecule, acceptor atom, score
      L1  H    13    35       P1  7948  1.00
      P1  H  6896  6907       L1     3  0.18
      P1  H  6931  6943       L1     5  0.31
      P1  H  6934  6947       L1     5  0.05

> <Gold.Chemscore.Hbond.Weighted>
-6.0692

> <Gold.Chemscore.Metal.Weighted>
-0.0000

> <Gold.Chemscore.Lipo.Weighted>
-6.1468

> <Gold.Chemscore.Internal_Hbond.Weighted>
0.0000

> <Gold.Chemscore.DEClash.Weighted>
0.7566

> <Gold.Chemscore.DEInternal.Weighted>
0.8042

> <Gold.Chemscore.Rot.Weighted>
2.5600

> <Gold.Chemscore.Internal.Correction.Weighted>
   9.000000E+99

> <Gold.Protein.RotatedTorsions>
[ 6907 6896 6895 6894 ] final  -70.07 input  -60.11 | X-H torsion
[ 7974 7965 7964 7962 ] final  -78.57 input  175.53 | X-H torsion
[ 8008 7997 7996 7995 ] final -124.61 input   59.86 | X-H torsion
[ 10167 10162 10161 10158 ] final  107.79 input  -65.29 | X-H torsion
[ 10718 10713 10712 10709 ] final  -62.85 input   66.30 | X-H torsion
[ 10763 10752 10751 10750 ] final  145.42 input  -60.55 | X-H torsion
[ 11005 11000 10999 10996 ] final   97.68 input  -57.11 | X-H torsion

> <Gold.Protein.ActiveResidues>
 VAL166  LYS551  ARG553  GLY616  TRP617  ASP618  TYR619  PRO620  LYS621  CYS622 
 ASP623  PHE694  ASN695  SER759  ASP760  ASP761  ALA762  ILE779  LEU786  VAL792 
 PHE793  MET794  SER795  GLU796  ALA797  LYS798  CYS799  TRP800  GLU811  SER814 

> <Gold.Protein.RotatedAtoms>
  150.7275  134.5506  159.5792 H   0  0  0  0  0  0  0  0  0  0  0  0  # atno 6907 bound_to 6896
  152.2994  134.7626  160.0370 H   0  0  0  0  0  0  0  0  0  0  0  0  # atno 6908 bound_to 6896
  151.8211  133.3359  159.3621 H   0  0  0  0  0  0  0  0  0  0  0  0  # atno 6909 bound_to 6896
  145.5848  140.9441  143.1324 H   0  0  0  0  0  0  0  0  0  0  0  0  # atno 7974 bound_to 7965
  155.1998  140.0415  157.2915 H   0  0  0  0  0  0  0  0  0  0  0  0  # atno 8008 bound_to 7997
  154.6082  140.2470  155.7674 H   0  0  0  0  0  0  0  0  0  0  0  0  # atno 8009 bound_to 7997
  156.2363  140.2920  156.0331 H   0  0  0  0  0  0  0  0  0  0  0  0  # atno 8010 bound_to 7997
  139.6898  144.7109  151.1368 H   0  0  0  0  0  0  0  0  0  0  0  0  # atno 10167 bound_to 10162
  156.0828  130.4214  150.1194 H   0  0  0  0  0  0  0  0  0  0  0  0  # atno 10718 bound_to 10713
  154.0051  135.2919  155.3398 H   0  0  0  0  0  0  0  0  0  0  0  0  # atno 10763 bound_to 10752
  154.7136  135.5139  153.8707 H   0  0  0  0  0  0  0  0  0  0  0  0  # atno 10764 bound_to 10752
  153.0748  135.6660  154.0289 H   0  0  0  0  0  0  0  0  0  0  0  0  # atno 10765 bound_to 10752
  139.8775  134.9013  156.4344 H   0  0  0  0  0  0  0  0  0  0  0  0  # atno 11005 bound_to 11000
  144.7378  139.7536  143.7322 LP  0  0  0  0  0  0  0  0  0  0  0  0  # atno 17320 bound_to 7965
  146.1690  139.4833  142.9939 LP  0  0  0  0  0  0  0  0  0  0  0  0  # atno 17321 bound_to 7965
  140.7679  143.5576  150.9135 LP  0  0  0  0  0  0  0  0  0  0  0  0  # atno 17342 bound_to 10162
  139.9252  143.6558  152.3088 LP  0  0  0  0  0  0  0  0  0  0  0  0  # atno 17343 bound_to 10162
  156.9221  130.9686  151.3547 LP  0  0  0  0  0  0  0  0  0  0  0  0  # atno 17370 bound_to 10713
  157.5952  130.8472  149.8718 LP  0  0  0  0  0  0  0  0  0  0  0  0  # atno 17371 bound_to 10713
  140.9044  133.7756  155.9717 LP  0  0  0  0  0  0  0  0  0  0  0  0  # atno 17394 bound_to 11000
  140.8616  134.2834  157.5232 LP  0  0  0  0  0  0  0  0  0  0  0  0  # atno 17395 bound_to 11000

$$$$
