AV-unprocessed.smi:100|AV-procd|sdf|905|dock5
  -GOLD-   2262017403D 1   1.00000     0.00000
 Structure written by MMmdl.
 31 33  0  0  0  0  0  0  0  0  1 V2000
  144.0625  141.9722  154.9741 N   0  0  0  0  0  0  0  0  0  0  0  0
  145.2561  142.0574  155.5771 C   0  0  0  0  0  0  0  0  0  0  0  0
  145.3407  142.7357  156.7461 N   0  0  0  0  0  0  0  0  0  0  0  0
  146.5211  142.8334  157.3678 C   0  0  0  0  0  0  0  0  0  0  0  0
  147.7057  142.3379  156.9971 N   0  0  0  0  0  0  0  0  0  0  0  0
  147.6144  141.6565  155.8177 C   0  0  0  0  0  0  0  0  0  0  0  0
  146.4332  141.4696  155.0495 C   0  0  0  0  0  0  0  0  0  0  0  0
  146.7216  140.7231  153.9148 N   0  0  0  0  0  0  0  0  0  0  0  0
  148.0025  140.4835  154.0127 C   0  0  0  0  0  0  0  0  0  0  0  0
  148.6172  141.0081  155.1313 N   0  0  0  0  0  0  0  0  0  0  0  0
  150.0536  140.9296  155.5536 C   0  0  2  0  0  0  0  0  0  0  0  0
  150.7595  140.2124  154.5823 O   0  0  0  0  0  0  0  0  0  0  0  0
  151.0176  138.8938  155.0540 C   0  0  1  0  0  0  0  0  0  0  0  0
  152.1935  138.2712  154.2881 C   0  0  0  0  0  0  0  0  0  0  0  0
  151.9140  136.9183  153.9989 O   0  0  0  0  0  0  0  0  0  0  0  0
  151.3179  139.1741  156.5233 C   0  0  2  0  0  0  0  0  0  0  0  0
  151.3207  138.0857  157.2953 F   0  0  0  0  0  0  0  0  0  0  0  0
  150.2381  140.1786  156.8952 C   0  0  2  0  0  0  0  0  0  0  0  0
  149.0662  139.5218  157.3528 O   0  0  0  0  0  0  0  0  0  0  0  0
  143.9761  141.4701  154.1020 H   0  0  0  0  0  0  0  0  0  0  0  0
  143.2532  142.4071  155.3926 H   0  0  0  0  0  0  0  0  0  0  0  0
  146.5154  143.3873  158.2950 H   0  0  0  0  0  0  0  0  0  0  0  0
  148.5324  139.9138  153.2634 H   0  0  0  0  0  0  0  0  0  0  0  0
  150.3957  141.9653  155.5752 H   0  0  0  0  0  0  0  0  0  0  0  0
  150.1210  138.2763  154.9723 H   0  0  0  0  0  0  0  0  0  0  0  0
  152.4064  138.8208  153.3706 H   0  0  0  0  0  0  0  0  0  0  0  0
  153.0956  138.2965  154.9001 H   0  0  0  0  0  0  0  0  0  0  0  0
  151.5957  136.8599  153.1109 H   0  0  0  0  0  0  0  0  0  0  0  0
  152.3014  139.6366  156.6206 H   0  0  0  0  0  0  0  0  0  0  0  0
  150.5789  140.8720  157.6647 H   0  0  0  0  0  0  0  0  0  0  0  0
  148.8843  139.8151  158.2328 H   0  0  0  0  0  0  0  0  0  0  0  0
  1  2  1  0  0  0  0
  1 20  1  0  0  0  0
  1 21  1  0  0  0  0
  2  7  1  0  0  0  0
  2  3  2  0  0  0  0
  3  4  1  0  0  0  0
  4  5  2  0  0  0  0
  4 22  1  0  0  0  0
  5  6  1  0  0  0  0
  6 10  1  0  0  0  0
  6  7  2  0  0  0  0
  7  8  1  0  0  0  0
  8  9  2  0  0  0  0
  9 10  1  0  0  0  0
  9 23  1  0  0  0  0
 10 11  1  0  0  0  0
 11 18  1  0  0  0  0
 11 12  1  0  0  0  0
 11 24  1  0  0  0  0
 12 13  1  0  0  0  0
 13 14  1  0  0  0  0
 13 16  1  0  0  0  0
 13 25  1  0  0  0  0
 14 15  1  0  0  0  0
 14 26  1  0  0  0  0
 14 27  1  0  0  0  0
 15 28  1  0  0  0  0
 16 17  1  0  0  0  0
 16 18  1  0  0  0  0
 16 29  1  0  0  0  0
 18 19  1  0  0  0  0
 18 30  1  0  0  0  0
 19 31  1  0  0  0  0
M  END
> <s_m_source_file>
AV-unprocessed.smi

> <i_m_source_file_index>
100

> <i_lp_mmshare_version>
43012

> <i_f3d_flags>
0

> <s_epik_input>
bjFbY0hdbmMoW05IMl0pYyhjMTIpbltjSF1uMltDQEBIXTNPW0NAQEhdKFtDSDJdW09IXSlbQ0BIXShGKVtDQEhdM1tPSF0=

> <s_epik_cmdline>
J2VwaWtfcHl0aG9uJywgJy1waCcsICc3LjAnLCAnLXRuJywgJzgnLCAnLW1hJywgJzIwMCcsICctbWV0YWxfYmluZGluZycsICctaW1hZScsICc8aW5maWxlLm1hZT4nLCAnLW9tYWUnLCAnPG91dGZpbGUubWFlPic=

> <r_lp_tautomer_probability>
1

> <r_epik_Ionization_Penalty>
0.000750324

> <r_epik_Ionization_Penalty_Charging>
0

> <r_epik_Ionization_Penalty_Neutral>
0.000750324

> <r_epik_State_Penalty>
-0

> <r_epik_Charging_Adjusted_Penalty>
0

> <i_epik_Tot_Q>
0

> <i_epik_Tot_abs_Q>
0

> <r_epik_Metal_State_Penalty>
-0

> <b_epik_Metal_Only>
0

> <s_epik_Chemistry_Notes>
This compound contains an acetal/aminal-like group ( X-CH(R)-Y where X, Y are N, S, or O) that may be acid/base labile, releasing an aldehyde.

> <s_lp_Force_Field>
OPLS_2005

> <r_lp_Energy>
36.1234

> <b_lp_Chiralities_Consistent>
1

> <s_lp_Variant>
AV-unprocessed.smi:100-9

> <Gold.Version>
5.8.1

> <Gold.Id.Protein>
6NUR|6NUR_protein|mol2

> <Gold.PLP.Fitness>
38.0962

> <Gold.PLP.PLP>
-24.3474

> <Gold.PLP.part.hbond>
-4.2809

> <Gold.PLP.part.metal>
0.0000

> <Gold.PLP.part.buried>
-6.5009

> <Gold.PLP.part.nonpolar>
-15.8185

> <Gold.PLP.part.repulsive>
1.3006

> <Gold.PLP.ligand.clash>
0.0000

> <Gold.PLP.ligand.torsion>
0.6416

> <Gold.PLP.Chemscore.Hbond>
4.0000

> <Gold.PLP.Chemscore.CHOScore>
1.0000

> <Gold.PLP.Chemscore.Metal>
0.0000

> <Gold.Chemscore.Hbonds>
donor molecule, donor type, donor heavy atom, donor atom, acceptor molecule, acceptor atom, score
      L1  H     1    20       P1 10175  0.95
      L1  H    15    28       P1  7949  1.00
      P1  H  7989  7998       L1    12  1.00
      P1  H 10752 10765       L1    15  0.89
      L1  C     9    23       P1  7957  1.00

> <Gold.PLP.Chemscore.Internal.Correction>
0.0321

> <Gold.Rescore>
     Score         DG    S(hbond)    S(metal)    S(lipo)     H(rot)  DE(clash)    DE(int)     intcor
     10.92     -12.17       3.47        0.00      27.95       3.19       0.42       0.83       ----

> <Gold.Chemscore.Fitness>
10.9167

> <Gold.Chemscore.DG>
-12.1667

> <Gold.Chemscore.ZeroCoef>
-5.4800

> <Gold.Chemscore.Hbond>
3.4681

> <Gold.Chemscore.Metal>
0.0000

> <Gold.Chemscore.Lipo>
27.9484

> <Gold.Chemscore.Internal_Hbond>
0.0000

> <Gold.Chemscore.DEClash>
0.4212

> <Gold.Chemscore.DEInternal>
0.8288

> <Gold.Chemscore.Rot>
3.1901

> <Gold.Chemscore.Internal.Correction>
   9.000000E+99

> <Gold.Chemscore.Hbonds>
donor molecule, donor type, donor heavy atom, donor atom, acceptor molecule, acceptor atom, score
      L1  H     1    20       P1 10175  0.22
      L1  H    15    28       P1  7949  0.94
      P1  H  7989  7998       L1    12  0.93
      P1  H 10752 10765       L1    15  0.17

> <Gold.Chemscore.Hbond.Weighted>
-11.5834

> <Gold.Chemscore.Metal.Weighted>
-0.0000

> <Gold.Chemscore.Lipo.Weighted>
-3.2700

> <Gold.Chemscore.Internal_Hbond.Weighted>
0.0000

> <Gold.Chemscore.DEClash.Weighted>
0.4212

> <Gold.Chemscore.DEInternal.Weighted>
0.8288

> <Gold.Chemscore.Rot.Weighted>
8.1667

> <Gold.Chemscore.Internal.Correction.Weighted>
   9.000000E+99

> <Gold.Protein.RotatedTorsions>
[ 6907 6896 6895 6894 ] final   34.84 input  -60.11 | X-H torsion
[ 7974 7965 7964 7962 ] final   17.10 input  175.53 | X-H torsion
[ 8008 7997 7996 7995 ] final  -95.93 input   59.86 | X-H torsion
[ 10167 10162 10161 10158 ] final  142.59 input  -65.29 | X-H torsion
[ 10718 10713 10712 10709 ] final  -38.95 input   66.30 | X-H torsion
[ 10763 10752 10751 10750 ] final  136.86 input  -60.55 | X-H torsion
[ 11005 11000 10999 10996 ] final -127.00 input  -57.11 | X-H torsion

> <Gold.Protein.ActiveResidues>
 VAL166  LYS551  ARG553  GLY616  TRP617  ASP618  TYR619  PRO620  LYS621  CYS622 
 ASP623  PHE694  ASN695  SER759  ASP760  ASP761  ALA762  ILE779  LEU786  VAL792 
 PHE793  MET794  SER795  GLU796  ALA797  LYS798  CYS799  TRP800  GLU811  SER814 

> <Gold.Protein.RotatedAtoms>
  152.1080  134.9295  160.0567 H   0  0  0  0  0  0  0  0  0  0  0  0  # atno 6907 bound_to 6896
  152.0483  133.4003  159.4374 H   0  0  0  0  0  0  0  0  0  0  0  0  # atno 6908 bound_to 6896
  150.6842  134.3257  159.4849 H   0  0  0  0  0  0  0  0  0  0  0  0  # atno 6909 bound_to 6896
  146.2229  139.8651  142.8597 H   0  0  0  0  0  0  0  0  0  0  0  0  # atno 7974 bound_to 7965
  154.7679  140.0475  157.1027 H   0  0  0  0  0  0  0  0  0  0  0  0  # atno 8008 bound_to 7997
  154.9857  140.3107  155.4908 H   0  0  0  0  0  0  0  0  0  0  0  0  # atno 8009 bound_to 7997
  156.2916  140.2228  156.4959 H   0  0  0  0  0  0  0  0  0  0  0  0  # atno 8010 bound_to 7997
  139.4990  144.6096  151.6300 H   0  0  0  0  0  0  0  0  0  0  0  0  # atno 10167 bound_to 10162
  156.2980  130.4236  149.8172 H   0  0  0  0  0  0  0  0  0  0  0  0  # atno 10718 bound_to 10713
  153.8635  135.3064  155.3439 H   0  0  0  0  0  0  0  0  0  0  0  0  # atno 10763 bound_to 10752
  154.7838  135.4821  153.9904 H   0  0  0  0  0  0  0  0  0  0  0  0  # atno 10764 bound_to 10752
  153.1448  135.6831  153.9067 H   0  0  0  0  0  0  0  0  0  0  0  0  # atno 10765 bound_to 10752
  140.9635  134.0903  157.3944 H   0  0  0  0  0  0  0  0  0  0  0  0  # atno 11005 bound_to 11000
  145.2664  141.0094  143.3797 LP  0  0  0  0  0  0  0  0  0  0  0  0  # atno 17320 bound_to 7965
  144.9257  139.4358  143.6519 LP  0  0  0  0  0  0  0  0  0  0  0  0  # atno 17321 bound_to 7965
  140.5768  144.0015  150.6246 LP  0  0  0  0  0  0  0  0  0  0  0  0  # atno 17342 bound_to 10162
  140.3151  143.3173  152.0840 LP  0  0  0  0  0  0  0  0  0  0  0  0  # atno 17343 bound_to 10162
  156.5561  130.8363  151.3314 LP  0  0  0  0  0  0  0  0  0  0  0  0  # atno 17370 bound_to 10713
  157.7360  130.9772  150.2114 LP  0  0  0  0  0  0  0  0  0  0  0  0  # atno 17371 bound_to 10713
  139.8886  135.0099  156.6632 LP  0  0  0  0  0  0  0  0  0  0  0  0  # atno 17394 bound_to 11000
  140.7433  133.8959  155.8293 LP  0  0  0  0  0  0  0  0  0  0  0  0  # atno 17395 bound_to 11000

$$$$
