AV-unprocessed.smi:1172|AV-procd|sdf|4944|dock7
  -GOLD-   22720 3533D 1   1.00000     0.00000
 Structure written by MMmdl.
 36 37  0  0  0  0  0  0  0  0  1 V2000
  149.5214  131.9353  157.4532 N   0  0  0  0  0  0  0  0  0  0  0  0
  150.8184  131.6170  157.4214 C   0  0  0  0  0  0  0  0  0  0  0  0
  151.5578  131.7776  158.3901 O   0  0  0  0  0  0  0  0  0  0  0  0
  151.3629  131.0259  156.1194 C   0  0  0  0  0  0  0  0  0  0  0  0
  150.3411  130.9839  155.0883 N   0  0  0  0  0  0  0  0  0  0  0  0
  149.7250  132.0451  154.4542 C   0  0  0  0  0  0  0  0  0  0  0  0
  148.8467  131.4880  153.5684 C   0  0  0  0  0  0  0  0  0  0  0  0
  147.9545  132.1200  152.6656 N   0  0  0  0  0  0  0  0  0  0  0  0
  147.0207  133.0500  152.9431 C   0  0  0  0  0  0  0  0  0  0  0  0
  146.8883  133.5576  154.0576 O   0  0  0  0  0  0  0  0  0  0  0  0
  146.2788  133.4309  151.8718 N   0  0  0  0  0  0  0  0  0  0  0  0
  146.4983  133.0138  150.4750 C   0  0  0  0  0  0  0  0  0  0  0  0
  145.4621  131.9340  150.1110 C   0  0  0  0  0  0  0  0  0  0  0  0
  144.0285  132.4502  150.3369 C   0  0  0  0  0  0  0  0  0  0  0  0
  143.8618  133.0610  151.7430 C   0  0  2  0  0  0  0  0  0  0  0  0
  142.5995  133.6855  151.8395 O   0  0  0  0  0  0  0  0  0  0  0  0
  144.9744  134.0885  152.0293 C   0  0  0  0  0  0  0  0  0  0  0  0
  148.9810  130.0838  153.7214 C   0  0  0  0  0  0  0  0  0  0  0  0
  149.8862  129.7864  154.6408 N   0  0  0  0  0  0  0  0  0  0  0  0
  149.1245  132.3314  158.2930 H   0  0  0  0  0  0  0  0  0  0  0  0
  148.9429  131.7835  156.6399 H   0  0  0  0  0  0  0  0  0  0  0  0
  152.2090  131.6173  155.7654 H   0  0  0  0  0  0  0  0  0  0  0  0
  151.7312  130.0140  156.2932 H   0  0  0  0  0  0  0  0  0  0  0  0
  149.9661  133.0709  154.6901 H   0  0  0  0  0  0  0  0  0  0  0  0
  148.0111  131.8132  151.7055 H   0  0  0  0  0  0  0  0  0  0  0  0
  146.3782  133.8785  149.8208 H   0  0  0  0  0  0  0  0  0  0  0  0
  147.5026  132.6407  150.2754 H   0  0  0  0  0  0  0  0  0  0  0  0
  145.5878  131.6261  149.0728 H   0  0  0  0  0  0  0  0  0  0  0  0
  145.6319  131.0454  150.7206 H   0  0  0  0  0  0  0  0  0  0  0  0
  143.8075  133.2074  149.5832 H   0  0  0  0  0  0  0  0  0  0  0  0
  143.3100  131.6442  150.1845 H   0  0  0  0  0  0  0  0  0  0  0  0
  143.9026  132.2670  152.4901 H   0  0  0  0  0  0  0  0  0  0  0  0
  142.1741  133.6362  150.9970 H   0  0  0  0  0  0  0  0  0  0  0  0
  144.8429  134.5244  153.0210 H   0  0  0  0  0  0  0  0  0  0  0  0
  144.9085  134.9243  151.3308 H   0  0  0  0  0  0  0  0  0  0  0  0
  148.4635  129.2872  153.2077 H   0  0  0  0  0  0  0  0  0  0  0  0
  1  2  1  0  0  0  0
  1 20  1  0  0  0  0
  1 21  1  0  0  0  0
  2  3  2  0  0  0  0
  2  4  1  0  0  0  0
  4  5  1  0  0  0  0
  4 22  1  0  0  0  0
  4 23  1  0  0  0  0
  5 19  1  0  0  0  0
  5  6  1  0  0  0  0
  6  7  2  0  0  0  0
  6 24  1  0  0  0  0
  7  8  1  0  0  0  0
  7 18  1  0  0  0  0
  8  9  1  0  0  0  0
  8 25  1  0  0  0  0
  9 10  2  0  0  0  0
  9 11  1  0  0  0  0
 11 17  1  0  0  0  0
 11 12  1  0  0  0  0
 12 13  1  0  0  0  0
 12 26  1  0  0  0  0
 12 27  1  0  0  0  0
 13 14  1  0  0  0  0
 13 28  1  0  0  0  0
 13 29  1  0  0  0  0
 14 15  1  0  0  0  0
 14 30  1  0  0  0  0
 14 31  1  0  0  0  0
 15 16  1  0  0  0  0
 15 17  1  0  0  0  0
 15 32  1  0  0  0  0
 16 33  1  0  0  0  0
 17 34  1  0  0  0  0
 17 35  1  0  0  0  0
 18 19  2  0  0  0  0
 18 36  1  0  0  0  0
M  END
> <s_m_source_file>
AV-unprocessed.smi

> <i_m_source_file_index>
1172

> <i_lp_mmshare_version>
43012

> <i_f3d_flags>
0

> <s_epik_input>
W05IMl1DKD1PKVtDSDJdbjFbY0hdYyhbY0hdbjEpW05IXUMoPU8pTjJbQ0gyXVtDSDJdW0NIMl1bQ0BASF0oW09IXSlbQ0gyXTI=

> <s_epik_cmdline>
J2VwaWtfcHl0aG9uJywgJy1waCcsICc3LjAnLCAnLXRuJywgJzgnLCAnLW1hJywgJzIwMCcsICctbWV0YWxfYmluZGluZycsICctaW1hZScsICc8aW5maWxlLm1hZT4nLCAnLW9tYWUnLCAnPG91dGZpbGUubWFlPic=

> <r_lp_tautomer_probability>
1

> <r_epik_Ionization_Penalty>
4.44977e-05

> <r_epik_Ionization_Penalty_Charging>
0

> <r_epik_Ionization_Penalty_Neutral>
4.44977e-05

> <r_epik_State_Penalty>
-0

> <r_epik_Charging_Adjusted_Penalty>
0

> <i_epik_Tot_Q>
0

> <i_epik_Tot_abs_Q>
0

> <r_epik_Metal_State_Penalty>
-0

> <b_epik_Metal_Only>
0

> <s_lp_Force_Field>
OPLS_2005

> <r_lp_Energy>
32.958

> <b_lp_Chiralities_Consistent>
1

> <s_lp_Variant>
AV-unprocessed.smi:1172-2

> <Gold.Version>
5.8.1

> <Gold.Id.Protein>
6NUR|6NUR_protein|mol2

> <Gold.PLP.Fitness>
41.0316

> <Gold.PLP.PLP>
-33.4442

> <Gold.PLP.part.hbond>
-3.0000

> <Gold.PLP.part.metal>
0.0000

> <Gold.PLP.part.buried>
-5.5521

> <Gold.PLP.part.nonpolar>
-24.8567

> <Gold.PLP.part.repulsive>
0.2043

> <Gold.PLP.ligand.clash>
0.0000

> <Gold.PLP.ligand.torsion>
0.6576

> <Gold.PLP.Chemscore.Hbond>
2.9520

> <Gold.PLP.Chemscore.CHOScore>
0.0000

> <Gold.PLP.Chemscore.Metal>
0.0000

> <Gold.Chemscore.Hbonds>
donor molecule, donor type, donor heavy atom, donor atom, acceptor molecule, acceptor atom, score
      L1  H     8    25       P1 10747  0.98
      L1  H    16    33       P1 10186  1.00
      P1  H  6896  6908       L1     3  1.00

> <Gold.PLP.Chemscore.Internal.Correction>
0.0467

> <Gold.Rescore>
     Score         DG    S(hbond)    S(metal)    S(lipo)     H(rot)  DE(clash)    DE(int)     intcor
     14.92     -16.42       2.71        0.00      64.28       2.20       0.10       1.39       ----

> <Gold.Chemscore.Fitness>
14.9232

> <Gold.Chemscore.DG>
-16.4229

> <Gold.Chemscore.ZeroCoef>
-5.4800

> <Gold.Chemscore.Hbond>
2.7081

> <Gold.Chemscore.Metal>
0.0000

> <Gold.Chemscore.Lipo>
64.2830

> <Gold.Chemscore.Internal_Hbond>
0.0000

> <Gold.Chemscore.DEClash>
0.1048

> <Gold.Chemscore.DEInternal>
1.3950

> <Gold.Chemscore.Rot>
2.1966

> <Gold.Chemscore.Internal.Correction>
   9.000000E+99

> <Gold.Chemscore.Hbonds>
donor molecule, donor type, donor heavy atom, donor atom, acceptor molecule, acceptor atom, score
      L1  H     8    25       P1 10747  0.92
      L1  H    16    33       P1 10186  0.55
      P1  H  6896  6908       L1     3  0.99

> <Gold.Chemscore.Hbond.Weighted>
-9.0450

> <Gold.Chemscore.Metal.Weighted>
-0.0000

> <Gold.Chemscore.Lipo.Weighted>
-7.5211

> <Gold.Chemscore.Internal_Hbond.Weighted>
0.0000

> <Gold.Chemscore.DEClash.Weighted>
0.1048

> <Gold.Chemscore.DEInternal.Weighted>
1.3950

> <Gold.Chemscore.Rot.Weighted>
5.6232

> <Gold.Chemscore.Internal.Correction.Weighted>
   9.000000E+99

> <Gold.Protein.RotatedTorsions>
[ 6907 6896 6895 6894 ] final   62.74 input  -60.11 | X-H torsion
[ 7974 7965 7964 7962 ] final   25.88 input  175.53 | X-H torsion
[ 8008 7997 7996 7995 ] final  179.44 input   59.86 | X-H torsion
[ 10167 10162 10161 10158 ] final   79.87 input  -65.29 | X-H torsion
[ 10718 10713 10712 10709 ] final  -32.87 input   66.30 | X-H torsion
[ 10763 10752 10751 10750 ] final -175.66 input  -60.55 | X-H torsion
[ 11005 11000 10999 10996 ] final  -86.24 input  -57.11 | X-H torsion

> <Gold.Protein.ActiveResidues>
 VAL166  LYS551  ARG553  GLY616  TRP617  ASP618  TYR619  PRO620  LYS621  CYS622 
 ASP623  PHE694  ASN695  SER759  ASP760  ASP761  ALA762  ILE779  LEU786  VAL792 
 PHE793  MET794  SER795  GLU796  ALA797  LYS798  CYS799  TRP800  GLU811  SER814 

> <Gold.Protein.RotatedAtoms>
  152.4197  134.5978  159.9991 H   0  0  0  0  0  0  0  0  0  0  0  0  # atno 6907 bound_to 6896
  151.6132  133.3340  159.3080 H   0  0  0  0  0  0  0  0  0  0  0  0  # atno 6908 bound_to 6896
  150.8085  134.7263  159.6732 H   0  0  0  0  0  0  0  0  0  0  0  0  # atno 6909 bound_to 6896
  146.1866  139.7405  142.8862 H   0  0  0  0  0  0  0  0  0  0  0  0  # atno 7974 bound_to 7965
  156.0433  140.1308  157.0131 H   0  0  0  0  0  0  0  0  0  0  0  0  # atno 8008 bound_to 7997
  154.4401  140.1026  156.6339 H   0  0  0  0  0  0  0  0  0  0  0  0  # atno 8009 bound_to 7997
  155.5634  140.3465  155.4499 H   0  0  0  0  0  0  0  0  0  0  0  0  # atno 8010 bound_to 7997
  139.9557  144.5995  150.8119 H   0  0  0  0  0  0  0  0  0  0  0  0  # atno 10167 bound_to 10162
  156.3696  130.4337  149.7556 H   0  0  0  0  0  0  0  0  0  0  0  0  # atno 10718 bound_to 10713
  154.5817  135.2837  155.0726 H   0  0  0  0  0  0  0  0  0  0  0  0  # atno 10763 bound_to 10752
  154.2060  135.6416  153.5105 H   0  0  0  0  0  0  0  0  0  0  0  0  # atno 10764 bound_to 10752
  153.0090  135.5480  154.6473 H   0  0  0  0  0  0  0  0  0  0  0  0  # atno 10765 bound_to 10752
  141.1632  133.7443  156.9132 H   0  0  0  0  0  0  0  0  0  0  0  0  # atno 11005 bound_to 11000
  145.3919  141.0373  143.3119 LP  0  0  0  0  0  0  0  0  0  0  0  0  # atno 17320 bound_to 7965
  144.8409  139.5474  143.6901 LP  0  0  0  0  0  0  0  0  0  0  0  0  # atno 17321 bound_to 7965
  140.7569  143.3075  151.2926 LP  0  0  0  0  0  0  0  0  0  0  0  0  # atno 17342 bound_to 10162
  139.6593  144.0219  152.2681 LP  0  0  0  0  0  0  0  0  0  0  0  0  # atno 17343 bound_to 10162
  156.4689  130.7987  151.3005 LP  0  0  0  0  0  0  0  0  0  0  0  0  # atno 17370 bound_to 10713
  157.7482  131.0042  150.3068 LP  0  0  0  0  0  0  0  0  0  0  0  0  # atno 17371 bound_to 10713
  140.1502  134.9235  157.2582 LP  0  0  0  0  0  0  0  0  0  0  0  0  # atno 17394 bound_to 11000
  140.2732  134.3436  155.7367 LP  0  0  0  0  0  0  0  0  0  0  0  0  # atno 17395 bound_to 11000

$$$$
