AV-unprocessed.smi:749|AV-procd|sdf|3587|dock6
  -GOLD-   22720 0583D 1   1.00000     0.00000
 Structure written by MMmdl.
 42 43  0  0  0  0  0  0  0  0  2 V2000
  150.6762  141.4614  157.2315 C   0  0  0  0  0  0  0  0  0  0  0  0
  151.3195  140.2457  156.7311 N   0  0  0  0  0  0  0  0  0  0  0  0
  152.1950  139.5666  157.6986 C   0  0  0  0  0  0  0  0  0  0  0  0
  152.5701  138.1270  157.3073 C   0  0  2  0  0  0  0  0  0  0  0  0
  153.6658  137.6597  158.1511 N   0  0  0  0  0  0  0  0  0  0  0  0
  154.2416  136.4417  158.1171 C   0  0  0  0  0  0  0  0  0  0  0  0
  153.8353  135.6135  157.3028 O   0  0  0  0  0  0  0  0  0  0  0  0
  155.2514  136.1926  158.9930 N   0  5  0  0  0  0  0  0  0  0  0  0
  155.0407  135.6835  160.2196 C   0  0  0  0  0  0  0  0  0  0  0  0
  155.2744  136.3532  161.4508 C   0  0  0  0  0  0  0  0  0  0  0  0
  154.9198  135.4250  162.3910 C   0  0  0  0  0  0  0  0  0  0  0  0
  154.9192  135.4236  163.8941 C   0  0  0  0  0  0  0  0  0  0  0  0
  154.4305  134.0676  164.4412 C   0  0  0  0  0  0  0  0  0  0  0  0
  153.9802  136.5256  164.4193 C   0  0  0  0  0  0  0  0  0  0  0  0
  156.3437  135.6754  164.4227 C   0  0  0  0  0  0  0  0  0  0  0  0
  154.4944  134.2857  161.7772 O   0  0  0  0  0  0  0  0  0  0  0  0
  154.5674  134.4615  160.3908 N   0  0  0  0  0  0  0  0  0  0  0  0
  152.9637  138.0828  155.8271 C   0  0  0  0  0  0  0  0  0  0  0  0
  151.8015  138.5619  154.9494 C   0  0  0  0  0  0  0  0  0  0  0  0
  151.1490  139.8627  155.4423 C   0  0  0  0  0  0  0  0  0  0  0  0
  150.4594  140.5027  154.6474 O   0  0  0  0  0  0  0  0  0  0  0  0
  149.5907  141.3577  157.2043 H   0  0  0  0  0  0  0  0  0  0  0  0
  150.9523  142.3243  156.6236 H   0  0  0  0  0  0  0  0  0  0  0  0
  150.9613  141.6849  158.2603 H   0  0  0  0  0  0  0  0  0  0  0  0
  153.0997  140.1699  157.7936 H   0  0  0  0  0  0  0  0  0  0  0  0
  151.7246  139.5562  158.6829 H   0  0  0  0  0  0  0  0  0  0  0  0
  151.6974  137.4900  157.4642 H   0  0  0  0  0  0  0  0  0  0  0  0
  154.0263  138.3182  158.8259 H   0  0  0  0  0  0  0  0  0  0  0  0
  155.6514  137.3516  161.6140 H   0  0  0  0  0  0  0  0  0  0  0  0
  154.4302  134.0545  165.5317 H   0  0  0  0  0  0  0  0  0  0  0  0
  155.0692  133.2496  164.1056 H   0  0  0  0  0  0  0  0  0  0  0  0
  153.4140  133.8477  164.1126 H   0  0  0  0  0  0  0  0  0  0  0  0
  152.9597  136.3771  164.0641 H   0  0  0  0  0  0  0  0  0  0  0  0
  154.3007  137.5145  164.0891 H   0  0  0  0  0  0  0  0  0  0  0  0
  153.9513  136.5390  165.5093 H   0  0  0  0  0  0  0  0  0  0  0  0
  156.3714  135.6702  165.5130 H   0  0  0  0  0  0  0  0  0  0  0  0
  156.7281  136.6410  164.0918 H   0  0  0  0  0  0  0  0  0  0  0  0
  157.0365  134.9096  164.0719 H   0  0  0  0  0  0  0  0  0  0  0  0
  153.8413  138.7073  155.6535 H   0  0  0  0  0  0  0  0  0  0  0  0
  153.2428  137.0692  155.5364 H   0  0  0  0  0  0  0  0  0  0  0  0
  152.1431  138.6940  153.9224 H   0  0  0  0  0  0  0  0  0  0  0  0
  151.0271  137.7945  154.9238 H   0  0  0  0  0  0  0  0  0  0  0  0
  1  2  1  0  0  0  0
  1 22  1  0  0  0  0
  1 23  1  0  0  0  0
  1 24  1  0  0  0  0
  2 20  1  0  0  0  0
  2  3  1  0  0  0  0
  3  4  1  0  0  0  0
  3 25  1  0  0  0  0
  3 26  1  0  0  0  0
  4  5  1  0  0  0  0
  4 18  1  0  0  0  0
  4 27  1  0  0  0  0
  5  6  1  0  0  0  0
  5 28  1  0  0  0  0
  6  7  2  0  0  0  0
  6  8  1  0  0  0  0
  8  9  1  0  0  0  0
  9 17  2  0  0  0  0
  9 10  1  0  0  0  0
 10 11  2  0  0  0  0
 10 29  1  0  0  0  0
 11 12  1  0  0  0  0
 11 16  1  0  0  0  0
 12 13  1  0  0  0  0
 12 14  1  0  0  0  0
 12 15  1  0  0  0  0
 13 30  1  0  0  0  0
 13 31  1  0  0  0  0
 13 32  1  0  0  0  0
 14 33  1  0  0  0  0
 14 34  1  0  0  0  0
 14 35  1  0  0  0  0
 15 36  1  0  0  0  0
 15 37  1  0  0  0  0
 15 38  1  0  0  0  0
 16 17  1  0  0  0  0
 18 19  1  0  0  0  0
 18 39  1  0  0  0  0
 18 40  1  0  0  0  0
 19 20  1  0  0  0  0
 19 41  1  0  0  0  0
 19 42  1  0  0  0  0
 20 21  2  0  0  0  0
M  CHG  1   8  -1
M  END
> <s_m_source_file>
AV-unprocessed.smi

> <i_m_source_file_index>
749

> <i_lp_mmshare_version>
43012

> <i_f3d_flags>
0

> <s_epik_input>
Tz1DMVtDSDJdW0NIMl1bQ0BASF0oW0NIMl1OMVtDSDNdKVtOSF1DKD1PKVtOSF1jMltjSF1jKG9uMilDKFtDSDNdKShbQ0gzXSlbQ0gzXQ==

> <s_epik_cmdline>
J2VwaWtfcHl0aG9uJywgJy1waCcsICc3LjAnLCAnLXRuJywgJzgnLCAnLW1hJywgJzIwMCcsICctbWV0YWxfYmluZGluZycsICctaW1hZScsICc8aW5maWxlLm1hZT4nLCAnLW9tYWUnLCAnPG91dGZpbGUubWFlPic=

> <r_lp_tautomer_probability>
1

> <r_epik_Ionization_Penalty>
6.47858

> <r_epik_Ionization_Penalty_Charging>
6.47844

> <r_epik_Ionization_Penalty_Neutral>
0.000138814

> <r_epik_State_Penalty>
6.47843

> <r_epik_Charging_Adjusted_Penalty>
12.9569

> <i_epik_Tot_Q>
-1

> <i_epik_Tot_abs_Q>
1

> <r_epik_Metal_State_Penalty>
2.40644

> <b_epik_Metal_Only>
1

> <s_lp_Force_Field>
OPLS_2005

> <r_lp_Energy>
10.0372

> <b_lp_Chiralities_Consistent>
1

> <s_lp_Variant>
AV-unprocessed.smi:749-4

> <Gold.Version>
5.8.1

> <Gold.Id.Protein>
6NUR|6NUR_protein|mol2

> <Gold.PLP.Fitness>
36.3009

> <Gold.PLP.PLP>
-30.5448

> <Gold.PLP.part.hbond>
-2.8908

> <Gold.PLP.part.metal>
0.0000

> <Gold.PLP.part.buried>
-3.3013

> <Gold.PLP.part.nonpolar>
-25.6076

> <Gold.PLP.part.repulsive>
0.2190

> <Gold.PLP.ligand.clash>
0.0000

> <Gold.PLP.ligand.torsion>
1.3763

> <Gold.PLP.Chemscore.Hbond>
2.8288

> <Gold.PLP.Chemscore.CHOScore>
0.0000

> <Gold.PLP.Chemscore.Metal>
0.0000

> <Gold.Chemscore.Hbonds>
donor molecule, donor type, donor heavy atom, donor atom, acceptor molecule, acceptor atom, score
      P1  H  6896  6909       L1    17  0.90
      P1  H  7989  7998       L1    21  1.00
      P1  H 10752 10764       L1     7  1.00

> <Gold.PLP.Chemscore.Internal.Correction>
0.0224

> <Gold.Rescore>
     Score         DG    S(hbond)    S(metal)    S(lipo)     H(rot)  DE(clash)    DE(int)     intcor
     16.18     -17.58       2.22        0.00      66.73       1.22       0.03       1.36       ----

> <Gold.Chemscore.Fitness>
16.1845

> <Gold.Chemscore.DG>
-17.5757

> <Gold.Chemscore.ZeroCoef>
-5.4800

> <Gold.Chemscore.Hbond>
2.2188

> <Gold.Chemscore.Metal>
0.0000

> <Gold.Chemscore.Lipo>
66.7327

> <Gold.Chemscore.Internal_Hbond>
0.0000

> <Gold.Chemscore.DEClash>
0.0282

> <Gold.Chemscore.DEInternal>
1.3630

> <Gold.Chemscore.Rot>
1.2198

> <Gold.Chemscore.Internal.Correction>
   9.000000E+99

> <Gold.Chemscore.Hbonds>
donor molecule, donor type, donor heavy atom, donor atom, acceptor molecule, acceptor atom, score
      P1  H  6896  6909       L1    17  0.13
      P1  H  7989  7998       L1    21  0.24
      P1  H 10752 10764       L1     7  1.00

> <Gold.Chemscore.Hbond.Weighted>
-7.4107

> <Gold.Chemscore.Metal.Weighted>
-0.0000

> <Gold.Chemscore.Lipo.Weighted>
-7.8077

> <Gold.Chemscore.Internal_Hbond.Weighted>
0.0000

> <Gold.Chemscore.DEClash.Weighted>
0.0282

> <Gold.Chemscore.DEInternal.Weighted>
1.3630

> <Gold.Chemscore.Rot.Weighted>
3.1228

> <Gold.Chemscore.Internal.Correction.Weighted>
   9.000000E+99

> <Gold.Protein.RotatedTorsions>
[ 6907 6896 6895 6894 ] final -167.14 input  -60.11 | X-H torsion
[ 7974 7965 7964 7962 ] final  179.08 input  175.53 | X-H torsion
[ 8008 7997 7996 7995 ] final   56.25 input   59.86 | X-H torsion
[ 10167 10162 10161 10158 ] final   42.61 input  -65.29 | X-H torsion
[ 10718 10713 10712 10709 ] final  134.60 input   66.30 | X-H torsion
[ 10763 10752 10751 10750 ] final   17.48 input  -60.55 | X-H torsion
[ 11005 11000 10999 10996 ] final  -45.53 input  -57.11 | X-H torsion

> <Gold.Protein.ActiveResidues>
 VAL166  LYS551  ARG553  GLY616  TRP617  ASP618  TYR619  PRO620  LYS621  CYS622 
 ASP623  PHE694  ASN695  SER759  ASP760  ASP761  ALA762  ILE779  LEU786  VAL792 
 PHE793  MET794  SER795  GLU796  ALA797  LYS798  CYS799  TRP800  GLU811  SER814 

> <Gold.Protein.RotatedAtoms>
  151.4547  133.3608  159.2800 H   0  0  0  0  0  0  0  0  0  0  0  0  # atno 6907 bound_to 6896
  150.9066  134.8483  159.7407 H   0  0  0  0  0  0  0  0  0  0  0  0  # atno 6908 bound_to 6896
  152.4909  134.4473  159.9615 H   0  0  0  0  0  0  0  0  0  0  0  0  # atno 6909 bound_to 6896
  144.7149  140.0494  143.6435 H   0  0  0  0  0  0  0  0  0  0  0  0  # atno 7974 bound_to 7965
  155.5144  140.3478  155.4394 H   0  0  0  0  0  0  0  0  0  0  0  0  # atno 8008 bound_to 7997
  156.0827  140.1390  156.9719 H   0  0  0  0  0  0  0  0  0  0  0  0  # atno 8009 bound_to 7997
  154.4589  140.0942  156.6813 H   0  0  0  0  0  0  0  0  0  0  0  0  # atno 8010 bound_to 7997
  140.3527  144.2329  150.6144 H   0  0  0  0  0  0  0  0  0  0  0  0  # atno 10167 bound_to 10162
  157.4656  131.1076  150.9867 H   0  0  0  0  0  0  0  0  0  0  0  0  # atno 10718 bound_to 10713
  153.1335  135.6745  153.9139 H   0  0  0  0  0  0  0  0  0  0  0  0  # atno 10763 bound_to 10752
  153.8618  135.3080  155.3439 H   0  0  0  0  0  0  0  0  0  0  0  0  # atno 10764 bound_to 10752
  154.7728  135.4930  153.9765 H   0  0  0  0  0  0  0  0  0  0  0  0  # atno 10765 bound_to 10752
  141.0521  133.6739  156.3027 H   0  0  0  0  0  0  0  0  0  0  0  0  # atno 11005 bound_to 11000
  145.9957  139.3050  143.0958 LP  0  0  0  0  0  0  0  0  0  0  0  0  # atno 17320 bound_to 7965
  145.8852  140.9338  143.0581 LP  0  0  0  0  0  0  0  0  0  0  0  0  # atno 17321 bound_to 7965
  140.5203  143.2267  151.8399 LP  0  0  0  0  0  0  0  0  0  0  0  0  # atno 17342 bound_to 10162
  139.4824  144.4844  151.9265 LP  0  0  0  0  0  0  0  0  0  0  0  0  # atno 17343 bound_to 10162
  157.0649  130.5840  149.5392 LP  0  0  0  0  0  0  0  0  0  0  0  0  # atno 17370 bound_to 10713
  156.0049  130.5134  150.7793 LP  0  0  0  0  0  0  0  0  0  0  0  0  # atno 17371 bound_to 10713
  140.6034  134.5531  157.5521 LP  0  0  0  0  0  0  0  0  0  0  0  0  # atno 17394 bound_to 11000
  139.9359  134.7876  156.0803 LP  0  0  0  0  0  0  0  0  0  0  0  0  # atno 17395 bound_to 11000

$$$$
