AV-unprocessed.smi:198|AV-procd|sdf|1553|dock8
  -GOLD-   2262019423D 1   1.00000     0.00000
 Structure written by MMmdl.
 59 63  0  0  0  0  0  0  0  0  2 V2000
  148.3840  141.9959  157.5805 C   0  0  0  0  0  0  0  0  0  0  0  0
  149.6492  142.5146  157.0102 N   0  3  2  0  0  0  0  0  0  0  0  0
  150.1300  141.7536  155.8296 C   0  0  0  0  0  0  0  0  0  0  0  0
  150.7327  140.3960  156.2284 C   0  0  0  0  0  0  0  0  0  0  0  0
  151.8586  140.5734  157.2721 C   0  0  1  0  0  0  0  0  0  0  0  0
  151.3583  141.3949  158.4840 C   0  0  1  0  0  0  0  0  0  0  0  0
  152.5237  141.6463  159.4602 C   0  0  0  0  0  0  0  0  0  0  0  0
  153.1815  140.3240  159.8840 C   0  0  0  0  0  0  0  0  0  0  0  0
  153.5922  139.4825  158.6583 C   0  0  0  0  0  0  0  0  0  0  0  0
  152.4948  139.3204  157.7031 N   0  0  0  0  0  0  0  0  0  0  0  0
  151.7021  138.2377  157.8917 C   0  0  0  0  0  0  0  0  0  0  0  0
  151.1706  137.9818  159.1150 N   0  0  0  0  0  0  0  0  0  0  0  0
  150.3656  136.9295  159.2885 C   0  0  0  0  0  0  0  0  0  0  0  0
  149.9667  136.0267  158.3897 N   0  0  0  0  0  0  0  0  0  0  0  0
  150.5018  136.2798  157.1605 C   0  0  0  0  0  0  0  0  0  0  0  0
  151.3713  137.3556  156.8288 C   0  0  0  0  0  0  0  0  0  0  0  0
  151.7018  137.3043  155.4814 N   0  0  0  0  0  0  0  0  0  0  0  0
  151.0587  136.2584  155.0386 C   0  0  0  0  0  0  0  0  0  0  0  0
  150.3231  135.5744  155.9828 N   0  0  0  0  0  0  0  0  0  0  0  0
  149.5012  134.4151  155.7775 C   0  0  0  0  0  0  0  0  0  0  0  0
  150.0655  133.0911  155.2555 C   0  0  0  0  0  0  0  0  0  0  0  0
  148.7218  132.8161  154.5395 C   0  0  0  0  0  0  0  0  0  0  0  0
  148.8133  132.2447  153.1136 C   0  0  0  0  0  0  0  0  0  0  0  0
  147.5772  132.3177  152.4331 O   0  0  0  0  0  0  0  0  0  0  0  0
  147.6659  132.0225  155.3378 C   0  0  0  0  0  0  0  0  0  0  0  0
  146.4056  132.0234  154.6996 O   0  0  0  0  0  0  0  0  0  0  0  0
  148.5294  134.3492  154.5998 C   0  0  0  0  0  0  0  0  0  0  0  0
  150.7195  142.7218  158.0190 C   0  0  0  0  0  0  0  0  0  0  0  0
  148.5032  140.9975  158.0010 H   0  0  0  0  0  0  0  0  0  0  0  0
  147.6106  141.9490  156.8136 H   0  0  0  0  0  0  0  0  0  0  0  0
  148.0245  142.6549  158.3717 H   0  0  0  0  0  0  0  0  0  0  0  0
  149.3157  141.6158  155.1171 H   0  0  0  0  0  0  0  0  0  0  0  0
  150.8865  142.3508  155.3191 H   0  0  0  0  0  0  0  0  0  0  0  0
  149.9396  139.7548  156.6141 H   0  0  0  0  0  0  0  0  0  0  0  0
  151.1248  139.9009  155.3397 H   0  0  0  0  0  0  0  0  0  0  0  0
  152.6469  141.1505  156.7860 H   0  0  0  0  0  0  0  0  0  0  0  0
  150.5993  140.8172  159.0126 H   0  0  0  0  0  0  0  0  0  0  0  0
  153.2708  142.2848  158.9867 H   0  0  0  0  0  0  0  0  0  0  0  0
  152.1705  142.1822  160.3418 H   0  0  0  0  0  0  0  0  0  0  0  0
  154.0568  140.5258  160.5019 H   0  0  0  0  0  0  0  0  0  0  0  0
  152.4928  139.7628  160.5151 H   0  0  0  0  0  0  0  0  0  0  0  0
  154.4197  139.9700  158.1415 H   0  0  0  0  0  0  0  0  0  0  0  0
  153.9625  138.5073  158.9784 H   0  0  0  0  0  0  0  0  0  0  0  0
  149.9857  136.7914  160.2901 H   0  0  0  0  0  0  0  0  0  0  0  0
  151.1051  135.9632  154.0009 H   0  0  0  0  0  0  0  0  0  0  0  0
  148.9745  134.2414  156.7174 H   0  0  0  0  0  0  0  0  0  0  0  0
  150.8908  133.2144  154.5533 H   0  0  0  0  0  0  0  0  0  0  0  0
  150.3273  132.3771  156.0367 H   0  0  0  0  0  0  0  0  0  0  0  0
  149.5716  132.7638  152.5265 H   0  0  0  0  0  0  0  0  0  0  0  0
  149.1101  131.1957  153.1365 H   0  0  0  0  0  0  0  0  0  0  0  0
  147.7076  132.0306  151.5421 H   0  0  0  0  0  0  0  0  0  0  0  0
  147.9663  130.9823  155.4658 H   0  0  0  0  0  0  0  0  0  0  0  0
  147.5488  132.4270  156.3439 H   0  0  0  0  0  0  0  0  0  0  0  0
  146.2487  131.1590  154.3497 H   0  0  0  0  0  0  0  0  0  0  0  0
  147.5166  134.6781  154.8342 H   0  0  0  0  0  0  0  0  0  0  0  0
  148.9121  134.8683  153.7189 H   0  0  0  0  0  0  0  0  0  0  0  0
  151.4839  143.3603  157.5736 H   0  0  0  0  0  0  0  0  0  0  0  0
  150.3199  143.2737  158.8708 H   0  0  0  0  0  0  0  0  0  0  0  0
  149.4177  143.4354  156.6649 H   0  0  0  0  0  0  0  0  0  0  0  0
  1  2  1  0  0  0  0
  1 29  1  0  0  0  0
  1 30  1  0  0  0  0
  1 31  1  0  0  0  0
  2 28  1  0  0  0  0
  2  3  1  0  0  0  0
  2 59  1  0  0  0  0
  3  4  1  0  0  0  0
  3 32  1  0  0  0  0
  3 33  1  0  0  0  0
  4  5  1  0  0  0  0
  4 34  1  0  0  0  0
  4 35  1  0  0  0  0
  5 10  1  0  0  0  0
  5  6  1  0  0  0  0
  5 36  1  0  0  0  0
  6  7  1  0  0  0  0
  6 28  1  0  0  0  0
  6 37  1  0  0  0  0
  7  8  1  0  0  0  0
  7 38  1  0  0  0  0
  7 39  1  0  0  0  0
  8  9  1  0  0  0  0
  8 40  1  0  0  0  0
  8 41  1  0  0  0  0
  9 10  1  0  0  0  0
  9 42  1  0  0  0  0
  9 43  1  0  0  0  0
 10 11  1  0  0  0  0
 11 16  1  0  0  0  0
 11 12  2  0  0  0  0
 12 13  1  0  0  0  0
 13 14  2  0  0  0  0
 13 44  1  0  0  0  0
 14 15  1  0  0  0  0
 15 19  1  0  0  0  0
 15 16  2  0  0  0  0
 16 17  1  0  0  0  0
 17 18  2  0  0  0  0
 18 19  1  0  0  0  0
 18 45  1  0  0  0  0
 19 20  1  0  0  0  0
 20 27  1  0  0  0  0
 20 21  1  0  0  0  0
 20 46  1  0  0  0  0
 21 22  1  0  0  0  0
 21 47  1  0  0  0  0
 21 48  1  0  0  0  0
 22 23  1  0  0  0  0
 22 25  1  0  0  0  0
 22 27  1  0  0  0  0
 23 24  1  0  0  0  0
 23 49  1  0  0  0  0
 23 50  1  0  0  0  0
 24 51  1  0  0  0  0
 25 26  1  0  0  0  0
 25 52  1  0  0  0  0
 25 53  1  0  0  0  0
 26 54  1  0  0  0  0
 27 55  1  0  0  0  0
 27 56  1  0  0  0  0
 28 57  1  0  0  0  0
 28 58  1  0  0  0  0
M  CHG  1   2   1
M  END
> <s_m_source_file>
AV-unprocessed.smi

> <i_m_source_file_index>
198

> <i_lp_mmshare_version>
43012

> <i_f3d_flags>
0

> <s_epik_input>
W0NIMl0xW0NIMl1OKFtDSDNdKVtDSDJdW0NAQEhdKFtDQEhdMTIpW0NIMl1bQ0gyXVtDSDJdTjJjKG5bY0hdbjMpYyhjMzQpbltjSF1uNFtDSF0oW0NIMl01KVtDSDJdQzUoW0NIMl1bT0hdKVtDSDJdW09IXQ==

> <s_epik_cmdline>
J2VwaWtfcHl0aG9uJywgJy1waCcsICc3LjAnLCAnLXRuJywgJzgnLCAnLW1hJywgJzIwMCcsICctbWV0YWxfYmluZGluZycsICctaW1hZScsICc8aW5maWxlLm1hZT4nLCAnLW9tYWUnLCAnPG91dGZpbGUubWFlPic=

> <r_lp_tautomer_probability>
1

> <r_epik_Ionization_Penalty>
0.00239938

> <r_epik_Ionization_Penalty_Charging>
0.00138697

> <r_epik_Ionization_Penalty_Neutral>
0.00101241

> <r_epik_State_Penalty>
-0

> <r_epik_Charging_Adjusted_Penalty>
0.00138697

> <i_epik_Tot_Q>
1

> <i_epik_Tot_abs_Q>
1

> <r_epik_Metal_State_Penalty>
-0

> <b_epik_Metal_Only>
0

> <s_lp_Force_Field>
OPLS_2005

> <r_lp_Energy>
59.1545

> <b_lp_Chiralities_Consistent>
1

> <s_lp_Variant>
AV-unprocessed.smi:198-2

> <Gold.Version>
5.8.1

> <Gold.Id.Protein>
6NUR|6NUR_protein|mol2

> <Gold.PLP.Fitness>
47.7566

> <Gold.PLP.PLP>
-34.8157

> <Gold.PLP.part.hbond>
-3.7094

> <Gold.PLP.part.metal>
0.0000

> <Gold.PLP.part.buried>
-0.9170

> <Gold.PLP.part.nonpolar>
-29.4213

> <Gold.PLP.part.repulsive>
0.0747

> <Gold.PLP.ligand.clash>
0.0000

> <Gold.PLP.ligand.torsion>
0.7541

> <Gold.PLP.Chemscore.Hbond>
3.5684

> <Gold.PLP.Chemscore.CHOScore>
0.9453

> <Gold.PLP.Chemscore.Metal>
0.0000

> <Gold.Chemscore.Hbonds>
donor molecule, donor type, donor heavy atom, donor atom, acceptor molecule, acceptor atom, score
      L1  H     2    59       P1  8028  2.00
      L1  H    24    51       P1 10747  0.62
      P1  H  6896  6909       L1    14  0.53
      L1  C    18    45       P1  7949  1.00

> <Gold.PLP.Chemscore.Internal.Correction>
0.9078

> <Gold.Rescore>
     Score         DG    S(hbond)    S(metal)    S(lipo)     H(rot)  DE(clash)    DE(int)     intcor
     14.19     -15.23       2.11        0.00      90.48       3.08       0.19       0.84       ----

> <Gold.Chemscore.Fitness>
14.1921

> <Gold.Chemscore.DG>
-15.2272

> <Gold.Chemscore.ZeroCoef>
-5.4800

> <Gold.Chemscore.Hbond>
2.1080

> <Gold.Chemscore.Metal>
0.0000

> <Gold.Chemscore.Lipo>
90.4817

> <Gold.Chemscore.Internal_Hbond>
0.0000

> <Gold.Chemscore.DEClash>
0.1903

> <Gold.Chemscore.DEInternal>
0.8447

> <Gold.Chemscore.Rot>
3.0781

> <Gold.Chemscore.Internal.Correction>
   9.000000E+99

> <Gold.Chemscore.Hbonds>
donor molecule, donor type, donor heavy atom, donor atom, acceptor molecule, acceptor atom, score
      L1  H     2    59       P1  8028  0.99
      L1  H    24    51       P1 10747  0.62
      P1  H  6896  6909       L1    14  0.04

> <Gold.Chemscore.Hbond.Weighted>
-7.0408

> <Gold.Chemscore.Metal.Weighted>
-0.0000

> <Gold.Chemscore.Lipo.Weighted>
-10.5864

> <Gold.Chemscore.Internal_Hbond.Weighted>
0.0000

> <Gold.Chemscore.DEClash.Weighted>
0.1903

> <Gold.Chemscore.DEInternal.Weighted>
0.8447

> <Gold.Chemscore.Rot.Weighted>
7.8800

> <Gold.Chemscore.Internal.Correction.Weighted>
   9.000000E+99

> <Gold.Protein.RotatedTorsions>
[ 6907 6896 6895 6894 ] final   41.06 input  -60.11 | X-H torsion
[ 7974 7965 7964 7962 ] final  157.03 input  175.53 | X-H torsion
[ 8008 7997 7996 7995 ] final  115.99 input   59.86 | X-H torsion
[ 10167 10162 10161 10158 ] final  -92.16 input  -65.29 | X-H torsion
[ 10718 10713 10712 10709 ] final  117.24 input   66.30 | X-H torsion
[ 10763 10752 10751 10750 ] final   40.05 input  -60.55 | X-H torsion
[ 11005 11000 10999 10996 ] final  -18.44 input  -57.11 | X-H torsion

> <Gold.Protein.ActiveResidues>
 VAL166  LYS551  ARG553  GLY616  TRP617  ASP618  TYR619  PRO620  LYS621  CYS622 
 ASP623  PHE694  ASN695  SER759  ASP760  ASP761  ALA762  ILE779  LEU786  VAL792 
 PHE793  MET794  SER795  GLU796  ALA797  LYS798  CYS799  TRP800  GLU811  SER814 

> <Gold.Protein.RotatedAtoms>
  152.1905  134.8676  160.0517 H   0  0  0  0  0  0  0  0  0  0  0  0  # atno 6907 bound_to 6896
  151.9566  133.3677  159.4028 H   0  0  0  0  0  0  0  0  0  0  0  0  # atno 6908 bound_to 6896
  150.6934  134.4208  159.5248 H   0  0  0  0  0  0  0  0  0  0  0  0  # atno 6909 bound_to 6896
  144.7928  139.7284  143.6214 H   0  0  0  0  0  0  0  0  0  0  0  0  # atno 7974 bound_to 7965
  156.2413  140.2927  156.0454 H   0  0  0  0  0  0  0  0  0  0  0  0  # atno 8008 bound_to 7997
  155.1941  140.0407  157.2923 H   0  0  0  0  0  0  0  0  0  0  0  0  # atno 8009 bound_to 7997
  154.6175  140.2467  155.7598 H   0  0  0  0  0  0  0  0  0  0  0  0  # atno 8010 bound_to 7997
  140.3376  143.2960  151.9872 H   0  0  0  0  0  0  0  0  0  0  0  0  # atno 10167 bound_to 10162
  157.6109  131.1035  150.7586 H   0  0  0  0  0  0  0  0  0  0  0  0  # atno 10718 bound_to 10713
  152.9948  135.6202  154.2564 H   0  0  0  0  0  0  0  0  0  0  0  0  # atno 10763 bound_to 10752
  154.2301  135.2792  155.2895 H   0  0  0  0  0  0  0  0  0  0  0  0  # atno 10764 bound_to 10752
  154.5456  135.5748  153.6935 H   0  0  0  0  0  0  0  0  0  0  0  0  # atno 10765 bound_to 10752
  140.8268  133.8026  155.9717 H   0  0  0  0  0  0  0  0  0  0  0  0  # atno 11005 bound_to 11000
  146.2185  139.5593  142.9634 LP  0  0  0  0  0  0  0  0  0  0  0  0  # atno 17320 bound_to 7965
  145.5751  141.0389  143.2152 LP  0  0  0  0  0  0  0  0  0  0  0  0  # atno 17321 bound_to 7965
  139.4846  144.6184  151.7303 LP  0  0  0  0  0  0  0  0  0  0  0  0  # atno 17342 bound_to 10162
  140.5339  144.0686  150.6063 LP  0  0  0  0  0  0  0  0  0  0  0  0  # atno 17343 bound_to 10162
  156.7964  130.4907  149.5376 LP  0  0  0  0  0  0  0  0  0  0  0  0  # atno 17370 bound_to 10713
  156.1212  130.6111  151.0196 LP  0  0  0  0  0  0  0  0  0  0  0  0  # atno 17371 bound_to 10713
  140.9040  134.2343  157.5025 LP  0  0  0  0  0  0  0  0  0  0  0  0  # atno 17394 bound_to 11000
  139.8706  134.9720  156.4756 LP  0  0  0  0  0  0  0  0  0  0  0  0  # atno 17395 bound_to 11000

$$$$
