AV-unprocessed.smi:1884|AV-procd|sdf|7648|dock3
  -GOLD-   22720 9373D 1   1.00000     0.00000
 Structure written by MMmdl.
 41 43  0  0  0  0  0  0  0  0  2 V2000
  149.6090  141.6744  155.2722 C   0  0  0  0  0  0  0  0  0  0  0  0
  150.3774  142.0149  156.5048 C   0  0  0  0  0  0  0  0  0  0  0  0
  150.4750  143.2490  157.0742 N   0  3  0  0  0  0  0  0  0  0  0  0
  151.2767  143.1807  158.2145 C   0  0  0  0  0  0  0  0  0  0  0  0
  151.6612  144.1673  159.1174 C   0  0  0  0  0  0  0  0  0  0  0  0
  152.4889  143.7608  160.1845 C   0  0  0  0  0  0  0  0  0  0  0  0
  152.9018  142.4199  160.3236 C   0  0  0  0  0  0  0  0  0  0  0  0
  152.5064  141.4284  159.4014 C   0  0  0  0  0  0  0  0  0  0  0  0
  151.6890  141.8385  158.3478 C   0  0  0  0  0  0  0  0  0  0  0  0
  151.1110  141.1568  157.2694 N   0  0  0  0  0  0  0  0  0  0  0  0
  151.3484  139.7142  157.1011 C   0  0  0  0  0  0  0  0  0  0  0  0
  152.2539  139.3941  155.8951 C   0  0  2  0  0  0  0  0  0  0  0  0
  151.4815  139.3330  154.7132 O   0  0  0  0  0  0  0  0  0  0  0  0
  153.0015  138.0629  156.0584 C   0  0  0  0  0  0  0  0  0  0  0  0
  154.1350  138.2718  156.8906 O   0  0  0  0  0  0  0  0  0  0  0  0
  154.0184  137.9918  158.2350 C   0  0  0  0  0  0  0  0  0  0  0  0
  155.1977  138.0518  159.0055 C   0  0  0  0  0  0  0  0  0  0  0  0
  155.1722  137.7809  160.3873 C   0  0  0  0  0  0  0  0  0  0  0  0
  153.9577  137.4446  161.0171 C   0  0  0  0  0  0  0  0  0  0  0  0
  153.9269  137.1657  162.4430 C   0  0  0  0  0  0  0  0  0  0  0  0
  153.9025  136.9435  163.5783 N   0  0  0  0  0  0  0  0  0  0  0  0
  152.7727  137.3804  160.2583 C   0  0  0  0  0  0  0  0  0  0  0  0
  152.8003  137.6518  158.8763 C   0  0  0  0  0  0  0  0  0  0  0  0
  149.0980  142.5554  154.8830 H   0  0  0  0  0  0  0  0  0  0  0  0
  148.8636  140.9101  155.4917 H   0  0  0  0  0  0  0  0  0  0  0  0
  150.2814  141.2952  154.5026 H   0  0  0  0  0  0  0  0  0  0  0  0
  151.3448  145.1949  159.0137 H   0  0  0  0  0  0  0  0  0  0  0  0
  152.8127  144.4917  160.9116 H   0  0  0  0  0  0  0  0  0  0  0  0
  153.5343  142.1453  161.1555 H   0  0  0  0  0  0  0  0  0  0  0  0
  152.8254  140.4038  159.5220 H   0  0  0  0  0  0  0  0  0  0  0  0
  151.8132  139.3575  158.0209 H   0  0  0  0  0  0  0  0  0  0  0  0
  150.3926  139.1951  157.0281 H   0  0  0  0  0  0  0  0  0  0  0  0
  152.9844  140.1931  155.7640 H   0  0  0  0  0  0  0  0  0  0  0  0
  150.5707  139.4252  154.9471 H   0  0  0  0  0  0  0  0  0  0  0  0
  152.3386  137.3093  156.4874 H   0  0  0  0  0  0  0  0  0  0  0  0
  153.3322  137.7073  155.0807 H   0  0  0  0  0  0  0  0  0  0  0  0
  156.1338  138.3094  158.5319 H   0  0  0  0  0  0  0  0  0  0  0  0
  156.0886  137.8336  160.9575 H   0  0  0  0  0  0  0  0  0  0  0  0
  151.8355  137.1228  160.7305 H   0  0  0  0  0  0  0  0  0  0  0  0
  151.8713  137.5916  158.3302 H   0  0  0  0  0  0  0  0  0  0  0  0
  150.0246  144.0773  156.7065 H   0  0  0  0  0  0  0  0  0  0  0  0
  1  2  1  0  0  0  0
  1 24  1  0  0  0  0
  1 25  1  0  0  0  0
  1 26  1  0  0  0  0
  2 10  1  0  0  0  0
  2  3  2  0  0  0  0
  3  4  1  0  0  0  0
  3 41  1  0  0  0  0
  4  9  2  0  0  0  0
  4  5  1  0  0  0  0
  5  6  2  0  0  0  0
  5 27  1  0  0  0  0
  6  7  1  0  0  0  0
  6 28  1  0  0  0  0
  7  8  2  0  0  0  0
  7 29  1  0  0  0  0
  8  9  1  0  0  0  0
  8 30  1  0  0  0  0
  9 10  1  0  0  0  0
 10 11  1  0  0  0  0
 11 12  1  0  0  0  0
 11 31  1  0  0  0  0
 11 32  1  0  0  0  0
 12 13  1  0  0  0  0
 12 14  1  0  0  0  0
 12 33  1  0  0  0  0
 13 34  1  0  0  0  0
 14 15  1  0  0  0  0
 14 35  1  0  0  0  0
 14 36  1  0  0  0  0
 15 16  1  0  0  0  0
 16 23  1  0  0  0  0
 16 17  2  0  0  0  0
 17 18  1  0  0  0  0
 17 37  1  0  0  0  0
 18 19  2  0  0  0  0
 18 38  1  0  0  0  0
 19 20  1  0  0  0  0
 19 22  1  0  0  0  0
 20 21  3  0  0  0  0
 22 23  2  0  0  0  0
 22 39  1  0  0  0  0
 23 40  1  0  0  0  0
M  CHG  1   3   1
M  END
> <s_m_source_file>
AV-unprocessed.smi

> <i_m_source_file_index>
1884

> <i_lp_mmshare_version>
43012

> <i_f3d_flags>
0

> <s_epik_input>
W2NIXTFbY0hdW2NIXVtjSF1jKGMxMiluKGMobjIpW0NIM10pW0NIMl1bQ0BIXShbT0hdKVtDSDJdT2MzW2NIXVtjSF1jKEMjTilbY0hdW2NIXTM=

> <s_epik_cmdline>
J2VwaWtfcHl0aG9uJywgJy1waCcsICc3LjAnLCAnLXRuJywgJzgnLCAnLW1hJywgJzIwMCcsICctbWV0YWxfYmluZGluZycsICctaW1hZScsICc8aW5maWxlLm1hZT4nLCAnLW9tYWUnLCAnPG91dGZpbGUubWFlPic=

> <r_epik_Ionization_Penalty>
1.04791

> <r_epik_Ionization_Penalty_Charging>
1.04791

> <r_epik_Ionization_Penalty_Neutral>
2.3993e-06

> <r_epik_State_Penalty>
1.10051

> <r_epik_Charging_Adjusted_Penalty>
2.14841

> <i_epik_Tot_Q>
1

> <i_epik_Tot_abs_Q>
1

> <r_epik_Metal_State_Penalty>
5.09283

> <b_epik_Metal_Only>
0

> <s_lp_Force_Field>
OPLS_2005

> <r_lp_Energy>
18.2912

> <b_lp_Chiralities_Consistent>
1

> <s_lp_Variant>
AV-unprocessed.smi:1884-3

> <Gold.Version>
5.8.1

> <Gold.Id.Protein>
6NUR|6NUR_protein|mol2

> <Gold.PLP.Fitness>
53.4035

> <Gold.PLP.PLP>
-44.4432

> <Gold.PLP.part.hbond>
-2.9502

> <Gold.PLP.part.metal>
0.0000

> <Gold.PLP.part.buried>
-5.1208

> <Gold.PLP.part.nonpolar>
-37.6406

> <Gold.PLP.part.repulsive>
0.0423

> <Gold.PLP.ligand.clash>
0.0000

> <Gold.PLP.ligand.torsion>
0.8923

> <Gold.PLP.Chemscore.Hbond>
3.5600

> <Gold.PLP.Chemscore.CHOScore>
0.0000

> <Gold.PLP.Chemscore.Metal>
0.0000

> <Gold.Chemscore.Hbonds>
donor molecule, donor type, donor heavy atom, donor atom, acceptor molecule, acceptor atom, score
      L1  H     3    41       P1  8028  1.95
      P1  H  7989  7998       L1    13  1.00
      P1  H  7997  8009       L1    15  0.54

> <Gold.PLP.Chemscore.Internal.Correction>
0.0648

> <Gold.Rescore>
     Score         DG    S(hbond)    S(metal)    S(lipo)     H(rot)  DE(clash)    DE(int)     intcor
     18.32     -19.20       1.88        0.00     115.84       2.39       0.05       0.83       ----

> <Gold.Chemscore.Fitness>
18.3233

> <Gold.Chemscore.DG>
-19.1970

> <Gold.Chemscore.ZeroCoef>
-5.4800

> <Gold.Chemscore.Hbond>
1.8821

> <Gold.Chemscore.Metal>
0.0000

> <Gold.Chemscore.Lipo>
115.8428

> <Gold.Chemscore.Internal_Hbond>
0.0000

> <Gold.Chemscore.DEClash>
0.0487

> <Gold.Chemscore.DEInternal>
0.8251

> <Gold.Chemscore.Rot>
2.3917

> <Gold.Chemscore.Internal.Correction>
   9.000000E+99

> <Gold.Chemscore.Hbonds>
donor molecule, donor type, donor heavy atom, donor atom, acceptor molecule, acceptor atom, score
      L1  H     3    41       P1  8028  0.92
      P1  H  7989  7998       L1    13  0.23
      P1  H  7997  8009       L1    15  0.17

> <Gold.Chemscore.Hbond.Weighted>
-6.2863

> <Gold.Chemscore.Metal.Weighted>
-0.0000

> <Gold.Chemscore.Lipo.Weighted>
-13.5536

> <Gold.Chemscore.Internal_Hbond.Weighted>
0.0000

> <Gold.Chemscore.DEClash.Weighted>
0.0487

> <Gold.Chemscore.DEInternal.Weighted>
0.8251

> <Gold.Chemscore.Rot.Weighted>
6.1229

> <Gold.Chemscore.Internal.Correction.Weighted>
   9.000000E+99

> <Gold.Protein.RotatedTorsions>
[ 6907 6896 6895 6894 ] final   13.65 input  -60.11 | X-H torsion
[ 7974 7965 7964 7962 ] final  -21.64 input  175.53 | X-H torsion
[ 8008 7997 7996 7995 ] final  171.31 input   59.86 | X-H torsion
[ 10167 10162 10161 10158 ] final  -48.26 input  -65.29 | X-H torsion
[ 10718 10713 10712 10709 ] final   92.11 input   66.30 | X-H torsion
[ 10763 10752 10751 10750 ] final  169.17 input  -60.55 | X-H torsion
[ 11005 11000 10999 10996 ] final -153.35 input  -57.11 | X-H torsion

> <Gold.Protein.ActiveResidues>
 VAL166  LYS551  ARG553  GLY616  TRP617  ASP618  TYR619  PRO620  LYS621  CYS622 
 ASP623  PHE694  ASN695  SER759  ASP760  ASP761  ALA762  ILE779  LEU786  VAL792 
 PHE793  MET794  SER795  GLU796  ALA797  LYS798  CYS799  TRP800  GLU811  SER814 

> <Gold.Protein.RotatedAtoms>
  151.7896  135.0739  160.0385 H   0  0  0  0  0  0  0  0  0  0  0  0  # atno 6907 bound_to 6896
  152.3165  133.5804  159.5724 H   0  0  0  0  0  0  0  0  0  0  0  0  # atno 6908 bound_to 6896
  150.7347  133.9990  159.3674 H   0  0  0  0  0  0  0  0  0  0  0  0  # atno 6909 bound_to 6896
  146.1721  140.4369  142.8528 H   0  0  0  0  0  0  0  0  0  0  0  0  # atno 7974 bound_to 7965
  156.1283  140.1515  156.9103 H   0  0  0  0  0  0  0  0  0  0  0  0  # atno 8008 bound_to 7997
  154.4889  140.0857  156.7590 H   0  0  0  0  0  0  0  0  0  0  0  0  # atno 8009 bound_to 7997
  155.4302  140.3427  155.4281 H   0  0  0  0  0  0  0  0  0  0  0  0  # atno 8010 bound_to 7997
  140.6739  143.2748  151.4046 H   0  0  0  0  0  0  0  0  0  0  0  0  # atno 10167 bound_to 10162
  157.6959  131.0431  150.3832 H   0  0  0  0  0  0  0  0  0  0  0  0  # atno 10718 bound_to 10713
  154.3792  135.2753  155.2221 H   0  0  0  0  0  0  0  0  0  0  0  0  # atno 10763 bound_to 10752
  154.4335  135.5971  153.6087 H   0  0  0  0  0  0  0  0  0  0  0  0  # atno 10764 bound_to 10752
  152.9835  135.6001  154.4032 H   0  0  0  0  0  0  0  0  0  0  0  0  # atno 10765 bound_to 10752
  140.7090  134.3853  157.5200 H   0  0  0  0  0  0  0  0  0  0  0  0  # atno 11005 bound_to 11000
  144.8179  140.6500  143.6372 LP  0  0  0  0  0  0  0  0  0  0  0  0  # atno 17320 bound_to 7965
  145.4311  139.1549  143.4022 LP  0  0  0  0  0  0  0  0  0  0  0  0  # atno 17321 bound_to 7965
  139.6020  144.1275  152.2209 LP  0  0  0  0  0  0  0  0  0  0  0  0  # atno 17342 bound_to 10162
  140.0662  144.5816  150.7226 LP  0  0  0  0  0  0  0  0  0  0  0  0  # atno 17343 bound_to 10162
  156.4244  130.3959  149.6803 LP  0  0  0  0  0  0  0  0  0  0  0  0  # atno 17370 bound_to 10713
  156.4043  130.7690  151.2700 LP  0  0  0  0  0  0  0  0  0  0  0  0  # atno 17371 bound_to 10713
  139.8876  134.8877  156.2517 LP  0  0  0  0  0  0  0  0  0  0  0  0  # atno 17394 bound_to 11000
  141.0100  133.7101  156.1096 LP  0  0  0  0  0  0  0  0  0  0  0  0  # atno 17395 bound_to 11000

$$$$
