AV-unprocessed.smi:2364|AV-procd|sdf|9418|dock8
  -GOLD-   2272013 53D 1   1.00000     0.00000
 Structure written by MMmdl.
 46 47  0  0  0  0  0  0  0  0  1 V2000
  138.8772  138.3625  154.0828 C   0  0  0  0  0  0  0  0  0  0  0  0
  139.2437  139.8123  154.4481 C   0  0  0  0  0  0  0  0  0  0  0  0
  140.6667  140.0297  155.0376 C   0  0  2  0  0  0  0  0  0  0  0  0
  140.7232  139.4474  156.4672 C   0  0  0  0  0  0  0  0  0  0  0  0
  140.9598  141.5538  155.0897 C   0  0  0  0  0  0  0  0  0  0  0  0
  140.7889  142.1781  153.8317 O   0  0  0  0  0  0  0  0  0  0  0  0
  141.6856  139.3340  154.2367 N   0  0  0  0  0  0  0  0  0  0  0  0
  141.9221  138.0137  154.1478 C   0  0  0  0  0  0  0  0  0  0  0  0
  141.2930  137.1576  154.7704 O   0  0  0  0  0  0  0  0  0  0  0  0
  142.9312  137.7638  153.2953 N   0  0  0  0  0  0  0  0  0  0  0  0
  143.4919  136.5087  152.9413 C   0  0  0  0  0  0  0  0  0  0  0  0
  143.2780  135.4325  153.7501 N   0  0  0  0  0  0  0  0  0  0  0  0
  143.9444  134.5161  153.0603 C   0  0  0  0  0  0  0  0  0  0  0  0
  144.5458  134.9814  151.9574 N   0  0  0  0  0  0  0  0  0  0  0  0
  145.2851  134.2839  150.9005 C   0  0  0  0  0  0  0  0  0  0  0  0
  144.4155  133.2348  150.1685 C   0  0  0  0  0  0  0  0  0  0  0  0
  144.0522  132.0483  151.0808 C   0  0  0  0  0  0  0  0  0  0  0  0
  145.3153  131.3785  151.6465 C   0  0  0  0  0  0  0  0  0  0  0  0
  146.2286  132.3961  152.3507 C   0  0  0  0  0  0  0  0  0  0  0  0
  146.5624  133.5781  151.4213 C   0  0  0  0  0  0  0  0  0  0  0  0
  144.2150  136.2924  151.8414 N   0  0  0  0  0  0  0  0  0  0  0  0
  137.8753  138.3214  153.6554 H   0  0  0  0  0  0  0  0  0  0  0  0
  138.8816  137.7096  154.9550 H   0  0  0  0  0  0  0  0  0  0  0  0
  139.5605  137.9441  153.3441 H   0  0  0  0  0  0  0  0  0  0  0  0
  139.1174  140.4258  153.5559 H   0  0  0  0  0  0  0  0  0  0  0  0
  138.5031  140.1881  155.1553 H   0  0  0  0  0  0  0  0  0  0  0  0
  139.9801  139.9134  157.1150 H   0  0  0  0  0  0  0  0  0  0  0  0
  141.6992  139.6010  156.9286 H   0  0  0  0  0  0  0  0  0  0  0  0
  140.5404  138.3733  156.4771 H   0  0  0  0  0  0  0  0  0  0  0  0
  140.3240  142.0599  155.8159 H   0  0  0  0  0  0  0  0  0  0  0  0
  141.9867  141.7268  155.4134 H   0  0  0  0  0  0  0  0  0  0  0  0
  141.5529  142.0028  153.3041 H   0  0  0  0  0  0  0  0  0  0  0  0
  142.2683  139.9342  153.6717 H   0  0  0  0  0  0  0  0  0  0  0  0
  143.3503  138.5655  152.8483 H   0  0  0  0  0  0  0  0  0  0  0  0
  143.9901  133.4838  153.3731 H   0  0  0  0  0  0  0  0  0  0  0  0
  145.5841  135.0458  150.1798 H   0  0  0  0  0  0  0  0  0  0  0  0
  143.5122  133.6907  149.7638 H   0  0  0  0  0  0  0  0  0  0  0  0
  144.9637  132.8599  149.3031 H   0  0  0  0  0  0  0  0  0  0  0  0
  143.4184  132.3862  151.9012 H   0  0  0  0  0  0  0  0  0  0  0  0
  143.4663  131.3179  150.5225 H   0  0  0  0  0  0  0  0  0  0  0  0
  145.0375  130.5847  152.3402 H   0  0  0  0  0  0  0  0  0  0  0  0
  145.8649  130.9003  150.8349 H   0  0  0  0  0  0  0  0  0  0  0  0
  145.7437  132.7591  153.2575 H   0  0  0  0  0  0  0  0  0  0  0  0
  147.1485  131.9064  152.6712 H   0  0  0  0  0  0  0  0  0  0  0  0
  147.1368  133.2083  150.5709 H   0  0  0  0  0  0  0  0  0  0  0  0
  147.2211  134.2820  151.9308 H   0  0  0  0  0  0  0  0  0  0  0  0
  1  2  1  0  0  0  0
  1 22  1  0  0  0  0
  1 23  1  0  0  0  0
  1 24  1  0  0  0  0
  2  3  1  0  0  0  0
  2 25  1  0  0  0  0
  2 26  1  0  0  0  0
  3  4  1  0  0  0  0
  3  5  1  0  0  0  0
  3  7  1  0  0  0  0
  4 27  1  0  0  0  0
  4 28  1  0  0  0  0
  4 29  1  0  0  0  0
  5  6  1  0  0  0  0
  5 30  1  0  0  0  0
  5 31  1  0  0  0  0
  6 32  1  0  0  0  0
  7  8  1  0  0  0  0
  7 33  1  0  0  0  0
  8  9  2  0  0  0  0
  8 10  1  0  0  0  0
 10 11  1  0  0  0  0
 10 34  1  0  0  0  0
 11 21  2  0  0  0  0
 11 12  1  0  0  0  0
 12 13  2  0  0  0  0
 13 14  1  0  0  0  0
 13 35  1  0  0  0  0
 14 15  1  0  0  0  0
 14 21  1  0  0  0  0
 15 20  1  0  0  0  0
 15 16  1  0  0  0  0
 15 36  1  0  0  0  0
 16 17  1  0  0  0  0
 16 37  1  0  0  0  0
 16 38  1  0  0  0  0
 17 18  1  0  0  0  0
 17 39  1  0  0  0  0
 17 40  1  0  0  0  0
 18 19  1  0  0  0  0
 18 41  1  0  0  0  0
 18 42  1  0  0  0  0
 19 20  1  0  0  0  0
 19 43  1  0  0  0  0
 19 44  1  0  0  0  0
 20 45  1  0  0  0  0
 20 46  1  0  0  0  0
M  END
> <s_m_source_file>
AV-unprocessed.smi

> <i_m_source_file_index>
2364

> <i_lp_mmshare_version>
43012

> <i_f3d_flags>
0

> <s_epik_input>
W0NIM11bQ0gyXVtDQEBdKFtDSDNdKShbQ0gyXVtPSF0pW05IXUMoPU8pW05IXWMxbltjSF1uKG4xKVtDSF0yW0NIMl1bQ0gyXVtDSDJdW0NIMl1bQ0gyXTI=

> <s_epik_cmdline>
J2VwaWtfcHl0aG9uJywgJy1waCcsICc3LjAnLCAnLXRuJywgJzgnLCAnLW1hJywgJzIwMCcsICctbWV0YWxfYmluZGluZycsICctaW1hZScsICc8aW5maWxlLm1hZT4nLCAnLW9tYWUnLCAnPG91dGZpbGUubWFlPic=

> <r_lp_tautomer_probability>
1

> <r_epik_Ionization_Penalty>
9.31261e-05

> <r_epik_Ionization_Penalty_Charging>
0

> <r_epik_Ionization_Penalty_Neutral>
9.31261e-05

> <r_epik_State_Penalty>
-0

> <r_epik_Charging_Adjusted_Penalty>
0

> <i_epik_Tot_Q>
0

> <i_epik_Tot_abs_Q>
0

> <r_epik_Metal_State_Penalty>
-0

> <b_epik_Metal_Only>
0

> <s_lp_Force_Field>
OPLS_2005

> <r_lp_Energy>
24.8913

> <b_lp_Chiralities_Consistent>
1

> <s_lp_Variant>
AV-unprocessed.smi:2364-2

> <Gold.Version>
5.8.1

> <Gold.Id.Protein>
6NUR|6NUR_protein|mol2

> <Gold.PLP.Fitness>
48.4569

> <Gold.PLP.PLP>
-34.5379

> <Gold.PLP.part.hbond>
-3.7570

> <Gold.PLP.part.metal>
0.0000

> <Gold.PLP.part.buried>
-7.3480

> <Gold.PLP.part.nonpolar>
-25.0628

> <Gold.PLP.part.repulsive>
1.2469

> <Gold.PLP.ligand.clash>
0.0000

> <Gold.PLP.ligand.torsion>
0.4812

> <Gold.PLP.Chemscore.Hbond>
3.9276

> <Gold.PLP.Chemscore.CHOScore>
0.9984

> <Gold.PLP.Chemscore.Metal>
0.0000

> <Gold.Chemscore.Hbonds>
donor molecule, donor type, donor heavy atom, donor atom, acceptor molecule, acceptor atom, score
      L1  H     6    32       P1 10174  1.00
      L1  H     7    33       P1 10175  1.00
      L1  H    10    34       P1 10175  1.00
      P1  H 10162 10167       L1     6  0.30
      L1  C    13    35       P1 10957  0.86

> <Gold.PLP.Chemscore.Internal.Correction>
0.1035

> <Gold.Rescore>
     Score         DG    S(hbond)    S(metal)    S(lipo)     H(rot)  DE(clash)    DE(int)     intcor
     11.19     -16.46       2.72        0.00      67.23       2.34       0.83       4.44       ----

> <Gold.Chemscore.Fitness>
11.1853

> <Gold.Chemscore.DG>
-16.4559

> <Gold.Chemscore.ZeroCoef>
-5.4800

> <Gold.Chemscore.Hbond>
2.7213

> <Gold.Chemscore.Metal>
0.0000

> <Gold.Chemscore.Lipo>
67.2261

> <Gold.Chemscore.Internal_Hbond>
0.0000

> <Gold.Chemscore.DEClash>
0.8309

> <Gold.Chemscore.DEInternal>
4.4398

> <Gold.Chemscore.Rot>
2.3354

> <Gold.Chemscore.Internal.Correction>
   9.000000E+99

> <Gold.Chemscore.Hbonds>
donor molecule, donor type, donor heavy atom, donor atom, acceptor molecule, acceptor atom, score
      L1  H     6    32       P1 10174  0.70
      L1  H     7    33       P1 10175  0.92
      L1  H    10    34       P1 10175  0.98
      P1  H 10162 10167       L1     6  0.01

> <Gold.Chemscore.Hbond.Weighted>
-9.0892

> <Gold.Chemscore.Metal.Weighted>
-0.0000

> <Gold.Chemscore.Lipo.Weighted>
-7.8655

> <Gold.Chemscore.Internal_Hbond.Weighted>
0.0000

> <Gold.Chemscore.DEClash.Weighted>
0.8309

> <Gold.Chemscore.DEInternal.Weighted>
4.4398

> <Gold.Chemscore.Rot.Weighted>
5.9787

> <Gold.Chemscore.Internal.Correction.Weighted>
   9.000000E+99

> <Gold.Protein.RotatedTorsions>
[ 6907 6896 6895 6894 ] final   82.58 input  -60.11 | X-H torsion
[ 7974 7965 7964 7962 ] final  -49.55 input  175.53 | X-H torsion
[ 8008 7997 7996 7995 ] final -127.97 input   59.86 | X-H torsion
[ 10167 10162 10161 10158 ] final -124.31 input  -65.29 | X-H torsion
[ 10718 10713 10712 10709 ] final   42.89 input   66.30 | X-H torsion
[ 10763 10752 10751 10750 ] final -152.85 input  -60.55 | X-H torsion
[ 11005 11000 10999 10996 ] final   70.00 input  -57.11 | X-H torsion

> <Gold.Protein.ActiveResidues>
 VAL166  LYS551  ARG553  GLY616  TRP617  ASP618  TYR619  PRO620  LYS621  CYS622 
 ASP623  PHE694  ASN695  SER759  ASP760  ASP761  ALA762  ILE779  LEU786  VAL792 
 PHE793  MET794  SER795  GLU796  ALA797  LYS798  CYS799  TRP800  GLU811  SER814 

> <Gold.Protein.RotatedAtoms>
  152.5303  134.3028  159.9084 H   0  0  0  0  0  0  0  0  0  0  0  0  # atno 6907 bound_to 6896
  151.2978  133.4129  159.2645 H   0  0  0  0  0  0  0  0  0  0  0  0  # atno 6908 bound_to 6896
  151.0145  134.9438  159.8082 H   0  0  0  0  0  0  0  0  0  0  0  0  # atno 6909 bound_to 6896
  145.9393  140.7677  142.9560 H   0  0  0  0  0  0  0  0  0  0  0  0  # atno 7974 bound_to 7965
  155.2549  140.0434  157.2991 H   0  0  0  0  0  0  0  0  0  0  0  0  # atno 8008 bound_to 7997
  154.5746  140.2383  155.8111 H   0  0  0  0  0  0  0  0  0  0  0  0  # atno 8009 bound_to 7997
  156.2148  140.2988  155.9822 H   0  0  0  0  0  0  0  0  0  0  0  0  # atno 8010 bound_to 7997
  139.9941  143.5609  152.2330 H   0  0  0  0  0  0  0  0  0  0  0  0  # atno 10167 bound_to 10162
  157.4099  130.7908  149.7421 H   0  0  0  0  0  0  0  0  0  0  0  0  # atno 10718 bound_to 10713
  154.7967  135.3226  154.7650 H   0  0  0  0  0  0  0  0  0  0  0  0  # atno 10763 bound_to 10752
  153.8327  135.6878  153.4817 H   0  0  0  0  0  0  0  0  0  0  0  0  # atno 10764 bound_to 10752
  153.1662  135.4641  154.9782 H   0  0  0  0  0  0  0  0  0  0  0  0  # atno 10765 bound_to 10752
  139.9622  134.7042  156.0622 H   0  0  0  0  0  0  0  0  0  0  0  0  # atno 11005 bound_to 11000
  144.6776  140.2255  143.7361 LP  0  0  0  0  0  0  0  0  0  0  0  0  # atno 17320 bound_to 7965
  145.8321  139.2090  143.1877 LP  0  0  0  0  0  0  0  0  0  0  0  0  # atno 17321 bound_to 7965
  139.6318  144.7645  151.2520 LP  0  0  0  0  0  0  0  0  0  0  0  0  # atno 17342 bound_to 10162
  140.7443  143.6466  150.8286 LP  0  0  0  0  0  0  0  0  0  0  0  0  # atno 17343 bound_to 10162
  155.9847  130.3989  150.3297 LP  0  0  0  0  0  0  0  0  0  0  0  0  # atno 17370 bound_to 10713
  157.1434  131.0302  151.2918 LP  0  0  0  0  0  0  0  0  0  0  0  0  # atno 17371 bound_to 10713
  141.1299  133.6589  156.3438 LP  0  0  0  0  0  0  0  0  0  0  0  0  # atno 17394 bound_to 11000
  140.5476  134.6059  157.5398 LP  0  0  0  0  0  0  0  0  0  0  0  0  # atno 17395 bound_to 11000

$$$$
