AV-unprocessed.smi:2079|AV-procd|sdf|8480|dock8
  -GOLD-   2272011183D 1   1.00000     0.00000
 Structure written by MMmdl.
 41 42  0  0  0  0  0  0  0  0  3 V2000
  154.7339  133.4167  165.3190 C   0  0  0  0  0  0  0  0  0  0  0  0
  154.5250  134.4530  164.2682 C   0  0  0  0  0  0  0  0  0  0  0  0
  154.0453  135.7313  164.3099 C   0  0  0  0  0  0  0  0  0  0  0  0
  154.1190  136.1503  162.9536 C   0  0  0  0  0  0  0  0  0  0  0  0
  153.7410  137.3469  162.4781 N   0  5  0  0  0  0  0  0  0  0  0  0
  153.5564  137.5245  161.1502 C   0  0  0  0  0  0  0  0  0  0  0  0
  153.2597  136.6551  160.3276 O   0  0  0  0  0  0  0  0  0  0  0  0
  153.7315  138.7899  160.7477 N   0  0  0  0  0  0  0  0  0  0  0  0
  153.6132  139.2558  159.3733 C   0  0  0  0  0  0  0  0  0  0  0  0
  152.2687  139.9729  159.1689 C   0  0  0  0  0  0  0  0  0  0  0  0
  152.4069  141.3511  158.6250 N   0  3  1  0  0  0  0  0  0  0  0  0
  151.1010  141.8943  158.1621 C   0  0  0  0  0  0  0  0  0  0  0  0
  151.2763  143.2241  157.4122 C   0  0  0  0  0  0  0  0  0  0  0  0
  152.0140  144.2501  158.2782 C   0  0  0  0  0  0  0  0  0  0  0  0
  153.3499  143.6633  158.7527 C   0  0  0  0  0  0  0  0  0  0  0  0
  153.1714  142.3137  159.4808 C   0  0  1  0  0  0  0  0  0  0  0  0
  152.5803  142.4886  160.8960 C   0  0  0  0  0  0  0  0  0  0  0  0
  154.5870  135.2045  162.1565 N   0  0  0  0  0  0  0  0  0  0  0  0
  154.8567  134.1148  162.9931 O   0  0  0  0  0  0  0  0  0  0  0  0
  153.7976  133.1926  165.8299 H   0  0  0  0  0  0  0  0  0  0  0  0
  155.4510  133.7623  166.0634 H   0  0  0  0  0  0  0  0  0  0  0  0
  155.1139  132.4897  164.8886 H   0  0  0  0  0  0  0  0  0  0  0  0
  153.6988  136.2804  165.1724 H   0  0  0  0  0  0  0  0  0  0  0  0
  153.9697  139.4733  161.4515 H   0  0  0  0  0  0  0  0  0  0  0  0
  154.4462  139.9285  159.1679 H   0  0  0  0  0  0  0  0  0  0  0  0
  153.7000  138.4055  158.6954 H   0  0  0  0  0  0  0  0  0  0  0  0
  151.6779  139.3857  158.4639 H   0  0  0  0  0  0  0  0  0  0  0  0
  151.6968  139.9888  160.0972 H   0  0  0  0  0  0  0  0  0  0  0  0
  150.6230  141.1765  157.4942 H   0  0  0  0  0  0  0  0  0  0  0  0
  150.4279  142.0227  159.0103 H   0  0  0  0  0  0  0  0  0  0  0  0
  151.8339  143.0537  156.4901 H   0  0  0  0  0  0  0  0  0  0  0  0
  150.3030  143.6171  157.1167 H   0  0  0  0  0  0  0  0  0  0  0  0
  152.1862  145.1653  157.7110 H   0  0  0  0  0  0  0  0  0  0  0  0
  151.3980  144.5272  159.1345 H   0  0  0  0  0  0  0  0  0  0  0  0
  153.9991  143.5190  157.8880 H   0  0  0  0  0  0  0  0  0  0  0  0
  153.8634  144.3775  159.3975 H   0  0  0  0  0  0  0  0  0  0  0  0
  154.1787  141.9184  159.6057 H   0  0  0  0  0  0  0  0  0  0  0  0
  153.1592  143.2151  161.4667 H   0  0  0  0  0  0  0  0  0  0  0  0
  152.6044  141.5576  161.4620 H   0  0  0  0  0  0  0  0  0  0  0  0
  151.5497  142.8406  160.8749 H   0  0  0  0  0  0  0  0  0  0  0  0
  152.9601  141.2472  157.7862 H   0  0  0  0  0  0  0  0  0  0  0  0
  1  2  1  0  0  0  0
  1 20  1  0  0  0  0
  1 21  1  0  0  0  0
  1 22  1  0  0  0  0
  2 19  1  0  0  0  0
  2  3  2  0  0  0  0
  3  4  1  0  0  0  0
  3 23  1  0  0  0  0
  4  5  1  0  0  0  0
  4 18  2  0  0  0  0
  5  6  1  0  0  0  0
  6  7  2  0  0  0  0
  6  8  1  0  0  0  0
  8  9  1  0  0  0  0
  8 24  1  0  0  0  0
  9 10  1  0  0  0  0
  9 25  1  0  0  0  0
  9 26  1  0  0  0  0
 10 11  1  0  0  0  0
 10 27  1  0  0  0  0
 10 28  1  0  0  0  0
 11 16  1  0  0  0  0
 11 12  1  0  0  0  0
 11 41  1  0  0  0  0
 12 13  1  0  0  0  0
 12 29  1  0  0  0  0
 12 30  1  0  0  0  0
 13 14  1  0  0  0  0
 13 31  1  0  0  0  0
 13 32  1  0  0  0  0
 14 15  1  0  0  0  0
 14 33  1  0  0  0  0
 14 34  1  0  0  0  0
 15 16  1  0  0  0  0
 15 35  1  0  0  0  0
 15 36  1  0  0  0  0
 16 17  1  0  0  0  0
 16 37  1  0  0  0  0
 17 38  1  0  0  0  0
 17 39  1  0  0  0  0
 17 40  1  0  0  0  0
 18 19  1  0  0  0  0
M  CHG  1   5  -1
M  CHG  1  11   1
M  END
> <s_m_source_file>
AV-unprocessed.smi

> <i_m_source_file_index>
2079

> <i_lp_mmshare_version>
43012

> <i_f3d_flags>
0

> <s_epik_input>
W0NIM11jMVtjSF1jKG5vMSlbTkhdQyg9TylbTkhdW0NIMl1bQ0gyXU4yW0NIMl1bQ0gyXVtDSDJdW0NIMl1bQ0BIXTJbQ0gzXQ==

> <s_epik_cmdline>
J2VwaWtfcHl0aG9uJywgJy1waCcsICc3LjAnLCAnLXRuJywgJzgnLCAnLW1hJywgJzIwMCcsICctbWV0YWxfYmluZGluZycsICctaW1hZScsICc8aW5maWxlLm1hZT4nLCAnLW9tYWUnLCAnPG91dGZpbGUubWFlPic=

> <r_epik_Ionization_Penalty>
6.22371

> <r_epik_Ionization_Penalty_Charging>
6.22362

> <r_epik_Ionization_Penalty_Neutral>
9.40454e-05

> <r_epik_State_Penalty>
6.22363

> <r_epik_Charging_Adjusted_Penalty>
12.4472

> <i_epik_Tot_Q>
0

> <i_epik_Tot_abs_Q>
2

> <r_epik_Metal_State_Penalty>
2.16675

> <b_epik_Metal_Only>
1

> <s_lp_Force_Field>
OPLS_2005

> <r_lp_Energy>
9.70106

> <b_lp_Chiralities_Consistent>
1

> <s_lp_Variant>
AV-unprocessed.smi:2079-6

> <Gold.Version>
5.8.1

> <Gold.Id.Protein>
6NUR|6NUR_protein|mol2

> <Gold.PLP.Fitness>
40.9882

> <Gold.PLP.PLP>
-39.4410

> <Gold.PLP.part.hbond>
-0.9256

> <Gold.PLP.part.metal>
0.0000

> <Gold.PLP.part.buried>
-5.8544

> <Gold.PLP.part.nonpolar>
-33.8126

> <Gold.PLP.part.repulsive>
0.1249

> <Gold.PLP.ligand.clash>
0.0000

> <Gold.PLP.ligand.torsion>
0.7222

> <Gold.PLP.Chemscore.Hbond>
0.9750

> <Gold.PLP.Chemscore.CHOScore>
0.0000

> <Gold.PLP.Chemscore.Metal>
0.0000

> <Gold.Chemscore.Hbonds>
donor molecule, donor type, donor heavy atom, donor atom, acceptor molecule, acceptor atom, score
      P1  H  6896  6907       L1     7  1.00

> <Gold.PLP.Chemscore.Internal.Correction>
0.0667

> <Gold.Rescore>
     Score         DG    S(hbond)    S(metal)    S(lipo)     H(rot)  DE(clash)    DE(int)     intcor
     15.04     -17.33       0.97        0.00     107.22       1.54       0.04       2.25       ----

> <Gold.Chemscore.Fitness>
15.0434

> <Gold.Chemscore.DG>
-17.3312

> <Gold.Chemscore.ZeroCoef>
-5.4800

> <Gold.Chemscore.Hbond>
0.9734

> <Gold.Chemscore.Metal>
0.0000

> <Gold.Chemscore.Lipo>
107.2199

> <Gold.Chemscore.Internal_Hbond>
0.0000

> <Gold.Chemscore.DEClash>
0.0389

> <Gold.Chemscore.DEInternal>
2.2490

> <Gold.Chemscore.Rot>
1.5409

> <Gold.Chemscore.Internal.Correction>
   9.000000E+99

> <Gold.Chemscore.Hbonds>
donor molecule, donor type, donor heavy atom, donor atom, acceptor molecule, acceptor atom, score
      P1  H  6896  6907       L1     7  0.93

> <Gold.Chemscore.Hbond.Weighted>
-3.2511

> <Gold.Chemscore.Metal.Weighted>
-0.0000

> <Gold.Chemscore.Lipo.Weighted>
-12.5447

> <Gold.Chemscore.Internal_Hbond.Weighted>
0.0000

> <Gold.Chemscore.DEClash.Weighted>
0.0389

> <Gold.Chemscore.DEInternal.Weighted>
2.2490

> <Gold.Chemscore.Rot.Weighted>
3.9446

> <Gold.Chemscore.Internal.Correction.Weighted>
   9.000000E+99

> <Gold.Protein.RotatedTorsions>
[ 6907 6896 6895 6894 ] final   35.54 input  -60.11 | X-H torsion
[ 7974 7965 7964 7962 ] final  -40.37 input  175.53 | X-H torsion
[ 8008 7997 7996 7995 ] final -127.03 input   59.86 | X-H torsion
[ 10167 10162 10161 10158 ] final -145.38 input  -65.29 | X-H torsion
[ 10718 10713 10712 10709 ] final   58.85 input   66.30 | X-H torsion
[ 10763 10752 10751 10750 ] final   63.81 input  -60.55 | X-H torsion
[ 11005 11000 10999 10996 ] final   59.67 input  -57.11 | X-H torsion

> <Gold.Protein.ActiveResidues>
 VAL166  LYS551  ARG553  GLY616  TRP617  ASP618  TYR619  PRO620  LYS621  CYS622 
 ASP623  PHE694  ASN695  SER759  ASP760  ASP761  ALA762  ILE779  LEU786  VAL792 
 PHE793  MET794  SER795  GLU796  ALA797  LYS798  CYS799  TRP800  GLU811  SER814 

> <Gold.Protein.RotatedAtoms>
  152.1175  134.9229  160.0564 H   0  0  0  0  0  0  0  0  0  0  0  0  # atno 6907 bound_to 6896
  152.0383  133.3961  159.4334 H   0  0  0  0  0  0  0  0  0  0  0  0  # atno 6908 bound_to 6896
  150.6847  134.3364  159.4893 H   0  0  0  0  0  0  0  0  0  0  0  0  # atno 6909 bound_to 6896
  146.0311  140.6730  142.9132 H   0  0  0  0  0  0  0  0  0  0  0  0  # atno 7974 bound_to 7965
  155.2395  140.0428  157.2973 H   0  0  0  0  0  0  0  0  0  0  0  0  # atno 8008 bound_to 7997
  154.5837  140.2408  155.7987 H   0  0  0  0  0  0  0  0  0  0  0  0  # atno 8009 bound_to 7997
  156.2211  140.2969  155.9963 H   0  0  0  0  0  0  0  0  0  0  0  0  # atno 8010 bound_to 7997
  139.7811  143.8100  152.2639 H   0  0  0  0  0  0  0  0  0  0  0  0  # atno 10167 bound_to 10162
  157.5629  130.8849  149.9140 H   0  0  0  0  0  0  0  0  0  0  0  0  # atno 10718 bound_to 10713
  153.0031  135.5416  154.6410 H   0  0  0  0  0  0  0  0  0  0  0  0  # atno 10763 bound_to 10752
  154.5665  135.2838  155.0871 H   0  0  0  0  0  0  0  0  0  0  0  0  # atno 10764 bound_to 10752
  154.2053  135.6477  153.5151 H   0  0  0  0  0  0  0  0  0  0  0  0  # atno 10765 bound_to 10752
  140.0287  134.6044  155.9537 H   0  0  0  0  0  0  0  0  0  0  0  0  # atno 11005 bound_to 11000
  144.7031  140.3737  143.7140 LP  0  0  0  0  0  0  0  0  0  0  0  0  # atno 17320 bound_to 7965
  145.7039  139.1668  143.2577 LP  0  0  0  0  0  0  0  0  0  0  0  0  # atno 17321 bound_to 7965
  139.8163  144.7315  150.9631 LP  0  0  0  0  0  0  0  0  0  0  0  0  # atno 17342 bound_to 10162
  140.7818  143.4202  151.0853 LP  0  0  0  0  0  0  0  0  0  0  0  0  # atno 17343 bound_to 10162
  156.0680  130.3689  150.0837 LP  0  0  0  0  0  0  0  0  0  0  0  0  # atno 17370 bound_to 10713
  156.8999  130.9616  151.3577 LP  0  0  0  0  0  0  0  0  0  0  0  0  # atno 17371 bound_to 10713
  141.1818  133.6548  156.5052 LP  0  0  0  0  0  0  0  0  0  0  0  0  # atno 17394 bound_to 11000
  140.4262  134.7142  157.4917 LP  0  0  0  0  0  0  0  0  0  0  0  0  # atno 17395 bound_to 11000

$$$$
