AV-unprocessed.smi:2695|AV-procd|sdf|10411|dock3
  -GOLD-   2272014443D 1   1.00000     0.00000
 Structure written by MMmdl.
 42 43  0  0  0  0  0  0  0  0  1 V2000
  151.2830  144.8785  159.3458 C   0  0  0  0  0  0  0  0  0  0  0  0
  152.0033  143.5837  159.7009 C   0  0  0  0  0  0  0  0  0  0  0  0
  152.5934  143.4626  160.9128 C   0  0  0  0  0  0  0  0  0  0  0  0
  153.3308  142.2400  161.2762 C   0  0  0  0  0  0  0  0  0  0  0  0
  153.8490  142.0936  162.3812 O   0  0  0  0  0  0  0  0  0  0  0  0
  153.4145  141.2085  160.2327 C   0  0  0  0  0  0  0  0  0  0  0  0
  152.7918  141.4153  159.0563 C   0  0  0  0  0  0  0  0  0  0  0  0
  152.8578  140.5137  158.0646 O   0  0  0  0  0  0  0  0  0  0  0  0
  152.0363  142.5587  158.7289 N   0  0  0  0  0  0  0  0  0  0  0  0
  151.3134  142.6701  157.4486 C   0  0  0  0  0  0  0  0  0  0  0  0
  150.1859  141.6400  157.2920 C   0  0  0  0  0  0  0  0  0  0  0  0
  150.3760  140.4475  157.5355 O   0  0  0  0  0  0  0  0  0  0  0  0
  149.0095  142.1285  156.8701 N   0  0  0  0  0  0  0  0  0  0  0  0
  147.7806  141.3604  156.6602 C   0  0  2  0  0  0  0  0  0  0  0  0
  147.5132  141.2105  155.1394 C   0  0  0  0  0  0  0  0  0  0  0  0
  146.6336  140.0165  154.7488 C   0  0  0  0  0  0  0  0  0  0  0  0
  146.9121  139.7679  153.2623 C   0  0  0  0  0  0  0  0  0  0  0  0
  148.2745  140.4091  152.9654 C   0  0  0  0  0  0  0  0  0  0  0  0
  148.7744  140.9831  154.2942 C   0  0  0  0  0  0  0  0  0  0  0  0
  146.6326  142.0470  157.4354 C   0  0  0  0  0  0  0  0  0  0  0  0
  146.1469  143.0608  156.7172 F   0  0  0  0  0  0  0  0  0  0  0  0
  145.6457  141.1829  157.6758 F   0  0  0  0  0  0  0  0  0  0  0  0
  147.0651  142.5432  158.5937 F   0  0  0  0  0  0  0  0  0  0  0  0
  151.5621  145.6794  160.0314 H   0  0  0  0  0  0  0  0  0  0  0  0
  150.2032  144.7450  159.4153 H   0  0  0  0  0  0  0  0  0  0  0  0
  151.5338  145.2225  158.3426 H   0  0  0  0  0  0  0  0  0  0  0  0
  152.5521  144.2640  161.6365 H   0  0  0  0  0  0  0  0  0  0  0  0
  153.9822  140.3101  160.4274 H   0  0  0  0  0  0  0  0  0  0  0  0
  150.8938  143.6697  157.3287 H   0  0  0  0  0  0  0  0  0  0  0  0
  151.9949  142.5771  156.6037 H   0  0  0  0  0  0  0  0  0  0  0  0
  148.9509  143.1210  156.6941 H   0  0  0  0  0  0  0  0  0  0  0  0
  147.9004  140.3613  157.0830 H   0  0  0  0  0  0  0  0  0  0  0  0
  147.0292  142.1180  154.7746 H   0  0  0  0  0  0  0  0  0  0  0  0
  146.9253  139.1366  155.3239 H   0  0  0  0  0  0  0  0  0  0  0  0
  145.5747  140.1970  154.9352 H   0  0  0  0  0  0  0  0  0  0  0  0
  146.9045  138.7021  153.0317 H   0  0  0  0  0  0  0  0  0  0  0  0
  146.1416  140.2385  152.6505 H   0  0  0  0  0  0  0  0  0  0  0  0
  148.9827  139.6921  152.5489 H   0  0  0  0  0  0  0  0  0  0  0  0
  148.1527  141.2093  152.2343 H   0  0  0  0  0  0  0  0  0  0  0  0
  149.3574  141.8939  154.1535 H   0  0  0  0  0  0  0  0  0  0  0  0
  149.4204  140.2523  154.7832 H   0  0  0  0  0  0  0  0  0  0  0  0
  151.9722  140.3152  157.8014 H   0  0  0  0  0  0  0  0  0  0  0  0
  1  2  1  0  0  0  0
  1 24  1  0  0  0  0
  1 25  1  0  0  0  0
  1 26  1  0  0  0  0
  2  9  1  0  0  0  0
  2  3  2  0  0  0  0
  3  4  1  0  0  0  0
  3 27  1  0  0  0  0
  4  5  2  0  0  0  0
  4  6  1  0  0  0  0
  6  7  2  0  0  0  0
  6 28  1  0  0  0  0
  7  8  1  0  0  0  0
  7  9  1  0  0  0  0
  8 42  1  0  0  0  0
  9 10  1  0  0  0  0
 10 11  1  0  0  0  0
 10 29  1  0  0  0  0
 10 30  1  0  0  0  0
 11 12  2  0  0  0  0
 11 13  1  0  0  0  0
 13 14  1  0  0  0  0
 13 31  1  0  0  0  0
 14 15  1  0  0  0  0
 14 20  1  0  0  0  0
 14 32  1  0  0  0  0
 15 19  1  0  0  0  0
 15 16  1  0  0  0  0
 15 33  1  0  0  0  0
 16 17  1  0  0  0  0
 16 34  1  0  0  0  0
 16 35  1  0  0  0  0
 17 18  1  0  0  0  0
 17 36  1  0  0  0  0
 17 37  1  0  0  0  0
 18 19  1  0  0  0  0
 18 38  1  0  0  0  0
 18 39  1  0  0  0  0
 19 40  1  0  0  0  0
 19 41  1  0  0  0  0
 20 21  1  0  0  0  0
 20 22  1  0  0  0  0
 20 23  1  0  0  0  0
M  END
> <s_m_source_file>
AV-unprocessed.smi

> <i_m_source_file_index>
2695

> <i_lp_mmshare_version>
43012

> <i_f3d_flags>
0

> <s_epik_input>
W0NIM11jMVtjSF1jKFtPSF0pW2NIXWMoPU8pbjFbQ0gyXUMoPU8pW05IXVtDQEBIXShDKEYpKEYpRilbQ0hdMltDSDJdW0NIMl1bQ0gyXVtDSDJdMg==

> <s_epik_cmdline>
J2VwaWtfcHl0aG9uJywgJy1waCcsICc3LjAnLCAnLXRuJywgJzgnLCAnLW1hJywgJzIwMCcsICctbWV0YWxfYmluZGluZycsICctaW1hZScsICc8aW5maWxlLm1hZT4nLCAnLW9tYWUnLCAnPG91dGZpbGUubWFlPic=

> <r_epik_Ionization_Penalty>
1.35977e-07

> <r_epik_Ionization_Penalty_Charging>
0

> <r_epik_Ionization_Penalty_Neutral>
1.35977e-07

> <r_epik_State_Penalty>
2.53185

> <r_epik_Charging_Adjusted_Penalty>
2.53185

> <i_epik_Tot_Q>
0

> <i_epik_Tot_abs_Q>
0

> <r_epik_Metal_State_Penalty>
2.53184

> <b_epik_Metal_Only>
0

> <s_lp_Force_Field>
OPLS_2005

> <r_lp_Energy>
25.5635

> <b_lp_Chiralities_Consistent>
1

> <s_lp_Variant>
AV-unprocessed.smi:2695-5

> <Gold.Version>
5.8.1

> <Gold.Id.Protein>
6NUR|6NUR_protein|mol2

> <Gold.PLP.Fitness>
43.5619

> <Gold.PLP.PLP>
-40.3055

> <Gold.PLP.part.hbond>
-2.7844

> <Gold.PLP.part.metal>
0.0000

> <Gold.PLP.part.buried>
0.4361

> <Gold.PLP.part.nonpolar>
-36.9152

> <Gold.PLP.part.repulsive>
0.0292

> <Gold.PLP.ligand.clash>
0.0000

> <Gold.PLP.ligand.torsion>
1.3037

> <Gold.PLP.Chemscore.Hbond>
1.8406

> <Gold.PLP.Chemscore.CHOScore>
0.0000

> <Gold.PLP.Chemscore.Metal>
0.0000

> <Gold.Chemscore.Hbonds>
donor molecule, donor type, donor heavy atom, donor atom, acceptor molecule, acceptor atom, score
      L1  H    13    31       P1  8028  1.00
      P1  H  7997  8009       L1     8  0.77

> <Gold.PLP.Chemscore.Internal.Correction>
0.3420

> <Gold.Rescore>
     Score         DG    S(hbond)    S(metal)    S(lipo)     H(rot)  DE(clash)    DE(int)     intcor
     11.12     -15.55       1.88        0.00      85.96       2.45       2.18       2.25       ----

> <Gold.Chemscore.Fitness>
11.1231

> <Gold.Chemscore.DG>
-15.5498

> <Gold.Chemscore.ZeroCoef>
-5.4800

> <Gold.Chemscore.Hbond>
1.8827

> <Gold.Chemscore.Metal>
0.0000

> <Gold.Chemscore.Lipo>
85.9566

> <Gold.Chemscore.Internal_Hbond>
0.0000

> <Gold.Chemscore.DEClash>
2.1816

> <Gold.Chemscore.DEInternal>
2.2452

> <Gold.Chemscore.Rot>
2.4512

> <Gold.Chemscore.Internal.Correction>
   9.000000E+99

> <Gold.Chemscore.Hbonds>
donor molecule, donor type, donor heavy atom, donor atom, acceptor molecule, acceptor atom, score
      L1  H    13    31       P1  8028  0.93
      P1  H  7997  8009       L1     8  0.72

> <Gold.Chemscore.Hbond.Weighted>
-6.2881

> <Gold.Chemscore.Metal.Weighted>
-0.0000

> <Gold.Chemscore.Lipo.Weighted>
-10.0569

> <Gold.Chemscore.Internal_Hbond.Weighted>
0.0000

> <Gold.Chemscore.DEClash.Weighted>
2.1816

> <Gold.Chemscore.DEInternal.Weighted>
2.2452

> <Gold.Chemscore.Rot.Weighted>
6.2752

> <Gold.Chemscore.Internal.Correction.Weighted>
   9.000000E+99

> <Gold.Protein.RotatedTorsions>
[ 6907 6896 6895 6894 ] final   94.17 input  -60.11 | X-H torsion
[ 7974 7965 7964 7962 ] final    7.54 input  175.53 | X-H torsion
[ 8008 7997 7996 7995 ] final  166.52 input   59.86 | X-H torsion
[ 10167 10162 10161 10158 ] final   24.14 input  -65.29 | X-H torsion
[ 10718 10713 10712 10709 ] final  -38.57 input   66.30 | X-H torsion
[ 10763 10752 10751 10750 ] final  -59.92 input  -60.55 | X-H torsion
[ 11005 11000 10999 10996 ] final   73.48 input  -57.11 | X-H torsion

> <Gold.Protein.ActiveResidues>
 VAL166  LYS551  ARG553  GLY616  TRP617  ASP618  TYR619  PRO620  LYS621  CYS622 
 ASP623  PHE694  ASN695  SER759  ASP760  ASP761  ALA762  ILE779  LEU786  VAL792 
 PHE793  MET794  SER795  GLU796  ALA797  LYS798  CYS799  TRP800  GLU811  SER814 

> <Gold.Protein.RotatedAtoms>
  152.5450  134.1235  159.8408 H   0  0  0  0  0  0  0  0  0  0  0  0  # atno 6907 bound_to 6896
  151.1288  133.5044  159.2607 H   0  0  0  0  0  0  0  0  0  0  0  0  # atno 6908 bound_to 6896
  151.1697  135.0322  159.8801 H   0  0  0  0  0  0  0  0  0  0  0  0  # atno 6909 bound_to 6896
  146.2425  140.0068  142.8410 H   0  0  0  0  0  0  0  0  0  0  0  0  # atno 7974 bound_to 7965
  156.1711  140.1641  156.8445 H   0  0  0  0  0  0  0  0  0  0  0  0  # atno 8008 bound_to 7997
  154.5258  140.0768  156.8290 H   0  0  0  0  0  0  0  0  0  0  0  0  # atno 8009 bound_to 7997
  155.3509  140.3390  155.4241 H   0  0  0  0  0  0  0  0  0  0  0  0  # atno 8010 bound_to 7997
  140.5212  143.9999  150.6418 H   0  0  0  0  0  0  0  0  0  0  0  0  # atno 10167 bound_to 10162
  156.3022  130.4241  149.8132 H   0  0  0  0  0  0  0  0  0  0  0  0  # atno 10718 bound_to 10713
  154.2612  135.6308  153.5275 H   0  0  0  0  0  0  0  0  0  0  0  0  # atno 10763 bound_to 10752
  152.9895  135.5588  154.5702 H   0  0  0  0  0  0  0  0  0  0  0  0  # atno 10764 bound_to 10752
  154.5252  135.2885  155.1203 H   0  0  0  0  0  0  0  0  0  0  0  0  # atno 10765 bound_to 10752
  139.9438  134.7350  156.1031 H   0  0  0  0  0  0  0  0  0  0  0  0  # atno 11005 bound_to 11000
  145.1365  140.9547  143.4514 LP  0  0  0  0  0  0  0  0  0  0  0  0  # atno 17320 bound_to 7965
  145.0337  139.3319  143.6011 LP  0  0  0  0  0  0  0  0  0  0  0  0  # atno 17321 bound_to 7965
  140.3348  143.3055  152.0649 LP  0  0  0  0  0  0  0  0  0  0  0  0  # atno 17342 bound_to 10162
  139.4924  144.6484  151.6730 LP  0  0  0  0  0  0  0  0  0  0  0  0  # atno 17343 bound_to 10162
  156.5506  130.8340  151.3298 LP  0  0  0  0  0  0  0  0  0  0  0  0  # atno 17370 bound_to 10713
  157.7371  130.9789  150.2172 LP  0  0  0  0  0  0  0  0  0  0  0  0  # atno 17371 bound_to 10713
  141.1082  133.6652  156.2914 LP  0  0  0  0  0  0  0  0  0  0  0  0  # atno 17394 bound_to 11000
  140.5885  134.5674  157.5494 LP  0  0  0  0  0  0  0  0  0  0  0  0  # atno 17395 bound_to 11000

$$$$
