AV-unprocessed.smi:1978|AV-procd|sdf|8000|dock5
  -GOLD-   2272010183D 1   1.00000     0.00000
 Structure written by MMmdl.
 44 45  0  0  0  0  0  0  0  0  3 V2000
  153.6771  137.5990  156.9080 C   0  0  0  0  0  0  0  0  0  0  0  0
  152.6752  138.1980  155.9812 C   0  0  0  0  0  0  0  0  0  0  0  0
  151.6304  137.6699  155.2772 C   0  0  0  0  0  0  0  0  0  0  0  0
  151.0893  138.7988  154.6031 C   0  0  0  0  0  0  0  0  0  0  0  0
  150.0396  138.7918  153.7670 N   0  5  0  0  0  0  0  0  0  0  0  0
  148.7799  138.8390  154.2561 C   0  0  0  0  0  0  0  0  0  0  0  0
  148.3065  139.7205  154.9771 O   0  0  0  0  0  0  0  0  0  0  0  0
  148.0206  137.7960  153.8908 N   0  0  0  0  0  0  0  0  0  0  0  0
  146.6307  137.5782  154.2812 C   0  0  0  0  0  0  0  0  0  0  0  0
  145.7533  137.0130  153.1258 C   0  0  2  0  0  0  0  0  0  0  0  0
  144.2722  136.9668  153.5781 C   0  0  0  0  0  0  0  0  0  0  0  0
  146.2185  135.6674  152.6394 N   0  3  1  0  0  0  0  0  0  0  0  0
  146.0105  134.5675  153.6309 C   0  0  0  0  0  0  0  0  0  0  0  0
  146.6894  133.2596  153.1931 C   0  0  0  0  0  0  0  0  0  0  0  0
  146.2071  132.8165  151.8114 C   0  0  0  0  0  0  0  0  0  0  0  0
  146.4187  133.9565  150.8106 C   0  0  0  0  0  0  0  0  0  0  0  0
  145.7496  135.2698  151.2689 C   0  0  1  0  0  0  0  0  0  0  0  0
  144.2107  135.2118  151.1382 C   0  0  0  0  0  0  0  0  0  0  0  0
  151.7584  139.9100  154.8605 N   0  0  0  0  0  0  0  0  0  0  0  0
  152.7736  139.5346  155.7483 O   0  0  0  0  0  0  0  0  0  0  0  0
  154.2677  136.8388  156.3968 H   0  0  0  0  0  0  0  0  0  0  0  0
  153.1828  137.1295  157.7585 H   0  0  0  0  0  0  0  0  0  0  0  0
  154.3614  138.3564  157.2910 H   0  0  0  0  0  0  0  0  0  0  0  0
  151.3020  136.6417  155.2514 H   0  0  0  0  0  0  0  0  0  0  0  0
  148.4448  137.1002  153.2946 H   0  0  0  0  0  0  0  0  0  0  0  0
  146.6560  136.9177  155.1468 H   0  0  0  0  0  0  0  0  0  0  0  0
  146.2243  138.5285  154.6283 H   0  0  0  0  0  0  0  0  0  0  0  0
  145.8173  137.7029  152.2834 H   0  0  0  0  0  0  0  0  0  0  0  0
  143.9488  137.9061  154.0252 H   0  0  0  0  0  0  0  0  0  0  0  0
  144.1097  136.1830  154.3185 H   0  0  0  0  0  0  0  0  0  0  0  0
  143.5849  136.8018  152.7504 H   0  0  0  0  0  0  0  0  0  0  0  0
  146.4336  134.8219  154.5993 H   0  0  0  0  0  0  0  0  0  0  0  0
  144.9442  134.4078  153.7940 H   0  0  0  0  0  0  0  0  0  0  0  0
  147.7715  133.3985  153.1763 H   0  0  0  0  0  0  0  0  0  0  0  0
  146.4910  132.4750  153.9241 H   0  0  0  0  0  0  0  0  0  0  0  0
  146.7514  131.9279  151.4901 H   0  0  0  0  0  0  0  0  0  0  0  0
  145.1541  132.5372  151.8533 H   0  0  0  0  0  0  0  0  0  0  0  0
  147.4894  134.1252  150.6857 H   0  0  0  0  0  0  0  0  0  0  0  0
  146.0446  133.6640  149.8287 H   0  0  0  0  0  0  0  0  0  0  0  0
  146.1107  136.0087  150.5557 H   0  0  0  0  0  0  0  0  0  0  0  0
  143.9220  134.9472  150.1207 H   0  0  0  0  0  0  0  0  0  0  0  0
  143.7430  136.1712  151.3569 H   0  0  0  0  0  0  0  0  0  0  0  0
  143.7651  134.4725  151.8024 H   0  0  0  0  0  0  0  0  0  0  0  0
  147.2203  135.7589  152.5501 H   0  0  0  0  0  0  0  0  0  0  0  0
  1  2  1  0  0  0  0
  1 21  1  0  0  0  0
  1 22  1  0  0  0  0
  1 23  1  0  0  0  0
  2 20  1  0  0  0  0
  2  3  2  0  0  0  0
  3  4  1  0  0  0  0
  3 24  1  0  0  0  0
  4  5  1  0  0  0  0
  4 19  2  0  0  0  0
  5  6  1  0  0  0  0
  6  7  2  0  0  0  0
  6  8  1  0  0  0  0
  8  9  1  0  0  0  0
  8 25  1  0  0  0  0
  9 10  1  0  0  0  0
  9 26  1  0  0  0  0
  9 27  1  0  0  0  0
 10 11  1  0  0  0  0
 10 12  1  0  0  0  0
 10 28  1  0  0  0  0
 11 29  1  0  0  0  0
 11 30  1  0  0  0  0
 11 31  1  0  0  0  0
 12 17  1  0  0  0  0
 12 13  1  0  0  0  0
 12 44  1  0  0  0  0
 13 14  1  0  0  0  0
 13 32  1  0  0  0  0
 13 33  1  0  0  0  0
 14 15  1  0  0  0  0
 14 34  1  0  0  0  0
 14 35  1  0  0  0  0
 15 16  1  0  0  0  0
 15 36  1  0  0  0  0
 15 37  1  0  0  0  0
 16 17  1  0  0  0  0
 16 38  1  0  0  0  0
 16 39  1  0  0  0  0
 17 18  1  0  0  0  0
 17 40  1  0  0  0  0
 18 41  1  0  0  0  0
 18 42  1  0  0  0  0
 18 43  1  0  0  0  0
 19 20  1  0  0  0  0
M  CHG  1   5  -1
M  CHG  1  12   1
M  END
> <s_m_source_file>
AV-unprocessed.smi

> <i_m_source_file_index>
1978

> <i_lp_mmshare_version>
43012

> <i_f3d_flags>
0

> <s_epik_input>
W0NIM11jMVtjSF1jKG5vMSlbTkhdQyg9TylbTkhdW0NIMl1bQ0BIXShbQ0gzXSlOMltDSDJdW0NIMl1bQ0gyXVtDSDJdW0NASF0yW0NIM10=

> <s_epik_cmdline>
J2VwaWtfcHl0aG9uJywgJy1waCcsICc3LjAnLCAnLXRuJywgJzgnLCAnLW1hJywgJzIwMCcsICctbWV0YWxfYmluZGluZycsICctaW1hZScsICc8aW5maWxlLm1hZT4nLCAnLW9tYWUnLCAnPG91dGZpbGUubWFlPic=

> <r_epik_Ionization_Penalty>
6.22372

> <r_epik_Ionization_Penalty_Charging>
6.22362

> <r_epik_Ionization_Penalty_Neutral>
9.65074e-05

> <r_epik_State_Penalty>
6.22363

> <r_epik_Charging_Adjusted_Penalty>
12.4472

> <i_epik_Tot_Q>
0

> <i_epik_Tot_abs_Q>
2

> <r_epik_Metal_State_Penalty>
2.16675

> <b_epik_Metal_Only>
1

> <s_lp_Force_Field>
OPLS_2005

> <r_lp_Energy>
12.8084

> <b_lp_Chiralities_Consistent>
1

> <s_lp_Variant>
AV-unprocessed.smi:1978-9

> <Gold.Version>
5.8.1

> <Gold.Id.Protein>
6NUR|6NUR_protein|mol2

> <Gold.PLP.Fitness>
39.4120

> <Gold.PLP.PLP>
-27.5549

> <Gold.PLP.part.hbond>
-4.0000

> <Gold.PLP.part.metal>
0.0000

> <Gold.PLP.part.buried>
-7.4417

> <Gold.PLP.part.nonpolar>
-17.9891

> <Gold.PLP.part.repulsive>
1.4287

> <Gold.PLP.ligand.clash>
0.0000

> <Gold.PLP.ligand.torsion>
1.6189

> <Gold.PLP.Chemscore.Hbond>
5.0000

> <Gold.PLP.Chemscore.CHOScore>
0.0000

> <Gold.PLP.Chemscore.Metal>
0.0000

> <Gold.Chemscore.Hbonds>
donor molecule, donor type, donor heavy atom, donor atom, acceptor molecule, acceptor atom, score
      L1  H     8    25       P1  7948  1.00
      L1  H    12    44       P1  7948  2.00
      P1  H  7989  7998       L1    19  1.00
      P1  H  7997  8009       L1    20  1.00

> <Gold.PLP.Chemscore.Internal.Correction>
0.0948

> <Gold.Rescore>
     Score         DG    S(hbond)    S(metal)    S(lipo)     H(rot)  DE(clash)    DE(int)     intcor
     18.33     -20.61       3.79        0.00      54.42       1.52       0.02       2.25       ----

> <Gold.Chemscore.Fitness>
18.3299

> <Gold.Chemscore.DG>
-20.6051

> <Gold.Chemscore.ZeroCoef>
-5.4800

> <Gold.Chemscore.Hbond>
3.7866

> <Gold.Chemscore.Metal>
0.0000

> <Gold.Chemscore.Lipo>
54.4161

> <Gold.Chemscore.Internal_Hbond>
0.0000

> <Gold.Chemscore.DEClash>
0.0202

> <Gold.Chemscore.DEInternal>
2.2550

> <Gold.Chemscore.Rot>
1.5190

> <Gold.Chemscore.Internal.Correction>
   9.000000E+99

> <Gold.Chemscore.Hbonds>
donor molecule, donor type, donor heavy atom, donor atom, acceptor molecule, acceptor atom, score
      L1  H     8    25       P1  7948  1.00
      L1  H    12    44       P1  7948  0.99
      P1  H  7989  7998       L1    19  0.57
      P1  H  7997  8009       L1    20  0.64

> <Gold.Chemscore.Hbond.Weighted>
-12.6471

> <Gold.Chemscore.Metal.Weighted>
-0.0000

> <Gold.Chemscore.Lipo.Weighted>
-6.3667

> <Gold.Chemscore.Internal_Hbond.Weighted>
0.0000

> <Gold.Chemscore.DEClash.Weighted>
0.0202

> <Gold.Chemscore.DEInternal.Weighted>
2.2550

> <Gold.Chemscore.Rot.Weighted>
3.8886

> <Gold.Chemscore.Internal.Correction.Weighted>
   9.000000E+99

> <Gold.Protein.RotatedTorsions>
[ 6907 6896 6895 6894 ] final -163.35 input  -60.11 | X-H torsion
[ 7974 7965 7964 7962 ] final  148.76 input  175.53 | X-H torsion
[ 8008 7997 7996 7995 ] final -169.76 input   59.86 | X-H torsion
[ 10167 10162 10161 10158 ] final    0.51 input  -65.29 | X-H torsion
[ 10718 10713 10712 10709 ] final  175.28 input   66.30 | X-H torsion
[ 10763 10752 10751 10750 ] final -149.60 input  -60.55 | X-H torsion
[ 11005 11000 10999 10996 ] final -124.53 input  -57.11 | X-H torsion

> <Gold.Protein.ActiveResidues>
 VAL166  LYS551  ARG553  GLY616  TRP617  ASP618  TYR619  PRO620  LYS621  CYS622 
 ASP623  PHE694  ASN695  SER759  ASP760  ASP761  ALA762  ILE779  LEU786  VAL792 
 PHE793  MET794  SER795  GLU796  ALA797  LYS798  CYS799  TRP800  GLU811  SER814 

> <Gold.Protein.RotatedAtoms>
  151.3947  133.3777  159.2724 H   0  0  0  0  0  0  0  0  0  0  0  0  # atno 6907 bound_to 6896
  150.9479  134.8883  159.7664 H   0  0  0  0  0  0  0  0  0  0  0  0  # atno 6908 bound_to 6896
  152.5099  134.3901  159.9433 H   0  0  0  0  0  0  0  0  0  0  0  0  # atno 6909 bound_to 6896
  144.8489  139.6194  143.5982 H   0  0  0  0  0  0  0  0  0  0  0  0  # atno 7974 bound_to 7965
  155.9093  140.1054  157.1291 H   0  0  0  0  0  0  0  0  0  0  0  0  # atno 8008 bound_to 7997
  154.4037  140.1277  156.4602 H   0  0  0  0  0  0  0  0  0  0  0  0  # atno 8009 bound_to 7997
  155.7329  140.3468  155.5070 H   0  0  0  0  0  0  0  0  0  0  0  0  # atno 8010 bound_to 7997
  140.6725  143.7008  150.7953 H   0  0  0  0  0  0  0  0  0  0  0  0  # atno 10167 bound_to 10162
  156.9372  130.9990  151.2975 H   0  0  0  0  0  0  0  0  0  0  0  0  # atno 10718 bound_to 10713
  154.8168  135.3305  154.7154 H   0  0  0  0  0  0  0  0  0  0  0  0  # atno 10763 bound_to 10752
  153.7794  135.6919  153.4896 H   0  0  0  0  0  0  0  0  0  0  0  0  # atno 10764 bound_to 10752
  153.1991  135.4523  155.0192 H   0  0  0  0  0  0  0  0  0  0  0  0  # atno 10765 bound_to 10752
  140.9834  134.0641  157.3739 H   0  0  0  0  0  0  0  0  0  0  0  0  # atno 11005 bound_to 11000
  146.2768  139.6774  142.9257 LP  0  0  0  0  0  0  0  0  0  0  0  0  # atno 17320 bound_to 7965
  145.4539  141.0430  143.2789 LP  0  0  0  0  0  0  0  0  0  0  0  0  # atno 17321 bound_to 7965
  140.0695  143.5075  152.2587 LP  0  0  0  0  0  0  0  0  0  0  0  0  # atno 17342 bound_to 10162
  139.6001  144.7580  151.3193 LP  0  0  0  0  0  0  0  0  0  0  0  0  # atno 17343 bound_to 10162
  157.5808  130.8375  149.8520 LP  0  0  0  0  0  0  0  0  0  0  0  0  # atno 17370 bound_to 10713
  156.0420  130.3736  150.1411 LP  0  0  0  0  0  0  0  0  0  0  0  0  # atno 17371 bound_to 10713
  139.8960  135.0143  156.7029 LP  0  0  0  0  0  0  0  0  0  0  0  0  # atno 17394 bound_to 11000
  140.7152  133.9188  155.8110 LP  0  0  0  0  0  0  0  0  0  0  0  0  # atno 17395 bound_to 11000

$$$$
