AV-unprocessed.smi:1945|AV-procd|sdf|7858|dock3
  -GOLD-   2272010 03D 1   1.00000     0.00000
 Structure written by MMmdl.
 47 48  0  0  0  0  0  0  0  0  1 V2000
  145.2160  130.6125  151.3913 C   0  0  0  0  0  0  0  0  0  0  0  0
  145.3407  132.0913  151.6103 C   0  0  0  0  0  0  0  0  0  0  0  0
  146.4577  132.8105  152.1257 C   0  0  0  0  0  0  0  0  0  0  0  0
  146.0172  134.1057  152.1044 C   0  0  0  0  0  0  0  0  0  0  0  0
  146.6631  135.2301  152.5124 N   0  0  0  0  0  0  0  0  0  0  0  0
  146.1700  136.2551  153.2277 C   0  0  0  0  0  0  0  0  0  0  0  0
  145.0885  136.2534  153.8164 O   0  0  0  0  0  0  0  0  0  0  0  0
  147.0052  137.3041  153.2151 N   0  0  0  0  0  0  0  0  0  0  0  0
  146.6931  138.6247  153.7536 C   0  0  0  0  0  0  0  0  0  0  0  0
  147.2026  138.7665  155.1968 C   0  0  0  0  0  0  0  0  0  0  0  0
  148.6025  138.5328  155.2078 O   0  0  0  0  0  0  0  0  0  0  0  0
  149.3536  139.2346  154.2259 C   0  0  1  0  0  0  0  0  0  0  0  0
  149.0380  140.7465  154.2760 C   0  0  0  0  0  0  0  0  0  0  0  0
  149.4627  141.3772  155.6133 C   0  0  0  0  0  0  0  0  0  0  0  0
  150.9455  141.1116  155.9123 C   0  0  0  0  0  0  0  0  0  0  0  0
  151.2683  139.6099  155.8600 C   0  0  0  0  0  0  0  0  0  0  0  0
  150.8517  138.9867  154.5114 C   0  0  1  0  0  0  0  0  0  0  0  0
  151.2143  137.4953  154.4359 C   0  0  0  0  0  0  0  0  0  0  0  0
  144.7267  134.1297  151.6243 N   0  0  0  0  0  0  0  0  0  0  0  0
  143.8354  135.2562  151.4288 C   0  0  0  0  0  0  0  0  0  0  0  0
  144.3156  132.8817  151.3113 N   0  0  0  0  0  0  0  0  0  0  0  0
  146.0876  130.0827  151.7759 H   0  0  0  0  0  0  0  0  0  0  0  0
  145.1275  130.3796  150.3300 H   0  0  0  0  0  0  0  0  0  0  0  0
  144.3364  130.2125  151.8960 H   0  0  0  0  0  0  0  0  0  0  0  0
  147.4094  132.4227  152.4570 H   0  0  0  0  0  0  0  0  0  0  0  0
  147.6058  135.3358  152.1679 H   0  0  0  0  0  0  0  0  0  0  0  0
  147.8812  137.2104  152.7228 H   0  0  0  0  0  0  0  0  0  0  0  0
  147.1027  139.4129  153.1195 H   0  0  0  0  0  0  0  0  0  0  0  0
  145.6098  138.7450  153.7365 H   0  0  0  0  0  0  0  0  0  0  0  0
  147.0030  139.7717  155.5696 H   0  0  0  0  0  0  0  0  0  0  0  0
  146.6721  138.0690  155.8447 H   0  0  0  0  0  0  0  0  0  0  0  0
  149.1150  138.8420  153.2358 H   0  0  0  0  0  0  0  0  0  0  0  0
  149.5663  141.2470  153.4638 H   0  0  0  0  0  0  0  0  0  0  0  0
  147.9797  140.9337  154.0993 H   0  0  0  0  0  0  0  0  0  0  0  0
  149.2755  142.4511  155.5939 H   0  0  0  0  0  0  0  0  0  0  0  0
  148.8508  140.9753  156.4201 H   0  0  0  0  0  0  0  0  0  0  0  0
  151.5638  141.6423  155.1876 H   0  0  0  0  0  0  0  0  0  0  0  0
  151.2035  141.5129  156.8930 H   0  0  0  0  0  0  0  0  0  0  0  0
  152.3360  139.4626  156.0252 H   0  0  0  0  0  0  0  0  0  0  0  0
  150.7592  139.1000  156.6790 H   0  0  0  0  0  0  0  0  0  0  0  0
  151.4214  139.4900  153.7287 H   0  0  0  0  0  0  0  0  0  0  0  0
  150.7005  136.9199  155.2067 H   0  0  0  0  0  0  0  0  0  0  0  0
  152.2857  137.3452  154.5707 H   0  0  0  0  0  0  0  0  0  0  0  0
  150.9415  137.0734  153.4682 H   0  0  0  0  0  0  0  0  0  0  0  0
  143.8584  135.9026  152.3065 H   0  0  0  0  0  0  0  0  0  0  0  0
  142.8119  134.9120  151.2741 H   0  0  0  0  0  0  0  0  0  0  0  0
  144.1546  135.8265  150.5562 H   0  0  0  0  0  0  0  0  0  0  0  0
  1  2  1  0  0  0  0
  1 22  1  0  0  0  0
  1 23  1  0  0  0  0
  1 24  1  0  0  0  0
  2 21  2  0  0  0  0
  2  3  1  0  0  0  0
  3  4  2  0  0  0  0
  3 25  1  0  0  0  0
  4  5  1  0  0  0  0
  4 19  1  0  0  0  0
  5  6  1  0  0  0  0
  5 26  1  0  0  0  0
  6  7  2  0  0  0  0
  6  8  1  0  0  0  0
  8  9  1  0  0  0  0
  8 27  1  0  0  0  0
  9 10  1  0  0  0  0
  9 28  1  0  0  0  0
  9 29  1  0  0  0  0
 10 11  1  0  0  0  0
 10 30  1  0  0  0  0
 10 31  1  0  0  0  0
 11 12  1  0  0  0  0
 12 17  1  0  0  0  0
 12 13  1  0  0  0  0
 12 32  1  0  0  0  0
 13 14  1  0  0  0  0
 13 33  1  0  0  0  0
 13 34  1  0  0  0  0
 14 15  1  0  0  0  0
 14 35  1  0  0  0  0
 14 36  1  0  0  0  0
 15 16  1  0  0  0  0
 15 37  1  0  0  0  0
 15 38  1  0  0  0  0
 16 17  1  0  0  0  0
 16 39  1  0  0  0  0
 16 40  1  0  0  0  0
 17 18  1  0  0  0  0
 17 41  1  0  0  0  0
 18 42  1  0  0  0  0
 18 43  1  0  0  0  0
 18 44  1  0  0  0  0
 19 20  1  0  0  0  0
 19 21  1  0  0  0  0
 20 45  1  0  0  0  0
 20 46  1  0  0  0  0
 20 47  1  0  0  0  0
M  END
> <s_m_source_file>
AV-unprocessed.smi

> <i_m_source_file_index>
1945

> <i_lp_mmshare_version>
43012

> <i_f3d_flags>
0

> <s_epik_input>
W0NIM11jMVtjSF1jKG4objEpW0NIM10pW05IXUMoPU8pW05IXVtDSDJdW0NIMl1PW0NAQEhdMltDSDJdW0NIMl1bQ0gyXVtDSDJdW0NASF0yW0NIM10=

> <s_epik_cmdline>
J2VwaWtfcHl0aG9uJywgJy1waCcsICc3LjAnLCAnLXRuJywgJzgnLCAnLW1hJywgJzIwMCcsICctbWV0YWxfYmluZGluZycsICctaW1hZScsICc8aW5maWxlLm1hZT4nLCAnLW9tYWUnLCAnPG91dGZpbGUubWFlPic=

> <r_lp_tautomer_probability>
1

> <r_epik_Ionization_Penalty>
9.47735e-05

> <r_epik_Ionization_Penalty_Charging>
0

> <r_epik_Ionization_Penalty_Neutral>
9.47735e-05

> <r_epik_State_Penalty>
-0

> <r_epik_Charging_Adjusted_Penalty>
0

> <i_epik_Tot_Q>
0

> <i_epik_Tot_abs_Q>
0

> <r_epik_Metal_State_Penalty>
-0

> <b_epik_Metal_Only>
0

> <s_lp_Force_Field>
OPLS_2005

> <r_lp_Energy>
11.3834

> <b_lp_Chiralities_Consistent>
1

> <s_lp_Variant>
AV-unprocessed.smi:1945-2

> <Gold.Version>
5.8.1

> <Gold.Id.Protein>
6NUR|6NUR_protein|mol2

> <Gold.PLP.Fitness>
39.7199

> <Gold.PLP.PLP>
-34.8621

> <Gold.PLP.part.hbond>
-2.0000

> <Gold.PLP.part.metal>
0.0000

> <Gold.PLP.part.buried>
-3.0865

> <Gold.PLP.part.nonpolar>
-30.0838

> <Gold.PLP.part.repulsive>
0.2945

> <Gold.PLP.ligand.clash>
0.0000

> <Gold.PLP.ligand.torsion>
0.5767

> <Gold.PLP.Chemscore.Hbond>
1.9920

> <Gold.PLP.Chemscore.CHOScore>
0.0000

> <Gold.PLP.Chemscore.Metal>
0.0000

> <Gold.Chemscore.Hbonds>
donor molecule, donor type, donor heavy atom, donor atom, acceptor molecule, acceptor atom, score
      L1  H     5    26       P1  7948  1.00
      L1  H     8    27       P1  7948  0.99

> <Gold.PLP.Chemscore.Internal.Correction>
0.0352

> <Gold.Rescore>
     Score         DG    S(hbond)    S(metal)    S(lipo)     H(rot)  DE(clash)    DE(int)     intcor
     16.75     -17.59       1.93        0.00      84.03       1.63       0.16       0.68       ----

> <Gold.Chemscore.Fitness>
16.7494

> <Gold.Chemscore.DG>
-17.5851

> <Gold.Chemscore.ZeroCoef>
-5.4800

> <Gold.Chemscore.Hbond>
1.9314

> <Gold.Chemscore.Metal>
0.0000

> <Gold.Chemscore.Lipo>
84.0256

> <Gold.Chemscore.Internal_Hbond>
0.0000

> <Gold.Chemscore.DEClash>
0.1556

> <Gold.Chemscore.DEInternal>
0.6802

> <Gold.Chemscore.Rot>
1.6316

> <Gold.Chemscore.Internal.Correction>
   9.000000E+99

> <Gold.Chemscore.Hbonds>
donor molecule, donor type, donor heavy atom, donor atom, acceptor molecule, acceptor atom, score
      L1  H     5    26       P1  7948  0.96
      L1  H     8    27       P1  7948  0.93

> <Gold.Chemscore.Hbond.Weighted>
-6.4509

> <Gold.Chemscore.Metal.Weighted>
-0.0000

> <Gold.Chemscore.Lipo.Weighted>
-9.8310

> <Gold.Chemscore.Internal_Hbond.Weighted>
0.0000

> <Gold.Chemscore.DEClash.Weighted>
0.1556

> <Gold.Chemscore.DEInternal.Weighted>
0.6802

> <Gold.Chemscore.Rot.Weighted>
4.1768

> <Gold.Chemscore.Internal.Correction.Weighted>
   9.000000E+99

> <Gold.Protein.RotatedTorsions>
[ 6907 6896 6895 6894 ] final  135.84 input  -60.11 | X-H torsion
[ 7974 7965 7964 7962 ] final -162.87 input  175.53 | X-H torsion
[ 8008 7997 7996 7995 ] final -139.33 input   59.86 | X-H torsion
[ 10167 10162 10161 10158 ] final -178.45 input  -65.29 | X-H torsion
[ 10718 10713 10712 10709 ] final    9.25 input   66.30 | X-H torsion
[ 10763 10752 10751 10750 ] final  164.16 input  -60.55 | X-H torsion
[ 11005 11000 10999 10996 ] final  142.72 input  -57.11 | X-H torsion

> <Gold.Protein.ActiveResidues>
 VAL166  LYS551  ARG553  GLY616  TRP617  ASP618  TYR619  PRO620  LYS621  CYS622 
 ASP623  PHE694  ASN695  SER759  ASP760  ASP761  ALA762  ILE779  LEU786  VAL792 
 PHE793  MET794  SER795  GLU796  ALA797  LYS798  CYS799  TRP800  GLU811  SER814 

> <Gold.Protein.RotatedAtoms>
  152.2960  133.5608  159.5587 H   0  0  0  0  0  0  0  0  0  0  0  0  # atno 6907 bound_to 6896
  150.7256  134.0360  159.3758 H   0  0  0  0  0  0  0  0  0  0  0  0  # atno 6908 bound_to 6896
  151.8263  135.0636  160.0482 H   0  0  0  0  0  0  0  0  0  0  0  0  # atno 6909 bound_to 6896
  144.7343  140.3189  143.6174 H   0  0  0  0  0  0  0  0  0  0  0  0  # atno 7974 bound_to 7965
  155.4431  140.0533  157.3008 H   0  0  0  0  0  0  0  0  0  0  0  0  # atno 8008 bound_to 7997
  154.4809  140.2081  155.9722 H   0  0  0  0  0  0  0  0  0  0  0  0  # atno 8009 bound_to 7997
  156.1205  140.3189  155.8206 H   0  0  0  0  0  0  0  0  0  0  0  0  # atno 8010 bound_to 7997
  139.5432  144.2307  152.0936 H   0  0  0  0  0  0  0  0  0  0  0  0  # atno 10167 bound_to 10162
  156.9636  130.5942  149.5664 H   0  0  0  0  0  0  0  0  0  0  0  0  # atno 10718 bound_to 10713
  154.3046  135.2758  155.2595 H   0  0  0  0  0  0  0  0  0  0  0  0  # atno 10763 bound_to 10752
  154.5016  135.5806  153.6539 H   0  0  0  0  0  0  0  0  0  0  0  0  # atno 10764 bound_to 10752
  152.9896  135.6159  154.3219 H   0  0  0  0  0  0  0  0  0  0  0  0  # atno 10765 bound_to 10752
  140.0498  134.9261  157.0996 H   0  0  0  0  0  0  0  0  0  0  0  0  # atno 11005 bound_to 11000
  145.7588  139.1818  143.2279 LP  0  0  0  0  0  0  0  0  0  0  0  0  # atno 17320 bound_to 7965
  146.1002  140.7552  142.9552 LP  0  0  0  0  0  0  0  0  0  0  0  0  # atno 17321 bound_to 7965
  140.1789  144.4863  150.6539 LP  0  0  0  0  0  0  0  0  0  0  0  0  # atno 17342 bound_to 10162
  140.6670  143.2271  151.5719 LP  0  0  0  0  0  0  0  0  0  0  0  0  # atno 17343 bound_to 10162
  156.0312  130.5403  150.8538 LP  0  0  0  0  0  0  0  0  0  0  0  0  # atno 17370 bound_to 10713
  157.5641  131.0946  150.9516 LP  0  0  0  0  0  0  0  0  0  0  0  0  # atno 17371 bound_to 10713
  140.3935  134.2159  155.7165 LP  0  0  0  0  0  0  0  0  0  0  0  0  # atno 17394 bound_to 11000
  141.1925  133.8172  157.0838 LP  0  0  0  0  0  0  0  0  0  0  0  0  # atno 17395 bound_to 11000

$$$$
