AV-unprocessed.smi:2401|AV-procd|sdf|9504|dock6
  -GOLD-   2272013133D 1   1.00000     0.00000
 Structure written by MMmdl.
 34 35  0  0  0  0  0  0  0  0  1 V2000
  146.7829  138.1788  153.7158 C   0  0  0  0  0  0  0  0  0  0  0  0
  148.0404  138.8531  154.2353 C   0  0  0  0  0  0  0  0  0  0  0  0
  149.0185  137.9952  154.7464 N   0  0  0  0  0  0  0  0  0  0  0  0
  150.1213  138.4809  155.2153 C   0  0  0  0  0  0  0  0  0  0  0  0
  150.3727  139.8626  155.2267 N   0  0  0  0  0  0  0  0  0  0  0  0
  151.6612  140.2871  155.7999 C   0  0  0  0  0  0  0  0  0  0  0  0
  151.6940  140.1391  157.3373 C   0  0  1  0  0  0  0  0  0  0  0  0
  152.8055  139.3397  157.6917 O   0  0  0  0  0  0  0  0  0  0  0  0
  151.7527  141.4996  158.0153 C   0  0  0  0  0  0  0  0  0  0  0  0
  152.6891  141.7552  159.0417 C   0  0  0  0  0  0  0  0  0  0  0  0
  152.7386  143.0203  159.6587 C   0  0  0  0  0  0  0  0  0  0  0  0
  151.8549  144.0384  159.2514 C   0  0  0  0  0  0  0  0  0  0  0  0
  151.9148  145.5878  160.0080 Cl  0  0  0  0  0  0  0  0  0  0  0  0
  150.9233  143.7908  158.2247 C   0  0  0  0  0  0  0  0  0  0  0  0
  150.8735  142.5258  157.6075 C   0  0  0  0  0  0  0  0  0  0  0  0
  149.4711  140.7694  154.7506 C   0  0  0  0  0  0  0  0  0  0  0  0
  149.6974  141.9810  154.7762 O   0  0  0  0  0  0  0  0  0  0  0  0
  148.2222  140.2018  154.2177 C   0  0  0  0  0  0  0  0  0  0  0  0
  147.1931  141.1850  153.6739 C   0  0  0  0  0  0  0  0  0  0  0  0
  146.6301  138.4125  152.6618 H   0  0  0  0  0  0  0  0  0  0  0  0
  145.9107  138.5137  154.2781 H   0  0  0  0  0  0  0  0  0  0  0  0
  146.8450  137.0940  153.8115 H   0  0  0  0  0  0  0  0  0  0  0  0
  150.9136  137.8554  155.6303 H   0  0  0  0  0  0  0  0  0  0  0  0
  152.5110  139.7720  155.3461 H   0  0  0  0  0  0  0  0  0  0  0  0
  151.8135  141.3360  155.5376 H   0  0  0  0  0  0  0  0  0  0  0  0
  150.7970  139.6257  157.6864 H   0  0  0  0  0  0  0  0  0  0  0  0
  152.4993  138.4626  157.8657 H   0  0  0  0  0  0  0  0  0  0  0  0
  153.3740  140.9821  159.3582 H   0  0  0  0  0  0  0  0  0  0  0  0
  153.4559  143.2081  160.4440 H   0  0  0  0  0  0  0  0  0  0  0  0
  150.2461  144.5706  157.9082 H   0  0  0  0  0  0  0  0  0  0  0  0
  150.1574  142.3472  156.8185 H   0  0  0  0  0  0  0  0  0  0  0  0
  146.8844  141.8772  154.4579 H   0  0  0  0  0  0  0  0  0  0  0  0
  146.2959  140.7011  153.2920 H   0  0  0  0  0  0  0  0  0  0  0  0
  147.6240  141.7667  152.8583 H   0  0  0  0  0  0  0  0  0  0  0  0
  1  2  1  0  0  0  0
  1 20  1  0  0  0  0
  1 21  1  0  0  0  0
  1 22  1  0  0  0  0
  2 18  2  0  0  0  0
  2  3  1  0  0  0  0
  3  4  2  0  0  0  0
  4  5  1  0  0  0  0
  4 23  1  0  0  0  0
  5  6  1  0  0  0  0
  5 16  1  0  0  0  0
  6  7  1  0  0  0  0
  6 24  1  0  0  0  0
  6 25  1  0  0  0  0
  7  8  1  0  0  0  0
  7  9  1  0  0  0  0
  7 26  1  0  0  0  0
  8 27  1  0  0  0  0
  9 15  1  0  0  0  0
  9 10  2  0  0  0  0
 10 11  1  0  0  0  0
 10 28  1  0  0  0  0
 11 12  2  0  0  0  0
 11 29  1  0  0  0  0
 12 13  1  0  0  0  0
 12 14  1  0  0  0  0
 14 15  2  0  0  0  0
 14 30  1  0  0  0  0
 15 31  1  0  0  0  0
 16 17  2  0  0  0  0
 16 18  1  0  0  0  0
 18 19  1  0  0  0  0
 19 32  1  0  0  0  0
 19 33  1  0  0  0  0
 19 34  1  0  0  0  0
M  END
> <s_m_source_file>
AV-unprocessed.smi

> <i_m_source_file_index>
2401

> <i_lp_mmshare_version>
43012

> <i_f3d_flags>
0

> <s_epik_input>
W0NIM11jMW5bY0hdbihjKD1PKWMxW0NIM10pW0NIMl1bQ0BIXShbT0hdKWMyW2NIXVtjSF1jKENsKVtjSF1bY0hdMg==

> <s_epik_cmdline>
J2VwaWtfcHl0aG9uJywgJy1waCcsICc3LjAnLCAnLXRuJywgJzgnLCAnLW1hJywgJzIwMCcsICctbWV0YWxfYmluZGluZycsICctaW1hZScsICc8aW5maWxlLm1hZT4nLCAnLW9tYWUnLCAnPG91dGZpbGUubWFlPic=

> <r_lp_tautomer_probability>
1

> <r_epik_Ionization_Penalty>
5.07713e-05

> <r_epik_Ionization_Penalty_Charging>
7.56727e-08

> <r_epik_Ionization_Penalty_Neutral>
5.06957e-05

> <r_epik_State_Penalty>
-0

> <r_epik_Charging_Adjusted_Penalty>
7.56727e-08

> <i_epik_Tot_Q>
0

> <i_epik_Tot_abs_Q>
0

> <r_epik_Metal_State_Penalty>
-0

> <b_epik_Metal_Only>
0

> <s_lp_Force_Field>
OPLS_2005

> <r_lp_Energy>
18.5783

> <b_lp_Chiralities_Consistent>
1

> <s_lp_Variant>
AV-unprocessed.smi:2401-2

> <Gold.Version>
5.8.1

> <Gold.Id.Protein>
6NUR|6NUR_protein|mol2

> <Gold.PLP.Fitness>
41.2644

> <Gold.PLP.PLP>
-40.4050

> <Gold.PLP.part.hbond>
-3.0000

> <Gold.PLP.part.metal>
0.0000

> <Gold.PLP.part.buried>
0.0448

> <Gold.PLP.part.nonpolar>
-37.3182

> <Gold.PLP.part.repulsive>
1.1130

> <Gold.PLP.ligand.clash>
0.0000

> <Gold.PLP.ligand.torsion>
1.1275

> <Gold.PLP.Chemscore.Hbond>
1.0356

> <Gold.PLP.Chemscore.CHOScore>
0.0000

> <Gold.PLP.Chemscore.Metal>
0.0000

> <Gold.Chemscore.Hbonds>
donor molecule, donor type, donor heavy atom, donor atom, acceptor molecule, acceptor atom, score
      P1  H  7997  8008       L1     8  0.98

> <Gold.PLP.Chemscore.Internal.Correction>
0.0077

> <Gold.Rescore>
     Score         DG    S(hbond)    S(metal)    S(lipo)     H(rot)  DE(clash)    DE(int)     intcor
     13.69     -15.87       0.90        0.00     105.26       1.93       0.32       1.85       ----

> <Gold.Chemscore.Fitness>
13.6930

> <Gold.Chemscore.DG>
-15.8679

> <Gold.Chemscore.ZeroCoef>
-5.4800

> <Gold.Chemscore.Hbond>
0.8994

> <Gold.Chemscore.Metal>
0.0000

> <Gold.Chemscore.Lipo>
105.2619

> <Gold.Chemscore.Internal_Hbond>
0.0000

> <Gold.Chemscore.DEClash>
0.3210

> <Gold.Chemscore.DEInternal>
1.8539

> <Gold.Chemscore.Rot>
1.9265

> <Gold.Chemscore.Internal.Correction>
   9.000000E+99

> <Gold.Chemscore.Hbonds>
donor molecule, donor type, donor heavy atom, donor atom, acceptor molecule, acceptor atom, score
      P1  H  7997  8008       L1     8  0.82

> <Gold.Chemscore.Hbond.Weighted>
-3.0040

> <Gold.Chemscore.Metal.Weighted>
-0.0000

> <Gold.Chemscore.Lipo.Weighted>
-12.3156

> <Gold.Chemscore.Internal_Hbond.Weighted>
0.0000

> <Gold.Chemscore.DEClash.Weighted>
0.3210

> <Gold.Chemscore.DEInternal.Weighted>
1.8539

> <Gold.Chemscore.Rot.Weighted>
4.9317

> <Gold.Chemscore.Internal.Correction.Weighted>
   9.000000E+99

> <Gold.Protein.RotatedTorsions>
[ 6907 6896 6895 6894 ] final   71.64 input  -60.11 | X-H torsion
[ 7974 7965 7964 7962 ] final  146.47 input  175.53 | X-H torsion
[ 8008 7997 7996 7995 ] final  -88.22 input   59.86 | X-H torsion
[ 10167 10162 10161 10158 ] final -149.08 input  -65.29 | X-H torsion
[ 10718 10713 10712 10709 ] final  -54.83 input   66.30 | X-H torsion
[ 10763 10752 10751 10750 ] final  -76.08 input  -60.55 | X-H torsion
[ 11005 11000 10999 10996 ] final  136.68 input  -57.11 | X-H torsion

> <Gold.Protein.ActiveResidues>
 VAL166  LYS551  ARG553  GLY616  TRP617  ASP618  TYR619  PRO620  LYS621  CYS622 
 ASP623  PHE694  ASN695  SER759  ASP760  ASP761  ALA762  ILE779  LEU786  VAL792 
 PHE793  MET794  SER795  GLU796  ALA797  LYS798  CYS799  TRP800  GLU811  SER814 

> <Gold.Protein.RotatedAtoms>
  152.4822  134.4690  159.9629 H   0  0  0  0  0  0  0  0  0  0  0  0  # atno 6907 bound_to 6896
  151.4694  133.3567  159.2829 H   0  0  0  0  0  0  0  0  0  0  0  0  # atno 6908 bound_to 6896
  150.8903  134.8331  159.7349 H   0  0  0  0  0  0  0  0  0  0  0  0  # atno 6909 bound_to 6896
  144.8669  139.5909  143.5905 H   0  0  0  0  0  0  0  0  0  0  0  0  # atno 7974 bound_to 7965
  154.6723  140.0556  157.0178 H   0  0  0  0  0  0  0  0  0  0  0  0  # atno 8008 bound_to 7997
  155.1071  140.3234  155.4513 H   0  0  0  0  0  0  0  0  0  0  0  0  # atno 8009 bound_to 7997
  156.2662  140.2021  156.6196 H   0  0  0  0  0  0  0  0  0  0  0  0  # atno 8010 bound_to 7997
  139.7474  143.8569  152.2578 H   0  0  0  0  0  0  0  0  0  0  0  0  # atno 10167 bound_to 10162
  156.1419  130.4154  150.0089 H   0  0  0  0  0  0  0  0  0  0  0  0  # atno 10718 bound_to 10713
  154.4950  135.5810  153.6488 H   0  0  0  0  0  0  0  0  0  0  0  0  # atno 10763 bound_to 10752
  152.9869  135.6122  154.3076 H   0  0  0  0  0  0  0  0  0  0  0  0  # atno 10764 bound_to 10752
  154.2978  135.2847  155.2604 H   0  0  0  0  0  0  0  0  0  0  0  0  # atno 10765 bound_to 10752
  140.0063  134.9458  157.0181 H   0  0  0  0  0  0  0  0  0  0  0  0  # atno 11005 bound_to 11000
  146.2902  139.7117  142.9166 LP  0  0  0  0  0  0  0  0  0  0  0  0  # atno 17320 bound_to 7965
  145.4205  141.0406  143.2966 LP  0  0  0  0  0  0  0  0  0  0  0  0  # atno 17321 bound_to 7965
  139.8538  144.7151  150.9182 LP  0  0  0  0  0  0  0  0  0  0  0  0  # atno 17342 bound_to 10162
  140.7794  143.3876  151.1366 LP  0  0  0  0  0  0  0  0  0  0  0  0  # atno 17343 bound_to 10162
  156.7972  130.9277  151.3646 LP  0  0  0  0  0  0  0  0  0  0  0  0  # atno 17370 bound_to 10713
  157.6583  130.8943  149.9775 LP  0  0  0  0  0  0  0  0  0  0  0  0  # atno 17371 bound_to 10713
  140.4636  134.1459  155.7194 LP  0  0  0  0  0  0  0  0  0  0  0  0  # atno 17394 bound_to 11000
  141.1679  133.8667  157.1660 LP  0  0  0  0  0  0  0  0  0  0  0  0  # atno 17395 bound_to 11000

$$$$
