AV-unprocessed.smi:215|AV-procd|sdf|1655|dock2
  -GOLD-   2262020 43D 1   1.00000     0.00000
 Structure written by MMmdl.
 59 62  0  0  0  0  0  0  0  0  2 V2000
  148.0677  142.8148  155.6596 C   0  0  0  0  0  0  0  0  0  0  0  0
  147.7925  141.3733  155.1777 C   0  0  1  0  0  0  0  0  0  0  0  0
  146.6527  141.2619  154.1330 C   0  0  2  0  0  0  0  0  0  0  0  0
  145.2799  141.0558  154.6893 N   0  3  1  0  0  0  0  0  0  0  0  0
  145.1370  139.8923  155.5979 C   0  0  0  0  0  0  0  0  0  0  0  0
  144.7126  142.2903  155.2973 C   0  0  0  0  0  0  0  0  0  0  0  0
  143.3059  142.0549  155.8718 C   0  0  0  0  0  0  0  0  0  0  0  0
  142.3932  141.8105  154.8227 O   0  0  0  0  0  0  0  0  0  0  0  0
  147.1002  140.0519  153.2978 C   0  0  0  0  0  0  0  0  0  0  0  0
  148.6226  140.1260  153.2948 C   0  0  0  0  0  0  0  0  0  0  0  0
  148.9801  140.8406  154.5088 N   0  0  0  0  0  0  0  0  0  0  0  0
  150.0809  140.4376  155.1974 C   0  0  0  0  0  0  0  0  0  0  0  0
  151.0310  139.6967  154.5679 N   0  0  0  0  0  0  0  0  0  0  0  0
  152.1179  139.2866  155.2270 C   0  0  0  0  0  0  0  0  0  0  0  0
  152.4478  139.4971  156.5015 N   0  0  0  0  0  0  0  0  0  0  0  0
  151.4994  140.2368  157.1454 C   0  0  0  0  0  0  0  0  0  0  0  0
  150.2986  140.7454  156.5720 C   0  0  0  0  0  0  0  0  0  0  0  0
  149.5773  141.4427  157.5342 N   0  0  0  0  0  0  0  0  0  0  0  0
  150.3096  141.3555  158.6106 C   0  0  0  0  0  0  0  0  0  0  0  0
  151.4802  140.6447  158.4700 N   0  0  0  0  0  0  0  0  0  0  0  0
  152.4508  140.3877  159.4977 C   0  0  0  0  0  0  0  0  0  0  0  0
  153.3247  141.5081  160.0667 C   0  0  0  0  0  0  0  0  0  0  0  0
  154.5309  140.5451  160.1471 C   0  0  0  0  0  0  0  0  0  0  0  0
  155.8394  141.0919  159.5556 C   0  0  0  0  0  0  0  0  0  0  0  0
  156.7207  140.0489  159.1904 O   0  0  0  0  0  0  0  0  0  0  0  0
  154.8648  139.9554  161.5346 C   0  0  0  0  0  0  0  0  0  0  0  0
  155.2693  140.9352  162.4697 O   0  0  0  0  0  0  0  0  0  0  0  0
  153.7410  139.6235  159.1900 C   0  0  0  0  0  0  0  0  0  0  0  0
  147.5583  140.7302  156.0271 H   0  0  0  0  0  0  0  0  0  0  0  0
  146.6608  142.1533  153.5027 H   0  0  0  0  0  0  0  0  0  0  0  0
  147.2180  143.2610  156.1705 H   0  0  0  0  0  0  0  0  0  0  0  0
  148.3222  143.4650  154.8220 H   0  0  0  0  0  0  0  0  0  0  0  0
  148.9027  142.8481  156.3590 H   0  0  0  0  0  0  0  0  0  0  0  0
  145.8066  139.9805  156.4542 H   0  0  0  0  0  0  0  0  0  0  0  0
  145.3413  138.9556  155.0806 H   0  0  0  0  0  0  0  0  0  0  0  0
  144.1201  139.8139  155.9809 H   0  0  0  0  0  0  0  0  0  0  0  0
  145.3837  142.6512  156.0784 H   0  0  0  0  0  0  0  0  0  0  0  0
  144.6515  143.1019  154.5731 H   0  0  0  0  0  0  0  0  0  0  0  0
  143.2836  141.2255  156.5780 H   0  0  0  0  0  0  0  0  0  0  0  0
  142.9742  142.9414  156.4131 H   0  0  0  0  0  0  0  0  0  0  0  0
  142.7197  142.2214  154.0360 H   0  0  0  0  0  0  0  0  0  0  0  0
  146.7896  139.1271  153.7870 H   0  0  0  0  0  0  0  0  0  0  0  0
  146.6956  140.0438  152.2857 H   0  0  0  0  0  0  0  0  0  0  0  0
  149.0625  139.1288  153.2480 H   0  0  0  0  0  0  0  0  0  0  0  0
  148.9786  140.6964  152.4361 H   0  0  0  0  0  0  0  0  0  0  0  0
  152.8233  138.7059  154.6512 H   0  0  0  0  0  0  0  0  0  0  0  0
  150.0084  141.8075  159.5447 H   0  0  0  0  0  0  0  0  0  0  0  0
  151.9150  139.8930  160.3092 H   0  0  0  0  0  0  0  0  0  0  0  0
  153.4823  142.3248  159.3610 H   0  0  0  0  0  0  0  0  0  0  0  0
  152.9859  141.8918  161.0294 H   0  0  0  0  0  0  0  0  0  0  0  0
  155.6472  141.7160  158.6824 H   0  0  0  0  0  0  0  0  0  0  0  0
  156.3566  141.7240  160.2783 H   0  0  0  0  0  0  0  0  0  0  0  0
  156.9065  140.1224  158.2667 H   0  0  0  0  0  0  0  0  0  0  0  0
  154.0013  139.4358  161.9513 H   0  0  0  0  0  0  0  0  0  0  0  0
  155.6679  139.2214  161.4652 H   0  0  0  0  0  0  0  0  0  0  0  0
  155.8196  140.5221  163.1177 H   0  0  0  0  0  0  0  0  0  0  0  0
  153.7161  138.5732  159.4823 H   0  0  0  0  0  0  0  0  0  0  0  0
  154.0530  139.7221  158.1496 H   0  0  0  0  0  0  0  0  0  0  0  0
  144.6994  140.8546  153.8872 H   0  0  0  0  0  0  0  0  0  0  0  0
  1  2  1  0  0  0  0
  1 31  1  0  0  0  0
  1 32  1  0  0  0  0
  1 33  1  0  0  0  0
  2 29  1  0  0  0  0
  2 11  1  0  0  0  0
  2  3  1  0  0  0  0
  3 30  1  0  0  0  0
  3  4  1  0  0  0  0
  3  9  1  0  0  0  0
  4  5  1  0  0  0  0
  4  6  1  0  0  0  0
  4 59  1  0  0  0  0
  5 34  1  0  0  0  0
  5 35  1  0  0  0  0
  5 36  1  0  0  0  0
  6  7  1  0  0  0  0
  6 37  1  0  0  0  0
  6 38  1  0  0  0  0
  7  8  1  0  0  0  0
  7 39  1  0  0  0  0
  7 40  1  0  0  0  0
  8 41  1  0  0  0  0
  9 10  1  0  0  0  0
  9 42  1  0  0  0  0
  9 43  1  0  0  0  0
 10 11  1  0  0  0  0
 10 44  1  0  0  0  0
 10 45  1  0  0  0  0
 11 12  1  0  0  0  0
 12 17  1  0  0  0  0
 12 13  2  0  0  0  0
 13 14  1  0  0  0  0
 14 15  2  0  0  0  0
 14 46  1  0  0  0  0
 15 16  1  0  0  0  0
 16 20  1  0  0  0  0
 16 17  2  0  0  0  0
 17 18  1  0  0  0  0
 18 19  2  0  0  0  0
 19 20  1  0  0  0  0
 19 47  1  0  0  0  0
 20 21  1  0  0  0  0
 21 28  1  0  0  0  0
 21 22  1  0  0  0  0
 21 48  1  0  0  0  0
 22 23  1  0  0  0  0
 22 49  1  0  0  0  0
 22 50  1  0  0  0  0
 23 24  1  0  0  0  0
 23 26  1  0  0  0  0
 23 28  1  0  0  0  0
 24 25  1  0  0  0  0
 24 51  1  0  0  0  0
 24 52  1  0  0  0  0
 25 53  1  0  0  0  0
 26 27  1  0  0  0  0
 26 54  1  0  0  0  0
 26 55  1  0  0  0  0
 27 56  1  0  0  0  0
 28 57  1  0  0  0  0
 28 58  1  0  0  0  0
M  CHG  1   4   1
M  END
> <s_m_source_file>
AV-unprocessed.smi

> <i_m_source_file_index>
215

> <i_lp_mmshare_version>
43012

> <i_f3d_flags>
0

> <s_epik_input>
W09IXVtDSDJdW0NIMl1OKFtDSDNdKVtDQEBIXShbQ0BIXTFbQ0gzXSlbQ0gyXVtDSDJdTjFjKG5bY0hdbjIpYyhjMjMpbltjSF1uM1tDSF0oW0NIMl00KVtDSDJdQzQoW0NIMl1bT0hdKVtDSDJdW09IXQ==

> <s_epik_cmdline>
J2VwaWtfcHl0aG9uJywgJy1waCcsICc3LjAnLCAnLXRuJywgJzgnLCAnLW1hJywgJzIwMCcsICctbWV0YWxfYmluZGluZycsICctaW1hZScsICc8aW5maWxlLm1hZT4nLCAnLW9tYWUnLCAnPG91dGZpbGUubWFlPic=

> <r_lp_tautomer_probability>
1

> <r_epik_Ionization_Penalty>
0.0036237

> <r_epik_Ionization_Penalty_Charging>
0.0032725

> <r_epik_Ionization_Penalty_Neutral>
0.000351196

> <r_epik_State_Penalty>
-0

> <r_epik_Charging_Adjusted_Penalty>
0.0032725

> <i_epik_Tot_Q>
1

> <i_epik_Tot_abs_Q>
1

> <r_epik_Metal_State_Penalty>
-0

> <b_epik_Metal_Only>
0

> <s_lp_Force_Field>
OPLS_2005

> <r_lp_Energy>
67.7544

> <b_lp_Chiralities_Consistent>
1

> <s_lp_Variant>
AV-unprocessed.smi:215-6

> <Gold.Version>
5.8.1

> <Gold.Id.Protein>
6NUR|6NUR_protein|mol2

> <Gold.PLP.Fitness>
47.7112

> <Gold.PLP.PLP>
-33.0136

> <Gold.PLP.part.hbond>
-6.8957

> <Gold.PLP.part.metal>
0.0000

> <Gold.PLP.part.buried>
8.0169

> <Gold.PLP.part.nonpolar>
-34.5051

> <Gold.PLP.part.repulsive>
0.1644

> <Gold.PLP.ligand.clash>
0.0000

> <Gold.PLP.ligand.torsion>
0.5740

> <Gold.PLP.Chemscore.Hbond>
4.9920

> <Gold.PLP.Chemscore.CHOScore>
0.0000

> <Gold.PLP.Chemscore.Metal>
0.0000

> <Gold.Chemscore.Hbonds>
donor molecule, donor type, donor heavy atom, donor atom, acceptor molecule, acceptor atom, score
      L1  H     4    59       P1 10175  2.00
      L1  H     8    41       P1 10174  0.95
      P1  H  7989  7998       L1    13  1.00
      P1  H  7997  8008       L1    15  1.00

> <Gold.PLP.Chemscore.Internal.Correction>
0.8695

> <Gold.Rescore>
     Score         DG    S(hbond)    S(metal)    S(lipo)     H(rot)  DE(clash)    DE(int)     intcor
      2.50     -11.22       2.12        0.00      86.43       4.48       4.55       4.17       ----

> <Gold.Chemscore.Fitness>
2.5000

> <Gold.Chemscore.DG>
-11.2180

> <Gold.Chemscore.ZeroCoef>
-5.4800

> <Gold.Chemscore.Hbond>
2.1230

> <Gold.Chemscore.Metal>
0.0000

> <Gold.Chemscore.Lipo>
86.4319

> <Gold.Chemscore.Internal_Hbond>
0.0000

> <Gold.Chemscore.DEClash>
4.5486

> <Gold.Chemscore.DEInternal>
4.1695

> <Gold.Chemscore.Rot>
4.4787

> <Gold.Chemscore.Internal.Correction>
   9.000000E+99

> <Gold.Chemscore.Hbonds>
donor molecule, donor type, donor heavy atom, donor atom, acceptor molecule, acceptor atom, score
      L1  H     4    59       P1 10175  0.94
      L1  H     8    41       P1 10174  0.20
      P1  H  7989  7998       L1    13  0.10
      P1  H  7997  8008       L1    15  0.48

> <Gold.Chemscore.Hbond.Weighted>
-7.0909

> <Gold.Chemscore.Metal.Weighted>
-0.0000

> <Gold.Chemscore.Lipo.Weighted>
-10.1125

> <Gold.Chemscore.Internal_Hbond.Weighted>
0.0000

> <Gold.Chemscore.DEClash.Weighted>
4.5486

> <Gold.Chemscore.DEInternal.Weighted>
4.1695

> <Gold.Chemscore.Rot.Weighted>
11.4655

> <Gold.Chemscore.Internal.Correction.Weighted>
   9.000000E+99

> <Gold.Protein.RotatedTorsions>
[ 6907 6896 6895 6894 ] final   94.23 input  -60.11 | X-H torsion
[ 7974 7965 7964 7962 ] final   48.40 input  175.53 | X-H torsion
[ 8008 7997 7996 7995 ] final  -48.60 input   59.86 | X-H torsion
[ 10167 10162 10161 10158 ] final   69.95 input  -65.29 | X-H torsion
[ 10718 10713 10712 10709 ] final    8.65 input   66.30 | X-H torsion
[ 10763 10752 10751 10750 ] final  142.53 input  -60.55 | X-H torsion
[ 11005 11000 10999 10996 ] final   94.37 input  -57.11 | X-H torsion

> <Gold.Protein.ActiveResidues>
 VAL166  LYS551  ARG553  GLY616  TRP617  ASP618  TYR619  PRO620  LYS621  CYS622 
 ASP623  PHE694  ASN695  SER759  ASP760  ASP761  ALA762  ILE779  LEU786  VAL792 
 PHE793  MET794  SER795  GLU796  ALA797  LYS798  CYS799  TRP800  GLU811  SER814 

> <Gold.Protein.RotatedAtoms>
  152.5450  134.1225  159.8404 H   0  0  0  0  0  0  0  0  0  0  0  0  # atno 6907 bound_to 6896
  151.1279  133.5050  159.2607 H   0  0  0  0  0  0  0  0  0  0  0  0  # atno 6908 bound_to 6896
  151.1707  135.0326  159.8805 H   0  0  0  0  0  0  0  0  0  0  0  0  # atno 6909 bound_to 6896
  146.0208  139.4649  142.9898 H   0  0  0  0  0  0  0  0  0  0  0  0  # atno 7974 bound_to 7965
  154.4031  140.1317  156.4365 H   0  0  0  0  0  0  0  0  0  0  0  0  # atno 8008 bound_to 7997
  155.7500  140.3488  155.5126 H   0  0  0  0  0  0  0  0  0  0  0  0  # atno 8009 bound_to 7997
  155.8958  140.1011  157.1376 H   0  0  0  0  0  0  0  0  0  0  0  0  # atno 8010 bound_to 7997
  140.0622  144.5223  150.7286 H   0  0  0  0  0  0  0  0  0  0  0  0  # atno 10167 bound_to 10162
  156.9548  130.5910  149.5658 H   0  0  0  0  0  0  0  0  0  0  0  0  # atno 10718 bound_to 10713
  153.9574  135.2963  155.3435 H   0  0  0  0  0  0  0  0  0  0  0  0  # atno 10763 bound_to 10752
  154.7393  135.5032  153.9099 H   0  0  0  0  0  0  0  0  0  0  0  0  # atno 10764 bound_to 10752
  153.0963  135.6722  153.9866 H   0  0  0  0  0  0  0  0  0  0  0  0  # atno 10765 bound_to 10752
  139.8799  134.8842  156.3855 H   0  0  0  0  0  0  0  0  0  0  0  0  # atno 11005 bound_to 11000
  145.7196  141.0079  143.1409 LP  0  0  0  0  0  0  0  0  0  0  0  0  # atno 17320 bound_to 7965
  144.6989  139.8855  143.7450 LP  0  0  0  0  0  0  0  0  0  0  0  0  # atno 17321 bound_to 7965
  140.7166  143.2550  151.4414 LP  0  0  0  0  0  0  0  0  0  0  0  0  # atno 17342 bound_to 10162
  139.5887  144.1548  152.2061 LP  0  0  0  0  0  0  0  0  0  0  0  0  # atno 17343 bound_to 10162
  156.0347  130.5436  150.8624 LP  0  0  0  0  0  0  0  0  0  0  0  0  # atno 17370 bound_to 10713
  157.5698  131.0946  150.9435 LP  0  0  0  0  0  0  0  0  0  0  0  0  # atno 17371 bound_to 10713
  140.9369  133.7541  156.0096 LP  0  0  0  0  0  0  0  0  0  0  0  0  # atno 17394 bound_to 11000
  140.8265  134.3228  157.5364 LP  0  0  0  0  0  0  0  0  0  0  0  0  # atno 17395 bound_to 11000

$$$$
