AV-unprocessed.smi:216|AV-procd|sdf|1658|dock7
  -GOLD-   2262020 53D 1   1.00000     0.00000
 Structure written by MMmdl.
 65 69  0  0  0  0  0  0  0  0  1 V2000
  153.5708  142.2867  162.0320 C   0  0  0  0  0  0  0  0  0  0  0  0
  152.7938  141.6881  160.8396 C   0  0  2  0  0  0  0  0  0  0  0  0
  153.6361  140.5734  160.1863 C   0  0  0  0  0  0  0  0  0  0  0  0
  152.8646  139.8685  159.0676 C   0  0  0  0  0  0  0  0  0  0  0  0
  152.3717  140.8378  158.0931 N   0  0  0  0  0  0  0  0  0  0  0  0
  151.9252  140.3476  156.9076 C   0  0  0  0  0  0  0  0  0  0  0  0
  152.6303  139.3781  156.2641 N   0  0  0  0  0  0  0  0  0  0  0  0
  152.1985  138.8869  155.0993 C   0  0  0  0  0  0  0  0  0  0  0  0
  151.1043  139.2144  154.4110 N   0  0  0  0  0  0  0  0  0  0  0  0
  150.3899  140.1849  155.0490 C   0  0  0  0  0  0  0  0  0  0  0  0
  150.7283  140.8039  156.2860 C   0  0  0  0  0  0  0  0  0  0  0  0
  149.7766  141.7636  156.6068 N   0  0  0  0  0  0  0  0  0  0  0  0
  148.9196  141.7068  155.6253 C   0  0  0  0  0  0  0  0  0  0  0  0
  149.2014  140.7743  154.6525 N   0  0  0  0  0  0  0  0  0  0  0  0
  148.4202  140.5058  153.4533 C   0  0  0  0  0  0  0  0  0  0  0  0
  147.2394  139.5085  153.6490 C   0  0  0  0  0  0  0  0  0  0  0  0
  146.5448  139.1955  152.2922 C   0  0  0  0  0  0  0  0  0  0  0  0
  147.3357  138.3663  151.4642 O   0  0  0  0  0  0  0  0  0  0  0  0
  147.7943  138.2212  154.3092 C   0  0  0  0  0  0  0  0  0  0  0  0
  146.6877  137.2818  154.8212 C   0  0  0  0  0  0  0  0  0  0  0  0
  145.8494  137.9761  155.7353 O   0  0  0  0  0  0  0  0  0  0  0  0
  145.1793  139.0784  155.1388 C   0  0  0  0  0  0  0  0  0  0  0  0
  146.2038  140.1102  154.6324 C   0  0  0  0  0  0  0  0  0  0  0  0
  151.5414  141.9011  158.6598 C   0  0  0  0  0  0  0  0  0  0  0  0
  152.2680  142.7134  159.7741 C   0  0  0  0  0  0  0  0  0  0  0  0
  151.2358  143.6755  160.4309 C   0  0  0  0  0  0  0  0  0  0  0  0
  150.7456  144.7960  159.4958 C   0  0  0  0  0  0  0  0  0  0  0  0
  151.9240  145.6115  158.9492 C   0  0  0  0  0  0  0  0  0  0  0  0
  152.9413  144.7040  158.2466 C   0  0  0  0  0  0  0  0  0  0  0  0
  153.4222  143.5689  159.1698 C   0  0  0  0  0  0  0  0  0  0  0  0
  154.5062  142.7510  161.7222 H   0  0  0  0  0  0  0  0  0  0  0  0
  153.8304  141.5041  162.7453 H   0  0  0  0  0  0  0  0  0  0  0  0
  152.9927  143.0246  162.5849 H   0  0  0  0  0  0  0  0  0  0  0  0
  151.9162  141.2008  161.2675 H   0  0  0  0  0  0  0  0  0  0  0  0
  154.5654  140.9835  159.7906 H   0  0  0  0  0  0  0  0  0  0  0  0
  153.9267  139.8359  160.9351 H   0  0  0  0  0  0  0  0  0  0  0  0
  153.5165  139.1421  158.5800 H   0  0  0  0  0  0  0  0  0  0  0  0
  152.0220  139.3178  159.4884 H   0  0  0  0  0  0  0  0  0  0  0  0
  152.8184  138.1214  154.6566 H   0  0  0  0  0  0  0  0  0  0  0  0
  148.0497  142.3461  155.5852 H   0  0  0  0  0  0  0  0  0  0  0  0
  148.0491  141.4598  153.0765 H   0  0  0  0  0  0  0  0  0  0  0  0
  149.1029  140.1365  152.6867 H   0  0  0  0  0  0  0  0  0  0  0  0
  145.5882  138.6961  152.4359 H   0  0  0  0  0  0  0  0  0  0  0  0
  146.3212  140.1132  151.7481 H   0  0  0  0  0  0  0  0  0  0  0  0
  147.7788  137.7333  152.0086 H   0  0  0  0  0  0  0  0  0  0  0  0
  148.4472  137.6834  153.6211 H   0  0  0  0  0  0  0  0  0  0  0  0
  148.4213  138.4934  155.1595 H   0  0  0  0  0  0  0  0  0  0  0  0
  146.0974  136.8701  154.0023 H   0  0  0  0  0  0  0  0  0  0  0  0
  147.1347  136.4329  155.3385 H   0  0  0  0  0  0  0  0  0  0  0  0
  144.5253  138.7339  154.3374 H   0  0  0  0  0  0  0  0  0  0  0  0
  144.5346  139.5377  155.8883 H   0  0  0  0  0  0  0  0  0  0  0  0
  146.7239  140.5184  155.5000 H   0  0  0  0  0  0  0  0  0  0  0  0
  145.6768  140.9468  154.1728 H   0  0  0  0  0  0  0  0  0  0  0  0
  151.1824  142.5614  157.8731 H   0  0  0  0  0  0  0  0  0  0  0  0
  150.6494  141.4314  159.0768 H   0  0  0  0  0  0  0  0  0  0  0  0
  150.3792  143.1117  160.8019 H   0  0  0  0  0  0  0  0  0  0  0  0
  151.6716  144.1608  161.3023 H   0  0  0  0  0  0  0  0  0  0  0  0
  150.1652  144.3810  158.6720 H   0  0  0  0  0  0  0  0  0  0  0  0
  150.0671  145.4548  160.0385 H   0  0  0  0  0  0  0  0  0  0  0  0
  151.5623  146.3721  158.2569 H   0  0  0  0  0  0  0  0  0  0  0  0
  152.4122  146.1425  159.7672 H   0  0  0  0  0  0  0  0  0  0  0  0
  152.4990  144.2953  157.3404 H   0  0  0  0  0  0  0  0  0  0  0  0
  153.7964  145.2965  157.9202 H   0  0  0  0  0  0  0  0  0  0  0  0
  153.9991  144.0306  159.9697 H   0  0  0  0  0  0  0  0  0  0  0  0
  154.1227  142.9404  158.6204 H   0  0  0  0  0  0  0  0  0  0  0  0
  1  2  1  0  0  0  0
  1 31  1  0  0  0  0
  1 32  1  0  0  0  0
  1 33  1  0  0  0  0
  2 25  1  0  0  0  0
  2  3  1  0  0  0  0
  2 34  1  0  0  0  0
  3  4  1  0  0  0  0
  3 35  1  0  0  0  0
  3 36  1  0  0  0  0
  4  5  1  0  0  0  0
  4 37  1  0  0  0  0
  4 38  1  0  0  0  0
  5  6  1  0  0  0  0
  5 24  1  0  0  0  0
  6 11  1  0  0  0  0
  6  7  2  0  0  0  0
  7  8  1  0  0  0  0
  8  9  2  0  0  0  0
  8 39  1  0  0  0  0
  9 10  1  0  0  0  0
 10 14  1  0  0  0  0
 10 11  2  0  0  0  0
 11 12  1  0  0  0  0
 12 13  2  0  0  0  0
 13 14  1  0  0  0  0
 13 40  1  0  0  0  0
 14 15  1  0  0  0  0
 15 16  1  0  0  0  0
 15 41  1  0  0  0  0
 15 42  1  0  0  0  0
 16 23  1  0  0  0  0
 16 17  1  0  0  0  0
 16 19  1  0  0  0  0
 17 18  1  0  0  0  0
 17 43  1  0  0  0  0
 17 44  1  0  0  0  0
 18 45  1  0  0  0  0
 19 20  1  0  0  0  0
 19 46  1  0  0  0  0
 19 47  1  0  0  0  0
 20 21  1  0  0  0  0
 20 48  1  0  0  0  0
 20 49  1  0  0  0  0
 21 22  1  0  0  0  0
 22 23  1  0  0  0  0
 22 50  1  0  0  0  0
 22 51  1  0  0  0  0
 23 52  1  0  0  0  0
 23 53  1  0  0  0  0
 24 25  1  0  0  0  0
 24 54  1  0  0  0  0
 24 55  1  0  0  0  0
 25 30  1  0  0  0  0
 25 26  1  0  0  0  0
 26 27  1  0  0  0  0
 26 56  1  0  0  0  0
 26 57  1  0  0  0  0
 27 28  1  0  0  0  0
 27 58  1  0  0  0  0
 27 59  1  0  0  0  0
 28 29  1  0  0  0  0
 28 60  1  0  0  0  0
 28 61  1  0  0  0  0
 29 30  1  0  0  0  0
 29 62  1  0  0  0  0
 29 63  1  0  0  0  0
 30 64  1  0  0  0  0
 30 65  1  0  0  0  0
M  END
> <s_m_source_file>
AV-unprocessed.smi

> <i_m_source_file_index>
216

> <i_lp_mmshare_version>
43012

> <i_f3d_flags>
0

> <s_epik_input>
W0NIMl0xW0NIMl1bQ0gyXVtDSDJdW0NIMl1DMTJbQ0BIXShbQ0gzXSlbQ0gyXVtDSDJdTihbQ0gyXTIpYyhuW2NIXW4zKWMoYzM0KW5bY0hdbjRbQ0gyXUM1KFtDSDJdW09IXSlbQ0gyXVtDSDJdT1tDSDJdW0NIMl01

> <s_epik_cmdline>
J2VwaWtfcHl0aG9uJywgJy1waCcsICc3LjAnLCAnLXRuJywgJzgnLCAnLW1hJywgJzIwMCcsICctbWV0YWxfYmluZGluZycsICctaW1hZScsICc8aW5maWxlLm1hZT4nLCAnLW9tYWUnLCAnPG91dGZpbGUubWFlPic=

> <r_lp_tautomer_probability>
1

> <r_epik_Ionization_Penalty>
0.00291566

> <r_epik_Ionization_Penalty_Charging>
0

> <r_epik_Ionization_Penalty_Neutral>
0.00291566

> <r_epik_State_Penalty>
0.00199166

> <r_epik_Charging_Adjusted_Penalty>
0.00199166

> <i_epik_Tot_Q>
0

> <i_epik_Tot_abs_Q>
0

> <r_epik_Metal_State_Penalty>
-0

> <b_epik_Metal_Only>
0

> <s_lp_Force_Field>
OPLS_2005

> <r_lp_Energy>
50.3698

> <b_lp_Chiralities_Consistent>
1

> <s_lp_Variant>
AV-unprocessed.smi:216-1

> <Gold.Version>
5.8.1

> <Gold.Id.Protein>
6NUR|6NUR_protein|mol2

> <Gold.PLP.Fitness>
63.7041

> <Gold.PLP.PLP>
-56.9549

> <Gold.PLP.part.hbond>
-5.0000

> <Gold.PLP.part.metal>
0.0000

> <Gold.PLP.part.buried>
1.2395

> <Gold.PLP.part.nonpolar>
-53.0791

> <Gold.PLP.part.repulsive>
0.2575

> <Gold.PLP.ligand.clash>
1.8341

> <Gold.PLP.ligand.torsion>
0.7038

> <Gold.PLP.Chemscore.Hbond>
2.6840

> <Gold.PLP.Chemscore.CHOScore>
0.5339

> <Gold.PLP.Chemscore.Metal>
0.0000

> <Gold.Chemscore.Hbonds>
donor molecule, donor type, donor heavy atom, donor atom, acceptor molecule, acceptor atom, score
      L1  H    18    45       P1  7948  0.78
      P1  H  7954  7966       L1    18  0.80
      P1  H  7997  8008       L1     7  0.95
      L1  C    13    40       P1  8028  0.56

> <Gold.PLP.Chemscore.Internal.Correction>
0.3372

> <Gold.Rescore>
     Score         DG    S(hbond)    S(metal)    S(lipo)     H(rot)  DE(clash)    DE(int)     intcor
     19.33     -23.75       1.84        0.00     151.66       2.20       2.16       2.26       ----

> <Gold.Chemscore.Fitness>
19.3264

> <Gold.Chemscore.DG>
-23.7451

> <Gold.Chemscore.ZeroCoef>
-5.4800

> <Gold.Chemscore.Hbond>
1.8437

> <Gold.Chemscore.Metal>
0.0000

> <Gold.Chemscore.Lipo>
151.6585

> <Gold.Chemscore.Internal_Hbond>
0.0000

> <Gold.Chemscore.DEClash>
2.1612

> <Gold.Chemscore.DEInternal>
2.2575

> <Gold.Chemscore.Rot>
2.2019

> <Gold.Chemscore.Internal.Correction>
   9.000000E+99

> <Gold.Chemscore.Hbonds>
donor molecule, donor type, donor heavy atom, donor atom, acceptor molecule, acceptor atom, score
      L1  H    18    45       P1  7948  0.78
      P1  H  7954  7966       L1    18  0.12
      P1  H  7997  8008       L1     7  0.21

> <Gold.Chemscore.Hbond.Weighted>
-6.1580

> <Gold.Chemscore.Metal.Weighted>
-0.0000

> <Gold.Chemscore.Lipo.Weighted>
-17.7440

> <Gold.Chemscore.Internal_Hbond.Weighted>
0.0000

> <Gold.Chemscore.DEClash.Weighted>
2.1612

> <Gold.Chemscore.DEInternal.Weighted>
2.2575

> <Gold.Chemscore.Rot.Weighted>
5.6370

> <Gold.Chemscore.Internal.Correction.Weighted>
   9.000000E+99

> <Gold.Protein.RotatedTorsions>
[ 6907 6896 6895 6894 ] final  126.50 input  -60.11 | X-H torsion
[ 7974 7965 7964 7962 ] final  -24.69 input  175.53 | X-H torsion
[ 8008 7997 7996 7995 ] final  -47.80 input   59.86 | X-H torsion
[ 10167 10162 10161 10158 ] final  140.76 input  -65.29 | X-H torsion
[ 10718 10713 10712 10709 ] final   47.07 input   66.30 | X-H torsion
[ 10763 10752 10751 10750 ] final  150.13 input  -60.55 | X-H torsion
[ 11005 11000 10999 10996 ] final  -95.59 input  -57.11 | X-H torsion

> <Gold.Protein.ActiveResidues>
 VAL166  LYS551  ARG553  GLY616  TRP617  ASP618  TYR619  PRO620  LYS621  CYS622 
 ASP623  PHE694  ASN695  SER759  ASP760  ASP761  ALA762  ILE779  LEU786  VAL792 
 PHE793  MET794  SER795  GLU796  ALA797  LYS798  CYS799  TRP800  GLU811  SER814 

> <Gold.Protein.RotatedAtoms>
  152.3898  133.6663  159.6228 H   0  0  0  0  0  0  0  0  0  0  0  0  # atno 6907 bound_to 6896
  150.7809  133.8973  159.3340 H   0  0  0  0  0  0  0  0  0  0  0  0  # atno 6908 bound_to 6896
  151.6762  135.0970  160.0259 H   0  0  0  0  0  0  0  0  0  0  0  0  # atno 6909 bound_to 6896
  146.1539  140.4786  142.8600 H   0  0  0  0  0  0  0  0  0  0  0  0  # atno 7974 bound_to 7965
  154.4021  140.1337  156.4235 H   0  0  0  0  0  0  0  0  0  0  0  0  # atno 8008 bound_to 7997
  155.7620  140.3486  155.5182 H   0  0  0  0  0  0  0  0  0  0  0  0  # atno 8009 bound_to 7997
  155.8850  140.0993  157.1449 H   0  0  0  0  0  0  0  0  0  0  0  0  # atno 8010 bound_to 7997
  139.5039  144.6214  151.6042 H   0  0  0  0  0  0  0  0  0  0  0  0  # atno 10167 bound_to 10162
  157.4547  130.8159  149.7824 H   0  0  0  0  0  0  0  0  0  0  0  0  # atno 10718 bound_to 10713
  154.0824  135.2858  155.3288 H   0  0  0  0  0  0  0  0  0  0  0  0  # atno 10763 bound_to 10752
  154.6675  135.5312  153.8099 H   0  0  0  0  0  0  0  0  0  0  0  0  # atno 10764 bound_to 10752
  153.0444  135.6549  154.0998 H   0  0  0  0  0  0  0  0  0  0  0  0  # atno 10765 bound_to 10752
  141.1437  133.8037  157.0456 H   0  0  0  0  0  0  0  0  0  0  0  0  # atno 11005 bound_to 11000
  144.7938  140.6083  143.6524 LP  0  0  0  0  0  0  0  0  0  0  0  0  # atno 17320 bound_to 7965
  145.4757  139.1499  143.3789 LP  0  0  0  0  0  0  0  0  0  0  0  0  # atno 17321 bound_to 7965
  140.5917  143.9767  150.6329 LP  0  0  0  0  0  0  0  0  0  0  0  0  # atno 17342 bound_to 10162
  140.2950  143.3299  152.1026 LP  0  0  0  0  0  0  0  0  0  0  0  0  # atno 17343 bound_to 10162
  156.0002  130.3884  150.2636 LP  0  0  0  0  0  0  0  0  0  0  0  0  # atno 17370 bound_to 10713
  157.0810  131.0143  151.3156 LP  0  0  0  0  0  0  0  0  0  0  0  0  # atno 17371 bound_to 10713
  140.0664  134.9726  157.1393 LP  0  0  0  0  0  0  0  0  0  0  0  0  # atno 17394 bound_to 11000
  140.3773  134.2325  155.7173 LP  0  0  0  0  0  0  0  0  0  0  0  0  # atno 17395 bound_to 11000

$$$$
