AV-unprocessed.smi:3319|AV-procd|sdf|12767|dock2
  -GOLD-   2272019103D 1   1.00000     0.00000
 Structure written by MMmdl.
 40 41  0  0  0  0  0  0  0  0  2 V2000
  154.9294  140.2381  161.0188 C   0  0  0  0  0  0  0  0  0  0  0  0
  154.2207  141.1943  160.7459 C   0  0  0  0  0  0  0  0  0  0  0  0
  153.3719  142.3573  160.4283 C   0  0  0  0  0  0  0  0  0  0  0  0
  152.7367  142.2641  159.1137 N   0  0  0  0  0  0  0  0  0  0  0  0
  151.8971  143.4462  158.9100 C   0  0  0  0  0  0  0  0  0  0  0  0
  151.2954  143.4347  157.4940 C   0  0  0  0  0  0  0  0  0  0  0  0
  150.4497  142.1738  157.2606 C   0  0  0  0  0  0  0  0  0  0  0  0
  149.9596  142.1424  155.8646 N   0  3  0  0  0  0  0  0  0  0  0  0
  149.0322  141.0373  155.5436 C   0  0  0  0  0  0  0  0  0  0  0  0
  148.4981  141.1688  154.1111 C   0  0  0  0  0  0  0  0  0  0  0  0
  147.7342  139.9358  153.6683 C   0  0  0  0  0  0  0  0  0  0  0  0
  147.5173  138.8640  154.5588 C   0  0  0  0  0  0  0  0  0  0  0  0
  146.8015  137.7408  154.0967 C   0  0  0  0  0  0  0  0  0  0  0  0
  146.3102  137.6396  152.8430 N   0  0  0  0  0  0  0  0  0  0  0  0
  146.5210  138.6701  151.9962 C   0  0  0  0  0  0  0  0  0  0  0  0
  147.2233  139.8377  152.3578 C   0  0  0  0  0  0  0  0  0  0  0  0
  151.3046  140.9396  157.5998 C   0  0  0  0  0  0  0  0  0  0  0  0
  151.9094  141.0559  159.0100 C   0  0  0  0  0  0  0  0  0  0  0  0
  155.5469  139.4024  161.2610 H   0  0  0  0  0  0  0  0  0  0  0  0
  152.6284  142.4855  161.2163 H   0  0  0  0  0  0  0  0  0  0  0  0
  154.0307  143.2261  160.4600 H   0  0  0  0  0  0  0  0  0  0  0  0
  151.1067  143.4835  159.6618 H   0  0  0  0  0  0  0  0  0  0  0  0
  152.4981  144.3481  159.0332 H   0  0  0  0  0  0  0  0  0  0  0  0
  150.6845  144.3264  157.3498 H   0  0  0  0  0  0  0  0  0  0  0  0
  152.1002  143.4889  156.7589 H   0  0  0  0  0  0  0  0  0  0  0  0
  149.5887  142.2115  157.9300 H   0  0  0  0  0  0  0  0  0  0  0  0
  149.4672  143.0078  155.6948 H   0  0  0  0  0  0  0  0  0  0  0  0
  149.5441  140.0816  155.6555 H   0  0  0  0  0  0  0  0  0  0  0  0
  148.2025  141.0460  156.2517 H   0  0  0  0  0  0  0  0  0  0  0  0
  147.8426  142.0375  154.0328 H   0  0  0  0  0  0  0  0  0  0  0  0
  149.3227  141.3417  153.4182 H   0  0  0  0  0  0  0  0  0  0  0  0
  147.8894  138.8963  155.5726 H   0  0  0  0  0  0  0  0  0  0  0  0
  146.6187  136.9020  154.7520 H   0  0  0  0  0  0  0  0  0  0  0  0
  146.1175  138.5621  151.0002 H   0  0  0  0  0  0  0  0  0  0  0  0
  147.3645  140.6351  151.6428 H   0  0  0  0  0  0  0  0  0  0  0  0
  150.7049  140.0311  157.5469 H   0  0  0  0  0  0  0  0  0  0  0  0
  152.1065  140.8257  156.8685 H   0  0  0  0  0  0  0  0  0  0  0  0
  152.5111  140.1683  159.2070 H   0  0  0  0  0  0  0  0  0  0  0  0
  151.1187  141.0761  159.7619 H   0  0  0  0  0  0  0  0  0  0  0  0
  150.7544  142.1001  155.2426 H   0  0  0  0  0  0  0  0  0  0  0  0
  1  2  3  0  0  0  0
  1 19  1  0  0  0  0
  2  3  1  0  0  0  0
  3  4  1  0  0  0  0
  3 20  1  0  0  0  0
  3 21  1  0  0  0  0
  4 18  1  0  0  0  0
  4  5  1  0  0  0  0
  5  6  1  0  0  0  0
  5 22  1  0  0  0  0
  5 23  1  0  0  0  0
  6  7  1  0  0  0  0
  6 24  1  0  0  0  0
  6 25  1  0  0  0  0
  7  8  1  0  0  0  0
  7 17  1  0  0  0  0
  7 26  1  0  0  0  0
  8  9  1  0  0  0  0
  8 27  1  0  0  0  0
  8 40  1  0  0  0  0
  9 10  1  0  0  0  0
  9 28  1  0  0  0  0
  9 29  1  0  0  0  0
 10 11  1  0  0  0  0
 10 30  1  0  0  0  0
 10 31  1  0  0  0  0
 11 16  1  0  0  0  0
 11 12  2  0  0  0  0
 12 13  1  0  0  0  0
 12 32  1  0  0  0  0
 13 14  2  0  0  0  0
 13 33  1  0  0  0  0
 14 15  1  0  0  0  0
 15 16  2  0  0  0  0
 15 34  1  0  0  0  0
 16 35  1  0  0  0  0
 17 18  1  0  0  0  0
 17 36  1  0  0  0  0
 17 37  1  0  0  0  0
 18 38  1  0  0  0  0
 18 39  1  0  0  0  0
M  CHG  1   8   1
M  END
> <s_m_source_file>
AV-unprocessed.smi

> <i_m_source_file_index>
3319

> <i_lp_mmshare_version>
43012

> <i_f3d_flags>
0

> <s_epik_input>
W0NIXSNDW0NIMl1OMVtDSDJdW0NIMl1bQ0hdKFtDSDJdW0NIMl0xKVtOSF1bQ0gyXVtDSDJdYzJbY0hdW2NIXW5bY0hdW2NIXTI=

> <s_epik_cmdline>
J2VwaWtfcHl0aG9uJywgJy1waCcsICc3LjAnLCAnLXRuJywgJzgnLCAnLW1hJywgJzIwMCcsICctbWV0YWxfYmluZGluZycsICctaW1hZScsICc8aW5maWxlLm1hZT4nLCAnLW9tYWUnLCAnPG91dGZpbGUubWFlPic=

> <r_epik_Ionization_Penalty>
0.00927662

> <r_epik_Ionization_Penalty_Charging>
0.000485704

> <r_epik_Ionization_Penalty_Neutral>
0.00879091

> <r_epik_State_Penalty>
0.00559669

> <r_epik_Charging_Adjusted_Penalty>
0.0060824

> <i_epik_Tot_Q>
1

> <i_epik_Tot_abs_Q>
1

> <r_epik_Metal_State_Penalty>
-0

> <b_epik_Metal_Only>
0

> <s_lp_Force_Field>
OPLS_2005

> <r_lp_Energy>
19.7292

> <b_lp_Chiralities_Consistent>
1

> <s_lp_Variant>
AV-unprocessed.smi:3319-1

> <Gold.Version>
5.8.1

> <Gold.Id.Protein>
6NUR|6NUR_protein|mol2

> <Gold.PLP.Fitness>
44.7919

> <Gold.PLP.PLP>
-35.8646

> <Gold.PLP.part.hbond>
-1.0000

> <Gold.PLP.part.metal>
0.0000

> <Gold.PLP.part.buried>
-1.1111

> <Gold.PLP.part.nonpolar>
-35.4330

> <Gold.PLP.part.repulsive>
0.3818

> <Gold.PLP.ligand.clash>
0.0000

> <Gold.PLP.ligand.torsion>
0.0523

> <Gold.PLP.Chemscore.Hbond>
2.0000

> <Gold.PLP.Chemscore.CHOScore>
1.0000

> <Gold.PLP.Chemscore.Metal>
0.0000

> <Gold.Chemscore.Hbonds>
donor molecule, donor type, donor heavy atom, donor atom, acceptor molecule, acceptor atom, score
      L1  H     8    27       P1  8028  2.00
      L1  C    15    34       P1 10171  1.00

> <Gold.PLP.Chemscore.Internal.Correction>
0.0319

> <Gold.Rescore>
     Score         DG    S(hbond)    S(metal)    S(lipo)     H(rot)  DE(clash)    DE(int)     intcor
     17.41     -18.03       0.99        0.00     110.56       1.44       0.57       0.05       ----

> <Gold.Chemscore.Fitness>
17.4089

> <Gold.Chemscore.DG>
-18.0342

> <Gold.Chemscore.ZeroCoef>
-5.4800

> <Gold.Chemscore.Hbond>
0.9873

> <Gold.Chemscore.Metal>
0.0000

> <Gold.Chemscore.Lipo>
110.5610

> <Gold.Chemscore.Internal_Hbond>
0.0000

> <Gold.Chemscore.DEClash>
0.5741

> <Gold.Chemscore.DEInternal>
0.0512

> <Gold.Chemscore.Rot>
1.4371

> <Gold.Chemscore.Internal.Correction>
   9.000000E+99

> <Gold.Chemscore.Hbonds>
donor molecule, donor type, donor heavy atom, donor atom, acceptor molecule, acceptor atom, score
      L1  H     8    27       P1  8028  1.00

> <Gold.Chemscore.Hbond.Weighted>
-3.2976

> <Gold.Chemscore.Metal.Weighted>
-0.0000

> <Gold.Chemscore.Lipo.Weighted>
-12.9356

> <Gold.Chemscore.Internal_Hbond.Weighted>
0.0000

> <Gold.Chemscore.DEClash.Weighted>
0.5741

> <Gold.Chemscore.DEInternal.Weighted>
0.0512

> <Gold.Chemscore.Rot.Weighted>
3.6790

> <Gold.Chemscore.Internal.Correction.Weighted>
   9.000000E+99

> <Gold.Protein.RotatedTorsions>
[ 6907 6896 6895 6894 ] final  -43.90 input  -60.11 | X-H torsion
[ 7974 7965 7964 7962 ] final  164.62 input  175.53 | X-H torsion
[ 8008 7997 7996 7995 ] final  115.04 input   59.86 | X-H torsion
[ 10167 10162 10161 10158 ] final  -66.12 input  -65.29 | X-H torsion
[ 10718 10713 10712 10709 ] final  -57.50 input   66.30 | X-H torsion
[ 10763 10752 10751 10750 ] final -158.01 input  -60.55 | X-H torsion
[ 11005 11000 10999 10996 ] final    1.79 input  -57.11 | X-H torsion

> <Gold.Protein.ActiveResidues>
 VAL166  LYS551  ARG553  GLY616  TRP617  ASP618  TYR619  PRO620  LYS621  CYS622 
 ASP623  PHE694  ASN695  SER759  ASP760  ASP761  ALA762  ILE779  LEU786  VAL792 
 PHE793  MET794  SER795  GLU796  ALA797  LYS798  CYS799  TRP800  GLU811  SER814 

> <Gold.Protein.RotatedAtoms>
  150.9388  134.8799  159.7598 H   0  0  0  0  0  0  0  0  0  0  0  0  # atno 6907 bound_to 6896
  152.5071  134.3972  159.9414 H   0  0  0  0  0  0  0  0  0  0  0  0  # atno 6908 bound_to 6896
  151.3994  133.3722  159.2765 H   0  0  0  0  0  0  0  0  0  0  0  0  # atno 6909 bound_to 6896
  144.7537  139.8352  143.6357 H   0  0  0  0  0  0  0  0  0  0  0  0  # atno 7974 bound_to 7965
  156.2358  140.2946  156.0308 H   0  0  0  0  0  0  0  0  0  0  0  0  # atno 8008 bound_to 7997
  155.2096  140.0412  157.2948 H   0  0  0  0  0  0  0  0  0  0  0  0  # atno 8009 bound_to 7997
  154.6076  140.2443  155.7718 H   0  0  0  0  0  0  0  0  0  0  0  0  # atno 8010 bound_to 7997
  140.5680  143.2316  151.6596 H   0  0  0  0  0  0  0  0  0  0  0  0  # atno 10167 bound_to 10162
  156.1206  130.4166  150.0450 H   0  0  0  0  0  0  0  0  0  0  0  0  # atno 10718 bound_to 10713
  154.7591  135.3113  154.8414 H   0  0  0  0  0  0  0  0  0  0  0  0  # atno 10763 bound_to 10752
  153.9179  135.6799  153.4753 H   0  0  0  0  0  0  0  0  0  0  0  0  # atno 10764 bound_to 10752
  153.1190  135.4831  154.9094 H   0  0  0  0  0  0  0  0  0  0  0  0  # atno 10765 bound_to 10752
  140.6115  133.9744  155.8180 H   0  0  0  0  0  0  0  0  0  0  0  0  # atno 11005 bound_to 11000
  146.1521  139.4607  143.0042 LP  0  0  0  0  0  0  0  0  0  0  0  0  # atno 17320 bound_to 7965
  145.6853  141.0179  143.1584 LP  0  0  0  0  0  0  0  0  0  0  0  0  # atno 17321 bound_to 7965
  139.5103  144.3548  152.0618 LP  0  0  0  0  0  0  0  0  0  0  0  0  # atno 17342 bound_to 10162
  140.2682  144.3993  150.6160 LP  0  0  0  0  0  0  0  0  0  0  0  0  # atno 17343 bound_to 10162
  156.8389  130.9419  151.3633 LP  0  0  0  0  0  0  0  0  0  0  0  0  # atno 17370 bound_to 10713
  157.6389  130.8789  149.9411 LP  0  0  0  0  0  0  0  0  0  0  0  0  # atno 17371 bound_to 10713
  141.0804  134.0070  157.3394 LP  0  0  0  0  0  0  0  0  0  0  0  0  # atno 17394 bound_to 11000
  139.9190  135.0199  156.7992 LP  0  0  0  0  0  0  0  0  0  0  0  0  # atno 17395 bound_to 11000

$$$$
