AV-unprocessed.smi:2114|AV-procd|sdf|8621|dock10
  -GOLD-   2272011363D 1   1.00000     0.00000
 Structure written by MMmdl.
 47 48  0  0  0  0  0  0  0  0  1 V2000
  145.7491  136.2850  151.2825 C   0  0  0  0  0  0  0  0  0  0  0  0
  145.4016  136.5696  152.6260 O   0  0  0  0  0  0  0  0  0  0  0  0
  146.4409  137.2325  153.3283 C   0  0  0  0  0  0  0  0  0  0  0  0
  146.3016  138.7515  153.1377 C   0  0  2  0  0  0  0  0  0  0  0  0
  146.5881  139.1704  151.6893 C   0  0  0  0  0  0  0  0  0  0  0  0
  147.2241  139.4491  154.0307 N   0  0  0  0  0  0  0  0  0  0  0  0
  148.5652  139.3898  153.9782 C   0  0  0  0  0  0  0  0  0  0  0  0
  149.1903  138.6842  153.1864 O   0  0  0  0  0  0  0  0  0  0  0  0
  149.2862  140.2114  155.0066 C   0  0  0  0  0  0  0  0  0  0  0  0
  150.6943  140.1867  155.1200 C   0  0  0  0  0  0  0  0  0  0  0  0
  151.3131  140.9553  156.1245 C   0  0  0  0  0  0  0  0  0  0  0  0
  150.5039  141.7219  156.9881 C   0  0  0  0  0  0  0  0  0  0  0  0
  151.1147  142.4802  157.9965 N   0  0  0  0  0  0  0  0  0  0  0  0
  152.2338  141.8107  158.6448 C   0  0  0  0  0  0  0  0  0  0  0  0
  152.7211  142.6438  159.8442 C   0  0  1  0  0  0  0  0  0  0  0  0
  153.9681  142.0366  160.4957 C   0  0  0  0  0  0  0  0  0  0  0  0
  153.0481  143.9631  159.4051 O   0  0  0  0  0  0  0  0  0  0  0  0
  151.9831  144.6623  158.7545 C   0  0  2  0  0  0  0  0  0  0  0  0
  150.8842  145.0956  159.7412 C   0  0  0  0  0  0  0  0  0  0  0  0
  151.4499  143.8326  157.5699 C   0  0  0  0  0  0  0  0  0  0  0  0
  149.1533  141.7445  156.8926 N   0  0  0  0  0  0  0  0  0  0  0  0
  148.5662  141.0017  155.9296 C   0  0  0  0  0  0  0  0  0  0  0  0
  144.9207  135.7763  150.7897 H   0  0  0  0  0  0  0  0  0  0  0  0
  146.6220  135.6329  151.2315 H   0  0  0  0  0  0  0  0  0  0  0  0
  145.9614  137.1994  150.7272 H   0  0  0  0  0  0  0  0  0  0  0  0
  146.4063  136.9772  154.3889 H   0  0  0  0  0  0  0  0  0  0  0  0
  147.4051  136.8968  152.9435 H   0  0  0  0  0  0  0  0  0  0  0  0
  145.2704  139.0313  153.3602 H   0  0  0  0  0  0  0  0  0  0  0  0
  145.9075  138.6751  150.9961 H   0  0  0  0  0  0  0  0  0  0  0  0
  147.6066  138.9156  151.3947 H   0  0  0  0  0  0  0  0  0  0  0  0
  146.4625  140.2459  151.5605 H   0  0  0  0  0  0  0  0  0  0  0  0
  146.8080  140.0403  154.7353 H   0  0  0  0  0  0  0  0  0  0  0  0
  151.3002  139.5861  154.4572 H   0  0  0  0  0  0  0  0  0  0  0  0
  152.3882  140.9513  156.2309 H   0  0  0  0  0  0  0  0  0  0  0  0
  151.9258  140.8182  158.9768 H   0  0  0  0  0  0  0  0  0  0  0  0
  153.0463  141.6745  157.9293 H   0  0  0  0  0  0  0  0  0  0  0  0
  151.9362  142.6928  160.5992 H   0  0  0  0  0  0  0  0  0  0  0  0
  153.7682  141.0303  160.8648 H   0  0  0  0  0  0  0  0  0  0  0  0
  154.2981  142.6405  161.3414 H   0  0  0  0  0  0  0  0  0  0  0  0
  154.7946  141.9761  159.7870 H   0  0  0  0  0  0  0  0  0  0  0  0
  152.4210  145.5750  158.3495 H   0  0  0  0  0  0  0  0  0  0  0  0
  150.1480  145.7281  159.2446 H   0  0  0  0  0  0  0  0  0  0  0  0
  151.3067  145.6683  160.5668 H   0  0  0  0  0  0  0  0  0  0  0  0
  150.3471  144.2461  160.1624 H   0  0  0  0  0  0  0  0  0  0  0  0
  152.2115  143.7825  156.7900 H   0  0  0  0  0  0  0  0  0  0  0  0
  150.5763  144.3160  157.1301 H   0  0  0  0  0  0  0  0  0  0  0  0
  147.4874  141.0485  155.8964 H   0  0  0  0  0  0  0  0  0  0  0  0
  1  2  1  0  0  0  0
  1 23  1  0  0  0  0
  1 24  1  0  0  0  0
  1 25  1  0  0  0  0
  2  3  1  0  0  0  0
  3  4  1  0  0  0  0
  3 26  1  0  0  0  0
  3 27  1  0  0  0  0
  4  5  1  0  0  0  0
  4  6  1  0  0  0  0
  4 28  1  0  0  0  0
  5 29  1  0  0  0  0
  5 30  1  0  0  0  0
  5 31  1  0  0  0  0
  6  7  1  0  0  0  0
  6 32  1  0  0  0  0
  7  8  2  0  0  0  0
  7  9  1  0  0  0  0
  9 22  1  0  0  0  0
  9 10  2  0  0  0  0
 10 11  1  0  0  0  0
 10 33  1  0  0  0  0
 11 12  2  0  0  0  0
 11 34  1  0  0  0  0
 12 13  1  0  0  0  0
 12 21  1  0  0  0  0
 13 20  1  0  0  0  0
 13 14  1  0  0  0  0
 14 15  1  0  0  0  0
 14 35  1  0  0  0  0
 14 36  1  0  0  0  0
 15 16  1  0  0  0  0
 15 17  1  0  0  0  0
 15 37  1  0  0  0  0
 16 38  1  0  0  0  0
 16 39  1  0  0  0  0
 16 40  1  0  0  0  0
 17 18  1  0  0  0  0
 18 19  1  0  0  0  0
 18 20  1  0  0  0  0
 18 41  1  0  0  0  0
 19 42  1  0  0  0  0
 19 43  1  0  0  0  0
 19 44  1  0  0  0  0
 20 45  1  0  0  0  0
 20 46  1  0  0  0  0
 21 22  2  0  0  0  0
 22 47  1  0  0  0  0
M  END
> <s_m_source_file>
AV-unprocessed.smi

> <i_m_source_file_index>
2114

> <i_lp_mmshare_version>
43012

> <i_f3d_flags>
0

> <s_epik_input>
W0NIM11PW0NIMl1bQ0BIXShbQ0gzXSlbTkhdQyg9TyljMVtjSF1bY0hdYyhuW2NIXTEpTjJbQ0gyXVtDQEBIXShbQ0gzXSlPW0NAQEhdKFtDSDNdKVtDSDJdMg==

> <s_epik_cmdline>
J2VwaWtfcHl0aG9uJywgJy1waCcsICc3LjAnLCAnLXRuJywgJzgnLCAnLW1hJywgJzIwMCcsICctbWV0YWxfYmluZGluZycsICctaW1hZScsICc8aW5maWxlLm1hZT4nLCAnLW9tYWUnLCAnPG91dGZpbGUubWFlPic=

> <r_lp_tautomer_probability>
1

> <r_epik_Ionization_Penalty>
1.92915e-05

> <r_epik_Ionization_Penalty_Charging>
0

> <r_epik_Ionization_Penalty_Neutral>
1.92915e-05

> <r_epik_State_Penalty>
-0

> <r_epik_Charging_Adjusted_Penalty>
0

> <i_epik_Tot_Q>
0

> <i_epik_Tot_abs_Q>
0

> <r_epik_Metal_State_Penalty>
-0

> <b_epik_Metal_Only>
0

> <s_lp_Force_Field>
OPLS_2005

> <r_lp_Energy>
24.3529

> <b_lp_Chiralities_Consistent>
1

> <s_lp_Variant>
AV-unprocessed.smi:2114-5

> <Gold.Version>
5.8.1

> <Gold.Id.Protein>
6NUR|6NUR_protein|mol2

> <Gold.PLP.Fitness>
37.5849

> <Gold.PLP.PLP>
-39.2313

> <Gold.PLP.part.hbond>
0.0000

> <Gold.PLP.part.metal>
0.0000

> <Gold.PLP.part.buried>
-3.7583

> <Gold.PLP.part.nonpolar>
-40.9469

> <Gold.PLP.part.repulsive>
5.4984

> <Gold.PLP.ligand.clash>
0.0000

> <Gold.PLP.ligand.torsion>
0.8799

> <Gold.PLP.Chemscore.Hbond>
0.0000

> <Gold.PLP.Chemscore.CHOScore>
0.0000

> <Gold.PLP.Chemscore.Metal>
0.0000

> <Gold.PLP.Chemscore.Internal.Correction>
0.1134

> <Gold.Rescore>
     Score         DG    S(hbond)    S(metal)    S(lipo)     H(rot)  DE(clash)    DE(int)     intcor
     11.83     -14.37       0.00        0.00     109.34       1.52       0.80       1.74       ----

> <Gold.Chemscore.Fitness>
11.8324

> <Gold.Chemscore.DG>
-14.3744

> <Gold.Chemscore.ZeroCoef>
-5.4800

> <Gold.Chemscore.Hbond>
0.0000

> <Gold.Chemscore.Metal>
0.0000

> <Gold.Chemscore.Lipo>
109.3368

> <Gold.Chemscore.Internal_Hbond>
0.0000

> <Gold.Chemscore.DEClash>
0.7977

> <Gold.Chemscore.DEInternal>
1.7444

> <Gold.Chemscore.Rot>
1.5226

> <Gold.Chemscore.Internal.Correction>
   9.000000E+99

> <Gold.Chemscore.Hbond.Weighted>
-0.0000

> <Gold.Chemscore.Metal.Weighted>
-0.0000

> <Gold.Chemscore.Lipo.Weighted>
-12.7924

> <Gold.Chemscore.Internal_Hbond.Weighted>
0.0000

> <Gold.Chemscore.DEClash.Weighted>
0.7977

> <Gold.Chemscore.DEInternal.Weighted>
1.7444

> <Gold.Chemscore.Rot.Weighted>
3.8980

> <Gold.Chemscore.Internal.Correction.Weighted>
   9.000000E+99

> <Gold.Protein.RotatedTorsions>
[ 6907 6896 6895 6894 ] final -104.07 input  -60.11 | X-H torsion
[ 7974 7965 7964 7962 ] final   45.50 input  175.53 | X-H torsion
[ 8008 7997 7996 7995 ] final    6.40 input   59.86 | X-H torsion
[ 10167 10162 10161 10158 ] final   80.97 input  -65.29 | X-H torsion
[ 10718 10713 10712 10709 ] final   85.45 input   66.30 | X-H torsion
[ 10763 10752 10751 10750 ] final -177.45 input  -60.55 | X-H torsion
[ 11005 11000 10999 10996 ] final -146.81 input  -57.11 | X-H torsion

> <Gold.Protein.ActiveResidues>
 VAL166  LYS551  ARG553  GLY616  TRP617  ASP618  TYR619  PRO620  LYS621  CYS622 
 ASP623  PHE694  ASN695  SER759  ASP760  ASP761  ALA762  ILE779  LEU786  VAL792 
 PHE793  MET794  SER795  GLU796  ALA797  LYS798  CYS799  TRP800  GLU811  SER814 

> <Gold.Protein.RotatedAtoms>
  150.7270  134.0333  159.3740 H   0  0  0  0  0  0  0  0  0  0  0  0  # atno 6907 bound_to 6896
  151.8303  135.0621  160.0445 H   0  0  0  0  0  0  0  0  0  0  0  0  # atno 6908 bound_to 6896
  152.2938  133.5551  159.5611 H   0  0  0  0  0  0  0  0  0  0  0  0  # atno 6909 bound_to 6896
  146.0474  139.4958  142.9740 H   0  0  0  0  0  0  0  0  0  0  0  0  # atno 7974 bound_to 7965
  154.7406  140.2748  155.6376 H   0  0  0  0  0  0  0  0  0  0  0  0  # atno 8008 bound_to 7997
  156.2872  140.2698  156.2058 H   0  0  0  0  0  0  0  0  0  0  0  0  # atno 8009 bound_to 7997
  155.0263  140.0371  157.2447 H   0  0  0  0  0  0  0  0  0  0  0  0  # atno 8010 bound_to 7997
  139.9442  144.6069  150.8222 H   0  0  0  0  0  0  0  0  0  0  0  0  # atno 10167 bound_to 10162
  157.6915  131.0175  150.2824 H   0  0  0  0  0  0  0  0  0  0  0  0  # atno 10718 bound_to 10713
  154.5600  135.2819  155.0928 H   0  0  0  0  0  0  0  0  0  0  0  0  # atno 10763 bound_to 10752
  154.2341  135.6369  153.5189 H   0  0  0  0  0  0  0  0  0  0  0  0  # atno 10764 bound_to 10752
  153.0026  135.5544  154.6191 H   0  0  0  0  0  0  0  0  0  0  0  0  # atno 10765 bound_to 10752
  140.7781  134.3111  157.5054 H   0  0  0  0  0  0  0  0  0  0  0  0  # atno 11005 bound_to 11000
  145.6782  141.0198  143.1621 LP  0  0  0  0  0  0  0  0  0  0  0  0  # atno 17320 bound_to 7965
  144.7105  139.8390  143.7416 LP  0  0  0  0  0  0  0  0  0  0  0  0  # atno 17321 bound_to 7965
  140.7602  143.3146  151.2764 LP  0  0  0  0  0  0  0  0  0  0  0  0  # atno 17342 bound_to 10162
  139.6680  144.0071  152.2735 LP  0  0  0  0  0  0  0  0  0  0  0  0  # atno 17343 bound_to 10162
  156.3368  130.3809  149.7443 LP  0  0  0  0  0  0  0  0  0  0  0  0  # atno 17370 bound_to 10713
  156.4965  130.8109  151.3115 LP  0  0  0  0  0  0  0  0  0  0  0  0  # atno 17371 bound_to 10713
  139.8746  134.9302  156.3495 LP  0  0  0  0  0  0  0  0  0  0  0  0  # atno 17394 bound_to 11000
  140.9509  133.7451  156.0271 LP  0  0  0  0  0  0  0  0  0  0  0  0  # atno 17395 bound_to 11000

$$$$
