AV-unprocessed.smi:2191|AV-procd|sdf|8895|dock7
  -GOLD-   2272012103D 1   1.00000     0.00000
 Structure written by MMmdl.
 37 39  0  0  0  0  0  0  0  0  2 V2000
  148.9873  138.3371  157.0683 O   0  0  0  0  0  0  0  0  0  0  0  0
  149.4121  138.6190  158.3871 C   0  0  1  0  0  0  0  0  0  0  0  0
  149.4250  137.3099  159.1893 C   0  0  0  0  0  0  0  0  0  0  0  0
  148.4898  137.4142  160.2550 O   0  0  0  0  0  0  0  0  0  0  0  0
  148.0324  136.2519  160.8380 C   0  0  0  0  0  0  0  0  0  0  0  0
  147.9694  135.1061  160.0179 C   0  0  0  0  0  0  0  0  0  0  0  0
  147.5125  133.8765  160.5303 C   0  0  0  0  0  0  0  0  0  0  0  0
  147.1137  133.7800  161.8762 C   0  0  0  0  0  0  0  0  0  0  0  0
  147.1737  134.9144  162.7067 C   0  0  0  0  0  0  0  0  0  0  0  0
  147.6298  136.1445  162.1937 C   0  0  0  0  0  0  0  0  0  0  0  0
  150.7934  139.3039  158.3522 C   0  0  0  0  0  0  0  0  0  0  0  0
  150.7182  140.7179  157.9625 N   0  0  0  0  0  0  0  0  0  0  0  0
  150.0113  141.3163  156.9658 C   0  0  0  0  0  0  0  0  0  0  0  0
  150.2772  142.6513  157.0177 N   0  3  0  0  0  0  0  0  0  0  0  0
  151.1678  142.9091  158.0624 C   0  0  0  0  0  0  0  0  0  0  0  0
  151.7292  144.1011  158.5097 C   0  0  0  0  0  0  0  0  0  0  0  0
  152.6056  144.0135  159.6115 C   0  0  0  0  0  0  0  0  0  0  0  0
  152.8958  142.7766  160.2238 C   0  0  0  0  0  0  0  0  0  0  0  0
  152.3222  141.5738  159.7610 C   0  0  0  0  0  0  0  0  0  0  0  0
  151.4560  141.6701  158.6729 C   0  0  0  0  0  0  0  0  0  0  0  0
  149.7007  138.5227  156.4769 H   0  0  0  0  0  0  0  0  0  0  0  0
  148.6773  139.2938  158.8274 H   0  0  0  0  0  0  0  0  0  0  0  0
  149.1432  136.4791  158.5397 H   0  0  0  0  0  0  0  0  0  0  0  0
  150.4283  137.1158  159.5729 H   0  0  0  0  0  0  0  0  0  0  0  0
  148.2732  135.1710  158.9833 H   0  0  0  0  0  0  0  0  0  0  0  0
  147.4680  133.0076  159.8905 H   0  0  0  0  0  0  0  0  0  0  0  0
  146.7630  132.8379  162.2712 H   0  0  0  0  0  0  0  0  0  0  0  0
  146.8696  134.8418  163.7404 H   0  0  0  0  0  0  0  0  0  0  0  0
  147.6624  136.9910  162.8626 H   0  0  0  0  0  0  0  0  0  0  0  0
  151.2865  139.2437  159.3233 H   0  0  0  0  0  0  0  0  0  0  0  0
  151.4501  138.8012  157.6406 H   0  0  0  0  0  0  0  0  0  0  0  0
  149.3558  140.8223  156.2631 H   0  0  0  0  0  0  0  0  0  0  0  0
  151.5091  145.0503  158.0432 H   0  0  0  0  0  0  0  0  0  0  0  0
  153.0648  144.9133  159.9948 H   0  0  0  0  0  0  0  0  0  0  0  0
  153.5716  142.7496  161.0663 H   0  0  0  0  0  0  0  0  0  0  0  0
  152.5483  140.6308  160.2370 H   0  0  0  0  0  0  0  0  0  0  0  0
  149.8781  143.3335  156.3856 H   0  0  0  0  0  0  0  0  0  0  0  0
  1  2  1  0  0  0  0
  1 21  1  0  0  0  0
  2  3  1  0  0  0  0
  2 11  1  0  0  0  0
  2 22  1  0  0  0  0
  3  4  1  0  0  0  0
  3 23  1  0  0  0  0
  3 24  1  0  0  0  0
  4  5  1  0  0  0  0
  5 10  1  0  0  0  0
  5  6  2  0  0  0  0
  6  7  1  0  0  0  0
  6 25  1  0  0  0  0
  7  8  2  0  0  0  0
  7 26  1  0  0  0  0
  8  9  1  0  0  0  0
  8 27  1  0  0  0  0
  9 10  2  0  0  0  0
  9 28  1  0  0  0  0
 10 29  1  0  0  0  0
 11 12  1  0  0  0  0
 11 30  1  0  0  0  0
 11 31  1  0  0  0  0
 12 20  1  0  0  0  0
 12 13  1  0  0  0  0
 13 14  2  0  0  0  0
 13 32  1  0  0  0  0
 14 15  1  0  0  0  0
 14 37  1  0  0  0  0
 15 20  2  0  0  0  0
 15 16  1  0  0  0  0
 16 17  2  0  0  0  0
 16 33  1  0  0  0  0
 17 18  1  0  0  0  0
 17 34  1  0  0  0  0
 18 19  2  0  0  0  0
 18 35  1  0  0  0  0
 19 20  1  0  0  0  0
 19 36  1  0  0  0  0
M  CHG  1  14   1
M  END
> <s_m_source_file>
AV-unprocessed.smi

> <i_m_source_file_index>
2191

> <i_lp_mmshare_version>
43012

> <i_f3d_flags>
0

> <s_epik_input>
W2NIXTFbY0hdW2NIXVtjSF1jKGMxMiluKFtjSF1uMilbQ0gyXVtDQEhdKFtPSF0pW0NIMl1PYzNbY0hdW2NIXVtjSF1bY0hdW2NIXTM=

> <s_epik_cmdline>
J2VwaWtfcHl0aG9uJywgJy1waCcsICc3LjAnLCAnLXRuJywgJzgnLCAnLW1hJywgJzIwMCcsICctbWV0YWxfYmluZGluZycsICctaW1hZScsICc8aW5maWxlLm1hZT4nLCAnLW9tYWUnLCAnPG91dGZpbGUubWFlPic=

> <r_lp_tautomer_probability>
1

> <r_epik_Ionization_Penalty>
1.35015

> <r_epik_Ionization_Penalty_Charging>
1.35015

> <r_epik_Ionization_Penalty_Neutral>
2.3993e-06

> <r_epik_State_Penalty>
1.42814

> <r_epik_Charging_Adjusted_Penalty>
2.77829

> <i_epik_Tot_Q>
1

> <i_epik_Tot_abs_Q>
1

> <r_epik_Metal_State_Penalty>
5.46522

> <b_epik_Metal_Only>
0

> <s_lp_Force_Field>
OPLS_2005

> <r_lp_Energy>
19.3108

> <b_lp_Chiralities_Consistent>
1

> <s_lp_Variant>
AV-unprocessed.smi:2191-4

> <Gold.Version>
5.8.1

> <Gold.Id.Protein>
6NUR|6NUR_protein|mol2

> <Gold.PLP.Fitness>
51.7678

> <Gold.PLP.PLP>
-47.3249

> <Gold.PLP.part.hbond>
-3.0000

> <Gold.PLP.part.metal>
0.0000

> <Gold.PLP.part.buried>
-4.8204

> <Gold.PLP.part.nonpolar>
-40.9636

> <Gold.PLP.part.repulsive>
0.0482

> <Gold.PLP.ligand.clash>
0.0000

> <Gold.PLP.ligand.torsion>
1.5539

> <Gold.PLP.Chemscore.Hbond>
2.5072

> <Gold.PLP.Chemscore.CHOScore>
0.0000

> <Gold.PLP.Chemscore.Metal>
0.0000

> <Gold.Chemscore.Hbonds>
donor molecule, donor type, donor heavy atom, donor atom, acceptor molecule, acceptor atom, score
      L1  H    14    37       P1  8028  2.00
      P1  H  6931  6943       L1     4  0.46
      P1  H  6934  6947       L1     4  0.32

> <Gold.PLP.Chemscore.Internal.Correction>
0.0294

> <Gold.Rescore>
     Score         DG    S(hbond)    S(metal)    S(lipo)     H(rot)  DE(clash)    DE(int)     intcor
     16.17     -17.77       1.14        0.00     122.81       2.31       0.07       1.53       ----

> <Gold.Chemscore.Fitness>
16.1713

> <Gold.Chemscore.DG>
-17.7691

> <Gold.Chemscore.ZeroCoef>
-5.4800

> <Gold.Chemscore.Hbond>
1.1441

> <Gold.Chemscore.Metal>
0.0000

> <Gold.Chemscore.Lipo>
122.8149

> <Gold.Chemscore.Internal_Hbond>
0.0000

> <Gold.Chemscore.DEClash>
0.0685

> <Gold.Chemscore.DEInternal>
1.5293

> <Gold.Chemscore.Rot>
2.3053

> <Gold.Chemscore.Internal.Correction>
   9.000000E+99

> <Gold.Chemscore.Hbonds>
donor molecule, donor type, donor heavy atom, donor atom, acceptor molecule, acceptor atom, score
      L1  H    14    37       P1  8028  1.00
      P1  H  6931  6943       L1     4  0.08
      P1  H  6934  6947       L1     4  0.21

> <Gold.Chemscore.Hbond.Weighted>
-3.8213

> <Gold.Chemscore.Metal.Weighted>
-0.0000

> <Gold.Chemscore.Lipo.Weighted>
-14.3693

> <Gold.Chemscore.Internal_Hbond.Weighted>
0.0000

> <Gold.Chemscore.DEClash.Weighted>
0.0685

> <Gold.Chemscore.DEInternal.Weighted>
1.5293

> <Gold.Chemscore.Rot.Weighted>
5.9015

> <Gold.Chemscore.Internal.Correction.Weighted>
   9.000000E+99

> <Gold.Protein.RotatedTorsions>
[ 6907 6896 6895 6894 ] final -140.35 input  -60.11 | X-H torsion
[ 7974 7965 7964 7962 ] final   46.22 input  175.53 | X-H torsion
[ 8008 7997 7996 7995 ] final   37.34 input   59.86 | X-H torsion
[ 10167 10162 10161 10158 ] final  -33.43 input  -65.29 | X-H torsion
[ 10718 10713 10712 10709 ] final   29.52 input   66.30 | X-H torsion
[ 10763 10752 10751 10750 ] final  174.40 input  -60.55 | X-H torsion
[ 11005 11000 10999 10996 ] final -142.46 input  -57.11 | X-H torsion

> <Gold.Protein.ActiveResidues>
 VAL166  LYS551  ARG553  GLY616  TRP617  ASP618  TYR619  PRO620  LYS621  CYS622 
 ASP623  PHE694  ASN695  SER759  ASP760  ASP761  ALA762  ILE779  LEU786  VAL792 
 PHE793  MET794  SER795  GLU796  ALA797  LYS798  CYS799  TRP800  GLU811  SER814 

> <Gold.Protein.RotatedAtoms>
  151.0596  133.5555  159.2635 H   0  0  0  0  0  0  0  0  0  0  0  0  # atno 6907 bound_to 6896
  151.2535  135.0629  159.9081 H   0  0  0  0  0  0  0  0  0  0  0  0  # atno 6908 bound_to 6896
  152.5395  134.0353  159.8097 H   0  0  0  0  0  0  0  0  0  0  0  0  # atno 6909 bound_to 6896
  146.0410  139.4880  142.9778 H   0  0  0  0  0  0  0  0  0  0  0  0  # atno 7974 bound_to 7965
  155.2022  140.3316  155.4341 H   0  0  0  0  0  0  0  0  0  0  0  0  # atno 8008 bound_to 7997
  156.2402  140.1892  156.7058 H   0  0  0  0  0  0  0  0  0  0  0  0  # atno 8009 bound_to 7997
  154.6134  140.0605  156.9509 H   0  0  0  0  0  0  0  0  0  0  0  0  # atno 8010 bound_to 7997
  140.7204  143.3621  151.1943 H   0  0  0  0  0  0  0  0  0  0  0  0  # atno 10167 bound_to 10162
  157.2476  130.7099  149.6389 H   0  0  0  0  0  0  0  0  0  0  0  0  # atno 10718 bound_to 10713
  154.4534  135.2765  155.1765 H   0  0  0  0  0  0  0  0  0  0  0  0  # atno 10763 bound_to 10752
  154.3582  135.6135  153.5681 H   0  0  0  0  0  0  0  0  0  0  0  0  # atno 10764 bound_to 10752
  152.9849  135.5828  154.4883 H   0  0  0  0  0  0  0  0  0  0  0  0  # atno 10765 bound_to 10752
  140.8223  134.2617  157.4895 H   0  0  0  0  0  0  0  0  0  0  0  0  # atno 11005 bound_to 11000
  145.6885  141.0171  143.1568 LP  0  0  0  0  0  0  0  0  0  0  0  0  # atno 17320 bound_to 7965
  144.7074  139.8504  143.7425 LP  0  0  0  0  0  0  0  0  0  0  0  0  # atno 17321 bound_to 7965
  139.7175  143.9277  152.2972 LP  0  0  0  0  0  0  0  0  0  0  0  0  # atno 17342 bound_to 10162
  139.9023  144.6905  150.8652 LP  0  0  0  0  0  0  0  0  0  0  0  0  # atno 17343 bound_to 10162
  155.9667  130.4438  150.5435 LP  0  0  0  0  0  0  0  0  0  0  0  0  # atno 17370 bound_to 10713
  157.3312  131.0700  151.1859 LP  0  0  0  0  0  0  0  0  0  0  0  0  # atno 17371 bound_to 10713
  139.8708  134.9542  156.4167 LP  0  0  0  0  0  0  0  0  0  0  0  0  # atno 17394 bound_to 11000
  140.9086  133.7728  155.9765 LP  0  0  0  0  0  0  0  0  0  0  0  0  # atno 17395 bound_to 11000

$$$$
