AV-unprocessed.smi:2510|AV-procd|sdf|9883|dock10
  -GOLD-   2272013523D 1   1.00000     0.00000
 Structure written by MMmdl.
 48 49  0  0  0  0  0  0  0  0  1 V2000
  150.9048  138.9216  158.2832 C   0  0  0  0  0  0  0  0  0  0  0  0
  149.8521  138.1287  157.4898 C   0  0  0  0  0  0  0  0  0  0  0  0
  149.9606  138.1674  155.9458 C   0  0  0  0  0  0  0  0  0  0  0  0
  151.3768  137.6372  155.5795 C   0  0  0  0  0  0  0  0  0  0  0  0
  151.8872  137.9693  154.1640 C   0  0  0  0  0  0  0  0  0  0  0  0
  148.7815  137.5472  155.1368 C   0  0  2  0  0  0  0  0  0  0  0  0
  149.0615  136.2230  154.5890 N   0  0  0  0  0  0  0  0  0  0  0  0
  149.3844  135.1446  155.3171 C   0  0  0  0  0  0  0  0  0  0  0  0
  149.4904  135.1694  156.5443 O   0  0  0  0  0  0  0  0  0  0  0  0
  149.6124  133.8526  154.5232 C   0  0  0  0  0  0  0  0  0  0  0  0
  148.3512  133.2874  153.9468 C   0  0  0  0  0  0  0  0  0  0  0  0
  148.0059  132.9740  152.6617 C   0  0  0  0  0  0  0  0  0  0  0  0
  146.6711  132.4834  152.7643 C   0  0  0  0  0  0  0  0  0  0  0  0
  145.7783  131.9879  151.6652 C   0  0  0  0  0  0  0  0  0  0  0  0
  146.2229  132.4933  154.0108 N   0  0  0  0  0  0  0  0  0  0  0  0
  147.2543  132.9851  154.7220 N   0  0  0  0  0  0  0  0  0  0  0  0
  148.9128  138.6704  154.0996 C   0  0  1  0  0  0  0  0  0  0  0  0
  147.6574  139.1679  153.3924 C   0  0  0  0  0  0  0  0  0  0  0  0
  149.5131  139.4876  155.2551 C   0  0  2  0  0  0  0  0  0  0  0  0
  150.5944  140.3293  154.8851 O   0  0  0  0  0  0  0  0  0  0  0  0
  151.2972  140.8699  155.9899 C   0  0  0  0  0  0  0  0  0  0  0  0
  147.1981  133.1041  155.7235 H   0  0  0  0  0  0  0  0  0  0  0  0
  150.7869  138.7395  159.3515 H   0  0  0  0  0  0  0  0  0  0  0  0
  150.7984  139.9959  158.1332 H   0  0  0  0  0  0  0  0  0  0  0  0
  151.9221  138.6357  158.0185 H   0  0  0  0  0  0  0  0  0  0  0  0
  149.9133  137.0937  157.8272 H   0  0  0  0  0  0  0  0  0  0  0  0
  148.8704  138.4842  157.8057 H   0  0  0  0  0  0  0  0  0  0  0  0
  152.1095  138.0208  156.2905 H   0  0  0  0  0  0  0  0  0  0  0  0
  151.4141  136.5537  155.6926 H   0  0  0  0  0  0  0  0  0  0  0  0
  152.8453  137.4814  153.9847 H   0  0  0  0  0  0  0  0  0  0  0  0
  152.0487  139.0386  154.0298 H   0  0  0  0  0  0  0  0  0  0  0  0
  151.2045  137.6341  153.3851 H   0  0  0  0  0  0  0  0  0  0  0  0
  147.8167  137.6106  155.6419 H   0  0  0  0  0  0  0  0  0  0  0  0
  148.9986  136.1205  153.5866 H   0  0  0  0  0  0  0  0  0  0  0  0
  150.3272  134.0532  153.7240 H   0  0  0  0  0  0  0  0  0  0  0  0
  150.0769  133.1146  155.1784 H   0  0  0  0  0  0  0  0  0  0  0  0
  148.6177  133.0784  151.7778 H   0  0  0  0  0  0  0  0  0  0  0  0
  146.2813  132.0311  150.6989 H   0  0  0  0  0  0  0  0  0  0  0  0
  144.8719  132.5895  151.5942 H   0  0  0  0  0  0  0  0  0  0  0  0
  145.4803  130.9534  151.8374 H   0  0  0  0  0  0  0  0  0  0  0  0
  149.6921  138.4289  153.3745 H   0  0  0  0  0  0  0  0  0  0  0  0
  146.8881  139.4615  154.1068 H   0  0  0  0  0  0  0  0  0  0  0  0
  147.2338  138.3934  152.7533 H   0  0  0  0  0  0  0  0  0  0  0  0
  147.8675  140.0300  152.7607 H   0  0  0  0  0  0  0  0  0  0  0  0
  148.7511  140.0209  155.8265 H   0  0  0  0  0  0  0  0  0  0  0  0
  152.1516  141.4428  155.6302 H   0  0  0  0  0  0  0  0  0  0  0  0
  151.6721  140.0841  156.6468 H   0  0  0  0  0  0  0  0  0  0  0  0
  150.6684  141.5445  156.5697 H   0  0  0  0  0  0  0  0  0  0  0  0
  1  2  1  0  0  0  0
  1 23  1  0  0  0  0
  1 24  1  0  0  0  0
  1 25  1  0  0  0  0
  2  3  1  0  0  0  0
  2 26  1  0  0  0  0
  2 27  1  0  0  0  0
  3 19  1  0  0  0  0
  3  4  1  0  0  0  0
  3  6  1  0  0  0  0
  4  5  1  0  0  0  0
  4 28  1  0  0  0  0
  4 29  1  0  0  0  0
  5 30  1  0  0  0  0
  5 31  1  0  0  0  0
  5 32  1  0  0  0  0
  6  7  1  0  0  0  0
  6 17  1  0  0  0  0
  6 33  1  0  0  0  0
  7  8  1  0  0  0  0
  7 34  1  0  0  0  0
  8  9  2  0  0  0  0
  8 10  1  0  0  0  0
 10 35  1  0  0  0  0
 10 36  1  0  0  0  0
 10 11  1  0  0  0  0
 11 16  1  0  0  0  0
 11 12  2  0  0  0  0
 12 13  1  0  0  0  0
 12 37  1  0  0  0  0
 13 14  1  0  0  0  0
 13 15  2  0  0  0  0
 14 38  1  0  0  0  0
 14 39  1  0  0  0  0
 14 40  1  0  0  0  0
 15 16  1  0  0  0  0
 16 22  1  0  0  0  0
 17 18  1  0  0  0  0
 17 19  1  0  0  0  0
 17 41  1  0  0  0  0
 18 42  1  0  0  0  0
 18 43  1  0  0  0  0
 18 44  1  0  0  0  0
 19 20  1  0  0  0  0
 19 45  1  0  0  0  0
 20 21  1  0  0  0  0
 21 46  1  0  0  0  0
 21 47  1  0  0  0  0
 21 48  1  0  0  0  0
M  END
> <s_m_source_file>
AV-unprocessed.smi

> <i_m_source_file_index>
2510

> <i_lp_mmshare_version>
43012

> <i_f3d_flags>
0

> <s_epik_input>
W0NIM11PW0NAQEhdMVtDQEhdKFtDSDNdKVtDQEBIXShDMShbQ0gyXVtDSDNdKVtDSDJdW0NIM10pW05IXUMoPU8pW0NIMl1jMltjSF1jKFtDSDNdKVtuSF1uMg==

> <s_epik_cmdline>
J2VwaWtfcHl0aG9uJywgJy1waCcsICc3LjAnLCAnLXRuJywgJzgnLCAnLW1hJywgJzIwMCcsICctbWV0YWxfYmluZGluZycsICctaW1hZScsICc8aW5maWxlLm1hZT4nLCAnLW9tYWUnLCAnPG91dGZpbGUubWFlPic=

> <r_lp_tautomer_probability>
0.5

> <r_epik_Ionization_Penalty>
0.000134763

> <r_epik_Ionization_Penalty_Charging>
0

> <r_epik_Ionization_Penalty_Neutral>
0.000134763

> <r_epik_State_Penalty>
0.41068

> <r_epik_Charging_Adjusted_Penalty>
0.41068

> <i_epik_Tot_Q>
0

> <i_epik_Tot_abs_Q>
0

> <r_epik_Metal_State_Penalty>
0.410661

> <b_epik_Metal_Only>
0

> <s_lp_Force_Field>
OPLS_2005

> <r_lp_Energy>
25.9976

> <b_lp_Chiralities_Consistent>
1

> <s_lp_Variant>
AV-unprocessed.smi:2510-14

> <Gold.Version>
5.8.1

> <Gold.Id.Protein>
6NUR|6NUR_protein|mol2

> <Gold.PLP.Fitness>
35.4531

> <Gold.PLP.PLP>
-30.1925

> <Gold.PLP.part.hbond>
-2.0000

> <Gold.PLP.part.metal>
0.0000

> <Gold.PLP.part.buried>
-3.9180

> <Gold.PLP.part.nonpolar>
-24.5505

> <Gold.PLP.part.repulsive>
0.1937

> <Gold.PLP.ligand.clash>
0.0000

> <Gold.PLP.ligand.torsion>
0.6484

> <Gold.PLP.Chemscore.Hbond>
2.0000

> <Gold.PLP.Chemscore.CHOScore>
0.0000

> <Gold.PLP.Chemscore.Metal>
0.0000

> <Gold.Chemscore.Hbonds>
donor molecule, donor type, donor heavy atom, donor atom, acceptor molecule, acceptor atom, score
      L1  H     7    34       P1  7948  1.00
      P1  H  7989  7998       L1    20  1.00

> <Gold.PLP.Chemscore.Internal.Correction>
0.5573

> <Gold.Rescore>
     Score         DG    S(hbond)    S(metal)    S(lipo)     H(rot)  DE(clash)    DE(int)     intcor
     13.32     -16.45       1.86        0.00      80.36       1.81       0.22       2.91       ----

> <Gold.Chemscore.Fitness>
13.3171

> <Gold.Chemscore.DG>
-16.4461

> <Gold.Chemscore.ZeroCoef>
-5.4800

> <Gold.Chemscore.Hbond>
1.8559

> <Gold.Chemscore.Metal>
0.0000

> <Gold.Chemscore.Lipo>
80.3559

> <Gold.Chemscore.Internal_Hbond>
0.0000

> <Gold.Chemscore.DEClash>
0.2151

> <Gold.Chemscore.DEInternal>
2.9139

> <Gold.Chemscore.Rot>
1.8102

> <Gold.Chemscore.Internal.Correction>
   9.000000E+99

> <Gold.Chemscore.Hbonds>
donor molecule, donor type, donor heavy atom, donor atom, acceptor molecule, acceptor atom, score
      L1  H     7    34       P1  7948  0.98
      P1  H  7989  7998       L1    20  0.30

> <Gold.Chemscore.Hbond.Weighted>
-6.1986

> <Gold.Chemscore.Metal.Weighted>
-0.0000

> <Gold.Chemscore.Lipo.Weighted>
-9.4016

> <Gold.Chemscore.Internal_Hbond.Weighted>
0.0000

> <Gold.Chemscore.DEClash.Weighted>
0.2151

> <Gold.Chemscore.DEInternal.Weighted>
2.9139

> <Gold.Chemscore.Rot.Weighted>
4.6341

> <Gold.Chemscore.Internal.Correction.Weighted>
   9.000000E+99

> <Gold.Protein.RotatedTorsions>
[ 6907 6896 6895 6894 ] final   53.79 input  -60.11 | X-H torsion
[ 7974 7965 7964 7962 ] final  -47.01 input  175.53 | X-H torsion
[ 8008 7997 7996 7995 ] final  125.32 input   59.86 | X-H torsion
[ 10167 10162 10161 10158 ] final  -29.98 input  -65.29 | X-H torsion
[ 10718 10713 10712 10709 ] final    0.64 input   66.30 | X-H torsion
[ 10763 10752 10751 10750 ] final -171.83 input  -60.55 | X-H torsion
[ 11005 11000 10999 10996 ] final   95.03 input  -57.11 | X-H torsion

> <Gold.Protein.ActiveResidues>
 VAL166  LYS551  ARG553  GLY616  TRP617  ASP618  TYR619  PRO620  LYS621  CYS622 
 ASP623  PHE694  ASN695  SER759  ASP760  ASP761  ALA762  ILE779  LEU786  VAL792 
 PHE793  MET794  SER795  GLU796  ALA797  LYS798  CYS799  TRP800  GLU811  SER814 

> <Gold.Protein.RotatedAtoms>
  152.3373  134.7181  160.0273 H   0  0  0  0  0  0  0  0  0  0  0  0  # atno 6907 bound_to 6896
  151.7577  133.3326  159.3417 H   0  0  0  0  0  0  0  0  0  0  0  0  # atno 6908 bound_to 6896
  150.7458  134.6066  159.6109 H   0  0  0  0  0  0  0  0  0  0  0  0  # atno 6909 bound_to 6896
  145.9660  140.7432  142.9434 H   0  0  0  0  0  0  0  0  0  0  0  0  # atno 7974 bound_to 7965
  156.2830  140.2719  156.1931 H   0  0  0  0  0  0  0  0  0  0  0  0  # atno 8008 bound_to 7997
  155.0438  140.0386  157.2537 H   0  0  0  0  0  0  0  0  0  0  0  0  # atno 8009 bound_to 7997
  154.7252  140.2695  155.6511 H   0  0  0  0  0  0  0  0  0  0  0  0  # atno 8010 bound_to 7997
  140.7254  143.3885  151.1472 H   0  0  0  0  0  0  0  0  0  0  0  0  # atno 10167 bound_to 10162
  156.8364  130.5506  149.5682 H   0  0  0  0  0  0  0  0  0  0  0  0  # atno 10718 bound_to 10713
  154.6261  135.2881  155.0271 H   0  0  0  0  0  0  0  0  0  0  0  0  # atno 10763 bound_to 10752
  154.1448  135.6513  153.4954 H   0  0  0  0  0  0  0  0  0  0  0  0  # atno 10764 bound_to 10752
  153.0258  135.5341  154.7070 H   0  0  0  0  0  0  0  0  0  0  0  0  # atno 10765 bound_to 10752
  139.8793  134.8877  156.3952 H   0  0  0  0  0  0  0  0  0  0  0  0  # atno 11005 bound_to 11000
  144.6825  140.2669  143.7311 LP  0  0  0  0  0  0  0  0  0  0  0  0  # atno 17320 bound_to 7965
  145.7973  139.1950  143.2068 LP  0  0  0  0  0  0  0  0  0  0  0  0  # atno 17321 bound_to 7965
  139.7486  143.8813  152.3070 LP  0  0  0  0  0  0  0  0  0  0  0  0  # atno 17342 bound_to 10162
  139.8659  144.7093  150.9045 LP  0  0  0  0  0  0  0  0  0  0  0  0  # atno 17343 bound_to 10162
  156.0905  130.5892  150.9724 LP  0  0  0  0  0  0  0  0  0  0  0  0  # atno 17370 bound_to 10713
  157.6379  131.0914  150.8311 LP  0  0  0  0  0  0  0  0  0  0  0  0  # atno 17371 bound_to 10713
  140.9305  133.7582  156.0019 LP  0  0  0  0  0  0  0  0  0  0  0  0  # atno 17394 bound_to 11000
  140.8336  134.3150  157.5340 LP  0  0  0  0  0  0  0  0  0  0  0  0  # atno 17395 bound_to 11000

$$$$
