AV-unprocessed.smi:678|AV-procd|sdf|3314|dock6
  -GOLD-   22720 0283D 1   1.00000     0.00000
 Structure written by MMmdl.
 51 52  0  0  0  0  0  0  0  0  2 V2000
  153.3735  142.3190  161.1680 C   0  0  0  0  0  0  0  0  0  0  0  0
  152.6883  142.7118  159.8707 C   0  0  0  0  0  0  0  0  0  0  0  0
  152.5370  144.0070  159.5183 C   0  0  0  0  0  0  0  0  0  0  0  0
  151.8704  144.3734  158.2924 C   0  0  0  0  0  0  0  0  0  0  0  0
  151.3976  143.3927  157.5102 C   0  0  0  0  0  0  0  0  0  0  0  0
  151.5418  142.0357  157.8534 N   0  0  0  0  0  0  0  0  0  0  0  0
  150.9775  141.0442  156.9218 C   0  0  0  0  0  0  0  0  0  0  0  0
  149.9911  140.0931  157.6114 C   0  0  0  0  0  0  0  0  0  0  0  0
  149.8464  140.1240  158.8338 O   0  0  0  0  0  0  0  0  0  0  0  0
  149.3292  139.2441  156.8114 N   0  0  0  0  0  0  0  0  0  0  0  0
  148.4280  138.1869  157.2578 C   0  0  0  0  0  0  0  0  0  0  0  0
  148.7444  136.8425  156.5745 C   0  0  1  0  0  0  0  0  0  0  0  0
  148.5395  136.8645  155.0392 C   0  0  0  0  0  0  0  0  0  0  0  0
  148.9631  135.5905  154.4047 N   0  3  2  0  0  0  0  0  0  0  0  0
  147.9830  134.4787  154.5389 C   0  0  0  0  0  0  0  0  0  0  0  0
  148.2346  133.3399  153.5270 C   0  0  0  0  0  0  0  0  0  0  0  0
  146.9889  132.4528  153.3875 C   0  0  0  0  0  0  0  0  0  0  0  0
  149.4601  132.4941  153.9090 C   0  0  0  0  0  0  0  0  0  0  0  0
  150.3396  135.2329  154.8236 C   0  0  0  0  0  0  0  0  0  0  0  0
  150.4753  135.2438  156.3558 C   0  0  0  0  0  0  0  0  0  0  0  0
  150.1038  136.5241  156.8521 O   0  0  0  0  0  0  0  0  0  0  0  0
  152.1741  141.6367  159.0017 C   0  0  0  0  0  0  0  0  0  0  0  0
  152.2987  140.4431  159.2852 O   0  0  0  0  0  0  0  0  0  0  0  0
  153.7895  143.1891  161.6769 H   0  0  0  0  0  0  0  0  0  0  0  0
  154.1888  141.6197  160.9784 H   0  0  0  0  0  0  0  0  0  0  0  0
  152.6613  141.8442  161.8430 H   0  0  0  0  0  0  0  0  0  0  0  0
  152.9122  144.7882  160.1633 H   0  0  0  0  0  0  0  0  0  0  0  0
  151.7503  145.4106  158.0152 H   0  0  0  0  0  0  0  0  0  0  0  0
  150.8797  143.5833  156.5814 H   0  0  0  0  0  0  0  0  0  0  0  0
  150.4574  141.5306  156.0957 H   0  0  0  0  0  0  0  0  0  0  0  0
  151.7858  140.4754  156.4572 H   0  0  0  0  0  0  0  0  0  0  0  0
  149.5000  139.3042  155.8177 H   0  0  0  0  0  0  0  0  0  0  0  0
  148.4423  138.0837  158.3442 H   0  0  0  0  0  0  0  0  0  0  0  0
  147.4159  138.4959  156.9953 H   0  0  0  0  0  0  0  0  0  0  0  0
  148.1118  136.0786  157.0289 H   0  0  0  0  0  0  0  0  0  0  0  0
  147.5040  137.0828  154.7856 H   0  0  0  0  0  0  0  0  0  0  0  0
  149.1333  137.6712  154.6077 H   0  0  0  0  0  0  0  0  0  0  0  0
  148.0376  134.0587  155.5442 H   0  0  0  0  0  0  0  0  0  0  0  0
  146.9687  134.8635  154.4336 H   0  0  0  0  0  0  0  0  0  0  0  0
  148.4257  133.7685  152.5447 H   0  0  0  0  0  0  0  0  0  0  0  0
  146.7231  131.9878  154.3375 H   0  0  0  0  0  0  0  0  0  0  0  0
  147.1515  131.6557  152.6614 H   0  0  0  0  0  0  0  0  0  0  0  0
  146.1303  133.0328  153.0472 H   0  0  0  0  0  0  0  0  0  0  0  0
  149.3310  132.0242  154.8845 H   0  0  0  0  0  0  0  0  0  0  0  0
  150.3661  133.0991  153.9476 H   0  0  0  0  0  0  0  0  0  0  0  0
  149.6309  131.7018  153.1795 H   0  0  0  0  0  0  0  0  0  0  0  0
  150.6312  134.2658  154.4124 H   0  0  0  0  0  0  0  0  0  0  0  0
  151.0273  135.9646  154.3981 H   0  0  0  0  0  0  0  0  0  0  0  0
  149.8639  134.4651  156.8146 H   0  0  0  0  0  0  0  0  0  0  0  0
  151.5083  135.0438  156.6405 H   0  0  0  0  0  0  0  0  0  0  0  0
  149.0185  135.7671  153.4116 H   0  0  0  0  0  0  0  0  0  0  0  0
  1  2  1  0  0  0  0
  1 24  1  0  0  0  0
  1 25  1  0  0  0  0
  1 26  1  0  0  0  0
  2 22  1  0  0  0  0
  2  3  2  0  0  0  0
  3  4  1  0  0  0  0
  3 27  1  0  0  0  0
  4  5  2  0  0  0  0
  4 28  1  0  0  0  0
  5  6  1  0  0  0  0
  5 29  1  0  0  0  0
  6  7  1  0  0  0  0
  6 22  1  0  0  0  0
  7  8  1  0  0  0  0
  7 30  1  0  0  0  0
  7 31  1  0  0  0  0
  8  9  2  0  0  0  0
  8 10  1  0  0  0  0
 10 11  1  0  0  0  0
 10 32  1  0  0  0  0
 11 12  1  0  0  0  0
 11 33  1  0  0  0  0
 11 34  1  0  0  0  0
 12 21  1  0  0  0  0
 12 13  1  0  0  0  0
 12 35  1  0  0  0  0
 13 14  1  0  0  0  0
 13 36  1  0  0  0  0
 13 37  1  0  0  0  0
 14 15  1  0  0  0  0
 14 19  1  0  0  0  0
 14 51  1  0  0  0  0
 15 16  1  0  0  0  0
 15 38  1  0  0  0  0
 15 39  1  0  0  0  0
 16 17  1  0  0  0  0
 16 18  1  0  0  0  0
 16 40  1  0  0  0  0
 17 41  1  0  0  0  0
 17 42  1  0  0  0  0
 17 43  1  0  0  0  0
 18 44  1  0  0  0  0
 18 45  1  0  0  0  0
 18 46  1  0  0  0  0
 19 20  1  0  0  0  0
 19 47  1  0  0  0  0
 19 48  1  0  0  0  0
 20 21  1  0  0  0  0
 20 49  1  0  0  0  0
 20 50  1  0  0  0  0
 22 23  2  0  0  0  0
M  CHG  1  14   1
M  END
> <s_m_source_file>
AV-unprocessed.smi

> <i_m_source_file_index>
678

> <i_lp_mmshare_version>
43012

> <i_f3d_flags>
0

> <s_epik_input>
W0NIM11jMVtjSF1bY0hdW2NIXW4oYzE9TylbQ0gyXUMoPU8pW05IXVtDSDJdW0NAQEhdMltDSDJdTihbQ0gyXVtDSDJdTzIpW0NIMl1bQ0hdKFtDSDNdKVtDSDNd

> <s_epik_cmdline>
J2VwaWtfcHl0aG9uJywgJy1waCcsICc3LjAnLCAnLXRuJywgJzgnLCAnLW1hJywgJzIwMCcsICctbWV0YWxfYmluZGluZycsICctaW1hZScsICc8aW5maWxlLm1hZT4nLCAnLW9tYWUnLCAnPG91dGZpbGUubWFlPic=

> <r_lp_tautomer_probability>
1

> <r_epik_Ionization_Penalty>
0.0975937

> <r_epik_Ionization_Penalty_Charging>
0.0975937

> <r_epik_Ionization_Penalty_Neutral>
6.27044e-08

> <r_epik_State_Penalty>
0.0877056

> <r_epik_Charging_Adjusted_Penalty>
0.185299

> <i_epik_Tot_Q>
1

> <i_epik_Tot_abs_Q>
1

> <r_epik_Metal_State_Penalty>
0.0877109

> <b_epik_Metal_Only>
0

> <s_lp_Force_Field>
OPLS_2005

> <r_lp_Energy>
27.4135

> <b_lp_Chiralities_Consistent>
1

> <s_lp_Variant>
AV-unprocessed.smi:678-2

> <Gold.Version>
5.8.1

> <Gold.Id.Protein>
6NUR|6NUR_protein|mol2

> <Gold.PLP.Fitness>
47.5632

> <Gold.PLP.PLP>
-39.1352

> <Gold.PLP.part.hbond>
-1.8540

> <Gold.PLP.part.metal>
0.0000

> <Gold.PLP.part.buried>
-2.8258

> <Gold.PLP.part.nonpolar>
-34.5131

> <Gold.PLP.part.repulsive>
0.0204

> <Gold.PLP.ligand.clash>
0.0000

> <Gold.PLP.ligand.torsion>
0.3531

> <Gold.PLP.Chemscore.Hbond>
2.0000

> <Gold.PLP.Chemscore.CHOScore>
1.0000

> <Gold.PLP.Chemscore.Metal>
0.0000

> <Gold.Chemscore.Hbonds>
donor molecule, donor type, donor heavy atom, donor atom, acceptor molecule, acceptor atom, score
      L1  H    14    51       P1  7948  2.00
      L1  C     5    29       P1  8028  1.00

> <Gold.PLP.Chemscore.Internal.Correction>
0.1342

> <Gold.Rescore>
     Score         DG    S(hbond)    S(metal)    S(lipo)     H(rot)  DE(clash)    DE(int)     intcor
     10.49     -15.65       0.99        0.00      99.89       1.89       0.38       4.78       ----

> <Gold.Chemscore.Fitness>
10.4883

> <Gold.Chemscore.DG>
-15.6498

> <Gold.Chemscore.ZeroCoef>
-5.4800

> <Gold.Chemscore.Hbond>
0.9920

> <Gold.Chemscore.Metal>
0.0000

> <Gold.Chemscore.Lipo>
99.8916

> <Gold.Chemscore.Internal_Hbond>
0.0000

> <Gold.Chemscore.DEClash>
0.3773

> <Gold.Chemscore.DEInternal>
4.7842

> <Gold.Chemscore.Rot>
1.8871

> <Gold.Chemscore.Internal.Correction>
   9.000000E+99

> <Gold.Chemscore.Hbonds>
donor molecule, donor type, donor heavy atom, donor atom, acceptor molecule, acceptor atom, score
      L1  H    14    51       P1  7948  0.84

> <Gold.Chemscore.Hbond.Weighted>
-3.3134

> <Gold.Chemscore.Metal.Weighted>
-0.0000

> <Gold.Chemscore.Lipo.Weighted>
-11.6873

> <Gold.Chemscore.Internal_Hbond.Weighted>
0.0000

> <Gold.Chemscore.DEClash.Weighted>
0.3773

> <Gold.Chemscore.DEInternal.Weighted>
4.7842

> <Gold.Chemscore.Rot.Weighted>
4.8309

> <Gold.Chemscore.Internal.Correction.Weighted>
   9.000000E+99

> <Gold.Protein.RotatedTorsions>
[ 6907 6896 6895 6894 ] final -118.97 input  -60.11 | X-H torsion
[ 7974 7965 7964 7962 ] final    2.70 input  175.53 | X-H torsion
[ 8008 7997 7996 7995 ] final   50.72 input   59.86 | X-H torsion
[ 10167 10162 10161 10158 ] final  138.45 input  -65.29 | X-H torsion
[ 10718 10713 10712 10709 ] final   35.69 input   66.30 | X-H torsion
[ 10763 10752 10751 10750 ] final   68.47 input  -60.55 | X-H torsion
[ 11005 11000 10999 10996 ] final -145.49 input  -57.11 | X-H torsion

> <Gold.Protein.ActiveResidues>
 VAL166  LYS551  ARG553  GLY616  TRP617  ASP618  TYR619  PRO620  LYS621  CYS622 
 ASP623  PHE694  ASN695  SER759  ASP760  ASP761  ALA762  ILE779  LEU786  VAL792 
 PHE793  MET794  SER795  GLU796  ALA797  LYS798  CYS799  TRP800  GLU811  SER814 

> <Gold.Protein.RotatedAtoms>
  150.8265  133.8163  159.3116 H   0  0  0  0  0  0  0  0  0  0  0  0  # atno 6907 bound_to 6896
  151.5906  135.1052  160.0047 H   0  0  0  0  0  0  0  0  0  0  0  0  # atno 6908 bound_to 6896
  152.4349  133.7302  159.6639 H   0  0  0  0  0  0  0  0  0  0  0  0  # atno 6909 bound_to 6896
  146.2444  140.0796  142.8358 H   0  0  0  0  0  0  0  0  0  0  0  0  # atno 7974 bound_to 7965
  155.4235  140.3447  155.4273 H   0  0  0  0  0  0  0  0  0  0  0  0  # atno 8008 bound_to 7997
  156.1379  140.1533  156.8997 H   0  0  0  0  0  0  0  0  0  0  0  0  # atno 8009 bound_to 7997
  154.4947  140.0831  156.7650 H   0  0  0  0  0  0  0  0  0  0  0  0  # atno 8010 bound_to 7997
  139.5110  144.6352  151.5714 H   0  0  0  0  0  0  0  0  0  0  0  0  # atno 10167 bound_to 10162
  157.3258  130.7472  149.6814 H   0  0  0  0  0  0  0  0  0  0  0  0  # atno 10718 bound_to 10713
  153.0237  135.5246  154.7139 H   0  0  0  0  0  0  0  0  0  0  0  0  # atno 10763 bound_to 10752
  154.6214  135.2889  155.0324 H   0  0  0  0  0  0  0  0  0  0  0  0  # atno 10764 bound_to 10752
  154.1309  135.6593  153.4974 H   0  0  0  0  0  0  0  0  0  0  0  0  # atno 10765 bound_to 10752
  140.7917  134.2961  157.5011 H   0  0  0  0  0  0  0  0  0  0  0  0  # atno 11005 bound_to 11000
  145.0744  140.9178  143.4862 LP  0  0  0  0  0  0  0  0  0  0  0  0  # atno 17320 bound_to 7965
  145.0937  139.2872  143.5722 LP  0  0  0  0  0  0  0  0  0  0  0  0  # atno 17321 bound_to 7965
  140.6099  143.9456  150.6445 LP  0  0  0  0  0  0  0  0  0  0  0  0  # atno 17342 bound_to 10162
  140.2695  143.3466  152.1251 LP  0  0  0  0  0  0  0  0  0  0  0  0  # atno 17343 bound_to 10162
  155.9690  130.4210  150.4448 LP  0  0  0  0  0  0  0  0  0  0  0  0  # atno 17370 bound_to 10713
  157.2471  131.0538  151.2402 LP  0  0  0  0  0  0  0  0  0  0  0  0  # atno 17371 bound_to 10713
  139.8730  134.9378  156.3697 LP  0  0  0  0  0  0  0  0  0  0  0  0  # atno 17394 bound_to 11000
  140.9383  133.7532  156.0113 LP  0  0  0  0  0  0  0  0  0  0  0  0  # atno 17395 bound_to 11000

$$$$
