AV-unprocessed.smi:3056|AV-procd|sdf|11660|dock9
  -GOLD-   2272017 63D 1   1.00000     0.00000
 Structure written by MMmdl.
 47 48  0  0  0  0  0  0  0  0  1 V2000
  150.3024  145.3550  159.9641 C   0  0  0  0  0  0  0  0  0  0  0  0
  151.4560  144.4168  159.7583 C   0  0  0  0  0  0  0  0  0  0  0  0
  152.5481  144.5621  158.8577 C   0  0  0  0  0  0  0  0  0  0  0  0
  153.4118  143.5637  158.9326 N   0  0  0  0  0  0  0  0  0  0  0  0
  152.8980  142.7350  159.8705 N   0  0  0  0  0  0  0  0  0  0  0  0
  153.6116  141.5281  160.2793 C   0  0  1  0  0  0  0  0  0  0  0  0
  153.9388  141.5229  161.7888 C   0  0  0  0  0  0  0  0  0  0  0  0
  152.8860  140.2537  159.7726 C   0  0  1  0  0  0  0  0  0  0  0  0
  152.4511  140.3569  158.2990 C   0  0  0  0  0  0  0  0  0  0  0  0
  153.7377  139.0767  159.9590 N   0  0  0  0  0  0  0  0  0  0  0  0
  153.0055  137.8082  160.1255 C   0  0  0  0  0  0  0  0  0  0  0  0
  153.8769  136.6024  160.5338 C   0  0  0  0  0  0  0  0  0  0  0  0
  154.0208  135.6725  159.7379 O   0  0  0  0  0  0  0  0  0  0  0  0
  154.4575  136.5930  161.7574 N   0  0  0  0  0  0  0  0  0  0  0  0
  154.1944  137.6094  162.7784 C   0  0  0  0  0  0  0  0  0  0  0  0
  153.4556  136.9271  163.9442 C   0  0  0  0  0  0  0  0  0  0  0  0
  154.2376  135.8441  164.4466 O   0  0  0  0  0  0  0  0  0  0  0  0
  154.5513  134.8592  163.4614 C   0  0  2  0  0  0  0  0  0  0  0  0
  155.3761  133.7551  164.1313 C   0  0  0  0  0  0  0  0  0  0  0  0
  155.3123  135.5366  162.3047 C   0  0  0  0  0  0  0  0  0  0  0  0
  151.7227  143.2360  160.3912 C   0  0  0  0  0  0  0  0  0  0  0  0
  149.9396  145.7603  159.0195 H   0  0  0  0  0  0  0  0  0  0  0  0
  150.5827  146.2012  160.5915 H   0  0  0  0  0  0  0  0  0  0  0  0
  149.4586  144.8616  160.4468 H   0  0  0  0  0  0  0  0  0  0  0  0
  152.7422  145.3641  158.1610 H   0  0  0  0  0  0  0  0  0  0  0  0
  154.5722  141.5692  159.7637 H   0  0  0  0  0  0  0  0  0  0  0  0
  154.6071  140.7026  162.0485 H   0  0  0  0  0  0  0  0  0  0  0  0
  153.0429  141.4259  162.4024 H   0  0  0  0  0  0  0  0  0  0  0  0
  154.4396  142.4466  162.0799 H   0  0  0  0  0  0  0  0  0  0  0  0
  151.9795  140.1553  160.3707 H   0  0  0  0  0  0  0  0  0  0  0  0
  151.8729  141.2649  158.1273 H   0  0  0  0  0  0  0  0  0  0  0  0
  151.8218  139.5171  158.0058 H   0  0  0  0  0  0  0  0  0  0  0  0
  153.3068  140.3754  157.6239 H   0  0  0  0  0  0  0  0  0  0  0  0
  154.3607  139.2373  160.7391 H   0  0  0  0  0  0  0  0  0  0  0  0
  152.2092  137.9593  160.8535 H   0  0  0  0  0  0  0  0  0  0  0  0
  152.5252  137.5661  159.1774 H   0  0  0  0  0  0  0  0  0  0  0  0
  155.1375  138.0347  163.1244 H   0  0  0  0  0  0  0  0  0  0  0  0
  153.6032  138.4468  162.4058 H   0  0  0  0  0  0  0  0  0  0  0  0
  153.2803  137.6398  164.7499 H   0  0  0  0  0  0  0  0  0  0  0  0
  152.4793  136.5611  163.6223 H   0  0  0  0  0  0  0  0  0  0  0  0
  153.6239  134.4227  163.0854 H   0  0  0  0  0  0  0  0  0  0  0  0
  155.6377  132.9736  163.4175 H   0  0  0  0  0  0  0  0  0  0  0  0
  154.8173  133.2893  164.9432 H   0  0  0  0  0  0  0  0  0  0  0  0
  156.3021  134.1518  164.5482 H   0  0  0  0  0  0  0  0  0  0  0  0
  155.6245  134.7990  161.5674 H   0  0  0  0  0  0  0  0  0  0  0  0
  156.2369  135.9819  162.6755 H   0  0  0  0  0  0  0  0  0  0  0  0
  151.1820  142.7187  161.1700 H   0  0  0  0  0  0  0  0  0  0  0  0
  1  2  1  0  0  0  0
  1 22  1  0  0  0  0
  1 23  1  0  0  0  0
  1 24  1  0  0  0  0
  2 21  2  0  0  0  0
  2  3  1  0  0  0  0
  3  4  2  0  0  0  0
  3 25  1  0  0  0  0
  4  5  1  0  0  0  0
  5  6  1  0  0  0  0
  5 21  1  0  0  0  0
  6  7  1  0  0  0  0
  6  8  1  0  0  0  0
  6 26  1  0  0  0  0
  7 27  1  0  0  0  0
  7 28  1  0  0  0  0
  7 29  1  0  0  0  0
  8  9  1  0  0  0  0
  8 10  1  0  0  0  0
  8 30  1  0  0  0  0
  9 31  1  0  0  0  0
  9 32  1  0  0  0  0
  9 33  1  0  0  0  0
 10 11  1  0  0  0  0
 10 34  1  0  0  0  0
 11 12  1  0  0  0  0
 11 35  1  0  0  0  0
 11 36  1  0  0  0  0
 12 13  2  0  0  0  0
 12 14  1  0  0  0  0
 14 20  1  0  0  0  0
 14 15  1  0  0  0  0
 15 16  1  0  0  0  0
 15 37  1  0  0  0  0
 15 38  1  0  0  0  0
 16 17  1  0  0  0  0
 16 39  1  0  0  0  0
 16 40  1  0  0  0  0
 17 18  1  0  0  0  0
 18 19  1  0  0  0  0
 18 20  1  0  0  0  0
 18 41  1  0  0  0  0
 19 42  1  0  0  0  0
 19 43  1  0  0  0  0
 19 44  1  0  0  0  0
 20 45  1  0  0  0  0
 20 46  1  0  0  0  0
 21 47  1  0  0  0  0
M  END
> <s_m_source_file>
AV-unprocessed.smi

> <i_m_source_file_index>
3056

> <i_lp_mmshare_version>
43012

> <i_f3d_flags>
0

> <s_epik_input>
W0NIM11jMVtjSF1ubihbY0hdMSlbQ0BIXShbQ0gzXSlbQ0BIXShbQ0gzXSlbTkhdW0NIMl1DKD1PKU4yW0NIMl1bQ0gyXU9bQ0BASF0oW0NIM10pW0NIMl0y

> <s_epik_cmdline>
J2VwaWtfcHl0aG9uJywgJy1waCcsICc3LjAnLCAnLXRuJywgJzgnLCAnLW1hJywgJzIwMCcsICctbWV0YWxfYmluZGluZycsICctaW1hZScsICc8aW5maWxlLm1hZT4nLCAnLW9tYWUnLCAnPG91dGZpbGUubWFlPic=

> <r_lp_tautomer_probability>
1

> <r_epik_Ionization_Penalty>
0.667689

> <r_epik_Ionization_Penalty_Charging>
0

> <r_epik_Ionization_Penalty_Neutral>
0.667689

> <r_epik_State_Penalty>
0.684601

> <r_epik_Charging_Adjusted_Penalty>
0.684601

> <i_epik_Tot_Q>
0

> <i_epik_Tot_abs_Q>
0

> <r_epik_Metal_State_Penalty>
0.681448

> <b_epik_Metal_Only>
0

> <s_lp_Force_Field>
OPLS_2005

> <r_lp_Energy>
31.287

> <b_lp_Chiralities_Consistent>
1

> <s_lp_Variant>
AV-unprocessed.smi:3056-16

> <Gold.Version>
5.8.1

> <Gold.Id.Protein>
6NUR|6NUR_protein|mol2

> <Gold.PLP.Fitness>
47.0209

> <Gold.PLP.PLP>
-44.9908

> <Gold.PLP.part.hbond>
-1.0000

> <Gold.PLP.part.metal>
0.0000

> <Gold.PLP.part.buried>
-3.7388

> <Gold.PLP.part.nonpolar>
-39.9046

> <Gold.PLP.part.repulsive>
0.0896

> <Gold.PLP.ligand.clash>
0.0000

> <Gold.PLP.ligand.torsion>
0.5887

> <Gold.PLP.Chemscore.Hbond>
1.0000

> <Gold.PLP.Chemscore.CHOScore>
0.0000

> <Gold.PLP.Chemscore.Metal>
0.0000

> <Gold.Chemscore.Hbonds>
donor molecule, donor type, donor heavy atom, donor atom, acceptor molecule, acceptor atom, score
      P1  H  6896  6908       L1    13  1.00

> <Gold.PLP.Chemscore.Internal.Correction>
0.2075

> <Gold.Rescore>
     Score         DG    S(hbond)    S(metal)    S(lipo)     H(rot)  DE(clash)    DE(int)     intcor
     17.59     -18.32       0.94        0.00     119.74       1.68       0.20       0.53       ----

> <Gold.Chemscore.Fitness>
17.5941

> <Gold.Chemscore.DG>
-18.3246

> <Gold.Chemscore.ZeroCoef>
-5.4800

> <Gold.Chemscore.Hbond>
0.9384

> <Gold.Chemscore.Metal>
0.0000

> <Gold.Chemscore.Lipo>
119.7383

> <Gold.Chemscore.Internal_Hbond>
0.0000

> <Gold.Chemscore.DEClash>
0.1997

> <Gold.Chemscore.DEInternal>
0.5308

> <Gold.Chemscore.Rot>
1.6793

> <Gold.Chemscore.Internal.Correction>
   9.000000E+99

> <Gold.Chemscore.Hbonds>
donor molecule, donor type, donor heavy atom, donor atom, acceptor molecule, acceptor atom, score
      P1  H  6896  6908       L1    13  0.50

> <Gold.Chemscore.Hbond.Weighted>
-3.1343

> <Gold.Chemscore.Metal.Weighted>
-0.0000

> <Gold.Chemscore.Lipo.Weighted>
-14.0094

> <Gold.Chemscore.Internal_Hbond.Weighted>
0.0000

> <Gold.Chemscore.DEClash.Weighted>
0.1997

> <Gold.Chemscore.DEInternal.Weighted>
0.5308

> <Gold.Chemscore.Rot.Weighted>
4.2990

> <Gold.Chemscore.Internal.Correction.Weighted>
   9.000000E+99

> <Gold.Protein.RotatedTorsions>
[ 6907 6896 6895 6894 ] final  -54.45 input  -60.11 | X-H torsion
[ 7974 7965 7964 7962 ] final  -78.57 input  175.53 | X-H torsion
[ 8008 7997 7996 7995 ] final   -3.30 input   59.86 | X-H torsion
[ 10167 10162 10161 10158 ] final  142.34 input  -65.29 | X-H torsion
[ 10718 10713 10712 10709 ] final  -10.91 input   66.30 | X-H torsion
[ 10763 10752 10751 10750 ] final  163.43 input  -60.55 | X-H torsion
[ 11005 11000 10999 10996 ] final  132.96 input  -57.11 | X-H torsion

> <Gold.Protein.ActiveResidues>
 VAL166  LYS551  ARG553  GLY616  TRP617  ASP618  TYR619  PRO620  LYS621  CYS622 
 ASP623  PHE694  ASN695  SER759  ASP760  ASP761  ALA762  ILE779  LEU786  VAL792 
 PHE793  MET794  SER795  GLU796  ALA797  LYS798  CYS799  TRP800  GLU811  SER814 

> <Gold.Protein.RotatedAtoms>
  150.8337  134.7601  159.6874 H   0  0  0  0  0  0  0  0  0  0  0  0  # atno 6907 bound_to 6896
  152.4437  134.5534  159.9883 H   0  0  0  0  0  0  0  0  0  0  0  0  # atno 6908 bound_to 6896
  151.5689  133.3355  159.3021 H   0  0  0  0  0  0  0  0  0  0  0  0  # atno 6909 bound_to 6896
  145.5848  140.9441  143.1324 H   0  0  0  0  0  0  0  0  0  0  0  0  # atno 7974 bound_to 7965
  154.6264  140.2512  155.7487 H   0  0  0  0  0  0  0  0  0  0  0  0  # atno 8008 bound_to 7997
  156.2455  140.2916  156.0515 H   0  0  0  0  0  0  0  0  0  0  0  0  # atno 8009 bound_to 7997
  155.1815  140.0389  157.2873 H   0  0  0  0  0  0  0  0  0  0  0  0  # atno 8010 bound_to 7997
  139.4997  144.6113  151.6264 H   0  0  0  0  0  0  0  0  0  0  0  0  # atno 10167 bound_to 10162
  156.6667  130.4997  149.6013 H   0  0  0  0  0  0  0  0  0  0  0  0  # atno 10718 bound_to 10713
  154.2935  135.2760  155.2644 H   0  0  0  0  0  0  0  0  0  0  0  0  # atno 10763 bound_to 10752
  154.5112  135.5782  153.6610 H   0  0  0  0  0  0  0  0  0  0  0  0  # atno 10764 bound_to 10752
  152.9911  135.6181  154.3101 H   0  0  0  0  0  0  0  0  0  0  0  0  # atno 10765 bound_to 10752
  139.9822  134.9544  156.9656 H   0  0  0  0  0  0  0  0  0  0  0  0  # atno 11005 bound_to 11000
  144.7378  139.7536  143.7322 LP  0  0  0  0  0  0  0  0  0  0  0  0  # atno 17320 bound_to 7965
  146.1690  139.4833  142.9940 LP  0  0  0  0  0  0  0  0  0  0  0  0  # atno 17321 bound_to 7965
  140.5789  143.9981  150.6257 LP  0  0  0  0  0  0  0  0  0  0  0  0  # atno 17342 bound_to 10162
  140.3123  143.3190  152.0866 LP  0  0  0  0  0  0  0  0  0  0  0  0  # atno 17343 bound_to 10162
  156.1969  130.6595  151.1125 LP  0  0  0  0  0  0  0  0  0  0  0  0  # atno 17370 bound_to 10713
  157.7091  131.0742  150.6564 LP  0  0  0  0  0  0  0  0  0  0  0  0  # atno 17371 bound_to 10713
  140.5074  134.1036  155.7263 LP  0  0  0  0  0  0  0  0  0  0  0  0  # atno 17394 bound_to 11000
  141.1492  133.8999  157.2139 LP  0  0  0  0  0  0  0  0  0  0  0  0  # atno 17395 bound_to 11000

$$$$
