AV-unprocessed.smi:176|AV-procd|sdf|1435|dock9
  -GOLD-   2262019223D 1   1.00000     0.00000
 Structure written by MMmdl.
 57 61  0  0  0  0  0  0  0  0  1 V2000
  145.0595  135.2903  150.2802 O   0  0  0  0  0  0  0  0  0  0  0  0
  143.9326  134.6026  149.7742 C   0  0  0  0  0  0  0  0  0  0  0  0
  144.1584  133.0828  149.6650 C   0  0  0  0  0  0  0  0  0  0  0  0
  143.3805  132.6523  148.4036 C   0  0  0  0  0  0  0  0  0  0  0  0
  143.7266  133.3894  147.2487 O   0  0  0  0  0  0  0  0  0  0  0  0
  145.6222  132.5949  149.7688 C   0  0  0  0  0  0  0  0  0  0  0  0
  145.1880  131.4696  150.7164 C   0  0  0  0  0  0  0  0  0  0  0  0
  146.0067  131.0677  151.8232 N   0  0  0  0  0  0  0  0  0  0  0  0
  146.1835  129.7886  152.3013 C   0  0  0  0  0  0  0  0  0  0  0  0
  146.9487  129.6883  153.3539 N   0  0  0  0  0  0  0  0  0  0  0  0
  147.3032  131.0009  153.6436 C   0  0  0  0  0  0  0  0  0  0  0  0
  148.0988  131.6142  154.6536 C   0  0  0  0  0  0  0  0  0  0  0  0
  148.7564  130.9030  155.6059 N   0  0  0  0  0  0  0  0  0  0  0  0
  148.3634  131.1108  156.9996 C   0  0  0  0  0  0  0  0  0  0  0  0
  148.9195  129.9932  157.8966 C   0  0  0  0  0  0  0  0  0  0  0  0
  150.4460  129.8130  157.7417 C   0  0  2  0  0  0  0  0  0  0  0  0
  150.7681  128.6124  158.4215 O   0  0  0  0  0  0  0  0  0  0  0  0
  151.2492  130.9570  158.4087 C   0  0  0  0  0  0  0  0  0  0  0  0
  152.7659  130.8210  158.1836 C   0  0  0  0  0  0  0  0  0  0  0  0
  153.1061  130.7059  156.6905 C   0  0  0  0  0  0  0  0  0  0  0  0
  152.3370  129.5500  156.0283 C   0  0  0  0  0  0  0  0  0  0  0  0
  150.8105  129.6550  156.2399 C   0  0  2  0  0  0  0  0  0  0  0  0
  150.1972  130.7881  155.3875 C   0  0  0  0  0  0  0  0  0  0  0  0
  148.1877  132.9717  154.6377 N   0  0  0  0  0  0  0  0  0  0  0  0
  147.5549  133.6805  153.6984 C   0  0  0  0  0  0  0  0  0  0  0  0
  146.7945  133.2426  152.6938 N   0  0  0  0  0  0  0  0  0  0  0  0
  146.6968  131.8825  152.7040 C   0  0  0  0  0  0  0  0  0  0  0  0
  143.8933  132.2581  150.9450 C   0  0  0  0  0  0  0  0  0  0  0  0
  145.7032  135.3611  149.5918 H   0  0  0  0  0  0  0  0  0  0  0  0
  143.0888  134.8219  150.4293 H   0  0  0  0  0  0  0  0  0  0  0  0
  143.6932  135.0304  148.8001 H   0  0  0  0  0  0  0  0  0  0  0  0
  143.5547  131.5980  148.1854 H   0  0  0  0  0  0  0  0  0  0  0  0
  142.3065  132.7652  148.5551 H   0  0  0  0  0  0  0  0  0  0  0  0
  143.0811  133.2209  146.5792 H   0  0  0  0  0  0  0  0  0  0  0  0
  146.0545  132.2446  148.8311 H   0  0  0  0  0  0  0  0  0  0  0  0
  146.2863  133.3121  150.2528 H   0  0  0  0  0  0  0  0  0  0  0  0
  144.9841  130.5565  150.1563 H   0  0  0  0  0  0  0  0  0  0  0  0
  145.7297  128.9235  151.8404 H   0  0  0  0  0  0  0  0  0  0  0  0
  148.7220  132.0834  157.3381 H   0  0  0  0  0  0  0  0  0  0  0  0
  147.2757  131.1256  157.0819 H   0  0  0  0  0  0  0  0  0  0  0  0
  148.6612  130.1896  158.9378 H   0  0  0  0  0  0  0  0  0  0  0  0
  148.4144  129.0634  157.6297 H   0  0  0  0  0  0  0  0  0  0  0  0
  150.1254  128.4694  159.0992 H   0  0  0  0  0  0  0  0  0  0  0  0
  150.9277  131.9198  158.0110 H   0  0  0  0  0  0  0  0  0  0  0  0
  151.0392  130.9916  159.4785 H   0  0  0  0  0  0  0  0  0  0  0  0
  153.2814  131.6794  158.6152 H   0  0  0  0  0  0  0  0  0  0  0  0
  153.1413  129.9438  158.7120 H   0  0  0  0  0  0  0  0  0  0  0  0
  152.8754  131.6454  156.1879 H   0  0  0  0  0  0  0  0  0  0  0  0
  154.1783  130.5521  156.5675 H   0  0  0  0  0  0  0  0  0  0  0  0
  152.5659  129.5139  154.9627 H   0  0  0  0  0  0  0  0  0  0  0  0
  152.6939  128.6059  156.4418 H   0  0  0  0  0  0  0  0  0  0  0  0
  150.3670  128.7250  155.8792 H   0  0  0  0  0  0  0  0  0  0  0  0
  150.4243  130.6059  154.3379 H   0  0  0  0  0  0  0  0  0  0  0  0
  150.6532  131.7468  155.6356 H   0  0  0  0  0  0  0  0  0  0  0  0
  147.6784  134.7517  153.7587 H   0  0  0  0  0  0  0  0  0  0  0  0
  143.9293  132.8487  151.8613 H   0  0  0  0  0  0  0  0  0  0  0  0
  142.9896  131.6485  150.9174 H   0  0  0  0  0  0  0  0  0  0  0  0
  1  2  1  0  0  0  0
  1 29  1  0  0  0  0
  2  3  1  0  0  0  0
  2 30  1  0  0  0  0
  2 31  1  0  0  0  0
  3 28  1  0  0  0  0
  3  4  1  0  0  0  0
  3  6  1  0  0  0  0
  4  5  1  0  0  0  0
  4 32  1  0  0  0  0
  4 33  1  0  0  0  0
  5 34  1  0  0  0  0
  6  7  1  0  0  0  0
  6 35  1  0  0  0  0
  6 36  1  0  0  0  0
  7  8  1  0  0  0  0
  7 28  1  0  0  0  0
  7 37  1  0  0  0  0
  8 27  1  0  0  0  0
  8  9  1  0  0  0  0
  9 10  2  0  0  0  0
  9 38  1  0  0  0  0
 10 11  1  0  0  0  0
 11 27  2  0  0  0  0
 11 12  1  0  0  0  0
 12 13  1  0  0  0  0
 12 24  2  0  0  0  0
 13 23  1  0  0  0  0
 13 14  1  0  0  0  0
 14 15  1  0  0  0  0
 14 39  1  0  0  0  0
 14 40  1  0  0  0  0
 15 16  1  0  0  0  0
 15 41  1  0  0  0  0
 15 42  1  0  0  0  0
 16 22  1  0  0  0  0
 16 17  1  0  0  0  0
 16 18  1  0  0  0  0
 17 43  1  0  0  0  0
 18 19  1  0  0  0  0
 18 44  1  0  0  0  0
 18 45  1  0  0  0  0
 19 20  1  0  0  0  0
 19 46  1  0  0  0  0
 19 47  1  0  0  0  0
 20 21  1  0  0  0  0
 20 48  1  0  0  0  0
 20 49  1  0  0  0  0
 21 22  1  0  0  0  0
 21 50  1  0  0  0  0
 21 51  1  0  0  0  0
 22 23  1  0  0  0  0
 22 52  1  0  0  0  0
 23 53  1  0  0  0  0
 23 54  1  0  0  0  0
 24 25  1  0  0  0  0
 25 26  2  0  0  0  0
 25 55  1  0  0  0  0
 26 27  1  0  0  0  0
 28 56  1  0  0  0  0
 28 57  1  0  0  0  0
M  END
> <s_m_source_file>
AV-unprocessed.smi

> <i_m_source_file_index>
176

> <i_lp_mmshare_version>
43012

> <i_f3d_flags>
0

> <s_epik_input>
W09IXVtDSDJdQzEoW0NIMl1bT0hdKVtDSDJdW0NIXShbQ0gyXTEpbihbY0hdbjIpYyhjMjMpbltjSF1uYzNOKFtDSDJdW0NIMl00KVtDSDJdW0NAQEhdKFtDQF00NVtPSF0pW0NIMl1bQ0gyXVtDSDJdW0NIMl01

> <s_epik_cmdline>
J2VwaWtfcHl0aG9uJywgJy1waCcsICc3LjAnLCAnLXRuJywgJzgnLCAnLW1hJywgJzIwMCcsICctbWV0YWxfYmluZGluZycsICctaW1hZScsICc8aW5maWxlLm1hZT4nLCAnLW9tYWUnLCAnPG91dGZpbGUubWFlPic=

> <r_lp_tautomer_probability>
1

> <r_epik_Ionization_Penalty>
0.00642876

> <r_epik_Ionization_Penalty_Charging>
0

> <r_epik_Ionization_Penalty_Neutral>
0.00642876

> <r_epik_State_Penalty>
0.00467813

> <r_epik_Charging_Adjusted_Penalty>
0.00467813

> <i_epik_Tot_Q>
0

> <i_epik_Tot_abs_Q>
0

> <r_epik_Metal_State_Penalty>
-0

> <b_epik_Metal_Only>
0

> <s_lp_Force_Field>
OPLS_2005

> <r_lp_Energy>
56.0126

> <b_lp_Chiralities_Consistent>
1

> <s_lp_Variant>
AV-unprocessed.smi:176-3

> <Gold.Version>
5.8.1

> <Gold.Id.Protein>
6NUR|6NUR_protein|mol2

> <Gold.PLP.Fitness>
50.5234

> <Gold.PLP.PLP>
-40.7266

> <Gold.PLP.part.hbond>
-4.4319

> <Gold.PLP.part.metal>
0.0000

> <Gold.PLP.part.buried>
0.5741

> <Gold.PLP.part.nonpolar>
-37.4347

> <Gold.PLP.part.repulsive>
0.3386

> <Gold.PLP.ligand.clash>
0.0000

> <Gold.PLP.ligand.torsion>
1.3401

> <Gold.PLP.Chemscore.Hbond>
2.9113

> <Gold.PLP.Chemscore.CHOScore>
1.0000

> <Gold.PLP.Chemscore.Metal>
0.0000

> <Gold.Chemscore.Hbonds>
donor molecule, donor type, donor heavy atom, donor atom, acceptor molecule, acceptor atom, score
      L1  H     1    29       P1  7921  0.82
      L1  H     5    34       P1 10195  1.00
      P1  H  7918  7932       L1     5  0.63
      L1  C    25    55       P1  7948  0.49

> <Gold.PLP.Chemscore.Internal.Correction>
0.7431

> <Gold.Rescore>
     Score         DG    S(hbond)    S(metal)    S(lipo)     H(rot)  DE(clash)    DE(int)     intcor
     11.97     -15.11       2.12        0.00     103.01       3.71       1.49       1.65       ----

> <Gold.Chemscore.Fitness>
11.9724

> <Gold.Chemscore.DG>
-15.1121

> <Gold.Chemscore.ZeroCoef>
-5.4800

> <Gold.Chemscore.Hbond>
2.1196

> <Gold.Chemscore.Metal>
0.0000

> <Gold.Chemscore.Lipo>
103.0134

> <Gold.Chemscore.Internal_Hbond>
0.0000

> <Gold.Chemscore.DEClash>
1.4852

> <Gold.Chemscore.DEInternal>
1.6545

> <Gold.Chemscore.Rot>
3.7109

> <Gold.Chemscore.Internal.Correction>
   9.000000E+99

> <Gold.Chemscore.Hbonds>
donor molecule, donor type, donor heavy atom, donor atom, acceptor molecule, acceptor atom, score
      L1  H     1    29       P1  7921  0.76
      L1  H     5    34       P1 10195  1.00
      P1  H  7918  7932       L1     5  0.06

> <Gold.Chemscore.Hbond.Weighted>
-7.0795

> <Gold.Chemscore.Metal.Weighted>
-0.0000

> <Gold.Chemscore.Lipo.Weighted>
-12.0526

> <Gold.Chemscore.Internal_Hbond.Weighted>
0.0000

> <Gold.Chemscore.DEClash.Weighted>
1.4852

> <Gold.Chemscore.DEInternal.Weighted>
1.6545

> <Gold.Chemscore.Rot.Weighted>
9.5000

> <Gold.Chemscore.Internal.Correction.Weighted>
   9.000000E+99

> <Gold.Protein.RotatedTorsions>
[ 6907 6896 6895 6894 ] final  127.82 input  -60.11 | X-H torsion
[ 7974 7965 7964 7962 ] final  -30.31 input  175.53 | X-H torsion
[ 8008 7997 7996 7995 ] final -109.42 input   59.86 | X-H torsion
[ 10167 10162 10161 10158 ] final  130.04 input  -65.29 | X-H torsion
[ 10718 10713 10712 10709 ] final   23.79 input   66.30 | X-H torsion
[ 10763 10752 10751 10750 ] final   76.74 input  -60.55 | X-H torsion
[ 11005 11000 10999 10996 ] final -135.20 input  -57.11 | X-H torsion

> <Gold.Protein.ActiveResidues>
 VAL166  LYS551  ARG553  GLY616  TRP617  ASP618  TYR619  PRO620  LYS621  CYS622 
 ASP623  PHE694  ASN695  SER759  ASP760  ASP761  ALA762  ILE779  LEU786  VAL792 
 PHE793  MET794  SER795  GLU796  ALA797  LYS798  CYS799  TRP800  GLU811  SER814 

> <Gold.Protein.RotatedAtoms>
  152.3777  133.6503  159.6136 H   0  0  0  0  0  0  0  0  0  0  0  0  # atno 6907 bound_to 6896
  150.7717  133.9166  159.3394 H   0  0  0  0  0  0  0  0  0  0  0  0  # atno 6908 bound_to 6896
  151.6977  135.0937  160.0296 H   0  0  0  0  0  0  0  0  0  0  0  0  # atno 6909 bound_to 6896
  146.1152  140.5524  142.8760 H   0  0  0  0  0  0  0  0  0  0  0  0  # atno 7974 bound_to 7965
  154.9590  140.0399  157.2181 H   0  0  0  0  0  0  0  0  0  0  0  0  # atno 8008 bound_to 7997
  154.7907  140.2835  155.5972 H   0  0  0  0  0  0  0  0  0  0  0  0  # atno 8009 bound_to 7997
  156.2949  140.2574  156.2753 H   0  0  0  0  0  0  0  0  0  0  0  0  # atno 8010 bound_to 7997
  139.5448  144.6764  151.4506 H   0  0  0  0  0  0  0  0  0  0  0  0  # atno 10167 bound_to 10162
  157.1709  130.6759  149.6077 H   0  0  0  0  0  0  0  0  0  0  0  0  # atno 10718 bound_to 10713
  153.0747  135.4940  154.8379 H   0  0  0  0  0  0  0  0  0  0  0  0  # atno 10763 bound_to 10752
  154.7071  135.3012  154.9256 H   0  0  0  0  0  0  0  0  0  0  0  0  # atno 10764 bound_to 10752
  153.9962  135.6772  153.4809 H   0  0  0  0  0  0  0  0  0  0  0  0  # atno 10765 bound_to 10752
  140.8920  134.1800  157.4521 H   0  0  0  0  0  0  0  0  0  0  0  0  # atno 11005 bound_to 11000
  144.7547  140.5277  143.6777 LP  0  0  0  0  0  0  0  0  0  0  0  0  # atno 17320 bound_to 7965
  145.5581  139.1478  143.3356 LP  0  0  0  0  0  0  0  0  0  0  0  0  # atno 17321 bound_to 7965
  140.6693  143.8329  150.6979 LP  0  0  0  0  0  0  0  0  0  0  0  0  # atno 17342 bound_to 10162
  140.1748  143.4164  152.1975 LP  0  0  0  0  0  0  0  0  0  0  0  0  # atno 17343 bound_to 10162
  155.9738  130.4679  150.6342 LP  0  0  0  0  0  0  0  0  0  0  0  0  # atno 17370 bound_to 10713
  157.4044  131.0814  151.1279 LP  0  0  0  0  0  0  0  0  0  0  0  0  # atno 17371 bound_to 10713
  139.8731  134.9862  156.5315 LP  0  0  0  0  0  0  0  0  0  0  0  0  # atno 17394 bound_to 11000
  140.8335  133.8260  155.9007 LP  0  0  0  0  0  0  0  0  0  0  0  0  # atno 17395 bound_to 11000

$$$$
