AV-unprocessed.smi:1824|AV-procd|sdf|7400|dock9
  -GOLD-   22720 9 73D 1   1.00000     0.00000
 Structure written by MMmdl.
 45 47  0  0  0  0  0  0  0  0  2 V2000
  144.0853  132.9192  150.4315 C   0  0  0  0  0  0  0  0  0  0  0  0
  144.1732  134.0994  151.4053 C   0  0  1  0  0  0  0  0  0  0  0  0
  144.3563  135.4432  150.6718 C   0  0  0  0  0  0  0  0  0  0  0  0
  144.3550  136.5807  151.6233 N   0  3  2  0  0  0  0  0  0  0  0  0
  145.6378  136.7476  152.3589 C   0  0  0  0  0  0  0  0  0  0  0  0
  146.2746  138.1323  152.1279 C   0  0  2  0  0  0  0  0  0  0  0  0
  146.4464  138.3256  150.7367 O   0  0  0  0  0  0  0  0  0  0  0  0
  147.6396  138.2575  152.8321 C   0  0  0  0  0  0  0  0  0  0  0  0
  147.8479  139.5751  153.4069 N   0  0  0  0  0  0  0  0  0  0  0  0
  147.0175  140.6324  153.3253 C   0  0  0  0  0  0  0  0  0  0  0  0
  147.4018  141.7565  153.9221 N   0  0  0  0  0  0  0  0  0  0  0  0
  148.6228  141.3857  154.4586 C   0  0  0  0  0  0  0  0  0  0  0  0
  149.5525  142.1277  155.2213 C   0  0  0  0  0  0  0  0  0  0  0  0
  150.7508  141.5314  155.6659 C   0  0  0  0  0  0  0  0  0  0  0  0
  151.6304  142.2570  156.3966 F   0  0  0  0  0  0  0  0  0  0  0  0
  151.0377  140.1858  155.3532 C   0  0  0  0  0  0  0  0  0  0  0  0
  152.1913  139.6213  155.7821 F   0  0  0  0  0  0  0  0  0  0  0  0
  150.1264  139.4262  154.5945 C   0  0  0  0  0  0  0  0  0  0  0  0
  148.9314  140.0252  154.1546 C   0  0  0  0  0  0  0  0  0  0  0  0
  143.1430  136.5377  152.4809 C   0  0  0  0  0  0  0  0  0  0  0  0
  142.9669  135.1584  153.1530 C   0  0  1  0  0  0  0  0  0  0  0  0
  141.6502  135.0621  153.9308 C   0  0  0  0  0  0  0  0  0  0  0  0
  142.9628  134.1452  152.1531 O   0  0  0  0  0  0  0  0  0  0  0  0
  144.9929  132.8353  149.8330 H   0  0  0  0  0  0  0  0  0  0  0  0
  143.2431  133.0321  149.7481 H   0  0  0  0  0  0  0  0  0  0  0  0
  143.9540  131.9795  150.9684 H   0  0  0  0  0  0  0  0  0  0  0  0
  145.0106  133.9249  152.0833 H   0  0  0  0  0  0  0  0  0  0  0  0
  145.2702  135.4436  150.0764 H   0  0  0  0  0  0  0  0  0  0  0  0
  143.5352  135.5884  149.9684 H   0  0  0  0  0  0  0  0  0  0  0  0
  145.4829  136.5761  153.4240 H   0  0  0  0  0  0  0  0  0  0  0  0
  146.3485  135.9858  152.0345 H   0  0  0  0  0  0  0  0  0  0  0  0
  145.6198  138.9188  152.5020 H   0  0  0  0  0  0  0  0  0  0  0  0
  145.6653  138.7309  150.3900 H   0  0  0  0  0  0  0  0  0  0  0  0
  147.7172  137.5218  153.6341 H   0  0  0  0  0  0  0  0  0  0  0  0
  148.4531  138.0450  152.1370 H   0  0  0  0  0  0  0  0  0  0  0  0
  146.0781  140.5741  152.7948 H   0  0  0  0  0  0  0  0  0  0  0  0
  149.3440  143.1589  155.4655 H   0  0  0  0  0  0  0  0  0  0  0  0
  150.3455  138.3966  154.3541 H   0  0  0  0  0  0  0  0  0  0  0  0
  143.1625  137.3298  153.2282 H   0  0  0  0  0  0  0  0  0  0  0  0
  142.2787  136.7420  151.8472 H   0  0  0  0  0  0  0  0  0  0  0  0
  143.7848  134.9686  153.8491 H   0  0  0  0  0  0  0  0  0  0  0  0
  141.6029  135.8141  154.7187 H   0  0  0  0  0  0  0  0  0  0  0  0
  141.5459  134.0835  154.3999 H   0  0  0  0  0  0  0  0  0  0  0  0
  140.7917  135.2096  153.2746 H   0  0  0  0  0  0  0  0  0  0  0  0
  144.2780  137.4120  151.0539 H   0  0  0  0  0  0  0  0  0  0  0  0
  1  2  1  0  0  0  0
  1 24  1  0  0  0  0
  1 25  1  0  0  0  0
  1 26  1  0  0  0  0
  2 23  1  0  0  0  0
  2  3  1  0  0  0  0
  2 27  1  0  0  0  0
  3  4  1  0  0  0  0
  3 28  1  0  0  0  0
  3 29  1  0  0  0  0
  4  5  1  0  0  0  0
  4 20  1  0  0  0  0
  4 45  1  0  0  0  0
  5  6  1  0  0  0  0
  5 30  1  0  0  0  0
  5 31  1  0  0  0  0
  6  7  1  0  0  0  0
  6  8  1  0  0  0  0
  6 32  1  0  0  0  0
  7 33  1  0  0  0  0
  8  9  1  0  0  0  0
  8 34  1  0  0  0  0
  8 35  1  0  0  0  0
  9 19  1  0  0  0  0
  9 10  1  0  0  0  0
 10 11  2  0  0  0  0
 10 36  1  0  0  0  0
 11 12  1  0  0  0  0
 12 19  2  0  0  0  0
 12 13  1  0  0  0  0
 13 14  2  0  0  0  0
 13 37  1  0  0  0  0
 14 15  1  0  0  0  0
 14 16  1  0  0  0  0
 16 17  1  0  0  0  0
 16 18  2  0  0  0  0
 18 19  1  0  0  0  0
 18 38  1  0  0  0  0
 20 21  1  0  0  0  0
 20 39  1  0  0  0  0
 20 40  1  0  0  0  0
 21 22  1  0  0  0  0
 21 23  1  0  0  0  0
 21 41  1  0  0  0  0
 22 42  1  0  0  0  0
 22 43  1  0  0  0  0
 22 44  1  0  0  0  0
M  CHG  1   4   1
M  END
> <s_m_source_file>
AV-unprocessed.smi

> <i_m_source_file_index>
1824

> <i_lp_mmshare_version>
43012

> <i_f3d_flags>
0

> <s_epik_input>
W0NIM11bQ0BASF0xW0NIMl1OKFtDSDJdW0NASF0oTzEpW0NIM10pW0NIMl1bQ0BIXShbT0hdKVtDSDJdbihbY0hdbjIpYyhjMjMpW2NIXWMoRiljKEYpW2NIXTM=

> <s_epik_cmdline>
J2VwaWtfcHl0aG9uJywgJy1waCcsICc3LjAnLCAnLXRuJywgJzgnLCAnLW1hJywgJzIwMCcsICctbWV0YWxfYmluZGluZycsICctaW1hZScsICc8aW5maWxlLm1hZT4nLCAnLW9tYWUnLCAnPG91dGZpbGUubWFlPic=

> <r_epik_Ionization_Penalty>
0.61967

> <r_epik_Ionization_Penalty_Charging>
0.608065

> <r_epik_Ionization_Penalty_Neutral>
0.0116057

> <r_epik_State_Penalty>
0.664205

> <r_epik_Charging_Adjusted_Penalty>
1.27227

> <i_epik_Tot_Q>
1

> <i_epik_Tot_abs_Q>
1

> <r_epik_Metal_State_Penalty>
0.654947

> <b_epik_Metal_Only>
0

> <s_lp_Force_Field>
OPLS_2005

> <r_lp_Energy>
21.7037

> <b_lp_Chiralities_Consistent>
1

> <s_lp_Variant>
AV-unprocessed.smi:1824-8

> <Gold.Version>
5.8.1

> <Gold.Id.Protein>
6NUR|6NUR_protein|mol2

> <Gold.PLP.Fitness>
51.3510

> <Gold.PLP.PLP>
-42.0200

> <Gold.PLP.part.hbond>
-3.0000

> <Gold.PLP.part.metal>
0.0000

> <Gold.PLP.part.buried>
3.8911

> <Gold.PLP.part.nonpolar>
-43.9239

> <Gold.PLP.part.repulsive>
0.4153

> <Gold.PLP.ligand.clash>
0.0000

> <Gold.PLP.ligand.torsion>
1.2683

> <Gold.PLP.Chemscore.Hbond>
2.9440

> <Gold.PLP.Chemscore.CHOScore>
1.0000

> <Gold.PLP.Chemscore.Metal>
0.0000

> <Gold.Chemscore.Hbonds>
donor molecule, donor type, donor heavy atom, donor atom, acceptor molecule, acceptor atom, score
      L1  H     4    45       P1 10171  1.00
      L1  H     7    33       P1 10171  1.00
      P1  H  7954  7966       L1     7  0.96
      L1  C    10    36       P1 10175  1.00

> <Gold.PLP.Chemscore.Internal.Correction>
0.0357

> <Gold.Rescore>
     Score         DG    S(hbond)    S(metal)    S(lipo)     H(rot)  DE(clash)    DE(int)     intcor
     16.05     -19.25       2.81        0.00      88.35       2.33       1.67       1.53       ----

> <Gold.Chemscore.Fitness>
16.0503

> <Gold.Chemscore.DG>
-19.2469

> <Gold.Chemscore.ZeroCoef>
-5.4800

> <Gold.Chemscore.Hbond>
2.8090

> <Gold.Chemscore.Metal>
0.0000

> <Gold.Chemscore.Lipo>
88.3532

> <Gold.Chemscore.Internal_Hbond>
0.0000

> <Gold.Chemscore.DEClash>
1.6660

> <Gold.Chemscore.DEInternal>
1.5306

> <Gold.Chemscore.Rot>
2.3251

> <Gold.Chemscore.Internal.Correction>
   9.000000E+99

> <Gold.Chemscore.Hbonds>
donor molecule, donor type, donor heavy atom, donor atom, acceptor molecule, acceptor atom, score
      L1  H     4    45       P1 10171  1.00
      L1  H     7    33       P1 10171  0.95
      P1  H  7954  7966       L1     7  0.89

> <Gold.Chemscore.Hbond.Weighted>
-9.3819

> <Gold.Chemscore.Metal.Weighted>
-0.0000

> <Gold.Chemscore.Lipo.Weighted>
-10.3373

> <Gold.Chemscore.Internal_Hbond.Weighted>
0.0000

> <Gold.Chemscore.DEClash.Weighted>
1.6660

> <Gold.Chemscore.DEInternal.Weighted>
1.5306

> <Gold.Chemscore.Rot.Weighted>
5.9523

> <Gold.Chemscore.Internal.Correction.Weighted>
   9.000000E+99

> <Gold.Protein.RotatedTorsions>
[ 6907 6896 6895 6894 ] final   59.58 input  -60.11 | X-H torsion
[ 7974 7965 7964 7962 ] final  159.26 input  175.53 | X-H torsion
[ 8008 7997 7996 7995 ] final  177.68 input   59.86 | X-H torsion
[ 10167 10162 10161 10158 ] final  -44.53 input  -65.29 | X-H torsion
[ 10718 10713 10712 10709 ] final   40.58 input   66.30 | X-H torsion
[ 10763 10752 10751 10750 ] final  -59.16 input  -60.55 | X-H torsion
[ 11005 11000 10999 10996 ] final  -77.35 input  -57.11 | X-H torsion

> <Gold.Protein.ActiveResidues>
 VAL166  LYS551  ARG553  GLY616  TRP617  ASP618  TYR619  PRO620  LYS621  CYS622 
 ASP623  PHE694  ASN695  SER759  ASP760  ASP761  ALA762  ILE779  LEU786  VAL792 
 PHE793  MET794  SER795  GLU796  ALA797  LYS798  CYS799  TRP800  GLU811  SER814 

> <Gold.Protein.RotatedAtoms>
  152.3927  134.6415  160.0100 H   0  0  0  0  0  0  0  0  0  0  0  0  # atno 6907 bound_to 6896
  151.6643  133.3310  159.3189 H   0  0  0  0  0  0  0  0  0  0  0  0  # atno 6908 bound_to 6896
  150.7840  134.6853  159.6511 H   0  0  0  0  0  0  0  0  0  0  0  0  # atno 6909 bound_to 6896
  144.7800  139.7593  143.6263 H   0  0  0  0  0  0  0  0  0  0  0  0  # atno 7974 bound_to 7965
  156.0630  140.1352  156.9919 H   0  0  0  0  0  0  0  0  0  0  0  0  # atno 8008 bound_to 7997
  154.4491  140.0987  156.6616 H   0  0  0  0  0  0  0  0  0  0  0  0  # atno 8009 bound_to 7997
  155.5348  140.3459  155.4436 H   0  0  0  0  0  0  0  0  0  0  0  0  # atno 8010 bound_to 7997
  140.6893  143.2925  151.3509 H   0  0  0  0  0  0  0  0  0  0  0  0  # atno 10167 bound_to 10162
  157.3837  130.7768  149.7214 H   0  0  0  0  0  0  0  0  0  0  0  0  # atno 10718 bound_to 10713
  154.2495  135.6328  153.5235 H   0  0  0  0  0  0  0  0  0  0  0  0  # atno 10763 bound_to 10752
  152.9915  135.5561  154.5823 H   0  0  0  0  0  0  0  0  0  0  0  0  # atno 10764 bound_to 10752
  154.5347  135.2890  155.1123 H   0  0  0  0  0  0  0  0  0  0  0  0  # atno 10765 bound_to 10752
  141.1660  133.7019  156.7807 H   0  0  0  0  0  0  0  0  0  0  0  0  # atno 11005 bound_to 11000
  146.2002  139.5292  142.9748 LP  0  0  0  0  0  0  0  0  0  0  0  0  # atno 17320 bound_to 7965
  145.6078  141.0345  143.1983 LP  0  0  0  0  0  0  0  0  0  0  0  0  # atno 17321 bound_to 7965
  139.6280  144.0775  152.2452 LP  0  0  0  0  0  0  0  0  0  0  0  0  # atno 17342 bound_to 10162
  140.0241  144.6131  150.7542 LP  0  0  0  0  0  0  0  0  0  0  0  0  # atno 17343 bound_to 10162
  155.9782  130.4054  150.3665 LP  0  0  0  0  0  0  0  0  0  0  0  0  # atno 17370 bound_to 10713
  157.1773  131.0383  151.2766 LP  0  0  0  0  0  0  0  0  0  0  0  0  # atno 17371 bound_to 10713
  140.2397  134.8623  157.3560 LP  0  0  0  0  0  0  0  0  0  0  0  0  # atno 17394 bound_to 11000
  140.1808  134.4491  155.7773 LP  0  0  0  0  0  0  0  0  0  0  0  0  # atno 17395 bound_to 11000

$$$$
