AV-unprocessed.smi:1761|AV-procd|sdf|7095|dock6
  -GOLD-   22720 8313D 1   1.00000     0.00000
 Structure written by MMmdl.
 34 35  0  0  0  0  0  0  0  0  1 V2000
  151.0396  141.0815  156.4630 O   0  0  0  0  0  0  0  0  0  0  0  0
  150.1683  141.9505  156.5072 C   0  0  0  0  0  0  0  0  0  0  0  0
  149.0370  141.9543  155.7806 N   0  0  0  0  0  0  0  0  0  0  0  0
  148.5891  140.9818  154.8471 C   0  0  0  0  0  0  0  0  0  0  0  0
  147.5630  141.4164  153.9777 C   0  0  0  0  0  0  0  0  0  0  0  0
  147.0466  140.5266  153.0160 C   0  0  0  0  0  0  0  0  0  0  0  0
  147.5695  139.2230  152.9491 C   0  0  0  0  0  0  0  0  0  0  0  0
  148.5899  138.8704  153.8515 C   0  0  0  0  0  0  0  0  0  0  0  0
  149.0865  139.7217  154.7737 N   0  0  0  0  0  0  0  0  0  0  0  0
  150.2371  143.0311  157.2984 N   0  0  0  0  0  0  0  0  0  0  0  0
  151.3350  143.3482  158.2097 C   0  0  2  0  0  0  0  0  0  0  0  0
  151.7291  142.0512  158.9465 C   0  0  0  0  0  0  0  0  0  0  0  0
  152.7783  142.3003  160.0394 C   0  0  0  0  0  0  0  0  0  0  0  0
  152.2877  143.3555  161.0394 C   0  0  0  0  0  0  0  0  0  0  0  0
  151.9411  144.6652  160.3186 C   0  0  0  0  0  0  0  0  0  0  0  0
  150.8955  144.4470  159.2078 C   0  0  1  0  0  0  0  0  0  0  0  0
  150.7358  145.6774  158.5302 O   0  0  0  0  0  0  0  0  0  0  0  0
  148.4220  142.7434  155.9135 H   0  0  0  0  0  0  0  0  0  0  0  0
  147.1724  142.4217  154.0433 H   0  0  0  0  0  0  0  0  0  0  0  0
  146.2630  140.8404  152.3422 H   0  0  0  0  0  0  0  0  0  0  0  0
  147.1987  138.5121  152.2257 H   0  0  0  0  0  0  0  0  0  0  0  0
  149.0187  137.8795  153.8333 H   0  0  0  0  0  0  0  0  0  0  0  0
  149.4758  143.6928  157.2631 H   0  0  0  0  0  0  0  0  0  0  0  0
  152.2108  143.6964  157.6582 H   0  0  0  0  0  0  0  0  0  0  0  0
  150.8450  141.6022  159.4020 H   0  0  0  0  0  0  0  0  0  0  0  0
  152.1104  141.3196  158.2332 H   0  0  0  0  0  0  0  0  0  0  0  0
  153.0004  141.3688  160.5606 H   0  0  0  0  0  0  0  0  0  0  0  0
  153.7125  142.6302  159.5829 H   0  0  0  0  0  0  0  0  0  0  0  0
  151.4099  142.9829  161.5687 H   0  0  0  0  0  0  0  0  0  0  0  0
  153.0527  143.5375  161.7948 H   0  0  0  0  0  0  0  0  0  0  0  0
  151.5730  145.3955  161.0401 H   0  0  0  0  0  0  0  0  0  0  0  0
  152.8525  145.0866  159.8914 H   0  0  0  0  0  0  0  0  0  0  0  0
  149.9419  144.1749  159.6633 H   0  0  0  0  0  0  0  0  0  0  0  0
  149.8764  145.6951  158.1372 H   0  0  0  0  0  0  0  0  0  0  0  0
  1  2  2  0  0  0  0
  2  3  1  0  0  0  0
  2 10  1  0  0  0  0
  3  4  1  0  0  0  0
  3 18  1  0  0  0  0
  4  9  1  0  0  0  0
  4  5  2  0  0  0  0
  5  6  1  0  0  0  0
  5 19  1  0  0  0  0
  6  7  2  0  0  0  0
  6 20  1  0  0  0  0
  7  8  1  0  0  0  0
  7 21  1  0  0  0  0
  8  9  2  0  0  0  0
  8 22  1  0  0  0  0
 10 11  1  0  0  0  0
 10 23  1  0  0  0  0
 11 16  1  0  0  0  0
 11 12  1  0  0  0  0
 11 24  1  0  0  0  0
 12 13  1  0  0  0  0
 12 25  1  0  0  0  0
 12 26  1  0  0  0  0
 13 14  1  0  0  0  0
 13 27  1  0  0  0  0
 13 28  1  0  0  0  0
 14 15  1  0  0  0  0
 14 29  1  0  0  0  0
 14 30  1  0  0  0  0
 15 16  1  0  0  0  0
 15 31  1  0  0  0  0
 15 32  1  0  0  0  0
 16 17  1  0  0  0  0
 16 33  1  0  0  0  0
 17 34  1  0  0  0  0
M  END
> <s_m_source_file>
AV-unprocessed.smi

> <i_m_source_file_index>
1761

> <i_lp_mmshare_version>
43012

> <i_f3d_flags>
0

> <s_epik_input>
bjFbY0hdW2NIXVtjSF1bY0hdYzFbTkhdQyg9TylbTkhdW0NAQEhdMltDSDJdW0NIMl1bQ0gyXVtDSDJdW0NASF0yW09IXQ==

> <s_epik_cmdline>
J2VwaWtfcHl0aG9uJywgJy1waCcsICc3LjAnLCAnLXRuJywgJzgnLCAnLW1hJywgJzIwMCcsICctbWV0YWxfYmluZGluZycsICctaW1hZScsICc8aW5maWxlLm1hZT4nLCAnLW9tYWUnLCAnPG91dGZpbGUubWFlPic=

> <r_lp_tautomer_probability>
1

> <r_epik_Ionization_Penalty>
4.92589e-05

> <r_epik_Ionization_Penalty_Charging>
0

> <r_epik_Ionization_Penalty_Neutral>
4.92589e-05

> <r_epik_State_Penalty>
-0

> <r_epik_Charging_Adjusted_Penalty>
0

> <i_epik_Tot_Q>
0

> <i_epik_Tot_abs_Q>
0

> <r_epik_Metal_State_Penalty>
-0

> <b_epik_Metal_Only>
0

> <s_lp_Force_Field>
OPLS_2005

> <r_lp_Energy>
12.6575

> <b_lp_Chiralities_Consistent>
1

> <s_lp_Variant>
AV-unprocessed.smi:1761-1

> <Gold.Version>
5.8.1

> <Gold.Id.Protein>
6NUR|6NUR_protein|mol2

> <Gold.PLP.Fitness>
41.4051

> <Gold.PLP.PLP>
-33.7585

> <Gold.PLP.part.hbond>
-4.0371

> <Gold.PLP.part.metal>
0.0000

> <Gold.PLP.part.buried>
3.2963

> <Gold.PLP.part.nonpolar>
-32.2326

> <Gold.PLP.part.repulsive>
0.2510

> <Gold.PLP.ligand.clash>
0.0000

> <Gold.PLP.ligand.torsion>
0.2628

> <Gold.PLP.Chemscore.Hbond>
1.7713

> <Gold.PLP.Chemscore.CHOScore>
0.9524

> <Gold.PLP.Chemscore.Metal>
0.0000

> <Gold.Chemscore.Hbonds>
donor molecule, donor type, donor heavy atom, donor atom, acceptor molecule, acceptor atom, score
      L1  H     3    18       P1  8028  0.56
      L1  H    10    23       P1  8028  0.54
      L1  H    17    34       P1  8029  0.70
      L1  C     8    22       P1  7948  0.88

> <Gold.PLP.Chemscore.Internal.Correction>
0.0011

> <Gold.Rescore>
     Score         DG    S(hbond)    S(metal)    S(lipo)     H(rot)  DE(clash)    DE(int)     intcor
     13.60     -17.29       1.35        0.00      94.38       1.47       0.71       2.99       ----

> <Gold.Chemscore.Fitness>
13.5976

> <Gold.Chemscore.DG>
-17.2946

> <Gold.Chemscore.ZeroCoef>
-5.4800

> <Gold.Chemscore.Hbond>
1.3543

> <Gold.Chemscore.Metal>
0.0000

> <Gold.Chemscore.Lipo>
94.3784

> <Gold.Chemscore.Internal_Hbond>
0.0000

> <Gold.Chemscore.DEClash>
0.7070

> <Gold.Chemscore.DEInternal>
2.9900

> <Gold.Chemscore.Rot>
1.4653

> <Gold.Chemscore.Internal.Correction>
   9.000000E+99

> <Gold.Chemscore.Hbonds>
donor molecule, donor type, donor heavy atom, donor atom, acceptor molecule, acceptor atom, score
      L1  H     3    18       P1  8028  0.51
      L1  H    10    23       P1  8028  0.37
      L1  H    17    34       P1  8029  0.27

> <Gold.Chemscore.Hbond.Weighted>
-4.5235

> <Gold.Chemscore.Metal.Weighted>
-0.0000

> <Gold.Chemscore.Lipo.Weighted>
-11.0423

> <Gold.Chemscore.Internal_Hbond.Weighted>
0.0000

> <Gold.Chemscore.DEClash.Weighted>
0.7070

> <Gold.Chemscore.DEInternal.Weighted>
2.9900

> <Gold.Chemscore.Rot.Weighted>
3.7511

> <Gold.Chemscore.Internal.Correction.Weighted>
   9.000000E+99

> <Gold.Protein.RotatedTorsions>
[ 6907 6896 6895 6894 ] final   30.02 input  -60.11 | X-H torsion
[ 7974 7965 7964 7962 ] final  176.18 input  175.53 | X-H torsion
[ 8008 7997 7996 7995 ] final  -55.97 input   59.86 | X-H torsion
[ 10167 10162 10161 10158 ] final  -93.95 input  -65.29 | X-H torsion
[ 10718 10713 10712 10709 ] final -103.48 input   66.30 | X-H torsion
[ 10763 10752 10751 10750 ] final   28.84 input  -60.55 | X-H torsion
[ 11005 11000 10999 10996 ] final  -77.46 input  -57.11 | X-H torsion

> <Gold.Protein.ActiveResidues>
 VAL166  LYS551  ARG553  GLY616  TRP617  ASP618  TYR619  PRO620  LYS621  CYS622 
 ASP623  PHE694  ASN695  SER759  ASP760  ASP761  ALA762  ILE779  LEU786  VAL792 
 PHE793  MET794  SER795  GLU796  ALA797  LYS798  CYS799  TRP800  GLU811  SER814 

> <Gold.Protein.RotatedAtoms>
  152.0399  134.9717  160.0573 H   0  0  0  0  0  0  0  0  0  0  0  0  # atno 6907 bound_to 6896
  152.1160  133.4322  159.4661 H   0  0  0  0  0  0  0  0  0  0  0  0  # atno 6908 bound_to 6896
  150.6846  134.2510  159.4554 H   0  0  0  0  0  0  0  0  0  0  0  0  # atno 6909 bound_to 6896
  144.7188  140.0058  143.6440 H   0  0  0  0  0  0  0  0  0  0  0  0  # atno 7974 bound_to 7965
  154.4213  140.1140  156.5563 H   0  0  0  0  0  0  0  0  0  0  0  0  # atno 8008 bound_to 7997
  155.6358  140.3496  155.4679 H   0  0  0  0  0  0  0  0  0  0  0  0  # atno 8009 bound_to 7997
  155.9911  140.1179  157.0627 H   0  0  0  0  0  0  0  0  0  0  0  0  # atno 8010 bound_to 7997
  140.3194  143.3058  152.0062 H   0  0  0  0  0  0  0  0  0  0  0  0  # atno 10167 bound_to 10162
  156.0267  130.5469  150.7258 H   0  0  0  0  0  0  0  0  0  0  0  0  # atno 10718 bound_to 10713
  153.0466  135.6503  154.0800 H   0  0  0  0  0  0  0  0  0  0  0  0  # atno 10763 bound_to 10752
  154.0496  135.2896  155.3344 H   0  0  0  0  0  0  0  0  0  0  0  0  # atno 10764 bound_to 10752
  154.6728  135.5349  153.8227 H   0  0  0  0  0  0  0  0  0  0  0  0  # atno 10765 bound_to 10752
  141.1660  133.7023  156.7823 H   0  0  0  0  0  0  0  0  0  0  0  0  # atno 11005 bound_to 11000
  146.0298  139.3325  143.0762 LP  0  0  0  0  0  0  0  0  0  0  0  0  # atno 17320 bound_to 7965
  145.8466  140.9552  143.0771 LP  0  0  0  0  0  0  0  0  0  0  0  0  # atno 17321 bound_to 7965
  139.4877  144.6322  151.7046 LP  0  0  0  0  0  0  0  0  0  0  0  0  # atno 17342 bound_to 10162
  140.5497  144.0446  150.6122 LP  0  0  0  0  0  0  0  0  0  0  0  0  # atno 17343 bound_to 10162
  157.4863  131.0907  151.0479 LP  0  0  0  0  0  0  0  0  0  0  0  0  # atno 17370 bound_to 10713
  157.0898  130.5937  149.5437 LP  0  0  0  0  0  0  0  0  0  0  0  0  # atno 17371 bound_to 10713
  140.2385  134.8631  157.3549 LP  0  0  0  0  0  0  0  0  0  0  0  0  # atno 17394 bound_to 11000
  140.1819  134.4479  155.7767 LP  0  0  0  0  0  0  0  0  0  0  0  0  # atno 17395 bound_to 11000

$$$$
