AV-unprocessed.smi:486|AV-procd|sdf|2698|dock8
  -GOLD-   2262023133D 1   1.00000     0.00000
 Structure written by MMmdl.
 44 46  0  0  0  0  0  0  0  0  2 V2000
  146.3349  134.1013  162.2692 C   0  0  0  0  0  0  0  0  0  0  0  0
  146.3582  133.8550  160.8708 O   0  0  0  0  0  0  0  0  0  0  0  0
  147.2609  134.5590  160.1029 C   0  0  0  0  0  0  0  0  0  0  0  0
  147.2665  134.2989  158.7185 C   0  0  0  0  0  0  0  0  0  0  0  0
  148.1554  134.9752  157.8618 C   0  0  0  0  0  0  0  0  0  0  0  0
  149.0596  135.9294  158.3679 C   0  0  0  0  0  0  0  0  0  0  0  0
  149.8933  136.5465  157.4599 O   0  0  0  0  0  0  0  0  0  0  0  0
  150.9288  137.3840  157.9570 C   0  0  0  0  0  0  0  0  0  0  0  0
  150.5199  138.8512  157.7530 C   0  0  1  0  0  0  0  0  0  0  0  0
  149.6292  139.2156  158.7888 O   0  0  0  0  0  0  0  0  0  0  0  0
  151.7394  139.7943  157.7764 C   0  0  0  0  0  0  0  0  0  0  0  0
  151.3655  141.2167  157.7144 N   0  0  0  0  0  0  0  0  0  0  0  0
  150.5809  141.8749  156.8139 C   0  0  0  0  0  0  0  0  0  0  0  0
  149.8886  141.2801  155.6341 C   0  0  0  0  0  0  0  0  0  0  0  0
  150.5458  143.1846  157.1883 N   0  3  0  0  0  0  0  0  0  0  0  0
  151.3122  143.3668  158.3399 C   0  0  0  0  0  0  0  0  0  0  0  0
  151.5745  144.5114  159.0865 C   0  0  0  0  0  0  0  0  0  0  0  0
  152.3994  144.3527  160.2192 C   0  0  0  0  0  0  0  0  0  0  0  0
  152.9277  143.0940  160.5721 C   0  0  0  0  0  0  0  0  0  0  0  0
  152.6564  141.9410  159.8061 C   0  0  0  0  0  0  0  0  0  0  0  0
  151.8411  142.1061  158.6861 C   0  0  0  0  0  0  0  0  0  0  0  0
  149.0588  136.1936  159.7597 C   0  0  0  0  0  0  0  0  0  0  0  0
  148.1703  135.5157  160.6172 C   0  0  0  0  0  0  0  0  0  0  0  0
  145.5688  133.4789  162.7311 H   0  0  0  0  0  0  0  0  0  0  0  0
  146.0896  135.1414  162.4875 H   0  0  0  0  0  0  0  0  0  0  0  0
  147.2890  133.8491  162.7341 H   0  0  0  0  0  0  0  0  0  0  0  0
  146.5807  133.5727  158.3072 H   0  0  0  0  0  0  0  0  0  0  0  0
  148.1414  134.7593  156.8036 H   0  0  0  0  0  0  0  0  0  0  0  0
  151.1411  137.1839  159.0090 H   0  0  0  0  0  0  0  0  0  0  0  0
  151.8379  137.1811  157.3884 H   0  0  0  0  0  0  0  0  0  0  0  0
  150.0088  138.9574  156.7953 H   0  0  0  0  0  0  0  0  0  0  0  0
  149.8021  138.6650  159.5378 H   0  0  0  0  0  0  0  0  0  0  0  0
  152.3594  139.6196  158.6559 H   0  0  0  0  0  0  0  0  0  0  0  0
  152.3776  139.5950  156.9148 H   0  0  0  0  0  0  0  0  0  0  0  0
  149.2740  142.0278  155.1322 H   0  0  0  0  0  0  0  0  0  0  0  0
  149.2456  140.4582  155.9488 H   0  0  0  0  0  0  0  0  0  0  0  0
  150.6211  140.8979  154.9230 H   0  0  0  0  0  0  0  0  0  0  0  0
  151.1689  145.4761  158.8190 H   0  0  0  0  0  0  0  0  0  0  0  0
  152.6295  145.2131  160.8310 H   0  0  0  0  0  0  0  0  0  0  0  0
  153.5527  143.0099  161.4492 H   0  0  0  0  0  0  0  0  0  0  0  0
  153.0614  140.9813  160.0903 H   0  0  0  0  0  0  0  0  0  0  0  0
  149.7322  136.9140  160.1981 H   0  0  0  0  0  0  0  0  0  0  0  0
  148.2061  135.7499  161.6701 H   0  0  0  0  0  0  0  0  0  0  0  0
  150.0330  143.9008  156.6902 H   0  0  0  0  0  0  0  0  0  0  0  0
  1  2  1  0  0  0  0
  1 24  1  0  0  0  0
  1 25  1  0  0  0  0
  1 26  1  0  0  0  0
  2  3  1  0  0  0  0
  3 23  1  0  0  0  0
  3  4  2  0  0  0  0
  4  5  1  0  0  0  0
  4 27  1  0  0  0  0
  5  6  2  0  0  0  0
  5 28  1  0  0  0  0
  6  7  1  0  0  0  0
  6 22  1  0  0  0  0
  7  8  1  0  0  0  0
  8  9  1  0  0  0  0
  8 29  1  0  0  0  0
  8 30  1  0  0  0  0
  9 10  1  0  0  0  0
  9 11  1  0  0  0  0
  9 31  1  0  0  0  0
 10 32  1  0  0  0  0
 11 12  1  0  0  0  0
 11 33  1  0  0  0  0
 11 34  1  0  0  0  0
 12 21  1  0  0  0  0
 12 13  1  0  0  0  0
 13 14  1  0  0  0  0
 13 15  2  0  0  0  0
 14 35  1  0  0  0  0
 14 36  1  0  0  0  0
 14 37  1  0  0  0  0
 15 16  1  0  0  0  0
 15 44  1  0  0  0  0
 16 21  2  0  0  0  0
 16 17  1  0  0  0  0
 17 18  2  0  0  0  0
 17 38  1  0  0  0  0
 18 19  1  0  0  0  0
 18 39  1  0  0  0  0
 19 20  2  0  0  0  0
 19 40  1  0  0  0  0
 20 21  1  0  0  0  0
 20 41  1  0  0  0  0
 22 23  2  0  0  0  0
 22 42  1  0  0  0  0
 23 43  1  0  0  0  0
M  CHG  1  15   1
M  END
> <s_m_source_file>
AV-unprocessed.smi

> <i_m_source_file_index>
486

> <i_lp_mmshare_version>
43012

> <i_f3d_flags>
0

> <s_epik_input>
W0NIM11PYzFbY0hdW2NIXWMoW2NIXVtjSF0xKU9bQ0gyXVtDQEhdKFtPSF0pW0NIMl1uKGMobjIpW0NIM10pYyhjMjMpW2NIXVtjSF1bY0hdW2NIXTM=

> <s_epik_cmdline>
J2VwaWtfcHl0aG9uJywgJy1waCcsICc3LjAnLCAnLXRuJywgJzgnLCAnLW1hJywgJzIwMCcsICctbWV0YWxfYmluZGluZycsICctaW1hZScsICc8aW5maWxlLm1hZT4nLCAnLW9tYWUnLCAnPG91dGZpbGUubWFlPic=

> <r_lp_tautomer_probability>
1

> <r_epik_Ionization_Penalty>
1.03234

> <r_epik_Ionization_Penalty_Charging>
1.03234

> <r_epik_Ionization_Penalty_Neutral>
2.3993e-06

> <r_epik_State_Penalty>
1.0836

> <r_epik_Charging_Adjusted_Penalty>
2.11594

> <i_epik_Tot_Q>
1

> <i_epik_Tot_abs_Q>
1

> <r_epik_Metal_State_Penalty>
5.07275

> <b_epik_Metal_Only>
0

> <s_lp_Force_Field>
OPLS_2005

> <r_lp_Energy>
23.3843

> <b_lp_Chiralities_Consistent>
1

> <s_lp_Variant>
AV-unprocessed.smi:486-4

> <Gold.Version>
5.8.1

> <Gold.Id.Protein>
6NUR|6NUR_protein|mol2

> <Gold.PLP.Fitness>
49.5576

> <Gold.PLP.PLP>
-44.7407

> <Gold.PLP.part.hbond>
-2.0916

> <Gold.PLP.part.metal>
0.0000

> <Gold.PLP.part.buried>
-4.1518

> <Gold.PLP.part.nonpolar>
-39.8090

> <Gold.PLP.part.repulsive>
0.0645

> <Gold.PLP.ligand.clash>
0.0000

> <Gold.PLP.ligand.torsion>
0.6245

> <Gold.PLP.Chemscore.Hbond>
1.9840

> <Gold.PLP.Chemscore.CHOScore>
0.0000

> <Gold.PLP.Chemscore.Metal>
0.0000

> <Gold.Chemscore.Hbonds>
donor molecule, donor type, donor heavy atom, donor atom, acceptor molecule, acceptor atom, score
      L1  H    15    44       P1  8028  2.00

> <Gold.PLP.Chemscore.Internal.Correction>
0.1139

> <Gold.Rescore>
     Score         DG    S(hbond)    S(metal)    S(lipo)     H(rot)  DE(clash)    DE(int)     intcor
     16.22     -17.04       1.00        0.00     122.64       2.40       0.19       0.62       ----

> <Gold.Chemscore.Fitness>
16.2190

> <Gold.Chemscore.DG>
-17.0366

> <Gold.Chemscore.ZeroCoef>
-5.4800

> <Gold.Chemscore.Hbond>
0.9996

> <Gold.Chemscore.Metal>
0.0000

> <Gold.Chemscore.Lipo>
122.6446

> <Gold.Chemscore.Internal_Hbond>
0.0000

> <Gold.Chemscore.DEClash>
0.1931

> <Gold.Chemscore.DEInternal>
0.6245

> <Gold.Chemscore.Rot>
2.3952

> <Gold.Chemscore.Internal.Correction>
   9.000000E+99

> <Gold.Chemscore.Hbonds>
donor molecule, donor type, donor heavy atom, donor atom, acceptor molecule, acceptor atom, score
      L1  H    15    44       P1  8028  1.00

> <Gold.Chemscore.Hbond.Weighted>
-3.3388

> <Gold.Chemscore.Metal.Weighted>
-0.0000

> <Gold.Chemscore.Lipo.Weighted>
-14.3494

> <Gold.Chemscore.Internal_Hbond.Weighted>
0.0000

> <Gold.Chemscore.DEClash.Weighted>
0.1931

> <Gold.Chemscore.DEInternal.Weighted>
0.6245

> <Gold.Chemscore.Rot.Weighted>
6.1316

> <Gold.Chemscore.Internal.Correction.Weighted>
   9.000000E+99

> <Gold.Protein.RotatedTorsions>
[ 6907 6896 6895 6894 ] final -100.32 input  -60.11 | X-H torsion
[ 7974 7965 7964 7962 ] final   94.13 input  175.53 | X-H torsion
[ 8008 7997 7996 7995 ] final  166.36 input   59.86 | X-H torsion
[ 10167 10162 10161 10158 ] final  -89.81 input  -65.29 | X-H torsion
[ 10718 10713 10712 10709 ] final  -50.44 input   66.30 | X-H torsion
[ 10763 10752 10751 10750 ] final  144.66 input  -60.55 | X-H torsion
[ 11005 11000 10999 10996 ] final  -94.63 input  -57.11 | X-H torsion

> <Gold.Protein.ActiveResidues>
 VAL166  LYS551  ARG553  GLY616  TRP617  ASP618  TYR619  PRO620  LYS621  CYS622 
 ASP623  PHE694  ASN695  SER759  ASP760  ASP761  ALA762  ILE779  LEU786  VAL792 
 PHE793  MET794  SER795  GLU796  ALA797  LYS798  CYS799  TRP800  GLU811  SER814 

> <Gold.Protein.RotatedAtoms>
  150.7111  134.0905  159.3929 H   0  0  0  0  0  0  0  0  0  0  0  0  # atno 6907 bound_to 6896
  151.8891  135.0421  160.0505 H   0  0  0  0  0  0  0  0  0  0  0  0  # atno 6908 bound_to 6896
  152.2506  133.5176  159.5360 H   0  0  0  0  0  0  0  0  0  0  0  0  # atno 6909 bound_to 6896
  145.4697  139.2282  143.2942 H   0  0  0  0  0  0  0  0  0  0  0  0  # atno 7974 bound_to 7965
  156.1724  140.1645  156.8423 H   0  0  0  0  0  0  0  0  0  0  0  0  # atno 8008 bound_to 7997
  154.5271  140.0765  156.8312 H   0  0  0  0  0  0  0  0  0  0  0  0  # atno 8009 bound_to 7997
  155.3484  140.3388  155.4241 H   0  0  0  0  0  0  0  0  0  0  0  0  # atno 8010 bound_to 7997
  140.3611  143.2841  151.9613 H   0  0  0  0  0  0  0  0  0  0  0  0  # atno 10167 bound_to 10162
  156.1800  130.4150  149.9520 H   0  0  0  0  0  0  0  0  0  0  0  0  # atno 10718 bound_to 10713
  153.9926  135.2930  155.3410 H   0  0  0  0  0  0  0  0  0  0  0  0  # atno 10763 bound_to 10752
  154.7206  135.5111  153.8809 H   0  0  0  0  0  0  0  0  0  0  0  0  # atno 10764 bound_to 10752
  153.0803  135.6676  154.0176 H   0  0  0  0  0  0  0  0  0  0  0  0  # atno 10765 bound_to 10752
  141.1465  133.7970  157.0325 H   0  0  0  0  0  0  0  0  0  0  0  0  # atno 11005 bound_to 11000
  146.2404  140.5474  142.8936 LP  0  0  0  0  0  0  0  0  0  0  0  0  # atno 17320 bound_to 7965
  144.7953  140.6110  143.6514 LP  0  0  0  0  0  0  0  0  0  0  0  0  # atno 17321 bound_to 7965
  139.4814  144.5992  151.7636 LP  0  0  0  0  0  0  0  0  0  0  0  0  # atno 17342 bound_to 10162
  140.5126  144.1002  150.5999 LP  0  0  0  0  0  0  0  0  0  0  0  0  # atno 17343 bound_to 10162
  156.7294  130.9037  151.3624 LP  0  0  0  0  0  0  0  0  0  0  0  0  # atno 17370 bound_to 10713
  157.6862  130.9187  150.0392 LP  0  0  0  0  0  0  0  0  0  0  0  0  # atno 17371 bound_to 10713
  140.0745  134.9683  157.1523 LP  0  0  0  0  0  0  0  0  0  0  0  0  # atno 17394 bound_to 11000
  140.3663  134.2438  155.7182 LP  0  0  0  0  0  0  0  0  0  0  0  0  # atno 17395 bound_to 11000

$$$$
