AV-unprocessed.smi:3165|AV-procd|sdf|12091|dock7
  -GOLD-   2272017523D 1   1.00000     0.00000
 Structure written by MMmdl.
 37 38  0  0  0  0  0  0  0  0  1 V2000
  147.8120  142.0397  154.0128 C   0  0  0  0  0  0  0  0  0  0  0  0
  148.9964  141.3321  154.6937 C   0  0  2  0  0  0  0  0  0  0  0  0
  148.8747  139.7889  154.6623 C   0  0  0  0  0  0  0  0  0  0  0  0
  150.1614  139.1172  154.6081 N   0  0  0  0  0  0  0  0  0  0  0  0
  150.4185  137.7770  154.4083 C   0  0  0  0  0  0  0  0  0  0  0  0
  151.7743  137.6154  154.4292 C   0  0  0  0  0  0  0  0  0  0  0  0
  152.2680  138.9322  154.6463 C   0  0  0  0  0  0  0  0  0  0  0  0
  151.3007  139.8290  154.7510 N   0  0  0  0  0  0  0  0  0  0  0  0
  149.1314  141.8394  156.0625 N   0  0  0  0  0  0  0  0  0  0  0  0
  150.3523  141.4459  156.7642 C   0  0  0  0  0  0  0  0  0  0  0  0
  150.6966  142.4528  157.8707 C   0  0  1  0  0  0  0  0  0  0  0  0
  151.6834  141.8568  158.8933 C   0  0  0  0  0  0  0  0  0  0  0  0
  152.0810  142.9079  159.9358 C   0  0  0  0  0  0  0  0  0  0  0  0
  152.5966  144.1662  159.2297 C   0  0  0  0  0  0  0  0  0  0  0  0
  151.5798  144.6444  158.1814 C   0  0  0  0  0  0  0  0  0  0  0  0
  151.3010  143.5929  157.2620 O   0  0  0  0  0  0  0  0  0  0  0  0
  147.7461  141.7893  152.9540 H   0  0  0  0  0  0  0  0  0  0  0  0
  147.9132  143.1235  154.0782 H   0  0  0  0  0  0  0  0  0  0  0  0
  146.8655  141.7651  154.4801 H   0  0  0  0  0  0  0  0  0  0  0  0
  149.8913  141.6074  154.1342 H   0  0  0  0  0  0  0  0  0  0  0  0
  148.3576  139.4223  155.5491 H   0  0  0  0  0  0  0  0  0  0  0  0
  148.2784  139.4767  153.8032 H   0  0  0  0  0  0  0  0  0  0  0  0
  149.6232  137.0590  154.2712 H   0  0  0  0  0  0  0  0  0  0  0  0
  152.3295  136.6975  154.3063 H   0  0  0  0  0  0  0  0  0  0  0  0
  153.2933  139.2615  154.7283 H   0  0  0  0  0  0  0  0  0  0  0  0
  149.0600  142.8522  156.0574 H   0  0  0  0  0  0  0  0  0  0  0  0
  150.2180  140.4630  157.2152 H   0  0  0  0  0  0  0  0  0  0  0  0
  151.1865  141.3622  156.0666 H   0  0  0  0  0  0  0  0  0  0  0  0
  149.7810  142.7511  158.3858 H   0  0  0  0  0  0  0  0  0  0  0  0
  151.2402  140.9921  159.3883 H   0  0  0  0  0  0  0  0  0  0  0  0
  152.5755  141.4984  158.3778 H   0  0  0  0  0  0  0  0  0  0  0  0
  151.2164  143.1597  160.5516 H   0  0  0  0  0  0  0  0  0  0  0  0
  152.8407  142.5094  160.6086 H   0  0  0  0  0  0  0  0  0  0  0  0
  152.7907  144.9550  159.9570 H   0  0  0  0  0  0  0  0  0  0  0  0
  153.5473  143.9486  158.7410 H   0  0  0  0  0  0  0  0  0  0  0  0
  150.6574  144.9803  158.6578 H   0  0  0  0  0  0  0  0  0  0  0  0
  151.9812  145.4955  157.6315 H   0  0  0  0  0  0  0  0  0  0  0  0
  1  2  1  0  0  0  0
  1 17  1  0  0  0  0
  1 18  1  0  0  0  0
  1 19  1  0  0  0  0
  2  3  1  0  0  0  0
  2  9  1  0  0  0  0
  2 20  1  0  0  0  0
  3  4  1  0  0  0  0
  3 21  1  0  0  0  0
  3 22  1  0  0  0  0
  4  8  1  0  0  0  0
  4  5  1  0  0  0  0
  5  6  2  0  0  0  0
  5 23  1  0  0  0  0
  6  7  1  0  0  0  0
  6 24  1  0  0  0  0
  7  8  2  0  0  0  0
  7 25  1  0  0  0  0
  9 10  1  0  0  0  0
  9 26  1  0  0  0  0
 10 11  1  0  0  0  0
 10 27  1  0  0  0  0
 10 28  1  0  0  0  0
 11 16  1  0  0  0  0
 11 12  1  0  0  0  0
 11 29  1  0  0  0  0
 12 13  1  0  0  0  0
 12 30  1  0  0  0  0
 12 31  1  0  0  0  0
 13 14  1  0  0  0  0
 13 32  1  0  0  0  0
 13 33  1  0  0  0  0
 14 15  1  0  0  0  0
 14 34  1  0  0  0  0
 14 35  1  0  0  0  0
 15 16  1  0  0  0  0
 15 36  1  0  0  0  0
 15 37  1  0  0  0  0
M  END
> <s_m_source_file>
AV-unprocessed.smi

> <i_m_source_file_index>
3165

> <i_lp_mmshare_version>
43012

> <i_f3d_flags>
0

> <s_epik_input>
bjFbY0hdW2NIXVtjSF1uMVtDSDJdW0NAQEhdKFtDSDNdKVtOSF1bQ0gyXVtDQEBIXTJbQ0gyXVtDSDJdW0NIMl1bQ0gyXU8y

> <s_epik_cmdline>
J2VwaWtfcHl0aG9uJywgJy1waCcsICc3LjAnLCAnLXRuJywgJzgnLCAnLW1hJywgJzIwMCcsICctbWV0YWxfYmluZGluZycsICctaW1hZScsICc8aW5maWxlLm1hZT4nLCAnLW9tYWUnLCAnPG91dGZpbGUubWFlPic=

> <r_lp_tautomer_probability>
1

> <r_epik_Ionization_Penalty>
2.51982

> <r_epik_Ionization_Penalty_Charging>
0

> <r_epik_Ionization_Penalty_Neutral>
2.51982

> <r_epik_State_Penalty>
2.68614

> <r_epik_Charging_Adjusted_Penalty>
2.68614

> <i_epik_Tot_Q>
0

> <i_epik_Tot_abs_Q>
0

> <r_epik_Metal_State_Penalty>
2.6861

> <b_epik_Metal_Only>
0

> <s_lp_Force_Field>
OPLS_2005

> <r_lp_Energy>
13.227

> <b_lp_Chiralities_Consistent>
1

> <s_lp_Variant>
AV-unprocessed.smi:3165-7

> <Gold.Version>
5.8.1

> <Gold.Id.Protein>
6NUR|6NUR_protein|mol2

> <Gold.PLP.Fitness>
45.8568

> <Gold.PLP.PLP>
-39.2695

> <Gold.PLP.part.hbond>
-2.0000

> <Gold.PLP.part.metal>
0.0000

> <Gold.PLP.part.buried>
-3.3761

> <Gold.PLP.part.nonpolar>
-34.8554

> <Gold.PLP.part.repulsive>
0.5501

> <Gold.PLP.ligand.clash>
0.0000

> <Gold.PLP.ligand.torsion>
0.7604

> <Gold.PLP.Chemscore.Hbond>
2.0000

> <Gold.PLP.Chemscore.CHOScore>
0.6907

> <Gold.PLP.Chemscore.Metal>
0.0000

> <Gold.Chemscore.Hbonds>
donor molecule, donor type, donor heavy atom, donor atom, acceptor molecule, acceptor atom, score
      L1  H     9    26       P1  8028  1.00
      P1  H  7989  7998       L1     8  1.00
      L1  C     5    23       P1  7948  0.64

> <Gold.PLP.Chemscore.Internal.Correction>
0.0360

> <Gold.Rescore>
     Score         DG    S(hbond)    S(metal)    S(lipo)     H(rot)  DE(clash)    DE(int)     intcor
     17.33     -19.49       1.74        0.00     104.41       1.57       0.18       1.99       ----

> <Gold.Chemscore.Fitness>
17.3257

> <Gold.Chemscore.DG>
-19.4907

> <Gold.Chemscore.ZeroCoef>
-5.4800

> <Gold.Chemscore.Hbond>
1.7430

> <Gold.Chemscore.Metal>
0.0000

> <Gold.Chemscore.Lipo>
104.4135

> <Gold.Chemscore.Internal_Hbond>
0.0000

> <Gold.Chemscore.DEClash>
0.1757

> <Gold.Chemscore.DEInternal>
1.9892

> <Gold.Chemscore.Rot>
1.5731

> <Gold.Chemscore.Internal.Correction>
   9.000000E+99

> <Gold.Chemscore.Hbonds>
donor molecule, donor type, donor heavy atom, donor atom, acceptor molecule, acceptor atom, score
      L1  H     9    26       P1  8028  1.00
      P1  H  7989  7998       L1     8  0.31

> <Gold.Chemscore.Hbond.Weighted>
-5.8215

> <Gold.Chemscore.Metal.Weighted>
-0.0000

> <Gold.Chemscore.Lipo.Weighted>
-12.2164

> <Gold.Chemscore.Internal_Hbond.Weighted>
0.0000

> <Gold.Chemscore.DEClash.Weighted>
0.1757

> <Gold.Chemscore.DEInternal.Weighted>
1.9892

> <Gold.Chemscore.Rot.Weighted>
4.0273

> <Gold.Chemscore.Internal.Correction.Weighted>
   9.000000E+99

> <Gold.Protein.RotatedTorsions>
[ 6907 6896 6895 6894 ] final  122.59 input  -60.11 | X-H torsion
[ 7974 7965 7964 7962 ] final   42.51 input  175.53 | X-H torsion
[ 8008 7997 7996 7995 ] final   64.08 input   59.86 | X-H torsion
[ 10167 10162 10161 10158 ] final  118.61 input  -65.29 | X-H torsion
[ 10718 10713 10712 10709 ] final  142.45 input   66.30 | X-H torsion
[ 10763 10752 10751 10750 ] final -163.49 input  -60.55 | X-H torsion
[ 11005 11000 10999 10996 ] final   13.60 input  -57.11 | X-H torsion

> <Gold.Protein.ActiveResidues>
 VAL166  LYS551  ARG553  GLY616  TRP617  ASP618  TYR619  PRO620  LYS621  CYS622 
 ASP623  PHE694  ASN695  SER759  ASP760  ASP761  ALA762  ILE779  LEU786  VAL792 
 PHE793  MET794  SER795  GLU796  ALA797  LYS798  CYS799  TRP800  GLU811  SER814 

> <Gold.Protein.RotatedAtoms>
  152.4230  133.7149  159.6499 H   0  0  0  0  0  0  0  0  0  0  0  0  # atno 6907 bound_to 6896
  150.8106  133.8417  159.3190 H   0  0  0  0  0  0  0  0  0  0  0  0  # atno 6908 bound_to 6896
  151.6128  135.1041  160.0136 H   0  0  0  0  0  0  0  0  0  0  0  0  # atno 6909 bound_to 6896
  146.0734  139.5292  142.9583 H   0  0  0  0  0  0  0  0  0  0  0  0  # atno 7974 bound_to 7965
  155.6404  140.3497  155.4713 H   0  0  0  0  0  0  0  0  0  0  0  0  # atno 8008 bound_to 7997
  155.9930  140.1197  157.0643 H   0  0  0  0  0  0  0  0  0  0  0  0  # atno 8009 bound_to 7997
  154.4225  140.1115  156.5578 H   0  0  0  0  0  0  0  0  0  0  0  0  # atno 8010 bound_to 7997
  139.6100  144.7079  151.2866 H   0  0  0  0  0  0  0  0  0  0  0  0  # atno 10167 bound_to 10162
  157.3803  131.0991  151.0744 H   0  0  0  0  0  0  0  0  0  0  0  0  # atno 10718 bound_to 10713
  154.7117  135.3007  154.9186 H   0  0  0  0  0  0  0  0  0  0  0  0  # atno 10763 bound_to 10752
  154.0086  135.6697  153.4768 H   0  0  0  0  0  0  0  0  0  0  0  0  # atno 10764 bound_to 10752
  153.0760  135.5034  154.8319 H   0  0  0  0  0  0  0  0  0  0  0  0  # atno 10765 bound_to 10752
  140.4790  134.0955  155.7747 H   0  0  0  0  0  0  0  0  0  0  0  0  # atno 11005 bound_to 11000
  145.6349  141.0296  143.1843 LP  0  0  0  0  0  0  0  0  0  0  0  0  # atno 17320 bound_to 7965
  144.7246  139.7917  143.7369 LP  0  0  0  0  0  0  0  0  0  0  0  0  # atno 17321 bound_to 7965
  140.7312  143.6858  150.7963 LP  0  0  0  0  0  0  0  0  0  0  0  0  # atno 17342 bound_to 10162
  140.0450  143.5307  152.2700 LP  0  0  0  0  0  0  0  0  0  0  0  0  # atno 17343 bound_to 10162
  157.1816  130.6312  149.5673 LP  0  0  0  0  0  0  0  0  0  0  0  0  # atno 17370 bound_to 10713
  155.9774  130.4752  150.6593 LP  0  0  0  0  0  0  0  0  0  0  0  0  # atno 17371 bound_to 10713
  141.1540  133.8916  157.2024 LP  0  0  0  0  0  0  0  0  0  0  0  0  # atno 17394 bound_to 11000
  139.9838  135.0089  156.9814 LP  0  0  0  0  0  0  0  0  0  0  0  0  # atno 17395 bound_to 11000

$$$$
