AV-unprocessed.smi:1978|AV-procd|sdf|7995|dock9
  -GOLD-   2272010183D 1   1.00000     0.00000
 Structure written by MMmdl.
 45 46  0  0  0  0  0  0  0  0  2 V2000
  152.8546  142.6369  160.6118 C   0  0  0  0  0  0  0  0  0  0  0  0
  151.9645  142.9468  159.4571 C   0  0  0  0  0  0  0  0  0  0  0  0
  151.2658  142.1605  158.5847 C   0  0  0  0  0  0  0  0  0  0  0  0
  150.6316  143.1079  157.7377 C   0  0  0  0  0  0  0  0  0  0  0  0
  149.7907  142.6880  156.6754 N   0  0  0  0  0  0  0  0  0  0  0  0
  149.6383  141.4411  156.1978 C   0  0  0  0  0  0  0  0  0  0  0  0
  150.2132  140.4411  156.6288 O   0  0  0  0  0  0  0  0  0  0  0  0
  148.7730  141.4115  155.1728 N   0  0  0  0  0  0  0  0  0  0  0  0
  148.3657  140.2116  154.4449 C   0  0  0  0  0  0  0  0  0  0  0  0
  147.2029  140.4772  153.4561 C   0  0  1  0  0  0  0  0  0  0  0  0
  146.9139  139.2923  152.5079 C   0  0  0  0  0  0  0  0  0  0  0  0
  145.9748  140.9468  154.1782 N   0  3  2  0  0  0  0  0  0  0  0  0
  145.9656  142.4144  154.4550 C   0  0  0  0  0  0  0  0  0  0  0  0
  144.5855  142.8880  154.9315 C   0  0  0  0  0  0  0  0  0  0  0  0
  144.1636  142.1250  156.1886 C   0  0  0  0  0  0  0  0  0  0  0  0
  144.2078  140.6184  155.9151 C   0  0  0  0  0  0  0  0  0  0  0  0
  145.5913  140.1618  155.4003 C   0  0  1  0  0  0  0  0  0  0  0  0
  145.5577  138.6357  155.1772 C   0  0  0  0  0  0  0  0  0  0  0  0
  150.9174  144.3591  158.0632 N   0  0  0  0  0  0  0  0  0  0  0  0
  151.7737  144.2623  159.1662 O   0  0  0  0  0  0  0  0  0  0  0  0
  152.5658  141.6972  161.0828 H   0  0  0  0  0  0  0  0  0  0  0  0
  152.8023  143.4220  161.3665 H   0  0  0  0  0  0  0  0  0  0  0  0
  153.8913  142.5486  160.2868 H   0  0  0  0  0  0  0  0  0  0  0  0
  151.2182  141.0820  158.5599 H   0  0  0  0  0  0  0  0  0  0  0  0
  149.2508  143.4159  156.2312 H   0  0  0  0  0  0  0  0  0  0  0  0
  148.3502  142.2824  154.8857 H   0  0  0  0  0  0  0  0  0  0  0  0
  149.2329  139.7814  153.9450 H   0  0  0  0  0  0  0  0  0  0  0  0
  148.0510  139.4745  155.1844 H   0  0  0  0  0  0  0  0  0  0  0  0
  147.5721  141.2922  152.8388 H   0  0  0  0  0  0  0  0  0  0  0  0
  147.7691  139.0829  151.8658 H   0  0  0  0  0  0  0  0  0  0  0  0
  146.0735  139.4993  151.8460 H   0  0  0  0  0  0  0  0  0  0  0  0
  146.6914  138.3778  153.0581 H   0  0  0  0  0  0  0  0  0  0  0  0
  146.7117  142.6540  155.2138 H   0  0  0  0  0  0  0  0  0  0  0  0
  146.2300  142.9868  153.5684 H   0  0  0  0  0  0  0  0  0  0  0  0
  144.6086  143.9587  155.1369 H   0  0  0  0  0  0  0  0  0  0  0  0
  143.8493  142.7390  154.1402 H   0  0  0  0  0  0  0  0  0  0  0  0
  144.8312  142.3722  157.0149 H   0  0  0  0  0  0  0  0  0  0  0  0
  143.1608  142.4248  156.4948 H   0  0  0  0  0  0  0  0  0  0  0  0
  143.9522  140.0822  156.8301 H   0  0  0  0  0  0  0  0  0  0  0  0
  143.4396  140.3606  155.1842 H   0  0  0  0  0  0  0  0  0  0  0  0
  146.3230  140.3677  156.1826 H   0  0  0  0  0  0  0  0  0  0  0  0
  145.1163  138.1271  156.0347 H   0  0  0  0  0  0  0  0  0  0  0  0
  146.5556  138.2136  155.0606 H   0  0  0  0  0  0  0  0  0  0  0  0
  144.9657  138.3720  154.3003 H   0  0  0  0  0  0  0  0  0  0  0  0
  145.2209  140.7893  153.5249 H   0  0  0  0  0  0  0  0  0  0  0  0
  1  2  1  0  0  0  0
  1 21  1  0  0  0  0
  1 22  1  0  0  0  0
  1 23  1  0  0  0  0
  2 20  1  0  0  0  0
  2  3  2  0  0  0  0
  3  4  1  0  0  0  0
  3 24  1  0  0  0  0
  4  5  1  0  0  0  0
  4 19  2  0  0  0  0
  5  6  1  0  0  0  0
  5 25  1  0  0  0  0
  6  7  2  0  0  0  0
  6  8  1  0  0  0  0
  8  9  1  0  0  0  0
  8 26  1  0  0  0  0
  9 10  1  0  0  0  0
  9 27  1  0  0  0  0
  9 28  1  0  0  0  0
 10 11  1  0  0  0  0
 10 12  1  0  0  0  0
 10 29  1  0  0  0  0
 11 30  1  0  0  0  0
 11 31  1  0  0  0  0
 11 32  1  0  0  0  0
 12 17  1  0  0  0  0
 12 13  1  0  0  0  0
 12 45  1  0  0  0  0
 13 14  1  0  0  0  0
 13 33  1  0  0  0  0
 13 34  1  0  0  0  0
 14 15  1  0  0  0  0
 14 35  1  0  0  0  0
 14 36  1  0  0  0  0
 15 16  1  0  0  0  0
 15 37  1  0  0  0  0
 15 38  1  0  0  0  0
 16 17  1  0  0  0  0
 16 39  1  0  0  0  0
 16 40  1  0  0  0  0
 17 18  1  0  0  0  0
 17 41  1  0  0  0  0
 18 42  1  0  0  0  0
 18 43  1  0  0  0  0
 18 44  1  0  0  0  0
 19 20  1  0  0  0  0
M  CHG  1  12   1
M  END
> <s_m_source_file>
AV-unprocessed.smi

> <i_m_source_file_index>
1978

> <i_lp_mmshare_version>
43012

> <i_f3d_flags>
0

> <s_epik_input>
W0NIM11jMVtjSF1jKG5vMSlbTkhdQyg9TylbTkhdW0NIMl1bQ0BIXShbQ0gzXSlOMltDSDJdW0NIMl1bQ0gyXVtDSDJdW0NASF0yW0NIM10=

> <s_epik_cmdline>
J2VwaWtfcHl0aG9uJywgJy1waCcsICc3LjAnLCAnLXRuJywgJzgnLCAnLW1hJywgJzIwMCcsICctbWV0YWxfYmluZGluZycsICctaW1hZScsICc8aW5maWxlLm1hZT4nLCAnLW9tYWUnLCAnPG91dGZpbGUubWFlPic=

> <r_epik_Ionization_Penalty>
0.00265971

> <r_epik_Ionization_Penalty_Charging>
0.00262393

> <r_epik_Ionization_Penalty_Neutral>
3.57846e-05

> <r_epik_State_Penalty>
0.00182566

> <r_epik_Charging_Adjusted_Penalty>
0.00444959

> <i_epik_Tot_Q>
1

> <i_epik_Tot_abs_Q>
1

> <r_epik_Metal_State_Penalty>
0.0216344

> <b_epik_Metal_Only>
0

> <s_lp_Force_Field>
OPLS_2005

> <r_lp_Energy>
21.4618

> <b_lp_Chiralities_Consistent>
1

> <s_lp_Variant>
AV-unprocessed.smi:1978-4

> <Gold.Version>
5.8.1

> <Gold.Id.Protein>
6NUR|6NUR_protein|mol2

> <Gold.PLP.Fitness>
43.9507

> <Gold.PLP.PLP>
-35.9930

> <Gold.PLP.part.hbond>
-2.0000

> <Gold.PLP.part.metal>
0.0000

> <Gold.PLP.part.buried>
-7.1924

> <Gold.PLP.part.nonpolar>
-29.0998

> <Gold.PLP.part.repulsive>
0.4160

> <Gold.PLP.ligand.clash>
0.0000

> <Gold.PLP.ligand.torsion>
0.5799

> <Gold.PLP.Chemscore.Hbond>
3.0000

> <Gold.PLP.Chemscore.CHOScore>
0.0000

> <Gold.PLP.Chemscore.Metal>
0.0000

> <Gold.Chemscore.Hbonds>
donor molecule, donor type, donor heavy atom, donor atom, acceptor molecule, acceptor atom, score
      L1  H     5    25       P1  8028  0.84
      L1  H    12    45       P1 10175  2.00

> <Gold.PLP.Chemscore.Internal.Correction>
0.1175

> <Gold.Rescore>
     Score         DG    S(hbond)    S(metal)    S(lipo)     H(rot)  DE(clash)    DE(int)     intcor
     13.72     -15.96       1.85        0.00      70.65       1.55       0.04       2.21       ----

> <Gold.Chemscore.Fitness>
13.7154

> <Gold.Chemscore.DG>
-15.9611

> <Gold.Chemscore.ZeroCoef>
-5.4800

> <Gold.Chemscore.Hbond>
1.8491

> <Gold.Chemscore.Metal>
0.0000

> <Gold.Chemscore.Lipo>
70.6533

> <Gold.Chemscore.Internal_Hbond>
0.0000

> <Gold.Chemscore.DEClash>
0.0363

> <Gold.Chemscore.DEInternal>
2.2094

> <Gold.Chemscore.Rot>
1.5474

> <Gold.Chemscore.Internal.Correction>
   9.000000E+99

> <Gold.Chemscore.Hbonds>
donor molecule, donor type, donor heavy atom, donor atom, acceptor molecule, acceptor atom, score
      L1  H     5    25       P1  8028  0.82
      L1  H    12    45       P1 10175  0.88

> <Gold.Chemscore.Hbond.Weighted>
-6.1759

> <Gold.Chemscore.Metal.Weighted>
-0.0000

> <Gold.Chemscore.Lipo.Weighted>
-8.2664

> <Gold.Chemscore.Internal_Hbond.Weighted>
0.0000

> <Gold.Chemscore.DEClash.Weighted>
0.0363

> <Gold.Chemscore.DEInternal.Weighted>
2.2094

> <Gold.Chemscore.Rot.Weighted>
3.9612

> <Gold.Chemscore.Internal.Correction.Weighted>
   9.000000E+99

> <Gold.Protein.RotatedTorsions>
[ 6907 6896 6895 6894 ] final  117.52 input  -60.11 | X-H torsion
[ 7974 7965 7964 7962 ] final  -11.59 input  175.53 | X-H torsion
[ 8008 7997 7996 7995 ] final  -87.65 input   59.86 | X-H torsion
[ 10167 10162 10161 10158 ] final  136.05 input  -65.29 | X-H torsion
[ 10718 10713 10712 10709 ] final  -67.35 input   66.30 | X-H torsion
[ 10763 10752 10751 10750 ] final  114.48 input  -60.55 | X-H torsion
[ 11005 11000 10999 10996 ] final -130.32 input  -57.11 | X-H torsion

> <Gold.Protein.ActiveResidues>
 VAL166  LYS551  ARG553  GLY616  TRP617  ASP618  TYR619  PRO620  LYS621  CYS622 
 ASP623  PHE694  ASN695  SER759  ASP760  ASP761  ALA762  ILE779  LEU786  VAL792 
 PHE793  MET794  SER795  GLU796  ALA797  LYS798  CYS799  TRP800  GLU811  SER814 

> <Gold.Protein.RotatedAtoms>
  152.4606  133.7814  159.6852 H   0  0  0  0  0  0  0  0  0  0  0  0  # atno 6907 bound_to 6896
  150.8549  133.7721  159.3019 H   0  0  0  0  0  0  0  0  0  0  0  0  # atno 6908 bound_to 6896
  151.5305  135.1071  159.9953 H   0  0  0  0  0  0  0  0  0  0  0  0  # atno 6909 bound_to 6896
  146.2182  140.2933  142.8370 H   0  0  0  0  0  0  0  0  0  0  0  0  # atno 7974 bound_to 7965
  154.6656  140.0563  157.0110 H   0  0  0  0  0  0  0  0  0  0  0  0  # atno 8008 bound_to 7997
  155.1163  140.3243  155.4490 H   0  0  0  0  0  0  0  0  0  0  0  0  # atno 8009 bound_to 7997
  156.2636  140.2005  156.6286 H   0  0  0  0  0  0  0  0  0  0  0  0  # atno 8010 bound_to 7997
  139.5194  144.6485  151.5371 H   0  0  0  0  0  0  0  0  0  0  0  0  # atno 10167 bound_to 10162
  156.0562  130.4276  150.1842 H   0  0  0  0  0  0  0  0  0  0  0  0  # atno 10718 bound_to 10713
  153.5079  135.3624  155.2572 H   0  0  0  0  0  0  0  0  0  0  0  0  # atno 10763 bound_to 10752
  154.8744  135.4015  154.3403 H   0  0  0  0  0  0  0  0  0  0  0  0  # atno 10764 bound_to 10752
  153.4050  135.7076  153.6465 H   0  0  0  0  0  0  0  0  0  0  0  0  # atno 10765 bound_to 10752
  140.9356  134.1262  157.4197 H   0  0  0  0  0  0  0  0  0  0  0  0  # atno 11005 bound_to 11000
  144.9111  140.7758  143.5807 LP  0  0  0  0  0  0  0  0  0  0  0  0  # atno 17320 bound_to 7965
  145.2864  139.1899  143.4764 LP  0  0  0  0  0  0  0  0  0  0  0  0  # atno 17321 bound_to 7965
  140.6280  143.9132  150.6581 LP  0  0  0  0  0  0  0  0  0  0  0  0  # atno 17342 bound_to 10162
  140.2427  143.3652  152.1473 LP  0  0  0  0  0  0  0  0  0  0  0  0  # atno 17343 bound_to 10162
  156.9918  130.9895  151.3413 LP  0  0  0  0  0  0  0  0  0  0  0  0  # atno 17370 bound_to 10713
  157.5534  130.8197  149.8173 LP  0  0  0  0  0  0  0  0  0  0  0  0  # atno 17371 bound_to 10713
  139.8807  135.0019  156.6098 LP  0  0  0  0  0  0  0  0  0  0  0  0  # atno 17394 bound_to 11000
  140.7804  133.8665  155.8563 LP  0  0  0  0  0  0  0  0  0  0  0  0  # atno 17395 bound_to 11000

$$$$
