AV-unprocessed.smi:2229|AV-procd|sdf|9027|dock6
  -GOLD-   2272012233D 1   1.00000     0.00000
 Structure written by MMmdl.
 44 45  0  0  0  0  0  0  0  0  1 V2000
  153.7244  141.5093  161.0539 C   0  0  0  0  0  0  0  0  0  0  0  0
  152.9983  142.2642  159.9298 C   0  0  0  0  0  0  0  0  0  0  0  0
  152.1712  143.4233  160.5131 C   0  0  0  0  0  0  0  0  0  0  0  0
  152.1450  141.2952  159.0859 C   0  0  0  0  0  0  0  0  0  0  0  0
  151.5730  141.9201  157.8013 C   0  0  0  0  0  0  0  0  0  0  0  0
  150.8218  140.9099  156.9155 C   0  0  2  0  0  0  0  0  0  0  0  0
  151.6960  139.8410  156.2570 C   0  0  0  0  0  0  0  0  0  0  0  0
  150.8152  139.2862  155.1385 C   0  0  0  0  0  0  0  0  0  0  0  0
  149.9785  140.4750  154.6485 C   0  0  0  0  0  0  0  0  0  0  0  0
  150.0872  141.5640  155.7344 C   0  0  1  0  0  0  0  0  0  0  0  0
  148.7876  142.0616  156.1668 N   0  0  0  0  0  0  0  0  0  0  0  0
  147.8376  141.3405  156.7829 C   0  0  0  0  0  0  0  0  0  0  0  0
  148.0092  140.1744  157.1348 O   0  0  0  0  0  0  0  0  0  0  0  0
  146.4746  142.0081  157.0322 C   0  0  0  0  0  0  0  0  0  0  0  0
  145.7068  142.3148  155.8194 N   0  0  0  0  0  0  0  0  0  0  0  0
  146.2685  142.8600  154.6843 C   0  0  0  0  0  0  0  0  0  0  0  0
  145.3951  143.0370  153.7524 N   0  0  0  0  0  0  0  0  0  0  0  0
  144.2536  142.5912  154.3293 N   0  0  0  0  0  0  0  0  0  0  0  0
  144.4075  142.1512  155.5789 C   0  0  0  0  0  0  0  0  0  0  0  0
  143.5462  141.6908  156.3258 O   0  0  0  0  0  0  0  0  0  0  0  0
  143.3915  142.6178  153.8039 H   0  0  0  0  0  0  0  0  0  0  0  0
  153.0162  141.0527  161.7462 H   0  0  0  0  0  0  0  0  0  0  0  0
  154.3654  142.1791  161.6278 H   0  0  0  0  0  0  0  0  0  0  0  0
  154.3569  140.7166  160.6533 H   0  0  0  0  0  0  0  0  0  0  0  0
  153.7645  142.6921  159.2820 H   0  0  0  0  0  0  0  0  0  0  0  0
  151.3527  143.0544  161.1317 H   0  0  0  0  0  0  0  0  0  0  0  0
  151.7427  144.0503  159.7318 H   0  0  0  0  0  0  0  0  0  0  0  0
  152.7902  144.0705  161.1353 H   0  0  0  0  0  0  0  0  0  0  0  0
  152.7583  140.4372  158.8086 H   0  0  0  0  0  0  0  0  0  0  0  0
  151.3320  140.8992  159.6964 H   0  0  0  0  0  0  0  0  0  0  0  0
  150.8785  142.7164  158.0680 H   0  0  0  0  0  0  0  0  0  0  0  0
  152.3721  142.3924  157.2290 H   0  0  0  0  0  0  0  0  0  0  0  0
  150.0847  140.3905  157.5317 H   0  0  0  0  0  0  0  0  0  0  0  0
  152.5908  140.2968  155.8308 H   0  0  0  0  0  0  0  0  0  0  0  0
  152.0144  139.0665  156.9554 H   0  0  0  0  0  0  0  0  0  0  0  0
  151.3988  138.8292  154.3388 H   0  0  0  0  0  0  0  0  0  0  0  0
  150.1550  138.5184  155.5436 H   0  0  0  0  0  0  0  0  0  0  0  0
  150.3682  140.8553  153.7036 H   0  0  0  0  0  0  0  0  0  0  0  0
  148.9480  140.1657  154.4678 H   0  0  0  0  0  0  0  0  0  0  0  0
  150.6911  142.3882  155.3489 H   0  0  0  0  0  0  0  0  0  0  0  0
  148.5656  143.0150  155.9193 H   0  0  0  0  0  0  0  0  0  0  0  0
  145.8769  141.3464  157.6608 H   0  0  0  0  0  0  0  0  0  0  0  0
  146.6398  142.9138  157.6176 H   0  0  0  0  0  0  0  0  0  0  0  0
  147.3366  143.0831  154.6627 H   0  0  0  0  0  0  0  0  0  0  0  0
  1  2  1  0  0  0  0
  1 22  1  0  0  0  0
  1 23  1  0  0  0  0
  1 24  1  0  0  0  0
  2  3  1  0  0  0  0
  2  4  1  0  0  0  0
  2 25  1  0  0  0  0
  3 26  1  0  0  0  0
  3 27  1  0  0  0  0
  3 28  1  0  0  0  0
  4  5  1  0  0  0  0
  4 29  1  0  0  0  0
  4 30  1  0  0  0  0
  5  6  1  0  0  0  0
  5 31  1  0  0  0  0
  5 32  1  0  0  0  0
  6 10  1  0  0  0  0
  6  7  1  0  0  0  0
  6 33  1  0  0  0  0
  7  8  1  0  0  0  0
  7 34  1  0  0  0  0
  7 35  1  0  0  0  0
  8  9  1  0  0  0  0
  8 36  1  0  0  0  0
  8 37  1  0  0  0  0
  9 10  1  0  0  0  0
  9 38  1  0  0  0  0
  9 39  1  0  0  0  0
 10 11  1  0  0  0  0
 10 40  1  0  0  0  0
 11 12  1  0  0  0  0
 11 41  1  0  0  0  0
 12 13  2  0  0  0  0
 12 14  1  0  0  0  0
 14 15  1  0  0  0  0
 14 42  1  0  0  0  0
 14 43  1  0  0  0  0
 15 19  1  0  0  0  0
 15 16  1  0  0  0  0
 16 17  2  0  0  0  0
 16 44  1  0  0  0  0
 17 18  1  0  0  0  0
 18 21  1  0  0  0  0
 18 19  1  0  0  0  0
 19 20  2  0  0  0  0
M  END
> <s_m_source_file>
AV-unprocessed.smi

> <i_m_source_file_index>
2229

> <i_lp_mmshare_version>
43012

> <i_f3d_flags>
0

> <s_epik_input>
W0NIM11bQ0hdKFtDSDNdKVtDSDJdW0NIMl1bQ0BASF0xW0NIMl1bQ0gyXVtDSDJdW0NASF0xW05IXUMoPU8pW0NIMl1uMltjSF1uW25IXWMyPU8=

> <s_epik_cmdline>
J2VwaWtfcHl0aG9uJywgJy1waCcsICc3LjAnLCAnLXRuJywgJzgnLCAnLW1hJywgJzIwMCcsICctbWV0YWxfYmluZGluZycsICctaW1hZScsICc8aW5maWxlLm1hZT4nLCAnLW9tYWUnLCAnPG91dGZpbGUubWFlPic=

> <r_lp_tautomer_probability>
1

> <r_epik_Ionization_Penalty>
4.14174e-05

> <r_epik_Ionization_Penalty_Charging>
4.13165e-05

> <r_epik_Ionization_Penalty_Neutral>
1.00911e-07

> <r_epik_State_Penalty>
-0

> <r_epik_Charging_Adjusted_Penalty>
4.13165e-05

> <i_epik_Tot_Q>
0

> <i_epik_Tot_abs_Q>
0

> <r_epik_Metal_State_Penalty>
0.0399369

> <b_epik_Metal_Only>
0

> <s_lp_Force_Field>
OPLS_2005

> <r_lp_Energy>
36.5056

> <b_lp_Chiralities_Consistent>
1

> <s_lp_Variant>
AV-unprocessed.smi:2229-1

> <Gold.Version>
5.8.1

> <Gold.Id.Protein>
6NUR|6NUR_protein|mol2

> <Gold.PLP.Fitness>
43.1332

> <Gold.PLP.PLP>
-35.4975

> <Gold.PLP.part.hbond>
-2.9677

> <Gold.PLP.part.metal>
0.0000

> <Gold.PLP.part.buried>
-2.5650

> <Gold.PLP.part.nonpolar>
-30.9291

> <Gold.PLP.part.repulsive>
0.3327

> <Gold.PLP.ligand.clash>
0.0000

> <Gold.PLP.ligand.torsion>
0.3700

> <Gold.PLP.Chemscore.Hbond>
1.7840

> <Gold.PLP.Chemscore.CHOScore>
1.0000

> <Gold.PLP.Chemscore.Metal>
0.0000

> <Gold.Chemscore.Hbonds>
donor molecule, donor type, donor heavy atom, donor atom, acceptor molecule, acceptor atom, score
      L1  H    11    41       P1  8028  1.00
      L1  H    18    21       P1 10174  0.70
      L1  C    16    44       P1  8028  1.00

> <Gold.PLP.Chemscore.Internal.Correction>
0.0238

> <Gold.Rescore>
     Score         DG    S(hbond)    S(metal)    S(lipo)     H(rot)  DE(clash)    DE(int)     intcor
     10.43     -13.12       1.38        0.00      83.65       2.64       0.10       2.59       ----

> <Gold.Chemscore.Fitness>
10.4267

> <Gold.Chemscore.DG>
-13.1171

> <Gold.Chemscore.ZeroCoef>
-5.4800

> <Gold.Chemscore.Hbond>
1.3774

> <Gold.Chemscore.Metal>
0.0000

> <Gold.Chemscore.Lipo>
83.6469

> <Gold.Chemscore.Internal_Hbond>
0.0000

> <Gold.Chemscore.DEClash>
0.0975

> <Gold.Chemscore.DEInternal>
2.5929

> <Gold.Chemscore.Rot>
2.6368

> <Gold.Chemscore.Internal.Correction>
   9.000000E+99

> <Gold.Chemscore.Hbonds>
donor molecule, donor type, donor heavy atom, donor atom, acceptor molecule, acceptor atom, score
      L1  H    11    41       P1  8028  0.98
      L1  H    18    21       P1 10174  0.10

> <Gold.Chemscore.Hbond.Weighted>
-4.6005

> <Gold.Chemscore.Metal.Weighted>
-0.0000

> <Gold.Chemscore.Lipo.Weighted>
-9.7867

> <Gold.Chemscore.Internal_Hbond.Weighted>
0.0000

> <Gold.Chemscore.DEClash.Weighted>
0.0975

> <Gold.Chemscore.DEInternal.Weighted>
2.5929

> <Gold.Chemscore.Rot.Weighted>
6.7501

> <Gold.Chemscore.Internal.Correction.Weighted>
   9.000000E+99

> <Gold.Protein.RotatedTorsions>
[ 6907 6896 6895 6894 ] final -122.06 input  -60.11 | X-H torsion
[ 7974 7965 7964 7962 ] final   92.86 input  175.53 | X-H torsion
[ 8008 7997 7996 7995 ] final  -19.68 input   59.86 | X-H torsion
[ 10167 10162 10161 10158 ] final  -21.93 input  -65.29 | X-H torsion
[ 10718 10713 10712 10709 ] final  -85.78 input   66.30 | X-H torsion
[ 10763 10752 10751 10750 ] final -147.94 input  -60.55 | X-H torsion
[ 11005 11000 10999 10996 ] final  153.77 input  -57.11 | X-H torsion

> <Gold.Protein.ActiveResidues>
 VAL166  LYS551  ARG553  GLY616  TRP617  ASP618  TYR619  PRO620  LYS621  CYS622 
 ASP623  PHE694  ASN695  SER759  ASP760  ASP761  ALA762  ILE779  LEU786  VAL792 
 PHE793  MET794  SER795  GLU796  ALA797  LYS798  CYS799  TRP800  GLU811  SER814 

> <Gold.Protein.RotatedAtoms>
  150.8541  133.7742  159.3014 H   0  0  0  0  0  0  0  0  0  0  0  0  # atno 6907 bound_to 6896
  151.5405  135.1067  159.9935 H   0  0  0  0  0  0  0  0  0  0  0  0  # atno 6908 bound_to 6896
  152.4576  133.7711  159.6855 H   0  0  0  0  0  0  0  0  0  0  0  0  # atno 6909 bound_to 6896
  145.4867  139.2277  143.2853 H   0  0  0  0  0  0  0  0  0  0  0  0  # atno 7974 bound_to 7965
  154.4820  140.2082  155.9742 H   0  0  0  0  0  0  0  0  0  0  0  0  # atno 8008 bound_to 7997
  156.1179  140.3218  155.8135 H   0  0  0  0  0  0  0  0  0  0  0  0  # atno 8009 bound_to 7997
  155.4519  140.0517  157.2991 H   0  0  0  0  0  0  0  0  0  0  0  0  # atno 8010 bound_to 7997
  140.7284  143.4581  151.0419 H   0  0  0  0  0  0  0  0  0  0  0  0  # atno 10167 bound_to 10162
  155.9994  130.4742  150.4614 H   0  0  0  0  0  0  0  0  0  0  0  0  # atno 10718 bound_to 10713
  154.8259  135.3347  154.6897 H   0  0  0  0  0  0  0  0  0  0  0  0  # atno 10763 bound_to 10752
  153.7523  135.6938  153.4947 H   0  0  0  0  0  0  0  0  0  0  0  0  # atno 10764 bound_to 10752
  153.2168  135.4463  155.0393 H   0  0  0  0  0  0  0  0  0  0  0  0  # atno 10765 bound_to 10752
  140.1428  134.8727  157.2353 H   0  0  0  0  0  0  0  0  0  0  0  0  # atno 11005 bound_to 11000
  146.2309  140.5657  142.8976 LP  0  0  0  0  0  0  0  0  0  0  0  0  # atno 17320 bound_to 7965
  144.7858  140.5932  143.6575 LP  0  0  0  0  0  0  0  0  0  0  0  0  # atno 17321 bound_to 7965
  139.8263  143.7751  152.3178 LP  0  0  0  0  0  0  0  0  0  0  0  0  # atno 17342 bound_to 10162
  139.7851  144.7430  151.0033 LP  0  0  0  0  0  0  0  0  0  0  0  0  # atno 17343 bound_to 10162
  157.2638  131.0572  151.2303 LP  0  0  0  0  0  0  0  0  0  0  0  0  # atno 17370 bound_to 10713
  157.3408  130.7032  149.6380 LP  0  0  0  0  0  0  0  0  0  0  0  0  # atno 17371 bound_to 10713
  140.2701  134.3470  155.7376 LP  0  0  0  0  0  0  0  0  0  0  0  0  # atno 17394 bound_to 11000
  141.2188  133.7418  156.9209 LP  0  0  0  0  0  0  0  0  0  0  0  0  # atno 17395 bound_to 11000

$$$$
