AV-unprocessed.smi:2575|AV-procd|sdf|10117|dock1
  -GOLD-   2272014133D 1   1.00000     0.00000
 Structure written by MMmdl.
 31 32  0  0  0  0  0  0  0  0  1 V2000
  145.7788  142.7529  153.8761 C   0  0  0  0  0  0  0  0  0  0  0  0
  147.1221  142.2143  154.3734 C   0  0  0  0  0  0  0  0  0  0  0  0
  147.2037  140.8329  154.0659 O   0  0  0  0  0  0  0  0  0  0  0  0
  148.0403  140.1176  154.9622 C   0  0  0  0  0  0  0  0  0  0  0  0
  149.5127  140.4993  154.7380 C   0  0  1  0  0  0  0  0  0  0  0  0
  149.6966  140.8780  153.3876 O   0  0  0  0  0  0  0  0  0  0  0  0
  150.0226  141.5873  155.7040 C   0  0  0  0  0  0  0  0  0  0  0  0
  151.0576  141.0964  156.5963 N   0  0  0  0  0  0  0  0  0  0  0  0
  151.7695  139.9876  156.2476 N   0  0  0  0  0  0  0  0  0  0  0  0
  152.6323  139.7350  157.1861 N   0  0  0  0  0  0  0  0  0  0  0  0
  152.4862  140.6959  158.1726 C   0  0  0  0  0  0  0  0  0  0  0  0
  153.1566  140.8958  159.3998 C   0  0  0  0  0  0  0  0  0  0  0  0
  152.8069  141.9785  160.2365 C   0  0  0  0  0  0  0  0  0  0  0  0
  153.6486  142.1885  161.7309 Cl  0  0  0  0  0  0  0  0  0  0  0  0
  151.7812  142.8760  159.8527 C   0  0  0  0  0  0  0  0  0  0  0  0
  151.3434  144.2072  160.8633 Cl  0  0  0  0  0  0  0  0  0  0  0  0
  151.1034  142.6883  158.6314 C   0  0  0  0  0  0  0  0  0  0  0  0
  151.4651  141.6032  157.8149 C   0  0  0  0  0  0  0  0  0  0  0  0
  145.6793  143.8158  154.0974 H   0  0  0  0  0  0  0  0  0  0  0  0
  144.9481  142.2324  154.3534 H   0  0  0  0  0  0  0  0  0  0  0  0
  145.6804  142.6245  152.7979 H   0  0  0  0  0  0  0  0  0  0  0  0
  147.9398  142.7557  153.8953 H   0  0  0  0  0  0  0  0  0  0  0  0
  147.2081  142.3665  155.4502 H   0  0  0  0  0  0  0  0  0  0  0  0
  147.7582  140.3736  155.9847 H   0  0  0  0  0  0  0  0  0  0  0  0
  147.8994  139.0409  154.8514 H   0  0  0  0  0  0  0  0  0  0  0  0
  150.1103  139.5982  154.8817 H   0  0  0  0  0  0  0  0  0  0  0  0
  149.4624  140.1472  152.8357 H   0  0  0  0  0  0  0  0  0  0  0  0
  150.4222  142.4379  155.1506 H   0  0  0  0  0  0  0  0  0  0  0  0
  149.1985  141.9704  156.3078 H   0  0  0  0  0  0  0  0  0  0  0  0
  153.9406  140.2153  159.6979 H   0  0  0  0  0  0  0  0  0  0  0  0
  150.3195  143.3660  158.3264 H   0  0  0  0  0  0  0  0  0  0  0  0
  1  2  1  0  0  0  0
  1 19  1  0  0  0  0
  1 20  1  0  0  0  0
  1 21  1  0  0  0  0
  2  3  1  0  0  0  0
  2 22  1  0  0  0  0
  2 23  1  0  0  0  0
  3  4  1  0  0  0  0
  4  5  1  0  0  0  0
  4 24  1  0  0  0  0
  4 25  1  0  0  0  0
  5  6  1  0  0  0  0
  5  7  1  0  0  0  0
  5 26  1  0  0  0  0
  6 27  1  0  0  0  0
  7  8  1  0  0  0  0
  7 28  1  0  0  0  0
  7 29  1  0  0  0  0
  8 18  1  0  0  0  0
  8  9  1  0  0  0  0
  9 10  2  0  0  0  0
 10 11  1  0  0  0  0
 11 18  2  0  0  0  0
 11 12  1  0  0  0  0
 12 13  2  0  0  0  0
 12 30  1  0  0  0  0
 13 14  1  0  0  0  0
 13 15  1  0  0  0  0
 15 16  1  0  0  0  0
 15 17  2  0  0  0  0
 17 18  1  0  0  0  0
 17 31  1  0  0  0  0
M  END
> <s_m_source_file>
AV-unprocessed.smi

> <i_m_source_file_index>
2575

> <i_lp_mmshare_version>
43012

> <i_f3d_flags>
0

> <s_epik_input>
W0NIM11bQ0gyXU9bQ0gyXVtDQEhdKFtPSF0pW0NIMl1uKG5uMSljKGMxMilbY0hdYyhDbCljKENsKVtjSF0y

> <s_epik_cmdline>
J2VwaWtfcHl0aG9uJywgJy1waCcsICc3LjAnLCAnLXRuJywgJzgnLCAnLW1hJywgJzIwMCcsICctbWV0YWxfYmluZGluZycsICctaW1hZScsICc8aW5maWxlLm1hZT4nLCAnLW9tYWUnLCAnPG91dGZpbGUubWFlPic=

> <r_lp_tautomer_probability>
1

> <r_epik_Ionization_Penalty>
2.39516e-06

> <r_epik_Ionization_Penalty_Charging>
0

> <r_epik_Ionization_Penalty_Neutral>
2.39516e-06

> <r_epik_State_Penalty>
-0

> <r_epik_Charging_Adjusted_Penalty>
0

> <i_epik_Tot_Q>
0

> <i_epik_Tot_abs_Q>
0

> <r_epik_Metal_State_Penalty>
-0

> <b_epik_Metal_Only>
0

> <s_lp_Force_Field>
OPLS_2005

> <r_lp_Energy>
8.42798

> <b_lp_Chiralities_Consistent>
1

> <s_lp_Variant>
AV-unprocessed.smi:2575-2

> <Gold.Version>
5.8.1

> <Gold.Id.Protein>
6NUR|6NUR_protein|mol2

> <Gold.PLP.Fitness>
46.0616

> <Gold.PLP.PLP>
-41.0022

> <Gold.PLP.part.hbond>
-3.4092

> <Gold.PLP.part.metal>
0.0000

> <Gold.PLP.part.buried>
-3.6184

> <Gold.PLP.part.nonpolar>
-31.9066

> <Gold.PLP.part.repulsive>
0.1453

> <Gold.PLP.ligand.clash>
0.0000

> <Gold.PLP.ligand.torsion>
1.6861

> <Gold.PLP.Chemscore.Hbond>
2.7840

> <Gold.PLP.Chemscore.CHOScore>
0.0000

> <Gold.PLP.Chemscore.Metal>
0.0000

> <Gold.Chemscore.Hbonds>
donor molecule, donor type, donor heavy atom, donor atom, acceptor molecule, acceptor atom, score
      L1  H     6    27       P1  7957  0.54
      P1  H  7989  7998       L1     6  0.22
      P1  H  7997  8008       L1    10  1.00
      P1  H  8011  8017       L1     6  1.00

> <Gold.PLP.Chemscore.Internal.Correction>
0.0795

> <Gold.Rescore>
     Score         DG    S(hbond)    S(metal)    S(lipo)     H(rot)  DE(clash)    DE(int)     intcor
     17.31     -19.05       1.95        0.00     108.36       2.19       0.22       1.53       ----

> <Gold.Chemscore.Fitness>
17.3091

> <Gold.Chemscore.DG>
-19.0539

> <Gold.Chemscore.ZeroCoef>
-5.4800

> <Gold.Chemscore.Hbond>
1.9469

> <Gold.Chemscore.Metal>
0.0000

> <Gold.Chemscore.Lipo>
108.3584

> <Gold.Chemscore.Internal_Hbond>
0.0000

> <Gold.Chemscore.DEClash>
0.2194

> <Gold.Chemscore.DEInternal>
1.5254

> <Gold.Chemscore.Rot>
2.1901

> <Gold.Chemscore.Internal.Correction>
   9.000000E+99

> <Gold.Chemscore.Hbonds>
donor molecule, donor type, donor heavy atom, donor atom, acceptor molecule, acceptor atom, score
      L1  H     6    27       P1  7957  0.54
      P1  H  7989  7998       L1     6  0.02
      P1  H  7997  8008       L1    10  0.23
      P1  H  8011  8017       L1     6  0.65

> <Gold.Chemscore.Hbond.Weighted>
-6.5025

> <Gold.Chemscore.Metal.Weighted>
-0.0000

> <Gold.Chemscore.Lipo.Weighted>
-12.6779

> <Gold.Chemscore.Internal_Hbond.Weighted>
0.0000

> <Gold.Chemscore.DEClash.Weighted>
0.2194

> <Gold.Chemscore.DEInternal.Weighted>
1.5254

> <Gold.Chemscore.Rot.Weighted>
5.6066

> <Gold.Chemscore.Internal.Correction.Weighted>
   9.000000E+99

> <Gold.Protein.RotatedTorsions>
[ 6907 6896 6895 6894 ] final  -29.50 input  -60.11 | X-H torsion
[ 7974 7965 7964 7962 ] final  -82.66 input  175.53 | X-H torsion
[ 8008 7997 7996 7995 ] final  -52.51 input   59.86 | X-H torsion
[ 10167 10162 10161 10158 ] final  109.75 input  -65.29 | X-H torsion
[ 10718 10713 10712 10709 ] final   94.48 input   66.30 | X-H torsion
[ 10763 10752 10751 10750 ] final  105.75 input  -60.55 | X-H torsion
[ 11005 11000 10999 10996 ] final   -3.53 input  -57.11 | X-H torsion

> <Gold.Protein.ActiveResidues>
 VAL166  LYS551  ARG553  GLY616  TRP617  ASP618  TYR619  PRO620  LYS621  CYS622 
 ASP623  PHE694  ASN695  SER759  ASP760  ASP761  ALA762  ILE779  LEU786  VAL792 
 PHE793  MET794  SER795  GLU796  ALA797  LYS798  CYS799  TRP800  GLU811  SER814 

> <Gold.Protein.RotatedAtoms>
  151.1183  135.0065  159.8526 H   0  0  0  0  0  0  0  0  0  0  0  0  # atno 6907 bound_to 6896
  152.5446  134.1753  159.8623 H   0  0  0  0  0  0  0  0  0  0  0  0  # atno 6908 bound_to 6896
  151.1809  133.4681  159.2627 H   0  0  0  0  0  0  0  0  0  0  0  0  # atno 6909 bound_to 6896
  145.5303  140.9522  143.1606 H   0  0  0  0  0  0  0  0  0  0  0  0  # atno 7974 bound_to 7965
  154.4108  140.1222  156.5003 H   0  0  0  0  0  0  0  0  0  0  0  0  # atno 8008 bound_to 7997
  155.6902  140.3495  155.4871 H   0  0  0  0  0  0  0  0  0  0  0  0  # atno 8009 bound_to 7997
  155.9476  140.1098  157.0994 H   0  0  0  0  0  0  0  0  0  0  0  0  # atno 8010 bound_to 7997
  139.6742  144.7123  151.1633 H   0  0  0  0  0  0  0  0  0  0  0  0  # atno 10167 bound_to 10162
  157.6947  131.0514  150.4193 H   0  0  0  0  0  0  0  0  0  0  0  0  # atno 10718 bound_to 10713
  153.3836  135.3899  155.1874 H   0  0  0  0  0  0  0  0  0  0  0  0  # atno 10763 bound_to 10752
  154.8710  135.3731  154.4826 H   0  0  0  0  0  0  0  0  0  0  0  0  # atno 10764 bound_to 10752
  153.5306  135.7086  153.5746 H   0  0  0  0  0  0  0  0  0  0  0  0  # atno 10765 bound_to 10752
  140.6703  133.9242  155.8490 H   0  0  0  0  0  0  0  0  0  0  0  0  # atno 11005 bound_to 11000
  144.7629  139.6914  143.7227 LP  0  0  0  0  0  0  0  0  0  0  0  0  # atno 17320 bound_to 7965
  146.2048  139.5365  142.9719 LP  0  0  0  0  0  0  0  0  0  0  0  0  # atno 17321 bound_to 7965
  140.7629  143.5798  150.8907 LP  0  0  0  0  0  0  0  0  0  0  0  0  # atno 17342 bound_to 10162
  139.9465  143.6321  152.3040 LP  0  0  0  0  0  0  0  0  0  0  0  0  # atno 17343 bound_to 10162
  156.4569  130.4023  149.6600 LP  0  0  0  0  0  0  0  0  0  0  0  0  # atno 17370 bound_to 10713
  156.3729  130.7540  151.2525 LP  0  0  0  0  0  0  0  0  0  0  0  0  # atno 17371 bound_to 10713
  141.0397  134.0639  157.3917 LP  0  0  0  0  0  0  0  0  0  0  0  0  # atno 17394 bound_to 11000
  139.8984  135.0154  156.7145 LP  0  0  0  0  0  0  0  0  0  0  0  0  # atno 17395 bound_to 11000

$$$$
