AV-unprocessed.smi:264|AV-procd|sdf|2014|dock7
  -GOLD-   2262021213D 1   1.00000     0.00000
 Structure written by MMmdl.
 52 56  0  0  0  0  0  0  0  0  1 V2000
  146.8844  133.2465  152.0796 C   0  0  0  0  0  0  0  0  0  0  0  0
  146.1555  133.5040  150.7512 C   0  0  1  0  0  0  0  0  0  0  0  0
  145.8391  132.2370  150.1794 O   0  0  0  0  0  0  0  0  0  0  0  0
  144.6521  132.3616  149.4167 C   0  0  0  0  0  0  0  0  0  0  0  0
  143.7990  133.2692  150.2892 C   0  0  0  0  0  0  0  0  0  0  0  0
  144.8093  134.2794  150.8270 C   0  0  2  0  0  0  0  0  0  0  0  0
  144.8787  135.3535  149.9044 O   0  0  0  0  0  0  0  0  0  0  0  0
  144.4273  134.8613  152.2136 C   0  0  0  0  0  0  0  0  0  0  0  0
  145.3703  135.8539  152.7068 N   0  0  0  0  0  0  0  0  0  0  0  0
  145.5048  137.1526  152.2704 C   0  0  0  0  0  0  0  0  0  0  0  0
  146.4246  137.8517  152.8771 N   0  0  0  0  0  0  0  0  0  0  0  0
  146.9642  136.9695  153.8058 C   0  0  0  0  0  0  0  0  0  0  0  0
  147.9841  137.0726  154.7932 C   0  0  0  0  0  0  0  0  0  0  0  0
  148.6960  138.2105  154.9917 N   0  0  0  0  0  0  0  0  0  0  0  0
  148.5671  139.2063  153.9356 C   0  0  0  0  0  0  0  0  0  0  0  0
  149.0984  140.5601  154.4262 C   0  0  0  0  0  0  0  0  0  0  0  0
  150.4321  140.4225  154.9148 O   0  0  0  0  0  0  0  0  0  0  0  0
  150.6011  139.4562  155.9600 C   0  0  2  0  0  0  0  0  0  0  0  0
  150.0243  139.9348  157.2891 C   0  0  0  0  0  0  0  0  0  0  0  0
  151.1045  140.8862  157.7811 C   0  0  0  0  0  0  0  0  0  0  0  0
  152.3157  140.2344  157.4303 O   0  0  0  0  0  0  0  0  0  0  0  0
  152.1033  139.4115  156.2850 C   0  0  0  0  0  0  0  0  0  0  0  0
  150.0626  138.0876  155.4902 C   0  0  0  0  0  0  0  0  0  0  0  0
  148.2302  135.9728  155.5548 N   0  0  0  0  0  0  0  0  0  0  0  0
  147.5342  134.8484  155.3620 C   0  0  0  0  0  0  0  0  0  0  0  0
  146.5610  134.6102  154.4811 N   0  0  0  0  0  0  0  0  0  0  0  0
  146.3060  135.7102  153.7165 C   0  0  0  0  0  0  0  0  0  0  0  0
  147.1686  134.1793  152.5668 H   0  0  0  0  0  0  0  0  0  0  0  0
  147.7985  132.6768  151.9109 H   0  0  0  0  0  0  0  0  0  0  0  0
  146.2676  132.6724  152.7713 H   0  0  0  0  0  0  0  0  0  0  0  0
  146.8472  134.0079  150.0733 H   0  0  0  0  0  0  0  0  0  0  0  0
  144.8748  132.8306  148.4570 H   0  0  0  0  0  0  0  0  0  0  0  0
  144.1873  131.3930  149.2322 H   0  0  0  0  0  0  0  0  0  0  0  0
  142.9634  133.7213  149.7526 H   0  0  0  0  0  0  0  0  0  0  0  0
  143.3872  132.6783  151.1083 H   0  0  0  0  0  0  0  0  0  0  0  0
  145.4968  135.1268  149.2265 H   0  0  0  0  0  0  0  0  0  0  0  0
  143.4465  135.3359  152.1715 H   0  0  0  0  0  0  0  0  0  0  0  0
  144.3527  134.0636  152.9537 H   0  0  0  0  0  0  0  0  0  0  0  0
  144.8954  137.5690  151.4814 H   0  0  0  0  0  0  0  0  0  0  0  0
  149.1388  138.8752  153.0674 H   0  0  0  0  0  0  0  0  0  0  0  0
  147.5334  139.3169  153.6094 H   0  0  0  0  0  0  0  0  0  0  0  0
  149.1009  141.2766  153.6052 H   0  0  0  0  0  0  0  0  0  0  0  0
  148.4441  140.9757  155.1917 H   0  0  0  0  0  0  0  0  0  0  0  0
  149.0436  140.4030  157.2231 H   0  0  0  0  0  0  0  0  0  0  0  0
  149.9392  139.0981  157.9837 H   0  0  0  0  0  0  0  0  0  0  0  0
  151.0441  141.8417  157.2580 H   0  0  0  0  0  0  0  0  0  0  0  0
  151.0465  141.0761  158.8530 H   0  0  0  0  0  0  0  0  0  0  0  0
  152.4199  138.4005  156.5443 H   0  0  0  0  0  0  0  0  0  0  0  0
  152.7176  139.7410  155.4463 H   0  0  0  0  0  0  0  0  0  0  0  0
  150.1044  137.3679  156.3092 H   0  0  0  0  0  0  0  0  0  0  0  0
  150.6946  137.6995  154.6898 H   0  0  0  0  0  0  0  0  0  0  0  0
  147.7948  134.0213  156.0057 H   0  0  0  0  0  0  0  0  0  0  0  0
  1  2  1  0  0  0  0
  1 28  1  0  0  0  0
  1 29  1  0  0  0  0
  1 30  1  0  0  0  0
  2  6  1  0  0  0  0
  2  3  1  0  0  0  0
  2 31  1  0  0  0  0
  3  4  1  0  0  0  0
  4  5  1  0  0  0  0
  4 32  1  0  0  0  0
  4 33  1  0  0  0  0
  5  6  1  0  0  0  0
  5 34  1  0  0  0  0
  5 35  1  0  0  0  0
  6  7  1  0  0  0  0
  6  8  1  0  0  0  0
  7 36  1  0  0  0  0
  8  9  1  0  0  0  0
  8 37  1  0  0  0  0
  8 38  1  0  0  0  0
  9 27  1  0  0  0  0
  9 10  1  0  0  0  0
 10 11  2  0  0  0  0
 10 39  1  0  0  0  0
 11 12  1  0  0  0  0
 12 27  2  0  0  0  0
 12 13  1  0  0  0  0
 13 14  1  0  0  0  0
 13 24  2  0  0  0  0
 14 23  1  0  0  0  0
 14 15  1  0  0  0  0
 15 16  1  0  0  0  0
 15 40  1  0  0  0  0
 15 41  1  0  0  0  0
 16 17  1  0  0  0  0
 16 42  1  0  0  0  0
 16 43  1  0  0  0  0
 17 18  1  0  0  0  0
 18 22  1  0  0  0  0
 18 19  1  0  0  0  0
 18 23  1  0  0  0  0
 19 20  1  0  0  0  0
 19 44  1  0  0  0  0
 19 45  1  0  0  0  0
 20 21  1  0  0  0  0
 20 46  1  0  0  0  0
 20 47  1  0  0  0  0
 21 22  1  0  0  0  0
 22 48  1  0  0  0  0
 22 49  1  0  0  0  0
 23 50  1  0  0  0  0
 23 51  1  0  0  0  0
 24 25  1  0  0  0  0
 25 26  2  0  0  0  0
 25 52  1  0  0  0  0
 26 27  1  0  0  0  0
M  END
> <s_m_source_file>
AV-unprocessed.smi

> <i_m_source_file_index>
264

> <i_lp_mmshare_version>
43012

> <i_f3d_flags>
0

> <s_epik_input>
W0NIMl0xW0NIMl1PW0NAQEhdKFtDSDNdKVtDQEBdMShbT0hdKVtDSDJdbihbY0hdbjIpYyhjMjMpbltjSF1uYzNOKFtDSDJdNClbQ0gyXVtDSDJdT1tDQF00NVtDSDJdW0NIMl1PW0NIMl01

> <s_epik_cmdline>
J2VwaWtfcHl0aG9uJywgJy1waCcsICc3LjAnLCAnLXRuJywgJzgnLCAnLW1hJywgJzIwMCcsICctbWV0YWxfYmluZGluZycsICctaW1hZScsICc8aW5maWxlLm1hZT4nLCAnLW9tYWUnLCAnPG91dGZpbGUubWFlPic=

> <r_lp_tautomer_probability>
1

> <r_epik_Ionization_Penalty>
0.00539389

> <r_epik_Ionization_Penalty_Charging>
0

> <r_epik_Ionization_Penalty_Neutral>
0.00539389

> <r_epik_State_Penalty>
0.00375441

> <r_epik_Charging_Adjusted_Penalty>
0.00375441

> <i_epik_Tot_Q>
0

> <i_epik_Tot_abs_Q>
0

> <r_epik_Metal_State_Penalty>
-0

> <b_epik_Metal_Only>
0

> <s_lp_Force_Field>
OPLS_2005

> <r_lp_Energy>
54.0321

> <b_lp_Chiralities_Consistent>
1

> <s_lp_Variant>
AV-unprocessed.smi:264-8

> <Gold.Version>
5.8.1

> <Gold.Id.Protein>
6NUR|6NUR_protein|mol2

> <Gold.PLP.Fitness>
40.7524

> <Gold.PLP.PLP>
-31.5826

> <Gold.PLP.part.hbond>
-3.0000

> <Gold.PLP.part.metal>
0.0000

> <Gold.PLP.part.buried>
0.0425

> <Gold.PLP.part.nonpolar>
-28.3969

> <Gold.PLP.part.repulsive>
0.7442

> <Gold.PLP.ligand.clash>
0.1128

> <Gold.PLP.ligand.torsion>
0.7121

> <Gold.PLP.Chemscore.Hbond>
2.4752

> <Gold.PLP.Chemscore.CHOScore>
1.0000

> <Gold.PLP.Chemscore.Metal>
0.0000

> <Gold.Chemscore.Hbonds>
donor molecule, donor type, donor heavy atom, donor atom, acceptor molecule, acceptor atom, score
      L1  H     7    36       P1  7921  1.00
      P1  H  7989  7998       L1    17  1.00
      P1  H  7997  8008       L1    21  0.09
      L1  C    10    39       P1 10171  1.00

> <Gold.PLP.Chemscore.Internal.Correction>
0.2811

> <Gold.Rescore>
     Score         DG    S(hbond)    S(metal)    S(lipo)     H(rot)  DE(clash)    DE(int)     intcor
     10.16     -16.16       1.86        0.00      84.33       2.11       1.46       4.53       ----

> <Gold.Chemscore.Fitness>
10.1647

> <Gold.Chemscore.DG>
-16.1568

> <Gold.Chemscore.ZeroCoef>
-5.4800

> <Gold.Chemscore.Hbond>
1.8571

> <Gold.Chemscore.Metal>
0.0000

> <Gold.Chemscore.Lipo>
84.3264

> <Gold.Chemscore.Internal_Hbond>
0.0000

> <Gold.Chemscore.DEClash>
1.4633

> <Gold.Chemscore.DEInternal>
4.5287

> <Gold.Chemscore.Rot>
2.1063

> <Gold.Chemscore.Internal.Correction>
   9.000000E+99

> <Gold.Chemscore.Hbonds>
donor molecule, donor type, donor heavy atom, donor atom, acceptor molecule, acceptor atom, score
      L1  H     7    36       P1  7921  1.00
      P1  H  7989  7998       L1    17  0.63

> <Gold.Chemscore.Hbond.Weighted>
-6.2027

> <Gold.Chemscore.Metal.Weighted>
-0.0000

> <Gold.Chemscore.Lipo.Weighted>
-9.8662

> <Gold.Chemscore.Internal_Hbond.Weighted>
0.0000

> <Gold.Chemscore.DEClash.Weighted>
1.4633

> <Gold.Chemscore.DEInternal.Weighted>
4.5287

> <Gold.Chemscore.Rot.Weighted>
5.3921

> <Gold.Chemscore.Internal.Correction.Weighted>
   9.000000E+99

> <Gold.Protein.RotatedTorsions>
[ 6907 6896 6895 6894 ] final -152.28 input  -60.11 | X-H torsion
[ 7974 7965 7964 7962 ] final    0.72 input  175.53 | X-H torsion
[ 8008 7997 7996 7995 ] final  -75.23 input   59.86 | X-H torsion
[ 10167 10162 10161 10158 ] final   91.20 input  -65.29 | X-H torsion
[ 10718 10713 10712 10709 ] final  149.59 input   66.30 | X-H torsion
[ 10763 10752 10751 10750 ] final  -40.22 input  -60.55 | X-H torsion
[ 11005 11000 10999 10996 ] final  -65.71 input  -57.11 | X-H torsion

> <Gold.Protein.ActiveResidues>
 VAL166  LYS551  ARG553  GLY616  TRP617  ASP618  TYR619  PRO620  LYS621  CYS622 
 ASP623  PHE694  ASN695  SER759  ASP760  ASP761  ALA762  ILE779  LEU786  VAL792 
 PHE793  MET794  SER795  GLU796  ALA797  LYS798  CYS799  TRP800  GLU811  SER814 

> <Gold.Protein.RotatedAtoms>
  151.2254  133.4479  159.2601 H   0  0  0  0  0  0  0  0  0  0  0  0  # atno 6907 bound_to 6896
  151.0845  134.9878  159.8382 H   0  0  0  0  0  0  0  0  0  0  0  0  # atno 6908 bound_to 6896
  152.5428  134.2192  159.8833 H   0  0  0  0  0  0  0  0  0  0  0  0  # atno 6909 bound_to 6896
  146.2436  140.1096  142.8344 H   0  0  0  0  0  0  0  0  0  0  0  0  # atno 7974 bound_to 7965
  154.5399  140.0747  156.8492 H   0  0  0  0  0  0  0  0  0  0  0  0  # atno 8008 bound_to 7997
  155.3202  140.3395  155.4223 H   0  0  0  0  0  0  0  0  0  0  0  0  # atno 8009 bound_to 7997
  156.1864  140.1670  156.8163 H   0  0  0  0  0  0  0  0  0  0  0  0  # atno 8010 bound_to 7997
  139.8398  144.6647  150.9297 H   0  0  0  0  0  0  0  0  0  0  0  0  # atno 10167 bound_to 10162
  157.2942  131.0859  151.1439 H   0  0  0  0  0  0  0  0  0  0  0  0  # atno 10718 bound_to 10713
  153.9424  135.6760  153.4744 H   0  0  0  0  0  0  0  0  0  0  0  0  # atno 10763 bound_to 10752
  153.0925  135.4867  154.8713 H   0  0  0  0  0  0  0  0  0  0  0  0  # atno 10764 bound_to 10752
  154.7370  135.3151  154.8753 H   0  0  0  0  0  0  0  0  0  0  0  0  # atno 10765 bound_to 10752
  141.1462  133.6686  156.6027 H   0  0  0  0  0  0  0  0  0  0  0  0  # atno 11005 bound_to 11000
  145.0499  140.9009  143.5002 LP  0  0  0  0  0  0  0  0  0  0  0  0  # atno 17320 bound_to 7965
  145.1192  139.2705  143.5597 LP  0  0  0  0  0  0  0  0  0  0  0  0  # atno 17321 bound_to 7965
  140.7799  143.3923  151.1289 LP  0  0  0  0  0  0  0  0  0  0  0  0  # atno 17342 bound_to 10162
  139.7570  143.8692  152.3091 LP  0  0  0  0  0  0  0  0  0  0  0  0  # atno 17343 bound_to 10162
  157.2824  130.6756  149.6072 LP  0  0  0  0  0  0  0  0  0  0  0  0  # atno 17370 bound_to 10713
  155.9668  130.4446  150.5467 LP  0  0  0  0  0  0  0  0  0  0  0  0  # atno 17371 bound_to 10713
  140.3676  134.7634  157.4576 LP  0  0  0  0  0  0  0  0  0  0  0  0  # atno 17394 bound_to 11000
  140.0736  134.5828  155.8615 LP  0  0  0  0  0  0  0  0  0  0  0  0  # atno 17395 bound_to 11000

$$$$
