AV-unprocessed.smi:2816|AV-procd|sdf|10843|dock2
  -GOLD-   2272015283D 1   1.00000     0.00000
 Structure written by MMmdl.
 43 45  0  0  0  0  0  0  0  0  1 V2000
  151.9921  130.0318  155.4072 C   0  0  0  0  0  0  0  0  0  0  0  0
  151.8958  130.9807  156.6145 C   0  0  0  0  0  0  0  0  0  0  0  0
  152.6004  130.3450  157.8268 C   0  0  0  0  0  0  0  0  0  0  0  0
  152.5498  132.3287  156.2591 C   0  0  0  0  0  0  0  0  0  0  0  0
  150.0910  131.2263  156.9999 S   0  0  0  0  0  0  0  0  0  0  0  0
  149.4947  129.9124  157.2898 O   0  0  0  0  0  0  0  0  0  0  0  0
  149.9880  132.2974  158.0037 O   0  0  0  0  0  0  0  0  0  0  0  0
  149.3432  131.8338  155.4864 C   0  0  0  0  0  0  0  0  0  0  0  0
  148.5977  130.9607  154.6687 C   0  0  0  0  0  0  0  0  0  0  0  0
  147.9908  131.4887  153.5141 C   0  0  0  0  0  0  0  0  0  0  0  0
  148.1420  132.8664  153.2270 C   0  0  0  0  0  0  0  0  0  0  0  0
  147.5716  133.4899  152.1078 N   0  0  0  0  0  0  0  0  0  0  0  0
  146.3949  132.9385  151.4450 C   0  0  1  0  0  0  0  0  0  0  0  0
  145.3024  132.4521  152.4044 C   0  0  0  0  0  0  0  0  0  0  0  0
  144.0697  133.2050  151.8849 C   0  0  1  0  0  0  0  0  0  0  0  0
  144.1040  134.6841  152.2885 C   0  0  0  0  0  0  0  0  0  0  0  0
  145.2021  135.2276  151.3769 C   0  0  0  0  0  0  0  0  0  0  0  0
  145.6254  133.9689  150.5988 C   0  0  2  0  0  0  0  0  0  0  0  0
  144.3750  133.3072  150.5036 O   0  0  0  0  0  0  0  0  0  0  0  0
  148.9068  133.6448  154.1227 C   0  0  0  0  0  0  0  0  0  0  0  0
  149.4925  133.1516  155.2338 N   0  0  0  0  0  0  0  0  0  0  0  0
  153.0298  129.8479  155.1268 H   0  0  0  0  0  0  0  0  0  0  0  0
  151.4840  130.4471  154.5364 H   0  0  0  0  0  0  0  0  0  0  0  0
  151.5343  129.0662  155.6240 H   0  0  0  0  0  0  0  0  0  0  0  0
  152.1329  129.4016  158.1104 H   0  0  0  0  0  0  0  0  0  0  0  0
  152.5742  131.0013  158.6965 H   0  0  0  0  0  0  0  0  0  0  0  0
  153.6488  130.1386  157.6091 H   0  0  0  0  0  0  0  0  0  0  0  0
  153.5869  132.1921  155.9512 H   0  0  0  0  0  0  0  0  0  0  0  0
  152.5562  133.0118  157.1075 H   0  0  0  0  0  0  0  0  0  0  0  0
  152.0279  132.8217  155.4384 H   0  0  0  0  0  0  0  0  0  0  0  0
  148.4883  129.9157  154.9175 H   0  0  0  0  0  0  0  0  0  0  0  0
  147.4196  130.8339  152.8738 H   0  0  0  0  0  0  0  0  0  0  0  0
  147.8516  134.4320  151.8745 H   0  0  0  0  0  0  0  0  0  0  0  0
  146.6995  132.1212  150.7901 H   0  0  0  0  0  0  0  0  0  0  0  0
  145.1696  131.3739  152.3095 H   0  0  0  0  0  0  0  0  0  0  0  0
  145.5040  132.6769  153.4530 H   0  0  0  0  0  0  0  0  0  0  0  0
  143.1235  132.7094  152.1030 H   0  0  0  0  0  0  0  0  0  0  0  0
  143.1517  135.1690  152.0711 H   0  0  0  0  0  0  0  0  0  0  0  0
  144.3247  134.8219  153.3475 H   0  0  0  0  0  0  0  0  0  0  0  0
  144.7915  135.9759  150.6980 H   0  0  0  0  0  0  0  0  0  0  0  0
  146.0218  135.6896  151.9271 H   0  0  0  0  0  0  0  0  0  0  0  0
  146.0909  134.1826  149.6363 H   0  0  0  0  0  0  0  0  0  0  0  0
  149.0480  134.7014  153.9468 H   0  0  0  0  0  0  0  0  0  0  0  0
  1  2  1  0  0  0  0
  1 22  1  0  0  0  0
  1 23  1  0  0  0  0
  1 24  1  0  0  0  0
  2  3  1  0  0  0  0
  2  4  1  0  0  0  0
  2  5  1  0  0  0  0
  3 25  1  0  0  0  0
  3 26  1  0  0  0  0
  3 27  1  0  0  0  0
  4 28  1  0  0  0  0
  4 29  1  0  0  0  0
  4 30  1  0  0  0  0
  5  6  2  0  0  0  0
  5  7  2  0  0  0  0
  5  8  1  0  0  0  0
  8 21  1  0  0  0  0
  8  9  2  0  0  0  0
  9 10  1  0  0  0  0
  9 31  1  0  0  0  0
 10 11  2  0  0  0  0
 10 32  1  0  0  0  0
 11 12  1  0  0  0  0
 11 20  1  0  0  0  0
 12 13  1  0  0  0  0
 12 33  1  0  0  0  0
 13 18  1  0  0  0  0
 13 14  1  0  0  0  0
 13 34  1  0  0  0  0
 14 15  1  0  0  0  0
 14 35  1  0  0  0  0
 14 36  1  0  0  0  0
 15 19  1  0  0  0  0
 15 16  1  0  0  0  0
 15 37  1  0  0  0  0
 16 17  1  0  0  0  0
 16 38  1  0  0  0  0
 16 39  1  0  0  0  0
 17 18  1  0  0  0  0
 17 40  1  0  0  0  0
 17 41  1  0  0  0  0
 18 19  1  0  0  0  0
 18 42  1  0  0  0  0
 20 21  2  0  0  0  0
 20 43  1  0  0  0  0
M  END
> <s_m_source_file>
AV-unprocessed.smi

> <i_m_source_file_index>
2816

> <i_lp_mmshare_version>
43012

> <i_f3d_flags>
0

> <s_epik_input>
W0NIM11DKFtDSDNdKShbQ0gzXSlTKD1PKSg9TyljMVtjSF1bY0hdYyhbY0hdbjEpW05IXVtDQEhdKFtDSDJdW0NAQEhdMjMpW0NAQEhdKE8zKVtDSDJdW0NIMl0y

> <s_epik_cmdline>
J2VwaWtfcHl0aG9uJywgJy1waCcsICc3LjAnLCAnLXRuJywgJzgnLCAnLW1hJywgJzIwMCcsICctbWV0YWxfYmluZGluZycsICctaW1hZScsICc8aW5maWxlLm1hZT4nLCAnLW9tYWUnLCAnPG91dGZpbGUubWFlPic=

> <r_lp_tautomer_probability>
1

> <r_epik_Ionization_Penalty>
1.94439e-07

> <r_epik_Ionization_Penalty_Charging>
0

> <r_epik_Ionization_Penalty_Neutral>
1.94439e-07

> <r_epik_State_Penalty>
-0

> <r_epik_Charging_Adjusted_Penalty>
0

> <i_epik_Tot_Q>
0

> <i_epik_Tot_abs_Q>
0

> <r_epik_Metal_State_Penalty>
-0

> <b_epik_Metal_Only>
0

> <s_lp_Force_Field>
OPLS_2005

> <r_lp_Energy>
43.8741

> <b_lp_Chiralities_Consistent>
1

> <s_lp_Variant>
AV-unprocessed.smi:2816-2

> <Gold.Version>
5.8.1

> <Gold.Id.Protein>
6NUR|6NUR_protein|mol2

> <Gold.PLP.Fitness>
36.8907

> <Gold.PLP.PLP>
-28.9443

> <Gold.PLP.part.hbond>
-2.0000

> <Gold.PLP.part.metal>
0.0000

> <Gold.PLP.part.buried>
-2.6320

> <Gold.PLP.part.nonpolar>
-24.1192

> <Gold.PLP.part.repulsive>
0.2102

> <Gold.PLP.ligand.clash>
0.0000

> <Gold.PLP.ligand.torsion>
1.5604

> <Gold.PLP.Chemscore.Hbond>
2.0000

> <Gold.PLP.Chemscore.CHOScore>
0.9473

> <Gold.PLP.Chemscore.Metal>
0.0000

> <Gold.Chemscore.Hbonds>
donor molecule, donor type, donor heavy atom, donor atom, acceptor molecule, acceptor atom, score
      L1  H    12    33       P1  7948  0.80
      P1  H  6896  6908       L1     7  1.00
      L1  C    20    43       P1  7948  0.95

> <Gold.PLP.Chemscore.Internal.Correction>
2.2251

> <Gold.Rescore>
     Score         DG    S(hbond)    S(metal)    S(lipo)     H(rot)  DE(clash)    DE(int)     intcor
     15.21     -16.63       1.91        0.00      65.89       1.15       0.05       1.38       ----

> <Gold.Chemscore.Fitness>
15.2061

> <Gold.Chemscore.DG>
-16.6339

> <Gold.Chemscore.ZeroCoef>
-5.4800

> <Gold.Chemscore.Hbond>
1.9106

> <Gold.Chemscore.Metal>
0.0000

> <Gold.Chemscore.Lipo>
65.8904

> <Gold.Chemscore.Internal_Hbond>
0.0000

> <Gold.Chemscore.DEClash>
0.0457

> <Gold.Chemscore.DEInternal>
1.3821

> <Gold.Chemscore.Rot>
1.1471

> <Gold.Chemscore.Internal.Correction>
   9.000000E+99

> <Gold.Chemscore.Hbonds>
donor molecule, donor type, donor heavy atom, donor atom, acceptor molecule, acceptor atom, score
      L1  H    12    33       P1  7948  0.13
      P1  H  6896  6908       L1     7  0.95

> <Gold.Chemscore.Hbond.Weighted>
-6.3813

> <Gold.Chemscore.Metal.Weighted>
-0.0000

> <Gold.Chemscore.Lipo.Weighted>
-7.7092

> <Gold.Chemscore.Internal_Hbond.Weighted>
0.0000

> <Gold.Chemscore.DEClash.Weighted>
0.0457

> <Gold.Chemscore.DEInternal.Weighted>
1.3821

> <Gold.Chemscore.Rot.Weighted>
2.9366

> <Gold.Chemscore.Internal.Correction.Weighted>
   9.000000E+99

> <Gold.Protein.RotatedTorsions>
[ 6907 6896 6895 6894 ] final  100.08 input  -60.11 | X-H torsion
[ 7974 7965 7964 7962 ] final -102.45 input  175.53 | X-H torsion
[ 8008 7997 7996 7995 ] final -152.43 input   59.86 | X-H torsion
[ 10167 10162 10161 10158 ] final   93.04 input  -65.29 | X-H torsion
[ 10718 10713 10712 10709 ] final -160.90 input   66.30 | X-H torsion
[ 10763 10752 10751 10750 ] final  -44.07 input  -60.55 | X-H torsion
[ 11005 11000 10999 10996 ] final  130.57 input  -57.11 | X-H torsion

> <Gold.Protein.ActiveResidues>
 VAL166  LYS551  ARG553  GLY616  TRP617  ASP618  TYR619  PRO620  LYS621  CYS622 
 ASP623  PHE694  ASN695  SER759  ASP760  ASP761  ALA762  ILE779  LEU786  VAL792 
 PHE793  MET794  SER795  GLU796  ALA797  LYS798  CYS799  TRP800  GLU811  SER814 

> <Gold.Protein.RotatedAtoms>
  152.5379  134.0330  159.8033 H   0  0  0  0  0  0  0  0  0  0  0  0  # atno 6907 bound_to 6896
  151.0498  133.5626  159.2650 H   0  0  0  0  0  0  0  0  0  0  0  0  # atno 6908 bound_to 6896
  151.2564  135.0647  159.9135 H   0  0  0  0  0  0  0  0  0  0  0  0  # atno 6909 bound_to 6896
  145.2686  140.9291  143.2999 H   0  0  0  0  0  0  0  0  0  0  0  0  # atno 7974 bound_to 7965
  155.6551  140.0716  157.2573 H   0  0  0  0  0  0  0  0  0  0  0  0  # atno 8008 bound_to 7997
  154.4154  140.1726  156.1766 H   0  0  0  0  0  0  0  0  0  0  0  0  # atno 8009 bound_to 7997
  155.9744  140.3359  155.6608 H   0  0  0  0  0  0  0  0  0  0  0  0  # atno 8010 bound_to 7997
  139.8218  144.6728  150.9509 H   0  0  0  0  0  0  0  0  0  0  0  0  # atno 10167 bound_to 10162
  156.5886  130.8760  151.2884 H   0  0  0  0  0  0  0  0  0  0  0  0  # atno 10718 bound_to 10713
  154.0059  135.6687  153.4762 H   0  0  0  0  0  0  0  0  0  0  0  0  # atno 10763 bound_to 10752
  153.0642  135.5010  154.8158 H   0  0  0  0  0  0  0  0  0  0  0  0  # atno 10764 bound_to 10752
  154.7024  135.3081  154.9284 H   0  0  0  0  0  0  0  0  0  0  0  0  # atno 10765 bound_to 10752
  139.9679  134.9585  156.9312 H   0  0  0  0  0  0  0  0  0  0  0  0  # atno 11005 bound_to 11000
  144.9355  139.4249  143.6474 LP  0  0  0  0  0  0  0  0  0  0  0  0  # atno 17320 bound_to 7965
  146.3253  139.8288  142.8912 LP  0  0  0  0  0  0  0  0  0  0  0  0  # atno 17321 bound_to 7965
  140.7813  143.4084  151.1032 LP  0  0  0  0  0  0  0  0  0  0  0  0  # atno 17342 bound_to 10162
  139.7744  143.8446  152.3126 LP  0  0  0  0  0  0  0  0  0  0  0  0  # atno 17343 bound_to 10162
  157.7309  130.9692  150.1855 LP  0  0  0  0  0  0  0  0  0  0  0  0  # atno 17370 bound_to 10713
  156.2569  130.3706  149.8172 LP  0  0  0  0  0  0  0  0  0  0  0  0  # atno 17371 bound_to 10713
  140.5356  134.0771  155.7327 LP  0  0  0  0  0  0  0  0  0  0  0  0  # atno 17394 bound_to 11000
  141.1359  133.9222  157.2434 LP  0  0  0  0  0  0  0  0  0  0  0  0  # atno 17395 bound_to 11000

$$$$
