AV-unprocessed.smi:1401|AV-procd|sdf|5694|dock4
  -GOLD-   22720 5323D 1   1.00000     0.00000
 Structure written by MMmdl.
 48 50  0  0  0  0  0  0  0  0  1 V2000
  146.9554  138.7463  154.6204 C   0  0  0  0  0  0  0  0  0  0  0  0
  148.3112  138.1770  154.9393 C   0  0  0  0  0  0  0  0  0  0  0  0
  148.3505  136.9332  155.2869 N   0  0  0  0  0  0  0  0  0  0  0  0
  149.5459  136.3023  155.5769 N   0  0  0  0  0  0  0  0  0  0  0  0
  149.4019  134.8604  155.8433 C   0  0  0  0  0  0  0  0  0  0  0  0
  149.5339  134.4870  157.3307 C   0  0  0  0  0  0  0  0  0  0  0  0
  150.5491  133.9135  157.7226 O   0  0  0  0  0  0  0  0  0  0  0  0
  148.5352  134.8499  158.1525 N   0  0  0  0  0  0  0  0  0  0  0  0
  148.5369  134.7750  159.6080 C   0  0  2  0  0  0  0  0  0  0  0  0
  148.1037  133.3743  160.0730 C   0  0  0  0  0  0  0  0  0  0  0  0
  147.6137  135.8831  160.1687 C   0  0  1  0  0  0  0  0  0  0  0  0
  146.1022  135.5851  160.0564 C   0  0  0  0  0  0  0  0  0  0  0  0
  145.5893  135.8617  161.4829 C   0  0  1  0  0  0  0  0  0  0  0  0
  146.0431  134.7209  162.4127 C   0  0  0  0  0  0  0  0  0  0  0  0
  147.5516  134.9884  162.5657 C   0  0  0  0  0  0  0  0  0  0  0  0
  147.7688  136.2271  161.6732 C   0  0  2  0  0  0  0  0  0  0  0  0
  146.4861  137.0092  161.9328 C   0  0  0  0  0  0  0  0  0  0  0  0
  150.7682  136.9075  155.5491 C   0  0  0  0  0  0  0  0  0  0  0  0
  151.8126  136.3042  155.7977 O   0  0  0  0  0  0  0  0  0  0  0  0
  150.7143  138.3212  155.1698 C   0  0  0  0  0  0  0  0  0  0  0  0
  151.9735  138.9919  155.1240 C   0  0  0  0  0  0  0  0  0  0  0  0
  152.9854  139.5527  155.0810 N   0  0  0  0  0  0  0  0  0  0  0  0
  149.5486  138.9463  154.8686 C   0  0  0  0  0  0  0  0  0  0  0  0
  149.4407  140.4067  154.4526 C   0  0  0  0  0  0  0  0  0  0  0  0
  146.7177  139.5773  155.2848 H   0  0  0  0  0  0  0  0  0  0  0  0
  146.1655  138.0013  154.7289 H   0  0  0  0  0  0  0  0  0  0  0  0
  146.9220  139.1112  153.5936 H   0  0  0  0  0  0  0  0  0  0  0  0
  148.4490  134.4795  155.4725 H   0  0  0  0  0  0  0  0  0  0  0  0
  150.1651  134.3153  155.2849 H   0  0  0  0  0  0  0  0  0  0  0  0
  147.7354  135.3012  157.7329 H   0  0  0  0  0  0  0  0  0  0  0  0
  149.5543  134.9524  159.9607 H   0  0  0  0  0  0  0  0  0  0  0  0
  148.1056  133.3023  161.1607 H   0  0  0  0  0  0  0  0  0  0  0  0
  148.7778  132.6046  159.6960 H   0  0  0  0  0  0  0  0  0  0  0  0
  147.0982  133.1336  159.7261 H   0  0  0  0  0  0  0  0  0  0  0  0
  147.8211  136.7991  159.6119 H   0  0  0  0  0  0  0  0  0  0  0  0
  145.6338  136.2553  159.3347 H   0  0  0  0  0  0  0  0  0  0  0  0
  145.8893  134.5623  159.7428 H   0  0  0  0  0  0  0  0  0  0  0  0
  144.5192  136.0647  161.5312 H   0  0  0  0  0  0  0  0  0  0  0  0
  145.5430  134.7836  163.3800 H   0  0  0  0  0  0  0  0  0  0  0  0
  145.8356  133.7365  161.9918 H   0  0  0  0  0  0  0  0  0  0  0  0
  147.7920  135.2216  163.6038 H   0  0  0  0  0  0  0  0  0  0  0  0
  148.1639  134.1348  162.2769 H   0  0  0  0  0  0  0  0  0  0  0  0
  148.6817  136.7761  161.9051 H   0  0  0  0  0  0  0  0  0  0  0  0
  146.3891  137.9035  161.3145 H   0  0  0  0  0  0  0  0  0  0  0  0
  146.3488  137.2822  162.9808 H   0  0  0  0  0  0  0  0  0  0  0  0
  150.4099  140.9045  154.4379 H   0  0  0  0  0  0  0  0  0  0  0  0
  148.8010  140.9565  155.1440 H   0  0  0  0  0  0  0  0  0  0  0  0
  149.0154  140.4881  153.4514 H   0  0  0  0  0  0  0  0  0  0  0  0
  1  2  1  0  0  0  0
  1 25  1  0  0  0  0
  1 26  1  0  0  0  0
  1 27  1  0  0  0  0
  2 23  1  0  0  0  0
  2  3  2  0  0  0  0
  3  4  1  0  0  0  0
  4  5  1  0  0  0  0
  4 18  1  0  0  0  0
  5  6  1  0  0  0  0
  5 28  1  0  0  0  0
  5 29  1  0  0  0  0
  6  7  2  0  0  0  0
  6  8  1  0  0  0  0
  8  9  1  0  0  0  0
  8 30  1  0  0  0  0
  9 10  1  0  0  0  0
  9 11  1  0  0  0  0
  9 31  1  0  0  0  0
 10 32  1  0  0  0  0
 10 33  1  0  0  0  0
 10 34  1  0  0  0  0
 11 16  1  0  0  0  0
 11 12  1  0  0  0  0
 11 35  1  0  0  0  0
 12 13  1  0  0  0  0
 12 36  1  0  0  0  0
 12 37  1  0  0  0  0
 13 17  1  0  0  0  0
 13 14  1  0  0  0  0
 13 38  1  0  0  0  0
 14 15  1  0  0  0  0
 14 39  1  0  0  0  0
 14 40  1  0  0  0  0
 15 16  1  0  0  0  0
 15 41  1  0  0  0  0
 15 42  1  0  0  0  0
 16 17  1  0  0  0  0
 16 43  1  0  0  0  0
 17 44  1  0  0  0  0
 17 45  1  0  0  0  0
 18 19  2  0  0  0  0
 18 20  1  0  0  0  0
 20 21  1  0  0  0  0
 20 23  2  0  0  0  0
 21 22  3  0  0  0  0
 23 24  1  0  0  0  0
 24 46  1  0  0  0  0
 24 47  1  0  0  0  0
 24 48  1  0  0  0  0
M  END
> <s_m_source_file>
AV-unprocessed.smi

> <i_m_source_file_index>
1401

> <i_lp_mmshare_version>
43012

> <i_f3d_flags>
0

> <s_epik_input>
TiNDYyhjMVtDSDNdKWMoPU8pbihuYzFbQ0gzXSlbQ0gyXUMoPU8pW05IXVtDQEhdKFtDSDNdKVtDQEhdKFtDSDJdW0NASF0yMylbQ0BIXShbQ0gyXTMpW0NIMl1bQ0gyXTI=

> <s_epik_cmdline>
J2VwaWtfcHl0aG9uJywgJy1waCcsICc3LjAnLCAnLXRuJywgJzgnLCAnLW1hJywgJzIwMCcsICctbWV0YWxfYmluZGluZycsICctaW1hZScsICc8aW5maWxlLm1hZT4nLCAnLW9tYWUnLCAnPG91dGZpbGUubWFlPic=

> <r_lp_tautomer_probability>
1

> <r_epik_Ionization_Penalty>
2.16501e-08

> <r_epik_Ionization_Penalty_Charging>
2.29436e-11

> <r_epik_Ionization_Penalty_Neutral>
2.16271e-08

> <r_epik_State_Penalty>
-0

> <r_epik_Charging_Adjusted_Penalty>
2.29436e-11

> <i_epik_Tot_Q>
0

> <i_epik_Tot_abs_Q>
0

> <r_epik_Metal_State_Penalty>
-0

> <b_epik_Metal_Only>
0

> <s_lp_Force_Field>
OPLS_2005

> <r_lp_Energy>
65.485

> <b_lp_Chiralities_Consistent>
1

> <s_lp_Variant>
AV-unprocessed.smi:1401-7

> <Gold.Version>
5.8.1

> <Gold.Id.Protein>
6NUR|6NUR_protein|mol2

> <Gold.PLP.Fitness>
42.0874

> <Gold.PLP.PLP>
-35.0226

> <Gold.PLP.part.hbond>
-3.5277

> <Gold.PLP.part.metal>
0.0000

> <Gold.PLP.part.buried>
-4.4597

> <Gold.PLP.part.nonpolar>
-27.6663

> <Gold.PLP.part.repulsive>
0.2326

> <Gold.PLP.ligand.clash>
0.0000

> <Gold.PLP.ligand.torsion>
0.9268

> <Gold.PLP.Chemscore.Hbond>
2.9600

> <Gold.PLP.Chemscore.CHOScore>
0.0000

> <Gold.PLP.Chemscore.Metal>
0.0000

> <Gold.Chemscore.Hbonds>
donor molecule, donor type, donor heavy atom, donor atom, acceptor molecule, acceptor atom, score
      P1  H  6896  6908       L1     7  0.75
      P1  H  7997  8008       L1    22  1.00
      P1  H 10752 10764       L1    19  1.00

> <Gold.PLP.Chemscore.Internal.Correction>
0.0383

> <Gold.Rescore>
     Score         DG    S(hbond)    S(metal)    S(lipo)     H(rot)  DE(clash)    DE(int)     intcor
     20.04     -21.15       2.92        0.00      86.10       1.63       0.15       0.97       ----

> <Gold.Chemscore.Fitness>
20.0358

> <Gold.Chemscore.DG>
-21.1469

> <Gold.Chemscore.ZeroCoef>
-5.4800

> <Gold.Chemscore.Hbond>
2.9226

> <Gold.Chemscore.Metal>
0.0000

> <Gold.Chemscore.Lipo>
86.0975

> <Gold.Chemscore.Internal_Hbond>
0.0000

> <Gold.Chemscore.DEClash>
0.1450

> <Gold.Chemscore.DEInternal>
0.9661

> <Gold.Chemscore.Rot>
1.6281

> <Gold.Chemscore.Internal.Correction>
   9.000000E+99

> <Gold.Chemscore.Hbonds>
donor molecule, donor type, donor heavy atom, donor atom, acceptor molecule, acceptor atom, score
      P1  H  6896  6908       L1     7  0.70
      P1  H  7997  8008       L1    22  1.00
      P1  H 10752 10764       L1    19  1.00

> <Gold.Chemscore.Hbond.Weighted>
-9.7613

> <Gold.Chemscore.Metal.Weighted>
-0.0000

> <Gold.Chemscore.Lipo.Weighted>
-10.0734

> <Gold.Chemscore.Internal_Hbond.Weighted>
0.0000

> <Gold.Chemscore.DEClash.Weighted>
0.1450

> <Gold.Chemscore.DEInternal.Weighted>
0.9661

> <Gold.Chemscore.Rot.Weighted>
4.1678

> <Gold.Chemscore.Internal.Correction.Weighted>
   9.000000E+99

> <Gold.Protein.RotatedTorsions>
[ 6907 6896 6895 6894 ] final  110.47 input  -60.11 | X-H torsion
[ 7974 7965 7964 7962 ] final -167.71 input  175.53 | X-H torsion
[ 8008 7997 7996 7995 ] final  -22.75 input   59.86 | X-H torsion
[ 10167 10162 10161 10158 ] final -165.65 input  -65.29 | X-H torsion
[ 10718 10713 10712 10709 ] final  139.74 input   66.30 | X-H torsion
[ 10763 10752 10751 10750 ] final  -29.58 input  -60.55 | X-H torsion
[ 11005 11000 10999 10996 ] final  -20.87 input  -57.11 | X-H torsion

> <Gold.Protein.ActiveResidues>
 VAL166  LYS551  ARG553  GLY616  TRP617  ASP618  TYR619  PRO620  LYS621  CYS622 
 ASP623  PHE694  ASN695  SER759  ASP760  ASP761  ALA762  ILE779  LEU786  VAL792 
 PHE793  MET794  SER795  GLU796  ALA797  LYS798  CYS799  TRP800  GLU811  SER814 

> <Gold.Protein.RotatedAtoms>
  152.5018  133.8795  159.7339 H   0  0  0  0  0  0  0  0  0  0  0  0  # atno 6907 bound_to 6896
  150.9261  133.6813  159.2828 H   0  0  0  0  0  0  0  0  0  0  0  0  # atno 6908 bound_to 6896
  151.4173  135.0998  159.9656 H   0  0  0  0  0  0  0  0  0  0  0  0  # atno 6909 bound_to 6896
  144.7217  140.2477  143.6283 H   0  0  0  0  0  0  0  0  0  0  0  0  # atno 7974 bound_to 7965
  154.4625  140.1999  156.0205 H   0  0  0  0  0  0  0  0  0  0  0  0  # atno 8008 bound_to 7997
  156.0867  140.3264  155.7734 H   0  0  0  0  0  0  0  0  0  0  0  0  # atno 8009 bound_to 7997
  155.5023  140.0555  157.2928 H   0  0  0  0  0  0  0  0  0  0  0  0  # atno 8010 bound_to 7997
  139.6168  144.0704  152.1895 H   0  0  0  0  0  0  0  0  0  0  0  0  # atno 10167 bound_to 10162
  157.4111  131.1028  151.0453 H   0  0  0  0  0  0  0  0  0  0  0  0  # atno 10718 bound_to 10713
  153.7670  135.6915  153.4914 H   0  0  0  0  0  0  0  0  0  0  0  0  # atno 10763 bound_to 10752
  153.1900  135.4474  155.0136 H   0  0  0  0  0  0  0  0  0  0  0  0  # atno 10764 bound_to 10752
  154.8132  135.3387  154.7181 H   0  0  0  0  0  0  0  0  0  0  0  0  # atno 10765 bound_to 10752
  140.8506  133.7859  155.9962 H   0  0  0  0  0  0  0  0  0  0  0  0  # atno 11005 bound_to 11000
  145.8258  139.2064  143.1911 LP  0  0  0  0  0  0  0  0  0  0  0  0  # atno 17320 bound_to 7965
  146.0474  140.8104  142.9798 LP  0  0  0  0  0  0  0  0  0  0  0  0  # atno 17321 bound_to 7965
  140.0336  144.6062  150.7468 LP  0  0  0  0  0  0  0  0  0  0  0  0  # atno 17342 bound_to 10162
  140.7356  143.2743  151.3791 LP  0  0  0  0  0  0  0  0  0  0  0  0  # atno 17343 bound_to 10162
  157.1417  130.6146  149.5557 LP  0  0  0  0  0  0  0  0  0  0  0  0  # atno 17370 bound_to 10713
  155.9851  130.4879  150.7014 LP  0  0  0  0  0  0  0  0  0  0  0  0  # atno 17371 bound_to 10713
  140.8794  134.2629  157.5151 LP  0  0  0  0  0  0  0  0  0  0  0  0  # atno 17394 bound_to 11000
  139.8704  134.9607  156.4374 LP  0  0  0  0  0  0  0  0  0  0  0  0  # atno 17395 bound_to 11000

$$$$
