AV-unprocessed.smi:994|AV-procd|sdf|4341|dock3
  -GOLD-   22720 2243D 1   1.00000     0.00000
 Structure written by MMmdl.
 37 38  0  0  0  0  0  0  0  0  2 V2000
  153.3141  140.1928  158.4322 O   0  0  0  0  0  0  0  0  0  0  0  0
  152.1290  140.4485  158.6490 C   0  0  0  0  0  0  0  0  0  0  0  0
  151.1577  139.5230  158.6382 N   0  0  0  0  0  0  0  0  0  0  0  0
  151.3404  138.0917  158.4006 C   0  0  2  0  0  0  0  0  0  0  0  0
  152.1389  137.9029  157.0927 C   0  0  0  0  0  0  0  0  0  0  0  0
  151.5327  138.5894  155.8920 C   0  0  0  0  0  0  0  0  0  0  0  0
  151.3598  139.9225  155.5897 C   0  0  0  0  0  0  0  0  0  0  0  0
  150.7590  140.0509  154.3347 N   0  0  0  0  0  0  0  0  0  0  0  0
  150.5925  138.7980  153.9266 C   0  0  0  0  0  0  0  0  0  0  0  0
  151.0282  137.8931  154.8069 N   0  0  0  0  0  0  0  0  0  0  0  0
  149.9675  137.4177  158.2572 C   0  0  0  0  0  0  0  0  0  0  0  0
  149.6962  136.5061  159.0689 O   0  0  0  0  0  0  0  0  0  0  0  0
  149.2136  137.8178  157.3410 O   0  5  0  0  0  0  0  0  0  0  0  0
  151.6891  141.8892  158.9397 C   0  0  0  0  0  0  0  0  0  0  0  0
  151.8741  142.7816  157.6940 C   0  0  0  0  0  0  0  0  0  0  0  0
  151.4470  144.2315  157.9764 C   0  0  0  0  0  0  0  0  0  0  0  0
  152.2061  144.8114  159.1806 C   0  0  0  0  0  0  0  0  0  0  0  0
  152.0351  143.9256  160.4248 C   0  0  0  0  0  0  0  0  0  0  0  0
  152.4623  142.4764  160.1399 C   0  0  0  0  0  0  0  0  0  0  0  0
  151.0074  136.8891  154.6977 H   0  0  0  0  0  0  0  0  0  0  0  0
  150.2165  139.8236  158.8444 H   0  0  0  0  0  0  0  0  0  0  0  0
  151.8854  137.6269  159.2247 H   0  0  0  0  0  0  0  0  0  0  0  0
  153.1522  138.2863  157.2203 H   0  0  0  0  0  0  0  0  0  0  0  0
  152.2399  136.8425  156.8553 H   0  0  0  0  0  0  0  0  0  0  0  0
  151.6254  140.7927  156.1717 H   0  0  0  0  0  0  0  0  0  0  0  0
  150.1503  138.5366  152.9766 H   0  0  0  0  0  0  0  0  0  0  0  0
  150.6277  141.8779  159.1948 H   0  0  0  0  0  0  0  0  0  0  0  0
  152.9175  142.7709  157.3747 H   0  0  0  0  0  0  0  0  0  0  0  0
  151.2927  142.3863  156.8595 H   0  0  0  0  0  0  0  0  0  0  0  0
  151.6215  144.8489  157.0947 H   0  0  0  0  0  0  0  0  0  0  0  0
  150.3741  144.2646  158.1696 H   0  0  0  0  0  0  0  0  0  0  0  0
  153.2659  144.8976  158.9370 H   0  0  0  0  0  0  0  0  0  0  0  0
  151.8538  145.8213  159.3918 H   0  0  0  0  0  0  0  0  0  0  0  0
  152.6199  144.3292  161.2516 H   0  0  0  0  0  0  0  0  0  0  0  0
  150.9929  143.9425  160.7457 H   0  0  0  0  0  0  0  0  0  0  0  0
  152.2959  141.8658  161.0286 H   0  0  0  0  0  0  0  0  0  0  0  0
  153.5358  142.4516  159.9459 H   0  0  0  0  0  0  0  0  0  0  0  0
  1  2  2  0  0  0  0
  2  3  1  0  0  0  0
  2 14  1  0  0  0  0
  3  4  1  0  0  0  0
  3 21  1  0  0  0  0
  4  5  1  0  0  0  0
  4 11  1  0  0  0  0
  4 22  1  0  0  0  0
  5 23  1  0  0  0  0
  5 24  1  0  0  0  0
  5  6  1  0  0  0  0
  6  7  2  0  0  0  0
  6 10  1  0  0  0  0
  7 25  1  0  0  0  0
  7  8  1  0  0  0  0
  8  9  2  0  0  0  0
  9 10  1  0  0  0  0
  9 26  1  0  0  0  0
 10 20  1  0  0  0  0
 11 12  2  0  0  0  0
 11 13  1  0  0  0  0
 14 19  1  0  0  0  0
 14 15  1  0  0  0  0
 14 27  1  0  0  0  0
 15 16  1  0  0  0  0
 15 28  1  0  0  0  0
 15 29  1  0  0  0  0
 16 17  1  0  0  0  0
 16 30  1  0  0  0  0
 16 31  1  0  0  0  0
 17 18  1  0  0  0  0
 17 32  1  0  0  0  0
 17 33  1  0  0  0  0
 18 19  1  0  0  0  0
 18 34  1  0  0  0  0
 18 35  1  0  0  0  0
 19 36  1  0  0  0  0
 19 37  1  0  0  0  0
M  CHG  1  13  -1
M  END
> <s_m_source_file>
AV-unprocessed.smi

> <i_m_source_file_index>
994

> <i_lp_mmshare_version>
43012

> <i_f3d_flags>
0

> <s_epik_input>
W0NIMl0xW0NIMl1bQ0gyXVtDSDJdW0NIMl1bQ0hdMUMoPU8pW05IXVtDQEBIXShDKD1PKVtPSF0pW0NIMl1jMltjSF1bbkhdW2NIXW4y

> <s_epik_cmdline>
J2VwaWtfcHl0aG9uJywgJy1waCcsICc3LjAnLCAnLXRuJywgJzgnLCAnLW1hJywgJzIwMCcsICctbWV0YWxfYmluZGluZycsICctaW1hZScsICc8aW5maWxlLm1hZT4nLCAnLW9tYWUnLCAnPG91dGZpbGUubWFlPic=

> <r_lp_tautomer_probability>
0.5

> <r_epik_Ionization_Penalty>
0.540742

> <r_epik_Ionization_Penalty_Charging>
0.540742

> <r_epik_Ionization_Penalty_Neutral>
4.77468e-08

> <r_epik_State_Penalty>
0.78427

> <r_epik_Charging_Adjusted_Penalty>
1.32501

> <i_epik_Tot_Q>
-1

> <i_epik_Tot_abs_Q>
1

> <r_epik_Metal_State_Penalty>
0.663709

> <b_epik_Metal_Only>
0

> <s_lp_Force_Field>
OPLS_2005

> <r_lp_Energy>
10.7007

> <b_lp_Chiralities_Consistent>
1

> <s_lp_Variant>
AV-unprocessed.smi:994-3

> <Gold.Version>
5.8.1

> <Gold.Id.Protein>
6NUR|6NUR_protein|mol2

> <Gold.PLP.Fitness>
51.5656

> <Gold.PLP.PLP>
-35.2369

> <Gold.PLP.part.hbond>
-3.0000

> <Gold.PLP.part.metal>
0.0000

> <Gold.PLP.part.buried>
-4.8360

> <Gold.PLP.part.nonpolar>
-27.7041

> <Gold.PLP.part.repulsive>
0.3437

> <Gold.PLP.ligand.clash>
0.0000

> <Gold.PLP.ligand.torsion>
0.1810

> <Gold.PLP.Chemscore.Hbond>
3.9600

> <Gold.PLP.Chemscore.CHOScore>
1.5833

> <Gold.PLP.Chemscore.Metal>
0.0000

> <Gold.Chemscore.Hbonds>
donor molecule, donor type, donor heavy atom, donor atom, acceptor molecule, acceptor atom, score
      P1  H  6896  6907       L1    12  1.59
      P1  H  7989  7998       L1     8  0.81
      P1  H  7997  8009       L1     1  0.96
      L1  C     9    26       P1  7948  0.39
      L1  C     9    26       P1  7957  0.95

> <Gold.PLP.Chemscore.Internal.Correction>
0.0606

> <Gold.Rescore>
     Score         DG    S(hbond)    S(metal)    S(lipo)     H(rot)  DE(clash)    DE(int)     intcor
     14.65     -18.23       2.81        0.00      86.90       2.66       0.28       3.30       ----

> <Gold.Chemscore.Fitness>
14.6463

> <Gold.Chemscore.DG>
-18.2308

> <Gold.Chemscore.ZeroCoef>
-5.4800

> <Gold.Chemscore.Hbond>
2.8108

> <Gold.Chemscore.Metal>
0.0000

> <Gold.Chemscore.Lipo>
86.9025

> <Gold.Chemscore.Internal_Hbond>
0.0000

> <Gold.Chemscore.DEClash>
0.2800

> <Gold.Chemscore.DEInternal>
3.3045

> <Gold.Chemscore.Rot>
2.6581

> <Gold.Chemscore.Internal.Correction>
   9.000000E+99

> <Gold.Chemscore.Hbonds>
donor molecule, donor type, donor heavy atom, donor atom, acceptor molecule, acceptor atom, score
      P1  H  6896  6907       L1    12  0.79
      P1  H  7989  7998       L1     8  0.51
      P1  H  7997  8009       L1     1  0.92

> <Gold.Chemscore.Hbond.Weighted>
-9.3881

> <Gold.Chemscore.Metal.Weighted>
-0.0000

> <Gold.Chemscore.Lipo.Weighted>
-10.1676

> <Gold.Chemscore.Internal_Hbond.Weighted>
0.0000

> <Gold.Chemscore.DEClash.Weighted>
0.2800

> <Gold.Chemscore.DEInternal.Weighted>
3.3045

> <Gold.Chemscore.Rot.Weighted>
6.8048

> <Gold.Chemscore.Internal.Correction.Weighted>
   9.000000E+99

> <Gold.Protein.RotatedTorsions>
[ 6907 6896 6895 6894 ] final  -56.47 input  -60.11 | X-H torsion
[ 7974 7965 7964 7962 ] final  161.22 input  175.53 | X-H torsion
[ 8008 7997 7996 7995 ] final  149.19 input   59.86 | X-H torsion
[ 10167 10162 10161 10158 ] final -179.81 input  -65.29 | X-H torsion
[ 10718 10713 10712 10709 ] final   49.52 input   66.30 | X-H torsion
[ 10763 10752 10751 10750 ] final  -36.62 input  -60.55 | X-H torsion
[ 11005 11000 10999 10996 ] final   31.58 input  -57.11 | X-H torsion

> <Gold.Protein.ActiveResidues>
 VAL166  LYS551  ARG553  GLY616  TRP617  ASP618  TYR619  PRO620  LYS621  CYS622 
 ASP623  PHE694  ASN695  SER759  ASP760  ASP761  ALA762  ILE779  LEU786  VAL792 
 PHE793  MET794  SER795  GLU796  ALA797  LYS798  CYS799  TRP800  GLU811  SER814 

> <Gold.Protein.RotatedAtoms>
  150.8165  134.7349  159.6733 H   0  0  0  0  0  0  0  0  0  0  0  0  # atno 6907 bound_to 6896
  152.4283  134.5823  159.9961 H   0  0  0  0  0  0  0  0  0  0  0  0  # atno 6908 bound_to 6896
  151.6018  133.3318  159.3085 H   0  0  0  0  0  0  0  0  0  0  0  0  # atno 6909 bound_to 6896
  144.7697  139.7867  143.6302 H   0  0  0  0  0  0  0  0  0  0  0  0  # atno 7974 bound_to 7965
  156.2764  140.2108  156.5819 H   0  0  0  0  0  0  0  0  0  0  0  0  # atno 8008 bound_to 7997
  154.7052  140.0517  157.0520 H   0  0  0  0  0  0  0  0  0  0  0  0  # atno 8009 bound_to 7997
  155.0681  140.3173  155.4642 H   0  0  0  0  0  0  0  0  0  0  0  0  # atno 8010 bound_to 7997
  139.5369  144.2471  152.0814 H   0  0  0  0  0  0  0  0  0  0  0  0  # atno 10167 bound_to 10162
  157.4794  130.8305  149.8076 H   0  0  0  0  0  0  0  0  0  0  0  0  # atno 10718 bound_to 10713
  153.8828  135.6820  153.4766 H   0  0  0  0  0  0  0  0  0  0  0  0  # atno 10763 bound_to 10752
  153.1224  135.4734  154.9215 H   0  0  0  0  0  0  0  0  0  0  0  0  # atno 10764 bound_to 10752
  154.7661  135.3224  154.8236 H   0  0  0  0  0  0  0  0  0  0  0  0  # atno 10765 bound_to 10752
  140.2824  134.2957  155.7797 H   0  0  0  0  0  0  0  0  0  0  0  0  # atno 11005 bound_to 11000
  146.1833  139.5036  142.9852 LP  0  0  0  0  0  0  0  0  0  0  0  0  # atno 17320 bound_to 7965
  145.6362  141.0294  143.1836 LP  0  0  0  0  0  0  0  0  0  0  0  0  # atno 17321 bound_to 7965
  140.1943  144.4720  150.6463 LP  0  0  0  0  0  0  0  0  0  0  0  0  # atno 17342 bound_to 10162
  140.6580  143.2243  151.5922 LP  0  0  0  0  0  0  0  0  0  0  0  0  # atno 17343 bound_to 10162
  156.0114  130.3832  150.2254 LP  0  0  0  0  0  0  0  0  0  0  0  0  # atno 17370 bound_to 10713
  157.0439  131.0043  151.3275 LP  0  0  0  0  0  0  0  0  0  0  0  0  # atno 17371 bound_to 10713
  141.2160  133.7534  156.9501 LP  0  0  0  0  0  0  0  0  0  0  0  0  # atno 17394 bound_to 11000
  140.1271  134.9380  157.2285 LP  0  0  0  0  0  0  0  0  0  0  0  0  # atno 17395 bound_to 11000

$$$$
