AV-unprocessed.smi:1867|AV-procd|sdf|7561|dock4
  -GOLD-   22720 9273D 1   1.00000     0.00000
 Structure written by MMmdl.
 52 55  0  0  0  0  0  0  0  0  2 V2000
  147.2720  140.2113  154.8567 O   0  0  0  0  0  0  0  0  0  0  0  0
  148.1312  139.4750  154.3784 C   0  0  0  0  0  0  0  0  0  0  0  0
  149.4159  139.4305  154.7819 N   0  0  0  0  0  0  0  0  0  0  0  0
  150.0682  140.2323  155.7560 C   0  0  0  0  0  0  0  0  0  0  0  0
  151.1675  139.6785  156.4395 C   0  0  0  0  0  0  0  0  0  0  0  0
  151.8464  140.4550  157.3970 C   0  0  0  0  0  0  0  0  0  0  0  0
  151.4085  141.7775  157.6442 C   0  0  0  0  0  0  0  0  0  0  0  0
  152.0589  142.5901  158.5941 N   0  0  0  0  0  0  0  0  0  0  0  0
  152.8728  142.0162  159.6574 C   0  0  0  0  0  0  0  0  0  0  0  0
  152.8325  143.0308  160.8062 C   0  0  0  0  0  0  0  0  0  0  0  0
  152.4192  144.3411  160.1359 C   0  0  0  0  0  0  0  0  0  0  0  0
  151.5121  143.8761  158.9985 C   0  0  0  0  0  0  0  0  0  0  0  0
  150.3657  142.3188  156.9708 N   0  0  0  0  0  0  0  0  0  0  0  0
  149.7161  141.5697  156.0555 C   0  0  0  0  0  0  0  0  0  0  0  0
  147.8331  138.6177  153.3849 N   0  0  0  0  0  0  0  0  0  0  0  0
  146.5471  138.4042  152.7133 C   0  0  1  0  0  0  0  0  0  0  0  0
  146.6279  138.6338  151.1915 C   0  0  0  0  0  0  0  0  0  0  0  0
  145.7686  137.5211  150.5839 C   0  0  0  0  0  0  0  0  0  0  0  0
  145.9752  136.4052  151.5133 N   0  3  2  0  0  0  0  0  0  0  0  0
  145.1113  135.2137  151.3899 C   0  0  0  0  0  0  0  0  0  0  0  0
  145.6489  134.1220  152.3397 C   0  0  0  0  0  0  0  0  0  0  0  0
  145.8246  134.6389  153.7857 C   0  0  0  0  0  0  0  0  0  0  0  0
  146.6270  135.9576  153.8319 C   0  0  0  0  0  0  0  0  0  0  0  0
  145.9775  136.9726  152.8732 C   0  0  1  0  0  0  0  0  0  0  0  0
  149.9865  138.7095  154.3657 H   0  0  0  0  0  0  0  0  0  0  0  0
  151.4899  138.6675  156.2362 H   0  0  0  0  0  0  0  0  0  0  0  0
  152.6915  140.0321  157.9194 H   0  0  0  0  0  0  0  0  0  0  0  0
  152.4981  141.0457  159.9844 H   0  0  0  0  0  0  0  0  0  0  0  0
  153.8915  141.8861  159.2914 H   0  0  0  0  0  0  0  0  0  0  0  0
  152.0693  142.7344  161.5268 H   0  0  0  0  0  0  0  0  0  0  0  0
  153.7819  143.1056  161.3371 H   0  0  0  0  0  0  0  0  0  0  0  0
  151.9244  145.0337  160.8172 H   0  0  0  0  0  0  0  0  0  0  0  0
  153.2995  144.8389  159.7271 H   0  0  0  0  0  0  0  0  0  0  0  0
  151.5028  144.5883  158.1725 H   0  0  0  0  0  0  0  0  0  0  0  0
  150.4888  143.7426  159.3523 H   0  0  0  0  0  0  0  0  0  0  0  0
  148.9127  142.0787  155.5468 H   0  0  0  0  0  0  0  0  0  0  0  0
  148.5986  138.0511  153.0489 H   0  0  0  0  0  0  0  0  0  0  0  0
  145.8140  139.1122  153.1040 H   0  0  0  0  0  0  0  0  0  0  0  0
  146.2906  139.6283  150.8972 H   0  0  0  0  0  0  0  0  0  0  0  0
  147.6568  138.5204  150.8453 H   0  0  0  0  0  0  0  0  0  0  0  0
  144.7156  137.8076  150.5774 H   0  0  0  0  0  0  0  0  0  0  0  0
  146.0661  137.2664  149.5663 H   0  0  0  0  0  0  0  0  0  0  0  0
  144.0791  135.4697  151.6337 H   0  0  0  0  0  0  0  0  0  0  0  0
  145.1226  134.8547  150.3602 H   0  0  0  0  0  0  0  0  0  0  0  0
  144.9845  133.2574  152.3295 H   0  0  0  0  0  0  0  0  0  0  0  0
  146.6128  133.7705  151.9693 H   0  0  0  0  0  0  0  0  0  0  0  0
  144.8413  134.8018  154.2290 H   0  0  0  0  0  0  0  0  0  0  0  0
  146.3141  133.8806  154.3976 H   0  0  0  0  0  0  0  0  0  0  0  0
  146.6377  136.3413  154.8520 H   0  0  0  0  0  0  0  0  0  0  0  0
  147.6646  135.7752  153.5485 H   0  0  0  0  0  0  0  0  0  0  0  0
  144.9354  137.0943  153.1772 H   0  0  0  0  0  0  0  0  0  0  0  0
  146.9198  136.0900  151.3441 H   0  0  0  0  0  0  0  0  0  0  0  0
  1  2  2  0  0  0  0
  2  3  1  0  0  0  0
  2 15  1  0  0  0  0
  3  4  1  0  0  0  0
  3 25  1  0  0  0  0
  4 14  1  0  0  0  0
  4  5  2  0  0  0  0
  5  6  1  0  0  0  0
  5 26  1  0  0  0  0
  6  7  2  0  0  0  0
  6 27  1  0  0  0  0
  7  8  1  0  0  0  0
  7 13  1  0  0  0  0
  8 12  1  0  0  0  0
  8  9  1  0  0  0  0
  9 10  1  0  0  0  0
  9 28  1  0  0  0  0
  9 29  1  0  0  0  0
 10 11  1  0  0  0  0
 10 30  1  0  0  0  0
 10 31  1  0  0  0  0
 11 12  1  0  0  0  0
 11 32  1  0  0  0  0
 11 33  1  0  0  0  0
 12 34  1  0  0  0  0
 12 35  1  0  0  0  0
 13 14  2  0  0  0  0
 14 36  1  0  0  0  0
 15 16  1  0  0  0  0
 15 37  1  0  0  0  0
 16 24  1  0  0  0  0
 16 17  1  0  0  0  0
 16 38  1  0  0  0  0
 17 18  1  0  0  0  0
 17 39  1  0  0  0  0
 17 40  1  0  0  0  0
 18 19  1  0  0  0  0
 18 41  1  0  0  0  0
 18 42  1  0  0  0  0
 19 24  1  0  0  0  0
 19 20  1  0  0  0  0
 19 52  1  0  0  0  0
 20 21  1  0  0  0  0
 20 43  1  0  0  0  0
 20 44  1  0  0  0  0
 21 22  1  0  0  0  0
 21 45  1  0  0  0  0
 21 46  1  0  0  0  0
 22 23  1  0  0  0  0
 22 47  1  0  0  0  0
 22 48  1  0  0  0  0
 23 24  1  0  0  0  0
 23 49  1  0  0  0  0
 23 50  1  0  0  0  0
 24 51  1  0  0  0  0
M  CHG  1  19   1
M  END
> <s_m_source_file>
AV-unprocessed.smi

> <i_m_source_file_index>
1867

> <i_lp_mmshare_version>
43012

> <i_f3d_flags>
0

> <s_epik_input>
W0NIMl0xW0NIMl1bQ0gyXVtDSDJdW0NASF0oTjEyKVtDQEBIXShbQ0gyXVtDSDJdMilbTkhdQyg9TylbTkhdYzNbY0hdW2NIXWMobltjSF0zKU40W0NIMl1bQ0gyXVtDSDJdW0NIMl00

> <s_epik_cmdline>
J2VwaWtfcHl0aG9uJywgJy1waCcsICc3LjAnLCAnLXRuJywgJzgnLCAnLW1hJywgJzIwMCcsICctbWV0YWxfYmluZGluZycsICctaW1hZScsICc8aW5maWxlLm1hZT4nLCAnLW9tYWUnLCAnPG91dGZpbGUubWFlPic=

> <r_lp_tautomer_probability>
1

> <r_epik_Ionization_Penalty>
0.0751123

> <r_epik_Ionization_Penalty_Charging>
0.000974069

> <r_epik_Ionization_Penalty_Neutral>
0.0741382

> <r_epik_State_Penalty>
0.0647261

> <r_epik_Charging_Adjusted_Penalty>
0.0657002

> <i_epik_Tot_Q>
1

> <i_epik_Tot_abs_Q>
1

> <r_epik_Metal_State_Penalty>
0.0580571

> <b_epik_Metal_Only>
0

> <s_lp_Force_Field>
OPLS_2005

> <r_lp_Energy>
77.0679

> <b_lp_Chiralities_Consistent>
1

> <s_lp_Variant>
AV-unprocessed.smi:1867-2

> <Gold.Version>
5.8.1

> <Gold.Id.Protein>
6NUR|6NUR_protein|mol2

> <Gold.PLP.Fitness>
47.6599

> <Gold.PLP.PLP>
-38.5513

> <Gold.PLP.part.hbond>
-2.8633

> <Gold.PLP.part.metal>
0.0000

> <Gold.PLP.part.buried>
6.0478

> <Gold.PLP.part.nonpolar>
-42.8280

> <Gold.PLP.part.repulsive>
0.7825

> <Gold.PLP.ligand.clash>
0.0000

> <Gold.PLP.ligand.torsion>
0.2932

> <Gold.PLP.Chemscore.Hbond>
2.5110

> <Gold.PLP.Chemscore.CHOScore>
0.6529

> <Gold.PLP.Chemscore.Metal>
0.0000

> <Gold.Chemscore.Hbonds>
donor molecule, donor type, donor heavy atom, donor atom, acceptor molecule, acceptor atom, score
      L1  H    15    37       P1  7948  0.50
      L1  H    19    52       P1  7948  1.81
      L1  C    14    36       P1  8028  0.55

> <Gold.PLP.Chemscore.Internal.Correction>
0.2033

> <Gold.Rescore>
     Score         DG    S(hbond)    S(metal)    S(lipo)     H(rot)  DE(clash)    DE(int)     intcor
     17.54     -21.61       1.51        0.00     116.77       1.00       2.75       1.32       ----

> <Gold.Chemscore.Fitness>
17.5424

> <Gold.Chemscore.DG>
-21.6129

> <Gold.Chemscore.ZeroCoef>
-5.4800

> <Gold.Chemscore.Hbond>
1.5062

> <Gold.Chemscore.Metal>
0.0000

> <Gold.Chemscore.Lipo>
116.7719

> <Gold.Chemscore.Internal_Hbond>
0.0000

> <Gold.Chemscore.DEClash>
2.7509

> <Gold.Chemscore.DEInternal>
1.3196

> <Gold.Chemscore.Rot>
1.0000

> <Gold.Chemscore.Internal.Correction>
   9.000000E+99

> <Gold.Chemscore.Hbonds>
donor molecule, donor type, donor heavy atom, donor atom, acceptor molecule, acceptor atom, score
      L1  H    15    37       P1  7948  0.51
      L1  H    19    52       P1  7948  0.83

> <Gold.Chemscore.Hbond.Weighted>
-5.0306

> <Gold.Chemscore.Metal.Weighted>
-0.0000

> <Gold.Chemscore.Lipo.Weighted>
-13.6623

> <Gold.Chemscore.Internal_Hbond.Weighted>
0.0000

> <Gold.Chemscore.DEClash.Weighted>
2.7509

> <Gold.Chemscore.DEInternal.Weighted>
1.3196

> <Gold.Chemscore.Rot.Weighted>
2.5600

> <Gold.Chemscore.Internal.Correction.Weighted>
   9.000000E+99

> <Gold.Protein.RotatedTorsions>
[ 6907 6896 6895 6894 ] final  -48.02 input  -60.11 | X-H torsion
[ 7974 7965 7964 7962 ] final  104.39 input  175.53 | X-H torsion
[ 8008 7997 7996 7995 ] final  150.00 input   59.86 | X-H torsion
[ 10167 10162 10161 10158 ] final -102.94 input  -65.29 | X-H torsion
[ 10718 10713 10712 10709 ] final -149.23 input   66.30 | X-H torsion
[ 10763 10752 10751 10750 ] final  -66.29 input  -60.55 | X-H torsion
[ 11005 11000 10999 10996 ] final  150.29 input  -57.11 | X-H torsion

> <Gold.Protein.ActiveResidues>
 VAL166  LYS551  ARG553  GLY616  TRP617  ASP618  TYR619  PRO620  LYS621  CYS622 
 ASP623  PHE694  ASN695  SER759  ASP760  ASP761  ALA762  ILE779  LEU786  VAL792 
 PHE793  MET794  SER795  GLU796  ALA797  LYS798  CYS799  TRP800  GLU811  SER814 

> <Gold.Protein.RotatedAtoms>
  150.8948  134.8356  159.7318 H   0  0  0  0  0  0  0  0  0  0  0  0  # atno 6907 bound_to 6896
  152.4858  134.4592  159.9609 H   0  0  0  0  0  0  0  0  0  0  0  0  # atno 6908 bound_to 6896
  151.4650  133.3544  159.2850 H   0  0  0  0  0  0  0  0  0  0  0  0  # atno 6909 bound_to 6896
  145.3334  139.2481  143.3649 H   0  0  0  0  0  0  0  0  0  0  0  0  # atno 7974 bound_to 7965
  156.2733  140.2087  156.5947 H   0  0  0  0  0  0  0  0  0  0  0  0  # atno 8008 bound_to 7997
  154.6954  140.0526  157.0429 H   0  0  0  0  0  0  0  0  0  0  0  0  # atno 8009 bound_to 7997
  155.0808  140.3186  155.4605 H   0  0  0  0  0  0  0  0  0  0  0  0  # atno 8010 bound_to 7997
  140.2253  143.3646  152.0934 H   0  0  0  0  0  0  0  0  0  0  0  0  # atno 10167 bound_to 10162
  156.4304  130.8072  151.2299 H   0  0  0  0  0  0  0  0  0  0  0  0  # atno 10718 bound_to 10713
  154.3577  135.6123  153.5674 H   0  0  0  0  0  0  0  0  0  0  0  0  # atno 10763 bound_to 10752
  152.9795  135.5807  154.4670 H   0  0  0  0  0  0  0  0  0  0  0  0  # atno 10764 bound_to 10752
  154.4402  135.2850  155.1830 H   0  0  0  0  0  0  0  0  0  0  0  0  # atno 10765 bound_to 10752
  140.1118  134.8919  157.1947 H   0  0  0  0  0  0  0  0  0  0  0  0  # atno 11005 bound_to 11000
  146.3036  140.3916  142.8695 LP  0  0  0  0  0  0  0  0  0  0  0  0  # atno 17320 bound_to 7965
  144.8847  140.7446  143.5965 LP  0  0  0  0  0  0  0  0  0  0  0  0  # atno 17321 bound_to 7965
  139.5129  144.6925  151.5722 LP  0  0  0  0  0  0  0  0  0  0  0  0  # atno 17342 bound_to 10162
  140.6225  143.9231  150.6538 LP  0  0  0  0  0  0  0  0  0  0  0  0  # atno 17343 bound_to 10162
  157.7508  131.0200  150.3690 LP  0  0  0  0  0  0  0  0  0  0  0  0  # atno 17370 bound_to 10713
  156.4027  130.3919  149.6948 LP  0  0  0  0  0  0  0  0  0  0  0  0  # atno 17371 bound_to 10713
  140.3081  134.3055  155.7273 LP  0  0  0  0  0  0  0  0  0  0  0  0  # atno 17394 bound_to 11000
  141.2132  133.7633  156.9737 LP  0  0  0  0  0  0  0  0  0  0  0  0  # atno 17395 bound_to 11000

$$$$
