AV-unprocessed.smi:33|AV-procd|sdf|206|dock2
  -GOLD-   2262015493D 1   1.00000     0.00000
 Structure written by MMmdl.
 67 72  0  0  0  0  0  0  0  0  1 V2000
  150.9221  142.6126  155.9868 O   0  0  0  0  0  0  0  0  0  0  0  0
  150.6528  142.3617  157.1635 C   0  0  0  0  0  0  0  0  0  0  0  0
  149.8943  141.3166  157.5486 O   0  0  0  0  0  0  0  0  0  0  0  0
  149.7001  140.2163  156.6742 C   0  0  0  0  0  0  0  0  0  0  0  0
  148.4045  140.4172  155.8799 C   0  0  1  0  0  0  0  0  0  0  0  0
  148.0464  141.7980  155.8669 O   0  0  0  0  0  0  0  0  0  0  0  0
  147.3877  142.1156  154.6734 C   0  0  2  0  0  0  0  0  0  0  0  0
  146.0213  142.6516  154.9804 N   0  0  0  0  0  0  0  0  0  0  0  0
  145.2331  142.3399  156.0664 C   0  0  0  0  0  0  0  0  0  0  0  0
  144.0791  142.9479  156.1166 N   0  0  0  0  0  0  0  0  0  0  0  0
  144.0693  143.7401  154.9767 C   0  0  0  0  0  0  0  0  0  0  0  0
  143.1350  144.6532  154.4182 C   0  0  0  0  0  0  0  0  0  0  0  0
  141.9462  144.9356  155.0004 N   0  0  0  0  0  0  0  0  0  0  0  0
  141.9864  145.6170  156.3026 C   0  0  0  0  0  0  0  0  0  0  0  0
  141.0377  145.4993  157.0807 O   0  0  0  0  0  0  0  0  0  0  0  0
  143.1916  146.4175  156.7068 C   0  0  0  0  0  0  0  0  0  0  0  0
  143.8135  146.1796  157.9520 C   0  0  0  0  0  0  0  0  0  0  0  0
  144.9353  146.9370  158.3414 C   0  0  0  0  0  0  0  0  0  0  0  0
  145.4297  147.9497  157.4975 C   0  0  0  0  0  0  0  0  0  0  0  0
  144.7966  148.2116  156.2676 C   0  0  0  0  0  0  0  0  0  0  0  0
  143.6759  147.4538  155.8767 C   0  0  0  0  0  0  0  0  0  0  0  0
  140.7292  144.5386  154.2773 C   0  0  0  0  0  0  0  0  0  0  0  0
  140.7801  143.6118  153.4662 O   0  0  0  0  0  0  0  0  0  0  0  0
  139.4170  145.2134  154.5617 C   0  0  0  0  0  0  0  0  0  0  0  0
  138.2077  144.5029  154.3982 C   0  0  0  0  0  0  0  0  0  0  0  0
  136.9738  145.1328  154.6515 C   0  0  0  0  0  0  0  0  0  0  0  0
  136.9400  146.4824  155.0507 C   0  0  0  0  0  0  0  0  0  0  0  0
  138.1405  147.2050  155.1883 C   0  0  0  0  0  0  0  0  0  0  0  0
  139.3749  146.5755  154.9365 C   0  0  0  0  0  0  0  0  0  0  0  0
  143.4612  145.2674  153.2519 N   0  0  0  0  0  0  0  0  0  0  0  0
  144.6348  145.0043  152.6705 C   0  0  0  0  0  0  0  0  0  0  0  0
  145.6026  144.1809  153.0790 N   0  0  0  0  0  0  0  0  0  0  0  0
  145.2781  143.5587  154.2497 C   0  0  0  0  0  0  0  0  0  0  0  0
  147.3606  140.8481  153.7954 C   0  0  2  0  0  0  0  0  0  0  0  0
  146.1409  140.1281  153.8703 O   0  0  0  0  0  0  0  0  0  0  0  0
  148.5137  140.0681  154.3976 C   0  0  2  0  0  0  0  0  0  0  0  0
  148.4572  138.7607  154.1375 F   0  0  0  0  0  0  0  0  0  0  0  0
  151.1363  143.1826  158.3113 C   0  0  0  0  0  0  0  0  0  0  0  0
  151.1170  144.5936  158.2111 C   0  0  0  0  0  0  0  0  0  0  0  0
  151.5669  145.3951  159.2784 C   0  0  0  0  0  0  0  0  0  0  0  0
  152.0413  144.7955  160.4595 C   0  0  0  0  0  0  0  0  0  0  0  0
  152.0658  143.3931  160.5718 C   0  0  0  0  0  0  0  0  0  0  0  0
  151.6161  142.5897  159.5054 C   0  0  0  0  0  0  0  0  0  0  0  0
  150.5492  140.1516  155.9928 H   0  0  0  0  0  0  0  0  0  0  0  0
  149.6567  139.2808  157.2339 H   0  0  0  0  0  0  0  0  0  0  0  0
  147.5904  139.8540  156.3380 H   0  0  0  0  0  0  0  0  0  0  0  0
  147.9092  142.9467  154.1970 H   0  0  0  0  0  0  0  0  0  0  0  0
  145.5460  141.6436  156.8309 H   0  0  0  0  0  0  0  0  0  0  0  0
  143.4423  145.4046  158.6072 H   0  0  0  0  0  0  0  0  0  0  0  0
  145.4158  146.7413  159.2886 H   0  0  0  0  0  0  0  0  0  0  0  0
  146.2899  148.5300  157.7966 H   0  0  0  0  0  0  0  0  0  0  0  0
  145.1693  148.9946  155.6239 H   0  0  0  0  0  0  0  0  0  0  0  0
  143.1948  147.6667  154.9328 H   0  0  0  0  0  0  0  0  0  0  0  0
  138.2216  143.4666  154.0923 H   0  0  0  0  0  0  0  0  0  0  0  0
  136.0528  144.5804  154.5383 H   0  0  0  0  0  0  0  0  0  0  0  0
  135.9936  146.9651  155.2445 H   0  0  0  0  0  0  0  0  0  0  0  0
  138.1151  148.2426  155.4861 H   0  0  0  0  0  0  0  0  0  0  0  0
  140.2894  147.1415  155.0411 H   0  0  0  0  0  0  0  0  0  0  0  0
  144.8271  145.5296  151.7467 H   0  0  0  0  0  0  0  0  0  0  0  0
  147.5447  141.1150  152.7544 H   0  0  0  0  0  0  0  0  0  0  0  0
  145.6304  140.3213  153.0987 H   0  0  0  0  0  0  0  0  0  0  0  0
  149.4585  140.4354  153.9943 H   0  0  0  0  0  0  0  0  0  0  0  0
  150.7580  145.0770  157.3138 H   0  0  0  0  0  0  0  0  0  0  0  0
  151.5470  146.4715  159.1904 H   0  0  0  0  0  0  0  0  0  0  0  0
  152.3857  145.4100  161.2781 H   0  0  0  0  0  0  0  0  0  0  0  0
  152.4291  142.9314  161.4782 H   0  0  0  0  0  0  0  0  0  0  0  0
  151.6474  141.5166  159.6256 H   0  0  0  0  0  0  0  0  0  0  0  0
  1  2  2  0  0  0  0
  2  3  1  0  0  0  0
  2 38  1  0  0  0  0
  3  4  1  0  0  0  0
  4  5  1  0  0  0  0
  4 44  1  0  0  0  0
  4 45  1  0  0  0  0
  5 36  1  0  0  0  0
  5  6  1  0  0  0  0
  5 46  1  0  0  0  0
  6  7  1  0  0  0  0
  7  8  1  0  0  0  0
  7 34  1  0  0  0  0
  7 47  1  0  0  0  0
  8 33  1  0  0  0  0
  8  9  1  0  0  0  0
  9 10  2  0  0  0  0
  9 48  1  0  0  0  0
 10 11  1  0  0  0  0
 11 33  2  0  0  0  0
 11 12  1  0  0  0  0
 12 13  1  0  0  0  0
 12 30  2  0  0  0  0
 13 14  1  0  0  0  0
 13 22  1  0  0  0  0
 14 15  2  0  0  0  0
 14 16  1  0  0  0  0
 16 21  1  0  0  0  0
 16 17  2  0  0  0  0
 17 18  1  0  0  0  0
 17 49  1  0  0  0  0
 18 19  2  0  0  0  0
 18 50  1  0  0  0  0
 19 20  1  0  0  0  0
 19 51  1  0  0  0  0
 20 21  2  0  0  0  0
 20 52  1  0  0  0  0
 21 53  1  0  0  0  0
 22 23  2  0  0  0  0
 22 24  1  0  0  0  0
 24 29  1  0  0  0  0
 24 25  2  0  0  0  0
 25 26  1  0  0  0  0
 25 54  1  0  0  0  0
 26 27  2  0  0  0  0
 26 55  1  0  0  0  0
 27 28  1  0  0  0  0
 27 56  1  0  0  0  0
 28 29  2  0  0  0  0
 28 57  1  0  0  0  0
 29 58  1  0  0  0  0
 30 31  1  0  0  0  0
 31 32  2  0  0  0  0
 31 59  1  0  0  0  0
 32 33  1  0  0  0  0
 34 35  1  0  0  0  0
 34 36  1  0  0  0  0
 34 60  1  0  0  0  0
 35 61  1  0  0  0  0
 36 37  1  0  0  0  0
 36 62  1  0  0  0  0
 38 43  1  0  0  0  0
 38 39  2  0  0  0  0
 39 40  1  0  0  0  0
 39 63  1  0  0  0  0
 40 41  2  0  0  0  0
 40 64  1  0  0  0  0
 41 42  1  0  0  0  0
 41 65  1  0  0  0  0
 42 43  2  0  0  0  0
 42 66  1  0  0  0  0
 43 67  1  0  0  0  0
M  END
> <s_m_source_file>
AV-unprocessed.smi

> <i_m_source_file_index>
33

> <i_lp_mmshare_version>
43012

> <i_f3d_flags>
0

> <s_epik_input>
W2NIXTFbY0hdW2NIXVtjSF1bY0hdYzFDKD1PKU9bQ0gyXVtDQEBIXTJPW0NASF0oW0NAQEhdKFtPSF0pW0NAQEhdMkYpbihbY0hdbjMpYyhjMzQpbltjSF1uYzROKEMoPU8pYzVbY0hdW2NIXVtjSF1bY0hdW2NIXTUpQyg9TyljNltjSF1bY0hdW2NIXVtjSF1bY0hdNg==

> <s_epik_cmdline>
J2VwaWtfcHl0aG9uJywgJy1waCcsICc3LjAnLCAnLXRuJywgJzgnLCAnLW1hJywgJzIwMCcsICctbWV0YWxfYmluZGluZycsICctaW1hZScsICc8aW5maWxlLm1hZT4nLCAnLW9tYWUnLCAnPG91dGZpbGUubWFlPic=

> <r_lp_tautomer_probability>
1

> <r_epik_Ionization_Penalty>
0.00067664

> <r_epik_Ionization_Penalty_Charging>
0

> <r_epik_Ionization_Penalty_Neutral>
0.00067664

> <r_epik_State_Penalty>
0.000428095

> <r_epik_Charging_Adjusted_Penalty>
0.000428095

> <i_epik_Tot_Q>
0

> <i_epik_Tot_abs_Q>
0

> <r_epik_Metal_State_Penalty>
-0

> <b_epik_Metal_Only>
0

> <s_epik_Chemistry_Notes>
This compound has an ester and may undergo hydrolysis at high or low pH. This compound contains an acetal/aminal-like group ( X-CH(R)-Y where X, Y are N, S, or O) that may be acid/base labile, releasing an aldehyde.

> <s_lp_Force_Field>
OPLS_2005

> <r_lp_Energy>
78.7548

> <b_lp_Chiralities_Consistent>
1

> <s_lp_Variant>
AV-unprocessed.smi:33-8

> <Gold.Version>
5.8.1

> <Gold.Id.Protein>
6NUR|6NUR_protein|mol2

> <Gold.PLP.Fitness>
66.3402

> <Gold.PLP.PLP>
-67.3153

> <Gold.PLP.part.hbond>
-3.8753

> <Gold.PLP.part.metal>
0.0000

> <Gold.PLP.part.buried>
-4.1496

> <Gold.PLP.part.nonpolar>
-66.3537

> <Gold.PLP.part.repulsive>
4.7857

> <Gold.PLP.ligand.clash>
0.0000

> <Gold.PLP.ligand.torsion>
5.5279

> <Gold.PLP.Chemscore.Hbond>
1.8164

> <Gold.PLP.Chemscore.CHOScore>
0.0000

> <Gold.PLP.Chemscore.Metal>
0.0000

> <Gold.Chemscore.Hbonds>
donor molecule, donor type, donor heavy atom, donor atom, acceptor molecule, acceptor atom, score
      L1  H    35    61       P1 10175  0.80
      P1  H 10162 10167       L1    23  0.65

> <Gold.PLP.Chemscore.Internal.Correction>
4.6314

> <Gold.Rescore>
     Score         DG    S(hbond)    S(metal)    S(lipo)     H(rot)  DE(clash)    DE(int)     intcor
     12.84     -22.06       1.73        0.00     147.50       2.52       1.60       7.63       ----

> <Gold.Chemscore.Fitness>
12.8351

> <Gold.Chemscore.DG>
-22.0598

> <Gold.Chemscore.ZeroCoef>
-5.4800

> <Gold.Chemscore.Hbond>
1.7321

> <Gold.Chemscore.Metal>
0.0000

> <Gold.Chemscore.Lipo>
147.5044

> <Gold.Chemscore.Internal_Hbond>
0.0000

> <Gold.Chemscore.DEClash>
1.5966

> <Gold.Chemscore.DEInternal>
7.6281

> <Gold.Chemscore.Rot>
2.5247

> <Gold.Chemscore.Internal.Correction>
   9.000000E+99

> <Gold.Chemscore.Hbonds>
donor molecule, donor type, donor heavy atom, donor atom, acceptor molecule, acceptor atom, score
      L1  H    35    61       P1 10175  0.70
      P1  H 10162 10167       L1    23  0.61

> <Gold.Chemscore.Hbond.Weighted>
-5.7851

> <Gold.Chemscore.Metal.Weighted>
-0.0000

> <Gold.Chemscore.Lipo.Weighted>
-17.2580

> <Gold.Chemscore.Internal_Hbond.Weighted>
0.0000

> <Gold.Chemscore.DEClash.Weighted>
1.5966

> <Gold.Chemscore.DEInternal.Weighted>
7.6281

> <Gold.Chemscore.Rot.Weighted>
6.4633

> <Gold.Chemscore.Internal.Correction.Weighted>
   9.000000E+99

> <Gold.Protein.RotatedTorsions>
[ 6907 6896 6895 6894 ] final  150.90 input  -60.11 | X-H torsion
[ 7974 7965 7964 7962 ] final -165.14 input  175.53 | X-H torsion
[ 8008 7997 7996 7995 ] final -126.49 input   59.86 | X-H torsion
[ 10167 10162 10161 10158 ] final -122.24 input  -65.29 | X-H torsion
[ 10718 10713 10712 10709 ] final  -30.14 input   66.30 | X-H torsion
[ 10763 10752 10751 10750 ] final   -7.33 input  -60.55 | X-H torsion
[ 11005 11000 10999 10996 ] final   51.06 input  -57.11 | X-H torsion

> <Gold.Protein.ActiveResidues>
 VAL166  LYS551  ARG553  GLY616  TRP617  ASP618  TYR619  PRO620  LYS621  CYS622 
 ASP623  PHE694  ASN695  SER759  ASP760  ASP761  ALA762  ILE779  LEU786  VAL792 
 PHE793  MET794  SER795  GLU796  ALA797  LYS798  CYS799  TRP800  GLU811  SER814 

> <Gold.Protein.RotatedAtoms>
  152.1080  133.4285  159.4617 H   0  0  0  0  0  0  0  0  0  0  0  0  # atno 6907 bound_to 6896
  150.6866  134.2681  159.4586 H   0  0  0  0  0  0  0  0  0  0  0  0  # atno 6908 bound_to 6896
  152.0548  134.9631  160.0625 H   0  0  0  0  0  0  0  0  0  0  0  0  # atno 6909 bound_to 6896
  144.7278  140.2857  143.6228 H   0  0  0  0  0  0  0  0  0  0  0  0  # atno 7974 bound_to 7965
  155.2306  140.0425  157.2961 H   0  0  0  0  0  0  0  0  0  0  0  0  # atno 8008 bound_to 7997
  154.5891  140.2422  155.7916 H   0  0  0  0  0  0  0  0  0  0  0  0  # atno 8009 bound_to 7997
  156.2247  140.2958  156.0045 H   0  0  0  0  0  0  0  0  0  0  0  0  # atno 8010 bound_to 7997
  140.0164  143.5389  152.2240 H   0  0  0  0  0  0  0  0  0  0  0  0  # atno 10167 bound_to 10162
  156.4036  130.4395  149.7304 H   0  0  0  0  0  0  0  0  0  0  0  0  # atno 10718 bound_to 10713
  153.4248  135.7011  153.6270 H   0  0  0  0  0  0  0  0  0  0  0  0  # atno 10763 bound_to 10752
  153.4709  135.3715  155.2390 H   0  0  0  0  0  0  0  0  0  0  0  0  # atno 10764 bound_to 10752
  154.8723  135.4042  154.3623 H   0  0  0  0  0  0  0  0  0  0  0  0  # atno 10765 bound_to 10752
  140.0964  134.5139  155.8803 H   0  0  0  0  0  0  0  0  0  0  0  0  # atno 11005 bound_to 11000
  145.7905  139.1925  143.2106 LP  0  0  0  0  0  0  0  0  0  0  0  0  # atno 17320 bound_to 7965
  146.0760  140.7817  142.9665 LP  0  0  0  0  0  0  0  0  0  0  0  0  # atno 17321 bound_to 7965
  139.6170  144.7621  151.2825 LP  0  0  0  0  0  0  0  0  0  0  0  0  # atno 17342 bound_to 10162
  140.7360  143.6719  150.8075 LP  0  0  0  0  0  0  0  0  0  0  0  0  # atno 17343 bound_to 10162
  156.4311  130.7815  151.2835 LP  0  0  0  0  0  0  0  0  0  0  0  0  # atno 17370 bound_to 10713
  157.7505  131.0154  150.3502 LP  0  0  0  0  0  0  0  0  0  0  0  0  # atno 17371 bound_to 10713
  141.2093  133.6683  156.6431 LP  0  0  0  0  0  0  0  0  0  0  0  0  # atno 17394 bound_to 11000
  140.3280  134.7952  157.4304 LP  0  0  0  0  0  0  0  0  0  0  0  0  # atno 17395 bound_to 11000

$$$$
