AV-unprocessed.smi:3219|AV-procd|sdf|12295|dock4
  -GOLD-   2272018133D 1   1.00000     0.00000
 Structure written by MMmdl.
 41 42  0  0  0  0  0  0  0  0  2 V2000
  143.9755  132.4700  150.2187 C   0  0  0  0  0  0  0  0  0  0  0  0
  145.2232  132.7113  151.0062 C   0  0  0  0  0  0  0  0  0  0  0  0
  145.9029  133.8689  151.2788 C   0  0  0  0  0  0  0  0  0  0  0  0
  145.5906  135.2816  150.8578 C   0  0  0  0  0  0  0  0  0  0  0  0
  145.4222  136.2214  152.0609 C   0  0  0  0  0  0  0  0  0  0  0  0
  146.3762  137.3471  152.0078 N   0  3  0  0  0  0  0  0  0  0  0  0
  146.0241  138.4802  152.8855 C   0  0  0  0  0  0  0  0  0  0  0  0
  147.2396  139.3868  153.1513 C   0  0  2  0  0  0  0  0  0  0  0  0
  148.3343  138.6615  153.9699 C   0  0  0  0  0  0  0  0  0  0  0  0
  149.4019  139.6076  154.4901 C   0  0  0  0  0  0  0  0  0  0  0  0
  149.2575  140.9428  154.5181 C   0  0  0  0  0  0  0  0  0  0  0  0
  148.0071  141.6554  154.0387 C   0  0  0  0  0  0  0  0  0  0  0  0
  146.8203  140.6907  153.8578 C   0  0  0  0  0  0  0  0  0  0  0  0
  147.0023  133.4348  152.0720 C   0  0  0  0  0  0  0  0  0  0  0  0
  147.0032  132.1304  152.2783 N   0  0  0  0  0  0  0  0  0  0  0  0
  145.9134  131.6836  151.6214 N   0  0  0  0  0  0  0  0  0  0  0  0
  145.6080  130.2660  151.6332 C   0  0  0  0  0  0  0  0  0  0  0  0
  143.5169  133.4066  149.9031 H   0  0  0  0  0  0  0  0  0  0  0  0
  143.2409  131.9241  150.8112 H   0  0  0  0  0  0  0  0  0  0  0  0
  144.1907  131.8849  149.3244 H   0  0  0  0  0  0  0  0  0  0  0  0
  146.3887  135.6686  150.2234 H   0  0  0  0  0  0  0  0  0  0  0  0
  144.6918  135.3179  150.2416 H   0  0  0  0  0  0  0  0  0  0  0  0
  144.4030  136.6094  152.0915 H   0  0  0  0  0  0  0  0  0  0  0  0
  145.5809  135.6650  152.9855 H   0  0  0  0  0  0  0  0  0  0  0  0
  147.2892  137.0071  152.2739 H   0  0  0  0  0  0  0  0  0  0  0  0
  145.2318  139.0547  152.4036 H   0  0  0  0  0  0  0  0  0  0  0  0
  145.6186  138.1042  153.8259 H   0  0  0  0  0  0  0  0  0  0  0  0
  147.6662  139.6681  152.1868 H   0  0  0  0  0  0  0  0  0  0  0  0
  147.8968  138.1521  154.8294 H   0  0  0  0  0  0  0  0  0  0  0  0
  148.8148  137.8968  153.3587 H   0  0  0  0  0  0  0  0  0  0  0  0
  150.3112  139.1588  154.8626 H   0  0  0  0  0  0  0  0  0  0  0  0
  150.0608  141.5632  154.8882 H   0  0  0  0  0  0  0  0  0  0  0  0
  147.7436  142.4378  154.7508 H   0  0  0  0  0  0  0  0  0  0  0  0
  148.2401  142.1501  153.0953 H   0  0  0  0  0  0  0  0  0  0  0  0
  146.0285  141.1923  153.2999 H   0  0  0  0  0  0  0  0  0  0  0  0
  146.3998  140.4496  154.8351 H   0  0  0  0  0  0  0  0  0  0  0  0
  147.7942  134.0285  152.5044 H   0  0  0  0  0  0  0  0  0  0  0  0
  145.5534  129.8945  150.6097 H   0  0  0  0  0  0  0  0  0  0  0  0
  144.6489  130.1016  152.1246 H   0  0  0  0  0  0  0  0  0  0  0  0
  146.3783  129.7090  152.1684 H   0  0  0  0  0  0  0  0  0  0  0  0
  146.4212  137.6808  151.0556 H   0  0  0  0  0  0  0  0  0  0  0  0
  1  2  1  0  0  0  0
  1 18  1  0  0  0  0
  1 19  1  0  0  0  0
  1 20  1  0  0  0  0
  2 16  1  0  0  0  0
  2  3  2  0  0  0  0
  3  4  1  0  0  0  0
  3 14  1  0  0  0  0
  4  5  1  0  0  0  0
  4 21  1  0  0  0  0
  4 22  1  0  0  0  0
  5  6  1  0  0  0  0
  5 23  1  0  0  0  0
  5 24  1  0  0  0  0
  6  7  1  0  0  0  0
  6 25  1  0  0  0  0
  6 41  1  0  0  0  0
  7  8  1  0  0  0  0
  7 26  1  0  0  0  0
  7 27  1  0  0  0  0
  8 13  1  0  0  0  0
  8  9  1  0  0  0  0
  8 28  1  0  0  0  0
  9 10  1  0  0  0  0
  9 29  1  0  0  0  0
  9 30  1  0  0  0  0
 10 11  2  0  0  0  0
 10 31  1  0  0  0  0
 11 12  1  0  0  0  0
 11 32  1  0  0  0  0
 12 13  1  0  0  0  0
 12 33  1  0  0  0  0
 12 34  1  0  0  0  0
 13 35  1  0  0  0  0
 13 36  1  0  0  0  0
 14 15  2  0  0  0  0
 14 37  1  0  0  0  0
 15 16  1  0  0  0  0
 16 17  1  0  0  0  0
 17 38  1  0  0  0  0
 17 39  1  0  0  0  0
 17 40  1  0  0  0  0
M  CHG  1   6   1
M  END
> <s_m_source_file>
AV-unprocessed.smi

> <i_m_source_file_index>
3219

> <i_lp_mmshare_version>
43012

> <i_f3d_flags>
0

> <s_epik_input>
W0NIM11uMW5bY0hdYyhjMVtDSDNdKVtDSDJdW0NIMl1bTkhdW0NIMl1bQ0BASF0yW0NIMl1bQ0hdPVtDSF1bQ0gyXVtDSDJdMg==

> <s_epik_cmdline>
J2VwaWtfcHl0aG9uJywgJy1waCcsICc3LjAnLCAnLXRuJywgJzgnLCAnLW1hJywgJzIwMCcsICctbWV0YWxfYmluZGluZycsICctaW1hZScsICc8aW5maWxlLm1hZT4nLCAnLW9tYWUnLCAnPG91dGZpbGUubWFlPic=

> <r_lp_tautomer_probability>
1

> <r_epik_Ionization_Penalty>
0.000661401

> <r_epik_Ionization_Penalty_Charging>
0.00057791

> <r_epik_Ionization_Penalty_Neutral>
8.34914e-05

> <r_epik_State_Penalty>
-0

> <r_epik_Charging_Adjusted_Penalty>
0.00057791

> <i_epik_Tot_Q>
1

> <i_epik_Tot_abs_Q>
1

> <r_epik_Metal_State_Penalty>
-0

> <b_epik_Metal_Only>
0

> <s_lp_Force_Field>
OPLS_2005

> <r_lp_Energy>
9.86252

> <b_lp_Chiralities_Consistent>
1

> <s_lp_Variant>
AV-unprocessed.smi:3219-1

> <Gold.Version>
5.8.1

> <Gold.Id.Protein>
6NUR|6NUR_protein|mol2

> <Gold.PLP.Fitness>
44.3000

> <Gold.PLP.PLP>
-36.4187

> <Gold.PLP.part.hbond>
-1.0000

> <Gold.PLP.part.metal>
0.0000

> <Gold.PLP.part.buried>
-2.3729

> <Gold.PLP.part.nonpolar>
-33.1250

> <Gold.PLP.part.repulsive>
0.6144

> <Gold.PLP.ligand.clash>
0.0000

> <Gold.PLP.ligand.torsion>
0.5690

> <Gold.PLP.Chemscore.Hbond>
2.0000

> <Gold.PLP.Chemscore.CHOScore>
1.0000

> <Gold.PLP.Chemscore.Metal>
0.0000

> <Gold.Chemscore.Hbonds>
donor molecule, donor type, donor heavy atom, donor atom, acceptor molecule, acceptor atom, score
      L1  H     6    25       P1  7948  2.00
      L1  C    14    37       P1  7948  1.00

> <Gold.PLP.Chemscore.Internal.Correction>
0.0194

> <Gold.Rescore>
     Score         DG    S(hbond)    S(metal)    S(lipo)     H(rot)  DE(clash)    DE(int)     intcor
     15.70     -16.36       0.98        0.00      96.93       1.46       0.09       0.56       ----

> <Gold.Chemscore.Fitness>
15.7004

> <Gold.Chemscore.DG>
-16.3553

> <Gold.Chemscore.ZeroCoef>
-5.4800

> <Gold.Chemscore.Hbond>
0.9795

> <Gold.Chemscore.Metal>
0.0000

> <Gold.Chemscore.Lipo>
96.9261

> <Gold.Chemscore.Internal_Hbond>
0.0000

> <Gold.Chemscore.DEClash>
0.0948

> <Gold.Chemscore.DEInternal>
0.5600

> <Gold.Chemscore.Rot>
1.4597

> <Gold.Chemscore.Internal.Correction>
   9.000000E+99

> <Gold.Chemscore.Hbonds>
donor molecule, donor type, donor heavy atom, donor atom, acceptor molecule, acceptor atom, score
      L1  H     6    25       P1  7948  0.95

> <Gold.Chemscore.Hbond.Weighted>
-3.2717

> <Gold.Chemscore.Metal.Weighted>
-0.0000

> <Gold.Chemscore.Lipo.Weighted>
-11.3404

> <Gold.Chemscore.Internal_Hbond.Weighted>
0.0000

> <Gold.Chemscore.DEClash.Weighted>
0.0948

> <Gold.Chemscore.DEInternal.Weighted>
0.5600

> <Gold.Chemscore.Rot.Weighted>
3.7368

> <Gold.Chemscore.Internal.Correction.Weighted>
   9.000000E+99

> <Gold.Protein.RotatedTorsions>
[ 6907 6896 6895 6894 ] final -120.94 input  -60.11 | X-H torsion
[ 7974 7965 7964 7962 ] final  132.96 input  175.53 | X-H torsion
[ 8008 7997 7996 7995 ] final  105.33 input   59.86 | X-H torsion
[ 10167 10162 10161 10158 ] final   44.55 input  -65.29 | X-H torsion
[ 10718 10713 10712 10709 ] final   89.56 input   66.30 | X-H torsion
[ 10763 10752 10751 10750 ] final   80.97 input  -60.55 | X-H torsion
[ 11005 11000 10999 10996 ] final -139.01 input  -57.11 | X-H torsion

> <Gold.Protein.ActiveResidues>
 VAL166  LYS551  ARG553  GLY616  TRP617  ASP618  TYR619  PRO620  LYS621  CYS622 
 ASP623  PHE694  ASN695  SER759  ASP760  ASP761  ALA762  ILE779  LEU786  VAL792 
 PHE793  MET794  SER795  GLU796  ALA797  LYS798  CYS799  TRP800  GLU811  SER814 

> <Gold.Protein.RotatedAtoms>
  150.8438  133.7894  159.3050 H   0  0  0  0  0  0  0  0  0  0  0  0  # atno 6907 bound_to 6896
  151.5587  135.1064  159.9977 H   0  0  0  0  0  0  0  0  0  0  0  0  # atno 6908 bound_to 6896
  152.4496  133.7561  159.6777 H   0  0  0  0  0  0  0  0  0  0  0  0  # atno 6909 bound_to 6896
  144.9914  139.4403  143.5337 H   0  0  0  0  0  0  0  0  0  0  0  0  # atno 7974 bound_to 7965
  156.1649  140.3132  155.8872 H   0  0  0  0  0  0  0  0  0  0  0  0  # atno 8008 bound_to 7997
  155.3706  140.0482  157.3062 H   0  0  0  0  0  0  0  0  0  0  0  0  # atno 8009 bound_to 7997
  154.5183  140.2189  155.9035 H   0  0  0  0  0  0  0  0  0  0  0  0  # atno 8010 bound_to 7997
  140.3331  144.2563  150.6165 H   0  0  0  0  0  0  0  0  0  0  0  0  # atno 10167 bound_to 10162
  157.6956  131.0337  150.3444 H   0  0  0  0  0  0  0  0  0  0  0  0  # atno 10718 bound_to 10713
  153.1077  135.4783  154.8981 H   0  0  0  0  0  0  0  0  0  0  0  0  # atno 10763 bound_to 10752
  154.7448  135.3091  154.8667 H   0  0  0  0  0  0  0  0  0  0  0  0  # atno 10764 bound_to 10752
  153.9265  135.6849  153.4800 H   0  0  0  0  0  0  0  0  0  0  0  0  # atno 10765 bound_to 10752
  140.8561  134.2227  157.4734 H   0  0  0  0  0  0  0  0  0  0  0  0  # atno 11005 bound_to 11000
  146.3432  139.9248  142.8761 LP  0  0  0  0  0  0  0  0  0  0  0  0  # atno 17320 bound_to 7965
  145.2280  140.9962  143.4007 LP  0  0  0  0  0  0  0  0  0  0  0  0  # atno 17321 bound_to 7965
  140.5378  143.2229  151.8134 LP  0  0  0  0  0  0  0  0  0  0  0  0  # atno 17342 bound_to 10162
  139.4853  144.4638  151.9508 LP  0  0  0  0  0  0  0  0  0  0  0  0  # atno 17343 bound_to 10162
  156.3901  130.3896  149.7036 LP  0  0  0  0  0  0  0  0  0  0  0  0  # atno 17370 bound_to 10713
  156.4389  130.7851  151.2872 LP  0  0  0  0  0  0  0  0  0  0  0  0  # atno 17371 bound_to 10713
  139.8705  134.9707  156.4710 LP  0  0  0  0  0  0  0  0  0  0  0  0  # atno 17394 bound_to 11000
  140.8736  133.7970  155.9390 LP  0  0  0  0  0  0  0  0  0  0  0  0  # atno 17395 bound_to 11000

$$$$
