AV-unprocessed.smi:1447|AV-procd|sdf|5893|dock10
  -GOLD-   22720 5573D 1   1.00000     0.00000
 Structure written by MMmdl.
 47 49  0  0  0  0  0  0  0  0  1 V2000
  144.7992  134.9618  150.8590 C   0  0  0  0  0  0  0  0  0  0  0  0
  145.4781  133.7898  151.2729 O   0  0  0  0  0  0  0  0  0  0  0  0
  146.5830  134.0692  152.1187 C   0  0  0  0  0  0  0  0  0  0  0  0
  147.1718  132.7487  152.6602 C   0  0  0  0  0  0  0  0  0  0  0  0
  148.3278  132.8827  153.5685 N   0  0  0  0  0  0  0  0  0  0  0  0
  148.6354  134.1693  153.9858 N   0  0  0  0  0  0  0  0  0  0  0  0
  149.6409  134.3837  154.7698 C   0  0  0  0  0  0  0  0  0  0  0  0
  150.0052  135.7574  155.2129 C   0  0  0  0  0  0  0  0  0  0  0  0
  150.2552  136.0179  156.3910 O   0  0  0  0  0  0  0  0  0  0  0  0
  150.0430  136.6811  154.2352 N   0  0  0  0  0  0  0  0  0  0  0  0
  150.3929  138.0868  154.4070 C   0  0  0  0  0  0  0  0  0  0  0  0
  151.7236  138.2372  155.1651 C   0  0  0  0  0  0  0  0  0  0  0  0
  152.0135  139.7150  155.4807 C   0  0  0  0  0  0  0  0  0  0  0  0
  150.9245  140.2886  156.2718 N   0  0  0  0  0  0  0  0  0  0  0  0
  151.2516  141.6698  156.5861 C   0  0  0  0  0  0  0  0  0  0  0  0
  151.9252  141.9447  157.9112 C   0  0  0  0  0  0  0  0  0  0  0  0
  150.4817  142.3343  157.7047 C   0  0  0  0  0  0  0  0  0  0  0  0
  149.6815  140.2598  155.5004 C   0  0  0  0  0  0  0  0  0  0  0  0
  149.2827  138.8066  155.1889 C   0  0  0  0  0  0  0  0  0  0  0  0
  150.4591  133.2823  155.2455 C   0  0  0  0  0  0  0  0  0  0  0  0
  150.1407  132.0309  154.8475 C   0  0  0  0  0  0  0  0  0  0  0  0
  149.0089  131.7629  153.9577 C   0  0  0  0  0  0  0  0  0  0  0  0
  148.6954  130.6299  153.5933 O   0  0  0  0  0  0  0  0  0  0  0  0
  143.9530  134.6908  150.2279 H   0  0  0  0  0  0  0  0  0  0  0  0
  145.4558  135.6116  150.2785 H   0  0  0  0  0  0  0  0  0  0  0  0
  144.4174  135.5207  151.7145 H   0  0  0  0  0  0  0  0  0  0  0  0
  147.3443  134.6507  151.5953 H   0  0  0  0  0  0  0  0  0  0  0  0
  146.2434  134.6817  152.9552 H   0  0  0  0  0  0  0  0  0  0  0  0
  146.3864  132.2110  153.1938 H   0  0  0  0  0  0  0  0  0  0  0  0
  147.4486  132.1240  151.8090 H   0  0  0  0  0  0  0  0  0  0  0  0
  149.8211  136.3796  153.2971 H   0  0  0  0  0  0  0  0  0  0  0  0
  150.4842  138.5574  153.4261 H   0  0  0  0  0  0  0  0  0  0  0  0
  151.6920  137.6673  156.0951 H   0  0  0  0  0  0  0  0  0  0  0  0
  152.5421  137.8223  154.5758 H   0  0  0  0  0  0  0  0  0  0  0  0
  152.9477  139.7903  156.0387 H   0  0  0  0  0  0  0  0  0  0  0  0
  152.1466  140.2799  154.5565 H   0  0  0  0  0  0  0  0  0  0  0  0
  151.5462  142.3305  155.7722 H   0  0  0  0  0  0  0  0  0  0  0  0
  152.1264  141.0996  158.5672 H   0  0  0  0  0  0  0  0  0  0  0  0
  152.6624  142.7444  157.9427 H   0  0  0  0  0  0  0  0  0  0  0  0
  150.2563  143.3933  157.5970 H   0  0  0  0  0  0  0  0  0  0  0  0
  149.7259  141.7478  158.2236 H   0  0  0  0  0  0  0  0  0  0  0  0
  148.8865  140.7391  156.0729 H   0  0  0  0  0  0  0  0  0  0  0  0
  149.7972  140.8278  154.5757 H   0  0  0  0  0  0  0  0  0  0  0  0
  148.3539  138.7938  154.6177 H   0  0  0  0  0  0  0  0  0  0  0  0
  149.0789  138.2799  156.1228 H   0  0  0  0  0  0  0  0  0  0  0  0
  151.3005  133.4513  155.9017 H   0  0  0  0  0  0  0  0  0  0  0  0
  150.7392  131.2013  155.1943 H   0  0  0  0  0  0  0  0  0  0  0  0
  1  2  1  0  0  0  0
  1 24  1  0  0  0  0
  1 25  1  0  0  0  0
  1 26  1  0  0  0  0
  2  3  1  0  0  0  0
  3  4  1  0  0  0  0
  3 27  1  0  0  0  0
  3 28  1  0  0  0  0
  4  5  1  0  0  0  0
  4 29  1  0  0  0  0
  4 30  1  0  0  0  0
  5 22  1  0  0  0  0
  5  6  1  0  0  0  0
  6  7  2  0  0  0  0
  7  8  1  0  0  0  0
  7 20  1  0  0  0  0
  8  9  2  0  0  0  0
  8 10  1  0  0  0  0
 10 11  1  0  0  0  0
 10 31  1  0  0  0  0
 11 19  1  0  0  0  0
 11 12  1  0  0  0  0
 11 32  1  0  0  0  0
 12 13  1  0  0  0  0
 12 33  1  0  0  0  0
 12 34  1  0  0  0  0
 13 14  1  0  0  0  0
 13 35  1  0  0  0  0
 13 36  1  0  0  0  0
 14 15  1  0  0  0  0
 14 18  1  0  0  0  0
 15 17  1  0  0  0  0
 15 16  1  0  0  0  0
 15 37  1  0  0  0  0
 16 17  1  0  0  0  0
 16 38  1  0  0  0  0
 16 39  1  0  0  0  0
 17 40  1  0  0  0  0
 17 41  1  0  0  0  0
 18 19  1  0  0  0  0
 18 42  1  0  0  0  0
 18 43  1  0  0  0  0
 19 44  1  0  0  0  0
 19 45  1  0  0  0  0
 20 21  2  0  0  0  0
 20 46  1  0  0  0  0
 21 22  1  0  0  0  0
 21 47  1  0  0  0  0
 22 23  2  0  0  0  0
M  END
> <s_m_source_file>
AV-unprocessed.smi

> <i_m_source_file_index>
1447

> <i_lp_mmshare_version>
43012

> <i_f3d_flags>
0

> <s_epik_input>
W0NIM11PW0NIMl1bQ0gyXW4xbmMoW2NIXVtjSF1jMT1PKUMoPU8pW05IXVtDSF0yW0NIMl1bQ0gyXU4oW0NIMl1bQ0gyXTIpW0NIXTNbQ0gyXVtDSDJdMw==

> <s_epik_cmdline>
J2VwaWtfcHl0aG9uJywgJy1waCcsICc3LjAnLCAnLXRuJywgJzgnLCAnLW1hJywgJzIwMCcsICctbWV0YWxfYmluZGluZycsICctaW1hZScsICc8aW5maWxlLm1hZT4nLCAnLW9tYWUnLCAnPG91dGZpbGUubWFlPic=

> <r_lp_tautomer_probability>
1

> <r_epik_Ionization_Penalty>
0.826878

> <r_epik_Ionization_Penalty_Charging>
6.86753e-09

> <r_epik_Ionization_Penalty_Neutral>
0.826878

> <r_epik_State_Penalty>
0.8604

> <r_epik_Charging_Adjusted_Penalty>
0.8604

> <i_epik_Tot_Q>
0

> <i_epik_Tot_abs_Q>
0

> <r_epik_Metal_State_Penalty>
0.8604

> <b_epik_Metal_Only>
0

> <s_lp_Force_Field>
OPLS_2005

> <r_lp_Energy>
44.3131

> <b_lp_Chiralities_Consistent>
1

> <s_lp_Variant>
AV-unprocessed.smi:1447-3

> <Gold.Version>
5.8.1

> <Gold.Id.Protein>
6NUR|6NUR_protein|mol2

> <Gold.PLP.Fitness>
38.5511

> <Gold.PLP.PLP>
-37.4699

> <Gold.PLP.part.hbond>
-1.7244

> <Gold.PLP.part.metal>
0.0000

> <Gold.PLP.part.buried>
-5.2819

> <Gold.PLP.part.nonpolar>
-32.5840

> <Gold.PLP.part.repulsive>
1.6293

> <Gold.PLP.ligand.clash>
0.0000

> <Gold.PLP.ligand.torsion>
1.5616

> <Gold.PLP.Chemscore.Hbond>
1.0000

> <Gold.PLP.Chemscore.CHOScore>
0.0000

> <Gold.PLP.Chemscore.Metal>
0.0000

> <Gold.Chemscore.Hbonds>
donor molecule, donor type, donor heavy atom, donor atom, acceptor molecule, acceptor atom, score
      L1  H    10    31       P1  7948  0.80

> <Gold.PLP.Chemscore.Internal.Correction>
1.2045

> <Gold.Rescore>
     Score         DG    S(hbond)    S(metal)    S(lipo)     H(rot)  DE(clash)    DE(int)     intcor
     10.07     -12.78       0.70        0.00      79.89       1.71       0.13       2.57       ----

> <Gold.Chemscore.Fitness>
10.0747

> <Gold.Chemscore.DG>
-12.7761

> <Gold.Chemscore.ZeroCoef>
-5.4800

> <Gold.Chemscore.Hbond>
0.7000

> <Gold.Chemscore.Metal>
0.0000

> <Gold.Chemscore.Lipo>
79.8865

> <Gold.Chemscore.Internal_Hbond>
0.0000

> <Gold.Chemscore.DEClash>
0.1337

> <Gold.Chemscore.DEInternal>
2.5677

> <Gold.Chemscore.Rot>
1.7143

> <Gold.Chemscore.Internal.Correction>
   9.000000E+99

> <Gold.Chemscore.Hbonds>
donor molecule, donor type, donor heavy atom, donor atom, acceptor molecule, acceptor atom, score
      L1  H    10    31       P1  7948  0.12

> <Gold.Chemscore.Hbond.Weighted>
-2.3381

> <Gold.Chemscore.Metal.Weighted>
-0.0000

> <Gold.Chemscore.Lipo.Weighted>
-9.3467

> <Gold.Chemscore.Internal_Hbond.Weighted>
0.0000

> <Gold.Chemscore.DEClash.Weighted>
0.1337

> <Gold.Chemscore.DEInternal.Weighted>
2.5677

> <Gold.Chemscore.Rot.Weighted>
4.3887

> <Gold.Chemscore.Internal.Correction.Weighted>
   9.000000E+99

> <Gold.Protein.RotatedTorsions>
[ 6907 6896 6895 6894 ] final -163.05 input  -60.11 | X-H torsion
[ 7974 7965 7964 7962 ] final   -1.31 input  175.53 | X-H torsion
[ 8008 7997 7996 7995 ] final -138.39 input   59.86 | X-H torsion
[ 10167 10162 10161 10158 ] final   56.29 input  -65.29 | X-H torsion
[ 10718 10713 10712 10709 ] final  117.64 input   66.30 | X-H torsion
[ 10763 10752 10751 10750 ] final   93.96 input  -60.55 | X-H torsion
[ 11005 11000 10999 10996 ] final    7.34 input  -57.11 | X-H torsion

> <Gold.Protein.ActiveResidues>
 VAL166  LYS551  ARG553  GLY616  TRP617  ASP618  TYR619  PRO620  LYS621  CYS622 
 ASP623  PHE694  ASN695  SER759  ASP760  ASP761  ALA762  ILE779  LEU786  VAL792 
 PHE793  MET794  SER795  GLU796  ALA797  LYS798  CYS799  TRP800  GLU811  SER814 

> <Gold.Protein.RotatedAtoms>
  151.3899  133.3792  159.2719 H   0  0  0  0  0  0  0  0  0  0  0  0  # atno 6907 bound_to 6896
  150.9513  134.8913  159.7684 H   0  0  0  0  0  0  0  0  0  0  0  0  # atno 6908 bound_to 6896
  152.5113  134.3855  159.9418 H   0  0  0  0  0  0  0  0  0  0  0  0  # atno 6909 bound_to 6896
  146.2418  140.1401  142.8336 H   0  0  0  0  0  0  0  0  0  0  0  0  # atno 7974 bound_to 7965
  155.4276  140.0523  157.3021 H   0  0  0  0  0  0  0  0  0  0  0  0  # atno 8008 bound_to 7997
  154.4874  140.2106  155.9582 H   0  0  0  0  0  0  0  0  0  0  0  0  # atno 8009 bound_to 7997
  156.1294  140.3174  155.8331 H   0  0  0  0  0  0  0  0  0  0  0  0  # atno 8010 bound_to 7997
  140.2103  144.3896  150.6491 H   0  0  0  0  0  0  0  0  0  0  0  0  # atno 10167 bound_to 10162
  157.6083  131.1039  150.7644 H   0  0  0  0  0  0  0  0  0  0  0  0  # atno 10718 bound_to 10713
  153.2362  135.4307  155.0649 H   0  0  0  0  0  0  0  0  0  0  0  0  # atno 10763 bound_to 10752
  154.8320  135.3391  154.6715 H   0  0  0  0  0  0  0  0  0  0  0  0  # atno 10764 bound_to 10752
  153.7140  135.7021  153.5086 H   0  0  0  0  0  0  0  0  0  0  0  0  # atno 10765 bound_to 10752
  140.5493  134.0298  155.7931 H   0  0  0  0  0  0  0  0  0  0  0  0  # atno 11005 bound_to 11000
  145.0254  140.8828  143.5141 LP  0  0  0  0  0  0  0  0  0  0  0  0  # atno 17320 bound_to 7965
  145.1456  139.2545  143.5467 LP  0  0  0  0  0  0  0  0  0  0  0  0  # atno 17321 bound_to 7965
  140.6328  143.2190  151.6459 LP  0  0  0  0  0  0  0  0  0  0  0  0  # atno 17342 bound_to 10162
  139.5182  144.3290  152.0843 LP  0  0  0  0  0  0  0  0  0  0  0  0  # atno 17343 bound_to 10162
  156.8027  130.4926  149.5367 LP  0  0  0  0  0  0  0  0  0  0  0  0  # atno 17370 bound_to 10713
  156.1177  130.6087  151.0145 LP  0  0  0  0  0  0  0  0  0  0  0  0  # atno 17371 bound_to 10713
  141.1181  133.9507  157.2783 LP  0  0  0  0  0  0  0  0  0  0  0  0  # atno 17394 bound_to 11000
  139.9463  135.0183  156.8862 LP  0  0  0  0  0  0  0  0  0  0  0  0  # atno 17395 bound_to 11000

$$$$
