AV-unprocessed.smi:765|AV-procd|sdf|3649|dock3
  -GOLD-   22720 1 53D 1   1.00000     0.00000
 Structure written by MMmdl.
 39 40  0  0  0  0  0  0  0  0  1 V2000
  146.5621  142.0999  153.7271 C   0  0  0  0  0  0  0  0  0  0  0  0
  147.5276  141.3361  154.6443 C   0  0  2  0  0  0  0  0  0  0  0  0
  146.7663  140.5041  155.6916 C   0  0  0  0  0  0  0  0  0  0  0  0
  147.7281  139.7532  156.6227 C   0  0  0  0  0  0  0  0  0  0  0  0
  148.7099  140.7244  157.2973 C   0  0  0  0  0  0  0  0  0  0  0  0
  149.5121  141.5554  156.2715 C   0  0  2  0  0  0  0  0  0  0  0  0
  150.3914  140.6583  155.4947 C   0  0  0  0  0  0  0  0  0  0  0  0
  151.0811  139.9558  154.8863 N   0  0  0  0  0  0  0  0  0  0  0  0
  150.2941  142.5349  157.0282 N   0  0  0  0  0  0  0  0  0  0  0  0
  151.3555  142.2899  157.8154 C   0  0  0  0  0  0  0  0  0  0  0  0
  151.7914  141.1590  158.0319 O   0  0  0  0  0  0  0  0  0  0  0  0
  152.0322  143.5237  158.4314 C   0  0  1  0  0  0  0  0  0  0  0  0
  151.1784  144.7996  158.3133 C   0  0  0  0  0  0  0  0  0  0  0  0
  152.3871  143.2592  159.8197 N   0  0  0  0  0  0  0  0  0  0  0  0
  152.0503  143.9751  160.9527 C   0  0  0  0  0  0  0  0  0  0  0  0
  152.6101  143.3365  162.0215 C   0  0  0  0  0  0  0  0  0  0  0  0
  153.2828  142.2275  161.4375 C   0  0  0  0  0  0  0  0  0  0  0  0
  153.1479  142.1839  160.1221 N   0  0  0  0  0  0  0  0  0  0  0  0
  148.5191  142.2928  155.3373 C   0  0  0  0  0  0  0  0  0  0  0  0
  145.9552  142.8084  154.2919 H   0  0  0  0  0  0  0  0  0  0  0  0
  145.8852  141.4165  153.2138 H   0  0  0  0  0  0  0  0  0  0  0  0
  147.1048  142.6599  152.9648 H   0  0  0  0  0  0  0  0  0  0  0  0
  148.0974  140.6493  154.0172 H   0  0  0  0  0  0  0  0  0  0  0  0
  146.1240  141.1568  156.2847 H   0  0  0  0  0  0  0  0  0  0  0  0
  146.1064  139.7914  155.1956 H   0  0  0  0  0  0  0  0  0  0  0  0
  147.1613  139.2133  157.3816 H   0  0  0  0  0  0  0  0  0  0  0  0
  148.2771  139.0003  156.0564 H   0  0  0  0  0  0  0  0  0  0  0  0
  148.1495  141.3901  157.9560 H   0  0  0  0  0  0  0  0  0  0  0  0
  149.3911  140.1645  157.9397 H   0  0  0  0  0  0  0  0  0  0  0  0
  150.0175  143.5000  156.9199 H   0  0  0  0  0  0  0  0  0  0  0  0
  152.9539  143.6968  157.8719 H   0  0  0  0  0  0  0  0  0  0  0  0
  150.9240  145.0098  157.2740 H   0  0  0  0  0  0  0  0  0  0  0  0
  151.7199  145.6643  158.6979 H   0  0  0  0  0  0  0  0  0  0  0  0
  150.2468  144.7187  158.8752 H   0  0  0  0  0  0  0  0  0  0  0  0
  151.4444  144.8682  160.9033 H   0  0  0  0  0  0  0  0  0  0  0  0
  152.5489  143.6191  163.0619 H   0  0  0  0  0  0  0  0  0  0  0  0
  153.8612  141.4577  161.9268 H   0  0  0  0  0  0  0  0  0  0  0  0
  149.0656  142.8513  154.5764 H   0  0  0  0  0  0  0  0  0  0  0  0
  147.9597  143.0336  155.9114 H   0  0  0  0  0  0  0  0  0  0  0  0
  1  2  1  0  0  0  0
  1 20  1  0  0  0  0
  1 21  1  0  0  0  0
  1 22  1  0  0  0  0
  2 19  1  0  0  0  0
  2  3  1  0  0  0  0
  2 23  1  0  0  0  0
  3  4  1  0  0  0  0
  3 24  1  0  0  0  0
  3 25  1  0  0  0  0
  4  5  1  0  0  0  0
  4 26  1  0  0  0  0
  4 27  1  0  0  0  0
  5  6  1  0  0  0  0
  5 28  1  0  0  0  0
  5 29  1  0  0  0  0
  6  7  1  0  0  0  0
  6  9  1  0  0  0  0
  6 19  1  0  0  0  0
  7  8  3  0  0  0  0
  9 10  1  0  0  0  0
  9 30  1  0  0  0  0
 10 11  2  0  0  0  0
 10 12  1  0  0  0  0
 12 13  1  0  0  0  0
 12 14  1  0  0  0  0
 12 31  1  0  0  0  0
 13 32  1  0  0  0  0
 13 33  1  0  0  0  0
 13 34  1  0  0  0  0
 14 18  1  0  0  0  0
 14 15  1  0  0  0  0
 15 16  2  0  0  0  0
 15 35  1  0  0  0  0
 16 17  1  0  0  0  0
 16 36  1  0  0  0  0
 17 18  2  0  0  0  0
 17 37  1  0  0  0  0
 19 38  1  0  0  0  0
 19 39  1  0  0  0  0
M  END
> <s_m_source_file>
AV-unprocessed.smi

> <i_m_source_file_index>
765

> <i_lp_mmshare_version>
43012

> <i_f3d_flags>
0

> <s_epik_input>
W0NIM11bQ0BASF0oW0NIMl0xKVtDSDJdW0NIMl1bQ0gyXVtDQEBdMShDI04pW05IXUMoPU8pW0NASF0oW0NIM10pbjJbY0hdW2NIXVtjSF1uMg==

> <s_epik_cmdline>
J2VwaWtfcHl0aG9uJywgJy1waCcsICc3LjAnLCAnLXRuJywgJzgnLCAnLW1hJywgJzIwMCcsICctbWV0YWxfYmluZGluZycsICctaW1hZScsICc8aW5maWxlLm1hZT4nLCAnLW9tYWUnLCAnPG91dGZpbGUubWFlPic=

> <r_lp_tautomer_probability>
1

> <r_epik_Ionization_Penalty>
2.71142e-05

> <r_epik_Ionization_Penalty_Charging>
0

> <r_epik_Ionization_Penalty_Neutral>
2.71142e-05

> <r_epik_State_Penalty>
-0

> <r_epik_Charging_Adjusted_Penalty>
0

> <i_epik_Tot_Q>
0

> <i_epik_Tot_abs_Q>
0

> <r_epik_Metal_State_Penalty>
-0

> <b_epik_Metal_Only>
0

> <s_lp_Force_Field>
OPLS_2005

> <r_lp_Energy>
10.7608

> <b_lp_Chiralities_Consistent>
1

> <s_lp_Variant>
AV-unprocessed.smi:765-7

> <Gold.Version>
5.8.1

> <Gold.Id.Protein>
6NUR|6NUR_protein|mol2

> <Gold.PLP.Fitness>
43.0705

> <Gold.PLP.PLP>
-39.2755

> <Gold.PLP.part.hbond>
-2.0000

> <Gold.PLP.part.metal>
0.0000

> <Gold.PLP.part.buried>
-2.4691

> <Gold.PLP.part.nonpolar>
-34.4290

> <Gold.PLP.part.repulsive>
0.0769

> <Gold.PLP.ligand.clash>
0.0000

> <Gold.PLP.ligand.torsion>
0.5701

> <Gold.PLP.Chemscore.Hbond>
1.6232

> <Gold.PLP.Chemscore.CHOScore>
0.0000

> <Gold.PLP.Chemscore.Metal>
0.0000

> <Gold.Chemscore.Hbonds>
donor molecule, donor type, donor heavy atom, donor atom, acceptor molecule, acceptor atom, score
      L1  H     9    30       P1  8028  0.73
      P1  H  7989  7998       L1     8  1.00

> <Gold.PLP.Chemscore.Internal.Correction>
0.0656

> <Gold.Rescore>
     Score         DG    S(hbond)    S(metal)    S(lipo)     H(rot)  DE(clash)    DE(int)     intcor
     13.41     -17.68       1.74        0.00      85.51       1.42       1.42       2.85       ----

> <Gold.Chemscore.Fitness>
13.4069

> <Gold.Chemscore.DG>
-17.6793

> <Gold.Chemscore.ZeroCoef>
-5.4800

> <Gold.Chemscore.Hbond>
1.7442

> <Gold.Chemscore.Metal>
0.0000

> <Gold.Chemscore.Lipo>
85.5088

> <Gold.Chemscore.Internal_Hbond>
0.0000

> <Gold.Chemscore.DEClash>
1.4243

> <Gold.Chemscore.DEInternal>
2.8481

> <Gold.Chemscore.Rot>
1.4183

> <Gold.Chemscore.Internal.Correction>
   9.000000E+99

> <Gold.Chemscore.Hbonds>
donor molecule, donor type, donor heavy atom, donor atom, acceptor molecule, acceptor atom, score
      L1  H     9    30       P1  8028  0.69
      P1  H  7989  7998       L1     8  0.60

> <Gold.Chemscore.Hbond.Weighted>
-5.8257

> <Gold.Chemscore.Metal.Weighted>
-0.0000

> <Gold.Chemscore.Lipo.Weighted>
-10.0045

> <Gold.Chemscore.Internal_Hbond.Weighted>
0.0000

> <Gold.Chemscore.DEClash.Weighted>
1.4243

> <Gold.Chemscore.DEInternal.Weighted>
2.8481

> <Gold.Chemscore.Rot.Weighted>
3.6309

> <Gold.Chemscore.Internal.Correction.Weighted>
   9.000000E+99

> <Gold.Protein.RotatedTorsions>
[ 6907 6896 6895 6894 ] final   87.28 input  -60.11 | X-H torsion
[ 7974 7965 7964 7962 ] final   42.94 input  175.53 | X-H torsion
[ 8008 7997 7996 7995 ] final  125.30 input   59.86 | X-H torsion
[ 10167 10162 10161 10158 ] final   81.62 input  -65.29 | X-H torsion
[ 10718 10713 10712 10709 ] final   56.55 input   66.30 | X-H torsion
[ 10763 10752 10751 10750 ] final   38.34 input  -60.55 | X-H torsion
[ 11005 11000 10999 10996 ] final  110.04 input  -57.11 | X-H torsion

> <Gold.Protein.ActiveResidues>
 VAL166  LYS551  ARG553  GLY616  TRP617  ASP618  TYR619  PRO620  LYS621  CYS622 
 ASP623  PHE694  ASN695  SER759  ASP760  ASP761  ALA762  ILE779  LEU786  VAL792 
 PHE793  MET794  SER795  GLU796  ALA797  LYS798  CYS799  TRP800  GLU811  SER814 

> <Gold.Protein.RotatedAtoms>
  152.5408  134.2301  159.8821 H   0  0  0  0  0  0  0  0  0  0  0  0  # atno 6907 bound_to 6896
  151.2274  133.4462  159.2610 H   0  0  0  0  0  0  0  0  0  0  0  0  # atno 6908 bound_to 6896
  151.0748  134.9834  159.8383 H   0  0  0  0  0  0  0  0  0  0  0  0  # atno 6909 bound_to 6896
  146.0697  139.5243  142.9605 H   0  0  0  0  0  0  0  0  0  0  0  0  # atno 7974 bound_to 7965
  156.2830  140.2719  156.1928 H   0  0  0  0  0  0  0  0  0  0  0  0  # atno 8008 bound_to 7997
  155.0441  140.0386  157.2538 H   0  0  0  0  0  0  0  0  0  0  0  0  # atno 8009 bound_to 7997
  154.7250  140.2695  155.6513 H   0  0  0  0  0  0  0  0  0  0  0  0  # atno 8010 bound_to 7997
  139.9374  144.6112  150.8285 H   0  0  0  0  0  0  0  0  0  0  0  0  # atno 10167 bound_to 10162
  157.5440  130.8717  149.8864 H   0  0  0  0  0  0  0  0  0  0  0  0  # atno 10718 bound_to 10713
  153.0004  135.6252  154.2289 H   0  0  0  0  0  0  0  0  0  0  0  0  # atno 10763 bound_to 10752
  154.2031  135.2803  155.2985 H   0  0  0  0  0  0  0  0  0  0  0  0  # atno 10764 bound_to 10752
  154.5667  135.5689  153.7116 H   0  0  0  0  0  0  0  0  0  0  0  0  # atno 10765 bound_to 10752
  139.8874  134.9474  156.6218 H   0  0  0  0  0  0  0  0  0  0  0  0  # atno 11005 bound_to 11000
  145.6413  141.0284  143.1810 LP  0  0  0  0  0  0  0  0  0  0  0  0  # atno 17320 bound_to 7965
  144.7224  139.7985  143.7377 LP  0  0  0  0  0  0  0  0  0  0  0  0  # atno 17321 bound_to 7965
  140.7620  143.3189  151.2668 LP  0  0  0  0  0  0  0  0  0  0  0  0  # atno 17342 bound_to 10162
  139.6732  143.9983  152.2766 LP  0  0  0  0  0  0  0  0  0  0  0  0  # atno 17343 bound_to 10162
  156.0520  130.3716  150.1179 LP  0  0  0  0  0  0  0  0  0  0  0  0  # atno 17370 bound_to 10713
  156.9357  130.9728  151.3525 LP  0  0  0  0  0  0  0  0  0  0  0  0  # atno 17371 bound_to 10713
  140.7733  133.8720  155.8509 LP  0  0  0  0  0  0  0  0  0  0  0  0  # atno 17394 bound_to 11000
  140.9823  134.1389  157.4483 LP  0  0  0  0  0  0  0  0  0  0  0  0  # atno 17395 bound_to 11000

$$$$
