AV-unprocessed.smi:1300|AV-procd|sdf|5419|dock4
  -GOLD-   22720 4573D 1   1.00000     0.00000
 Structure written by MMmdl.
 35 36  0  0  0  0  0  0  0  0  1 V2000
  150.9930  144.9684  160.2565 C   0  0  0  0  0  0  0  0  0  0  0  0
  151.5144  143.6681  159.7070 C   0  0  0  0  0  0  0  0  0  0  0  0
  151.1214  143.3407  158.5203 N   0  0  0  0  0  0  0  0  0  0  0  0
  151.5533  142.1755  157.9150 N   0  0  0  0  0  0  0  0  0  0  0  0
  151.0659  141.9868  156.5399 C   0  0  0  0  0  0  0  0  0  0  0  0
  150.0364  140.8354  156.3776 C   0  0  2  0  0  0  0  0  0  0  0  0
  150.6859  139.6980  155.8433 O   0  0  0  0  0  0  0  0  0  0  0  0
  148.7590  141.2186  155.6315 C   0  0  0  0  0  0  0  0  0  0  0  0
  148.7070  141.1942  154.2186 C   0  0  0  0  0  0  0  0  0  0  0  0
  147.5339  141.5790  153.5421 C   0  0  0  0  0  0  0  0  0  0  0  0
  146.4027  141.9902  154.2713 C   0  0  0  0  0  0  0  0  0  0  0  0
  146.4461  142.0170  155.6780 C   0  0  0  0  0  0  0  0  0  0  0  0
  147.6194  141.6338  156.3568 C   0  0  0  0  0  0  0  0  0  0  0  0
  147.6500  141.6788  157.7103 F   0  0  0  0  0  0  0  0  0  0  0  0
  152.3753  141.2573  158.4974 C   0  0  0  0  0  0  0  0  0  0  0  0
  152.7157  140.2184  157.9302 O   0  0  0  0  0  0  0  0  0  0  0  0
  152.8173  141.6351  159.8416 C   0  0  0  0  0  0  0  0  0  0  0  0
  153.6987  140.7111  160.4793 C   0  0  0  0  0  0  0  0  0  0  0  0
  154.4238  139.9780  161.0052 N   0  0  0  0  0  0  0  0  0  0  0  0
  152.4208  142.7878  160.4367 C   0  0  0  0  0  0  0  0  0  0  0  0
  152.8538  143.2272  161.8286 C   0  0  0  0  0  0  0  0  0  0  0  0
  150.4677  144.8086  161.1982 H   0  0  0  0  0  0  0  0  0  0  0  0
  150.2963  145.4507  159.5692 H   0  0  0  0  0  0  0  0  0  0  0  0
  151.8111  145.6657  160.4383 H   0  0  0  0  0  0  0  0  0  0  0  0
  150.6914  142.9207  156.1160 H   0  0  0  0  0  0  0  0  0  0  0  0
  151.9300  141.7411  155.9193 H   0  0  0  0  0  0  0  0  0  0  0  0
  149.7397  140.5207  157.3789 H   0  0  0  0  0  0  0  0  0  0  0  0
  150.1251  138.9474  155.9650 H   0  0  0  0  0  0  0  0  0  0  0  0
  149.5708  140.8943  153.6436 H   0  0  0  0  0  0  0  0  0  0  0  0
  147.5034  141.5614  152.4626 H   0  0  0  0  0  0  0  0  0  0  0  0
  145.5032  142.2867  153.7522 H   0  0  0  0  0  0  0  0  0  0  0  0
  145.5791  142.3351  156.2376 H   0  0  0  0  0  0  0  0  0  0  0  0
  153.5607  142.5318  162.2800 H   0  0  0  0  0  0  0  0  0  0  0  0
  151.9917  143.2959  162.4928 H   0  0  0  0  0  0  0  0  0  0  0  0
  153.3378  144.2036  161.7900 H   0  0  0  0  0  0  0  0  0  0  0  0
  1  2  1  0  0  0  0
  1 22  1  0  0  0  0
  1 23  1  0  0  0  0
  1 24  1  0  0  0  0
  2 20  1  0  0  0  0
  2  3  2  0  0  0  0
  3  4  1  0  0  0  0
  4  5  1  0  0  0  0
  4 15  1  0  0  0  0
  5  6  1  0  0  0  0
  5 25  1  0  0  0  0
  5 26  1  0  0  0  0
  6  7  1  0  0  0  0
  6  8  1  0  0  0  0
  6 27  1  0  0  0  0
  7 28  1  0  0  0  0
  8 13  1  0  0  0  0
  8  9  2  0  0  0  0
  9 10  1  0  0  0  0
  9 29  1  0  0  0  0
 10 11  2  0  0  0  0
 10 30  1  0  0  0  0
 11 12  1  0  0  0  0
 11 31  1  0  0  0  0
 12 13  2  0  0  0  0
 12 32  1  0  0  0  0
 13 14  1  0  0  0  0
 15 16  2  0  0  0  0
 15 17  1  0  0  0  0
 17 18  1  0  0  0  0
 17 20  2  0  0  0  0
 18 19  3  0  0  0  0
 20 21  1  0  0  0  0
 21 33  1  0  0  0  0
 21 34  1  0  0  0  0
 21 35  1  0  0  0  0
M  END
> <s_m_source_file>
AV-unprocessed.smi

> <i_m_source_file_index>
1300

> <i_lp_mmshare_version>
43012

> <i_f3d_flags>
0

> <s_epik_input>
TiNDYyhjMVtDSDNdKWMoPU8pbihuYzFbQ0gzXSlbQ0gyXVtDQEhdKFtPSF0pYzJbY0hdW2NIXVtjSF1bY0hdYzJG

> <s_epik_cmdline>
J2VwaWtfcHl0aG9uJywgJy1waCcsICc3LjAnLCAnLXRuJywgJzgnLCAnLW1hJywgJzIwMCcsICctbWV0YWxfYmluZGluZycsICctaW1hZScsICc8aW5maWxlLm1hZT4nLCAnLW9tYWUnLCAnPG91dGZpbGUubWFlPic=

> <r_lp_tautomer_probability>
1

> <r_epik_Ionization_Penalty>
7.1854e-08

> <r_epik_Ionization_Penalty_Charging>
1.40848e-10

> <r_epik_Ionization_Penalty_Neutral>
7.17131e-08

> <r_epik_State_Penalty>
-0

> <r_epik_Charging_Adjusted_Penalty>
1.40848e-10

> <i_epik_Tot_Q>
0

> <i_epik_Tot_abs_Q>
0

> <r_epik_Metal_State_Penalty>
-0

> <b_epik_Metal_Only>
0

> <s_lp_Force_Field>
OPLS_2005

> <r_lp_Energy>
27.5545

> <b_lp_Chiralities_Consistent>
1

> <s_lp_Variant>
AV-unprocessed.smi:1300-1

> <Gold.Version>
5.8.1

> <Gold.Id.Protein>
6NUR|6NUR_protein|mol2

> <Gold.PLP.Fitness>
43.9924

> <Gold.PLP.PLP>
-43.6332

> <Gold.PLP.part.hbond>
-1.0000

> <Gold.PLP.part.metal>
0.0000

> <Gold.PLP.part.buried>
-7.5477

> <Gold.PLP.part.nonpolar>
-34.7972

> <Gold.PLP.part.repulsive>
0.0960

> <Gold.PLP.ligand.clash>
0.0000

> <Gold.PLP.ligand.torsion>
1.3329

> <Gold.PLP.Chemscore.Hbond>
0.9833

> <Gold.PLP.Chemscore.CHOScore>
0.0000

> <Gold.PLP.Chemscore.Metal>
0.0000

> <Gold.Chemscore.Hbonds>
donor molecule, donor type, donor heavy atom, donor atom, acceptor molecule, acceptor atom, score
      P1  H  7997  8008       L1    16  0.93

> <Gold.PLP.Chemscore.Internal.Correction>
0.0750

> <Gold.Rescore>
     Score         DG    S(hbond)    S(metal)    S(lipo)     H(rot)  DE(clash)    DE(int)     intcor
     12.75     -15.50       0.91        0.00     103.24       2.00       0.11       2.64       ----

> <Gold.Chemscore.Fitness>
12.7472

> <Gold.Chemscore.DG>
-15.4957

> <Gold.Chemscore.ZeroCoef>
-5.4800

> <Gold.Chemscore.Hbond>
0.9121

> <Gold.Chemscore.Metal>
0.0000

> <Gold.Chemscore.Lipo>
103.2393

> <Gold.Chemscore.Internal_Hbond>
0.0000

> <Gold.Chemscore.DEClash>
0.1100

> <Gold.Chemscore.DEInternal>
2.6386

> <Gold.Chemscore.Rot>
1.9960

> <Gold.Chemscore.Internal.Correction>
   9.000000E+99

> <Gold.Chemscore.Hbonds>
donor molecule, donor type, donor heavy atom, donor atom, acceptor molecule, acceptor atom, score
      P1  H  7997  8008       L1    16  0.83

> <Gold.Chemscore.Hbond.Weighted>
-3.0464

> <Gold.Chemscore.Metal.Weighted>
-0.0000

> <Gold.Chemscore.Lipo.Weighted>
-12.0790

> <Gold.Chemscore.Internal_Hbond.Weighted>
0.0000

> <Gold.Chemscore.DEClash.Weighted>
0.1100

> <Gold.Chemscore.DEInternal.Weighted>
2.6386

> <Gold.Chemscore.Rot.Weighted>
5.1097

> <Gold.Chemscore.Internal.Correction.Weighted>
   9.000000E+99

> <Gold.Protein.RotatedTorsions>
[ 6907 6896 6895 6894 ] final -102.65 input  -60.11 | X-H torsion
[ 7974 7965 7964 7962 ] final  158.73 input  175.53 | X-H torsion
[ 8008 7997 7996 7995 ] final  -72.17 input   59.86 | X-H torsion
[ 10167 10162 10161 10158 ] final -109.78 input  -65.29 | X-H torsion
[ 10718 10713 10712 10709 ] final   85.59 input   66.30 | X-H torsion
[ 10763 10752 10751 10750 ] final  -27.44 input  -60.55 | X-H torsion
[ 11005 11000 10999 10996 ] final  -85.95 input  -57.11 | X-H torsion

> <Gold.Protein.ActiveResidues>
 VAL166  LYS551  ARG553  GLY616  TRP617  ASP618  TYR619  PRO620  LYS621  CYS622 
 ASP623  PHE694  ASN695  SER759  ASP760  ASP761  ALA762  ILE779  LEU786  VAL792 
 PHE793  MET794  SER795  GLU796  ALA797  LYS798  CYS799  TRP800  GLU811  SER814 

> <Gold.Protein.RotatedAtoms>
  150.7205  134.0549  159.3810 H   0  0  0  0  0  0  0  0  0  0  0  0  # atno 6907 bound_to 6896
  151.8527  135.0550  160.0470 H   0  0  0  0  0  0  0  0  0  0  0  0  # atno 6908 bound_to 6896
  152.2778  133.5406  159.5515 H   0  0  0  0  0  0  0  0  0  0  0  0  # atno 6909 bound_to 6896
  144.7829  139.7519  143.6252 H   0  0  0  0  0  0  0  0  0  0  0  0  # atno 7974 bound_to 7965
  154.5145  140.0802  156.8054 H   0  0  0  0  0  0  0  0  0  0  0  0  # atno 8008 bound_to 7997
  155.3711  140.3423  155.4225 H   0  0  0  0  0  0  0  0  0  0  0  0  # atno 8009 bound_to 7997
  156.1611  140.1589  156.8597 H   0  0  0  0  0  0  0  0  0  0  0  0  # atno 8010 bound_to 7997
  140.1516  143.4194  152.1490 H   0  0  0  0  0  0  0  0  0  0  0  0  # atno 10167 bound_to 10162
  157.6917  131.0181  150.2845 H   0  0  0  0  0  0  0  0  0  0  0  0  # atno 10718 bound_to 10713
  153.7321  135.6938  153.4987 H   0  0  0  0  0  0  0  0  0  0  0  0  # atno 10763 bound_to 10752
  153.2128  135.4397  155.0399 H   0  0  0  0  0  0  0  0  0  0  0  0  # atno 10764 bound_to 10752
  154.8249  135.3441  154.6851 H   0  0  0  0  0  0  0  0  0  0  0  0  # atno 10765 bound_to 10752
  141.1636  133.7427  156.9089 H   0  0  0  0  0  0  0  0  0  0  0  0  # atno 11005 bound_to 11000
  146.2046  139.5363  142.9720 LP  0  0  0  0  0  0  0  0  0  0  0  0  # atno 17320 bound_to 7965
  145.6001  141.0356  143.2023 LP  0  0  0  0  0  0  0  0  0  0  0  0  # atno 17321 bound_to 7965
  139.5423  144.7267  151.4694 LP  0  0  0  0  0  0  0  0  0  0  0  0  # atno 17342 bound_to 10162
  140.6699  143.8317  150.6986 LP  0  0  0  0  0  0  0  0  0  0  0  0  # atno 17343 bound_to 10162
  156.3386  130.3812  149.7428 LP  0  0  0  0  0  0  0  0  0  0  0  0  # atno 17370 bound_to 10713
  156.4945  130.8100  151.3108 LP  0  0  0  0  0  0  0  0  0  0  0  0  # atno 17371 bound_to 10713
  140.1530  134.9217  157.2617 LP  0  0  0  0  0  0  0  0  0  0  0  0  # atno 17394 bound_to 11000
  140.2700  134.3471  155.7377 LP  0  0  0  0  0  0  0  0  0  0  0  0  # atno 17395 bound_to 11000

$$$$
