AV-unprocessed.smi:3115|AV-procd|sdf|11860|dock2
  -GOLD-   2272017243D 1   1.00000     0.00000
 Structure written by MMmdl.
 32 33  0  0  0  0  0  0  0  0  1 V2000
  151.4811  145.0464  159.4314 C   0  0  0  0  0  0  0  0  0  0  0  0
  152.1861  143.7024  159.2208 C   0  0  2  0  0  0  0  0  0  0  0  0
  151.5404  142.8807  158.0877 C   0  0  0  0  0  0  0  0  0  0  0  0
  152.1802  141.5746  157.9880 N   0  0  0  0  0  0  0  0  0  0  0  0
  151.7286  140.8106  156.9024 C   0  0  0  0  0  0  0  0  0  0  0  0
  150.4891  141.1312  156.3090 C   0  0  0  0  0  0  0  0  0  0  0  0
  150.0411  140.3619  155.2160 C   0  0  0  0  0  0  0  0  0  0  0  0
  148.7140  140.6627  154.5515 C   0  0  0  0  0  0  0  0  0  0  0  0
  148.8753  141.1166  153.1853 N   0  0  0  0  0  0  0  0  0  0  0  0
  150.8461  139.2981  154.7624 C   0  0  0  0  0  0  0  0  0  0  0  0
  152.0678  139.0558  155.4199 C   0  0  0  0  0  0  0  0  0  0  0  0
  152.5054  139.7903  156.4648 N   0  0  0  0  0  0  0  0  0  0  0  0
  152.1647  140.8511  159.2529 C   0  0  0  0  0  0  0  0  0  0  0  0
  152.7952  141.7151  160.3580 C   0  0  0  0  0  0  0  0  0  0  0  0
  152.1101  142.9619  160.4374 O   0  0  0  0  0  0  0  0  0  0  0  0
  151.5217  145.6568  158.5289 H   0  0  0  0  0  0  0  0  0  0  0  0
  151.9516  145.6114  160.2363 H   0  0  0  0  0  0  0  0  0  0  0  0
  150.4321  144.9046  159.6930 H   0  0  0  0  0  0  0  0  0  0  0  0
  153.2347  143.8926  158.9842 H   0  0  0  0  0  0  0  0  0  0  0  0
  150.4739  142.7546  158.2800 H   0  0  0  0  0  0  0  0  0  0  0  0
  151.6370  143.4087  157.1380 H   0  0  0  0  0  0  0  0  0  0  0  0
  149.8935  141.9503  156.6854 H   0  0  0  0  0  0  0  0  0  0  0  0
  148.0788  139.7765  154.5634 H   0  0  0  0  0  0  0  0  0  0  0  0
  148.1947  141.4340  155.1209 H   0  0  0  0  0  0  0  0  0  0  0  0
  149.1521  140.3421  152.5994 H   0  0  0  0  0  0  0  0  0  0  0  0
  147.9876  141.4454  152.8328 H   0  0  0  0  0  0  0  0  0  0  0  0
  150.5371  138.6819  153.9309 H   0  0  0  0  0  0  0  0  0  0  0  0
  152.7106  138.2498  155.0986 H   0  0  0  0  0  0  0  0  0  0  0  0
  151.1380  140.5989  159.5223 H   0  0  0  0  0  0  0  0  0  0  0  0
  152.7123  139.9135  159.1505 H   0  0  0  0  0  0  0  0  0  0  0  0
  152.7221  141.2073  161.3198 H   0  0  0  0  0  0  0  0  0  0  0  0
  153.8560  141.8822  160.1645 H   0  0  0  0  0  0  0  0  0  0  0  0
  1  2  1  0  0  0  0
  1 16  1  0  0  0  0
  1 17  1  0  0  0  0
  1 18  1  0  0  0  0
  2 15  1  0  0  0  0
  2  3  1  0  0  0  0
  2 19  1  0  0  0  0
  3  4  1  0  0  0  0
  3 20  1  0  0  0  0
  3 21  1  0  0  0  0
  4  5  1  0  0  0  0
  4 13  1  0  0  0  0
  5 12  1  0  0  0  0
  5  6  2  0  0  0  0
  6  7  1  0  0  0  0
  6 22  1  0  0  0  0
  7  8  1  0  0  0  0
  7 10  2  0  0  0  0
  8  9  1  0  0  0  0
  8 23  1  0  0  0  0
  8 24  1  0  0  0  0
  9 25  1  0  0  0  0
  9 26  1  0  0  0  0
 10 11  1  0  0  0  0
 10 27  1  0  0  0  0
 11 12  2  0  0  0  0
 11 28  1  0  0  0  0
 13 14  1  0  0  0  0
 13 29  1  0  0  0  0
 13 30  1  0  0  0  0
 14 15  1  0  0  0  0
 14 31  1  0  0  0  0
 14 32  1  0  0  0  0
M  END
> <s_m_source_file>
AV-unprocessed.smi

> <i_m_source_file_index>
3115

> <i_lp_mmshare_version>
43012

> <i_f3d_flags>
0

> <s_epik_input>
W0NIM11bQ0BASF0xW0NIMl1OKFtDSDJdW0NIMl1PMSljMltjSF1jKFtDSDJdW05IMl0pW2NIXVtjSF1uMg==

> <s_epik_cmdline>
J2VwaWtfcHl0aG9uJywgJy1waCcsICc3LjAnLCAnLXRuJywgJzgnLCAnLW1hJywgJzIwMCcsICctbWV0YWxfYmluZGluZycsICctaW1hZScsICc8aW5maWxlLm1hZT4nLCAnLW9tYWUnLCAnPG91dGZpbGUubWFlPic=

> <r_lp_tautomer_probability>
1

> <r_epik_Ionization_Penalty>
1.27341

> <r_epik_Ionization_Penalty_Charging>
0

> <r_epik_Ionization_Penalty_Neutral>
1.27341

> <r_epik_State_Penalty>
2.46834

> <r_epik_Charging_Adjusted_Penalty>
2.46834

> <i_epik_Tot_Q>
0

> <i_epik_Tot_abs_Q>
0

> <r_epik_Metal_State_Penalty>
2.44319

> <b_epik_Metal_Only>
0

> <s_lp_Force_Field>
OPLS_2005

> <r_lp_Energy>
17.2418

> <b_lp_Chiralities_Consistent>
1

> <s_lp_Variant>
AV-unprocessed.smi:3115-3

> <Gold.Version>
5.8.1

> <Gold.Id.Protein>
6NUR|6NUR_protein|mol2

> <Gold.PLP.Fitness>
40.2971

> <Gold.PLP.PLP>
-35.3945

> <Gold.PLP.part.hbond>
-3.0341

> <Gold.PLP.part.metal>
0.0000

> <Gold.PLP.part.buried>
-3.2241

> <Gold.PLP.part.nonpolar>
-28.6755

> <Gold.PLP.part.repulsive>
0.0346

> <Gold.PLP.ligand.clash>
1.5401

> <Gold.PLP.ligand.torsion>
0.4061

> <Gold.PLP.Chemscore.Hbond>
2.3850

> <Gold.PLP.Chemscore.CHOScore>
0.0000

> <Gold.PLP.Chemscore.Metal>
0.0000

> <Gold.Chemscore.Hbonds>
donor molecule, donor type, donor heavy atom, donor atom, acceptor molecule, acceptor atom, score
      L1  H     9    25       P1  7957  0.80
      P1  H  7997  8009       L1    12  1.00
      P1  H  8011  8017       L1     9  0.54

> <Gold.PLP.Chemscore.Internal.Correction>
0.1000

> <Gold.Rescore>
     Score         DG    S(hbond)    S(metal)    S(lipo)     H(rot)  DE(clash)    DE(int)     intcor
     17.90     -18.71       1.90        0.00      86.71       1.28       0.22       0.60       ----

> <Gold.Chemscore.Fitness>
17.8986

> <Gold.Chemscore.DG>
-18.7100

> <Gold.Chemscore.ZeroCoef>
-5.4800

> <Gold.Chemscore.Hbond>
1.9019

> <Gold.Chemscore.Metal>
0.0000

> <Gold.Chemscore.Lipo>
86.7080

> <Gold.Chemscore.Internal_Hbond>
0.0000

> <Gold.Chemscore.DEClash>
0.2151

> <Gold.Chemscore.DEInternal>
0.5962

> <Gold.Chemscore.Rot>
1.2762

> <Gold.Chemscore.Internal.Correction>
   9.000000E+99

> <Gold.Chemscore.Hbonds>
donor molecule, donor type, donor heavy atom, donor atom, acceptor molecule, acceptor atom, score
      L1  H     9    25       P1  7957  0.74
      P1  H  7997  8009       L1    12  0.79
      P1  H  8011  8017       L1     9  0.01

> <Gold.Chemscore.Hbond.Weighted>
-6.3523

> <Gold.Chemscore.Metal.Weighted>
-0.0000

> <Gold.Chemscore.Lipo.Weighted>
-10.1448

> <Gold.Chemscore.Internal_Hbond.Weighted>
0.0000

> <Gold.Chemscore.DEClash.Weighted>
0.2151

> <Gold.Chemscore.DEInternal.Weighted>
0.5962

> <Gold.Chemscore.Rot.Weighted>
3.2671

> <Gold.Chemscore.Internal.Correction.Weighted>
   9.000000E+99

> <Gold.Protein.RotatedTorsions>
[ 6907 6896 6895 6894 ] final -146.75 input  -60.11 | X-H torsion
[ 7974 7965 7964 7962 ] final  -32.24 input  175.53 | X-H torsion
[ 8008 7997 7996 7995 ] final -166.35 input   59.86 | X-H torsion
[ 10167 10162 10161 10158 ] final  102.16 input  -65.29 | X-H torsion
[ 10718 10713 10712 10709 ] final  167.56 input   66.30 | X-H torsion
[ 10763 10752 10751 10750 ] final   26.50 input  -60.55 | X-H torsion
[ 11005 11000 10999 10996 ] final    4.04 input  -57.11 | X-H torsion

> <Gold.Protein.ActiveResidues>
 VAL166  LYS551  ARG553  GLY616  TRP617  ASP618  TYR619  PRO620  LYS621  CYS622 
 ASP623  PHE694  ASN695  SER759  ASP760  ASP761  ALA762  ILE779  LEU786  VAL792 
 PHE793  MET794  SER795  GLU796  ALA797  LYS798  CYS799  TRP800  GLU811  SER814 

> <Gold.Protein.RotatedAtoms>
  151.1460  133.4939  159.2595 H   0  0  0  0  0  0  0  0  0  0  0  0  # atno 6907 bound_to 6896
  151.1604  135.0270  159.8718 H   0  0  0  0  0  0  0  0  0  0  0  0  # atno 6908 bound_to 6896
  152.5463  134.1334  159.8502 H   0  0  0  0  0  0  0  0  0  0  0  0  # atno 6909 bound_to 6896
  146.1005  140.5768  142.8823 H   0  0  0  0  0  0  0  0  0  0  0  0  # atno 7974 bound_to 7965
  155.8625  140.0980  157.1604 H   0  0  0  0  0  0  0  0  0  0  0  0  # atno 8008 bound_to 7997
  154.3991  140.1362  156.4041 H   0  0  0  0  0  0  0  0  0  0  0  0  # atno 8009 bound_to 7997
  155.7840  140.3457  155.5315 H   0  0  0  0  0  0  0  0  0  0  0  0  # atno 8010 bound_to 7997
  139.7374  144.7020  151.0628 H   0  0  0  0  0  0  0  0  0  0  0  0  # atno 10167 bound_to 10162
  157.0498  131.0310  151.2685 H   0  0  0  0  0  0  0  0  0  0  0  0  # atno 10718 bound_to 10713
  153.0618  135.6559  154.0444 H   0  0  0  0  0  0  0  0  0  0  0  0  # atno 10763 bound_to 10752
  154.0110  135.2928  155.3393 H   0  0  0  0  0  0  0  0  0  0  0  0  # atno 10764 bound_to 10752
  154.6960  135.5264  153.8527 H   0  0  0  0  0  0  0  0  0  0  0  0  # atno 10765 bound_to 10752
  140.5863  133.9965  155.8069 H   0  0  0  0  0  0  0  0  0  0  0  0  # atno 11005 bound_to 11000
  144.7429  140.4990  143.6856 LP  0  0  0  0  0  0  0  0  0  0  0  0  # atno 17320 bound_to 7965
  145.5863  139.1492  143.3207 LP  0  0  0  0  0  0  0  0  0  0  0  0  # atno 17321 bound_to 7965
  140.7781  143.4967  150.9824 LP  0  0  0  0  0  0  0  0  0  0  0  0  # atno 17342 bound_to 10162
  139.8655  143.7259  152.3170 LP  0  0  0  0  0  0  0  0  0  0  0  0  # atno 17343 bound_to 10162
  157.5039  130.7897  149.7634 LP  0  0  0  0  0  0  0  0  0  0  0  0  # atno 17370 bound_to 10713
  156.0011  130.3879  150.2602 LP  0  0  0  0  0  0  0  0  0  0  0  0  # atno 17371 bound_to 10713
  141.0964  133.9837  157.3153 LP  0  0  0  0  0  0  0  0  0  0  0  0  # atno 17394 bound_to 11000
  139.9294  135.0200  156.8348 LP  0  0  0  0  0  0  0  0  0  0  0  0  # atno 17395 bound_to 11000

$$$$
