AV-unprocessed.smi:2560|AV-procd|sdf|10039|dock10
  -GOLD-   2272014 83D 1   1.00000     0.00000
 Structure written by MMmdl.
 31 32  0  0  0  0  0  0  0  0  1 V2000
  151.2420  129.7947  155.2086 C   0  0  0  0  0  0  0  0  0  0  0  0
  151.3871  130.8819  156.6528 S   0  0  0  0  0  0  0  0  0  0  0  0
  150.4592  132.3303  156.2633 C   0  0  0  0  0  0  0  0  0  0  0  0
  150.3106  133.3131  157.1699 N   0  0  0  0  0  0  0  0  0  0  0  0
  149.3779  134.5438  156.4817 S   0  0  0  0  0  0  0  0  0  0  0  0
  149.2437  133.6524  154.9946 C   0  0  0  0  0  0  0  0  0  0  0  0
  148.5299  134.1500  153.8659 N   0  0  0  0  0  0  0  0  0  0  0  0
  147.4905  133.6357  153.1739 C   0  0  0  0  0  0  0  0  0  0  0  0
  146.9929  132.5553  153.4855 O   0  0  0  0  0  0  0  0  0  0  0  0
  147.0440  134.3712  152.1421 N   0  0  0  0  0  0  0  0  0  0  0  0
  145.9332  134.0276  151.2622 C   0  0  1  0  0  0  0  0  0  0  0  0
  146.3218  132.8223  150.4201 C   0  0  0  0  0  0  0  0  0  0  0  0
  145.5119  131.7740  150.1937 C   0  0  0  0  0  0  0  0  0  0  0  0
  144.0998  131.6744  150.7392 C   0  0  0  0  0  0  0  0  0  0  0  0
  143.5806  133.0301  151.2491 C   0  0  0  0  0  0  0  0  0  0  0  0
  144.6429  133.7701  152.0759 C   0  0  0  0  0  0  0  0  0  0  0  0
  149.8848  132.4855  155.0575 N   0  0  0  0  0  0  0  0  0  0  0  0
  151.7981  128.8725  155.3754 H   0  0  0  0  0  0  0  0  0  0  0  0
  151.6405  130.2828  154.3192 H   0  0  0  0  0  0  0  0  0  0  0  0
  150.1971  129.5408  155.0283 H   0  0  0  0  0  0  0  0  0  0  0  0
  148.8753  135.0292  153.5089 H   0  0  0  0  0  0  0  0  0  0  0  0
  147.5138  135.2458  151.9561 H   0  0  0  0  0  0  0  0  0  0  0  0
  145.7652  134.8503  150.5652 H   0  0  0  0  0  0  0  0  0  0  0  0
  147.3136  132.8279  149.9918 H   0  0  0  0  0  0  0  0  0  0  0  0
  145.8655  130.9410  149.6042 H   0  0  0  0  0  0  0  0  0  0  0  0
  143.4385  131.2929  149.9609 H   0  0  0  0  0  0  0  0  0  0  0  0
  144.0987  130.9410  151.5459 H   0  0  0  0  0  0  0  0  0  0  0  0
  143.2972  133.6523  150.3993 H   0  0  0  0  0  0  0  0  0  0  0  0
  142.6751  132.8840  151.8383 H   0  0  0  0  0  0  0  0  0  0  0  0
  144.8758  133.1706  152.9574 H   0  0  0  0  0  0  0  0  0  0  0  0
  144.2381  134.7130  152.4454 H   0  0  0  0  0  0  0  0  0  0  0  0
  1  2  1  0  0  0  0
  1 18  1  0  0  0  0
  1 19  1  0  0  0  0
  1 20  1  0  0  0  0
  2  3  1  0  0  0  0
  3 17  1  0  0  0  0
  3  4  2  0  0  0  0
  4  5  1  0  0  0  0
  5  6  1  0  0  0  0
  6  7  1  0  0  0  0
  6 17  2  0  0  0  0
  7  8  1  0  0  0  0
  7 21  1  0  0  0  0
  8  9  2  0  0  0  0
  8 10  1  0  0  0  0
 10 11  1  0  0  0  0
 10 22  1  0  0  0  0
 11 16  1  0  0  0  0
 11 12  1  0  0  0  0
 11 23  1  0  0  0  0
 12 13  2  0  0  0  0
 12 24  1  0  0  0  0
 13 14  1  0  0  0  0
 13 25  1  0  0  0  0
 14 15  1  0  0  0  0
 14 26  1  0  0  0  0
 14 27  1  0  0  0  0
 15 16  1  0  0  0  0
 15 28  1  0  0  0  0
 15 29  1  0  0  0  0
 16 30  1  0  0  0  0
 16 31  1  0  0  0  0
M  END
> <s_m_source_file>
AV-unprocessed.smi

> <i_m_source_file_index>
2560

> <i_lp_mmshare_version>
43012

> <i_f3d_flags>
0

> <s_epik_input>
W0NIM11TYzFuc2MobjEpW05IXUMoPU8pW05IXVtDQEBIXTJbQ0hdPVtDSF1bQ0gyXVtDSDJdW0NIMl0y

> <s_epik_cmdline>
J2VwaWtfcHl0aG9uJywgJy1waCcsICc3LjAnLCAnLXRuJywgJzgnLCAnLW1hJywgJzIwMCcsICctbWV0YWxfYmluZGluZycsICctaW1hZScsICc8aW5maWxlLm1hZT4nLCAnLW9tYWUnLCAnPG91dGZpbGUubWFlPic=

> <r_lp_tautomer_probability>
1

> <r_epik_Ionization_Penalty>
2.65559e-05

> <r_epik_Ionization_Penalty_Charging>
0

> <r_epik_Ionization_Penalty_Neutral>
2.65559e-05

> <r_epik_State_Penalty>
-0

> <r_epik_Charging_Adjusted_Penalty>
0

> <i_epik_Tot_Q>
0

> <i_epik_Tot_abs_Q>
0

> <r_epik_Metal_State_Penalty>
-0

> <b_epik_Metal_Only>
0

> <s_lp_Force_Field>
OPLS_2005

> <r_lp_Energy>
8.24661

> <b_lp_Chiralities_Consistent>
1

> <s_lp_Variant>
AV-unprocessed.smi:2560-2

> <Gold.Version>
5.8.1

> <Gold.Id.Protein>
6NUR|6NUR_protein|mol2

> <Gold.PLP.Fitness>
35.7993

> <Gold.PLP.PLP>
-30.1886

> <Gold.PLP.part.hbond>
-2.5417

> <Gold.PLP.part.metal>
0.0000

> <Gold.PLP.part.buried>
-4.7138

> <Gold.PLP.part.nonpolar>
-23.7321

> <Gold.PLP.part.repulsive>
0.1224

> <Gold.PLP.ligand.clash>
0.0000

> <Gold.PLP.ligand.torsion>
0.5934

> <Gold.PLP.Chemscore.Hbond>
2.2635

> <Gold.PLP.Chemscore.CHOScore>
0.0000

> <Gold.PLP.Chemscore.Metal>
0.0000

> <Gold.Chemscore.Hbonds>
donor molecule, donor type, donor heavy atom, donor atom, acceptor molecule, acceptor atom, score
      L1  H     7    21       P1  7948  0.88
      L1  H    10    22       P1  7948  1.00
      P1  H  6896  6909       L1     4  0.54

> <Gold.PLP.Chemscore.Internal.Correction>
0.0071

> <Gold.Rescore>
     Score         DG    S(hbond)    S(metal)    S(lipo)     H(rot)  DE(clash)    DE(int)     intcor
     14.34     -15.84       1.96        0.00      60.06       1.25       0.00       1.49       ----

> <Gold.Chemscore.Fitness>
14.3394

> <Gold.Chemscore.DG>
-15.8377

> <Gold.Chemscore.ZeroCoef>
-5.4800

> <Gold.Chemscore.Hbond>
1.9572

> <Gold.Chemscore.Metal>
0.0000

> <Gold.Chemscore.Lipo>
60.0585

> <Gold.Chemscore.Internal_Hbond>
0.0000

> <Gold.Chemscore.DEClash>
0.0038

> <Gold.Chemscore.DEInternal>
1.4945

> <Gold.Chemscore.Rot>
1.2524

> <Gold.Chemscore.Internal.Correction>
   9.000000E+99

> <Gold.Chemscore.Hbonds>
donor molecule, donor type, donor heavy atom, donor atom, acceptor molecule, acceptor atom, score
      L1  H     7    21       P1  7948  0.41
      L1  H    10    22       P1  7948  0.92
      P1  H  6896  6909       L1     4  0.52

> <Gold.Chemscore.Hbond.Weighted>
-6.5370

> <Gold.Chemscore.Metal.Weighted>
-0.0000

> <Gold.Chemscore.Lipo.Weighted>
-7.0268

> <Gold.Chemscore.Internal_Hbond.Weighted>
0.0000

> <Gold.Chemscore.DEClash.Weighted>
0.0038

> <Gold.Chemscore.DEInternal.Weighted>
1.4945

> <Gold.Chemscore.Rot.Weighted>
3.2062

> <Gold.Chemscore.Internal.Correction.Weighted>
   9.000000E+99

> <Gold.Protein.RotatedTorsions>
[ 6907 6896 6895 6894 ] final  -28.21 input  -60.11 | X-H torsion
[ 7974 7965 7964 7962 ] final  -53.41 input  175.53 | X-H torsion
[ 8008 7997 7996 7995 ] final   44.18 input   59.86 | X-H torsion
[ 10167 10162 10161 10158 ] final -139.00 input  -65.29 | X-H torsion
[ 10718 10713 10712 10709 ] final   42.21 input   66.30 | X-H torsion
[ 10763 10752 10751 10750 ] final  157.29 input  -60.55 | X-H torsion
[ 11005 11000 10999 10996 ] final -124.99 input  -57.11 | X-H torsion

> <Gold.Protein.ActiveResidues>
 VAL166  LYS551  ARG553  GLY616  TRP617  ASP618  TYR619  PRO620  LYS621  CYS622 
 ASP623  PHE694  ASN695  SER759  ASP760  ASP761  ALA762  ILE779  LEU786  VAL792 
 PHE793  MET794  SER795  GLU796  ALA797  LYS798  CYS799  TRP800  GLU811  SER814 

> <Gold.Protein.RotatedAtoms>
  151.1361  135.0155  159.8604 H   0  0  0  0  0  0  0  0  0  0  0  0  # atno 6907 bound_to 6896
  152.5452  134.1554  159.8546 H   0  0  0  0  0  0  0  0  0  0  0  0  # atno 6908 bound_to 6896
  151.1625  133.4791  159.2627 H   0  0  0  0  0  0  0  0  0  0  0  0  # atno 6909 bound_to 6896
  145.8971  140.8024  142.9762 H   0  0  0  0  0  0  0  0  0  0  0  0  # atno 7974 bound_to 7965
  155.3150  140.3393  155.4243 H   0  0  0  0  0  0  0  0  0  0  0  0  # atno 8008 bound_to 7997
  156.1937  140.1707  156.8079 H   0  0  0  0  0  0  0  0  0  0  0  0  # atno 8009 bound_to 7997
  154.5473  140.0712  156.8593 H   0  0  0  0  0  0  0  0  0  0  0  0  # atno 8010 bound_to 7997
  139.8422  143.7307  152.2662 H   0  0  0  0  0  0  0  0  0  0  0  0  # atno 10167 bound_to 10162
  157.4023  130.7867  149.7359 H   0  0  0  0  0  0  0  0  0  0  0  0  # atno 10718 bound_to 10713
  154.1979  135.2791  155.3000 H   0  0  0  0  0  0  0  0  0  0  0  0  # atno 10763 bound_to 10752
  154.5877  135.5569  153.7251 H   0  0  0  0  0  0  0  0  0  0  0  0  # atno 10764 bound_to 10752
  153.0095  135.6360  154.2117 H   0  0  0  0  0  0  0  0  0  0  0  0  # atno 10765 bound_to 10752
  140.9797  134.0690  157.3778 H   0  0  0  0  0  0  0  0  0  0  0  0  # atno 11005 bound_to 11000
  144.6733  140.1620  143.7421 LP  0  0  0  0  0  0  0  0  0  0  0  0  # atno 17320 bound_to 7965
  145.8837  139.2337  143.1590 LP  0  0  0  0  0  0  0  0  0  0  0  0  # atno 17321 bound_to 7965
  139.7547  144.7524  151.0453 LP  0  0  0  0  0  0  0  0  0  0  0  0  # atno 17342 bound_to 10162
  140.7797  143.4819  151.0007 LP  0  0  0  0  0  0  0  0  0  0  0  0  # atno 17343 bound_to 10162
  155.9827  130.4007  150.3404 LP  0  0  0  0  0  0  0  0  0  0  0  0  # atno 17370 bound_to 10713
  157.1533  131.0326  151.2875 LP  0  0  0  0  0  0  0  0  0  0  0  0  # atno 17371 bound_to 10713
  139.8945  135.0136  156.6955 LP  0  0  0  0  0  0  0  0  0  0  0  0  # atno 17394 bound_to 11000
  140.7205  133.9145  155.8143 LP  0  0  0  0  0  0  0  0  0  0  0  0  # atno 17395 bound_to 11000

$$$$
