AV-unprocessed.smi:1897|AV-procd|sdf|7694|dock9
  -GOLD-   22720 9433D 1   1.00000     0.00000
 Structure written by MMmdl.
 38 40  0  0  0  0  0  0  0  0  3 V2000
  148.5946  140.8628  154.3769 C   0  0  0  0  0  0  0  0  0  0  0  0
  149.5777  139.7547  154.5392 C   0  0  0  0  0  0  0  0  0  0  0  0
  150.8937  139.9636  154.6228 N   0  0  0  0  0  0  0  0  0  0  0  0
  151.6021  138.7809  154.7763 N   0  0  0  0  0  0  0  0  0  0  0  0
  150.8159  137.6953  154.7932 C   0  0  0  0  0  0  0  0  0  0  0  0
  151.3074  136.4493  154.9276 N   0  5  0  0  0  0  0  0  0  0  0  0
  150.5245  135.3817  155.2313 C   0  0  0  0  0  0  0  0  0  0  0  0
  150.6544  134.7163  156.2578 O   0  0  0  0  0  0  0  0  0  0  0  0
  149.5596  135.0432  154.3560 N   0  0  0  0  0  0  0  0  0  0  0  0
  148.6208  133.9384  154.5047 C   0  0  2  0  0  0  0  0  0  0  0  0
  149.2898  132.5511  154.5386 C   0  0  0  0  0  0  0  0  0  0  0  0
  148.3572  131.6295  153.7282 C   0  0  0  0  0  0  0  0  0  0  0  0
  147.1855  132.4609  153.3924 N   0  3  2  0  0  0  0  0  0  0  0  0
  146.3879  132.0615  152.2128 C   0  0  0  0  0  0  0  0  0  0  0  0
  145.1727  133.0017  152.0797 C   0  0  0  0  0  0  0  0  0  0  0  0
  145.5954  134.4855  152.0632 C   0  0  0  0  0  0  0  0  0  0  0  0
  146.5024  134.8196  153.2634 C   0  0  0  0  0  0  0  0  0  0  0  0
  147.6864  133.8398  153.3014 C   0  0  1  0  0  0  0  0  0  0  0  0
  149.1000  138.0678  154.6298 S   0  0  0  0  0  0  0  0  0  0  0  0
  148.5399  141.1619  153.3301 H   0  0  0  0  0  0  0  0  0  0  0  0
  148.8938  141.7246  154.9743 H   0  0  0  0  0  0  0  0  0  0  0  0
  147.6052  140.5413  154.7024 H   0  0  0  0  0  0  0  0  0  0  0  0
  149.4781  135.6028  153.5197 H   0  0  0  0  0  0  0  0  0  0  0  0
  148.0226  134.0738  155.4082 H   0  0  0  0  0  0  0  0  0  0  0  0
  150.2793  132.5733  154.0795 H   0  0  0  0  0  0  0  0  0  0  0  0
  149.4131  132.2036  155.5648 H   0  0  0  0  0  0  0  0  0  0  0  0
  148.8574  131.3017  152.8156 H   0  0  0  0  0  0  0  0  0  0  0  0
  148.0575  130.7433  154.2881 H   0  0  0  0  0  0  0  0  0  0  0  0
  147.0052  132.1050  151.3142 H   0  0  0  0  0  0  0  0  0  0  0  0
  146.0555  131.0294  152.3278 H   0  0  0  0  0  0  0  0  0  0  0  0
  144.6116  132.7624  151.1759 H   0  0  0  0  0  0  0  0  0  0  0  0
  144.4936  132.8318  152.9163 H   0  0  0  0  0  0  0  0  0  0  0  0
  146.1282  134.6996  151.1357 H   0  0  0  0  0  0  0  0  0  0  0  0
  144.7137  135.1271  152.0686 H   0  0  0  0  0  0  0  0  0  0  0  0
  146.8633  135.8460  153.1887 H   0  0  0  0  0  0  0  0  0  0  0  0
  145.9303  134.7546  154.1900 H   0  0  0  0  0  0  0  0  0  0  0  0
  148.2703  133.9379  152.3826 H   0  0  0  0  0  0  0  0  0  0  0  0
  146.5741  132.4332  154.1957 H   0  0  0  0  0  0  0  0  0  0  0  0
  1  2  1  0  0  0  0
  1 20  1  0  0  0  0
  1 21  1  0  0  0  0
  1 22  1  0  0  0  0
  2 19  1  0  0  0  0
  2  3  2  0  0  0  0
  3  4  1  0  0  0  0
  4  5  2  0  0  0  0
  5  6  1  0  0  0  0
  5 19  1  0  0  0  0
  6  7  1  0  0  0  0
  7  8  2  0  0  0  0
  7  9  1  0  0  0  0
  9 10  1  0  0  0  0
  9 23  1  0  0  0  0
 10 18  1  0  0  0  0
 10 11  1  0  0  0  0
 10 24  1  0  0  0  0
 11 12  1  0  0  0  0
 11 25  1  0  0  0  0
 11 26  1  0  0  0  0
 12 13  1  0  0  0  0
 12 27  1  0  0  0  0
 12 28  1  0  0  0  0
 13 18  1  0  0  0  0
 13 14  1  0  0  0  0
 13 38  1  0  0  0  0
 14 15  1  0  0  0  0
 14 29  1  0  0  0  0
 14 30  1  0  0  0  0
 15 16  1  0  0  0  0
 15 31  1  0  0  0  0
 15 32  1  0  0  0  0
 16 17  1  0  0  0  0
 16 33  1  0  0  0  0
 16 34  1  0  0  0  0
 17 18  1  0  0  0  0
 17 35  1  0  0  0  0
 17 36  1  0  0  0  0
 18 37  1  0  0  0  0
M  CHG  1   6  -1
M  CHG  1  13   1
M  END
> <s_m_source_file>
AV-unprocessed.smi

> <i_m_source_file_index>
1897

> <i_lp_mmshare_version>
43012

> <i_f3d_flags>
0

> <s_epik_input>
W0NIM11jMW5uYyhzMSlbTkhdQyg9TylbTkhdW0NASF0oW0NIMl1bQ0gyXTIpW0NAQEhdKE4yMylbQ0gyXVtDSDJdW0NIMl1bQ0gyXTM=

> <s_epik_cmdline>
J2VwaWtfcHl0aG9uJywgJy1waCcsICc3LjAnLCAnLXRuJywgJzgnLCAnLW1hJywgJzIwMCcsICctbWV0YWxfYmluZGluZycsICctaW1hZScsICc8aW5maWxlLm1hZT4nLCAnLW9tYWUnLCAnPG91dGZpbGUubWFlPic=

> <r_lp_tautomer_probability>
1

> <r_epik_Ionization_Penalty>
3.77712

> <r_epik_Ionization_Penalty_Charging>
3.67739

> <r_epik_Ionization_Penalty_Neutral>
0.0997294

> <r_epik_State_Penalty>
3.67514

> <r_epik_Charging_Adjusted_Penalty>
7.35254

> <i_epik_Tot_Q>
0

> <i_epik_Tot_abs_Q>
2

> <r_epik_Metal_State_Penalty>
0.540795

> <b_epik_Metal_Only>
1

> <s_lp_Force_Field>
OPLS_2005

> <r_lp_Energy>
28.3617

> <b_lp_Chiralities_Consistent>
1

> <s_lp_Variant>
AV-unprocessed.smi:1897-11

> <Gold.Version>
5.8.1

> <Gold.Id.Protein>
6NUR|6NUR_protein|mol2

> <Gold.PLP.Fitness>
39.0586

> <Gold.PLP.PLP>
-28.4805

> <Gold.PLP.part.hbond>
-3.0000

> <Gold.PLP.part.metal>
0.0000

> <Gold.PLP.part.buried>
-3.2287

> <Gold.PLP.part.nonpolar>
-23.1143

> <Gold.PLP.part.repulsive>
0.3615

> <Gold.PLP.ligand.clash>
0.0000

> <Gold.PLP.ligand.torsion>
0.6408

> <Gold.PLP.Chemscore.Hbond>
3.9500

> <Gold.PLP.Chemscore.CHOScore>
0.0000

> <Gold.PLP.Chemscore.Metal>
0.0000

> <Gold.Chemscore.Hbonds>
donor molecule, donor type, donor heavy atom, donor atom, acceptor molecule, acceptor atom, score
      L1  H     9    23       P1  7948  0.95
      P1  H  7989  7998       L1     3  1.00
      P1  H 10752 10765       L1     6  2.00

> <Gold.PLP.Chemscore.Internal.Correction>
0.0097

> <Gold.Rescore>
     Score         DG    S(hbond)    S(metal)    S(lipo)     H(rot)  DE(clash)    DE(int)     intcor
     15.66     -16.33       2.22        0.00      51.30       1.00       0.00       0.67       ----

> <Gold.Chemscore.Fitness>
15.6573

> <Gold.Chemscore.DG>
-16.3267

> <Gold.Chemscore.ZeroCoef>
-5.4800

> <Gold.Chemscore.Hbond>
2.2169

> <Gold.Chemscore.Metal>
0.0000

> <Gold.Chemscore.Lipo>
51.3012

> <Gold.Chemscore.Internal_Hbond>
0.0000

> <Gold.Chemscore.DEClash>
0.0000

> <Gold.Chemscore.DEInternal>
0.6694

> <Gold.Chemscore.Rot>
1.0000

> <Gold.Chemscore.Internal.Correction>
   9.000000E+99

> <Gold.Chemscore.Hbonds>
donor molecule, donor type, donor heavy atom, donor atom, acceptor molecule, acceptor atom, score
      L1  H     9    23       P1  7948  0.22
      P1  H  7989  7998       L1     3  0.68
      P1  H 10752 10765       L1     6  0.35

> <Gold.Chemscore.Hbond.Weighted>
-7.4045

> <Gold.Chemscore.Metal.Weighted>
-0.0000

> <Gold.Chemscore.Lipo.Weighted>
-6.0022

> <Gold.Chemscore.Internal_Hbond.Weighted>
0.0000

> <Gold.Chemscore.DEClash.Weighted>
0.0000

> <Gold.Chemscore.DEInternal.Weighted>
0.6694

> <Gold.Chemscore.Rot.Weighted>
2.5600

> <Gold.Chemscore.Internal.Correction.Weighted>
   9.000000E+99

> <Gold.Protein.RotatedTorsions>
[ 6907 6896 6895 6894 ] final  -54.18 input  -60.11 | X-H torsion
[ 7974 7965 7964 7962 ] final   59.29 input  175.53 | X-H torsion
[ 8008 7997 7996 7995 ] final  -34.33 input   59.86 | X-H torsion
[ 10167 10162 10161 10158 ] final  -80.74 input  -65.29 | X-H torsion
[ 10718 10713 10712 10709 ] final -171.73 input   66.30 | X-H torsion
[ 10763 10752 10751 10750 ] final  171.42 input  -60.55 | X-H torsion
[ 11005 11000 10999 10996 ] final -175.56 input  -57.11 | X-H torsion

> <Gold.Protein.ActiveResidues>
 VAL166  LYS551  ARG553  GLY616  TRP617  ASP618  TYR619  PRO620  LYS621  CYS622 
 ASP623  PHE694  ASN695  SER759  ASP760  ASP761  ALA762  ILE779  LEU786  VAL792 
 PHE793  MET794  SER795  GLU796  ALA797  LYS798  CYS799  TRP800  GLU811  SER814 

> <Gold.Protein.RotatedAtoms>
  150.8361  134.7635  159.6893 H   0  0  0  0  0  0  0  0  0  0  0  0  # atno 6907 bound_to 6896
  152.4457  134.5495  159.9872 H   0  0  0  0  0  0  0  0  0  0  0  0  # atno 6908 bound_to 6896
  151.5645  133.3360  159.3013 H   0  0  0  0  0  0  0  0  0  0  0  0  # atno 6909 bound_to 6896
  145.9088  139.3638  143.0548 H   0  0  0  0  0  0  0  0  0  0  0  0  # atno 7974 bound_to 7965
  154.4124  140.1687  156.2033 H   0  0  0  0  0  0  0  0  0  0  0  0  # atno 8008 bound_to 7997
  155.9506  140.3401  155.6381 H   0  0  0  0  0  0  0  0  0  0  0  0  # atno 8009 bound_to 7997
  155.6875  140.0730  157.2452 H   0  0  0  0  0  0  0  0  0  0  0  0  # atno 8010 bound_to 7997
  140.4476  143.2494  151.8536 H   0  0  0  0  0  0  0  0  0  0  0  0  # atno 10167 bound_to 10162
  156.7452  130.9357  151.3112 H   0  0  0  0  0  0  0  0  0  0  0  0  # atno 10718 bound_to 10713
  154.4116  135.2756  155.2033 H   0  0  0  0  0  0  0  0  0  0  0  0  # atno 10763 bound_to 10752
  154.4016  135.6043  153.5904 H   0  0  0  0  0  0  0  0  0  0  0  0  # atno 10764 bound_to 10752
  152.9831  135.5928  154.4399 H   0  0  0  0  0  0  0  0  0  0  0  0  # atno 10765 bound_to 10752
  140.4619  134.6246  157.4846 H   0  0  0  0  0  0  0  0  0  0  0  0  # atno 11005 bound_to 11000
  145.8697  140.9427  143.0657 LP  0  0  0  0  0  0  0  0  0  0  0  0  # atno 17320 bound_to 7965
  144.6741  140.0639  143.7475 LP  0  0  0  0  0  0  0  0  0  0  0  0  # atno 17321 bound_to 7965
  139.4794  144.5158  151.8870 LP  0  0  0  0  0  0  0  0  0  0  0  0  # atno 17342 bound_to 10162
  140.4246  144.2198  150.5887 LP  0  0  0  0  0  0  0  0  0  0  0  0  # atno 17343 bound_to 10162
  157.6801  130.9132  150.0247 LP  0  0  0  0  0  0  0  0  0  0  0  0  # atno 17370 bound_to 10713
  156.1438  130.3642  149.9541 LP  0  0  0  0  0  0  0  0  0  0  0  0  # atno 17371 bound_to 10713
  139.9940  134.6941  155.9641 LP  0  0  0  0  0  0  0  0  0  0  0  0  # atno 17394 bound_to 11000
  141.1617  133.6538  156.4342 LP  0  0  0  0  0  0  0  0  0  0  0  0  # atno 17395 bound_to 11000

$$$$
