AV-unprocessed.smi:3351|AV-procd|sdf|12947|dock5
  -GOLD-   2272019383D 1   1.00000     0.00000
 Structure written by MMmdl.
 35 36  0  0  0  0  0  0  0  0  2 V2000
  149.7759  139.8794  156.4591 C   0  0  0  0  0  0  0  0  0  0  0  0
  149.3267  141.2386  155.9062 C   0  0  2  0  0  0  0  0  0  0  0  0
  149.2602  141.2201  154.3630 C   0  0  0  0  0  0  0  0  0  0  0  0
  148.0307  140.6090  153.8462 N   0  0  0  0  0  0  0  0  0  0  0  0
  147.9146  139.4301  153.1556 C   0  0  0  0  0  0  0  0  0  0  0  0
  146.5843  139.2782  152.8618 C   0  0  0  0  0  0  0  0  0  0  0  0
  145.9434  140.3641  153.3954 N   0  3  0  0  0  0  0  0  0  0  0  0
  146.8238  141.1693  153.9986 C   0  0  0  0  0  0  0  0  0  0  0  0
  150.2483  142.2709  156.3802 N   0  0  0  0  0  0  0  0  0  0  0  0
  150.5729  142.5027  157.6621 C   0  0  0  0  0  0  0  0  0  0  0  0
  150.1367  141.8362  158.6018 O   0  0  0  0  0  0  0  0  0  0  0  0
  151.5423  143.6623  157.9164 C   0  0  0  0  0  0  0  0  0  0  0  0
  152.0736  143.6538  159.2798 N   0  0  0  0  0  0  0  0  0  0  0  0
  152.8785  142.5232  159.7228 C   0  0  0  0  0  0  0  0  0  0  0  0
  152.9694  142.5804  161.2493 C   0  0  0  0  0  0  0  0  0  0  0  0
  152.6638  144.2856  161.7535 S   0  0  0  0  0  0  0  0  0  0  0  0
  151.9066  144.6986  160.1793 C   0  0  0  0  0  0  0  0  0  0  0  0
  151.3320  145.7688  159.9879 O   0  0  0  0  0  0  0  0  0  0  0  0
  149.0937  139.0862  156.1523 H   0  0  0  0  0  0  0  0  0  0  0  0
  149.7999  139.8873  157.5495 H   0  0  0  0  0  0  0  0  0  0  0  0
  150.7731  139.6152  156.1053 H   0  0  0  0  0  0  0  0  0  0  0  0
  148.3271  141.4297  156.3008 H   0  0  0  0  0  0  0  0  0  0  0  0
  149.3319  142.2314  153.9601 H   0  0  0  0  0  0  0  0  0  0  0  0
  150.0997  140.6570  153.9525 H   0  0  0  0  0  0  0  0  0  0  0  0
  148.7662  138.8086  152.9182 H   0  0  0  0  0  0  0  0  0  0  0  0
  146.0607  138.5000  152.3258 H   0  0  0  0  0  0  0  0  0  0  0  0
  146.6048  142.0963  154.4979 H   0  0  0  0  0  0  0  0  0  0  0  0
  150.6648  142.8635  155.6762 H   0  0  0  0  0  0  0  0  0  0  0  0
  152.3597  143.5955  157.1973 H   0  0  0  0  0  0  0  0  0  0  0  0
  151.0442  144.6154  157.7297 H   0  0  0  0  0  0  0  0  0  0  0  0
  152.4512  141.5766  159.3893 H   0  0  0  0  0  0  0  0  0  0  0  0
  153.8713  142.6131  159.2806 H   0  0  0  0  0  0  0  0  0  0  0  0
  152.1940  141.9548  161.6921 H   0  0  0  0  0  0  0  0  0  0  0  0
  153.9324  142.2270  161.6183 H   0  0  0  0  0  0  0  0  0  0  0  0
  144.9474  140.5369  153.3406 H   0  0  0  0  0  0  0  0  0  0  0  0
  1  2  1  0  0  0  0
  1 19  1  0  0  0  0
  1 20  1  0  0  0  0
  1 21  1  0  0  0  0
  2  3  1  0  0  0  0
  2  9  1  0  0  0  0
  2 22  1  0  0  0  0
  3  4  1  0  0  0  0
  3 23  1  0  0  0  0
  3 24  1  0  0  0  0
  4  8  1  0  0  0  0
  4  5  1  0  0  0  0
  5  6  2  0  0  0  0
  5 25  1  0  0  0  0
  6  7  1  0  0  0  0
  6 26  1  0  0  0  0
  7  8  2  0  0  0  0
  7 35  1  0  0  0  0
  8 27  1  0  0  0  0
  9 10  1  0  0  0  0
  9 28  1  0  0  0  0
 10 11  2  0  0  0  0
 10 12  1  0  0  0  0
 12 13  1  0  0  0  0
 12 29  1  0  0  0  0
 12 30  1  0  0  0  0
 13 17  1  0  0  0  0
 13 14  1  0  0  0  0
 14 15  1  0  0  0  0
 14 31  1  0  0  0  0
 14 32  1  0  0  0  0
 15 16  1  0  0  0  0
 15 33  1  0  0  0  0
 15 34  1  0  0  0  0
 16 17  1  0  0  0  0
 17 18  2  0  0  0  0
M  CHG  1   7   1
M  END
> <s_m_source_file>
AV-unprocessed.smi

> <i_m_source_file_index>
3351

> <i_lp_mmshare_version>
43012

> <i_f3d_flags>
0

> <s_epik_input>
W2NIXTFuW2NIXVtjSF1uMVtDSDJdW0NAQEhdKFtDSDNdKVtOSF1DKD1PKVtDSDJdTjJbQ0gyXVtDSDJdU0MyPU8=

> <s_epik_cmdline>
J2VwaWtfcHl0aG9uJywgJy1waCcsICc3LjAnLCAnLXRuJywgJzgnLCAnLW1hJywgJzIwMCcsICctbWV0YWxfYmluZGluZycsICctaW1hZScsICc8aW5maWxlLm1hZT4nLCAnLW9tYWUnLCAnPG91dGZpbGUubWFlPic=

> <r_lp_tautomer_probability>
1

> <r_epik_Ionization_Penalty>
0.257312

> <r_epik_Ionization_Penalty_Charging>
0

> <r_epik_Ionization_Penalty_Neutral>
0.257312

> <r_epik_State_Penalty>
0.248897

> <r_epik_Charging_Adjusted_Penalty>
0.248897

> <i_epik_Tot_Q>
1

> <i_epik_Tot_abs_Q>
1

> <r_epik_Metal_State_Penalty>
0.538022

> <b_epik_Metal_Only>
0

> <s_lp_Force_Field>
OPLS_2005

> <r_lp_Energy>
4.24041

> <b_lp_Chiralities_Consistent>
1

> <s_lp_Variant>
AV-unprocessed.smi:3351-1

> <Gold.Version>
5.8.1

> <Gold.Id.Protein>
6NUR|6NUR_protein|mol2

> <Gold.PLP.Fitness>
45.6067

> <Gold.PLP.PLP>
-37.6679

> <Gold.PLP.part.hbond>
-3.2633

> <Gold.PLP.part.metal>
0.0000

> <Gold.PLP.part.buried>
-0.1733

> <Gold.PLP.part.nonpolar>
-34.8348

> <Gold.PLP.part.repulsive>
0.3282

> <Gold.PLP.ligand.clash>
0.0000

> <Gold.PLP.ligand.torsion>
0.4394

> <Gold.PLP.Chemscore.Hbond>
2.0000

> <Gold.PLP.Chemscore.CHOScore>
0.9287

> <Gold.PLP.Chemscore.Metal>
0.0000

> <Gold.Chemscore.Hbonds>
donor molecule, donor type, donor heavy atom, donor atom, acceptor molecule, acceptor atom, score
      L1  H     7    35       P1 10175  1.87
      L1  C     5    25       P1  7948  0.43
      L1  C     5    25       P1  7957  0.38

> <Gold.PLP.Chemscore.Internal.Correction>
0.0315

> <Gold.Rescore>
     Score         DG    S(hbond)    S(metal)    S(lipo)     H(rot)  DE(clash)    DE(int)     intcor
      8.69     -11.98       0.94        0.00      81.43       2.41       1.57       1.73       ----

> <Gold.Chemscore.Fitness>
8.6894

> <Gold.Chemscore.DG>
-11.9821

> <Gold.Chemscore.ZeroCoef>
-5.4800

> <Gold.Chemscore.Hbond>
0.9444

> <Gold.Chemscore.Metal>
0.0000

> <Gold.Chemscore.Lipo>
81.4346

> <Gold.Chemscore.Internal_Hbond>
0.0000

> <Gold.Chemscore.DEClash>
1.5672

> <Gold.Chemscore.DEInternal>
1.7255

> <Gold.Chemscore.Rot>
2.4141

> <Gold.Chemscore.Internal.Correction>
   9.000000E+99

> <Gold.Chemscore.Hbonds>
donor molecule, donor type, donor heavy atom, donor atom, acceptor molecule, acceptor atom, score
      L1  H     7    35       P1 10175  0.82

> <Gold.Chemscore.Hbond.Weighted>
-3.1543

> <Gold.Chemscore.Metal.Weighted>
-0.0000

> <Gold.Chemscore.Lipo.Weighted>
-9.5278

> <Gold.Chemscore.Internal_Hbond.Weighted>
0.0000

> <Gold.Chemscore.DEClash.Weighted>
1.5672

> <Gold.Chemscore.DEInternal.Weighted>
1.7255

> <Gold.Chemscore.Rot.Weighted>
6.1800

> <Gold.Chemscore.Internal.Correction.Weighted>
   9.000000E+99

> <Gold.Protein.RotatedTorsions>
[ 6907 6896 6895 6894 ] final  -59.43 input  -60.11 | X-H torsion
[ 7974 7965 7964 7962 ] final   91.13 input  175.53 | X-H torsion
[ 8008 7997 7996 7995 ] final   84.32 input   59.86 | X-H torsion
[ 10167 10162 10161 10158 ] final  130.75 input  -65.29 | X-H torsion
[ 10718 10713 10712 10709 ] final   10.93 input   66.30 | X-H torsion
[ 10763 10752 10751 10750 ] final  122.17 input  -60.55 | X-H torsion
[ 11005 11000 10999 10996 ] final  -97.14 input  -57.11 | X-H torsion

> <Gold.Protein.ActiveResidues>
 VAL166  LYS551  ARG553  GLY616  TRP617  ASP618  TYR619  PRO620  LYS621  CYS622 
 ASP623  PHE694  ASN695  SER759  ASP760  ASP761  ALA762  ILE779  LEU786  VAL792 
 PHE793  MET794  SER795  GLU796  ALA797  LYS798  CYS799  TRP800  GLU811  SER814 

> <Gold.Protein.RotatedAtoms>
  150.7931  134.6969  159.6527 H   0  0  0  0  0  0  0  0  0  0  0  0  # atno 6907 bound_to 6896
  152.4039  134.6236  160.0067 H   0  0  0  0  0  0  0  0  0  0  0  0  # atno 6908 bound_to 6896
  151.6499  133.3284  159.3186 H   0  0  0  0  0  0  0  0  0  0  0  0  # atno 6909 bound_to 6896
  145.5098  139.2277  143.2731 H   0  0  0  0  0  0  0  0  0  0  0  0  # atno 7974 bound_to 7965
  155.9356  140.3412  155.6284 H   0  0  0  0  0  0  0  0  0  0  0  0  # atno 8008 bound_to 7997
  155.7104  140.0771  157.2392 H   0  0  0  0  0  0  0  0  0  0  0  0  # atno 8009 bound_to 7997
  154.4093  140.1624  156.2277 H   0  0  0  0  0  0  0  0  0  0  0  0  # atno 8010 bound_to 7997
  139.5415  144.6735  151.4609 H   0  0  0  0  0  0  0  0  0  0  0  0  # atno 10167 bound_to 10162
  156.9882  130.6032  149.5683 H   0  0  0  0  0  0  0  0  0  0  0  0  # atno 10718 bound_to 10713
  153.6255  135.3405  155.3025 H   0  0  0  0  0  0  0  0  0  0  0  0  # atno 10763 bound_to 10752
  154.8591  135.4283  154.2161 H   0  0  0  0  0  0  0  0  0  0  0  0  # atno 10764 bound_to 10752
  153.3045  135.7027  153.7246 H   0  0  0  0  0  0  0  0  0  0  0  0  # atno 10765 bound_to 10752
  141.1388  133.8149  157.0666 H   0  0  0  0  0  0  0  0  0  0  0  0  # atno 11005 bound_to 11000
  146.2174  140.5904  142.9032 LP  0  0  0  0  0  0  0  0  0  0  0  0  # atno 17320 bound_to 7965
  144.7734  140.5686  143.6655 LP  0  0  0  0  0  0  0  0  0  0  0  0  # atno 17321 bound_to 7965
  140.6647  143.8423  150.6928 LP  0  0  0  0  0  0  0  0  0  0  0  0  # atno 17342 bound_to 10162
  140.1829  143.4100  152.1920 LP  0  0  0  0  0  0  0  0  0  0  0  0  # atno 17343 bound_to 10162
  156.0218  130.5312  150.8295 LP  0  0  0  0  0  0  0  0  0  0  0  0  # atno 17370 bound_to 10713
  157.5478  131.0943  150.9738 LP  0  0  0  0  0  0  0  0  0  0  0  0  # atno 17371 bound_to 10713
  140.0537  134.9792  157.1183 LP  0  0  0  0  0  0  0  0  0  0  0  0  # atno 17394 bound_to 11000
  140.3951  134.2143  155.7165 LP  0  0  0  0  0  0  0  0  0  0  0  0  # atno 17395 bound_to 11000

$$$$
