AV-unprocessed.smi:496|AV-procd|sdf|2716|dock1
  -GOLD-   2262023163D 1   1.00000     0.00000
 Structure written by MMmdl.
 42 44  0  0  0  0  0  0  0  0  1 V2000
  151.0165  138.6121  154.4021 C   0  0  0  0  0  0  0  0  0  0  0  0
  151.0624  140.0040  154.6624 O   0  0  0  0  0  0  0  0  0  0  0  0
  151.9335  140.3271  155.7322 C   0  0  0  0  0  0  0  0  0  0  0  0
  151.2713  139.9134  157.0523 C   0  0  0  0  0  0  0  0  0  0  0  0
  151.8447  140.6197  158.1884 N   0  0  0  0  0  0  0  0  0  0  0  0
  152.4881  140.1087  159.2712 C   0  0  0  0  0  0  0  0  0  0  0  0
  152.7110  138.6297  159.4687 C   0  0  2  0  0  0  0  0  0  0  0  0
  151.4263  137.8174  159.2545 C   0  0  0  0  0  0  0  0  0  0  0  0
  153.2255  138.4162  160.8191 N   0  0  0  0  0  0  0  0  0  0  0  0
  153.6058  137.2323  161.3254 C   0  0  0  0  0  0  0  0  0  0  0  0
  153.5387  136.1738  160.7003 O   0  0  0  0  0  0  0  0  0  0  0  0
  154.1050  137.2594  162.7130 C   0  0  0  0  0  0  0  0  0  0  0  0
  154.0020  136.3472  163.7307 C   0  0  0  0  0  0  0  0  0  0  0  0
  154.6599  136.9165  164.8559 C   0  0  0  0  0  0  0  0  0  0  0  0
  155.1124  138.1384  164.4477 C   0  0  0  0  0  0  0  0  0  0  0  0
  154.7779  138.3645  163.1482 O   0  0  0  0  0  0  0  0  0  0  0  0
  152.9232  141.0084  160.1579 N   0  0  0  0  0  0  0  0  0  0  0  0
  152.5126  142.2061  159.6094 C   0  0  0  0  0  0  0  0  0  0  0  0
  152.6657  143.5303  160.0787 C   0  0  0  0  0  0  0  0  0  0  0  0
  152.1492  144.6139  159.3385 C   0  0  0  0  0  0  0  0  0  0  0  0
  151.4747  144.3890  158.1210 C   0  0  0  0  0  0  0  0  0  0  0  0
  151.3134  143.0772  157.6350 C   0  0  0  0  0  0  0  0  0  0  0  0
  151.8310  141.9986  158.3777 C   0  0  0  0  0  0  0  0  0  0  0  0
  150.3358  138.4167  153.5735 H   0  0  0  0  0  0  0  0  0  0  0  0
  150.6563  138.0597  155.2710 H   0  0  0  0  0  0  0  0  0  0  0  0
  152.0004  138.2296  154.1269 H   0  0  0  0  0  0  0  0  0  0  0  0
  152.8833  139.8034  155.6113 H   0  0  0  0  0  0  0  0  0  0  0  0
  152.1444  141.3974  155.7300 H   0  0  0  0  0  0  0  0  0  0  0  0
  150.1949  140.0811  157.0241 H   0  0  0  0  0  0  0  0  0  0  0  0
  151.3988  138.8418  157.2072 H   0  0  0  0  0  0  0  0  0  0  0  0
  153.4458  138.2549  158.7577 H   0  0  0  0  0  0  0  0  0  0  0  0
  151.0371  137.9621  158.2464 H   0  0  0  0  0  0  0  0  0  0  0  0
  150.6452  138.1109  159.9568 H   0  0  0  0  0  0  0  0  0  0  0  0
  151.6099  136.7510  159.3876 H   0  0  0  0  0  0  0  0  0  0  0  0
  153.3173  139.2329  161.4051 H   0  0  0  0  0  0  0  0  0  0  0  0
  153.5120  135.3860  163.6748 H   0  0  0  0  0  0  0  0  0  0  0  0
  154.7841  136.4878  165.8394 H   0  0  0  0  0  0  0  0  0  0  0  0
  155.6605  138.9352  164.9287 H   0  0  0  0  0  0  0  0  0  0  0  0
  153.1800  143.7126  161.0106 H   0  0  0  0  0  0  0  0  0  0  0  0
  152.2704  145.6220  159.7067 H   0  0  0  0  0  0  0  0  0  0  0  0
  151.0812  145.2243  157.5602 H   0  0  0  0  0  0  0  0  0  0  0  0
  150.7963  142.9039  156.7032 H   0  0  0  0  0  0  0  0  0  0  0  0
  1  2  1  0  0  0  0
  1 24  1  0  0  0  0
  1 25  1  0  0  0  0
  1 26  1  0  0  0  0
  2  3  1  0  0  0  0
  3  4  1  0  0  0  0
  3 27  1  0  0  0  0
  3 28  1  0  0  0  0
  4  5  1  0  0  0  0
  4 29  1  0  0  0  0
  4 30  1  0  0  0  0
  5 23  1  0  0  0  0
  5  6  1  0  0  0  0
  6  7  1  0  0  0  0
  6 17  2  0  0  0  0
  7  8  1  0  0  0  0
  7  9  1  0  0  0  0
  7 31  1  0  0  0  0
  8 32  1  0  0  0  0
  8 33  1  0  0  0  0
  8 34  1  0  0  0  0
  9 10  1  0  0  0  0
  9 35  1  0  0  0  0
 10 11  2  0  0  0  0
 10 12  1  0  0  0  0
 12 16  1  0  0  0  0
 12 13  2  0  0  0  0
 13 14  1  0  0  0  0
 13 36  1  0  0  0  0
 14 15  2  0  0  0  0
 14 37  1  0  0  0  0
 15 16  1  0  0  0  0
 15 38  1  0  0  0  0
 17 18  1  0  0  0  0
 18 23  2  0  0  0  0
 18 19  1  0  0  0  0
 19 20  2  0  0  0  0
 19 39  1  0  0  0  0
 20 21  1  0  0  0  0
 20 40  1  0  0  0  0
 21 22  2  0  0  0  0
 21 41  1  0  0  0  0
 22 23  1  0  0  0  0
 22 42  1  0  0  0  0
M  END
> <s_m_source_file>
AV-unprocessed.smi

> <i_m_source_file_index>
496

> <i_lp_mmshare_version>
43012

> <i_f3d_flags>
0

> <s_epik_input>
W2NIXTFbY0hdW2NIXVtjSF1jKGMxMiluKFtDSDJdW0NIMl1PW0NIM10pYyhuMilbQ0BIXShbQ0gzXSlbTkhdQyg9TyljM1tjSF1bY0hdW2NIXW8z

> <s_epik_cmdline>
J2VwaWtfcHl0aG9uJywgJy1waCcsICc3LjAnLCAnLXRuJywgJzgnLCAnLW1hJywgJzIwMCcsICctbWV0YWxfYmluZGluZycsICctaW1hZScsICc8aW5maWxlLm1hZT4nLCAnLW9tYWUnLCAnPG91dGZpbGUubWFlPic=

> <r_epik_Ionization_Penalty>
0.116528

> <r_epik_Ionization_Penalty_Charging>
0

> <r_epik_Ionization_Penalty_Neutral>
0.116528

> <r_epik_State_Penalty>
0.106132

> <r_epik_Charging_Adjusted_Penalty>
0.106132

> <i_epik_Tot_Q>
0

> <i_epik_Tot_abs_Q>
0

> <r_epik_Metal_State_Penalty>
0.0963468

> <b_epik_Metal_Only>
0

> <s_lp_Force_Field>
OPLS_2005

> <r_lp_Energy>
7.66614

> <b_lp_Chiralities_Consistent>
1

> <s_lp_Variant>
AV-unprocessed.smi:496-1

> <Gold.Version>
5.8.1

> <Gold.Id.Protein>
6NUR|6NUR_protein|mol2

> <Gold.PLP.Fitness>
54.5566

> <Gold.PLP.PLP>
-50.0898

> <Gold.PLP.part.hbond>
-2.0000

> <Gold.PLP.part.metal>
0.0000

> <Gold.PLP.part.buried>
-5.1683

> <Gold.PLP.part.nonpolar>
-43.3419

> <Gold.PLP.part.repulsive>
0.1372

> <Gold.PLP.ligand.clash>
0.0000

> <Gold.PLP.ligand.torsion>
0.8062

> <Gold.PLP.Chemscore.Hbond>
2.0000

> <Gold.PLP.Chemscore.CHOScore>
0.0000

> <Gold.PLP.Chemscore.Metal>
0.0000

> <Gold.Chemscore.Hbonds>
donor molecule, donor type, donor heavy atom, donor atom, acceptor molecule, acceptor atom, score
      P1  H  6896  6909       L1    11  1.00
      P1  H  7989  7998       L1     2  1.00

> <Gold.PLP.Chemscore.Internal.Correction>
0.0792

> <Gold.Rescore>
     Score         DG    S(hbond)    S(metal)    S(lipo)     H(rot)  DE(clash)    DE(int)     intcor
     21.48     -22.39       1.92        0.00     130.31       1.85       0.10       0.81       ----

> <Gold.Chemscore.Fitness>
21.4788

> <Gold.Chemscore.DG>
-22.3941

> <Gold.Chemscore.ZeroCoef>
-5.4800

> <Gold.Chemscore.Hbond>
1.9156

> <Gold.Chemscore.Metal>
0.0000

> <Gold.Chemscore.Lipo>
130.3148

> <Gold.Chemscore.Internal_Hbond>
0.0000

> <Gold.Chemscore.DEClash>
0.1005

> <Gold.Chemscore.DEInternal>
0.8147

> <Gold.Chemscore.Rot>
1.8480

> <Gold.Chemscore.Internal.Correction>
   9.000000E+99

> <Gold.Chemscore.Hbonds>
donor molecule, donor type, donor heavy atom, donor atom, acceptor molecule, acceptor atom, score
      P1  H  6896  6909       L1    11  1.00
      P1  H  7989  7998       L1     2  0.30

> <Gold.Chemscore.Hbond.Weighted>
-6.3981

> <Gold.Chemscore.Metal.Weighted>
-0.0000

> <Gold.Chemscore.Lipo.Weighted>
-15.2468

> <Gold.Chemscore.Internal_Hbond.Weighted>
0.0000

> <Gold.Chemscore.DEClash.Weighted>
0.1005

> <Gold.Chemscore.DEInternal.Weighted>
0.8147

> <Gold.Chemscore.Rot.Weighted>
4.7308

> <Gold.Chemscore.Internal.Correction.Weighted>
   9.000000E+99

> <Gold.Protein.RotatedTorsions>
[ 6907 6896 6895 6894 ] final  161.81 input  -60.11 | X-H torsion
[ 7974 7965 7964 7962 ] final  -51.46 input  175.53 | X-H torsion
[ 8008 7997 7996 7995 ] final   19.76 input   59.86 | X-H torsion
[ 10167 10162 10161 10158 ] final   -2.95 input  -65.29 | X-H torsion
[ 10718 10713 10712 10709 ] final  -19.07 input   66.30 | X-H torsion
[ 10763 10752 10751 10750 ] final -157.79 input  -60.55 | X-H torsion
[ 11005 11000 10999 10996 ] final  -63.14 input  -57.11 | X-H torsion

> <Gold.Protein.ActiveResidues>
 VAL166  LYS551  ARG553  GLY616  TRP617  ASP618  TYR619  PRO620  LYS621  CYS622 
 ASP623  PHE694  ASN695  SER759  ASP760  ASP761  ALA762  ILE779  LEU786  VAL792 
 PHE793  MET794  SER795  GLU796  ALA797  LYS798  CYS799  TRP800  GLU811  SER814 

> <Gold.Protein.RotatedAtoms>
  151.9500  133.3663  159.3996 H   0  0  0  0  0  0  0  0  0  0  0  0  # atno 6907 bound_to 6896
  150.6982  134.4350  159.5275 H   0  0  0  0  0  0  0  0  0  0  0  0  # atno 6908 bound_to 6896
  152.2022  134.8578  160.0557 H   0  0  0  0  0  0  0  0  0  0  0  0  # atno 6909 bound_to 6896
  145.9187  140.7852  142.9658 H   0  0  0  0  0  0  0  0  0  0  0  0  # atno 7974 bound_to 7965
  154.9255  140.3033  155.5194 H   0  0  0  0  0  0  0  0  0  0  0  0  # atno 8008 bound_to 7997
  156.3007  140.2363  156.4245 H   0  0  0  0  0  0  0  0  0  0  0  0  # atno 8009 bound_to 7997
  154.8289  140.0419  157.1452 H   0  0  0  0  0  0  0  0  0  0  0  0  # atno 8010 bound_to 7997
  140.6871  143.6597  150.8277 H   0  0  0  0  0  0  0  0  0  0  0  0  # atno 10167 bound_to 10162
  156.5508  130.4701  149.6453 H   0  0  0  0  0  0  0  0  0  0  0  0  # atno 10718 bound_to 10713
  154.7608  135.3117  154.8381 H   0  0  0  0  0  0  0  0  0  0  0  0  # atno 10763 bound_to 10752
  153.9143  135.6802  153.4754 H   0  0  0  0  0  0  0  0  0  0  0  0  # atno 10764 bound_to 10752
  153.1209  135.4823  154.9125 H   0  0  0  0  0  0  0  0  0  0  0  0  # atno 10765 bound_to 10752
  141.1383  133.6648  156.5635 H   0  0  0  0  0  0  0  0  0  0  0  0  # atno 11005 bound_to 11000
  144.6750  140.1941  143.7393 LP  0  0  0  0  0  0  0  0  0  0  0  0  # atno 17320 bound_to 7965
  145.8578  139.2207  143.1734 LP  0  0  0  0  0  0  0  0  0  0  0  0  # atno 17321 bound_to 7965
  140.0305  143.5448  152.2762 LP  0  0  0  0  0  0  0  0  0  0  0  0  # atno 17342 bound_to 10162
  139.6239  144.7634  151.2680 LP  0  0  0  0  0  0  0  0  0  0  0  0  # atno 17343 bound_to 10162
  156.2887  130.7112  151.1955 LP  0  0  0  0  0  0  0  0  0  0  0  0  # atno 17370 bound_to 10713
  157.7388  131.0537  150.5273 LP  0  0  0  0  0  0  0  0  0  0  0  0  # atno 17371 bound_to 10713
  140.3969  134.7391  157.4756 LP  0  0  0  0  0  0  0  0  0  0  0  0  # atno 17394 bound_to 11000
  140.0524  134.6111  155.8845 LP  0  0  0  0  0  0  0  0  0  0  0  0  # atno 17395 bound_to 11000

$$$$
