AV-unprocessed.smi:1841|AV-procd|sdf|7497|dock4
  -GOLD-   22720 9203D 1   1.00000     0.00000
 Structure written by MMmdl.
 40 41  0  0  0  0  0  0  0  0  1 V2000
  147.1447  135.3326  162.7994 C   0  0  0  0  0  0  0  0  0  0  0  0
  147.6218  134.6627  161.6458 O   0  0  0  0  0  0  0  0  0  0  0  0
  147.6593  135.5040  160.5050 C   0  0  0  0  0  0  0  0  0  0  0  0
  148.1340  134.6901  159.2976 C   0  0  0  0  0  0  0  0  0  0  0  0
  148.2667  135.5641  158.1808 O   0  0  0  0  0  0  0  0  0  0  0  0
  149.0711  136.6778  158.3061 C   0  0  0  0  0  0  0  0  0  0  0  0
  148.7539  137.8248  157.5519 C   0  0  0  0  0  0  0  0  0  0  0  0
  149.5724  138.9644  157.6673 C   0  0  0  0  0  0  0  0  0  0  0  0
  150.6927  138.9174  158.5311 C   0  0  0  0  0  0  0  0  0  0  0  0
  151.5856  140.0023  158.7438 N   0  0  0  0  0  0  0  0  0  0  0  0
  151.4375  141.2922  158.3891 C   0  0  0  0  0  0  0  0  0  0  0  0
  150.4625  141.7437  157.7882 O   0  0  0  0  0  0  0  0  0  0  0  0
  152.6008  142.2272  158.7587 C   0  0  1  0  0  0  0  0  0  0  0  0
  152.2810  143.6934  158.4012 C   0  0  0  0  0  0  0  0  0  0  0  0
  152.1638  144.3847  159.7493 C   0  0  0  0  0  0  0  0  0  0  0  0
  151.8123  145.5572  159.8705 O   0  0  0  0  0  0  0  0  0  0  0  0
  152.4780  143.5496  160.7436 N   0  0  0  0  0  0  0  0  0  0  0  0
  152.4456  143.8653  162.1652 C   0  0  0  0  0  0  0  0  0  0  0  0
  152.8899  142.2371  160.2765 C   0  0  0  0  0  0  0  0  0  0  0  0
  150.9123  137.7275  159.2557 C   0  0  0  0  0  0  0  0  0  0  0  0
  150.1319  136.6315  159.1495 N   0  0  0  0  0  0  0  0  0  0  0  0
  147.1410  134.6463  163.6461 H   0  0  0  0  0  0  0  0  0  0  0  0
  146.1250  135.6914  162.6528 H   0  0  0  0  0  0  0  0  0  0  0  0
  147.7814  136.1804  163.0554 H   0  0  0  0  0  0  0  0  0  0  0  0
  146.6800  135.9431  160.3084 H   0  0  0  0  0  0  0  0  0  0  0  0
  148.3558  136.3235  160.6879 H   0  0  0  0  0  0  0  0  0  0  0  0
  149.1037  134.2439  159.5243 H   0  0  0  0  0  0  0  0  0  0  0  0
  147.4314  133.8809  159.0908 H   0  0  0  0  0  0  0  0  0  0  0  0
  147.8954  137.8308  156.8965 H   0  0  0  0  0  0  0  0  0  0  0  0
  149.3180  139.8485  157.1038 H   0  0  0  0  0  0  0  0  0  0  0  0
  152.4739  139.7565  159.1562 H   0  0  0  0  0  0  0  0  0  0  0  0
  153.4977  141.9087  158.2243 H   0  0  0  0  0  0  0  0  0  0  0  0
  153.0924  144.1454  157.8300 H   0  0  0  0  0  0  0  0  0  0  0  0
  151.3591  143.8153  157.8297 H   0  0  0  0  0  0  0  0  0  0  0  0
  152.9423  144.8158  162.3650 H   0  0  0  0  0  0  0  0  0  0  0  0
  152.9489  143.0937  162.7486 H   0  0  0  0  0  0  0  0  0  0  0  0
  151.4146  143.9363  162.5128 H   0  0  0  0  0  0  0  0  0  0  0  0
  152.3575  141.4540  160.8197 H   0  0  0  0  0  0  0  0  0  0  0  0
  153.9554  142.1039  160.4685 H   0  0  0  0  0  0  0  0  0  0  0  0
  151.7453  137.6478  159.9389 H   0  0  0  0  0  0  0  0  0  0  0  0
  1  2  1  0  0  0  0
  1 22  1  0  0  0  0
  1 23  1  0  0  0  0
  1 24  1  0  0  0  0
  2  3  1  0  0  0  0
  3  4  1  0  0  0  0
  3 25  1  0  0  0  0
  3 26  1  0  0  0  0
  4  5  1  0  0  0  0
  4 27  1  0  0  0  0
  4 28  1  0  0  0  0
  5  6  1  0  0  0  0
  6 21  1  0  0  0  0
  6  7  2  0  0  0  0
  7  8  1  0  0  0  0
  7 29  1  0  0  0  0
  8  9  2  0  0  0  0
  8 30  1  0  0  0  0
  9 10  1  0  0  0  0
  9 20  1  0  0  0  0
 10 11  1  0  0  0  0
 10 31  1  0  0  0  0
 11 12  2  0  0  0  0
 11 13  1  0  0  0  0
 13 19  1  0  0  0  0
 13 14  1  0  0  0  0
 13 32  1  0  0  0  0
 14 15  1  0  0  0  0
 14 33  1  0  0  0  0
 14 34  1  0  0  0  0
 15 16  2  0  0  0  0
 15 17  1  0  0  0  0
 17 18  1  0  0  0  0
 17 19  1  0  0  0  0
 18 35  1  0  0  0  0
 18 36  1  0  0  0  0
 18 37  1  0  0  0  0
 19 38  1  0  0  0  0
 19 39  1  0  0  0  0
 20 21  2  0  0  0  0
 20 40  1  0  0  0  0
M  END
> <s_m_source_file>
AV-unprocessed.smi

> <i_m_source_file_index>
1841

> <i_lp_mmshare_version>
43012

> <i_f3d_flags>
0

> <s_epik_input>
W0NIM11PW0NIMl1bQ0gyXU9jMVtjSF1bY0hdYyhbY0hdbjEpW05IXUMoPU8pW0NAQEhdMltDSDJdQyg9TylOKFtDSDNdKVtDSDJdMg==

> <s_epik_cmdline>
J2VwaWtfcHl0aG9uJywgJy1waCcsICc3LjAnLCAnLXRuJywgJzgnLCAnLW1hJywgJzIwMCcsICctbWV0YWxfYmluZGluZycsICctaW1hZScsICc8aW5maWxlLm1hZT4nLCAnLW9tYWUnLCAnPG91dGZpbGUubWFlPic=

> <r_lp_tautomer_probability>
1

> <r_epik_Ionization_Penalty>
1.70347e-05

> <r_epik_Ionization_Penalty_Charging>
0

> <r_epik_Ionization_Penalty_Neutral>
1.70347e-05

> <r_epik_State_Penalty>
-0

> <r_epik_Charging_Adjusted_Penalty>
0

> <i_epik_Tot_Q>
0

> <i_epik_Tot_abs_Q>
0

> <r_epik_Metal_State_Penalty>
-0

> <b_epik_Metal_Only>
0

> <s_lp_Force_Field>
OPLS_2005

> <r_lp_Energy>
17.1342

> <b_lp_Chiralities_Consistent>
1

> <s_lp_Variant>
AV-unprocessed.smi:1841-2

> <Gold.Version>
5.8.1

> <Gold.Id.Protein>
6NUR|6NUR_protein|mol2

> <Gold.PLP.Fitness>
42.7829

> <Gold.PLP.PLP>
-40.6609

> <Gold.PLP.part.hbond>
-1.0000

> <Gold.PLP.part.metal>
0.0000

> <Gold.PLP.part.buried>
-7.1155

> <Gold.PLP.part.nonpolar>
-33.3570

> <Gold.PLP.part.repulsive>
0.3571

> <Gold.PLP.ligand.clash>
0.0000

> <Gold.PLP.ligand.torsion>
0.4565

> <Gold.PLP.Chemscore.Hbond>
1.0000

> <Gold.PLP.Chemscore.CHOScore>
0.0000

> <Gold.PLP.Chemscore.Metal>
0.0000

> <Gold.Chemscore.Hbonds>
donor molecule, donor type, donor heavy atom, donor atom, acceptor molecule, acceptor atom, score
      P1  H  6896  6908       L1    21  1.00

> <Gold.PLP.Chemscore.Internal.Correction>
0.0350

> <Gold.Rescore>
     Score         DG    S(hbond)    S(metal)    S(lipo)     H(rot)  DE(clash)    DE(int)     intcor
     10.66     -13.10       0.91        0.00      81.64       1.95       0.07       2.37       ----

> <Gold.Chemscore.Fitness>
10.6636

> <Gold.Chemscore.DG>
-13.1001

> <Gold.Chemscore.ZeroCoef>
-5.4800

> <Gold.Chemscore.Hbond>
0.9137

> <Gold.Chemscore.Metal>
0.0000

> <Gold.Chemscore.Lipo>
81.6421

> <Gold.Chemscore.Internal_Hbond>
0.0000

> <Gold.Chemscore.DEClash>
0.0657

> <Gold.Chemscore.DEInternal>
2.3708

> <Gold.Chemscore.Rot>
1.9468

> <Gold.Chemscore.Internal.Correction>
   9.000000E+99

> <Gold.Chemscore.Hbonds>
donor molecule, donor type, donor heavy atom, donor atom, acceptor molecule, acceptor atom, score
      P1  H  6896  6908       L1    21  0.93

> <Gold.Chemscore.Hbond.Weighted>
-3.0518

> <Gold.Chemscore.Metal.Weighted>
-0.0000

> <Gold.Chemscore.Lipo.Weighted>
-9.5521

> <Gold.Chemscore.Internal_Hbond.Weighted>
0.0000

> <Gold.Chemscore.DEClash.Weighted>
0.0657

> <Gold.Chemscore.DEInternal.Weighted>
2.3708

> <Gold.Chemscore.Rot.Weighted>
4.9839

> <Gold.Chemscore.Internal.Correction.Weighted>
   9.000000E+99

> <Gold.Protein.RotatedTorsions>
[ 6907 6896 6895 6894 ] final -166.60 input  -60.11 | X-H torsion
[ 7974 7965 7964 7962 ] final  106.74 input  175.53 | X-H torsion
[ 8008 7997 7996 7995 ] final   65.91 input   59.86 | X-H torsion
[ 10167 10162 10161 10158 ] final -131.44 input  -65.29 | X-H torsion
[ 10718 10713 10712 10709 ] final  -99.63 input   66.30 | X-H torsion
[ 10763 10752 10751 10750 ] final -170.18 input  -60.55 | X-H torsion
[ 11005 11000 10999 10996 ] final   85.61 input  -57.11 | X-H torsion

> <Gold.Protein.ActiveResidues>
 VAL166  LYS551  ARG553  GLY616  TRP617  ASP618  TYR619  PRO620  LYS621  CYS622 
 ASP623  PHE694  ASN695  SER759  ASP760  ASP761  ALA762  ILE779  LEU786  VAL792 
 PHE793  MET794  SER795  GLU796  ALA797  LYS798  CYS799  TRP800  GLU811  SER814 

> <Gold.Protein.RotatedAtoms>
  151.4461  133.3630  159.2788 H   0  0  0  0  0  0  0  0  0  0  0  0  # atno 6907 bound_to 6896
  150.9123  134.8542  159.7444 H   0  0  0  0  0  0  0  0  0  0  0  0  # atno 6908 bound_to 6896
  152.4939  134.4392  159.9590 H   0  0  0  0  0  0  0  0  0  0  0  0  # atno 6909 bound_to 6896
  145.3027  139.2564  143.3805 H   0  0  0  0  0  0  0  0  0  0  0  0  # atno 7974 bound_to 7965
  155.6691  140.3497  155.4811 H   0  0  0  0  0  0  0  0  0  0  0  0  # atno 8008 bound_to 7997
  155.9703  140.1154  157.0841 H   0  0  0  0  0  0  0  0  0  0  0  0  # atno 8009 bound_to 7997
  154.4165  140.1158  156.5284 H   0  0  0  0  0  0  0  0  0  0  0  0  # atno 8010 bound_to 7997
  139.9189  143.6406  152.2558 H   0  0  0  0  0  0  0  0  0  0  0  0  # atno 10167 bound_to 10162
  156.0139  130.5291  150.6699 H   0  0  0  0  0  0  0  0  0  0  0  0  # atno 10718 bound_to 10713
  154.6443  135.2903  155.0065 H   0  0  0  0  0  0  0  0  0  0  0  0  # atno 10763 bound_to 10752
  154.1180  135.6552  153.4901 H   0  0  0  0  0  0  0  0  0  0  0  0  # atno 10764 bound_to 10752
  153.0343  135.5281  154.7324 H   0  0  0  0  0  0  0  0  0  0  0  0  # atno 10765 bound_to 10752
  139.8967  134.8298  156.2606 H   0  0  0  0  0  0  0  0  0  0  0  0  # atno 11005 bound_to 11000
  146.3146  140.3544  142.8659 LP  0  0  0  0  0  0  0  0  0  0  0  0  # atno 17320 bound_to 7965
  144.9080  140.7723  143.5825 LP  0  0  0  0  0  0  0  0  0  0  0  0  # atno 17321 bound_to 7965
  139.6878  144.7650  151.1492 LP  0  0  0  0  0  0  0  0  0  0  0  0  # atno 17342 bound_to 10162
  140.7667  143.5632  150.9076 LP  0  0  0  0  0  0  0  0  0  0  0  0  # atno 17343 bound_to 10162
  157.4424  131.0863  151.0930 LP  0  0  0  0  0  0  0  0  0  0  0  0  # atno 17370 bound_to 10713
  157.1470  130.6168  149.5571 LP  0  0  0  0  0  0  0  0  0  0  0  0  # atno 17371 bound_to 10713
  141.0165  133.7065  156.1197 LP  0  0  0  0  0  0  0  0  0  0  0  0  # atno 17394 bound_to 11000
  140.7294  134.4271  157.5567 LP  0  0  0  0  0  0  0  0  0  0  0  0  # atno 17395 bound_to 11000

$$$$
