AV-unprocessed.smi:252|AV-procd|sdf|1939|dock1
  -GOLD-   2262021 63D 1   1.00000     0.00000
 Structure written by MMmdl.
 56 59  0  0  0  0  0  0  0  0  1 V2000
  152.4252  143.1844  161.6919 C   0  0  0  0  0  0  0  0  0  0  0  0
  151.9719  144.2844  160.7189 C   0  0  0  0  0  0  0  0  0  0  0  0
  152.0356  143.8678  159.2456 C   0  0  0  0  0  0  0  0  0  0  0  0
  152.4750  144.6340  158.3874 O   0  0  0  0  0  0  0  0  0  0  0  0
  151.5854  142.6346  158.9682 N   0  0  0  0  0  0  0  0  0  0  0  0
  151.5604  142.0253  157.6425 C   0  0  1  0  0  0  0  0  0  0  0  0
  152.1490  140.6035  157.7142 C   0  0  0  0  0  0  0  0  0  0  0  0
  152.0431  139.9038  156.3498 C   0  0  0  0  0  0  0  0  0  0  0  0
  150.5943  139.9196  155.8379 C   0  0  0  0  0  0  0  0  0  0  0  0
  150.0804  141.2856  155.8051 N   0  0  0  0  0  0  0  0  0  0  0  0
  148.9015  141.4058  155.1599 C   0  0  0  0  0  0  0  0  0  0  0  0
  148.8542  141.3033  153.8057 N   0  0  0  0  0  0  0  0  0  0  0  0
  147.6836  141.4234  153.1712 C   0  0  0  0  0  0  0  0  0  0  0  0
  146.4722  141.6454  153.6874 N   0  0  0  0  0  0  0  0  0  0  0  0
  146.5225  141.7521  155.0467 C   0  0  0  0  0  0  0  0  0  0  0  0
  147.6873  141.6396  155.8553 C   0  0  0  0  0  0  0  0  0  0  0  0
  147.3571  141.7888  157.1959 N   0  0  0  0  0  0  0  0  0  0  0  0
  146.0658  141.9787  157.1814 C   0  0  0  0  0  0  0  0  0  0  0  0
  145.4851  141.9883  155.9322 N   0  0  0  0  0  0  0  0  0  0  0  0
  144.0755  142.1835  155.6292 C   0  0  0  0  0  0  0  0  0  0  0  0
  143.6845  143.6537  155.3174 C   0  0  2  0  0  0  0  0  0  0  0  0
  144.0905  143.9546  153.9937 O   0  0  0  0  0  0  0  0  0  0  0  0
  144.3057  144.6761  156.2639 C   0  0  0  0  0  0  0  0  0  0  0  0
  143.3215  144.6805  157.4224 C   0  0  0  0  0  0  0  0  0  0  0  0
  142.0571  144.5988  156.7825 O   0  0  0  0  0  0  0  0  0  0  0  0
  142.1684  143.8858  155.5495 C   0  0  1  0  0  0  0  0  0  0  0  0
  141.4471  144.7286  154.4838 C   0  0  0  0  0  0  0  0  0  0  0  0
  150.1219  141.9865  157.0854 C   0  0  0  0  0  0  0  0  0  0  0  0
  152.3375  143.5238  162.7239 H   0  0  0  0  0  0  0  0  0  0  0  0
  153.4672  142.9090  161.5240 H   0  0  0  0  0  0  0  0  0  0  0  0
  151.8168  142.2853  161.5879 H   0  0  0  0  0  0  0  0  0  0  0  0
  150.9476  144.5756  160.9547 H   0  0  0  0  0  0  0  0  0  0  0  0
  152.5904  145.1719  160.8570 H   0  0  0  0  0  0  0  0  0  0  0  0
  151.2409  142.0734  159.7334 H   0  0  0  0  0  0  0  0  0  0  0  0
  152.1835  142.6176  156.9691 H   0  0  0  0  0  0  0  0  0  0  0  0
  153.1912  140.6406  158.0330 H   0  0  0  0  0  0  0  0  0  0  0  0
  151.6132  140.0169  158.4620 H   0  0  0  0  0  0  0  0  0  0  0  0
  152.6886  140.4084  155.6295 H   0  0  0  0  0  0  0  0  0  0  0  0
  152.4029  138.8773  156.4243 H   0  0  0  0  0  0  0  0  0  0  0  0
  150.5475  139.4805  154.8403 H   0  0  0  0  0  0  0  0  0  0  0  0
  149.9651  139.3087  156.4871 H   0  0  0  0  0  0  0  0  0  0  0  0
  147.7221  141.3279  152.0961 H   0  0  0  0  0  0  0  0  0  0  0  0
  145.4975  142.1283  158.0882 H   0  0  0  0  0  0  0  0  0  0  0  0
  143.8191  141.5428  154.7840 H   0  0  0  0  0  0  0  0  0  0  0  0
  143.4973  141.8073  156.4741 H   0  0  0  0  0  0  0  0  0  0  0  0
  143.5676  143.4423  153.3962 H   0  0  0  0  0  0  0  0  0  0  0  0
  145.3276  144.4567  156.5691 H   0  0  0  0  0  0  0  0  0  0  0  0
  144.3108  145.6661  155.8047 H   0  0  0  0  0  0  0  0  0  0  0  0
  143.4662  143.8095  158.0625 H   0  0  0  0  0  0  0  0  0  0  0  0
  143.4002  145.5758  158.0392 H   0  0  0  0  0  0  0  0  0  0  0  0
  141.6469  142.9328  155.6505 H   0  0  0  0  0  0  0  0  0  0  0  0
  141.4518  144.2317  153.5134 H   0  0  0  0  0  0  0  0  0  0  0  0
  141.9138  145.7072  154.3668 H   0  0  0  0  0  0  0  0  0  0  0  0
  140.4051  144.8913  154.7609 H   0  0  0  0  0  0  0  0  0  0  0  0
  149.4606  141.4843  157.7935 H   0  0  0  0  0  0  0  0  0  0  0  0
  149.7409  143.0009  156.9572 H   0  0  0  0  0  0  0  0  0  0  0  0
  1  2  1  0  0  0  0
  1 29  1  0  0  0  0
  1 30  1  0  0  0  0
  1 31  1  0  0  0  0
  2  3  1  0  0  0  0
  2 32  1  0  0  0  0
  2 33  1  0  0  0  0
  3  4  2  0  0  0  0
  3  5  1  0  0  0  0
  5  6  1  0  0  0  0
  5 34  1  0  0  0  0
  6 28  1  0  0  0  0
  6  7  1  0  0  0  0
  6 35  1  0  0  0  0
  7  8  1  0  0  0  0
  7 36  1  0  0  0  0
  7 37  1  0  0  0  0
  8  9  1  0  0  0  0
  8 38  1  0  0  0  0
  8 39  1  0  0  0  0
  9 10  1  0  0  0  0
  9 40  1  0  0  0  0
  9 41  1  0  0  0  0
 10 11  1  0  0  0  0
 10 28  1  0  0  0  0
 11 16  1  0  0  0  0
 11 12  2  0  0  0  0
 12 13  1  0  0  0  0
 13 14  2  0  0  0  0
 13 42  1  0  0  0  0
 14 15  1  0  0  0  0
 15 19  1  0  0  0  0
 15 16  2  0  0  0  0
 16 17  1  0  0  0  0
 17 18  2  0  0  0  0
 18 19  1  0  0  0  0
 18 43  1  0  0  0  0
 19 20  1  0  0  0  0
 20 21  1  0  0  0  0
 20 44  1  0  0  0  0
 20 45  1  0  0  0  0
 21 26  1  0  0  0  0
 21 22  1  0  0  0  0
 21 23  1  0  0  0  0
 22 46  1  0  0  0  0
 23 24  1  0  0  0  0
 23 47  1  0  0  0  0
 23 48  1  0  0  0  0
 24 25  1  0  0  0  0
 24 49  1  0  0  0  0
 24 50  1  0  0  0  0
 25 26  1  0  0  0  0
 26 27  1  0  0  0  0
 26 51  1  0  0  0  0
 27 52  1  0  0  0  0
 27 53  1  0  0  0  0
 27 54  1  0  0  0  0
 28 55  1  0  0  0  0
 28 56  1  0  0  0  0
M  END
> <s_m_source_file>
AV-unprocessed.smi

> <i_m_source_file_index>
252

> <i_lp_mmshare_version>
43012

> <i_f3d_flags>
0

> <s_epik_input>
W0NIM11bQ0gyXUMoPU8pW05IXVtDQEBIXTFbQ0gyXVtDSDJdW0NIMl1OKFtDSDJdMSljKG5bY0hdbjIpYyhjMjMpbltjSF1uM1tDSDJdW0NAQF00KFtPSF0pW0NIMl1bQ0gyXU9bQ0BIXTRbQ0gzXQ==

> <s_epik_cmdline>
J2VwaWtfcHl0aG9uJywgJy1waCcsICc3LjAnLCAnLXRuJywgJzgnLCAnLW1hJywgJzIwMCcsICctbWV0YWxfYmluZGluZycsICctaW1hZScsICc8aW5maWxlLm1hZT4nLCAnLW9tYWUnLCAnPG91dGZpbGUubWFlPic=

> <r_lp_tautomer_probability>
1

> <r_epik_Ionization_Penalty>
0.00182575

> <r_epik_Ionization_Penalty_Charging>
0

> <r_epik_Ionization_Penalty_Neutral>
0.00182575

> <r_epik_State_Penalty>
0.00104524

> <r_epik_Charging_Adjusted_Penalty>
0.00104524

> <i_epik_Tot_Q>
0

> <i_epik_Tot_abs_Q>
0

> <r_epik_Metal_State_Penalty>
-0

> <b_epik_Metal_Only>
0

> <s_lp_Force_Field>
OPLS_2005

> <r_lp_Energy>
37.9455

> <b_lp_Chiralities_Consistent>
1

> <s_lp_Variant>
AV-unprocessed.smi:252-4

> <Gold.Version>
5.8.1

> <Gold.Id.Protein>
6NUR|6NUR_protein|mol2

> <Gold.PLP.Fitness>
44.4316

> <Gold.PLP.PLP>
-40.6656

> <Gold.PLP.part.hbond>
-2.0799

> <Gold.PLP.part.metal>
0.0000

> <Gold.PLP.part.buried>
-8.0620

> <Gold.PLP.part.nonpolar>
-31.2177

> <Gold.PLP.part.repulsive>
1.3788

> <Gold.PLP.ligand.clash>
0.0139

> <Gold.PLP.ligand.torsion>
1.4973

> <Gold.PLP.Chemscore.Hbond>
1.3647

> <Gold.PLP.Chemscore.CHOScore>
0.7768

> <Gold.PLP.Chemscore.Metal>
0.0000

> <Gold.Chemscore.Hbonds>
donor molecule, donor type, donor heavy atom, donor atom, acceptor molecule, acceptor atom, score
      L1  H    22    46       P1 10174  1.00
      P1  H  8011  8017       L1    12  0.36
      L1  C    13    42       P1  7957  0.76

> <Gold.PLP.Chemscore.Internal.Correction>
0.3504

> <Gold.Rescore>
     Score         DG    S(hbond)    S(metal)    S(lipo)     H(rot)  DE(clash)    DE(int)     intcor
      7.81     -11.02       0.96        0.00      79.20       2.70       0.09       3.12       ----

> <Gold.Chemscore.Fitness>
7.8129

> <Gold.Chemscore.DG>
-11.0156

> <Gold.Chemscore.ZeroCoef>
-5.4800

> <Gold.Chemscore.Hbond>
0.9555

> <Gold.Chemscore.Metal>
0.0000

> <Gold.Chemscore.Lipo>
79.2015

> <Gold.Chemscore.Internal_Hbond>
0.0000

> <Gold.Chemscore.DEClash>
0.0855

> <Gold.Chemscore.DEInternal>
3.1173

> <Gold.Chemscore.Rot>
2.7041

> <Gold.Chemscore.Internal.Correction>
   9.000000E+99

> <Gold.Chemscore.Hbonds>
donor molecule, donor type, donor heavy atom, donor atom, acceptor molecule, acceptor atom, score
      L1  H    22    46       P1 10174  0.74
      P1  H  8011  8017       L1    12  0.02

> <Gold.Chemscore.Hbond.Weighted>
-3.1915

> <Gold.Chemscore.Metal.Weighted>
-0.0000

> <Gold.Chemscore.Lipo.Weighted>
-9.2666

> <Gold.Chemscore.Internal_Hbond.Weighted>
0.0000

> <Gold.Chemscore.DEClash.Weighted>
0.0855

> <Gold.Chemscore.DEInternal.Weighted>
3.1173

> <Gold.Chemscore.Rot.Weighted>
6.9225

> <Gold.Chemscore.Internal.Correction.Weighted>
   9.000000E+99

> <Gold.Protein.RotatedTorsions>
[ 6907 6896 6895 6894 ] final  -54.28 input  -60.11 | X-H torsion
[ 7974 7965 7964 7962 ] final   -4.16 input  175.53 | X-H torsion
[ 8008 7997 7996 7995 ] final  116.05 input   59.86 | X-H torsion
[ 10167 10162 10161 10158 ] final -109.89 input  -65.29 | X-H torsion
[ 10718 10713 10712 10709 ] final   72.12 input   66.30 | X-H torsion
[ 10763 10752 10751 10750 ] final  -28.56 input  -60.55 | X-H torsion
[ 11005 11000 10999 10996 ] final   60.39 input  -57.11 | X-H torsion

> <Gold.Protein.ActiveResidues>
 VAL166  LYS551  ARG553  GLY616  TRP617  ASP618  TYR619  PRO620  LYS621  CYS622 
 ASP623  PHE694  ASN695  SER759  ASP760  ASP761  ALA762  ILE779  LEU786  VAL792 
 PHE793  MET794  SER795  GLU796  ALA797  LYS798  CYS799  TRP800  GLU811  SER814 

> <Gold.Protein.RotatedAtoms>
  150.8352  134.7622  159.6886 H   0  0  0  0  0  0  0  0  0  0  0  0  # atno 6907 bound_to 6896
  152.4450  134.5511  159.9877 H   0  0  0  0  0  0  0  0  0  0  0  0  # atno 6908 bound_to 6896
  151.5663  133.3358  159.3016 H   0  0  0  0  0  0  0  0  0  0  0  0  # atno 6909 bound_to 6896
  146.2377  140.1830  142.8332 H   0  0  0  0  0  0  0  0  0  0  0  0  # atno 7974 bound_to 7965
  156.2417  140.2925  156.0463 H   0  0  0  0  0  0  0  0  0  0  0  0  # atno 8008 bound_to 7997
  155.1931  140.0407  157.2921 H   0  0  0  0  0  0  0  0  0  0  0  0  # atno 8009 bound_to 7997
  154.6181  140.2469  155.7591 H   0  0  0  0  0  0  0  0  0  0  0  0  # atno 8010 bound_to 7997
  140.1504  143.4203  152.1498 H   0  0  0  0  0  0  0  0  0  0  0  0  # atno 10167 bound_to 10162
  157.6485  130.9563  150.0884 H   0  0  0  0  0  0  0  0  0  0  0  0  # atno 10718 bound_to 10713
  153.7503  135.6926  153.4947 H   0  0  0  0  0  0  0  0  0  0  0  0  # atno 10763 bound_to 10752
  153.2008  135.4437  155.0263 H   0  0  0  0  0  0  0  0  0  0  0  0  # atno 10764 bound_to 10752
  154.8190  135.3412  154.7024 H   0  0  0  0  0  0  0  0  0  0  0  0  # atno 10765 bound_to 10752
  140.0235  134.6117  155.9605 H   0  0  0  0  0  0  0  0  0  0  0  0  # atno 11005 bound_to 11000
  144.9919  140.8555  143.5334 LP  0  0  0  0  0  0  0  0  0  0  0  0  # atno 17320 bound_to 7965
  145.1837  139.2338  143.5279 LP  0  0  0  0  0  0  0  0  0  0  0  0  # atno 17321 bound_to 7965
  139.5428  144.7272  151.4678 LP  0  0  0  0  0  0  0  0  0  0  0  0  # atno 17342 bound_to 10162
  140.6706  143.8303  150.6994 LP  0  0  0  0  0  0  0  0  0  0  0  0  # atno 17343 bound_to 10162
  156.1840  130.3651  149.8997 LP  0  0  0  0  0  0  0  0  0  0  0  0  # atno 17370 bound_to 10713
  156.6942  130.8907  151.3592 LP  0  0  0  0  0  0  0  0  0  0  0  0  # atno 17371 bound_to 10713
  141.1789  133.6543  156.4938 LP  0  0  0  0  0  0  0  0  0  0  0  0  # atno 17394 bound_to 11000
  140.4346  134.7071  157.4960 LP  0  0  0  0  0  0  0  0  0  0  0  0  # atno 17395 bound_to 11000

$$$$
