AV-unprocessed.smi:2164|AV-procd|sdf|8808|dock8
  -GOLD-   2272011593D 1   1.00000     0.00000
 Structure written by MMmdl.
 39 41  0  0  0  0  0  0  0  0  1 V2000
  148.0294  132.5292  155.4003 O   0  0  0  0  0  0  0  0  0  0  0  0
  148.4808  133.5243  154.8310 C   0  0  0  0  0  0  0  0  0  0  0  0
  147.9390  134.0008  153.6956 N   0  0  0  0  0  0  0  0  0  0  0  0
  146.7605  133.4639  153.0183 C   0  0  0  0  0  0  0  0  0  0  0  0
  147.0817  132.9646  151.5961 C   0  0  0  0  0  0  0  0  0  0  0  0
  145.8900  133.0018  150.6552 C   0  0  0  0  0  0  0  0  0  0  0  0
  144.8208  133.8934  150.8795 C   0  0  0  0  0  0  0  0  0  0  0  0
  143.7531  133.9160  149.9617 C   0  0  0  0  0  0  0  0  0  0  0  0
  143.8005  133.0433  148.8562 C   0  0  0  0  0  0  0  0  0  0  0  0
  144.8170  132.1828  148.6331 N   0  0  0  0  0  0  0  0  0  0  0  0
  145.8355  132.1658  149.5191 C   0  0  0  0  0  0  0  0  0  0  0  0
  149.6205  134.3069  155.3136 C   0  0  0  0  0  0  0  0  0  0  0  0
  149.7868  135.5741  154.8897 C   0  0  0  0  0  0  0  0  0  0  0  0
  150.8432  136.3920  155.2956 N   0  0  0  0  0  0  0  0  0  0  0  0
  150.9676  137.7078  154.6802 C   0  0  0  0  0  0  0  0  0  0  0  0
  151.3449  138.7440  155.7264 C   0  0  0  0  0  0  0  0  0  0  0  0
  152.9940  138.2572  156.3630 S   0  0  0  0  0  0  0  0  0  0  0  0
  153.9403  138.2765  155.2366 O   0  0  0  0  0  0  0  0  0  0  0  0
  153.2788  139.0663  157.5576 O   0  0  0  0  0  0  0  0  0  0  0  0
  152.7017  136.6674  156.8082 N   0  0  0  0  0  0  0  0  0  0  0  0
  151.7724  135.9399  156.2667 C   0  0  0  0  0  0  0  0  0  0  0  0
  151.6236  134.5568  156.6907 C   0  0  0  0  0  0  0  0  0  0  0  0
  150.6111  133.7844  156.2456 C   0  0  0  0  0  0  0  0  0  0  0  0
  148.3617  134.8196  153.2833 H   0  0  0  0  0  0  0  0  0  0  0  0
  146.3742  132.6374  153.6150 H   0  0  0  0  0  0  0  0  0  0  0  0
  145.9629  134.2079  152.9831 H   0  0  0  0  0  0  0  0  0  0  0  0
  147.8885  133.5632  151.1714 H   0  0  0  0  0  0  0  0  0  0  0  0
  147.4574  131.9419  151.6432 H   0  0  0  0  0  0  0  0  0  0  0  0
  144.8231  134.5558  151.7328 H   0  0  0  0  0  0  0  0  0  0  0  0
  142.9197  134.5890  150.0990 H   0  0  0  0  0  0  0  0  0  0  0  0
  143.0002  133.0368  148.1309 H   0  0  0  0  0  0  0  0  0  0  0  0
  146.6380  131.4751  149.3057 H   0  0  0  0  0  0  0  0  0  0  0  0
  149.1035  136.0443  154.1961 H   0  0  0  0  0  0  0  0  0  0  0  0
  151.7156  137.6659  153.8878 H   0  0  0  0  0  0  0  0  0  0  0  0
  150.0291  138.0028  154.2095 H   0  0  0  0  0  0  0  0  0  0  0  0
  151.4164  139.7432  155.2973 H   0  0  0  0  0  0  0  0  0  0  0  0
  150.6313  138.7713  156.5505 H   0  0  0  0  0  0  0  0  0  0  0  0
  152.3188  134.1105  157.3870 H   0  0  0  0  0  0  0  0  0  0  0  0
  150.5587  132.7671  156.6043 H   0  0  0  0  0  0  0  0  0  0  0  0
  1  2  2  0  0  0  0
  2  3  1  0  0  0  0
  2 12  1  0  0  0  0
  3  4  1  0  0  0  0
  3 24  1  0  0  0  0
  4  5  1  0  0  0  0
  4 25  1  0  0  0  0
  4 26  1  0  0  0  0
  5  6  1  0  0  0  0
  5 27  1  0  0  0  0
  5 28  1  0  0  0  0
  6 11  1  0  0  0  0
  6  7  2  0  0  0  0
  7  8  1  0  0  0  0
  7 29  1  0  0  0  0
  8  9  2  0  0  0  0
  8 30  1  0  0  0  0
  9 10  1  0  0  0  0
  9 31  1  0  0  0  0
 10 11  2  0  0  0  0
 11 32  1  0  0  0  0
 12 23  1  0  0  0  0
 12 13  2  0  0  0  0
 13 14  1  0  0  0  0
 13 33  1  0  0  0  0
 14 21  1  0  0  0  0
 14 15  1  0  0  0  0
 15 16  1  0  0  0  0
 15 34  1  0  0  0  0
 15 35  1  0  0  0  0
 16 17  1  0  0  0  0
 16 36  1  0  0  0  0
 16 37  1  0  0  0  0
 17 18  2  0  0  0  0
 17 19  2  0  0  0  0
 17 20  1  0  0  0  0
 20 21  2  0  0  0  0
 21 22  1  0  0  0  0
 22 23  2  0  0  0  0
 22 38  1  0  0  0  0
 23 39  1  0  0  0  0
M  END
> <s_m_source_file>
AV-unprocessed.smi

> <i_m_source_file_index>
2164

> <i_lp_mmshare_version>
43012

> <i_f3d_flags>
0

> <s_epik_input>
W0NIMl0xW0NIMl1TKD1PKSg9TylOPUMoTjEyKVtDSF09W0NIXUMoPVtDSF0yKUMoPU8pW05IXVtDSDJdW0NIMl1jM1tjSF1bY0hdW2NIXW5bY0hdMw==

> <s_epik_cmdline>
J2VwaWtfcHl0aG9uJywgJy1waCcsICc3LjAnLCAnLXRuJywgJzgnLCAnLW1hJywgJzIwMCcsICctbWV0YWxfYmluZGluZycsICctaW1hZScsICc8aW5maWxlLm1hZT4nLCAnLW9tYWUnLCAnPG91dGZpbGUubWFlPic=

> <r_epik_Ionization_Penalty>
0.0095026

> <r_epik_Ionization_Penalty_Charging>
4.80604e-09

> <r_epik_Ionization_Penalty_Neutral>
0.00950259

> <r_epik_State_Penalty>
0.0071398

> <r_epik_Charging_Adjusted_Penalty>
0.0071398

> <i_epik_Tot_Q>
0

> <i_epik_Tot_abs_Q>
0

> <r_epik_Metal_State_Penalty>
0.0838865

> <b_epik_Metal_Only>
0

> <s_lp_Force_Field>
OPLS_2005

> <r_lp_Energy>
19.9083

> <b_lp_Chiralities_Consistent>
1

> <s_lp_Variant>
AV-unprocessed.smi:2164-1

> <Gold.Version>
5.8.1

> <Gold.Id.Protein>
6NUR|6NUR_protein|mol2

> <Gold.PLP.Fitness>
46.9334

> <Gold.PLP.PLP>
-35.6387

> <Gold.PLP.part.hbond>
-6.0708

> <Gold.PLP.part.metal>
0.0000

> <Gold.PLP.part.buried>
5.3274

> <Gold.PLP.part.nonpolar>
-33.9964

> <Gold.PLP.part.repulsive>
0.2273

> <Gold.PLP.ligand.clash>
1.6335

> <Gold.PLP.ligand.torsion>
0.6718

> <Gold.PLP.Chemscore.Hbond>
2.1382

> <Gold.PLP.Chemscore.CHOScore>
2.6177

> <Gold.PLP.Chemscore.Metal>
0.0000

> <Gold.Chemscore.Hbonds>
donor molecule, donor type, donor heavy atom, donor atom, acceptor molecule, acceptor atom, score
      L1  H     3    24       P1  7948  0.93
      P1  H  7997  8008       L1    19  1.00
      P1  H  7997  8009       L1    18  0.10
      L1  C     9    31       P1 10186  0.15
      L1  C     9    31       P1 10195  0.18
      L1  C    11    32       P1 10747  0.88
      L1  C    13    33       P1  7948  1.00

> <Gold.PLP.Chemscore.Internal.Correction>
0.0038

> <Gold.Rescore>
     Score         DG    S(hbond)    S(metal)    S(lipo)     H(rot)  DE(clash)    DE(int)     intcor
     15.54     -18.42       1.74        0.00      93.00       1.47       2.57       0.31       ----

> <Gold.Chemscore.Fitness>
15.5417

> <Gold.Chemscore.DG>
-18.4157

> <Gold.Chemscore.ZeroCoef>
-5.4800

> <Gold.Chemscore.Hbond>
1.7403

> <Gold.Chemscore.Metal>
0.0000

> <Gold.Chemscore.Lipo>
92.9994

> <Gold.Chemscore.Internal_Hbond>
0.0000

> <Gold.Chemscore.DEClash>
2.5688

> <Gold.Chemscore.DEInternal>
0.3052

> <Gold.Chemscore.Rot>
1.4679

> <Gold.Chemscore.Internal.Correction>
   9.000000E+99

> <Gold.Chemscore.Hbonds>
donor molecule, donor type, donor heavy atom, donor atom, acceptor molecule, acceptor atom, score
      L1  H     3    24       P1  7948  0.69
      P1  H  7997  8008       L1    19  0.39
      P1  H  7997  8009       L1    18  0.05

> <Gold.Chemscore.Hbond.Weighted>
-5.8125

> <Gold.Chemscore.Metal.Weighted>
-0.0000

> <Gold.Chemscore.Lipo.Weighted>
-10.8809

> <Gold.Chemscore.Internal_Hbond.Weighted>
0.0000

> <Gold.Chemscore.DEClash.Weighted>
2.5688

> <Gold.Chemscore.DEInternal.Weighted>
0.3052

> <Gold.Chemscore.Rot.Weighted>
3.7578

> <Gold.Chemscore.Internal.Correction.Weighted>
   9.000000E+99

> <Gold.Protein.RotatedTorsions>
[ 6907 6896 6895 6894 ] final   55.98 input  -60.11 | X-H torsion
[ 7974 7965 7964 7962 ] final -175.61 input  175.53 | X-H torsion
[ 8008 7997 7996 7995 ] final  -89.82 input   59.86 | X-H torsion
[ 10167 10162 10161 10158 ] final   50.98 input  -65.29 | X-H torsion
[ 10718 10713 10712 10709 ] final  163.38 input   66.30 | X-H torsion
[ 10763 10752 10751 10750 ] final   48.36 input  -60.55 | X-H torsion
[ 11005 11000 10999 10996 ] final   93.54 input  -57.11 | X-H torsion

> <Gold.Protein.ActiveResidues>
 VAL166  LYS551  ARG553  GLY616  TRP617  ASP618  TYR619  PRO620  LYS621  CYS622 
 ASP623  PHE694  ASN695  SER759  ASP760  ASP761  ALA762  ILE779  LEU786  VAL792 
 PHE793  MET794  SER795  GLU796  ALA797  LYS798  CYS799  TRP800  GLU811  SER814 

> <Gold.Protein.RotatedAtoms>
  152.3591  134.6897  160.0212 H   0  0  0  0  0  0  0  0  0  0  0  0  # atno 6907 bound_to 6896
  151.7226  133.3309  159.3327 H   0  0  0  0  0  0  0  0  0  0  0  0  # atno 6908 bound_to 6896
  150.7592  134.6368  159.6260 H   0  0  0  0  0  0  0  0  0  0  0  0  # atno 6909 bound_to 6896
  144.7128  140.1295  143.6399 H   0  0  0  0  0  0  0  0  0  0  0  0  # atno 7974 bound_to 7965
  154.6911  140.0537  157.0364 H   0  0  0  0  0  0  0  0  0  0  0  0  # atno 8008 bound_to 7997
  155.0815  140.3210  155.4581 H   0  0  0  0  0  0  0  0  0  0  0  0  # atno 8009 bound_to 7997
  156.2728  140.2064  156.5943 H   0  0  0  0  0  0  0  0  0  0  0  0  # atno 8010 bound_to 7997
  140.2667  144.3312  150.6302 H   0  0  0  0  0  0  0  0  0  0  0  0  # atno 10167 bound_to 10162
  157.1092  131.0463  151.2464 H   0  0  0  0  0  0  0  0  0  0  0  0  # atno 10718 bound_to 10713
  152.9792  135.5946  154.3913 H   0  0  0  0  0  0  0  0  0  0  0  0  # atno 10763 bound_to 10752
  154.3568  135.2767  155.2343 H   0  0  0  0  0  0  0  0  0  0  0  0  # atno 10764 bound_to 10752
  154.4358  135.6025  153.6152 H   0  0  0  0  0  0  0  0  0  0  0  0  # atno 10765 bound_to 10752
  139.8809  134.8796  156.3733 H   0  0  0  0  0  0  0  0  0  0  0  0  # atno 11005 bound_to 11000
  145.9299  139.2600  143.1331 LP  0  0  0  0  0  0  0  0  0  0  0  0  # atno 17320 bound_to 7965
  145.9533  140.8892  143.0248 LP  0  0  0  0  0  0  0  0  0  0  0  0  # atno 17321 bound_to 7965
  140.5922  143.2168  151.7231 LP  0  0  0  0  0  0  0  0  0  0  0  0  # atno 17342 bound_to 10162
  139.5001  144.3921  152.0269 LP  0  0  0  0  0  0  0  0  0  0  0  0  # atno 17343 bound_to 10162
  157.4574  130.7633  149.7205 LP  0  0  0  0  0  0  0  0  0  0  0  0  # atno 17370 bound_to 10713
  155.9854  130.3983  150.3261 LP  0  0  0  0  0  0  0  0  0  0  0  0  # atno 17371 bound_to 10713
  140.9449  133.7490  156.0195 LP  0  0  0  0  0  0  0  0  0  0  0  0  # atno 17394 bound_to 11000
  140.8175  134.3327  157.5392 LP  0  0  0  0  0  0  0  0  0  0  0  0  # atno 17395 bound_to 11000

$$$$
