AV-unprocessed.smi:2714|AV-procd|sdf|10480|dock8
  -GOLD-   2272014523D 1   1.00000     0.00000
 Structure written by MMmdl.
 46 47  0  0  0  0  0  0  0  0  1 V2000
  150.9749  145.0762  159.8799 C   0  0  0  0  0  0  0  0  0  0  0  0
  152.2327  144.8445  159.0356 C   0  0  0  0  0  0  0  0  0  0  0  0
  152.1261  143.5866  158.1543 C   0  0  0  0  0  0  0  0  0  0  0  0
  151.9408  142.2723  158.9442 C   0  0  2  0  0  0  0  0  0  0  0  0
  153.0166  142.1302  160.0349 C   0  0  0  0  0  0  0  0  0  0  0  0
  151.9566  141.0426  158.0239 C   0  0  0  0  0  0  0  0  0  0  0  0
  152.7826  140.1459  158.1972 O   0  0  0  0  0  0  0  0  0  0  0  0
  151.0288  141.0107  157.0561 N   0  0  0  0  0  0  0  0  0  0  0  0
  150.8171  139.9028  156.1309 C   0  0  0  0  0  0  0  0  0  0  0  0
  149.4763  139.9629  155.4060 C   0  0  0  0  0  0  0  0  0  0  0  0
  149.2089  141.0351  154.5282 C   0  0  0  0  0  0  0  0  0  0  0  0
  147.9721  141.0834  153.8597 C   0  0  0  0  0  0  0  0  0  0  0  0
  147.0445  140.0524  154.0966 C   0  0  0  0  0  0  0  0  0  0  0  0
  147.2824  139.0222  154.9348 N   0  0  0  0  0  0  0  0  0  0  0  0
  148.4735  138.9732  155.5794 C   0  0  0  0  0  0  0  0  0  0  0  0
  148.6921  137.8897  156.4442 N   0  0  0  0  0  0  0  0  0  0  0  0
  149.7455  136.9811  156.0141 C   0  0  0  0  0  0  0  0  0  0  0  0
  149.7743  135.7482  156.9343 C   0  0  0  0  0  0  0  0  0  0  0  0
  149.9254  136.1635  158.2898 O   0  0  0  0  0  0  0  0  0  0  0  0
  148.8537  136.9991  158.7200 C   0  0  0  0  0  0  0  0  0  0  0  0
  148.8071  138.2644  157.8474 C   0  0  0  0  0  0  0  0  0  0  0  0
  151.0792  145.9702  160.4947 H   0  0  0  0  0  0  0  0  0  0  0  0
  150.7876  144.2337  160.5459 H   0  0  0  0  0  0  0  0  0  0  0  0
  150.0952  145.2076  159.2492 H   0  0  0  0  0  0  0  0  0  0  0  0
  152.4070  145.7182  158.4068 H   0  0  0  0  0  0  0  0  0  0  0  0
  153.0928  144.7664  159.7011 H   0  0  0  0  0  0  0  0  0  0  0  0
  151.3092  143.7096  157.4414 H   0  0  0  0  0  0  0  0  0  0  0  0
  153.0336  143.5077  157.5543 H   0  0  0  0  0  0  0  0  0  0  0  0
  150.9731  142.3121  159.4478 H   0  0  0  0  0  0  0  0  0  0  0  0
  152.9047  141.1964  160.5871 H   0  0  0  0  0  0  0  0  0  0  0  0
  152.9489  142.9440  160.7572 H   0  0  0  0  0  0  0  0  0  0  0  0
  154.0220  142.1480  159.6119 H   0  0  0  0  0  0  0  0  0  0  0  0
  150.3944  141.7926  156.9812 H   0  0  0  0  0  0  0  0  0  0  0  0
  151.6133  139.9218  155.3864 H   0  0  0  0  0  0  0  0  0  0  0  0
  150.9207  138.9557  156.6630 H   0  0  0  0  0  0  0  0  0  0  0  0
  149.9426  141.8107  154.3641 H   0  0  0  0  0  0  0  0  0  0  0  0
  147.7411  141.8905  153.1805 H   0  0  0  0  0  0  0  0  0  0  0  0
  146.0855  140.0549  153.6002 H   0  0  0  0  0  0  0  0  0  0  0  0
  149.5727  136.6762  154.9811 H   0  0  0  0  0  0  0  0  0  0  0  0
  150.7085  137.4922  156.0461 H   0  0  0  0  0  0  0  0  0  0  0  0
  148.8611  135.1611  156.8244 H   0  0  0  0  0  0  0  0  0  0  0  0
  150.6067  135.0975  156.6661 H   0  0  0  0  0  0  0  0  0  0  0  0
  147.9090  136.4552  158.6667 H   0  0  0  0  0  0  0  0  0  0  0  0
  149.0082  137.2677  159.7650 H   0  0  0  0  0  0  0  0  0  0  0  0
  149.7117  138.8547  157.9996 H   0  0  0  0  0  0  0  0  0  0  0  0
  147.9609  138.8889  158.1348 H   0  0  0  0  0  0  0  0  0  0  0  0
  1  2  1  0  0  0  0
  1 22  1  0  0  0  0
  1 23  1  0  0  0  0
  1 24  1  0  0  0  0
  2  3  1  0  0  0  0
  2 25  1  0  0  0  0
  2 26  1  0  0  0  0
  3  4  1  0  0  0  0
  3 27  1  0  0  0  0
  3 28  1  0  0  0  0
  4  5  1  0  0  0  0
  4  6  1  0  0  0  0
  4 29  1  0  0  0  0
  5 30  1  0  0  0  0
  5 31  1  0  0  0  0
  5 32  1  0  0  0  0
  6  7  2  0  0  0  0
  6  8  1  0  0  0  0
  8  9  1  0  0  0  0
  8 33  1  0  0  0  0
  9 10  1  0  0  0  0
  9 34  1  0  0  0  0
  9 35  1  0  0  0  0
 10 15  1  0  0  0  0
 10 11  2  0  0  0  0
 11 12  1  0  0  0  0
 11 36  1  0  0  0  0
 12 13  2  0  0  0  0
 12 37  1  0  0  0  0
 13 14  1  0  0  0  0
 13 38  1  0  0  0  0
 14 15  2  0  0  0  0
 15 16  1  0  0  0  0
 16 21  1  0  0  0  0
 16 17  1  0  0  0  0
 17 18  1  0  0  0  0
 17 39  1  0  0  0  0
 17 40  1  0  0  0  0
 18 19  1  0  0  0  0
 18 41  1  0  0  0  0
 18 42  1  0  0  0  0
 19 20  1  0  0  0  0
 20 21  1  0  0  0  0
 20 43  1  0  0  0  0
 20 44  1  0  0  0  0
 21 45  1  0  0  0  0
 21 46  1  0  0  0  0
M  END
> <s_m_source_file>
AV-unprocessed.smi

> <i_m_source_file_index>
2714

> <i_lp_mmshare_version>
43012

> <i_f3d_flags>
0

> <s_epik_input>
W0NIM11bQ0gyXVtDSDJdW0NASF0oW0NIM10pQyg9TylbTkhdW0NIMl1jMVtjSF1bY0hdW2NIXW5jMU4yW0NIMl1bQ0gyXU9bQ0gyXVtDSDJdMg==

> <s_epik_cmdline>
J2VwaWtfcHl0aG9uJywgJy1waCcsICc3LjAnLCAnLXRuJywgJzgnLCAnLW1hJywgJzIwMCcsICctbWV0YWxfYmluZGluZycsICctaW1hZScsICc8aW5maWxlLm1hZT4nLCAnLW9tYWUnLCAnPG91dGZpbGUubWFlPic=

> <r_lp_tautomer_probability>
1

> <r_epik_Ionization_Penalty>
0.00517355

> <r_epik_Ionization_Penalty_Charging>
0

> <r_epik_Ionization_Penalty_Neutral>
0.00517355

> <r_epik_State_Penalty>
0.00376978

> <r_epik_Charging_Adjusted_Penalty>
0.00376978

> <i_epik_Tot_Q>
0

> <i_epik_Tot_abs_Q>
0

> <r_epik_Metal_State_Penalty>
-0

> <b_epik_Metal_Only>
0

> <s_lp_Force_Field>
OPLS_2005

> <r_lp_Energy>
18.1949

> <b_lp_Chiralities_Consistent>
1

> <s_lp_Variant>
AV-unprocessed.smi:2714-1

> <Gold.Version>
5.8.1

> <Gold.Id.Protein>
6NUR|6NUR_protein|mol2

> <Gold.PLP.Fitness>
43.5067

> <Gold.PLP.PLP>
-36.7444

> <Gold.PLP.part.hbond>
-2.0000

> <Gold.PLP.part.metal>
0.0000

> <Gold.PLP.part.buried>
-5.2807

> <Gold.PLP.part.nonpolar>
-30.6603

> <Gold.PLP.part.repulsive>
0.1430

> <Gold.PLP.ligand.clash>
0.0000

> <Gold.PLP.ligand.torsion>
0.2213

> <Gold.PLP.Chemscore.Hbond>
1.7565

> <Gold.PLP.Chemscore.CHOScore>
0.5747

> <Gold.PLP.Chemscore.Metal>
0.0000

> <Gold.Chemscore.Hbonds>
donor molecule, donor type, donor heavy atom, donor atom, acceptor molecule, acceptor atom, score
      P1  H  6896  6908       L1    19  0.80
      P1  H  7997  8009       L1     7  0.71
      L1  C    13    38       P1 10175  0.61

> <Gold.PLP.Chemscore.Internal.Correction>
0.2112

> <Gold.Rescore>
     Score         DG    S(hbond)    S(metal)    S(lipo)     H(rot)  DE(clash)    DE(int)     intcor
     18.35     -18.92       1.86        0.00      99.32       1.72       0.08       0.50       ----

> <Gold.Chemscore.Fitness>
18.3481

> <Gold.Chemscore.DG>
-18.9198

> <Gold.Chemscore.ZeroCoef>
-5.4800

> <Gold.Chemscore.Hbond>
1.8625

> <Gold.Chemscore.Metal>
0.0000

> <Gold.Chemscore.Lipo>
99.3182

> <Gold.Chemscore.Internal_Hbond>
0.0000

> <Gold.Chemscore.DEClash>
0.0754

> <Gold.Chemscore.DEInternal>
0.4963

> <Gold.Chemscore.Rot>
1.7192

> <Gold.Chemscore.Internal.Correction>
   9.000000E+99

> <Gold.Chemscore.Hbonds>
donor molecule, donor type, donor heavy atom, donor atom, acceptor molecule, acceptor atom, score
      P1  H  6896  6908       L1    19  0.71
      P1  H  7997  8009       L1     7  0.67

> <Gold.Chemscore.Hbond.Weighted>
-6.2206

> <Gold.Chemscore.Metal.Weighted>
-0.0000

> <Gold.Chemscore.Lipo.Weighted>
-11.6202

> <Gold.Chemscore.Internal_Hbond.Weighted>
0.0000

> <Gold.Chemscore.DEClash.Weighted>
0.0754

> <Gold.Chemscore.DEInternal.Weighted>
0.4963

> <Gold.Chemscore.Rot.Weighted>
4.4011

> <Gold.Chemscore.Internal.Correction.Weighted>
   9.000000E+99

> <Gold.Protein.RotatedTorsions>
[ 6907 6896 6895 6894 ] final -175.29 input  -60.11 | X-H torsion
[ 7974 7965 7964 7962 ] final  126.03 input  175.53 | X-H torsion
[ 8008 7997 7996 7995 ] final  160.96 input   59.86 | X-H torsion
[ 10167 10162 10161 10158 ] final  171.68 input  -65.29 | X-H torsion
[ 10718 10713 10712 10709 ] final  130.17 input   66.30 | X-H torsion
[ 10763 10752 10751 10750 ] final -145.13 input  -60.55 | X-H torsion
[ 11005 11000 10999 10996 ] final  -98.16 input  -57.11 | X-H torsion

> <Gold.Protein.ActiveResidues>
 VAL166  LYS551  ARG553  GLY616  TRP617  ASP618  TYR619  PRO620  LYS621  CYS622 
 ASP623  PHE694  ASN695  SER759  ASP760  ASP761  ALA762  ILE779  LEU786  VAL792 
 PHE793  MET794  SER795  GLU796  ALA797  LYS798  CYS799  TRP800  GLU811  SER814 

> <Gold.Protein.RotatedAtoms>
  151.5861  133.3372  159.3018 H   0  0  0  0  0  0  0  0  0  0  0  0  # atno 6907 bound_to 6896
  150.8286  134.7532  159.6845 H   0  0  0  0  0  0  0  0  0  0  0  0  # atno 6908 bound_to 6896
  152.4372  134.5669  159.9961 H   0  0  0  0  0  0  0  0  0  0  0  0  # atno 6909 bound_to 6896
  145.0663  139.3765  143.4980 H   0  0  0  0  0  0  0  0  0  0  0  0  # atno 7974 bound_to 7965
  156.2136  140.1790  156.7639 H   0  0  0  0  0  0  0  0  0  0  0  0  # atno 8008 bound_to 7997
  154.5759  140.0674  156.9062 H   0  0  0  0  0  0  0  0  0  0  0  0  # atno 8009 bound_to 7997
  155.2589  140.3334  155.4277 H   0  0  0  0  0  0  0  0  0  0  0  0  # atno 8010 bound_to 7997
  139.5054  144.3459  151.9972 H   0  0  0  0  0  0  0  0  0  0  0  0  # atno 10167 bound_to 10162
  157.5087  131.1096  150.9324 H   0  0  0  0  0  0  0  0  0  0  0  0  # atno 10718 bound_to 10713
  154.8397  135.3421  154.6456 H   0  0  0  0  0  0  0  0  0  0  0  0  # atno 10763 bound_to 10752
  153.7068  135.6966  153.5053 H   0  0  0  0  0  0  0  0  0  0  0  0  # atno 10764 bound_to 10752
  153.2482  135.4362  155.0723 H   0  0  0  0  0  0  0  0  0  0  0  0  # atno 10765 bound_to 10752
  141.1354  133.8225  157.0803 H   0  0  0  0  0  0  0  0  0  0  0  0  # atno 11005 bound_to 11000
  146.3527  140.0386  142.8645 LP  0  0  0  0  0  0  0  0  0  0  0  0  # atno 17320 bound_to 7965
  145.1347  140.9538  143.4523 LP  0  0  0  0  0  0  0  0  0  0  0  0  # atno 17321 bound_to 7965
  140.2896  144.3769  150.6093 LP  0  0  0  0  0  0  0  0  0  0  0  0  # atno 17342 bound_to 10162
  140.5957  143.2167  151.7169 LP  0  0  0  0  0  0  0  0  0  0  0  0  # atno 17343 bound_to 10162
  156.9971  130.5586  149.5308 LP  0  0  0  0  0  0  0  0  0  0  0  0  # atno 17370 bound_to 10713
  156.0275  130.5368  150.8445 LP  0  0  0  0  0  0  0  0  0  0  0  0  # atno 17371 bound_to 10713
  140.0456  134.9832  157.1042 LP  0  0  0  0  0  0  0  0  0  0  0  0  # atno 17394 bound_to 11000
  140.4068  134.2023  155.7163 LP  0  0  0  0  0  0  0  0  0  0  0  0  # atno 17395 bound_to 11000

$$$$
