AV-unprocessed.smi:2008|AV-procd|sdf|8144|dock2
  -GOLD-   2272010383D 1   1.00000     0.00000
 Structure written by MMmdl.
 46 47  0  0  0  0  0  0  0  0  2 V2000
  152.4879  140.5324  158.2110 C   0  0  0  0  0  0  0  0  0  0  0  0
  152.4902  140.4333  156.7911 O   0  0  0  0  0  0  0  0  0  0  0  0
  151.7967  139.3935  156.2062 C   0  0  0  0  0  0  0  0  0  0  0  0
  151.5304  138.2440  156.9757 C   0  0  0  0  0  0  0  0  0  0  0  0
  150.8227  137.1784  156.3872 C   0  0  0  0  0  0  0  0  0  0  0  0
  150.3947  137.3004  155.0433 C   0  0  0  0  0  0  0  0  0  0  0  0
  149.6882  136.2943  154.3294 N   0  0  0  0  0  0  0  0  0  0  0  0
  149.0717  135.2006  154.8088 C   0  0  0  0  0  0  0  0  0  0  0  0
  148.9982  134.8839  155.9959 O   0  0  0  0  0  0  0  0  0  0  0  0
  148.5191  134.4810  153.8214 N   0  0  0  0  0  0  0  0  0  0  0  0
  147.7626  133.2483  154.0123 C   0  0  0  0  0  0  0  0  0  0  0  0
  147.6086  132.4678  152.6906 C   0  0  0  0  0  0  0  0  0  0  0  0
  146.2839  132.6883  152.0425 N   0  3  1  0  0  0  0  0  0  0  0  0
  146.2518  133.9865  151.3074 C   0  0  0  0  0  0  0  0  0  0  0  0
  144.8606  134.2971  150.7391 C   0  0  0  0  0  0  0  0  0  0  0  0
  144.4023  133.1729  149.8116 C   0  0  0  0  0  0  0  0  0  0  0  0
  144.4294  131.8480  150.5762 C   0  0  0  0  0  0  0  0  0  0  0  0
  145.8195  131.5491  151.1823 C   0  0  2  0  0  0  0  0  0  0  0  0
  145.7352  130.2065  151.9408 C   0  0  0  0  0  0  0  0  0  0  0  0
  150.7244  138.4871  154.3563 C   0  0  0  0  0  0  0  0  0  0  0  0
  151.4017  139.5121  154.9146 N   0  0  0  0  0  0  0  0  0  0  0  0
  153.0736  141.4006  158.5128 H   0  0  0  0  0  0  0  0  0  0  0  0
  152.9384  139.6527  158.6728 H   0  0  0  0  0  0  0  0  0  0  0  0
  151.4773  140.6639  158.6002 H   0  0  0  0  0  0  0  0  0  0  0  0
  151.8672  138.1783  157.9999 H   0  0  0  0  0  0  0  0  0  0  0  0
  150.6376  136.2919  156.9731 H   0  0  0  0  0  0  0  0  0  0  0  0
  149.5956  136.4567  153.3372 H   0  0  0  0  0  0  0  0  0  0  0  0
  148.6204  134.8146  152.8737 H   0  0  0  0  0  0  0  0  0  0  0  0
  148.2482  132.6285  154.7681 H   0  0  0  0  0  0  0  0  0  0  0  0
  146.7935  133.5324  154.4194 H   0  0  0  0  0  0  0  0  0  0  0  0
  148.4075  132.7260  151.9937 H   0  0  0  0  0  0  0  0  0  0  0  0
  147.7513  131.4181  152.9305 H   0  0  0  0  0  0  0  0  0  0  0  0
  146.5371  134.8075  151.9629 H   0  0  0  0  0  0  0  0  0  0  0  0
  146.9846  133.9643  150.4990 H   0  0  0  0  0  0  0  0  0  0  0  0
  144.1463  134.4215  151.5543 H   0  0  0  0  0  0  0  0  0  0  0  0
  144.8809  135.2426  150.1960 H   0  0  0  0  0  0  0  0  0  0  0  0
  143.3972  133.3744  149.4394 H   0  0  0  0  0  0  0  0  0  0  0  0
  145.0560  133.1153  148.9401 H   0  0  0  0  0  0  0  0  0  0  0  0
  143.6802  131.8742  151.3690 H   0  0  0  0  0  0  0  0  0  0  0  0
  144.1334  131.0419  149.9035 H   0  0  0  0  0  0  0  0  0  0  0  0
  146.5315  131.4345  150.3632 H   0  0  0  0  0  0  0  0  0  0  0  0
  145.2144  129.4554  151.3461 H   0  0  0  0  0  0  0  0  0  0  0  0
  145.1919  130.3122  152.8804 H   0  0  0  0  0  0  0  0  0  0  0  0
  146.7151  129.7830  152.1569 H   0  0  0  0  0  0  0  0  0  0  0  0
  150.4323  138.6227  153.3250 H   0  0  0  0  0  0  0  0  0  0  0  0
  145.6100  132.7594  152.7917 H   0  0  0  0  0  0  0  0  0  0  0  0
  1  2  1  0  0  0  0
  1 22  1  0  0  0  0
  1 23  1  0  0  0  0
  1 24  1  0  0  0  0
  2  3  1  0  0  0  0
  3 21  1  0  0  0  0
  3  4  2  0  0  0  0
  4  5  1  0  0  0  0
  4 25  1  0  0  0  0
  5  6  2  0  0  0  0
  5 26  1  0  0  0  0
  6  7  1  0  0  0  0
  6 20  1  0  0  0  0
  7  8  1  0  0  0  0
  7 27  1  0  0  0  0
  8  9  2  0  0  0  0
  8 10  1  0  0  0  0
 10 11  1  0  0  0  0
 10 28  1  0  0  0  0
 11 12  1  0  0  0  0
 11 29  1  0  0  0  0
 11 30  1  0  0  0  0
 12 13  1  0  0  0  0
 12 31  1  0  0  0  0
 12 32  1  0  0  0  0
 13 18  1  0  0  0  0
 13 14  1  0  0  0  0
 13 46  1  0  0  0  0
 14 15  1  0  0  0  0
 14 33  1  0  0  0  0
 14 34  1  0  0  0  0
 15 16  1  0  0  0  0
 15 35  1  0  0  0  0
 15 36  1  0  0  0  0
 16 17  1  0  0  0  0
 16 37  1  0  0  0  0
 16 38  1  0  0  0  0
 17 18  1  0  0  0  0
 17 39  1  0  0  0  0
 17 40  1  0  0  0  0
 18 19  1  0  0  0  0
 18 41  1  0  0  0  0
 19 42  1  0  0  0  0
 19 43  1  0  0  0  0
 19 44  1  0  0  0  0
 20 21  2  0  0  0  0
 20 45  1  0  0  0  0
M  CHG  1  13   1
M  END
> <s_m_source_file>
AV-unprocessed.smi

> <i_m_source_file_index>
2008

> <i_lp_mmshare_version>
43012

> <i_f3d_flags>
0

> <s_epik_input>
W0NIM11PYzFbY0hdW2NIXWMoW2NIXW4xKVtOSF1DKD1PKVtOSF1bQ0gyXVtDSDJdTjJbQ0gyXVtDSDJdW0NIMl1bQ0gyXVtDQEhdMltDSDNd

> <s_epik_cmdline>
J2VwaWtfcHl0aG9uJywgJy1waCcsICc3LjAnLCAnLXRuJywgJzgnLCAnLW1hJywgJzIwMCcsICctbWV0YWxfYmluZGluZycsICctaW1hZScsICc8aW5maWxlLm1hZT4nLCAnLW9tYWUnLCAnPG91dGZpbGUubWFlPic=

> <r_lp_tautomer_probability>
1

> <r_epik_Ionization_Penalty>
0.00219526

> <r_epik_Ionization_Penalty_Charging>
0.00211816

> <r_epik_Ionization_Penalty_Neutral>
7.71003e-05

> <r_epik_State_Penalty>
0.00145254

> <r_epik_Charging_Adjusted_Penalty>
0.0035707

> <i_epik_Tot_Q>
1

> <i_epik_Tot_abs_Q>
1

> <r_epik_Metal_State_Penalty>
-0

> <b_epik_Metal_Only>
0

> <s_lp_Force_Field>
OPLS_2005

> <r_lp_Energy>
23.0726

> <b_lp_Chiralities_Consistent>
1

> <s_lp_Variant>
AV-unprocessed.smi:2008-4

> <Gold.Version>
5.8.1

> <Gold.Id.Protein>
6NUR|6NUR_protein|mol2

> <Gold.PLP.Fitness>
44.1141

> <Gold.PLP.PLP>
-32.4950

> <Gold.PLP.part.hbond>
-4.3703

> <Gold.PLP.part.metal>
0.0000

> <Gold.PLP.part.buried>
0.2535

> <Gold.PLP.part.nonpolar>
-26.8084

> <Gold.PLP.part.repulsive>
0.1097

> <Gold.PLP.ligand.clash>
0.0000

> <Gold.PLP.ligand.torsion>
0.9837

> <Gold.PLP.Chemscore.Hbond>
3.9040

> <Gold.PLP.Chemscore.CHOScore>
0.6165

> <Gold.PLP.Chemscore.Metal>
0.0000

> <Gold.Chemscore.Hbonds>
donor molecule, donor type, donor heavy atom, donor atom, acceptor molecule, acceptor atom, score
      L1  H     7    27       P1  7948  1.00
      L1  H    10    28       P1  7948  0.93
      P1  H  7989  7998       L1    21  1.00
      P1  H  7997  8008       L1     2  0.94
      L1  C    20    45       P1  7957  0.58

> <Gold.PLP.Chemscore.Internal.Correction>
0.0250

> <Gold.Rescore>
     Score         DG    S(hbond)    S(metal)    S(lipo)     H(rot)  DE(clash)    DE(int)     intcor
     15.96     -18.54       2.34        0.00      82.19       1.71       0.30       2.28       ----

> <Gold.Chemscore.Fitness>
15.9606

> <Gold.Chemscore.DG>
-18.5375

> <Gold.Chemscore.ZeroCoef>
-5.4800

> <Gold.Chemscore.Hbond>
2.3415

> <Gold.Chemscore.Metal>
0.0000

> <Gold.Chemscore.Lipo>
82.1906

> <Gold.Chemscore.Internal_Hbond>
0.0000

> <Gold.Chemscore.DEClash>
0.2953

> <Gold.Chemscore.DEInternal>
2.2816

> <Gold.Chemscore.Rot>
1.7107

> <Gold.Chemscore.Internal.Correction>
   9.000000E+99

> <Gold.Chemscore.Hbonds>
donor molecule, donor type, donor heavy atom, donor atom, acceptor molecule, acceptor atom, score
      L1  H     7    27       P1  7948  0.48
      L1  H    10    28       P1  7948  0.27
      P1  H  7989  7998       L1    21  0.59
      P1  H  7997  8008       L1     2  0.15

> <Gold.Chemscore.Hbond.Weighted>
-7.8206

> <Gold.Chemscore.Metal.Weighted>
-0.0000

> <Gold.Chemscore.Lipo.Weighted>
-9.6163

> <Gold.Chemscore.Internal_Hbond.Weighted>
0.0000

> <Gold.Chemscore.DEClash.Weighted>
0.2953

> <Gold.Chemscore.DEInternal.Weighted>
2.2816

> <Gold.Chemscore.Rot.Weighted>
4.3794

> <Gold.Chemscore.Internal.Correction.Weighted>
   9.000000E+99

> <Gold.Protein.RotatedTorsions>
[ 6907 6896 6895 6894 ] final  129.04 input  -60.11 | X-H torsion
[ 7974 7965 7964 7962 ] final   81.62 input  175.53 | X-H torsion
[ 8008 7997 7996 7995 ] final  -50.94 input   59.86 | X-H torsion
[ 10167 10162 10161 10158 ] final  124.94 input  -65.29 | X-H torsion
[ 10718 10713 10712 10709 ] final  107.50 input   66.30 | X-H torsion
[ 10763 10752 10751 10750 ] final -152.75 input  -60.55 | X-H torsion
[ 11005 11000 10999 10996 ] final  136.37 input  -57.11 | X-H torsion

> <Gold.Protein.ActiveResidues>
 VAL166  LYS551  ARG553  GLY616  TRP617  ASP618  TYR619  PRO620  LYS621  CYS622 
 ASP623  PHE694  ASN695  SER759  ASP760  ASP761  ALA762  ILE779  LEU786  VAL792 
 PHE793  MET794  SER795  GLU796  ALA797  LYS798  CYS799  TRP800  GLU811  SER814 

> <Gold.Protein.RotatedAtoms>
  152.3662  133.6360  159.6052 H   0  0  0  0  0  0  0  0  0  0  0  0  # atno 6907 bound_to 6896
  150.7636  133.9344  159.3445 H   0  0  0  0  0  0  0  0  0  0  0  0  # atno 6908 bound_to 6896
  151.7174  135.0902  160.0329 H   0  0  0  0  0  0  0  0  0  0  0  0  # atno 6909 bound_to 6896
  145.6357  139.2414  143.2059 H   0  0  0  0  0  0  0  0  0  0  0  0  # atno 7974 bound_to 7965
  154.4072  140.1260  156.4748 H   0  0  0  0  0  0  0  0  0  0  0  0  # atno 8008 bound_to 7997
  155.7143  140.3493  155.4968 H   0  0  0  0  0  0  0  0  0  0  0  0  # atno 8009 bound_to 7997
  155.9272  140.1063  157.1151 H   0  0  0  0  0  0  0  0  0  0  0  0  # atno 8010 bound_to 7997
  139.5713  144.6940  151.3771 H   0  0  0  0  0  0  0  0  0  0  0  0  # atno 10167 bound_to 10162
  157.6625  131.0874  150.6166 H   0  0  0  0  0  0  0  0  0  0  0  0  # atno 10718 bound_to 10713
  154.7973  135.3229  154.7635 H   0  0  0  0  0  0  0  0  0  0  0  0  # atno 10763 bound_to 10752
  153.8310  135.6879  153.4819 H   0  0  0  0  0  0  0  0  0  0  0  0  # atno 10764 bound_to 10752
  153.1671  135.4637  154.9795 H   0  0  0  0  0  0  0  0  0  0  0  0  # atno 10765 bound_to 10752
  140.0042  134.9466  157.0138 H   0  0  0  0  0  0  0  0  0  0  0  0  # atno 11005 bound_to 11000
  146.1321  140.7172  142.9407 LP  0  0  0  0  0  0  0  0  0  0  0  0  # atno 17320 bound_to 7965
  144.7176  140.4264  143.7032 LP  0  0  0  0  0  0  0  0  0  0  0  0  # atno 17321 bound_to 7965
  140.6997  143.7661  150.7383 LP  0  0  0  0  0  0  0  0  0  0  0  0  # atno 17342 bound_to 10162
  140.1168  143.4648  152.2337 LP  0  0  0  0  0  0  0  0  0  0  0  0  # atno 17343 bound_to 10162
  156.6468  130.4474  149.5733 LP  0  0  0  0  0  0  0  0  0  0  0  0  # atno 17370 bound_to 10713
  156.2167  130.6712  151.1326 LP  0  0  0  0  0  0  0  0  0  0  0  0  # atno 17371 bound_to 10713
  140.4672  134.1423  155.7198 LP  0  0  0  0  0  0  0  0  0  0  0  0  # atno 17394 bound_to 11000
  141.1664  133.8694  157.1701 LP  0  0  0  0  0  0  0  0  0  0  0  0  # atno 17395 bound_to 11000

$$$$
