AV-unprocessed.smi:884|AV-procd|sdf|4042|dock9
  -GOLD-   22720 1533D 1   1.00000     0.00000
 Structure written by MMmdl.
 47 49  0  0  0  0  0  0  0  0  1 V2000
  147.5041  138.4825  155.7832 O   0  0  0  0  0  0  0  0  0  0  0  0
  148.2362  138.0946  154.8716 C   0  0  0  0  0  0  0  0  0  0  0  0
  148.0174  136.9396  154.2187 N   0  0  0  0  0  0  0  0  0  0  0  0
  146.9649  135.9723  154.5213 C   0  0  0  0  0  0  0  0  0  0  0  0
  145.7292  136.1518  153.6190 C   0  0  0  0  0  0  0  0  0  0  0  0
  145.5594  135.0589  152.5757 C   0  0  0  0  0  0  0  0  0  0  0  0
  146.5004  134.0125  152.4741 C   0  0  0  0  0  0  0  0  0  0  0  0
  146.3098  133.0327  151.4804 C   0  0  0  0  0  0  0  0  0  0  0  0
  145.1898  133.1346  150.6331 C   0  0  0  0  0  0  0  0  0  0  0  0
  144.3086  134.2189  150.8146 C   0  0  0  0  0  0  0  0  0  0  0  0
  144.4863  135.1677  151.7591 N   0  0  0  0  0  0  0  0  0  0  0  0
  149.3308  138.7842  154.4581 N   0  0  0  0  0  0  0  0  0  0  0  0
  150.5231  138.2137  153.8127 C   0  0  0  0  0  0  0  0  0  0  0  0
  151.6423  138.0935  154.8551 C   0  0  0  0  0  0  0  0  0  0  0  0
  152.1155  139.7308  155.4921 S   0  0  0  0  0  0  0  0  0  0  0  0
  150.4855  140.4470  155.9328 C   0  0  0  0  0  0  0  0  0  0  0  0
  149.9462  139.8138  157.2435 C   0  0  0  0  0  0  0  0  0  0  0  0
  150.7724  140.1799  158.4886 C   0  0  0  0  0  0  0  0  0  0  0  0
  150.8865  141.7007  158.6528 C   0  0  0  0  0  0  0  0  0  0  0  0
  151.4664  142.3452  157.3869 C   0  0  0  0  0  0  0  0  0  0  0  0
  150.6396  141.9745  156.1419 C   0  0  0  0  0  0  0  0  0  0  0  0
  149.5063  140.2152  154.7491 C   0  0  0  0  0  0  0  0  0  0  0  0
  148.6616  136.6905  153.4825 H   0  0  0  0  0  0  0  0  0  0  0  0
  147.3343  134.9497  154.4286 H   0  0  0  0  0  0  0  0  0  0  0  0
  146.6763  136.0938  155.5654 H   0  0  0  0  0  0  0  0  0  0  0  0
  144.8301  136.1934  154.2346 H   0  0  0  0  0  0  0  0  0  0  0  0
  145.7889  137.1166  153.1125 H   0  0  0  0  0  0  0  0  0  0  0  0
  147.3520  133.9646  153.1370 H   0  0  0  0  0  0  0  0  0  0  0  0
  147.0104  132.2180  151.3704 H   0  0  0  0  0  0  0  0  0  0  0  0
  145.0123  132.4023  149.8594 H   0  0  0  0  0  0  0  0  0  0  0  0
  143.4440  134.3331  150.1775 H   0  0  0  0  0  0  0  0  0  0  0  0
  150.3423  137.2439  153.3490 H   0  0  0  0  0  0  0  0  0  0  0  0
  150.8459  138.8577  152.9935 H   0  0  0  0  0  0  0  0  0  0  0  0
  151.3290  137.4590  155.6838 H   0  0  0  0  0  0  0  0  0  0  0  0
  152.5223  137.6260  154.4133 H   0  0  0  0  0  0  0  0  0  0  0  0
  148.9174  140.1399  157.4031 H   0  0  0  0  0  0  0  0  0  0  0  0
  149.9029  138.7302  157.1567 H   0  0  0  0  0  0  0  0  0  0  0  0
  150.3103  139.7475  159.3761 H   0  0  0  0  0  0  0  0  0  0  0  0
  151.7678  139.7401  158.4190 H   0  0  0  0  0  0  0  0  0  0  0  0
  149.9019  142.1215  158.8596 H   0  0  0  0  0  0  0  0  0  0  0  0
  151.5126  141.9376  159.5134 H   0  0  0  0  0  0  0  0  0  0  0  0
  151.4895  143.4291  157.5038 H   0  0  0  0  0  0  0  0  0  0  0  0
  152.5028  142.0321  157.2564 H   0  0  0  0  0  0  0  0  0  0  0  0
  151.0901  142.4292  155.2585 H   0  0  0  0  0  0  0  0  0  0  0  0
  149.6517  142.4270  156.2402 H   0  0  0  0  0  0  0  0  0  0  0  0
  149.8799  140.7177  153.8555 H   0  0  0  0  0  0  0  0  0  0  0  0
  148.5500  140.6984  154.9558 H   0  0  0  0  0  0  0  0  0  0  0  0
  1  2  2  0  0  0  0
  2  3  1  0  0  0  0
  2 12  1  0  0  0  0
  3  4  1  0  0  0  0
  3 23  1  0  0  0  0
  4  5  1  0  0  0  0
  4 24  1  0  0  0  0
  4 25  1  0  0  0  0
  5  6  1  0  0  0  0
  5 26  1  0  0  0  0
  5 27  1  0  0  0  0
  6 11  1  0  0  0  0
  6  7  2  0  0  0  0
  7  8  1  0  0  0  0
  7 28  1  0  0  0  0
  8  9  2  0  0  0  0
  8 29  1  0  0  0  0
  9 10  1  0  0  0  0
  9 30  1  0  0  0  0
 10 11  2  0  0  0  0
 10 31  1  0  0  0  0
 12 22  1  0  0  0  0
 12 13  1  0  0  0  0
 13 14  1  0  0  0  0
 13 32  1  0  0  0  0
 13 33  1  0  0  0  0
 14 15  1  0  0  0  0
 14 34  1  0  0  0  0
 14 35  1  0  0  0  0
 15 16  1  0  0  0  0
 16 21  1  0  0  0  0
 16 17  1  0  0  0  0
 16 22  1  0  0  0  0
 17 18  1  0  0  0  0
 17 36  1  0  0  0  0
 17 37  1  0  0  0  0
 18 19  1  0  0  0  0
 18 38  1  0  0  0  0
 18 39  1  0  0  0  0
 19 20  1  0  0  0  0
 19 40  1  0  0  0  0
 19 41  1  0  0  0  0
 20 21  1  0  0  0  0
 20 42  1  0  0  0  0
 20 43  1  0  0  0  0
 21 44  1  0  0  0  0
 21 45  1  0  0  0  0
 22 46  1  0  0  0  0
 22 47  1  0  0  0  0
M  END
> <s_m_source_file>
AV-unprocessed.smi

> <i_m_source_file_index>
884

> <i_lp_mmshare_version>
43012

> <i_f3d_flags>
0

> <s_epik_input>
bjFbY0hdW2NIXVtjSF1bY0hdYzFbQ0gyXVtDSDJdW05IXUMoPU8pTihbQ0gyXTIpW0NIMl1bQ0gyXVNDMjNbQ0gyXVtDSDJdW0NIMl1bQ0gyXVtDSDJdMw==

> <s_epik_cmdline>
J2VwaWtfcHl0aG9uJywgJy1waCcsICc3LjAnLCAnLXRuJywgJzgnLCAnLW1hJywgJzIwMCcsICctbWV0YWxfYmluZGluZycsICctaW1hZScsICc8aW5maWxlLm1hZT4nLCAnLW9tYWUnLCAnPG91dGZpbGUubWFlPic=

> <r_epik_Ionization_Penalty>
0.0449137

> <r_epik_Ionization_Penalty_Charging>
0

> <r_epik_Ionization_Penalty_Neutral>
0.0449137

> <r_epik_State_Penalty>
0.0380475

> <r_epik_Charging_Adjusted_Penalty>
0.0380475

> <i_epik_Tot_Q>
0

> <i_epik_Tot_abs_Q>
0

> <r_epik_Metal_State_Penalty>
0.0353559

> <b_epik_Metal_Only>
0

> <s_lp_Force_Field>
OPLS_2005

> <r_lp_Energy>
30.1612

> <b_lp_Chiralities_Consistent>
1

> <s_lp_Variant>
AV-unprocessed.smi:884-1

> <Gold.Version>
5.8.1

> <Gold.Id.Protein>
6NUR|6NUR_protein|mol2

> <Gold.PLP.Fitness>
38.9102

> <Gold.PLP.PLP>
-34.3619

> <Gold.PLP.part.hbond>
-1.0000

> <Gold.PLP.part.metal>
0.0000

> <Gold.PLP.part.buried>
-3.8155

> <Gold.PLP.part.nonpolar>
-29.6593

> <Gold.PLP.part.repulsive>
0.1831

> <Gold.PLP.ligand.clash>
0.0000

> <Gold.PLP.ligand.torsion>
0.7242

> <Gold.PLP.Chemscore.Hbond>
0.9920

> <Gold.PLP.Chemscore.CHOScore>
1.0000

> <Gold.PLP.Chemscore.Metal>
0.0000

> <Gold.Chemscore.Hbonds>
donor molecule, donor type, donor heavy atom, donor atom, acceptor molecule, acceptor atom, score
      L1  H     3    23       P1  7948  1.00
      L1  C    10    31       P1 10186  1.00

> <Gold.PLP.Chemscore.Internal.Correction>
0.0208

> <Gold.Rescore>
     Score         DG    S(hbond)    S(metal)    S(lipo)     H(rot)  DE(clash)    DE(int)     intcor
     16.47     -17.16       0.96        0.00      99.31       1.23       0.06       0.63       ----

> <Gold.Chemscore.Fitness>
16.4699

> <Gold.Chemscore.DG>
-17.1586

> <Gold.Chemscore.ZeroCoef>
-5.4800

> <Gold.Chemscore.Hbond>
0.9588

> <Gold.Chemscore.Metal>
0.0000

> <Gold.Chemscore.Lipo>
99.3085

> <Gold.Chemscore.Internal_Hbond>
0.0000

> <Gold.Chemscore.DEClash>
0.0607

> <Gold.Chemscore.DEInternal>
0.6280

> <Gold.Chemscore.Rot>
1.2276

> <Gold.Chemscore.Internal.Correction>
   9.000000E+99

> <Gold.Chemscore.Hbonds>
donor molecule, donor type, donor heavy atom, donor atom, acceptor molecule, acceptor atom, score
      L1  H     3    23       P1  7948  0.95

> <Gold.Chemscore.Hbond.Weighted>
-3.2023

> <Gold.Chemscore.Metal.Weighted>
-0.0000

> <Gold.Chemscore.Lipo.Weighted>
-11.6191

> <Gold.Chemscore.Internal_Hbond.Weighted>
0.0000

> <Gold.Chemscore.DEClash.Weighted>
0.0607

> <Gold.Chemscore.DEInternal.Weighted>
0.6280

> <Gold.Chemscore.Rot.Weighted>
3.1427

> <Gold.Chemscore.Internal.Correction.Weighted>
   9.000000E+99

> <Gold.Protein.RotatedTorsions>
[ 6907 6896 6895 6894 ] final  138.70 input  -60.11 | X-H torsion
[ 7974 7965 7964 7962 ] final  -20.69 input  175.53 | X-H torsion
[ 8008 7997 7996 7995 ] final  -33.83 input   59.86 | X-H torsion
[ 10167 10162 10161 10158 ] final   51.27 input  -65.29 | X-H torsion
[ 10718 10713 10712 10709 ] final  -20.27 input   66.30 | X-H torsion
[ 10763 10752 10751 10750 ] final  -49.07 input  -60.55 | X-H torsion
[ 11005 11000 10999 10996 ] final -142.92 input  -57.11 | X-H torsion

> <Gold.Protein.ActiveResidues>
 VAL166  LYS551  ARG553  GLY616  TRP617  ASP618  TYR619  PRO620  LYS621  CYS622 
 ASP623  PHE694  ASN695  SER759  ASP760  ASP761  ALA762  ILE779  LEU786  VAL792 
 PHE793  MET794  SER795  GLU796  ALA797  LYS798  CYS799  TRP800  GLU811  SER814 

> <Gold.Protein.RotatedAtoms>
  152.2635  133.5318  159.5395 H   0  0  0  0  0  0  0  0  0  0  0  0  # atno 6907 bound_to 6896
  150.7133  134.0796  159.3902 H   0  0  0  0  0  0  0  0  0  0  0  0  # atno 6908 bound_to 6896
  151.8713  135.0488  160.0530 H   0  0  0  0  0  0  0  0  0  0  0  0  # atno 6909 bound_to 6896
  146.1774  140.4237  142.8508 H   0  0  0  0  0  0  0  0  0  0  0  0  # atno 7974 bound_to 7965
  154.4138  140.1700  156.1951 H   0  0  0  0  0  0  0  0  0  0  0  0  # atno 8008 bound_to 7997
  155.9571  140.3396  155.6434 H   0  0  0  0  0  0  0  0  0  0  0  0  # atno 8009 bound_to 7997
  155.6796  140.0721  157.2480 H   0  0  0  0  0  0  0  0  0  0  0  0  # atno 8010 bound_to 7997
  140.2637  144.3344  150.6310 H   0  0  0  0  0  0  0  0  0  0  0  0  # atno 10167 bound_to 10162
  156.5342  130.4662  149.6531 H   0  0  0  0  0  0  0  0  0  0  0  0  # atno 10718 bound_to 10713
  154.0881  135.6581  153.4848 H   0  0  0  0  0  0  0  0  0  0  0  0  # atno 10763 bound_to 10752
  153.0331  135.5196  154.7408 H   0  0  0  0  0  0  0  0  0  0  0  0  # atno 10764 bound_to 10752
  154.6523  135.3003  154.9940 H   0  0  0  0  0  0  0  0  0  0  0  0  # atno 10765 bound_to 10752
  140.8177  134.2669  157.4914 H   0  0  0  0  0  0  0  0  0  0  0  0  # atno 11005 bound_to 11000
  144.8259  140.6627  143.6322 LP  0  0  0  0  0  0  0  0  0  0  0  0  # atno 17320 bound_to 7965
  145.4172  139.1570  143.4093 LP  0  0  0  0  0  0  0  0  0  0  0  0  # atno 17321 bound_to 7965
  140.5945  143.2167  151.7189 LP  0  0  0  0  0  0  0  0  0  0  0  0  # atno 17342 bound_to 10162
  139.5009  144.3888  152.0301 LP  0  0  0  0  0  0  0  0  0  0  0  0  # atno 17343 bound_to 10162
  156.3031  130.7188  151.2064 LP  0  0  0  0  0  0  0  0  0  0  0  0  # atno 17370 bound_to 10713
  157.7416  131.0501  150.5081 LP  0  0  0  0  0  0  0  0  0  0  0  0  # atno 17371 bound_to 10713
  139.8710  134.9518  156.4096 LP  0  0  0  0  0  0  0  0  0  0  0  0  # atno 17394 bound_to 11000
  140.9132  133.7697  155.9816 LP  0  0  0  0  0  0  0  0  0  0  0  0  # atno 17395 bound_to 11000

$$$$
