AV-unprocessed.smi:825|AV-procd|sdf|3851|dock8
  -GOLD-   22720 1303D 1   1.00000     0.00000
 Structure written by MMmdl.
 38 39  0  0  0  0  0  0  0  0  1 V2000
  150.7370  135.8078  156.1051 O   0  0  0  0  0  0  0  0  0  0  0  0
  150.2683  135.8184  154.9670 C   0  0  0  0  0  0  0  0  0  0  0  0
  149.8675  134.7184  154.3143 N   0  0  0  0  0  0  0  0  0  0  0  0
  149.9266  133.3540  154.8293 C   0  0  0  0  0  0  0  0  0  0  0  0
  149.3199  132.3587  153.8259 C   0  0  0  0  0  0  0  0  0  0  0  0
  147.8754  132.6684  153.4139 C   0  0  0  0  0  0  0  0  0  0  0  0
  147.2850  131.3344  152.9356 C   0  0  0  0  0  0  0  0  0  0  0  0
  148.2386  130.2347  153.4262 C   0  0  0  0  0  0  0  0  0  0  0  0
  149.2347  130.9279  154.3581 C   0  0  0  0  0  0  0  0  0  0  0  0
  150.0915  136.9182  154.2174 N   0  0  0  0  0  0  0  0  0  0  0  0
  150.3643  138.2595  154.5853 C   0  0  0  0  0  0  0  0  0  0  0  0
  149.8839  139.4694  154.0088 C   0  0  0  0  0  0  0  0  0  0  0  0
  150.3820  140.5246  154.6359 N   0  0  0  0  0  0  0  0  0  0  0  0
  151.1757  140.0145  155.6097 N   0  0  0  0  0  0  0  0  0  0  0  0
  151.8954  140.9129  156.4911 C   0  0  0  0  0  0  0  0  0  0  0  0
  150.9352  141.7892  157.3072 C   0  0  0  0  0  0  0  0  0  0  0  0
  149.7872  142.0857  156.5419 O   0  0  0  0  0  0  0  0  0  0  0  0
  151.1863  138.6339  155.6052 C   0  0  0  0  0  0  0  0  0  0  0  0
  149.4957  134.8317  153.3826 H   0  0  0  0  0  0  0  0  0  0  0  0
  150.9515  133.0573  155.0572 H   0  0  0  0  0  0  0  0  0  0  0  0
  149.3802  133.3209  155.7723 H   0  0  0  0  0  0  0  0  0  0  0  0
  149.9367  132.3452  152.9252 H   0  0  0  0  0  0  0  0  0  0  0  0
  147.3108  133.0219  154.2779 H   0  0  0  0  0  0  0  0  0  0  0  0
  147.8199  133.4426  152.6479 H   0  0  0  0  0  0  0  0  0  0  0  0
  146.2793  131.1947  153.3331 H   0  0  0  0  0  0  0  0  0  0  0  0
  147.2106  131.3101  151.8478 H   0  0  0  0  0  0  0  0  0  0  0  0
  147.7118  129.4199  153.9238 H   0  0  0  0  0  0  0  0  0  0  0  0
  148.7702  129.8079  152.5748 H   0  0  0  0  0  0  0  0  0  0  0  0
  150.2043  130.4293  154.3775 H   0  0  0  0  0  0  0  0  0  0  0  0
  148.8419  130.9301  155.3760 H   0  0  0  0  0  0  0  0  0  0  0  0
  149.7109  136.7836  153.2922 H   0  0  0  0  0  0  0  0  0  0  0  0
  149.2132  139.6249  153.1770 H   0  0  0  0  0  0  0  0  0  0  0  0
  152.5320  140.3217  157.1513 H   0  0  0  0  0  0  0  0  0  0  0  0
  152.5569  141.5348  155.8861 H   0  0  0  0  0  0  0  0  0  0  0  0
  150.6305  141.2774  158.2207 H   0  0  0  0  0  0  0  0  0  0  0  0
  151.4178  142.7222  157.6008 H   0  0  0  0  0  0  0  0  0  0  0  0
  149.7391  143.0221  156.4226 H   0  0  0  0  0  0  0  0  0  0  0  0
  151.7663  138.0550  156.3087 H   0  0  0  0  0  0  0  0  0  0  0  0
  1  2  2  0  0  0  0
  2  3  1  0  0  0  0
  2 10  1  0  0  0  0
  3  4  1  0  0  0  0
  3 19  1  0  0  0  0
  4  5  1  0  0  0  0
  4 20  1  0  0  0  0
  4 21  1  0  0  0  0
  5  9  1  0  0  0  0
  5  6  1  0  0  0  0
  5 22  1  0  0  0  0
  6  7  1  0  0  0  0
  6 23  1  0  0  0  0
  6 24  1  0  0  0  0
  7  8  1  0  0  0  0
  7 25  1  0  0  0  0
  7 26  1  0  0  0  0
  8  9  1  0  0  0  0
  8 27  1  0  0  0  0
  8 28  1  0  0  0  0
  9 29  1  0  0  0  0
  9 30  1  0  0  0  0
 10 11  1  0  0  0  0
 10 31  1  0  0  0  0
 11 18  2  0  0  0  0
 11 12  1  0  0  0  0
 12 13  2  0  0  0  0
 12 32  1  0  0  0  0
 13 14  1  0  0  0  0
 14 15  1  0  0  0  0
 14 18  1  0  0  0  0
 15 16  1  0  0  0  0
 15 33  1  0  0  0  0
 15 34  1  0  0  0  0
 16 17  1  0  0  0  0
 16 35  1  0  0  0  0
 16 36  1  0  0  0  0
 17 37  1  0  0  0  0
 18 38  1  0  0  0  0
M  END
> <s_m_source_file>
AV-unprocessed.smi

> <i_m_source_file_index>
825

> <i_lp_mmshare_version>
43012

> <i_f3d_flags>
0

> <s_epik_input>
W0NIMl0xW0NIMl1bQ0gyXVtDSDJdW0NIXTFbQ0gyXVtOSF1DKD1PKVtOSF1jMltjSF1ubihbY0hdMilbQ0gyXVtDSDJdW09IXQ==

> <s_epik_cmdline>
J2VwaWtfcHl0aG9uJywgJy1waCcsICc3LjAnLCAnLXRuJywgJzgnLCAnLW1hJywgJzIwMCcsICctbWV0YWxfYmluZGluZycsICctaW1hZScsICc8aW5maWxlLm1hZT4nLCAnLW9tYWUnLCAnPG91dGZpbGUubWFlPic=

> <r_lp_tautomer_probability>
1

> <r_epik_Ionization_Penalty>
0.000577844

> <r_epik_Ionization_Penalty_Charging>
0

> <r_epik_Ionization_Penalty_Neutral>
0.000577844

> <r_epik_State_Penalty>
-0

> <r_epik_Charging_Adjusted_Penalty>
0

> <i_epik_Tot_Q>
0

> <i_epik_Tot_abs_Q>
0

> <r_epik_Metal_State_Penalty>
-0

> <b_epik_Metal_Only>
0

> <s_lp_Force_Field>
OPLS_2005

> <r_lp_Energy>
26.6731

> <b_lp_Chiralities_Consistent>
1

> <s_lp_Variant>
AV-unprocessed.smi:825-1

> <Gold.Version>
5.8.1

> <Gold.Id.Protein>
6NUR|6NUR_protein|mol2

> <Gold.PLP.Fitness>
42.7813

> <Gold.PLP.PLP>
-30.4500

> <Gold.PLP.part.hbond>
-4.7732

> <Gold.PLP.part.metal>
0.0000

> <Gold.PLP.part.buried>
-0.4596

> <Gold.PLP.part.nonpolar>
-24.9823

> <Gold.PLP.part.repulsive>
0.2269

> <Gold.PLP.ligand.clash>
0.0000

> <Gold.PLP.ligand.torsion>
0.2469

> <Gold.PLP.Chemscore.Hbond>
3.2711

> <Gold.PLP.Chemscore.CHOScore>
1.0000

> <Gold.PLP.Chemscore.Metal>
0.0000

> <Gold.Chemscore.Hbonds>
donor molecule, donor type, donor heavy atom, donor atom, acceptor molecule, acceptor atom, score
      L1  H     3    19       P1  7948  0.32
      L1  H    10    31       P1  7948  1.00
      L1  H    17    37       P1  8028  0.96
      P1  H  7989  7998       L1    13  0.75
      L1  C    12    32       P1  7957  1.00

> <Gold.PLP.Chemscore.Internal.Correction>
0.0117

> <Gold.Rescore>
     Score         DG    S(hbond)    S(metal)    S(lipo)     H(rot)  DE(clash)    DE(int)     intcor
     12.25     -13.90       2.01        0.00      65.16       2.31       0.16       1.49       ----

> <Gold.Chemscore.Fitness>
12.2549

> <Gold.Chemscore.DG>
-13.9033

> <Gold.Chemscore.ZeroCoef>
-5.4800

> <Gold.Chemscore.Hbond>
2.0095

> <Gold.Chemscore.Metal>
0.0000

> <Gold.Chemscore.Lipo>
65.1647

> <Gold.Chemscore.Internal_Hbond>
0.0000

> <Gold.Chemscore.DEClash>
0.1596

> <Gold.Chemscore.DEInternal>
1.4888

> <Gold.Chemscore.Rot>
2.3097

> <Gold.Chemscore.Internal.Correction>
   9.000000E+99

> <Gold.Chemscore.Hbonds>
donor molecule, donor type, donor heavy atom, donor atom, acceptor molecule, acceptor atom, score
      L1  H     3    19       P1  7948  0.01
      L1  H    10    31       P1  7948  0.45
      L1  H    17    37       P1  8028  0.88
      P1  H  7989  7998       L1    13  0.02

> <Gold.Chemscore.Hbond.Weighted>
-6.7118

> <Gold.Chemscore.Metal.Weighted>
-0.0000

> <Gold.Chemscore.Lipo.Weighted>
-7.6243

> <Gold.Chemscore.Internal_Hbond.Weighted>
0.0000

> <Gold.Chemscore.DEClash.Weighted>
0.1596

> <Gold.Chemscore.DEInternal.Weighted>
1.4888

> <Gold.Chemscore.Rot.Weighted>
5.9128

> <Gold.Chemscore.Internal.Correction.Weighted>
   9.000000E+99

> <Gold.Protein.RotatedTorsions>
[ 6907 6896 6895 6894 ] final  137.77 input  -60.11 | X-H torsion
[ 7974 7965 7964 7962 ] final   65.35 input  175.53 | X-H torsion
[ 8008 7997 7996 7995 ] final  130.87 input   59.86 | X-H torsion
[ 10167 10162 10161 10158 ] final  -24.32 input  -65.29 | X-H torsion
[ 10718 10713 10712 10709 ] final  101.26 input   66.30 | X-H torsion
[ 10763 10752 10751 10750 ] final  -56.03 input  -60.55 | X-H torsion
[ 11005 11000 10999 10996 ] final -164.31 input  -57.11 | X-H torsion

> <Gold.Protein.ActiveResidues>
 VAL166  LYS551  ARG553  GLY616  TRP617  ASP618  TYR619  PRO620  LYS621  CYS622 
 ASP623  PHE694  ASN695  SER759  ASP760  ASP761  ALA762  ILE779  LEU786  VAL792 
 PHE793  MET794  SER795  GLU796  ALA797  LYS798  CYS799  TRP800  GLU811  SER814 

> <Gold.Protein.RotatedAtoms>
  152.2743  133.5411  159.5458 H   0  0  0  0  0  0  0  0  0  0  0  0  # atno 6907 bound_to 6896
  150.7171  134.0654  159.3854 H   0  0  0  0  0  0  0  0  0  0  0  0  # atno 6908 bound_to 6896
  151.8567  135.0539  160.0515 H   0  0  0  0  0  0  0  0  0  0  0  0  # atno 6909 bound_to 6896
  145.8395  139.3187  143.0939 H   0  0  0  0  0  0  0  0  0  0  0  0  # atno 7974 bound_to 7965
  156.2961  140.2585  156.2833 H   0  0  0  0  0  0  0  0  0  0  0  0  # atno 8008 bound_to 7997
  154.9581  140.0393  157.2195 H   0  0  0  0  0  0  0  0  0  0  0  0  # atno 8009 bound_to 7997
  154.7973  140.2822  155.5952 H   0  0  0  0  0  0  0  0  0  0  0  0  # atno 8010 bound_to 7997
  140.7288  143.4364  151.0724 H   0  0  0  0  0  0  0  0  0  0  0  0  # atno 10167 bound_to 10162
  157.6834  131.0721  150.5226 H   0  0  0  0  0  0  0  0  0  0  0  0  # atno 10718 bound_to 10713
  154.2001  135.6412  153.5084 H   0  0  0  0  0  0  0  0  0  0  0  0  # atno 10763 bound_to 10752
  153.0014  135.5449  154.6324 H   0  0  0  0  0  0  0  0  0  0  0  0  # atno 10764 bound_to 10752
  154.5735  135.2919  155.0777 H   0  0  0  0  0  0  0  0  0  0  0  0  # atno 10765 bound_to 10752
  140.5884  134.5070  157.5189 H   0  0  0  0  0  0  0  0  0  0  0  0  # atno 11005 bound_to 11000
  145.9481  140.8930  143.0273 LP  0  0  0  0  0  0  0  0  0  0  0  0  # atno 17320 bound_to 7965
  144.6734  140.1641  143.7420 LP  0  0  0  0  0  0  0  0  0  0  0  0  # atno 17321 bound_to 7965
  139.8026  143.8062  152.3164 LP  0  0  0  0  0  0  0  0  0  0  0  0  # atno 17342 bound_to 10162
  139.8084  144.7346  150.9730 LP  0  0  0  0  0  0  0  0  0  0  0  0  # atno 17343 bound_to 10162
  156.5538  130.4238  149.6095 LP  0  0  0  0  0  0  0  0  0  0  0  0  # atno 17370 bound_to 10713
  156.2879  130.7108  151.1949 LP  0  0  0  0  0  0  0  0  0  0  0  0  # atno 17371 bound_to 10713
  139.9285  134.8009  156.0998 LP  0  0  0  0  0  0  0  0  0  0  0  0  # atno 17394 bound_to 11000
  141.0951  133.6699  156.2627 LP  0  0  0  0  0  0  0  0  0  0  0  0  # atno 17395 bound_to 11000

$$$$
