AV-unprocessed.smi:1041|AV-procd|sdf|4528|dock9
  -GOLD-   22720 2553D 1   1.00000     0.00000
 Structure written by MMmdl.
 53 54  0  0  0  0  0  0  0  0  2 V2000
  143.6626  132.6173  150.7983 C   0  0  0  0  0  0  0  0  0  0  0  0
  144.9917  132.8375  150.3578 O   0  0  0  0  0  0  0  0  0  0  0  0
  145.7196  133.6852  151.2307 C   0  0  0  0  0  0  0  0  0  0  0  0
  146.7940  132.8563  151.9523 C   0  0  0  0  0  0  0  0  0  0  0  0
  147.6590  133.6810  152.8347 N   0  3  2  0  0  0  0  0  0  0  0  0
  148.8209  132.9140  153.3529 C   0  0  0  0  0  0  0  0  0  0  0  0
  149.7766  133.8150  154.1529 C   0  0  0  0  0  0  0  0  0  0  0  0
  149.0450  134.5253  155.3095 C   0  0  1  0  0  0  0  0  0  0  0  0
  149.9661  135.4687  156.1057 C   0  0  0  0  0  0  0  0  0  0  0  0
  150.0318  136.7840  155.4850 N   0  0  0  0  0  0  0  0  0  0  0  0
  151.1587  137.3953  155.0944 C   0  0  0  0  0  0  0  0  0  0  0  0
  152.2740  136.8826  155.1790 O   0  0  0  0  0  0  0  0  0  0  0  0
  150.9977  138.8058  154.5263 C   0  0  0  0  0  0  0  0  0  0  0  0
  150.9453  139.9234  155.5671 C   0  0  0  0  0  0  0  0  0  0  0  0
  150.0732  140.9708  155.4879 C   0  0  0  0  0  0  0  0  0  0  0  0
  149.0663  141.1203  154.3607 C   0  0  0  0  0  0  0  0  0  0  0  0
  150.0529  141.9844  156.4561 N   0  0  0  0  0  0  0  0  0  0  0  0
  150.8818  141.9165  157.4452 C   0  0  0  0  0  0  0  0  0  0  0  0
  150.9584  142.9433  158.5553 C   0  0  0  0  0  0  0  0  0  0  0  0
  151.7993  140.8765  157.5834 N   0  0  0  0  0  0  0  0  0  0  0  0
  151.8962  139.8630  156.6944 C   0  0  0  0  0  0  0  0  0  0  0  0
  152.7415  138.9823  156.8460 O   0  0  0  0  0  0  0  0  0  0  0  0
  147.8313  135.2804  154.7424 C   0  0  0  0  0  0  0  0  0  0  0  0
  146.9138  134.3467  153.9360 C   0  0  0  0  0  0  0  0  0  0  0  0
  152.4254  140.8784  158.3753 H   0  0  0  0  0  0  0  0  0  0  0  0
  143.1479  131.9597  150.0979 H   0  0  0  0  0  0  0  0  0  0  0  0
  143.1051  133.5534  150.8527 H   0  0  0  0  0  0  0  0  0  0  0  0
  143.6450  132.1420  151.7799 H   0  0  0  0  0  0  0  0  0  0  0  0
  146.1551  134.5210  150.6831 H   0  0  0  0  0  0  0  0  0  0  0  0
  145.0396  134.1114  151.9699 H   0  0  0  0  0  0  0  0  0  0  0  0
  146.3315  132.0591  152.5360 H   0  0  0  0  0  0  0  0  0  0  0  0
  147.4042  132.3645  151.1932 H   0  0  0  0  0  0  0  0  0  0  0  0
  148.4666  132.0928  153.9781 H   0  0  0  0  0  0  0  0  0  0  0  0
  149.3675  132.4668  152.5216 H   0  0  0  0  0  0  0  0  0  0  0  0
  150.5997  133.2104  154.5353 H   0  0  0  0  0  0  0  0  0  0  0  0
  150.2233  134.5552  153.4875 H   0  0  0  0  0  0  0  0  0  0  0  0
  148.6738  133.7621  155.9958 H   0  0  0  0  0  0  0  0  0  0  0  0
  149.6082  135.5602  157.1328 H   0  0  0  0  0  0  0  0  0  0  0  0
  150.9753  135.0575  156.1550 H   0  0  0  0  0  0  0  0  0  0  0  0
  149.1595  137.2791  155.3650 H   0  0  0  0  0  0  0  0  0  0  0  0
  151.8225  138.9980  153.8395 H   0  0  0  0  0  0  0  0  0  0  0  0
  150.1070  138.8278  153.8973 H   0  0  0  0  0  0  0  0  0  0  0  0
  148.3476  140.3010  154.3800 H   0  0  0  0  0  0  0  0  0  0  0  0
  149.5669  141.1213  153.3922 H   0  0  0  0  0  0  0  0  0  0  0  0
  148.5094  142.0539  154.4481 H   0  0  0  0  0  0  0  0  0  0  0  0
  151.2232  143.9186  158.1464 H   0  0  0  0  0  0  0  0  0  0  0  0
  151.7036  142.6726  159.3045 H   0  0  0  0  0  0  0  0  0  0  0  0
  149.9919  143.0307  159.0523 H   0  0  0  0  0  0  0  0  0  0  0  0
  147.2633  135.7351  155.5549 H   0  0  0  0  0  0  0  0  0  0  0  0
  148.1682  136.0997  154.1054 H   0  0  0  0  0  0  0  0  0  0  0  0
  146.0853  134.9309  153.5378 H   0  0  0  0  0  0  0  0  0  0  0  0
  146.4795  133.5910  154.5926 H   0  0  0  0  0  0  0  0  0  0  0  0
  148.0426  134.4120  152.2520 H   0  0  0  0  0  0  0  0  0  0  0  0
  1  2  1  0  0  0  0
  1 26  1  0  0  0  0
  1 27  1  0  0  0  0
  1 28  1  0  0  0  0
  2  3  1  0  0  0  0
  3  4  1  0  0  0  0
  3 29  1  0  0  0  0
  3 30  1  0  0  0  0
  4  5  1  0  0  0  0
  4 31  1  0  0  0  0
  4 32  1  0  0  0  0
  5 24  1  0  0  0  0
  5  6  1  0  0  0  0
  5 53  1  0  0  0  0
  6  7  1  0  0  0  0
  6 33  1  0  0  0  0
  6 34  1  0  0  0  0
  7  8  1  0  0  0  0
  7 35  1  0  0  0  0
  7 36  1  0  0  0  0
  8  9  1  0  0  0  0
  8 23  1  0  0  0  0
  8 37  1  0  0  0  0
  9 10  1  0  0  0  0
  9 38  1  0  0  0  0
  9 39  1  0  0  0  0
 10 11  1  0  0  0  0
 10 40  1  0  0  0  0
 11 12  2  0  0  0  0
 11 13  1  0  0  0  0
 13 14  1  0  0  0  0
 13 41  1  0  0  0  0
 13 42  1  0  0  0  0
 14 21  1  0  0  0  0
 14 15  2  0  0  0  0
 15 16  1  0  0  0  0
 15 17  1  0  0  0  0
 16 43  1  0  0  0  0
 16 44  1  0  0  0  0
 16 45  1  0  0  0  0
 17 18  2  0  0  0  0
 18 19  1  0  0  0  0
 18 20  1  0  0  0  0
 19 46  1  0  0  0  0
 19 47  1  0  0  0  0
 19 48  1  0  0  0  0
 20 25  1  0  0  0  0
 20 21  1  0  0  0  0
 21 22  2  0  0  0  0
 23 24  1  0  0  0  0
 23 49  1  0  0  0  0
 23 50  1  0  0  0  0
 24 51  1  0  0  0  0
 24 52  1  0  0  0  0
M  CHG  1   5   1
M  END
> <s_m_source_file>
AV-unprocessed.smi

> <i_m_source_file_index>
1041

> <i_lp_mmshare_version>
43012

> <i_f3d_flags>
0

> <s_epik_input>
W0NIM11PW0NIMl1bQ0gyXU4xW0NIMl1bQ0gyXVtDSF0oW0NIMl1bQ0gyXTEpW0NIMl1bTkhdQyg9TylbQ0gyXWMyYyhbQ0gzXSluYyhbQ0gzXSlbbkhdYzI9Tw==

> <s_epik_cmdline>
J2VwaWtfcHl0aG9uJywgJy1waCcsICc3LjAnLCAnLXRuJywgJzgnLCAnLW1hJywgJzIwMCcsICctbWV0YWxfYmluZGluZycsICctaW1hZScsICc8aW5maWxlLm1hZT4nLCAnLW9tYWUnLCAnPG91dGZpbGUubWFlPic=

> <r_lp_tautomer_probability>
0.839158

> <r_epik_Ionization_Penalty>
0.00964357

> <r_epik_Ionization_Penalty_Charging>
0.00961423

> <r_epik_Ionization_Penalty_Neutral>
2.93415e-05

> <r_epik_State_Penalty>
0.0972512

> <r_epik_Charging_Adjusted_Penalty>
0.106865

> <i_epik_Tot_Q>
1

> <i_epik_Tot_abs_Q>
1

> <r_epik_Metal_State_Penalty>
0.270886

> <b_epik_Metal_Only>
0

> <s_lp_Force_Field>
OPLS_2005

> <r_lp_Energy>
21.4676

> <b_lp_Chiralities_Consistent>
1

> <s_lp_Variant>
AV-unprocessed.smi:1041-1

> <Gold.Version>
5.8.1

> <Gold.Id.Protein>
6NUR|6NUR_protein|mol2

> <Gold.PLP.Fitness>
50.0433

> <Gold.PLP.PLP>
-41.2309

> <Gold.PLP.part.hbond>
-2.6036

> <Gold.PLP.part.metal>
0.0000

> <Gold.PLP.part.buried>
-6.9284

> <Gold.PLP.part.nonpolar>
-33.1930

> <Gold.PLP.part.repulsive>
0.7558

> <Gold.PLP.ligand.clash>
0.0000

> <Gold.PLP.ligand.torsion>
1.2349

> <Gold.PLP.Chemscore.Hbond>
3.7120

> <Gold.PLP.Chemscore.CHOScore>
0.0000

> <Gold.PLP.Chemscore.Metal>
0.0000

> <Gold.Chemscore.Hbonds>
donor molecule, donor type, donor heavy atom, donor atom, acceptor molecule, acceptor atom, score
      L1  H     5    53       P1  7948  1.90
      P1  H  7997  8009       L1    22  0.83
      P1  H 10752 10763       L1    12  0.86

> <Gold.PLP.Chemscore.Internal.Correction>
0.1461

> <Gold.Rescore>
     Score         DG    S(hbond)    S(metal)    S(lipo)     H(rot)  DE(clash)    DE(int)     intcor
     12.56     -16.35       2.54        0.00      73.47       2.43       0.04       3.75       ----

> <Gold.Chemscore.Fitness>
12.5648

> <Gold.Chemscore.DG>
-16.3500

> <Gold.Chemscore.ZeroCoef>
-5.4800

> <Gold.Chemscore.Hbond>
2.5429

> <Gold.Chemscore.Metal>
0.0000

> <Gold.Chemscore.Lipo>
73.4656

> <Gold.Chemscore.Internal_Hbond>
0.0000

> <Gold.Chemscore.DEClash>
0.0368

> <Gold.Chemscore.DEInternal>
3.7484

> <Gold.Chemscore.Rot>
2.4291

> <Gold.Chemscore.Internal.Correction>
   9.000000E+99

> <Gold.Chemscore.Hbonds>
donor molecule, donor type, donor heavy atom, donor atom, acceptor molecule, acceptor atom, score
      L1  H     5    53       P1  7948  0.20
      P1  H  7997  8009       L1    22  0.35
      P1  H 10752 10763       L1    12  0.81

> <Gold.Chemscore.Hbond.Weighted>
-8.4932

> <Gold.Chemscore.Metal.Weighted>
-0.0000

> <Gold.Chemscore.Lipo.Weighted>
-8.5955

> <Gold.Chemscore.Internal_Hbond.Weighted>
0.0000

> <Gold.Chemscore.DEClash.Weighted>
0.0368

> <Gold.Chemscore.DEInternal.Weighted>
3.7484

> <Gold.Chemscore.Rot.Weighted>
6.2186

> <Gold.Chemscore.Internal.Correction.Weighted>
   9.000000E+99

> <Gold.Protein.RotatedTorsions>
[ 6907 6896 6895 6894 ] final  136.43 input  -60.11 | X-H torsion
[ 7974 7965 7964 7962 ] final  -81.99 input  175.53 | X-H torsion
[ 8008 7997 7996 7995 ] final  159.14 input   59.86 | X-H torsion
[ 10167 10162 10161 10158 ] final   99.93 input  -65.29 | X-H torsion
[ 10718 10713 10712 10709 ] final   79.47 input   66.30 | X-H torsion
[ 10763 10752 10751 10750 ] final   63.10 input  -60.55 | X-H torsion
[ 11005 11000 10999 10996 ] final  -24.58 input  -57.11 | X-H torsion

> <Gold.Protein.ActiveResidues>
 VAL166  LYS551  ARG553  GLY616  TRP617  ASP618  TYR619  PRO620  LYS621  CYS622 
 ASP623  PHE694  ASN695  SER759  ASP760  ASP761  ALA762  ILE779  LEU786  VAL792 
 PHE793  MET794  SER795  GLU796  ALA797  LYS798  CYS799  TRP800  GLU811  SER814 

> <Gold.Protein.RotatedAtoms>
  152.2894  133.5546  159.5547 H   0  0  0  0  0  0  0  0  0  0  0  0  # atno 6907 bound_to 6896
  150.7229  134.0450  159.3788 H   0  0  0  0  0  0  0  0  0  0  0  0  # atno 6908 bound_to 6896
  151.8357  135.0607  160.0493 H   0  0  0  0  0  0  0  0  0  0  0  0  # atno 6909 bound_to 6896
  145.5393  140.9511  143.1560 H   0  0  0  0  0  0  0  0  0  0  0  0  # atno 7974 bound_to 7965
  156.2258  140.1839  156.7366 H   0  0  0  0  0  0  0  0  0  0  0  0  # atno 8008 bound_to 7997
  154.5939  140.0646  156.9304 H   0  0  0  0  0  0  0  0  0  0  0  0  # atno 8009 bound_to 7997
  155.2289  140.3313  155.4308 H   0  0  0  0  0  0  0  0  0  0  0  0  # atno 8010 bound_to 7997
  139.7573  144.6965  151.0343 H   0  0  0  0  0  0  0  0  0  0  0  0  # atno 10167 bound_to 10162
  157.6777  130.9915  150.1937 H   0  0  0  0  0  0  0  0  0  0  0  0  # atno 10718 bound_to 10713
  153.0006  135.5441  154.6299 H   0  0  0  0  0  0  0  0  0  0  0  0  # atno 10763 bound_to 10752
  154.5579  135.2831  155.0949 H   0  0  0  0  0  0  0  0  0  0  0  0  # atno 10764 bound_to 10752
  154.2163  135.6458  153.5183 H   0  0  0  0  0  0  0  0  0  0  0  0  # atno 10765 bound_to 10752
  140.8858  133.7622  156.0359 H   0  0  0  0  0  0  0  0  0  0  0  0  # atno 11005 bound_to 11000
  144.7585  139.7015  143.7244 LP  0  0  0  0  0  0  0  0  0  0  0  0  # atno 17320 bound_to 7965
  146.1992  139.5276  142.9755 LP  0  0  0  0  0  0  0  0  0  0  0  0  # atno 17321 bound_to 7965
  140.7804  143.4738  151.0110 LP  0  0  0  0  0  0  0  0  0  0  0  0  # atno 17342 bound_to 10162
  139.8425  143.7545  152.3180 LP  0  0  0  0  0  0  0  0  0  0  0  0  # atno 17343 bound_to 10162
  156.2643  130.3714  149.8098 LP  0  0  0  0  0  0  0  0  0  0  0  0  # atno 17370 bound_to 10713
  156.5834  130.8475  151.3389 LP  0  0  0  0  0  0  0  0  0  0  0  0  # atno 17371 bound_to 10713
  140.8406  134.3071  157.5315 LP  0  0  0  0  0  0  0  0  0  0  0  0  # atno 17394 bound_to 11000
  139.8724  134.9414  156.3796 LP  0  0  0  0  0  0  0  0  0  0  0  0  # atno 17395 bound_to 11000

$$$$
