AV-unprocessed.smi:72|AV-procd|sdf|744|dock6
  -GOLD-   2262017 73D 1   1.00000     0.00000
 Structure written by MMmdl.
 29 30  0  0  0  0  0  0  0  0  1 V2000
  150.3587  134.2212  155.9812 N   0  0  0  0  0  0  0  0  0  0  0  0
  150.2777  135.5405  155.5876 C   0  0  0  0  0  0  0  0  0  0  0  0
  149.0183  136.1458  155.6951 N   0  0  0  0  0  0  0  0  0  0  0  0
  148.9356  137.3843  155.3242 C   0  0  0  0  0  0  0  0  0  0  0  0
  150.0965  138.1006  154.8224 N   0  0  0  0  0  0  0  0  0  0  0  0
  150.0306  139.5523  154.3805 C   0  0  1  0  0  0  0  0  0  0  0  0
  148.6985  139.9809  154.3441 O   0  0  0  0  0  0  0  0  0  0  0  0
  148.4462  140.8982  155.4055 C   0  0  2  0  0  0  0  0  0  0  0  0
  147.2610  141.8045  155.0397 C   0  0  0  0  0  0  0  0  0  0  0  0
  147.6785  142.8093  154.1406 O   0  0  0  0  0  0  0  0  0  0  0  0
  149.7801  141.6378  155.4978 C   0  0  1  0  0  0  0  0  0  0  0  0
  149.9362  142.3552  156.7079 O   0  0  0  0  0  0  0  0  0  0  0  0
  150.7971  140.5145  155.3193 C   0  0  1  0  0  0  0  0  0  0  0  0
  151.1677  139.9283  156.5586 O   0  0  0  0  0  0  0  0  0  0  0  0
  151.3452  137.4245  154.7469 C   0  0  0  0  0  0  0  0  0  0  0  0
  152.3444  138.0180  154.3404 O   0  0  0  0  0  0  0  0  0  0  0  0
  151.3787  136.0868  155.1577 N   0  0  0  0  0  0  0  0  0  0  0  0
  150.4024  139.5646  153.3546 H   0  0  0  0  0  0  0  0  0  0  0  0
  148.2607  140.3584  156.3361 H   0  0  0  0  0  0  0  0  0  0  0  0
  149.8687  142.3332  154.6615 H   0  0  0  0  0  0  0  0  0  0  0  0
  151.7005  140.8682  154.8216 H   0  0  0  0  0  0  0  0  0  0  0  0
  151.2132  133.6845  155.9481 H   0  0  0  0  0  0  0  0  0  0  0  0
  149.5716  133.6956  156.3326 H   0  0  0  0  0  0  0  0  0  0  0  0
  148.0066  137.9525  155.3671 H   0  0  0  0  0  0  0  0  0  0  0  0
  146.4841  141.2237  154.5417 H   0  0  0  0  0  0  0  0  0  0  0  0
  146.8130  142.2510  155.9279 H   0  0  0  0  0  0  0  0  0  0  0  0
  148.0431  143.5253  154.6381 H   0  0  0  0  0  0  0  0  0  0  0  0
  149.6533  143.2456  156.5661 H   0  0  0  0  0  0  0  0  0  0  0  0
  151.1730  140.6037  157.2197 H   0  0  0  0  0  0  0  0  0  0  0  0
  1  2  1  0  0  0  0
  1 22  1  0  0  0  0
  1 23  1  0  0  0  0
  2 17  2  0  0  0  0
  2  3  1  0  0  0  0
  3  4  2  0  0  0  0
  4  5  1  0  0  0  0
  4 24  1  0  0  0  0
  5  6  1  0  0  0  0
  5 15  1  0  0  0  0
  6 18  1  0  0  0  0
  6 13  1  0  0  0  0
  6  7  1  0  0  0  0
  7  8  1  0  0  0  0
  8 19  1  0  0  0  0
  8  9  1  0  0  0  0
  8 11  1  0  0  0  0
  9 10  1  0  0  0  0
  9 25  1  0  0  0  0
  9 26  1  0  0  0  0
 10 27  1  0  0  0  0
 11 20  1  0  0  0  0
 11 12  1  0  0  0  0
 11 13  1  0  0  0  0
 12 28  1  0  0  0  0
 13 21  1  0  0  0  0
 13 14  1  0  0  0  0
 14 29  1  0  0  0  0
 15 16  2  0  0  0  0
 15 17  1  0  0  0  0
M  END
> <s_m_source_file>
AV-unprocessed.smi

> <i_m_source_file_index>
72

> <i_lp_mmshare_version>
43012

> <i_f3d_flags>
0

> <s_epik_input>
W05IMl1jMW5bY0hdbihjKD1PKW4xKVtDQEBIXTJPW0NASF0oW0NIMl1bT0hdKVtDQEBIXShbT0hdKVtDQEhdMltPSF0=

> <s_epik_cmdline>
J2VwaWtfcHl0aG9uJywgJy1waCcsICc3LjAnLCAnLXRuJywgJzgnLCAnLW1hJywgJzIwMCcsICctbWV0YWxfYmluZGluZycsICctaW1hZScsICc8aW5maWxlLm1hZT4nLCAnLW9tYWUnLCAnPG91dGZpbGUubWFlPic=

> <r_lp_tautomer_probability>
4.77166e-05

> <r_epik_Ionization_Penalty>
1.3546

> <r_epik_Ionization_Penalty_Charging>
1.46833e-10

> <r_epik_Ionization_Penalty_Neutral>
1.3546

> <r_epik_State_Penalty>
3.51908

> <r_epik_Charging_Adjusted_Penalty>
3.51908

> <i_epik_Tot_Q>
0

> <i_epik_Tot_abs_Q>
0

> <r_epik_Metal_State_Penalty>
3.44088

> <b_epik_Metal_Only>
1

> <s_epik_Chemistry_Notes>
This compound contains an acetal/aminal-like group ( X-CH(R)-Y where X, Y are N, S, or O) that may be acid/base labile, releasing an aldehyde.

> <s_lp_Force_Field>
OPLS_2005

> <r_lp_Energy>
34.5765

> <b_lp_Chiralities_Consistent>
1

> <s_lp_Variant>
AV-unprocessed.smi:72-82

> <Gold.Version>
5.8.1

> <Gold.Id.Protein>
6NUR|6NUR_protein|mol2

> <Gold.PLP.Fitness>
33.1457

> <Gold.PLP.PLP>
-24.8228

> <Gold.PLP.part.hbond>
-5.5800

> <Gold.PLP.part.metal>
0.0000

> <Gold.PLP.part.buried>
-1.7466

> <Gold.PLP.part.nonpolar>
-18.2526

> <Gold.PLP.part.repulsive>
0.5181

> <Gold.PLP.ligand.clash>
0.0000

> <Gold.PLP.ligand.torsion>
0.3566

> <Gold.PLP.Chemscore.Hbond>
2.9913

> <Gold.PLP.Chemscore.CHOScore>
0.0000

> <Gold.PLP.Chemscore.Metal>
0.0000

> <Gold.Chemscore.Hbonds>
donor molecule, donor type, donor heavy atom, donor atom, acceptor molecule, acceptor atom, score
      L1  H    10    27       P1  8028  1.00
      L1  H    12    28       P1  8028  1.00
      P1  H 10752 10765       L1    17  1.00

> <Gold.PLP.Chemscore.Internal.Correction>
0.0623

> <Gold.Rescore>
     Score         DG    S(hbond)    S(metal)    S(lipo)     H(rot)  DE(clash)    DE(int)     intcor
      5.85      -6.57       2.60        0.00      23.94       4.06       0.32       0.41       ----

> <Gold.Chemscore.Fitness>
5.8500

> <Gold.Chemscore.DG>
-6.5747

> <Gold.Chemscore.ZeroCoef>
-5.4800

> <Gold.Chemscore.Hbond>
2.6010

> <Gold.Chemscore.Metal>
0.0000

> <Gold.Chemscore.Lipo>
23.9390

> <Gold.Chemscore.Internal_Hbond>
0.0000

> <Gold.Chemscore.DEClash>
0.3188

> <Gold.Chemscore.DEInternal>
0.4059

> <Gold.Chemscore.Rot>
4.0600

> <Gold.Chemscore.Internal.Correction>
   9.000000E+99

> <Gold.Chemscore.Hbonds>
donor molecule, donor type, donor heavy atom, donor atom, acceptor molecule, acceptor atom, score
      L1  H    10    27       P1  8028  0.82
      L1  H    12    28       P1  8028  0.99
      P1  H 10752 10765       L1    17  0.35

> <Gold.Chemscore.Hbond.Weighted>
-8.6875

> <Gold.Chemscore.Metal.Weighted>
-0.0000

> <Gold.Chemscore.Lipo.Weighted>
-2.8009

> <Gold.Chemscore.Internal_Hbond.Weighted>
0.0000

> <Gold.Chemscore.DEClash.Weighted>
0.3188

> <Gold.Chemscore.DEInternal.Weighted>
0.4059

> <Gold.Chemscore.Rot.Weighted>
10.3936

> <Gold.Chemscore.Internal.Correction.Weighted>
   9.000000E+99

> <Gold.Protein.RotatedTorsions>
[ 6907 6896 6895 6894 ] final    5.85 input  -60.11 | X-H torsion
[ 7974 7965 7964 7962 ] final   55.98 input  175.53 | X-H torsion
[ 8008 7997 7996 7995 ] final   82.89 input   59.86 | X-H torsion
[ 10167 10162 10161 10158 ] final   36.46 input  -65.29 | X-H torsion
[ 10718 10713 10712 10709 ] final   -2.12 input   66.30 | X-H torsion
[ 10763 10752 10751 10750 ] final -178.89 input  -60.55 | X-H torsion
[ 11005 11000 10999 10996 ] final  119.07 input  -57.11 | X-H torsion

> <Gold.Protein.ActiveResidues>
 VAL166  LYS551  ARG553  GLY616  TRP617  ASP618  TYR619  PRO620  LYS621  CYS622 
 ASP623  PHE694  ASN695  SER759  ASP760  ASP761  ALA762  ILE779  LEU786  VAL792 
 PHE793  MET794  SER795  GLU796  ALA797  LYS798  CYS799  TRP800  GLU811  SER814 

> <Gold.Protein.RotatedAtoms>
  151.6642  135.0985  160.0185 H   0  0  0  0  0  0  0  0  0  0  0  0  # atno 6907 bound_to 6896
  152.3929  133.6700  159.6261 H   0  0  0  0  0  0  0  0  0  0  0  0  # atno 6908 bound_to 6896
  150.7841  133.8840  159.3335 H   0  0  0  0  0  0  0  0  0  0  0  0  # atno 6909 bound_to 6896
  145.9446  139.3918  143.0343 H   0  0  0  0  0  0  0  0  0  0  0  0  # atno 7974 bound_to 7965
  155.9167  140.3424  155.6141 H   0  0  0  0  0  0  0  0  0  0  0  0  # atno 8008 bound_to 7997
  155.7323  140.0797  157.2302 H   0  0  0  0  0  0  0  0  0  0  0  0  # atno 8009 bound_to 7997
  154.4063  140.1586  156.2509 H   0  0  0  0  0  0  0  0  0  0  0  0  # atno 8010 bound_to 7997
  140.4126  144.1572  150.6140 H   0  0  0  0  0  0  0  0  0  0  0  0  # atno 10167 bound_to 10162
  156.7955  130.5375  149.5729 H   0  0  0  0  0  0  0  0  0  0  0  0  # atno 10718 bound_to 10713
  154.5420  135.2807  155.1087 H   0  0  0  0  0  0  0  0  0  0  0  0  # atno 10763 bound_to 10752
  154.2566  135.6329  153.5263 H   0  0  0  0  0  0  0  0  0  0  0  0  # atno 10764 bound_to 10752
  152.9981  135.5595  154.5962 H   0  0  0  0  0  0  0  0  0  0  0  0  # atno 10765 bound_to 10752
  139.9133  134.9625  156.7600 H   0  0  0  0  0  0  0  0  0  0  0  0  # atno 11005 bound_to 11000
  145.8253  140.9658  143.0877 LP  0  0  0  0  0  0  0  0  0  0  0  0  # atno 17320 bound_to 7965
  144.6785  140.0094  143.7484 LP  0  0  0  0  0  0  0  0  0  0  0  0  # atno 17321 bound_to 7965
  140.4622  143.2444  151.9205 LP  0  0  0  0  0  0  0  0  0  0  0  0  # atno 17342 bound_to 10162
  139.4782  144.5456  151.8463 LP  0  0  0  0  0  0  0  0  0  0  0  0  # atno 17343 bound_to 10162
  156.1133  130.6056  151.0081 LP  0  0  0  0  0  0  0  0  0  0  0  0  # atno 17370 bound_to 10713
  157.6580  131.0886  150.7904 LP  0  0  0  0  0  0  0  0  0  0  0  0  # atno 17371 bound_to 10713
  140.6705  133.9564  155.7854 LP  0  0  0  0  0  0  0  0  0  0  0  0  # atno 17394 bound_to 11000
  141.0581  134.0387  157.3696 LP  0  0  0  0  0  0  0  0  0  0  0  0  # atno 17395 bound_to 11000

$$$$
