AV-unprocessed.smi:2618|AV-procd|sdf|10221|dock8
  -GOLD-   2272014223D 1   1.00000     0.00000
 Structure written by MMmdl.
 38 39  0  0  0  0  0  0  0  0  2 V2000
  152.7555  144.2561  158.4527 C   0  0  0  0  0  0  0  0  0  0  0  0
  152.1488  144.7866  159.6180 O   0  0  0  0  0  0  0  0  0  0  0  0
  151.4553  143.8004  160.3647 C   0  0  0  0  0  0  0  0  0  0  0  0
  152.4551  142.7178  160.8078 C   0  0  0  0  0  0  0  0  0  0  0  0
  152.5491  141.5507  159.8562 C   0  0  0  0  0  0  0  0  0  0  0  0
  151.9688  141.4967  158.7135 N   0  0  0  0  0  0  0  0  0  0  0  0
  152.2266  140.3472  158.0867 N   0  0  0  0  0  0  0  0  0  0  0  0
  151.6308  140.0339  156.8475 C   0  0  0  0  0  0  0  0  0  0  0  0
  152.0640  138.9703  156.1461 N   0  0  0  0  0  0  0  0  0  0  0  0
  151.4728  138.7058  154.9626 C   0  0  0  0  0  0  0  0  0  0  0  0
  151.9778  137.4943  154.2093 C   0  0  0  0  0  0  0  0  0  0  0  0
  150.4395  139.5158  154.4517 C   0  0  0  0  0  0  0  0  0  0  0  0
  150.0635  140.6117  155.2532 C   0  0  0  0  0  0  0  0  0  0  0  0
  148.9734  141.5701  154.8242 C   0  0  0  0  0  0  0  0  0  0  0  0
  150.6567  140.8639  156.4393 N   0  0  0  0  0  0  0  0  0  0  0  0
  153.0926  139.4760  158.9119 C   0  0  2  0  0  0  0  0  0  0  0  0
  154.2505  139.2573  158.3298 O   0  5  0  0  0  0  0  0  0  0  0  0
  152.4104  138.1244  159.2654 C   0  0  0  0  0  0  0  0  0  0  0  0
  152.9786  137.5943  160.3503 F   0  0  0  0  0  0  0  0  0  0  0  0
  151.1079  138.2719  159.5134 F   0  0  0  0  0  0  0  0  0  0  0  0
  152.5479  137.2563  158.2606 F   0  0  0  0  0  0  0  0  0  0  0  0
  153.3406  140.3304  160.1633 C   0  0  0  0  0  0  0  0  0  0  0  0
  153.2738  145.0502  157.9152 H   0  0  0  0  0  0  0  0  0  0  0  0
  152.0110  143.8257  157.7817 H   0  0  0  0  0  0  0  0  0  0  0  0
  153.4866  143.4867  158.7043 H   0  0  0  0  0  0  0  0  0  0  0  0
  150.9843  144.2623  161.2346 H   0  0  0  0  0  0  0  0  0  0  0  0
  150.6659  143.3627  159.7509 H   0  0  0  0  0  0  0  0  0  0  0  0
  153.4436  143.1629  160.9236 H   0  0  0  0  0  0  0  0  0  0  0  0
  152.1680  142.3479  161.7926 H   0  0  0  0  0  0  0  0  0  0  0  0
  151.3427  137.2708  153.3519 H   0  0  0  0  0  0  0  0  0  0  0  0
  151.9905  136.6196  154.8605 H   0  0  0  0  0  0  0  0  0  0  0  0
  152.9916  137.6703  153.8495 H   0  0  0  0  0  0  0  0  0  0  0  0
  149.9663  139.3098  153.5029 H   0  0  0  0  0  0  0  0  0  0  0  0
  148.5059  141.2443  153.8946 H   0  0  0  0  0  0  0  0  0  0  0  0
  149.3870  142.5668  154.6681 H   0  0  0  0  0  0  0  0  0  0  0  0
  148.2006  141.6343  155.5905 H   0  0  0  0  0  0  0  0  0  0  0  0
  154.3896  140.5868  160.3256 H   0  0  0  0  0  0  0  0  0  0  0  0
  152.9684  139.8562  161.0718 H   0  0  0  0  0  0  0  0  0  0  0  0
  1  2  1  0  0  0  0
  1 23  1  0  0  0  0
  1 24  1  0  0  0  0
  1 25  1  0  0  0  0
  2  3  1  0  0  0  0
  3  4  1  0  0  0  0
  3 26  1  0  0  0  0
  3 27  1  0  0  0  0
  4  5  1  0  0  0  0
  4 28  1  0  0  0  0
  4 29  1  0  0  0  0
  5 22  1  0  0  0  0
  5  6  2  0  0  0  0
  6  7  1  0  0  0  0
  7  8  1  0  0  0  0
  7 16  1  0  0  0  0
  8 15  1  0  0  0  0
  8  9  2  0  0  0  0
  9 10  1  0  0  0  0
 10 11  1  0  0  0  0
 10 12  2  0  0  0  0
 11 30  1  0  0  0  0
 11 31  1  0  0  0  0
 11 32  1  0  0  0  0
 12 13  1  0  0  0  0
 12 33  1  0  0  0  0
 13 14  1  0  0  0  0
 13 15  2  0  0  0  0
 14 34  1  0  0  0  0
 14 35  1  0  0  0  0
 14 36  1  0  0  0  0
 16 17  1  0  0  0  0
 16 18  1  0  0  0  0
 16 22  1  0  0  0  0
 18 19  1  0  0  0  0
 18 20  1  0  0  0  0
 18 21  1  0  0  0  0
 22 37  1  0  0  0  0
 22 38  1  0  0  0  0
M  CHG  1  17  -1
M  END
> <s_m_source_file>
AV-unprocessed.smi

> <i_m_source_file_index>
2618

> <i_lp_mmshare_version>
43012

> <i_f3d_flags>
0

> <s_epik_input>
W0NIM11PW0NIMl1bQ0gyXUMoW0NIMl0xKT1OTihbQ0BAXTEoW09IXSlDKEYpKEYpRiljMm5jKFtDSDNdKVtjSF1jKG4yKVtDSDNd

> <s_epik_cmdline>
J2VwaWtfcHl0aG9uJywgJy1waCcsICc3LjAnLCAnLXRuJywgJzgnLCAnLW1hJywgJzIwMCcsICctbWV0YWxfYmluZGluZycsICctaW1hZScsICc8aW5maWxlLm1hZT4nLCAnLW9tYWUnLCAnPG91dGZpbGUubWFlPic=

> <r_lp_tautomer_probability>
1

> <r_epik_Ionization_Penalty>
1.35617

> <r_epik_Ionization_Penalty_Charging>
1.35566

> <r_epik_Ionization_Penalty_Neutral>
0.000506926

> <r_epik_State_Penalty>
1.43411

> <r_epik_Charging_Adjusted_Penalty>
2.78977

> <i_epik_Tot_Q>
-1

> <i_epik_Tot_abs_Q>
1

> <r_epik_Metal_State_Penalty>
1.43499

> <b_epik_Metal_Only>
0

> <s_epik_Chemistry_Notes>
This compound has an imine and may undergo hydrolysis.

> <s_lp_Force_Field>
OPLS_2005

> <r_lp_Energy>
21.8368

> <b_lp_Chiralities_Consistent>
1

> <s_lp_Variant>
AV-unprocessed.smi:2618-4

> <Gold.Version>
5.8.1

> <Gold.Id.Protein>
6NUR|6NUR_protein|mol2

> <Gold.PLP.Fitness>
41.5640

> <Gold.PLP.PLP>
-38.6222

> <Gold.PLP.part.hbond>
-0.5641

> <Gold.PLP.part.metal>
0.0000

> <Gold.PLP.part.buried>
0.0842

> <Gold.PLP.part.nonpolar>
-38.8796

> <Gold.PLP.part.repulsive>
0.0764

> <Gold.PLP.ligand.clash>
0.0000

> <Gold.PLP.ligand.torsion>
1.0948

> <Gold.PLP.Chemscore.Hbond>
1.6640

> <Gold.PLP.Chemscore.CHOScore>
0.0000

> <Gold.PLP.Chemscore.Metal>
0.0000

> <Gold.Chemscore.Hbonds>
donor molecule, donor type, donor heavy atom, donor atom, acceptor molecule, acceptor atom, score
      P1  H  7997  8010       L1    17  1.57

> <Gold.PLP.Chemscore.Internal.Correction>
0.1394

> <Gold.Rescore>
     Score         DG    S(hbond)    S(metal)    S(lipo)     H(rot)  DE(clash)    DE(int)     intcor
     11.99     -15.39       0.66        0.00      98.15       1.47       0.76       2.64       ----

> <Gold.Chemscore.Fitness>
11.9914

> <Gold.Chemscore.DG>
-15.3917

> <Gold.Chemscore.ZeroCoef>
-5.4800

> <Gold.Chemscore.Hbond>
0.6593

> <Gold.Chemscore.Metal>
0.0000

> <Gold.Chemscore.Lipo>
98.1492

> <Gold.Chemscore.Internal_Hbond>
0.0000

> <Gold.Chemscore.DEClash>
0.7609

> <Gold.Chemscore.DEInternal>
2.6393

> <Gold.Chemscore.Rot>
1.4742

> <Gold.Chemscore.Internal.Correction>
   9.000000E+99

> <Gold.Chemscore.Hbonds>
donor molecule, donor type, donor heavy atom, donor atom, acceptor molecule, acceptor atom, score
      P1  H  7997  8010       L1    17  0.77

> <Gold.Chemscore.Hbond.Weighted>
-2.2022

> <Gold.Chemscore.Metal.Weighted>
-0.0000

> <Gold.Chemscore.Lipo.Weighted>
-11.4835

> <Gold.Chemscore.Internal_Hbond.Weighted>
0.0000

> <Gold.Chemscore.DEClash.Weighted>
0.7609

> <Gold.Chemscore.DEInternal.Weighted>
2.6393

> <Gold.Chemscore.Rot.Weighted>
3.7740

> <Gold.Chemscore.Internal.Correction.Weighted>
   9.000000E+99

> <Gold.Protein.RotatedTorsions>
[ 6907 6896 6895 6894 ] final   70.83 input  -60.11 | X-H torsion
[ 7974 7965 7964 7962 ] final  146.11 input  175.53 | X-H torsion
[ 8008 7997 7996 7995 ] final  -12.34 input   59.86 | X-H torsion
[ 10167 10162 10161 10158 ] final  119.92 input  -65.29 | X-H torsion
[ 10718 10713 10712 10709 ] final -138.16 input   66.30 | X-H torsion
[ 10763 10752 10751 10750 ] final -130.88 input  -60.55 | X-H torsion
[ 11005 11000 10999 10996 ] final -172.40 input  -57.11 | X-H torsion

> <Gold.Protein.ActiveResidues>
 VAL166  LYS551  ARG553  GLY616  TRP617  ASP618  TYR619  PRO620  LYS621  CYS622 
 ASP623  PHE694  ASN695  SER759  ASP760  ASP761  ALA762  ILE779  LEU786  VAL792 
 PHE793  MET794  SER795  GLU796  ALA797  LYS798  CYS799  TRP800  GLU811  SER814 

> <Gold.Protein.RotatedAtoms>
  152.4774  134.4809  159.9665 H   0  0  0  0  0  0  0  0  0  0  0  0  # atno 6907 bound_to 6896
  151.4823  133.3538  159.2848 H   0  0  0  0  0  0  0  0  0  0  0  0  # atno 6908 bound_to 6896
  150.8821  134.8240  159.7294 H   0  0  0  0  0  0  0  0  0  0  0  0  # atno 6909 bound_to 6896
  144.8698  139.5865  143.5892 H   0  0  0  0  0  0  0  0  0  0  0  0  # atno 7974 bound_to 7965
  154.5386  140.2278  155.8680 H   0  0  0  0  0  0  0  0  0  0  0  0  # atno 8008 bound_to 7997
  156.1836  140.3094  155.9157 H   0  0  0  0  0  0  0  0  0  0  0  0  # atno 8009 bound_to 7997
  155.3304  140.0445  157.3033 H   0  0  0  0  0  0  0  0  0  0  0  0  # atno 8010 bound_to 7997
  139.6015  144.7058  151.3052 H   0  0  0  0  0  0  0  0  0  0  0  0  # atno 10167 bound_to 10162
  156.2962  130.7403  151.1442 H   0  0  0  0  0  0  0  0  0  0  0  0  # atno 10718 bound_to 10713
  154.8753  135.3848  154.4156 H   0  0  0  0  0  0  0  0  0  0  0  0  # atno 10763 bound_to 10752
  153.4865  135.7030  153.5913 H   0  0  0  0  0  0  0  0  0  0  0  0  # atno 10764 bound_to 10752
  153.4306  135.3879  155.2135 H   0  0  0  0  0  0  0  0  0  0  0  0  # atno 10765 bound_to 10752
  140.4974  134.5926  157.4976 H   0  0  0  0  0  0  0  0  0  0  0  0  # atno 11005 bound_to 11000
  146.2922  139.7171  142.9153 LP  0  0  0  0  0  0  0  0  0  0  0  0  # atno 17320 bound_to 7965
  145.4153  141.0401  143.2994 LP  0  0  0  0  0  0  0  0  0  0  0  0  # atno 17321 bound_to 7965
  140.7253  143.7021  150.7836 LP  0  0  0  0  0  0  0  0  0  0  0  0  # atno 17342 bound_to 10162
  140.0599  143.5165  152.2633 LP  0  0  0  0  0  0  0  0  0  0  0  0  # atno 17343 bound_to 10162
  157.7356  131.0571  150.5462 LP  0  0  0  0  0  0  0  0  0  0  0  0  # atno 17370 bound_to 10713
  156.5584  130.4249  149.6074 LP  0  0  0  0  0  0  0  0  0  0  0  0  # atno 17371 bound_to 10713
  139.9733  134.7256  155.9998 LP  0  0  0  0  0  0  0  0  0  0  0  0  # atno 17394 bound_to 11000
  141.1453  133.6557  156.3850 LP  0  0  0  0  0  0  0  0  0  0  0  0  # atno 17395 bound_to 11000

$$$$
