AV-unprocessed.smi:594|AV-procd|sdf|3016|dock5
  -GOLD-   2262023523D 1   1.00000     0.00000
 Structure written by MMmdl.
 40 41  0  0  0  0  0  0  0  0  3 V2000
  153.5746  141.2787  161.0502 C   0  0  0  0  0  0  0  0  0  0  0  0
  153.2906  142.6388  160.3893 C   0  0  2  0  0  0  0  0  0  0  0  0
  152.2020  143.4224  161.1518 C   0  0  0  0  0  0  0  0  0  0  0  0
  151.9631  144.8081  160.5307 C   0  0  0  0  0  0  0  0  0  0  0  0
  151.6106  144.6993  159.0398 C   0  0  0  0  0  0  0  0  0  0  0  0
  152.6877  143.9171  158.2678 C   0  0  0  0  0  0  0  0  0  0  0  0
  152.9522  142.5265  158.8799 C   0  0  2  0  0  0  0  0  0  0  0  0
  151.8015  141.6520  158.6433 N   0  0  0  0  0  0  0  0  0  0  0  0
  151.8145  140.4889  157.9740 C   0  0  0  0  0  0  0  0  0  0  0  0
  152.8293  140.0118  157.4641 O   0  0  0  0  0  0  0  0  0  0  0  0
  150.4684  139.7547  157.8952 C   0  0  0  0  0  0  0  0  0  0  0  0
  149.4710  140.4472  157.0620 N   0  0  0  0  0  0  0  0  0  0  0  0
  148.3297  140.9466  157.7198 C   0  0  0  0  0  0  0  0  0  0  0  0
  147.3443  141.5848  157.0588 C   0  0  0  0  0  0  0  0  0  0  0  0
  146.1743  142.0812  157.7495 N   0  3  0  0  0  0  0  0  0  0  0  0
  146.0955  141.9210  158.9633 O   0  0  0  0  0  0  0  0  0  0  0  0
  145.2963  142.6460  157.1035 O   0  5  0  0  0  0  0  0  0  0  0  0
  147.4922  141.7518  155.6259 C   0  0  0  0  0  0  0  0  0  0  0  0
  148.5796  141.2722  154.9903 C   0  0  0  0  0  0  0  0  0  0  0  0
  149.6468  140.5702  155.7109 C   0  0  0  0  0  0  0  0  0  0  0  0
  150.6373  140.1204  155.1346 O   0  0  0  0  0  0  0  0  0  0  0  0
  152.6831  140.6520  161.0866 H   0  0  0  0  0  0  0  0  0  0  0  0
  153.9255  141.4081  162.0742 H   0  0  0  0  0  0  0  0  0  0  0  0
  154.3448  140.7318  160.5056 H   0  0  0  0  0  0  0  0  0  0  0  0
  154.2128  143.2172  160.4640 H   0  0  0  0  0  0  0  0  0  0  0  0
  151.2689  142.8575  161.1553 H   0  0  0  0  0  0  0  0  0  0  0  0
  152.4915  143.5397  162.1966 H   0  0  0  0  0  0  0  0  0  0  0  0
  151.1634  145.3221  161.0648 H   0  0  0  0  0  0  0  0  0  0  0  0
  152.8576  145.4207  160.6502 H   0  0  0  0  0  0  0  0  0  0  0  0
  150.6435  144.2077  158.9272 H   0  0  0  0  0  0  0  0  0  0  0  0
  151.4996  145.6958  158.6116 H   0  0  0  0  0  0  0  0  0  0  0  0
  152.4007  143.8200  157.2201 H   0  0  0  0  0  0  0  0  0  0  0  0
  153.6149  144.4916  158.2741 H   0  0  0  0  0  0  0  0  0  0  0  0
  153.8249  142.1150  158.3698 H   0  0  0  0  0  0  0  0  0  0  0  0
  150.9206  141.9588  159.0298 H   0  0  0  0  0  0  0  0  0  0  0  0
  150.6485  138.7511  157.5065 H   0  0  0  0  0  0  0  0  0  0  0  0
  150.0878  139.6021  158.9068 H   0  0  0  0  0  0  0  0  0  0  0  0
  148.3116  140.7634  158.7848 H   0  0  0  0  0  0  0  0  0  0  0  0
  146.7326  142.2624  155.0522 H   0  0  0  0  0  0  0  0  0  0  0  0
  148.6688  141.4076  153.9222 H   0  0  0  0  0  0  0  0  0  0  0  0
  1  2  1  0  0  0  0
  1 22  1  0  0  0  0
  1 23  1  0  0  0  0
  1 24  1  0  0  0  0
  2  7  1  0  0  0  0
  2  3  1  0  0  0  0
  2 25  1  0  0  0  0
  3  4  1  0  0  0  0
  3 26  1  0  0  0  0
  3 27  1  0  0  0  0
  4  5  1  0  0  0  0
  4 28  1  0  0  0  0
  4 29  1  0  0  0  0
  5  6  1  0  0  0  0
  5 30  1  0  0  0  0
  5 31  1  0  0  0  0
  6  7  1  0  0  0  0
  6 32  1  0  0  0  0
  6 33  1  0  0  0  0
  7  8  1  0  0  0  0
  7 34  1  0  0  0  0
  8  9  1  0  0  0  0
  8 35  1  0  0  0  0
  9 10  2  0  0  0  0
  9 11  1  0  0  0  0
 11 12  1  0  0  0  0
 11 36  1  0  0  0  0
 11 37  1  0  0  0  0
 12 20  1  0  0  0  0
 12 13  1  0  0  0  0
 13 14  2  0  0  0  0
 13 38  1  0  0  0  0
 14 15  1  0  0  0  0
 14 18  1  0  0  0  0
 15 16  2  0  0  0  0
 15 17  1  0  0  0  0
 18 19  2  0  0  0  0
 18 39  1  0  0  0  0
 19 20  1  0  0  0  0
 19 40  1  0  0  0  0
 20 21  2  0  0  0  0
M  CHG  1  15   1
M  CHG  1  17  -1
M  END
> <s_m_source_file>
AV-unprocessed.smi

> <i_m_source_file_index>
594

> <i_lp_mmshare_version>
43012

> <i_f3d_flags>
0

> <s_epik_input>
W0NIM11bQ0BASF0xW0NIMl1bQ0gyXVtDSDJdW0NIMl1bQ0BIXTFbTkhdQyg9TylbQ0gyXW4yW2NIXWMoW04rXSg9TylbTy1dKVtjSF1bY0hdYzI9Tw==

> <s_epik_cmdline>
J2VwaWtfcHl0aG9uJywgJy1waCcsICc3LjAnLCAnLXRuJywgJzgnLCAnLW1hJywgJzIwMCcsICctbWV0YWxfYmluZGluZycsICctaW1hZScsICc8aW5maWxlLm1hZT4nLCAnLW9tYWUnLCAnPG91dGZpbGUubWFlPic=

> <r_lp_tautomer_probability>
1

> <r_epik_Ionization_Penalty>
1.91305e-08

> <r_epik_Ionization_Penalty_Charging>
8.35811e-11

> <r_epik_Ionization_Penalty_Neutral>
1.90469e-08

> <r_epik_State_Penalty>
-0

> <r_epik_Charging_Adjusted_Penalty>
8.35811e-11

> <i_epik_Tot_Q>
0

> <i_epik_Tot_abs_Q>
2

> <r_epik_Metal_State_Penalty>
-0

> <b_epik_Metal_Only>
0

> <s_lp_Force_Field>
OPLS_2005

> <r_lp_Energy>
20.6939

> <b_lp_Chiralities_Consistent>
1

> <s_lp_Variant>
AV-unprocessed.smi:594-3

> <Gold.Version>
5.8.1

> <Gold.Id.Protein>
6NUR|6NUR_protein|mol2

> <Gold.PLP.Fitness>
49.5318

> <Gold.PLP.PLP>
-41.1068

> <Gold.PLP.part.hbond>
-3.0000

> <Gold.PLP.part.metal>
0.0000

> <Gold.PLP.part.buried>
-4.3581

> <Gold.PLP.part.nonpolar>
-33.3949

> <Gold.PLP.part.repulsive>
0.2173

> <Gold.PLP.ligand.clash>
0.0000

> <Gold.PLP.ligand.torsion>
0.1088

> <Gold.PLP.Chemscore.Hbond>
2.8723

> <Gold.PLP.Chemscore.CHOScore>
0.0000

> <Gold.PLP.Chemscore.Metal>
0.0000

> <Gold.Chemscore.Hbonds>
donor molecule, donor type, donor heavy atom, donor atom, acceptor molecule, acceptor atom, score
      P1  H  6934  6946       L1    16  0.55
      P1  H  7989  7998       L1    21  0.94
      P1  H  7997  8008       L1    10  1.00

> <Gold.PLP.Chemscore.Internal.Correction>
0.0258

> <Gold.Rescore>
     Score         DG    S(hbond)    S(metal)    S(lipo)     H(rot)  DE(clash)    DE(int)     intcor
     22.46     -22.64       2.88        0.00      98.35       1.55       0.02       0.16       ----

> <Gold.Chemscore.Fitness>
22.4601

> <Gold.Chemscore.DG>
-22.6435

> <Gold.Chemscore.ZeroCoef>
-5.4800

> <Gold.Chemscore.Hbond>
2.8820

> <Gold.Chemscore.Metal>
0.0000

> <Gold.Chemscore.Lipo>
98.3469

> <Gold.Chemscore.Internal_Hbond>
0.0000

> <Gold.Chemscore.DEClash>
0.0189

> <Gold.Chemscore.DEInternal>
0.1645

> <Gold.Chemscore.Rot>
1.5505

> <Gold.Chemscore.Internal.Correction>
   9.000000E+99

> <Gold.Chemscore.Hbonds>
donor molecule, donor type, donor heavy atom, donor atom, acceptor molecule, acceptor atom, score
      P1  H  6934  6946       L1    16  0.53
      P1  H  7989  7998       L1    21  0.90
      P1  H  7997  8008       L1    10  0.96

> <Gold.Chemscore.Hbond.Weighted>
-9.6260

> <Gold.Chemscore.Metal.Weighted>
-0.0000

> <Gold.Chemscore.Lipo.Weighted>
-11.5066

> <Gold.Chemscore.Internal_Hbond.Weighted>
0.0000

> <Gold.Chemscore.DEClash.Weighted>
0.0189

> <Gold.Chemscore.DEInternal.Weighted>
0.1645

> <Gold.Chemscore.Rot.Weighted>
3.9692

> <Gold.Chemscore.Internal.Correction.Weighted>
   9.000000E+99

> <Gold.Protein.RotatedTorsions>
[ 6907 6896 6895 6894 ] final -147.73 input  -60.11 | X-H torsion
[ 7974 7965 7964 7962 ] final -120.42 input  175.53 | X-H torsion
[ 8008 7997 7996 7995 ] final  -56.93 input   59.86 | X-H torsion
[ 10167 10162 10161 10158 ] final   36.82 input  -65.29 | X-H torsion
[ 10718 10713 10712 10709 ] final   74.61 input   66.30 | X-H torsion
[ 10763 10752 10751 10750 ] final  -43.46 input  -60.55 | X-H torsion
[ 11005 11000 10999 10996 ] final   43.97 input  -57.11 | X-H torsion

> <Gold.Protein.ActiveResidues>
 VAL166  LYS551  ARG553  GLY616  TRP617  ASP618  TYR619  PRO620  LYS621  CYS622 
 ASP623  PHE694  ASN695  SER759  ASP760  ASP761  ALA762  ILE779  LEU786  VAL792 
 PHE793  MET794  SER795  GLU796  ALA797  LYS798  CYS799  TRP800  GLU811  SER814 

> <Gold.Protein.RotatedAtoms>
  151.1598  133.4853  159.2594 H   0  0  0  0  0  0  0  0  0  0  0  0  # atno 6907 bound_to 6896
  151.1466  135.0206  159.8660 H   0  0  0  0  0  0  0  0  0  0  0  0  # atno 6908 bound_to 6896
  152.5463  134.1486  159.8562 H   0  0  0  0  0  0  0  0  0  0  0  0  # atno 6909 bound_to 6896
  145.0516  140.8223  143.4206 H   0  0  0  0  0  0  0  0  0  0  0  0  # atno 7974 bound_to 7965
  154.4248  140.1118  156.5716 H   0  0  0  0  0  0  0  0  0  0  0  0  # atno 8008 bound_to 7997
  155.6206  140.3495  155.4632 H   0  0  0  0  0  0  0  0  0  0  0  0  # atno 8009 bound_to 7997
  156.0027  140.1202  157.0521 H   0  0  0  0  0  0  0  0  0  0  0  0  # atno 8010 bound_to 7997
  140.4091  144.1618  150.6138 H   0  0  0  0  0  0  0  0  0  0  0  0  # atno 10167 bound_to 10162
  157.6599  130.9686  150.1235 H   0  0  0  0  0  0  0  0  0  0  0  0  # atno 10718 bound_to 10713
  153.9960  135.6699  153.4756 H   0  0  0  0  0  0  0  0  0  0  0  0  # atno 10763 bound_to 10752
  153.0684  135.4988  154.8246 H   0  0  0  0  0  0  0  0  0  0  0  0  # atno 10764 bound_to 10752
  154.7081  135.3092  154.9202 H   0  0  0  0  0  0  0  0  0  0  0  0  # atno 10765 bound_to 10752
  140.1595  134.4359  155.8327 H   0  0  0  0  0  0  0  0  0  0  0  0  # atno 11005 bound_to 11000
  145.1520  139.2509  143.5436 LP  0  0  0  0  0  0  0  0  0  0  0  0  # atno 17320 bound_to 7965
  146.3518  140.1225  142.8600 LP  0  0  0  0  0  0  0  0  0  0  0  0  # atno 17321 bound_to 7965
  140.4657  143.2432  151.9158 LP  0  0  0  0  0  0  0  0  0  0  0  0  # atno 17342 bound_to 10162
  139.4783  144.5421  151.8512 LP  0  0  0  0  0  0  0  0  0  0  0  0  # atno 17343 bound_to 10162
  156.2100  130.3666  149.8682 LP  0  0  0  0  0  0  0  0  0  0  0  0  # atno 17370 bound_to 10713
  156.6563  130.8764  151.3540 LP  0  0  0  0  0  0  0  0  0  0  0  0  # atno 17371 bound_to 10713
  141.2208  133.6907  156.7568 LP  0  0  0  0  0  0  0  0  0  0  0  0  # atno 17394 bound_to 11000
  140.2507  134.8543  157.3664 LP  0  0  0  0  0  0  0  0  0  0  0  0  # atno 17395 bound_to 11000

$$$$
