AV-unprocessed.smi:224|AV-procd|sdf|1711|dock4
  -GOLD-   2262020173D 1   1.00000     0.00000
 Structure written by MMmdl.
 56 59  0  0  0  0  0  0  0  0  2 V2000
  147.6915  127.8140  150.9638 C   0  0  0  0  0  0  0  0  0  0  0  0
  147.1604  128.6094  152.1656 C   0  0  2  0  0  0  0  0  0  0  0  0
  146.5123  127.7090  153.0393 O   0  0  0  0  0  0  0  0  0  0  0  0
  146.1550  129.7067  151.7620 C   0  0  0  0  0  0  0  0  0  0  0  0
  146.7575  131.0703  151.7946 N   0  3  2  0  0  0  0  0  0  0  0  0
  147.3885  131.3430  153.1183 C   0  0  0  0  0  0  0  0  0  0  0  0
  148.0319  132.7384  153.1899 C   0  0  0  0  0  0  0  0  0  0  0  0
  147.0875  133.7744  152.7876 N   0  0  0  0  0  0  0  0  0  0  0  0
  146.2533  134.3201  153.7140 C   0  0  0  0  0  0  0  0  0  0  0  0
  146.1590  133.7632  154.9512 N   0  0  0  0  0  0  0  0  0  0  0  0
  145.3268  134.2721  155.8640 C   0  0  0  0  0  0  0  0  0  0  0  0
  144.5098  135.3199  155.7536 N   0  0  0  0  0  0  0  0  0  0  0  0
  144.6077  135.8955  154.5217 C   0  0  0  0  0  0  0  0  0  0  0  0
  145.4504  135.4688  153.4560 C   0  0  0  0  0  0  0  0  0  0  0  0
  145.2933  136.3169  152.3654 N   0  0  0  0  0  0  0  0  0  0  0  0
  144.3988  137.1822  152.7573 C   0  0  0  0  0  0  0  0  0  0  0  0
  143.9226  136.9947  154.0348 N   0  0  0  0  0  0  0  0  0  0  0  0
  142.9181  137.7941  154.7184 C   0  0  0  0  0  0  0  0  0  0  0  0
  141.5054  137.6550  154.1043 C   0  0  2  0  0  0  0  0  0  0  0  0
  141.4089  138.4952  152.9669 O   0  0  0  0  0  0  0  0  0  0  0  0
  140.3714  138.0085  155.0635 C   0  0  0  0  0  0  0  0  0  0  0  0
  139.2518  137.0742  154.6270 C   0  0  0  0  0  0  0  0  0  0  0  0
  139.9498  135.8758  154.3367 O   0  0  0  0  0  0  0  0  0  0  0  0
  141.1659  136.2127  153.6773 C   0  0  0  0  0  0  0  0  0  0  0  0
  146.5249  133.5466  151.4629 C   0  0  0  0  0  0  0  0  0  0  0  0
  145.8340  132.1677  151.3590 C   0  0  1  0  0  0  0  0  0  0  0  0
  145.3372  131.9947  149.9083 C   0  0  0  0  0  0  0  0  0  0  0  0
  148.2382  128.4577  150.2742 H   0  0  0  0  0  0  0  0  0  0  0  0
  146.8803  127.3442  150.4061 H   0  0  0  0  0  0  0  0  0  0  0  0
  148.3744  127.0266  151.2848 H   0  0  0  0  0  0  0  0  0  0  0  0
  147.9982  129.0350  152.7166 H   0  0  0  0  0  0  0  0  0  0  0  0
  145.8667  128.1816  153.5425 H   0  0  0  0  0  0  0  0  0  0  0  0
  145.7762  129.4515  150.7759 H   0  0  0  0  0  0  0  0  0  0  0  0
  145.2823  129.6853  152.4170 H   0  0  0  0  0  0  0  0  0  0  0  0
  146.6333  131.2452  153.8989 H   0  0  0  0  0  0  0  0  0  0  0  0
  148.1525  130.5982  153.3361 H   0  0  0  0  0  0  0  0  0  0  0  0
  148.4250  132.9338  154.1885 H   0  0  0  0  0  0  0  0  0  0  0  0
  148.8883  132.7808  152.5160 H   0  0  0  0  0  0  0  0  0  0  0  0
  145.3112  133.7659  156.8179 H   0  0  0  0  0  0  0  0  0  0  0  0
  144.0552  137.9825  152.1181 H   0  0  0  0  0  0  0  0  0  0  0  0
  142.9031  137.5060  155.7705 H   0  0  0  0  0  0  0  0  0  0  0  0
  143.2388  138.8363  154.6920 H   0  0  0  0  0  0  0  0  0  0  0  0
  141.9925  139.2290  153.0854 H   0  0  0  0  0  0  0  0  0  0  0  0
  140.6519  137.7601  156.0877 H   0  0  0  0  0  0  0  0  0  0  0  0
  140.0872  139.0616  155.0432 H   0  0  0  0  0  0  0  0  0  0  0  0
  138.4987  136.9256  155.4008 H   0  0  0  0  0  0  0  0  0  0  0  0
  138.7583  137.4430  153.7264 H   0  0  0  0  0  0  0  0  0  0  0  0
  141.0299  136.1255  152.5980 H   0  0  0  0  0  0  0  0  0  0  0  0
  141.9389  135.4999  153.9662 H   0  0  0  0  0  0  0  0  0  0  0  0
  145.8220  134.3299  151.1845 H   0  0  0  0  0  0  0  0  0  0  0  0
  147.3391  133.6064  150.7394 H   0  0  0  0  0  0  0  0  0  0  0  0
  144.9701  132.1659  152.0260 H   0  0  0  0  0  0  0  0  0  0  0  0
  144.8130  132.8896  149.5708 H   0  0  0  0  0  0  0  0  0  0  0  0
  144.6291  131.1757  149.7944 H   0  0  0  0  0  0  0  0  0  0  0  0
  146.1674  131.8254  149.2217 H   0  0  0  0  0  0  0  0  0  0  0  0
  147.5049  131.0671  151.1154 H   0  0  0  0  0  0  0  0  0  0  0  0
  1  2  1  0  0  0  0
  1 28  1  0  0  0  0
  1 29  1  0  0  0  0
  1 30  1  0  0  0  0
  2  3  1  0  0  0  0
  2  4  1  0  0  0  0
  2 31  1  0  0  0  0
  3 32  1  0  0  0  0
  4  5  1  0  0  0  0
  4 33  1  0  0  0  0
  4 34  1  0  0  0  0
  5 26  1  0  0  0  0
  5  6  1  0  0  0  0
  5 56  1  0  0  0  0
  6  7  1  0  0  0  0
  6 35  1  0  0  0  0
  6 36  1  0  0  0  0
  7  8  1  0  0  0  0
  7 37  1  0  0  0  0
  7 38  1  0  0  0  0
  8  9  1  0  0  0  0
  8 25  1  0  0  0  0
  9 14  1  0  0  0  0
  9 10  2  0  0  0  0
 10 11  1  0  0  0  0
 11 12  2  0  0  0  0
 11 39  1  0  0  0  0
 12 13  1  0  0  0  0
 13 17  1  0  0  0  0
 13 14  2  0  0  0  0
 14 15  1  0  0  0  0
 15 16  2  0  0  0  0
 16 17  1  0  0  0  0
 16 40  1  0  0  0  0
 17 18  1  0  0  0  0
 18 19  1  0  0  0  0
 18 41  1  0  0  0  0
 18 42  1  0  0  0  0
 19 24  1  0  0  0  0
 19 20  1  0  0  0  0
 19 21  1  0  0  0  0
 20 43  1  0  0  0  0
 21 22  1  0  0  0  0
 21 44  1  0  0  0  0
 21 45  1  0  0  0  0
 22 23  1  0  0  0  0
 22 46  1  0  0  0  0
 22 47  1  0  0  0  0
 23 24  1  0  0  0  0
 24 48  1  0  0  0  0
 24 49  1  0  0  0  0
 25 26  1  0  0  0  0
 25 50  1  0  0  0  0
 25 51  1  0  0  0  0
 26 27  1  0  0  0  0
 26 52  1  0  0  0  0
 27 53  1  0  0  0  0
 27 54  1  0  0  0  0
 27 55  1  0  0  0  0
M  CHG  1   5   1
M  END
> <s_m_source_file>
AV-unprocessed.smi

> <i_m_source_file_index>
224

> <i_lp_mmshare_version>
43012

> <i_f3d_flags>
0

> <s_epik_input>
W0NIM11bQ0BIXShbT0hdKVtDSDJdTjFbQ0gyXVtDSDJdTihbQ0gyXVtDQEhdMVtDSDNdKWMobltjSF1uMiljKGMyMyluW2NIXW4zW0NIMl1bQ0BAXTQoW09IXSlbQ0gyXVtDSDJdT1tDSDJdNA==

> <s_epik_cmdline>
J2VwaWtfcHl0aG9uJywgJy1waCcsICc3LjAnLCAnLXRuJywgJzgnLCAnLW1hJywgJzIwMCcsICctbWV0YWxfYmluZGluZycsICctaW1hZScsICc8aW5maWxlLm1hZT4nLCAnLW9tYWUnLCAnPG91dGZpbGUubWFlPic=

> <r_lp_tautomer_probability>
1

> <r_epik_Ionization_Penalty>
0.00516958

> <r_epik_Ionization_Penalty_Charging>
0.00509693

> <r_epik_Ionization_Penalty_Neutral>
7.26542e-05

> <r_epik_State_Penalty>
-0

> <r_epik_Charging_Adjusted_Penalty>
0.00509693

> <i_epik_Tot_Q>
1

> <i_epik_Tot_abs_Q>
1

> <r_epik_Metal_State_Penalty>
-0

> <b_epik_Metal_Only>
0

> <s_lp_Force_Field>
OPLS_2005

> <r_lp_Energy>
47.9311

> <b_lp_Chiralities_Consistent>
1

> <s_lp_Variant>
AV-unprocessed.smi:224-5

> <Gold.Version>
5.8.1

> <Gold.Id.Protein>
6NUR|6NUR_protein|mol2

> <Gold.PLP.Fitness>
53.1294

> <Gold.PLP.PLP>
-39.9679

> <Gold.PLP.part.hbond>
-4.0000

> <Gold.PLP.part.metal>
0.0000

> <Gold.PLP.part.buried>
-8.6103

> <Gold.PLP.part.nonpolar>
-29.4252

> <Gold.PLP.part.repulsive>
0.5198

> <Gold.PLP.ligand.clash>
0.0000

> <Gold.PLP.ligand.torsion>
1.2200

> <Gold.PLP.Chemscore.Hbond>
2.9750

> <Gold.PLP.Chemscore.CHOScore>
2.0000

> <Gold.PLP.Chemscore.Metal>
0.0000

> <Gold.Chemscore.Hbonds>
donor molecule, donor type, donor heavy atom, donor atom, acceptor molecule, acceptor atom, score
      L1  H     5    56       P1 10747  1.00
      L1  H    20    43       P1 10175  0.83
      P1  H 11000 11005       L1    23  1.00
      L1  C    16    40       P1 10171  1.00
      L1  C    16    40       P1 10175  1.00

> <Gold.PLP.Chemscore.Internal.Correction>
0.6765

> <Gold.Rescore>
     Score         DG    S(hbond)    S(metal)    S(lipo)     H(rot)  DE(clash)    DE(int)     intcor
     15.37     -16.42       2.85        0.00      85.69       3.36       0.01       1.03       ----

> <Gold.Chemscore.Fitness>
15.3712

> <Gold.Chemscore.DG>
-16.4159

> <Gold.Chemscore.ZeroCoef>
-5.4800

> <Gold.Chemscore.Hbond>
2.8486

> <Gold.Chemscore.Metal>
0.0000

> <Gold.Chemscore.Lipo>
85.6939

> <Gold.Chemscore.Internal_Hbond>
0.0000

> <Gold.Chemscore.DEClash>
0.0125

> <Gold.Chemscore.DEInternal>
1.0322

> <Gold.Chemscore.Rot>
3.3611

> <Gold.Chemscore.Internal.Correction>
   9.000000E+99

> <Gold.Chemscore.Hbonds>
donor molecule, donor type, donor heavy atom, donor atom, acceptor molecule, acceptor atom, score
      L1  H     5    56       P1 10747  1.00
      L1  H    20    43       P1 10175  0.75
      P1  H 11000 11005       L1    23  0.70

> <Gold.Chemscore.Hbond.Weighted>
-9.5142

> <Gold.Chemscore.Metal.Weighted>
-0.0000

> <Gold.Chemscore.Lipo.Weighted>
-10.0262

> <Gold.Chemscore.Internal_Hbond.Weighted>
0.0000

> <Gold.Chemscore.DEClash.Weighted>
0.0125

> <Gold.Chemscore.DEInternal.Weighted>
1.0322

> <Gold.Chemscore.Rot.Weighted>
8.6045

> <Gold.Chemscore.Internal.Correction.Weighted>
   9.000000E+99

> <Gold.Protein.RotatedTorsions>
[ 6907 6896 6895 6894 ] final  -72.46 input  -60.11 | X-H torsion
[ 7974 7965 7964 7962 ] final   58.90 input  175.53 | X-H torsion
[ 8008 7997 7996 7995 ] final -110.08 input   59.86 | X-H torsion
[ 10167 10162 10161 10158 ] final   26.94 input  -65.29 | X-H torsion
[ 10718 10713 10712 10709 ] final   -8.49 input   66.30 | X-H torsion
[ 10763 10752 10751 10750 ] final -117.35 input  -60.55 | X-H torsion
[ 11005 11000 10999 10996 ] final   65.19 input  -57.11 | X-H torsion

> <Gold.Protein.ActiveResidues>
 VAL166  LYS551  ARG553  GLY616  TRP617  ASP618  TYR619  PRO620  LYS621  CYS622 
 ASP623  PHE694  ASN695  SER759  ASP760  ASP761  ALA762  ILE779  LEU786  VAL792 
 PHE793  MET794  SER795  GLU796  ALA797  LYS798  CYS799  TRP800  GLU811  SER814 

> <Gold.Protein.RotatedAtoms>
  150.7169  134.5160  159.5629 H   0  0  0  0  0  0  0  0  0  0  0  0  # atno 6907 bound_to 6896
  152.2725  134.7914  160.0420 H   0  0  0  0  0  0  0  0  0  0  0  0  # atno 6908 bound_to 6896
  151.8588  133.3418  159.3734 H   0  0  0  0  0  0  0  0  0  0  0  0  # atno 6909 bound_to 6896
  145.9131  139.3669  143.0524 H   0  0  0  0  0  0  0  0  0  0  0  0  # atno 7974 bound_to 7965
  154.9690  140.0398  157.2226 H   0  0  0  0  0  0  0  0  0  0  0  0  # atno 8008 bound_to 7997
  154.7818  140.2820  155.6035 H   0  0  0  0  0  0  0  0  0  0  0  0  # atno 8009 bound_to 7997
  156.2937  140.2590  156.2645 H   0  0  0  0  0  0  0  0  0  0  0  0  # atno 8010 bound_to 7997
  140.4981  144.0360  150.6322 H   0  0  0  0  0  0  0  0  0  0  0  0  # atno 10167 bound_to 10162
  156.7018  130.5095  149.5915 H   0  0  0  0  0  0  0  0  0  0  0  0  # atno 10718 bound_to 10713
  154.8552  135.4312  154.1966 H   0  0  0  0  0  0  0  0  0  0  0  0  # atno 10763 bound_to 10752
  153.3023  135.6970  153.7198 H   0  0  0  0  0  0  0  0  0  0  0  0  # atno 10764 bound_to 10752
  153.6323  135.3482  155.3020 H   0  0  0  0  0  0  0  0  0  0  0  0  # atno 10765 bound_to 10752
  139.9910  134.6591  156.0090 H   0  0  0  0  0  0  0  0  0  0  0  0  # atno 11005 bound_to 11000
  145.8647  140.9455  143.0682 LP  0  0  0  0  0  0  0  0  0  0  0  0  # atno 17320 bound_to 7965
  144.6745  140.0576  143.7477 LP  0  0  0  0  0  0  0  0  0  0  0  0  # atno 17321 bound_to 7965
  140.3648  143.2887  152.0344 LP  0  0  0  0  0  0  0  0  0  0  0  0  # atno 17342 bound_to 10162
  139.4866  144.6275  151.7135 LP  0  0  0  0  0  0  0  0  0  0  0  0  # atno 17343 bound_to 10162
  156.1723  130.6445  151.0853 LP  0  0  0  0  0  0  0  0  0  0  0  0  # atno 17370 bound_to 10713
  157.6970  131.0790  150.6938 LP  0  0  0  0  0  0  0  0  0  0  0  0  # atno 17371 bound_to 10713
  141.1566  133.6542  156.4181 LP  0  0  0  0  0  0  0  0  0  0  0  0  # atno 17394 bound_to 11000
  140.4908  134.6577  157.5210 LP  0  0  0  0  0  0  0  0  0  0  0  0  # atno 17395 bound_to 11000

$$$$
