AV-unprocessed.smi:2026|AV-procd|sdf|8206|dock6
  -GOLD-   2272010463D 1   1.00000     0.00000
 Structure written by MMmdl.
 45 47  0  0  0  0  0  0  0  0  2 V2000
  152.1789  145.2890  159.6445 C   0  0  0  0  0  0  0  0  0  0  0  0
  151.9387  143.8908  159.1029 C   0  0  0  0  0  0  0  0  0  0  0  0
  151.4135  143.7384  157.7997 C   0  0  0  0  0  0  0  0  0  0  0  0
  151.1753  142.4554  157.2600 C   0  0  0  0  0  0  0  0  0  0  0  0
  150.6738  142.0787  156.0254 N   0  0  0  0  0  0  0  0  0  0  0  0
  150.6912  140.7523  156.1232 C   0  0  0  0  0  0  0  0  0  0  0  0
  151.1419  140.2248  157.2775 N   0  0  0  0  0  0  0  0  0  0  0  0
  151.2477  138.8151  157.6100 C   0  0  0  0  0  0  0  0  0  0  0  0
  152.6826  138.2746  157.4554 C   0  0  1  0  0  0  0  0  0  0  0  0
  153.5543  139.0784  158.2275 O   0  0  0  0  0  0  0  0  0  0  0  0
  152.7894  136.8149  157.9421 C   0  0  0  0  0  0  0  0  0  0  0  0
  154.1633  136.4548  158.3094 N   0  0  0  0  0  0  0  0  0  0  0  0
  154.5643  136.0775  159.5381 C   0  0  0  0  0  0  0  0  0  0  0  0
  153.7864  135.9946  160.4880 O   0  0  0  0  0  0  0  0  0  0  0  0
  155.8930  135.8166  159.5566 N   0  5  0  0  0  0  0  0  0  0  0  0
  156.4332  136.0440  158.2311 C   0  0  0  0  0  0  0  0  0  0  0  0
  157.4862  137.1674  158.2731 C   0  0  0  0  0  0  0  0  0  0  0  0
  157.0207  134.7371  157.6655 C   0  0  0  0  0  0  0  0  0  0  0  0
  155.1969  136.4727  157.4615 C   0  0  0  0  0  0  0  0  0  0  0  0
  155.1853  136.7793  156.2682 O   0  0  0  0  0  0  0  0  0  0  0  0
  151.4776  141.3196  158.0667 C   0  0  0  0  0  0  0  0  0  0  0  0
  152.0015  141.4584  159.3644 C   0  0  0  0  0  0  0  0  0  0  0  0
  152.2341  142.7473  159.8879 C   0  0  0  0  0  0  0  0  0  0  0  0
  152.8024  142.8856  161.2891 C   0  0  0  0  0  0  0  0  0  0  0  0
  151.9344  146.0512  158.9042 H   0  0  0  0  0  0  0  0  0  0  0  0
  153.2250  145.4175  159.9233 H   0  0  0  0  0  0  0  0  0  0  0  0
  151.5611  145.4668  160.5250 H   0  0  0  0  0  0  0  0  0  0  0  0
  151.1891  144.6090  157.2011 H   0  0  0  0  0  0  0  0  0  0  0  0
  150.3572  140.1258  155.3089 H   0  0  0  0  0  0  0  0  0  0  0  0
  150.8905  138.6666  158.6299 H   0  0  0  0  0  0  0  0  0  0  0  0
  150.5673  138.2632  156.9602 H   0  0  0  0  0  0  0  0  0  0  0  0
  152.9758  138.3480  156.4072 H   0  0  0  0  0  0  0  0  0  0  0  0
  153.2127  139.1354  159.1064 H   0  0  0  0  0  0  0  0  0  0  0  0
  152.0943  136.6261  158.7620 H   0  0  0  0  0  0  0  0  0  0  0  0
  152.4724  136.1426  157.1429 H   0  0  0  0  0  0  0  0  0  0  0  0
  157.8932  137.3648  157.2807 H   0  0  0  0  0  0  0  0  0  0  0  0
  158.3214  136.8998  158.9213 H   0  0  0  0  0  0  0  0  0  0  0  0
  157.0664  138.1021  158.6485 H   0  0  0  0  0  0  0  0  0  0  0  0
  157.4301  134.8885  156.6659 H   0  0  0  0  0  0  0  0  0  0  0  0
  156.2676  133.9504  157.5965 H   0  0  0  0  0  0  0  0  0  0  0  0
  157.8283  134.3628  158.2956 H   0  0  0  0  0  0  0  0  0  0  0  0
  152.2247  140.5794  159.9506 H   0  0  0  0  0  0  0  0  0  0  0  0
  152.9310  141.9125  161.7638 H   0  0  0  0  0  0  0  0  0  0  0  0
  152.1367  143.4778  161.9172 H   0  0  0  0  0  0  0  0  0  0  0  0
  153.7765  143.3742  161.2582 H   0  0  0  0  0  0  0  0  0  0  0  0
  1  2  1  0  0  0  0
  1 25  1  0  0  0  0
  1 26  1  0  0  0  0
  1 27  1  0  0  0  0
  2 23  1  0  0  0  0
  2  3  2  0  0  0  0
  3  4  1  0  0  0  0
  3 28  1  0  0  0  0
  4 21  2  0  0  0  0
  4  5  1  0  0  0  0
  5  6  2  0  0  0  0
  6  7  1  0  0  0  0
  6 29  1  0  0  0  0
  7  8  1  0  0  0  0
  7 21  1  0  0  0  0
  8  9  1  0  0  0  0
  8 30  1  0  0  0  0
  8 31  1  0  0  0  0
  9 10  1  0  0  0  0
  9 11  1  0  0  0  0
  9 32  1  0  0  0  0
 10 33  1  0  0  0  0
 11 12  1  0  0  0  0
 11 34  1  0  0  0  0
 11 35  1  0  0  0  0
 12 19  1  0  0  0  0
 12 13  1  0  0  0  0
 13 14  2  0  0  0  0
 13 15  1  0  0  0  0
 15 16  1  0  0  0  0
 16 17  1  0  0  0  0
 16 18  1  0  0  0  0
 16 19  1  0  0  0  0
 17 36  1  0  0  0  0
 17 37  1  0  0  0  0
 17 38  1  0  0  0  0
 18 39  1  0  0  0  0
 18 40  1  0  0  0  0
 18 41  1  0  0  0  0
 19 20  2  0  0  0  0
 21 22  1  0  0  0  0
 22 23  2  0  0  0  0
 22 42  1  0  0  0  0
 23 24  1  0  0  0  0
 24 43  1  0  0  0  0
 24 44  1  0  0  0  0
 24 45  1  0  0  0  0
M  CHG  1  15  -1
M  END
> <s_m_source_file>
AV-unprocessed.smi

> <i_m_source_file_index>
2026

> <i_lp_mmshare_version>
43012

> <i_f3d_flags>
0

> <s_epik_input>
W0NIM11jKFtjSF0xKWMoW0NIM10pW2NIXWMoYzEyKW4oW2NIXW4yKVtDSDJdW0NASF0oW09IXSlbQ0gyXU4oQzM9TylDKD1PKVtOSF1DMyhbQ0gzXSlbQ0gzXQ==

> <s_epik_cmdline>
J2VwaWtfcHl0aG9uJywgJy1waCcsICc3LjAnLCAnLXRuJywgJzgnLCAnLW1hJywgJzIwMCcsICctbWV0YWxfYmluZGluZycsICctaW1hZScsICc8aW5maWxlLm1hZT4nLCAnLW9tYWUnLCAnPG91dGZpbGUubWFlPic=

> <r_lp_tautomer_probability>
1

> <r_epik_Ionization_Penalty>
5.78785

> <r_epik_Ionization_Penalty_Charging>
5.68049

> <r_epik_Ionization_Penalty_Neutral>
0.107354

> <r_epik_State_Penalty>
5.7743

> <r_epik_Charging_Adjusted_Penalty>
11.4548

> <i_epik_Tot_Q>
-1

> <i_epik_Tot_abs_Q>
1

> <r_epik_Metal_State_Penalty>
1.83778

> <b_epik_Metal_Only>
1

> <s_lp_Force_Field>
OPLS_2005

> <r_lp_Energy>
18.252

> <b_lp_Chiralities_Consistent>
1

> <s_lp_Variant>
AV-unprocessed.smi:2026-6

> <Gold.Version>
5.8.1

> <Gold.Id.Protein>
6NUR|6NUR_protein|mol2

> <Gold.PLP.Fitness>
45.4770

> <Gold.PLP.PLP>
-38.2209

> <Gold.PLP.part.hbond>
-3.0000

> <Gold.PLP.part.metal>
0.0000

> <Gold.PLP.part.buried>
-4.2000

> <Gold.PLP.part.nonpolar>
-30.1803

> <Gold.PLP.part.repulsive>
0.0985

> <Gold.PLP.ligand.clash>
0.0000

> <Gold.PLP.ligand.torsion>
0.5252

> <Gold.PLP.Chemscore.Hbond>
2.7680

> <Gold.PLP.Chemscore.CHOScore>
0.0000

> <Gold.PLP.Chemscore.Metal>
0.0000

> <Gold.Chemscore.Hbonds>
donor molecule, donor type, donor heavy atom, donor atom, acceptor molecule, acceptor atom, score
      P1  H  6896  6909       L1    14  1.00
      P1  H  7997  8009       L1    10  1.00
      P1  H 10752 10764       L1    20  0.75

> <Gold.PLP.Chemscore.Internal.Correction>
0.0025

> <Gold.Rescore>
     Score         DG    S(hbond)    S(metal)    S(lipo)     H(rot)  DE(clash)    DE(int)     intcor
     18.73     -19.40       2.60        0.00      96.75       2.38       0.04       0.64       ----

> <Gold.Chemscore.Fitness>
18.7265

> <Gold.Chemscore.DG>
-19.4007

> <Gold.Chemscore.ZeroCoef>
-5.4800

> <Gold.Chemscore.Hbond>
2.6017

> <Gold.Chemscore.Metal>
0.0000

> <Gold.Chemscore.Lipo>
96.7478

> <Gold.Chemscore.Internal_Hbond>
0.0000

> <Gold.Chemscore.DEClash>
0.0351

> <Gold.Chemscore.DEInternal>
0.6391

> <Gold.Chemscore.Rot>
2.3783

> <Gold.Chemscore.Internal.Correction>
   9.000000E+99

> <Gold.Chemscore.Hbonds>
donor molecule, donor type, donor heavy atom, donor atom, acceptor molecule, acceptor atom, score
      P1  H  6896  6909       L1    14  0.70
      P1  H  7997  8009       L1    10  0.85
      P1  H 10752 10764       L1    20  0.59

> <Gold.Chemscore.Hbond.Weighted>
-8.6896

> <Gold.Chemscore.Metal.Weighted>
-0.0000

> <Gold.Chemscore.Lipo.Weighted>
-11.3195

> <Gold.Chemscore.Internal_Hbond.Weighted>
0.0000

> <Gold.Chemscore.DEClash.Weighted>
0.0351

> <Gold.Chemscore.DEInternal.Weighted>
0.6391

> <Gold.Chemscore.Rot.Weighted>
6.0884

> <Gold.Chemscore.Internal.Correction.Weighted>
   9.000000E+99

> <Gold.Protein.RotatedTorsions>
[ 6907 6896 6895 6894 ] final  172.37 input  -60.11 | X-H torsion
[ 7974 7965 7964 7962 ] final -135.64 input  175.53 | X-H torsion
[ 8008 7997 7996 7995 ] final  137.61 input   59.86 | X-H torsion
[ 10167 10162 10161 10158 ] final   52.54 input  -65.29 | X-H torsion
[ 10718 10713 10712 10709 ] final   24.36 input   66.30 | X-H torsion
[ 10763 10752 10751 10750 ] final   58.53 input  -60.55 | X-H torsion
[ 11005 11000 10999 10996 ] final  146.57 input  -57.11 | X-H torsion

> <Gold.Protein.ActiveResidues>
 VAL166  LYS551  ARG553  GLY616  TRP617  ASP618  TYR619  PRO620  LYS621  CYS622 
 ASP623  PHE694  ASN695  SER759  ASP760  ASP761  ALA762  ILE779  LEU786  VAL792 
 PHE793  MET794  SER795  GLU796  ALA797  LYS798  CYS799  TRP800  GLU811  SER814 

> <Gold.Protein.RotatedAtoms>
  151.7853  133.3354  159.3483 H   0  0  0  0  0  0  0  0  0  0  0  0  # atno 6907 bound_to 6896
  150.7411  134.5892  159.5988 H   0  0  0  0  0  0  0  0  0  0  0  0  # atno 6908 bound_to 6896
  152.3247  134.7337  160.0356 H   0  0  0  0  0  0  0  0  0  0  0  0  # atno 6909 bound_to 6896
  144.8996  140.6753  143.5093 H   0  0  0  0  0  0  0  0  0  0  0  0  # atno 7974 bound_to 7965
  156.3001  140.2415  156.3937 H   0  0  0  0  0  0  0  0  0  0  0  0  # atno 8008 bound_to 7997
  154.8590  140.0421  157.1673 H   0  0  0  0  0  0  0  0  0  0  0  0  # atno 8009 bound_to 7997
  154.8917  140.2964  155.5371 H   0  0  0  0  0  0  0  0  0  0  0  0  # atno 8010 bound_to 7997
  140.2502  144.3487  150.6350 H   0  0  0  0  0  0  0  0  0  0  0  0  # atno 10167 bound_to 10162
  157.1787  130.6792  149.6105 H   0  0  0  0  0  0  0  0  0  0  0  0  # atno 10718 bound_to 10713
  152.9873  135.5603  154.5566 H   0  0  0  0  0  0  0  0  0  0  0  0  # atno 10763 bound_to 10752
  154.4993  135.2796  155.1435 H   0  0  0  0  0  0  0  0  0  0  0  0  # atno 10764 bound_to 10752
  154.2872  135.6333  153.5424 H   0  0  0  0  0  0  0  0  0  0  0  0  # atno 10765 bound_to 10752
  140.0804  134.9100  157.1492 H   0  0  0  0  0  0  0  0  0  0  0  0  # atno 11005 bound_to 11000
  145.3640  139.1675  143.4368 LP  0  0  0  0  0  0  0  0  0  0  0  0  # atno 17320 bound_to 7965
  146.3101  140.3705  142.8673 LP  0  0  0  0  0  0  0  0  0  0  0  0  # atno 17321 bound_to 7965
  140.6046  143.2167  151.7006 LP  0  0  0  0  0  0  0  0  0  0  0  0  # atno 17342 bound_to 10162
  139.5048  144.3739  152.0443 LP  0  0  0  0  0  0  0  0  0  0  0  0  # atno 17343 bound_to 10162
  155.9727  130.4654  150.6253 LP  0  0  0  0  0  0  0  0  0  0  0  0  # atno 17370 bound_to 10713
  157.3974  131.0805  151.1339 LP  0  0  0  0  0  0  0  0  0  0  0  0  # atno 17371 bound_to 10713
  140.3496  134.2614  155.7200 LP  0  0  0  0  0  0  0  0  0  0  0  0  # atno 17394 bound_to 11000
  141.2045  133.7886  157.0285 LP  0  0  0  0  0  0  0  0  0  0  0  0  # atno 17395 bound_to 11000

$$$$
