AV-unprocessed.smi:1300|AV-procd|sdf|5420|dock2
  -GOLD-   22720 4573D 1   1.00000     0.00000
 Structure written by MMmdl.
 35 36  0  0  0  0  0  0  0  0  1 V2000
  147.3089  141.3555  154.1897 C   0  0  0  0  0  0  0  0  0  0  0  0
  148.6654  140.8697  154.6305 C   0  0  0  0  0  0  0  0  0  0  0  0
  149.3548  141.7143  155.3243 N   0  0  0  0  0  0  0  0  0  0  0  0
  150.6163  141.4072  155.7913 N   0  0  0  0  0  0  0  0  0  0  0  0
  151.2431  142.4861  156.5653 C   0  0  0  0  0  0  0  0  0  0  0  0
  150.6086  142.6577  157.9627 C   0  0  1  0  0  0  0  0  0  0  0  0
  149.4215  141.8893  158.0212 O   0  0  0  0  0  0  0  0  0  0  0  0
  151.5951  142.2592  159.0535 C   0  0  0  0  0  0  0  0  0  0  0  0
  152.0941  140.9385  159.1245 C   0  0  0  0  0  0  0  0  0  0  0  0
  153.0163  140.5779  160.1257 C   0  0  0  0  0  0  0  0  0  0  0  0
  153.4513  141.5359  161.0604 C   0  0  0  0  0  0  0  0  0  0  0  0
  152.9652  142.8551  160.9915 C   0  0  0  0  0  0  0  0  0  0  0  0
  152.0423  143.2182  159.9909 C   0  0  0  0  0  0  0  0  0  0  0  0
  151.5937  144.4952  159.9335 F   0  0  0  0  0  0  0  0  0  0  0  0
  151.2542  140.2211  155.5807 C   0  0  0  0  0  0  0  0  0  0  0  0
  152.3832  139.9895  156.0161 O   0  0  0  0  0  0  0  0  0  0  0  0
  150.4706  139.2651  154.7955 C   0  0  0  0  0  0  0  0  0  0  0  0
  151.1056  138.0100  154.5510 C   0  0  0  0  0  0  0  0  0  0  0  0
  151.6234  136.9901  154.3729 N   0  0  0  0  0  0  0  0  0  0  0  0
  149.2275  139.5524  154.3331 C   0  0  0  0  0  0  0  0  0  0  0  0
  148.3820  138.5833  153.5176 C   0  0  0  0  0  0  0  0  0  0  0  0
  146.7788  140.6347  153.5699 H   0  0  0  0  0  0  0  0  0  0  0  0
  147.4001  142.2744  153.6094 H   0  0  0  0  0  0  0  0  0  0  0  0
  146.6784  141.5691  155.0533 H   0  0  0  0  0  0  0  0  0  0  0  0
  152.3210  142.3341  156.6535 H   0  0  0  0  0  0  0  0  0  0  0  0
  151.1365  143.4146  156.0007 H   0  0  0  0  0  0  0  0  0  0  0  0
  150.3213  143.6971  158.1221 H   0  0  0  0  0  0  0  0  0  0  0  0
  149.1116  141.7506  157.1393 H   0  0  0  0  0  0  0  0  0  0  0  0
  151.7752  140.1951  158.4085 H   0  0  0  0  0  0  0  0  0  0  0  0
  153.3921  139.5665  160.1746 H   0  0  0  0  0  0  0  0  0  0  0  0
  154.1598  141.2602  161.8274 H   0  0  0  0  0  0  0  0  0  0  0  0
  153.3028  143.5915  161.7058 H   0  0  0  0  0  0  0  0  0  0  0  0
  148.8730  137.6209  153.3782 H   0  0  0  0  0  0  0  0  0  0  0  0
  148.1791  138.9932  152.5278 H   0  0  0  0  0  0  0  0  0  0  0  0
  147.4313  138.3918  154.0168 H   0  0  0  0  0  0  0  0  0  0  0  0
  1  2  1  0  0  0  0
  1 22  1  0  0  0  0
  1 23  1  0  0  0  0
  1 24  1  0  0  0  0
  2 20  1  0  0  0  0
  2  3  2  0  0  0  0
  3  4  1  0  0  0  0
  4  5  1  0  0  0  0
  4 15  1  0  0  0  0
  5  6  1  0  0  0  0
  5 25  1  0  0  0  0
  5 26  1  0  0  0  0
  6  7  1  0  0  0  0
  6  8  1  0  0  0  0
  6 27  1  0  0  0  0
  7 28  1  0  0  0  0
  8 13  1  0  0  0  0
  8  9  2  0  0  0  0
  9 10  1  0  0  0  0
  9 29  1  0  0  0  0
 10 11  2  0  0  0  0
 10 30  1  0  0  0  0
 11 12  1  0  0  0  0
 11 31  1  0  0  0  0
 12 13  2  0  0  0  0
 12 32  1  0  0  0  0
 13 14  1  0  0  0  0
 15 16  2  0  0  0  0
 15 17  1  0  0  0  0
 17 18  1  0  0  0  0
 17 20  2  0  0  0  0
 18 19  3  0  0  0  0
 20 21  1  0  0  0  0
 21 33  1  0  0  0  0
 21 34  1  0  0  0  0
 21 35  1  0  0  0  0
M  END
> <s_m_source_file>
AV-unprocessed.smi

> <i_m_source_file_index>
1300

> <i_lp_mmshare_version>
43012

> <i_f3d_flags>
0

> <s_epik_input>
TiNDYyhjMVtDSDNdKWMoPU8pbihuYzFbQ0gzXSlbQ0gyXVtDQEhdKFtPSF0pYzJbY0hdW2NIXVtjSF1bY0hdYzJG

> <s_epik_cmdline>
J2VwaWtfcHl0aG9uJywgJy1waCcsICc3LjAnLCAnLXRuJywgJzgnLCAnLW1hJywgJzIwMCcsICctbWV0YWxfYmluZGluZycsICctaW1hZScsICc8aW5maWxlLm1hZT4nLCAnLW9tYWUnLCAnPG91dGZpbGUubWFlPic=

> <r_lp_tautomer_probability>
1

> <r_epik_Ionization_Penalty>
7.1854e-08

> <r_epik_Ionization_Penalty_Charging>
1.40848e-10

> <r_epik_Ionization_Penalty_Neutral>
7.17131e-08

> <r_epik_State_Penalty>
-0

> <r_epik_Charging_Adjusted_Penalty>
1.40848e-10

> <i_epik_Tot_Q>
0

> <i_epik_Tot_abs_Q>
0

> <r_epik_Metal_State_Penalty>
-0

> <b_epik_Metal_Only>
0

> <s_lp_Force_Field>
OPLS_2005

> <r_lp_Energy>
29.2167

> <b_lp_Chiralities_Consistent>
1

> <s_lp_Variant>
AV-unprocessed.smi:1300-2

> <Gold.Version>
5.8.1

> <Gold.Id.Protein>
6NUR|6NUR_protein|mol2

> <Gold.PLP.Fitness>
49.5665

> <Gold.PLP.PLP>
-45.2728

> <Gold.PLP.part.hbond>
-2.0000

> <Gold.PLP.part.metal>
0.0000

> <Gold.PLP.part.buried>
-2.8126

> <Gold.PLP.part.nonpolar>
-40.0344

> <Gold.PLP.part.repulsive>
0.7448

> <Gold.PLP.ligand.clash>
0.0000

> <Gold.PLP.ligand.torsion>
0.8574

> <Gold.PLP.Chemscore.Hbond>
2.0000

> <Gold.PLP.Chemscore.CHOScore>
0.0000

> <Gold.PLP.Chemscore.Metal>
0.0000

> <Gold.Chemscore.Hbonds>
donor molecule, donor type, donor heavy atom, donor atom, acceptor molecule, acceptor atom, score
      P1  H  7997  8009       L1    16  1.00
      P1  H 10752 10765       L1    19  1.00

> <Gold.PLP.Chemscore.Internal.Correction>
0.0084

> <Gold.Rescore>
     Score         DG    S(hbond)    S(metal)    S(lipo)     H(rot)  DE(clash)    DE(int)     intcor
     17.19     -19.64       1.94        0.00     109.46       2.00       1.61       0.85       ----

> <Gold.Chemscore.Fitness>
17.1892

> <Gold.Chemscore.DG>
-19.6419

> <Gold.Chemscore.ZeroCoef>
-5.4800

> <Gold.Chemscore.Hbond>
1.9355

> <Gold.Chemscore.Metal>
0.0000

> <Gold.Chemscore.Lipo>
109.4634

> <Gold.Chemscore.Internal_Hbond>
0.0000

> <Gold.Chemscore.DEClash>
1.6072

> <Gold.Chemscore.DEInternal>
0.8455

> <Gold.Chemscore.Rot>
1.9960

> <Gold.Chemscore.Internal.Correction>
   9.000000E+99

> <Gold.Chemscore.Hbonds>
donor molecule, donor type, donor heavy atom, donor atom, acceptor molecule, acceptor atom, score
      P1  H  7997  8009       L1    16  0.93
      P1  H 10752 10765       L1    19  0.97

> <Gold.Chemscore.Hbond.Weighted>
-6.4644

> <Gold.Chemscore.Metal.Weighted>
-0.0000

> <Gold.Chemscore.Lipo.Weighted>
-12.8072

> <Gold.Chemscore.Internal_Hbond.Weighted>
0.0000

> <Gold.Chemscore.DEClash.Weighted>
1.6072

> <Gold.Chemscore.DEInternal.Weighted>
0.8455

> <Gold.Chemscore.Rot.Weighted>
5.1097

> <Gold.Chemscore.Internal.Correction.Weighted>
   9.000000E+99

> <Gold.Protein.RotatedTorsions>
[ 6907 6896 6895 6894 ] final   41.83 input  -60.11 | X-H torsion
[ 7974 7965 7964 7962 ] final   13.08 input  175.53 | X-H torsion
[ 8008 7997 7996 7995 ] final -143.47 input   59.86 | X-H torsion
[ 10167 10162 10161 10158 ] final -146.39 input  -65.29 | X-H torsion
[ 10718 10713 10712 10709 ] final   14.63 input   66.30 | X-H torsion
[ 10763 10752 10751 10750 ] final  148.10 input  -60.55 | X-H torsion
[ 11005 11000 10999 10996 ] final -167.86 input  -57.11 | X-H torsion

> <Gold.Protein.ActiveResidues>
 VAL166  LYS551  ARG553  GLY616  TRP617  ASP618  TYR619  PRO620  LYS621  CYS622 
 ASP623  PHE694  ASN695  SER759  ASP760  ASP761  ALA762  ILE779  LEU786  VAL792 
 PHE793  MET794  SER795  GLU796  ALA797  LYS798  CYS799  TRP800  GLU811  SER814 

> <Gold.Protein.RotatedAtoms>
  152.2002  134.8595  160.0508 H   0  0  0  0  0  0  0  0  0  0  0  0  # atno 6907 bound_to 6896
  151.9451  133.3644  159.3987 H   0  0  0  0  0  0  0  0  0  0  0  0  # atno 6908 bound_to 6896
  150.6953  134.4323  159.5298 H   0  0  0  0  0  0  0  0  0  0  0  0  # atno 6909 bound_to 6896
  146.2337  139.9241  142.8506 H   0  0  0  0  0  0  0  0  0  0  0  0  # atno 7974 bound_to 7965
  155.5111  140.0583  157.2923 H   0  0  0  0  0  0  0  0  0  0  0  0  # atno 8008 bound_to 7997
  154.4551  140.1969  156.0351 H   0  0  0  0  0  0  0  0  0  0  0  0  # atno 8009 bound_to 7997
  156.0783  140.3250  155.7666 H   0  0  0  0  0  0  0  0  0  0  0  0  # atno 8010 bound_to 7997
  139.7718  143.8227  152.2625 H   0  0  0  0  0  0  0  0  0  0  0  0  # atno 10167 bound_to 10162
  157.0418  130.6234  149.5752 H   0  0  0  0  0  0  0  0  0  0  0  0  # atno 10718 bound_to 10713
  154.0491  135.2883  155.3343 H   0  0  0  0  0  0  0  0  0  0  0  0  # atno 10763 bound_to 10752
  154.6880  135.5237  153.8356 H   0  0  0  0  0  0  0  0  0  0  0  0  # atno 10764 bound_to 10752
  153.0568  135.6598  154.0689 H   0  0  0  0  0  0  0  0  0  0  0  0  # atno 10765 bound_to 10752
  140.5485  134.5452  157.5117 H   0  0  0  0  0  0  0  0  0  0  0  0  # atno 11005 bound_to 11000
  145.2108  140.9895  143.4102 LP  0  0  0  0  0  0  0  0  0  0  0  0  # atno 17320 bound_to 7965
  144.9693  139.3897  143.6317 LP  0  0  0  0  0  0  0  0  0  0  0  0  # atno 17321 bound_to 7965
  139.8264  144.7273  150.9507 LP  0  0  0  0  0  0  0  0  0  0  0  0  # atno 17342 bound_to 10162
  140.7814  143.4111  151.0992 LP  0  0  0  0  0  0  0  0  0  0  0  0  # atno 17343 bound_to 10162
  156.0035  130.5119  150.7749 LP  0  0  0  0  0  0  0  0  0  0  0  0  # atno 17370 bound_to 10713
  157.5098  131.0924  151.0212 LP  0  0  0  0  0  0  0  0  0  0  0  0  # atno 17371 bound_to 10713
  139.9467  134.7689  156.0545 LP  0  0  0  0  0  0  0  0  0  0  0  0  # atno 17394 bound_to 11000
  141.1185  133.6620  156.3156 LP  0  0  0  0  0  0  0  0  0  0  0  0  # atno 17395 bound_to 11000

$$$$
