AV-unprocessed.smi:709|AV-procd|sdf|3460|dock6
  -GOLD-   22720 0453D 1   1.00000     0.00000
 Structure written by MMmdl.
 48 50  0  0  0  0  0  0  0  0  1 V2000
  153.3279  137.5287  158.5022 C   0  0  0  0  0  0  0  0  0  0  0  0
  153.2589  137.5132  156.9738 C   0  0  0  0  0  0  0  0  0  0  0  0
  152.8039  136.2398  156.5494 O   0  0  0  0  0  0  0  0  0  0  0  0
  151.4084  136.0646  156.7356 C   0  0  2  0  0  0  0  0  0  0  0  0
  150.8468  134.7474  156.1895 C   0  0  0  0  0  0  0  0  0  0  0  0
  149.6164  135.5679  155.7963 C   0  0  2  0  0  0  0  0  0  0  0  0
  149.0222  135.1300  154.5377 N   0  0  0  0  0  0  0  0  0  0  0  0
  148.2929  134.0148  154.3964 C   0  0  0  0  0  0  0  0  0  0  0  0
  148.0535  133.2473  155.3282 O   0  0  0  0  0  0  0  0  0  0  0  0
  147.8665  133.8758  153.1272 N   0  0  0  0  0  0  0  0  0  0  0  0
  147.1057  132.8465  152.5429 C   0  0  0  0  0  0  0  0  0  0  0  0
  147.1422  131.5434  152.9212 C   0  0  0  0  0  0  0  0  0  0  0  0
  146.3322  130.5532  152.2532 C   0  0  0  0  0  0  0  0  0  0  0  0
  145.5475  130.9483  151.2415 C   0  0  0  0  0  0  0  0  0  0  0  0
  145.4995  132.2899  150.8271 N   0  0  0  0  0  0  0  0  0  0  0  0
  144.6129  132.6221  149.7090 C   0  0  0  0  0  0  0  0  0  0  0  0
  146.2397  133.2706  151.4249 C   0  0  0  0  0  0  0  0  0  0  0  0
  146.1768  134.4407  151.0394 O   0  0  0  0  0  0  0  0  0  0  0  0
  150.5422  136.8072  155.6875 C   0  0  0  0  0  0  0  0  0  0  0  0
  151.2000  137.1415  154.3418 C   0  0  0  0  0  0  0  0  0  0  0  0
  151.7783  138.5514  154.4757 C   0  0  0  0  0  0  0  0  0  0  0  0
  150.9459  139.2344  155.5658 C   0  0  0  0  0  0  0  0  0  0  0  0
  149.9819  138.1660  156.0937 C   0  0  0  0  0  0  0  0  0  0  0  0
  153.6729  138.4964  158.8668 H   0  0  0  0  0  0  0  0  0  0  0  0
  154.0158  136.7672  158.8702 H   0  0  0  0  0  0  0  0  0  0  0  0
  152.3480  137.3359  158.9395 H   0  0  0  0  0  0  0  0  0  0  0  0
  152.5827  138.2940  156.6232 H   0  0  0  0  0  0  0  0  0  0  0  0
  154.2458  137.7184  156.5564 H   0  0  0  0  0  0  0  0  0  0  0  0
  151.0841  136.2691  157.7591 H   0  0  0  0  0  0  0  0  0  0  0  0
  151.4117  134.3585  155.3400 H   0  0  0  0  0  0  0  0  0  0  0  0
  150.6656  133.9810  156.9433 H   0  0  0  0  0  0  0  0  0  0  0  0
  148.9049  135.6473  156.6222 H   0  0  0  0  0  0  0  0  0  0  0  0
  149.1721  135.7152  153.7287 H   0  0  0  0  0  0  0  0  0  0  0  0
  148.1067  134.6245  152.4937 H   0  0  0  0  0  0  0  0  0  0  0  0
  147.7801  131.1944  153.7162 H   0  0  0  0  0  0  0  0  0  0  0  0
  146.3588  129.5183  152.5611 H   0  0  0  0  0  0  0  0  0  0  0  0
  144.9140  130.2680  150.6914 H   0  0  0  0  0  0  0  0  0  0  0  0
  143.8592  133.3466  150.0203 H   0  0  0  0  0  0  0  0  0  0  0  0
  144.0857  131.7521  149.3161 H   0  0  0  0  0  0  0  0  0  0  0  0
  145.1815  133.0557  148.8850 H   0  0  0  0  0  0  0  0  0  0  0  0
  151.9657  136.4219  154.0500 H   0  0  0  0  0  0  0  0  0  0  0  0
  150.4563  137.1480  153.5444 H   0  0  0  0  0  0  0  0  0  0  0  0
  152.8216  138.4981  154.7892 H   0  0  0  0  0  0  0  0  0  0  0  0
  151.7462  139.0934  153.5300 H   0  0  0  0  0  0  0  0  0  0  0  0
  151.5983  139.5889  156.3646 H   0  0  0  0  0  0  0  0  0  0  0  0
  150.4022  140.0969  155.1794 H   0  0  0  0  0  0  0  0  0  0  0  0
  149.0005  138.3114  155.6412 H   0  0  0  0  0  0  0  0  0  0  0  0
  149.8448  138.2542  157.1718 H   0  0  0  0  0  0  0  0  0  0  0  0
  1  2  1  0  0  0  0
  1 24  1  0  0  0  0
  1 25  1  0  0  0  0
  1 26  1  0  0  0  0
  2  3  1  0  0  0  0
  2 27  1  0  0  0  0
  2 28  1  0  0  0  0
  3  4  1  0  0  0  0
  4 19  1  0  0  0  0
  4  5  1  0  0  0  0
  4 29  1  0  0  0  0
  5  6  1  0  0  0  0
  5 30  1  0  0  0  0
  5 31  1  0  0  0  0
  6  7  1  0  0  0  0
  6 19  1  0  0  0  0
  6 32  1  0  0  0  0
  7  8  1  0  0  0  0
  7 33  1  0  0  0  0
  8  9  2  0  0  0  0
  8 10  1  0  0  0  0
 10 11  1  0  0  0  0
 10 34  1  0  0  0  0
 11 17  1  0  0  0  0
 11 12  2  0  0  0  0
 12 13  1  0  0  0  0
 12 35  1  0  0  0  0
 13 14  2  0  0  0  0
 13 36  1  0  0  0  0
 14 15  1  0  0  0  0
 14 37  1  0  0  0  0
 15 16  1  0  0  0  0
 15 17  1  0  0  0  0
 16 38  1  0  0  0  0
 16 39  1  0  0  0  0
 16 40  1  0  0  0  0
 17 18  2  0  0  0  0
 19 23  1  0  0  0  0
 19 20  1  0  0  0  0
 20 21  1  0  0  0  0
 20 41  1  0  0  0  0
 20 42  1  0  0  0  0
 21 22  1  0  0  0  0
 21 43  1  0  0  0  0
 21 44  1  0  0  0  0
 22 23  1  0  0  0  0
 22 45  1  0  0  0  0
 22 46  1  0  0  0  0
 23 47  1  0  0  0  0
 23 48  1  0  0  0  0
M  END
> <s_m_source_file>
AV-unprocessed.smi

> <i_m_source_file_index>
709

> <i_lp_mmshare_version>
43012

> <i_f3d_flags>
0

> <s_epik_input>
W0NIMl0xW0NIMl1bQ0gyXVtDSDJdQzEyW0NASF0oT1tDSDJdW0NIM10pW0NIMl1bQ0BIXTJbTkhdQyg9TylbTkhdYzNbY0hdW2NIXVtjSF1uKFtDSDNdKWMzPU8=

> <s_epik_cmdline>
J2VwaWtfcHl0aG9uJywgJy1waCcsICc3LjAnLCAnLXRuJywgJzgnLCAnLW1hJywgJzIwMCcsICctbWV0YWxfYmluZGluZycsICctaW1hZScsICc8aW5maWxlLm1hZT4nLCAnLW9tYWUnLCAnPG91dGZpbGUubWFlPic=

> <r_lp_tautomer_probability>
1

> <r_epik_Ionization_Penalty>
2.50859e-05

> <r_epik_Ionization_Penalty_Charging>
5.10493e-06

> <r_epik_Ionization_Penalty_Neutral>
1.9981e-05

> <r_epik_State_Penalty>
-0

> <r_epik_Charging_Adjusted_Penalty>
5.10493e-06

> <i_epik_Tot_Q>
0

> <i_epik_Tot_abs_Q>
0

> <r_epik_Metal_State_Penalty>
-0

> <b_epik_Metal_Only>
0

> <s_lp_Force_Field>
OPLS_2005

> <r_lp_Energy>
49.811

> <b_lp_Chiralities_Consistent>
1

> <s_lp_Variant>
AV-unprocessed.smi:709-3

> <Gold.Version>
5.8.1

> <Gold.Id.Protein>
6NUR|6NUR_protein|mol2

> <Gold.PLP.Fitness>
43.3586

> <Gold.PLP.PLP>
-34.9275

> <Gold.PLP.part.hbond>
-3.0000

> <Gold.PLP.part.metal>
0.0000

> <Gold.PLP.part.buried>
-5.6550

> <Gold.PLP.part.nonpolar>
-27.3555

> <Gold.PLP.part.repulsive>
0.2160

> <Gold.PLP.ligand.clash>
0.0000

> <Gold.PLP.ligand.torsion>
0.4417

> <Gold.PLP.Chemscore.Hbond>
3.0000

> <Gold.PLP.Chemscore.CHOScore>
0.0000

> <Gold.PLP.Chemscore.Metal>
0.0000

> <Gold.Chemscore.Hbonds>
donor molecule, donor type, donor heavy atom, donor atom, acceptor molecule, acceptor atom, score
      L1  H     7    33       P1  7948  1.00
      L1  H    10    34       P1  7948  1.00
      P1  H 10752 10765       L1     3  1.00

> <Gold.PLP.Chemscore.Internal.Correction>
0.3146

> <Gold.Rescore>
     Score         DG    S(hbond)    S(metal)    S(lipo)     H(rot)  DE(clash)    DE(int)     intcor
     20.72     -21.30       2.71        0.00      87.54       1.36       0.06       0.52       ----

> <Gold.Chemscore.Fitness>
20.7163

> <Gold.Chemscore.DG>
-21.2968

> <Gold.Chemscore.ZeroCoef>
-5.4800

> <Gold.Chemscore.Hbond>
2.7113

> <Gold.Chemscore.Metal>
0.0000

> <Gold.Chemscore.Lipo>
87.5418

> <Gold.Chemscore.Internal_Hbond>
0.0000

> <Gold.Chemscore.DEClash>
0.0624

> <Gold.Chemscore.DEInternal>
0.5181

> <Gold.Chemscore.Rot>
1.3599

> <Gold.Chemscore.Internal.Correction>
   9.000000E+99

> <Gold.Chemscore.Hbonds>
donor molecule, donor type, donor heavy atom, donor atom, acceptor molecule, acceptor atom, score
      L1  H     7    33       P1  7948  0.73
      L1  H    10    34       P1  7948  0.44
      P1  H 10752 10765       L1     3  0.94

> <Gold.Chemscore.Hbond.Weighted>
-9.0556

> <Gold.Chemscore.Metal.Weighted>
-0.0000

> <Gold.Chemscore.Lipo.Weighted>
-10.2424

> <Gold.Chemscore.Internal_Hbond.Weighted>
0.0000

> <Gold.Chemscore.DEClash.Weighted>
0.0624

> <Gold.Chemscore.DEInternal.Weighted>
0.5181

> <Gold.Chemscore.Rot.Weighted>
3.4813

> <Gold.Chemscore.Internal.Correction.Weighted>
   9.000000E+99

> <Gold.Protein.RotatedTorsions>
[ 6907 6896 6895 6894 ] final   86.67 input  -60.11 | X-H torsion
[ 7974 7965 7964 7962 ] final   25.34 input  175.53 | X-H torsion
[ 8008 7997 7996 7995 ] final   38.35 input   59.86 | X-H torsion
[ 10167 10162 10161 10158 ] final  147.16 input  -65.29 | X-H torsion
[ 10718 10713 10712 10709 ] final -113.89 input   66.30 | X-H torsion
[ 10763 10752 10751 10750 ] final -121.98 input  -60.55 | X-H torsion
[ 11005 11000 10999 10996 ] final -143.68 input  -57.11 | X-H torsion

> <Gold.Protein.ActiveResidues>
 VAL166  LYS551  ARG553  GLY616  TRP617  ASP618  TYR619  PRO620  LYS621  CYS622 
 ASP623  PHE694  ASN695  SER759  ASP760  ASP761  ALA762  ILE779  LEU786  VAL792 
 PHE793  MET794  SER795  GLU796  ALA797  LYS798  CYS799  TRP800  GLU811  SER814 

> <Gold.Protein.RotatedAtoms>
  152.5398  134.2395  159.8856 H   0  0  0  0  0  0  0  0  0  0  0  0  # atno 6907 bound_to 6896
  151.2363  133.4416  159.2613 H   0  0  0  0  0  0  0  0  0  0  0  0  # atno 6908 bound_to 6896
  151.0668  134.9786  159.8344 H   0  0  0  0  0  0  0  0  0  0  0  0  # atno 6909 bound_to 6896
  146.1893  139.7479  142.8843 H   0  0  0  0  0  0  0  0  0  0  0  0  # atno 7974 bound_to 7965
  155.2188  140.3329  155.4318 H   0  0  0  0  0  0  0  0  0  0  0  0  # atno 8008 bound_to 7997
  156.2341  140.1864  156.7212 H   0  0  0  0  0  0  0  0  0  0  0  0  # atno 8009 bound_to 7997
  154.6029  140.0620  156.9378 H   0  0  0  0  0  0  0  0  0  0  0  0  # atno 8010 bound_to 7997
  139.4895  144.5776  151.6934 H   0  0  0  0  0  0  0  0  0  0  0  0  # atno 10167 bound_to 10162
  156.0795  130.5997  150.8702 H   0  0  0  0  0  0  0  0  0  0  0  0  # atno 10718 bound_to 10713
  154.8680  135.4149  154.2708 H   0  0  0  0  0  0  0  0  0  0  0  0  # atno 10763 bound_to 10752
  153.3618  135.7003  153.6711 H   0  0  0  0  0  0  0  0  0  0  0  0  # atno 10764 bound_to 10752
  153.5609  135.3610  155.2771 H   0  0  0  0  0  0  0  0  0  0  0  0  # atno 10765 bound_to 10752
  140.8101  134.2754  157.4944 H   0  0  0  0  0  0  0  0  0  0  0  0  # atno 11005 bound_to 11000
  145.3842  141.0363  143.3160 LP  0  0  0  0  0  0  0  0  0  0  0  0  # atno 17320 bound_to 7965
  144.8456  139.5402  143.6880 LP  0  0  0  0  0  0  0  0  0  0  0  0  # atno 17321 bound_to 7965
  140.5376  144.0631  150.6076 LP  0  0  0  0  0  0  0  0  0  0  0  0  # atno 17342 bound_to 10162
  140.3642  143.2890  152.0350 LP  0  0  0  0  0  0  0  0  0  0  0  0  # atno 17343 bound_to 10162
  157.5905  131.0944  150.9126 LP  0  0  0  0  0  0  0  0  0  0  0  0  # atno 17370 bound_to 10713
  156.9303  130.5347  149.5279 LP  0  0  0  0  0  0  0  0  0  0  0  0  # atno 17371 bound_to 10713
  139.8715  134.9478  156.3978 LP  0  0  0  0  0  0  0  0  0  0  0  0  # atno 17394 bound_to 11000
  140.9206  133.7647  155.9902 LP  0  0  0  0  0  0  0  0  0  0  0  0  # atno 17395 bound_to 11000

$$$$
