AV-unprocessed.smi:1833|AV-procd|sdf|7467|dock8
  -GOLD-   22720 9163D 1   1.00000     0.00000
 Structure written by MMmdl.
 42 43  0  0  0  0  0  0  0  0  2 V2000
  144.9670  132.7385  151.0669 C   0  0  0  0  0  0  0  0  0  0  0  0
  146.3252  133.4383  150.9121 C   0  0  0  0  0  0  0  0  0  0  0  0
  146.5122  134.5318  151.8981 N   0  3  1  0  0  0  0  0  0  0  0  0
  145.5660  135.6575  151.6819 C   0  0  0  0  0  0  0  0  0  0  0  0
  145.8808  136.8381  152.6172 C   0  0  0  0  0  0  0  0  0  0  0  0
  145.9083  136.3957  154.0899 C   0  0  0  0  0  0  0  0  0  0  0  0
  146.8534  135.1973  154.2873 C   0  0  2  0  0  0  0  0  0  0  0  0
  148.2421  135.6244  154.1138 N   0  0  0  0  0  0  0  0  0  0  0  0
  149.0294  136.1046  155.0861 C   0  0  0  0  0  0  0  0  0  0  0  0
  148.6811  136.2111  156.2617 O   0  0  0  0  0  0  0  0  0  0  0  0
  150.2336  136.4650  154.6194 N   0  0  0  0  0  0  0  0  0  0  0  0
  151.3058  137.0566  155.4165 C   0  0  0  0  0  0  0  0  0  0  0  0
  151.8446  138.3646  154.8058 C   0  0  0  0  0  0  0  0  0  0  0  0
  151.3305  139.6054  155.4626 C   0  0  0  0  0  0  0  0  0  0  0  0
  150.5873  140.5173  154.8296 N   0  0  0  0  0  0  0  0  0  0  0  0
  150.2670  141.6054  155.6449 C   0  0  0  0  0  0  0  0  0  0  0  0
  150.7836  141.5114  156.9121 C   0  0  0  0  0  0  0  0  0  0  0  0
  151.6964  140.0438  157.1294 S   0  0  0  0  0  0  0  0  0  0  0  0
  146.4736  134.0635  153.3092 C   0  0  0  0  0  0  0  0  0  0  0  0
  144.8942  131.8893  150.3872 H   0  0  0  0  0  0  0  0  0  0  0  0
  144.1332  133.4027  150.8419 H   0  0  0  0  0  0  0  0  0  0  0  0
  144.8318  132.3610  152.0809 H   0  0  0  0  0  0  0  0  0  0  0  0
  147.1022  132.6864  151.0561 H   0  0  0  0  0  0  0  0  0  0  0  0
  146.4508  133.8212  149.8982 H   0  0  0  0  0  0  0  0  0  0  0  0
  145.6254  135.9981  150.6473 H   0  0  0  0  0  0  0  0  0  0  0  0
  144.5440  135.3107  151.8430 H   0  0  0  0  0  0  0  0  0  0  0  0
  146.8428  137.2731  152.3436 H   0  0  0  0  0  0  0  0  0  0  0  0
  145.1403  137.6270  152.4814 H   0  0  0  0  0  0  0  0  0  0  0  0
  146.2036  137.2277  154.7307 H   0  0  0  0  0  0  0  0  0  0  0  0
  144.9008  136.1146  154.3991 H   0  0  0  0  0  0  0  0  0  0  0  0
  146.7379  134.8363  155.3109 H   0  0  0  0  0  0  0  0  0  0  0  0
  148.6159  135.5881  153.1766 H   0  0  0  0  0  0  0  0  0  0  0  0
  150.4193  136.3404  153.6348 H   0  0  0  0  0  0  0  0  0  0  0  0
  150.9730  137.2330  156.4407 H   0  0  0  0  0  0  0  0  0  0  0  0
  152.1148  136.3292  155.4840 H   0  0  0  0  0  0  0  0  0  0  0  0
  152.9340  138.3706  154.8582 H   0  0  0  0  0  0  0  0  0  0  0  0
  151.5907  138.4073  153.7462 H   0  0  0  0  0  0  0  0  0  0  0  0
  149.6659  142.4063  155.2403 H   0  0  0  0  0  0  0  0  0  0  0  0
  150.6831  142.2135  157.7262 H   0  0  0  0  0  0  0  0  0  0  0  0
  145.4723  133.6954  153.5389 H   0  0  0  0  0  0  0  0  0  0  0  0
  147.1453  133.2177  153.4495 H   0  0  0  0  0  0  0  0  0  0  0  0
  147.4370  134.9046  151.7373 H   0  0  0  0  0  0  0  0  0  0  0  0
  1  2  1  0  0  0  0
  1 20  1  0  0  0  0
  1 21  1  0  0  0  0
  1 22  1  0  0  0  0
  2  3  1  0  0  0  0
  2 23  1  0  0  0  0
  2 24  1  0  0  0  0
  3 19  1  0  0  0  0
  3  4  1  0  0  0  0
  3 42  1  0  0  0  0
  4  5  1  0  0  0  0
  4 25  1  0  0  0  0
  4 26  1  0  0  0  0
  5  6  1  0  0  0  0
  5 27  1  0  0  0  0
  5 28  1  0  0  0  0
  6  7  1  0  0  0  0
  6 29  1  0  0  0  0
  6 30  1  0  0  0  0
  7  8  1  0  0  0  0
  7 19  1  0  0  0  0
  7 31  1  0  0  0  0
  8  9  1  0  0  0  0
  8 32  1  0  0  0  0
  9 10  2  0  0  0  0
  9 11  1  0  0  0  0
 11 12  1  0  0  0  0
 11 33  1  0  0  0  0
 12 13  1  0  0  0  0
 12 34  1  0  0  0  0
 12 35  1  0  0  0  0
 13 14  1  0  0  0  0
 13 36  1  0  0  0  0
 13 37  1  0  0  0  0
 14 18  1  0  0  0  0
 14 15  2  0  0  0  0
 15 16  1  0  0  0  0
 16 17  2  0  0  0  0
 16 38  1  0  0  0  0
 17 18  1  0  0  0  0
 17 39  1  0  0  0  0
 19 40  1  0  0  0  0
 19 41  1  0  0  0  0
M  CHG  1   3   1
M  END
> <s_m_source_file>
AV-unprocessed.smi

> <i_m_source_file_index>
1833

> <i_lp_mmshare_version>
43012

> <i_f3d_flags>
0

> <s_epik_input>
W0NIM11bQ0gyXU4xW0NIMl1bQ0gyXVtDSDJdW0NASF0oW0NIMl0xKVtOSF1DKD1PKVtOSF1bQ0gyXVtDSDJdYzJuW2NIXVtjSF1zMg==

> <s_epik_cmdline>
J2VwaWtfcHl0aG9uJywgJy1waCcsICc3LjAnLCAnLXRuJywgJzgnLCAnLW1hJywgJzIwMCcsICctbWV0YWxfYmluZGluZycsICctaW1hZScsICc8aW5maWxlLm1hZT4nLCAnLW9tYWUnLCAnPG91dGZpbGUubWFlPic=

> <r_lp_tautomer_probability>
1

> <r_epik_Ionization_Penalty>
0.00269629

> <r_epik_Ionization_Penalty_Charging>
0.00233899

> <r_epik_Ionization_Penalty_Neutral>
0.000357304

> <r_epik_State_Penalty>
-0

> <r_epik_Charging_Adjusted_Penalty>
0.00233899

> <i_epik_Tot_Q>
1

> <i_epik_Tot_abs_Q>
1

> <r_epik_Metal_State_Penalty>
-0

> <b_epik_Metal_Only>
0

> <s_lp_Force_Field>
OPLS_2005

> <r_lp_Energy>
15.7918

> <b_lp_Chiralities_Consistent>
1

> <s_lp_Variant>
AV-unprocessed.smi:1833-3

> <Gold.Version>
5.8.1

> <Gold.Id.Protein>
6NUR|6NUR_protein|mol2

> <Gold.PLP.Fitness>
43.2980

> <Gold.PLP.PLP>
-29.6600

> <Gold.PLP.part.hbond>
-3.7744

> <Gold.PLP.part.metal>
0.0000

> <Gold.PLP.part.buried>
-3.9637

> <Gold.PLP.part.nonpolar>
-22.6560

> <Gold.PLP.part.repulsive>
0.2077

> <Gold.PLP.ligand.clash>
0.0000

> <Gold.PLP.ligand.torsion>
0.7203

> <Gold.PLP.Chemscore.Hbond>
4.0065

> <Gold.PLP.Chemscore.CHOScore>
1.0000

> <Gold.PLP.Chemscore.Metal>
0.0000

> <Gold.Chemscore.Hbonds>
donor molecule, donor type, donor heavy atom, donor atom, acceptor molecule, acceptor atom, score
      L1  H     3    42       P1  7948  2.00
      L1  H     8    32       P1  7948  0.88
      L1  H    11    33       P1  7948  0.10
      P1  H  7989  7998       L1    15  1.00
      L1  C    16    38       P1  8028  1.00

> <Gold.PLP.Chemscore.Internal.Correction>
0.0592

> <Gold.Rescore>
     Score         DG    S(hbond)    S(metal)    S(lipo)     H(rot)  DE(clash)    DE(int)     intcor
     17.43     -18.19       2.83        0.00      65.46       1.71       0.02       0.74       ----

> <Gold.Chemscore.Fitness>
17.4290

> <Gold.Chemscore.DG>
-18.1923

> <Gold.Chemscore.ZeroCoef>
-5.4800

> <Gold.Chemscore.Hbond>
2.8274

> <Gold.Chemscore.Metal>
0.0000

> <Gold.Chemscore.Lipo>
65.4568

> <Gold.Chemscore.Internal_Hbond>
0.0000

> <Gold.Chemscore.DEClash>
0.0234

> <Gold.Chemscore.DEInternal>
0.7399

> <Gold.Chemscore.Rot>
1.7147

> <Gold.Chemscore.Internal.Correction>
   9.000000E+99

> <Gold.Chemscore.Hbonds>
donor molecule, donor type, donor heavy atom, donor atom, acceptor molecule, acceptor atom, score
      L1  H     3    42       P1  7948  0.73
      L1  H     8    32       P1  7948  0.81
      P1  H  7989  7998       L1    15  0.22

> <Gold.Chemscore.Hbond.Weighted>
-9.4435

> <Gold.Chemscore.Metal.Weighted>
-0.0000

> <Gold.Chemscore.Lipo.Weighted>
-7.6584

> <Gold.Chemscore.Internal_Hbond.Weighted>
0.0000

> <Gold.Chemscore.DEClash.Weighted>
0.0234

> <Gold.Chemscore.DEInternal.Weighted>
0.7399

> <Gold.Chemscore.Rot.Weighted>
4.3896

> <Gold.Chemscore.Internal.Correction.Weighted>
   9.000000E+99

> <Gold.Protein.RotatedTorsions>
[ 6907 6896 6895 6894 ] final  -39.80 input  -60.11 | X-H torsion
[ 7974 7965 7964 7962 ] final -121.19 input  175.53 | X-H torsion
[ 8008 7997 7996 7995 ] final   72.45 input   59.86 | X-H torsion
[ 10167 10162 10161 10158 ] final  -62.57 input  -65.29 | X-H torsion
[ 10718 10713 10712 10709 ] final    6.21 input   66.30 | X-H torsion
[ 10763 10752 10751 10750 ] final  144.96 input  -60.55 | X-H torsion
[ 11005 11000 10999 10996 ] final  -24.52 input  -57.11 | X-H torsion

> <Gold.Protein.ActiveResidues>
 VAL166  LYS551  ARG553  GLY616  TRP617  ASP618  TYR619  PRO620  LYS621  CYS622 
 ASP623  PHE694  ASN695  SER759  ASP760  ASP761  ALA762  ILE779  LEU786  VAL792 
 PHE793  MET794  SER795  GLU796  ALA797  LYS798  CYS799  TRP800  GLU811  SER814 

> <Gold.Protein.RotatedAtoms>
  150.9861  134.9206  159.7871 H   0  0  0  0  0  0  0  0  0  0  0  0  # atno 6907 bound_to 6896
  152.5237  134.3345  159.9205 H   0  0  0  0  0  0  0  0  0  0  0  0  # atno 6908 bound_to 6896
  151.3352  133.3943  159.2700 H   0  0  0  0  0  0  0  0  0  0  0  0  # atno 6909 bound_to 6896
  145.0431  140.8160  143.4254 H   0  0  0  0  0  0  0  0  0  0  0  0  # atno 7974 bound_to 7965
  155.7690  140.3485  155.5237 H   0  0  0  0  0  0  0  0  0  0  0  0  # atno 8008 bound_to 7997
  155.8840  140.1007  157.1486 H   0  0  0  0  0  0  0  0  0  0  0  0  # atno 8009 bound_to 7997
  154.4027  140.1317  156.4220 H   0  0  0  0  0  0  0  0  0  0  0  0  # atno 8010 bound_to 7997
  140.5930  143.2345  151.6098 H   0  0  0  0  0  0  0  0  0  0  0  0  # atno 10167 bound_to 10162
  156.9188  130.5783  149.5647 H   0  0  0  0  0  0  0  0  0  0  0  0  # atno 10718 bound_to 10713
  153.9975  135.2926  155.3406 H   0  0  0  0  0  0  0  0  0  0  0  0  # atno 10763 bound_to 10752
  154.7179  135.5122  153.8769 H   0  0  0  0  0  0  0  0  0  0  0  0  # atno 10764 bound_to 10752
  153.0781  135.6670  154.0220 H   0  0  0  0  0  0  0  0  0  0  0  0  # atno 10765 bound_to 10752
  140.8852  133.7626  156.0352 H   0  0  0  0  0  0  0  0  0  0  0  0  # atno 11005 bound_to 11000
  145.1622  139.2452  143.5385 LP  0  0  0  0  0  0  0  0  0  0  0  0  # atno 17320 bound_to 7965
  146.3511  140.1352  142.8596 LP  0  0  0  0  0  0  0  0  0  0  0  0  # atno 17321 bound_to 7965
  139.5239  144.3118  152.0986 LP  0  0  0  0  0  0  0  0  0  0  0  0  # atno 17342 bound_to 10162
  140.2285  144.4392  150.6310 LP  0  0  0  0  0  0  0  0  0  0  0  0  # atno 17343 bound_to 10162
  156.0501  130.5571  150.8969 LP  0  0  0  0  0  0  0  0  0  0  0  0  # atno 17370 bound_to 10713
  157.5921  131.0944  150.9102 LP  0  0  0  0  0  0  0  0  0  0  0  0  # atno 17371 bound_to 10713
  140.8413  134.3063  157.5312 LP  0  0  0  0  0  0  0  0  0  0  0  0  # atno 17394 bound_to 11000
  139.8723  134.9417  156.3806 LP  0  0  0  0  0  0  0  0  0  0  0  0  # atno 17395 bound_to 11000

$$$$
