AV-unprocessed.smi:2106|AV-procd|sdf|8596|dock10
  -GOLD-   2272011333D 1   1.00000     0.00000
 Structure written by MMmdl.
 48 49  0  0  0  0  0  0  0  0  2 V2000
  154.1627  141.3546  161.0612 C   0  0  0  0  0  0  0  0  0  0  0  0
  153.2903  142.4040  160.4383 C   0  0  0  0  0  0  0  0  0  0  0  0
  152.7565  143.5767  161.0417 C   0  0  0  0  0  0  0  0  0  0  0  0
  152.0423  144.1757  160.0428 C   0  0  0  0  0  0  0  0  0  0  0  0
  151.2499  145.4413  160.0533 C   0  0  0  0  0  0  0  0  0  0  0  0
  152.1691  143.3734  158.9223 N   0  0  0  0  0  0  0  0  0  0  0  0
  151.6159  143.5618  157.5905 C   0  0  0  0  0  0  0  0  0  0  0  0
  150.9621  142.2767  157.0804 C   0  0  0  0  0  0  0  0  0  0  0  0
  150.9640  141.2642  157.7803 O   0  0  0  0  0  0  0  0  0  0  0  0
  150.4030  142.3306  155.8613 N   0  0  0  0  0  0  0  0  0  0  0  0
  149.6937  141.2322  155.2155 C   0  0  0  0  0  0  0  0  0  0  0  0
  148.5126  141.7356  154.3620 C   0  0  0  0  0  0  0  0  0  0  0  0
  147.4301  142.3396  155.1788 N   0  3  1  0  0  0  0  0  0  0  0  0
  146.3801  142.9656  154.3401 C   0  0  0  0  0  0  0  0  0  0  0  0
  145.3042  143.6304  155.2194 C   0  0  1  0  0  0  0  0  0  0  0  0
  144.1578  144.2161  154.3877 C   0  0  0  0  0  0  0  0  0  0  0  0
  144.7571  142.6551  156.0994 O   0  0  0  0  0  0  0  0  0  0  0  0
  145.7306  142.1041  156.9790 C   0  0  1  0  0  0  0  0  0  0  0  0
  145.0186  141.1416  157.9362 C   0  0  0  0  0  0  0  0  0  0  0  0
  146.8184  141.3972  156.1485 C   0  0  0  0  0  0  0  0  0  0  0  0
  152.9351  142.2877  159.1693 N   0  0  0  0  0  0  0  0  0  0  0  0
  154.3362  141.5633  162.1171 H   0  0  0  0  0  0  0  0  0  0  0  0
  155.1341  141.3089  160.5687 H   0  0  0  0  0  0  0  0  0  0  0  0
  153.7040  140.3681  160.9894 H   0  0  0  0  0  0  0  0  0  0  0  0
  152.8801  143.9264  162.0560 H   0  0  0  0  0  0  0  0  0  0  0  0
  151.3035  145.9251  161.0287 H   0  0  0  0  0  0  0  0  0  0  0  0
  150.2002  145.2451  159.8344 H   0  0  0  0  0  0  0  0  0  0  0  0
  151.6270  146.1440  159.3106 H   0  0  0  0  0  0  0  0  0  0  0  0
  150.8883  144.3752  157.6117 H   0  0  0  0  0  0  0  0  0  0  0  0
  152.4113  143.8700  156.9113 H   0  0  0  0  0  0  0  0  0  0  0  0
  150.4452  143.2073  155.3610 H   0  0  0  0  0  0  0  0  0  0  0  0
  150.4052  140.6612  154.6186 H   0  0  0  0  0  0  0  0  0  0  0  0
  149.3304  140.5608  155.9940 H   0  0  0  0  0  0  0  0  0  0  0  0
  148.8926  142.4859  153.6667 H   0  0  0  0  0  0  0  0  0  0  0  0
  148.0979  140.9320  153.7517 H   0  0  0  0  0  0  0  0  0  0  0  0
  146.8295  143.7119  153.6838 H   0  0  0  0  0  0  0  0  0  0  0  0
  145.9273  142.2065  153.6997 H   0  0  0  0  0  0  0  0  0  0  0  0
  145.7529  144.4336  155.8068 H   0  0  0  0  0  0  0  0  0  0  0  0
  144.5221  144.9763  153.6963 H   0  0  0  0  0  0  0  0  0  0  0  0
  143.4100  144.6825  155.0295 H   0  0  0  0  0  0  0  0  0  0  0  0
  143.6585  143.4430  153.8027 H   0  0  0  0  0  0  0  0  0  0  0  0
  146.1796  142.9073  157.5662 H   0  0  0  0  0  0  0  0  0  0  0  0
  145.7216  140.6968  158.6408 H   0  0  0  0  0  0  0  0  0  0  0  0
  144.5319  140.3311  157.3927 H   0  0  0  0  0  0  0  0  0  0  0  0
  144.2540  141.6613  158.5141 H   0  0  0  0  0  0  0  0  0  0  0  0
  146.3899  140.5496  155.6109 H   0  0  0  0  0  0  0  0  0  0  0  0
  147.5758  140.9979  156.8220 H   0  0  0  0  0  0  0  0  0  0  0  0
  147.8504  143.0862  155.7138 H   0  0  0  0  0  0  0  0  0  0  0  0
  1  2  1  0  0  0  0
  1 22  1  0  0  0  0
  1 23  1  0  0  0  0
  1 24  1  0  0  0  0
  2 21  2  0  0  0  0
  2  3  1  0  0  0  0
  3  4  2  0  0  0  0
  3 25  1  0  0  0  0
  4  5  1  0  0  0  0
  4  6  1  0  0  0  0
  5 26  1  0  0  0  0
  5 27  1  0  0  0  0
  5 28  1  0  0  0  0
  6  7  1  0  0  0  0
  6 21  1  0  0  0  0
  7  8  1  0  0  0  0
  7 29  1  0  0  0  0
  7 30  1  0  0  0  0
  8  9  2  0  0  0  0
  8 10  1  0  0  0  0
 10 11  1  0  0  0  0
 10 31  1  0  0  0  0
 11 12  1  0  0  0  0
 11 32  1  0  0  0  0
 11 33  1  0  0  0  0
 12 13  1  0  0  0  0
 12 34  1  0  0  0  0
 12 35  1  0  0  0  0
 13 20  1  0  0  0  0
 13 14  1  0  0  0  0
 13 48  1  0  0  0  0
 14 15  1  0  0  0  0
 14 36  1  0  0  0  0
 14 37  1  0  0  0  0
 15 16  1  0  0  0  0
 15 17  1  0  0  0  0
 15 38  1  0  0  0  0
 16 39  1  0  0  0  0
 16 40  1  0  0  0  0
 16 41  1  0  0  0  0
 17 18  1  0  0  0  0
 18 19  1  0  0  0  0
 18 20  1  0  0  0  0
 18 42  1  0  0  0  0
 19 43  1  0  0  0  0
 19 44  1  0  0  0  0
 19 45  1  0  0  0  0
 20 46  1  0  0  0  0
 20 47  1  0  0  0  0
M  CHG  1  13   1
M  END
> <s_m_source_file>
AV-unprocessed.smi

> <i_m_source_file_index>
2106

> <i_lp_mmshare_version>
43012

> <i_f3d_flags>
0

> <s_epik_input>
W0NIM11jMVtjSF1jKFtDSDNdKW4objEpW0NIMl1DKD1PKVtOSF1bQ0gyXVtDSDJdTjJbQ0gyXVtDQEBIXShbQ0gzXSlPW0NAQEhdKFtDSDNdKVtDSDJdMg==

> <s_epik_cmdline>
J2VwaWtfcHl0aG9uJywgJy1waCcsICc3LjAnLCAnLXRuJywgJzgnLCAnLW1hJywgJzIwMCcsICctbWV0YWxfYmluZGluZycsICctaW1hZScsICc8aW5maWxlLm1hZT4nLCAnLW9tYWUnLCAnPG91dGZpbGUubWFlPic=

> <r_lp_tautomer_probability>
1

> <r_epik_Ionization_Penalty>
0.748586

> <r_epik_Ionization_Penalty_Charging>
0.748396

> <r_epik_Ionization_Penalty_Neutral>
0.000189656

> <r_epik_State_Penalty>
0.775162

> <r_epik_Charging_Adjusted_Penalty>
1.52356

> <i_epik_Tot_Q>
1

> <i_epik_Tot_abs_Q>
1

> <r_epik_Metal_State_Penalty>
0.775295

> <b_epik_Metal_Only>
0

> <s_lp_Force_Field>
OPLS_2005

> <r_lp_Energy>
12.4658

> <b_lp_Chiralities_Consistent>
1

> <s_lp_Variant>
AV-unprocessed.smi:2106-4

> <Gold.Version>
5.8.1

> <Gold.Id.Protein>
6NUR|6NUR_protein|mol2

> <Gold.PLP.Fitness>
51.6216

> <Gold.PLP.PLP>
-45.8739

> <Gold.PLP.part.hbond>
-2.0000

> <Gold.PLP.part.metal>
0.0000

> <Gold.PLP.part.buried>
-3.9540

> <Gold.PLP.part.nonpolar>
-38.9666

> <Gold.PLP.part.repulsive>
0.4022

> <Gold.PLP.ligand.clash>
0.0000

> <Gold.PLP.ligand.torsion>
0.3347

> <Gold.PLP.Chemscore.Hbond>
2.1310

> <Gold.PLP.Chemscore.CHOScore>
0.0000

> <Gold.PLP.Chemscore.Metal>
0.0000

> <Gold.Chemscore.Hbonds>
donor molecule, donor type, donor heavy atom, donor atom, acceptor molecule, acceptor atom, score
      L1  H    10    31       P1  8028  0.26
      L1  H    13    48       P1  8028  1.82

> <Gold.PLP.Chemscore.Internal.Correction>
0.0240

> <Gold.Rescore>
     Score         DG    S(hbond)    S(metal)    S(lipo)     H(rot)  DE(clash)    DE(int)     intcor
     14.67     -17.01       0.93        0.00     110.05       1.73       0.45       1.89       ----

> <Gold.Chemscore.Fitness>
14.6688

> <Gold.Chemscore.DG>
-17.0149

> <Gold.Chemscore.ZeroCoef>
-5.4800

> <Gold.Chemscore.Hbond>
0.9257

> <Gold.Chemscore.Metal>
0.0000

> <Gold.Chemscore.Lipo>
110.0524

> <Gold.Chemscore.Internal_Hbond>
0.0000

> <Gold.Chemscore.DEClash>
0.4536

> <Gold.Chemscore.DEInternal>
1.8926

> <Gold.Chemscore.Rot>
1.7316

> <Gold.Chemscore.Internal.Correction>
   9.000000E+99

> <Gold.Chemscore.Hbonds>
donor molecule, donor type, donor heavy atom, donor atom, acceptor molecule, acceptor atom, score
      L1  H    10    31       P1  8028  0.26
      L1  H    13    48       P1  8028  0.45

> <Gold.Chemscore.Hbond.Weighted>
-3.0918

> <Gold.Chemscore.Metal.Weighted>
-0.0000

> <Gold.Chemscore.Lipo.Weighted>
-12.8761

> <Gold.Chemscore.Internal_Hbond.Weighted>
0.0000

> <Gold.Chemscore.DEClash.Weighted>
0.4536

> <Gold.Chemscore.DEInternal.Weighted>
1.8926

> <Gold.Chemscore.Rot.Weighted>
4.4330

> <Gold.Chemscore.Internal.Correction.Weighted>
   9.000000E+99

> <Gold.Protein.RotatedTorsions>
[ 6907 6896 6895 6894 ] final -139.88 input  -60.11 | X-H torsion
[ 7974 7965 7964 7962 ] final -125.98 input  175.53 | X-H torsion
[ 8008 7997 7996 7995 ] final  -27.11 input   59.86 | X-H torsion
[ 10167 10162 10161 10158 ] final -175.03 input  -65.29 | X-H torsion
[ 10718 10713 10712 10709 ] final   -7.10 input   66.30 | X-H torsion
[ 10763 10752 10751 10750 ] final   76.43 input  -60.55 | X-H torsion
[ 11005 11000 10999 10996 ] final   10.61 input  -57.11 | X-H torsion

> <Gold.Protein.ActiveResidues>
 VAL166  LYS551  ARG553  GLY616  TRP617  ASP618  TYR619  PRO620  LYS621  CYS622 
 ASP623  PHE694  ASN695  SER759  ASP760  ASP761  ALA762  ILE779  LEU786  VAL792 
 PHE793  MET794  SER795  GLU796  ALA797  LYS798  CYS799  TRP800  GLU811  SER814 

> <Gold.Protein.RotatedAtoms>
  151.0535  133.5604  159.2640 H   0  0  0  0  0  0  0  0  0  0  0  0  # atno 6907 bound_to 6896
  151.2606  135.0652  159.9106 H   0  0  0  0  0  0  0  0  0  0  0  0  # atno 6908 bound_to 6896
  152.5386  134.0281  159.8066 H   0  0  0  0  0  0  0  0  0  0  0  0  # atno 6909 bound_to 6896
  144.9920  140.7740  143.4548 H   0  0  0  0  0  0  0  0  0  0  0  0  # atno 7974 bound_to 7965
  154.4392  140.1881  156.0881 H   0  0  0  0  0  0  0  0  0  0  0  0  # atno 8008 bound_to 7997
  156.0387  140.3322  155.7193 H   0  0  0  0  0  0  0  0  0  0  0  0  # atno 8009 bound_to 7997
  155.5732  140.0614  157.2792 H   0  0  0  0  0  0  0  0  0  0  0  0  # atno 8010 bound_to 7997
  139.5602  144.1888  152.1226 H   0  0  0  0  0  0  0  0  0  0  0  0  # atno 10167 bound_to 10162
  156.7221  130.5154  149.5865 H   0  0  0  0  0  0  0  0  0  0  0  0  # atno 10718 bound_to 10713
  153.0725  135.4952  154.8334 H   0  0  0  0  0  0  0  0  0  0  0  0  # atno 10763 bound_to 10752
  154.7042  135.3007  154.9298 H   0  0  0  0  0  0  0  0  0  0  0  0  # atno 10764 bound_to 10752
  154.0012  135.6766  153.4812 H   0  0  0  0  0  0  0  0  0  0  0  0  # atno 10765 bound_to 10752
  140.5125  134.0638  155.7822 H   0  0  0  0  0  0  0  0  0  0  0  0  # atno 11005 bound_to 11000
  145.2273  139.2131  143.5061 LP  0  0  0  0  0  0  0  0  0  0  0  0  # atno 17320 bound_to 7965
  146.3433  140.2142  142.8590 LP  0  0  0  0  0  0  0  0  0  0  0  0  # atno 17321 bound_to 7965
  140.1400  144.5210  150.6750 LP  0  0  0  0  0  0  0  0  0  0  0  0  # atno 17342 bound_to 10162
  140.6881  143.2361  151.5206 LP  0  0  0  0  0  0  0  0  0  0  0  0  # atno 17343 bound_to 10162
  156.1587  130.6359  151.0691 LP  0  0  0  0  0  0  0  0  0  0  0  0  # atno 17370 bound_to 10713
  157.6893  131.0815  150.7152 LP  0  0  0  0  0  0  0  0  0  0  0  0  # atno 17371 bound_to 10713
  141.1378  133.9191  157.2395 LP  0  0  0  0  0  0  0  0  0  0  0  0  # atno 17394 bound_to 11000
  139.9651  135.0144  156.9365 LP  0  0  0  0  0  0  0  0  0  0  0  0  # atno 17395 bound_to 11000

$$$$
