AV-unprocessed.smi:1679|AV-procd|sdf|6730|dock10
  -GOLD-   22720 7473D 1   1.00000     0.00000
 Structure written by MMmdl.
 45 46  0  0  0  0  0  0  0  0  1 V2000
  151.2969  145.4814  159.4641 C   0  0  0  0  0  0  0  0  0  0  0  0
  152.2724  144.3874  159.9257 C   0  0  1  0  0  0  0  0  0  0  0  0
  151.9834  143.9400  161.3745 C   0  0  0  0  0  0  0  0  0  0  0  0
  152.9866  142.8756  161.8484 C   0  0  0  0  0  0  0  0  0  0  0  0
  153.0313  141.6762  160.8892 C   0  0  0  0  0  0  0  0  0  0  0  0
  153.3147  142.1272  159.4482 C   0  0  0  0  0  0  0  0  0  0  0  0
  152.2843  143.1734  158.9687 C   0  0  1  0  0  0  0  0  0  0  0  0
  150.9602  142.6535  158.9386 O   0  0  0  0  0  0  0  0  0  0  0  0
  150.7456  141.4939  158.1489 C   0  0  0  0  0  0  0  0  0  0  0  0
  151.0559  141.8313  156.6817 C   0  0  0  0  0  0  0  0  0  0  0  0
  149.8354  142.0057  155.8987 N   0  0  0  0  0  0  0  0  0  0  0  0
  149.4883  141.2530  154.8420 C   0  0  0  0  0  0  0  0  0  0  0  0
  150.1515  140.2904  154.4533 O   0  0  0  0  0  0  0  0  0  0  0  0
  148.1873  141.6271  154.1212 C   0  0  0  0  0  0  0  0  0  0  0  0
  147.2401  140.5034  154.1082 N   0  0  0  0  0  0  0  0  0  0  0  0
  147.4621  139.4082  153.2853 C   0  0  0  0  0  0  0  0  0  0  0  0
  146.6045  138.3651  153.1846 C   0  0  0  0  0  0  0  0  0  0  0  0
  145.3694  138.3472  153.9609 C   0  0  0  0  0  0  0  0  0  0  0  0
  144.5275  137.4522  153.9345 O   0  0  0  0  0  0  0  0  0  0  0  0
  145.1849  139.4637  154.7803 N   0  0  0  0  0  0  0  0  0  0  0  0
  146.0655  140.5406  154.8901 C   0  0  0  0  0  0  0  0  0  0  0  0
  145.8032  141.4778  155.6425 O   0  0  0  0  0  0  0  0  0  0  0  0
  144.3429  139.4952  155.3367 H   0  0  0  0  0  0  0  0  0  0  0  0
  150.2647  145.1299  159.4805 H   0  0  0  0  0  0  0  0  0  0  0  0
  151.5226  145.8059  158.4481 H   0  0  0  0  0  0  0  0  0  0  0  0
  151.3568  146.3570  160.1107 H   0  0  0  0  0  0  0  0  0  0  0  0
  153.2706  144.8271  159.9107 H   0  0  0  0  0  0  0  0  0  0  0  0
  152.0199  144.7978  162.0463 H   0  0  0  0  0  0  0  0  0  0  0  0
  150.9702  143.5420  161.4444 H   0  0  0  0  0  0  0  0  0  0  0  0
  153.9799  143.3198  161.9209 H   0  0  0  0  0  0  0  0  0  0  0  0
  152.7258  142.5391  162.8519 H   0  0  0  0  0  0  0  0  0  0  0  0
  153.7933  140.9680  161.2151 H   0  0  0  0  0  0  0  0  0  0  0  0
  152.0813  141.1431  160.9199 H   0  0  0  0  0  0  0  0  0  0  0  0
  154.3129  142.5644  159.4027 H   0  0  0  0  0  0  0  0  0  0  0  0
  153.3431  141.2662  158.7812 H   0  0  0  0  0  0  0  0  0  0  0  0
  152.5521  143.5113  157.9664 H   0  0  0  0  0  0  0  0  0  0  0  0
  151.3952  140.6849  158.4854 H   0  0  0  0  0  0  0  0  0  0  0  0
  149.7149  141.1509  158.2387 H   0  0  0  0  0  0  0  0  0  0  0  0
  151.6837  142.7219  156.6211 H   0  0  0  0  0  0  0  0  0  0  0  0
  151.6308  141.0201  156.2345 H   0  0  0  0  0  0  0  0  0  0  0  0
  149.2312  142.7726  156.1562 H   0  0  0  0  0  0  0  0  0  0  0  0
  147.7457  142.4813  154.6365 H   0  0  0  0  0  0  0  0  0  0  0  0
  148.3943  141.9792  153.1085 H   0  0  0  0  0  0  0  0  0  0  0  0
  148.3601  139.3848  152.6842 H   0  0  0  0  0  0  0  0  0  0  0  0
  146.8314  137.5423  152.5220 H   0  0  0  0  0  0  0  0  0  0  0  0
  1  2  1  0  0  0  0
  1 24  1  0  0  0  0
  1 25  1  0  0  0  0
  1 26  1  0  0  0  0
  2  7  1  0  0  0  0
  2  3  1  0  0  0  0
  2 27  1  0  0  0  0
  3  4  1  0  0  0  0
  3 28  1  0  0  0  0
  3 29  1  0  0  0  0
  4  5  1  0  0  0  0
  4 30  1  0  0  0  0
  4 31  1  0  0  0  0
  5  6  1  0  0  0  0
  5 32  1  0  0  0  0
  5 33  1  0  0  0  0
  6  7  1  0  0  0  0
  6 34  1  0  0  0  0
  6 35  1  0  0  0  0
  7  8  1  0  0  0  0
  7 36  1  0  0  0  0
  8  9  1  0  0  0  0
  9 10  1  0  0  0  0
  9 37  1  0  0  0  0
  9 38  1  0  0  0  0
 10 11  1  0  0  0  0
 10 39  1  0  0  0  0
 10 40  1  0  0  0  0
 11 12  1  0  0  0  0
 11 41  1  0  0  0  0
 12 13  2  0  0  0  0
 12 14  1  0  0  0  0
 14 15  1  0  0  0  0
 14 42  1  0  0  0  0
 14 43  1  0  0  0  0
 15 21  1  0  0  0  0
 15 16  1  0  0  0  0
 16 17  2  0  0  0  0
 16 44  1  0  0  0  0
 17 18  1  0  0  0  0
 17 45  1  0  0  0  0
 18 19  2  0  0  0  0
 18 20  1  0  0  0  0
 20 23  1  0  0  0  0
 20 21  1  0  0  0  0
 21 22  2  0  0  0  0
M  END
> <s_m_source_file>
AV-unprocessed.smi

> <i_m_source_file_index>
1679

> <i_lp_mmshare_version>
43012

> <i_f3d_flags>
0

> <s_epik_input>
W0NIM11bQ0BASF0xW0NIMl1bQ0gyXVtDSDJdW0NIMl1bQ0BIXTFPW0NIMl1bQ0gyXVtOSF1DKD1PKVtDSDJdbjJbY0hdW2NIXWMoPU8pW25IXWMyPU8=

> <s_epik_cmdline>
J2VwaWtfcHl0aG9uJywgJy1waCcsICc3LjAnLCAnLXRuJywgJzgnLCAnLW1hJywgJzIwMCcsICctbWV0YWxfYmluZGluZycsICctaW1hZScsICc8aW5maWxlLm1hZT4nLCAnLW9tYWUnLCAnPG91dGZpbGUubWFlPic=

> <r_lp_tautomer_probability>
0.999537

> <r_epik_Ionization_Penalty>
0.0033132

> <r_epik_Ionization_Penalty_Charging>
0.00331317

> <r_epik_Ionization_Penalty_Neutral>
2.78599e-08

> <r_epik_State_Penalty>
0.002342

> <r_epik_Charging_Adjusted_Penalty>
0.00565517

> <i_epik_Tot_Q>
0

> <i_epik_Tot_abs_Q>
0

> <r_epik_Metal_State_Penalty>
0.365595

> <b_epik_Metal_Only>
0

> <s_lp_Force_Field>
OPLS_2005

> <r_lp_Energy>
9.24545

> <b_lp_Chiralities_Consistent>
1

> <s_lp_Variant>
AV-unprocessed.smi:1679-2

> <Gold.Version>
5.8.1

> <Gold.Id.Protein>
6NUR|6NUR_protein|mol2

> <Gold.PLP.Fitness>
53.9187

> <Gold.PLP.PLP>
-46.2196

> <Gold.PLP.part.hbond>
-3.0000

> <Gold.PLP.part.metal>
0.0000

> <Gold.PLP.part.buried>
-3.1542

> <Gold.PLP.part.nonpolar>
-39.9745

> <Gold.PLP.part.repulsive>
0.4831

> <Gold.PLP.ligand.clash>
0.0000

> <Gold.PLP.ligand.torsion>
0.4501

> <Gold.PLP.Chemscore.Hbond>
1.8320

> <Gold.PLP.Chemscore.CHOScore>
1.0000

> <Gold.PLP.Chemscore.Metal>
0.0000

> <Gold.Chemscore.Hbonds>
donor molecule, donor type, donor heavy atom, donor atom, acceptor molecule, acceptor atom, score
      L1  H    11    41       P1  8028  0.78
      P1  H  7989  7998       L1    13  0.99
      L1  C    16    44       P1  7957  1.00

> <Gold.PLP.Chemscore.Internal.Correction>
0.1032

> <Gold.Rescore>
     Score         DG    S(hbond)    S(metal)    S(lipo)     H(rot)  DE(clash)    DE(int)     intcor
     17.02     -17.62       1.55        0.00     114.73       2.52       0.08       0.51       ----

> <Gold.Chemscore.Fitness>
17.0245

> <Gold.Chemscore.DG>
-17.6213

> <Gold.Chemscore.ZeroCoef>
-5.4800

> <Gold.Chemscore.Hbond>
1.5464

> <Gold.Chemscore.Metal>
0.0000

> <Gold.Chemscore.Lipo>
114.7311

> <Gold.Chemscore.Internal_Hbond>
0.0000

> <Gold.Chemscore.DEClash>
0.0833

> <Gold.Chemscore.DEInternal>
0.5136

> <Gold.Chemscore.Rot>
2.5185

> <Gold.Chemscore.Internal.Correction>
   9.000000E+99

> <Gold.Chemscore.Hbonds>
donor molecule, donor type, donor heavy atom, donor atom, acceptor molecule, acceptor atom, score
      L1  H    11    41       P1  8028  0.73
      P1  H  7989  7998       L1    13  0.70

> <Gold.Chemscore.Hbond.Weighted>
-5.1650

> <Gold.Chemscore.Metal.Weighted>
-0.0000

> <Gold.Chemscore.Lipo.Weighted>
-13.4235

> <Gold.Chemscore.Internal_Hbond.Weighted>
0.0000

> <Gold.Chemscore.DEClash.Weighted>
0.0833

> <Gold.Chemscore.DEInternal.Weighted>
0.5136

> <Gold.Chemscore.Rot.Weighted>
6.4472

> <Gold.Chemscore.Internal.Correction.Weighted>
   9.000000E+99

> <Gold.Protein.RotatedTorsions>
[ 6907 6896 6895 6894 ] final  -12.39 input  -60.11 | X-H torsion
[ 7974 7965 7964 7962 ] final  -80.21 input  175.53 | X-H torsion
[ 8008 7997 7996 7995 ] final -171.49 input   59.86 | X-H torsion
[ 10167 10162 10161 10158 ] final  165.71 input  -65.29 | X-H torsion
[ 10718 10713 10712 10709 ] final   63.11 input   66.30 | X-H torsion
[ 10763 10752 10751 10750 ] final   10.51 input  -60.55 | X-H torsion
[ 11005 11000 10999 10996 ] final  -76.14 input  -57.11 | X-H torsion

> <Gold.Protein.ActiveResidues>
 VAL166  LYS551  ARG553  GLY616  TRP617  ASP618  TYR619  PRO620  LYS621  CYS622 
 ASP623  PHE694  ASN695  SER759  ASP760  ASP761  ALA762  ILE779  LEU786  VAL792 
 PHE793  MET794  SER795  GLU796  ALA797  LYS798  CYS799  TRP800  GLU811  SER814 

> <Gold.Protein.RotatedAtoms>
  151.3712  135.0923  159.9465 H   0  0  0  0  0  0  0  0  0  0  0  0  # atno 6907 bound_to 6896
  152.5135  133.9163  159.7523 H   0  0  0  0  0  0  0  0  0  0  0  0  # atno 6908 bound_to 6896
  150.9577  133.6425  159.2789 H   0  0  0  0  0  0  0  0  0  0  0  0  # atno 6909 bound_to 6896
  145.5629  140.9479  143.1437 H   0  0  0  0  0  0  0  0  0  0  0  0  # atno 7974 bound_to 7965
  155.9323  140.1093  157.1122 H   0  0  0  0  0  0  0  0  0  0  0  0  # atno 8008 bound_to 7997
  154.4073  140.1235  156.4884 H   0  0  0  0  0  0  0  0  0  0  0  0  # atno 8009 bound_to 7997
  155.7065  140.3471  155.4957 H   0  0  0  0  0  0  0  0  0  0  0  0  # atno 8010 bound_to 7997
  139.4911  144.4103  151.9307 H   0  0  0  0  0  0  0  0  0  0  0  0  # atno 10167 bound_to 10162
  157.5948  130.9087  149.9674 H   0  0  0  0  0  0  0  0  0  0  0  0  # atno 10718 bound_to 10713
  153.2024  135.6858  153.8214 H   0  0  0  0  0  0  0  0  0  0  0  0  # atno 10763 bound_to 10752
  153.7475  135.3229  155.3316 H   0  0  0  0  0  0  0  0  0  0  0  0  # atno 10764 bound_to 10752
  154.8179  135.4673  154.0797 H   0  0  0  0  0  0  0  0  0  0  0  0  # atno 10765 bound_to 10752
  141.1651  133.6972  156.7623 H   0  0  0  0  0  0  0  0  0  0  0  0  # atno 11005 bound_to 11000
  144.7474  139.7283  143.7287 LP  0  0  0  0  0  0  0  0  0  0  0  0  # atno 17320 bound_to 7965
  146.1838  139.5044  142.9849 LP  0  0  0  0  0  0  0  0  0  0  0  0  # atno 17321 bound_to 7965
  140.3544  144.3049  150.5943 LP  0  0  0  0  0  0  0  0  0  0  0  0  # atno 17342 bound_to 10162
  140.5457  143.2215  151.8011 LP  0  0  0  0  0  0  0  0  0  0  0  0  # atno 17343 bound_to 10162
  156.1009  130.3656  150.0220 LP  0  0  0  0  0  0  0  0  0  0  0  0  # atno 17370 bound_to 10713
  156.8335  130.9401  151.3636 LP  0  0  0  0  0  0  0  0  0  0  0  0  # atno 17371 bound_to 10713
  140.2524  134.8530  157.3680 LP  0  0  0  0  0  0  0  0  0  0  0  0  # atno 17394 bound_to 11000
  140.1689  134.4633  155.7844 LP  0  0  0  0  0  0  0  0  0  0  0  0  # atno 17395 bound_to 11000

$$$$
