AV-unprocessed.smi:231|AV-procd|sdf|1765|dock3
  -GOLD-   2262020303D 1   1.00000     0.00000
 Structure written by MMmdl.
 50 53  0  0  0  0  0  0  0  0  1 V2000
  146.8489  142.0183  153.8083 C   0  0  0  0  0  0  0  0  0  0  0  0
  147.8639  140.8643  153.7847 C   0  0  0  0  0  0  0  0  0  0  0  0
  147.8700  140.0825  155.0298 N   0  0  0  0  0  0  0  0  0  0  0  0
  147.3693  138.8205  154.9830 C   0  0  0  0  0  0  0  0  0  0  0  0
  147.3977  138.0335  156.0911 N   0  0  0  0  0  0  0  0  0  0  0  0
  146.8876  136.7990  156.0530 C   0  0  0  0  0  0  0  0  0  0  0  0
  146.3090  136.1660  155.0304 N   0  0  0  0  0  0  0  0  0  0  0  0
  146.2779  136.9521  153.9162 C   0  0  0  0  0  0  0  0  0  0  0  0
  146.7853  138.2766  153.8057 C   0  0  0  0  0  0  0  0  0  0  0  0
  146.5947  138.7520  152.5139 N   0  0  0  0  0  0  0  0  0  0  0  0
  146.0085  137.7629  151.8956 C   0  0  0  0  0  0  0  0  0  0  0  0
  145.7570  136.6521  152.6704 N   0  0  0  0  0  0  0  0  0  0  0  0
  145.1547  135.4193  152.2549 C   0  0  0  0  0  0  0  0  0  0  0  0
  145.8662  134.0726  152.4264 C   0  0  0  0  0  0  0  0  0  0  0  0
  145.1974  133.5691  151.1260 C   0  0  0  0  0  0  0  0  0  0  0  0
  146.0674  132.7012  150.1953 C   0  0  0  0  0  0  0  0  0  0  0  0
  146.3668  131.4368  150.7527 O   0  0  0  0  0  0  0  0  0  0  0  0
  143.8739  132.8124  151.3493 C   0  0  0  0  0  0  0  0  0  0  0  0
  143.2317  132.5146  150.1258 O   0  0  0  0  0  0  0  0  0  0  0  0
  145.0513  135.0665  150.7685 C   0  0  0  0  0  0  0  0  0  0  0  0
  148.9578  140.2484  156.0070 C   0  0  2  0  0  0  0  0  0  0  0  0
  148.7679  141.4856  156.9015 C   0  0  0  0  0  0  0  0  0  0  0  0
  150.1890  142.0217  157.1362 C   0  0  0  0  0  0  0  0  0  0  0  0
  150.9802  141.4382  156.0684 N   0  0  0  0  0  0  0  0  0  0  0  0
  150.3419  140.4745  155.4059 C   0  0  0  0  0  0  0  0  0  0  0  0
  150.7940  139.8330  154.4595 O   0  0  0  0  0  0  0  0  0  0  0  0
  146.9083  142.6015  152.8893 H   0  0  0  0  0  0  0  0  0  0  0  0
  147.0443  142.6936  154.6418 H   0  0  0  0  0  0  0  0  0  0  0  0
  145.8235  141.6600  153.9013 H   0  0  0  0  0  0  0  0  0  0  0  0
  147.6631  140.2127  152.9333 H   0  0  0  0  0  0  0  0  0  0  0  0
  148.8545  141.2796  153.6026 H   0  0  0  0  0  0  0  0  0  0  0  0
  146.9487  136.2401  156.9751 H   0  0  0  0  0  0  0  0  0  0  0  0
  145.7385  137.8232  150.8515 H   0  0  0  0  0  0  0  0  0  0  0  0
  144.1698  135.3954  152.7245 H   0  0  0  0  0  0  0  0  0  0  0  0
  146.9511  134.1627  152.3547 H   0  0  0  0  0  0  0  0  0  0  0  0
  145.5834  133.5276  153.3275 H   0  0  0  0  0  0  0  0  0  0  0  0
  145.5673  132.5350  149.2404 H   0  0  0  0  0  0  0  0  0  0  0  0
  147.0152  133.1922  149.9728 H   0  0  0  0  0  0  0  0  0  0  0  0
  147.2764  131.2427  150.5856 H   0  0  0  0  0  0  0  0  0  0  0  0
  144.0411  131.8816  151.8922 H   0  0  0  0  0  0  0  0  0  0  0  0
  143.1799  133.3964  151.9541 H   0  0  0  0  0  0  0  0  0  0  0  0
  142.4360  133.0217  150.0722 H   0  0  0  0  0  0  0  0  0  0  0  0
  144.1025  135.3430  150.3077 H   0  0  0  0  0  0  0  0  0  0  0  0
  145.8894  135.4622  150.1924 H   0  0  0  0  0  0  0  0  0  0  0  0
  149.0545  139.3722  156.6507 H   0  0  0  0  0  0  0  0  0  0  0  0
  148.1664  142.2518  156.4121 H   0  0  0  0  0  0  0  0  0  0  0  0
  148.2670  141.2373  157.8377 H   0  0  0  0  0  0  0  0  0  0  0  0
  150.2260  143.1111  157.1094 H   0  0  0  0  0  0  0  0  0  0  0  0
  150.5826  141.6861  158.0963 H   0  0  0  0  0  0  0  0  0  0  0  0
  151.9146  141.7521  155.8487 H   0  0  0  0  0  0  0  0  0  0  0  0
  1  2  1  0  0  0  0
  1 27  1  0  0  0  0
  1 28  1  0  0  0  0
  1 29  1  0  0  0  0
  2  3  1  0  0  0  0
  2 30  1  0  0  0  0
  2 31  1  0  0  0  0
  3  4  1  0  0  0  0
  3 21  1  0  0  0  0
  4  9  1  0  0  0  0
  4  5  2  0  0  0  0
  5  6  1  0  0  0  0
  6  7  2  0  0  0  0
  6 32  1  0  0  0  0
  7  8  1  0  0  0  0
  8 12  1  0  0  0  0
  8  9  2  0  0  0  0
  9 10  1  0  0  0  0
 10 11  2  0  0  0  0
 11 12  1  0  0  0  0
 11 33  1  0  0  0  0
 12 13  1  0  0  0  0
 13 20  1  0  0  0  0
 13 14  1  0  0  0  0
 13 34  1  0  0  0  0
 14 15  1  0  0  0  0
 14 35  1  0  0  0  0
 14 36  1  0  0  0  0
 15 16  1  0  0  0  0
 15 18  1  0  0  0  0
 15 20  1  0  0  0  0
 16 17  1  0  0  0  0
 16 37  1  0  0  0  0
 16 38  1  0  0  0  0
 17 39  1  0  0  0  0
 18 19  1  0  0  0  0
 18 40  1  0  0  0  0
 18 41  1  0  0  0  0
 19 42  1  0  0  0  0
 20 43  1  0  0  0  0
 20 44  1  0  0  0  0
 21 25  1  0  0  0  0
 21 22  1  0  0  0  0
 21 45  1  0  0  0  0
 22 23  1  0  0  0  0
 22 46  1  0  0  0  0
 22 47  1  0  0  0  0
 23 24  1  0  0  0  0
 23 48  1  0  0  0  0
 23 49  1  0  0  0  0
 24 25  1  0  0  0  0
 24 50  1  0  0  0  0
 25 26  2  0  0  0  0
M  END
> <s_m_source_file>
AV-unprocessed.smi

> <i_m_source_file_index>
231

> <i_lp_mmshare_version>
43012

> <i_f3d_flags>
0

> <s_epik_input>
Tz1DMVtOSF1bQ0gyXVtDSDJdW0NASF0xTihbQ0gyXVtDSDNdKWMobltjSF1uMiljKGMyMyluW2NIXW4zW0NIXShbQ0gyXTQpW0NIMl1DNChbQ0gyXVtPSF0pW0NIMl1bT0hd

> <s_epik_cmdline>
J2VwaWtfcHl0aG9uJywgJy1waCcsICc3LjAnLCAnLXRuJywgJzgnLCAnLW1hJywgJzIwMCcsICctbWV0YWxfYmluZGluZycsICctaW1hZScsICc8aW5maWxlLm1hZT4nLCAnLW9tYWUnLCAnPG91dGZpbGUubWFlPic=

> <r_lp_tautomer_probability>
1

> <r_epik_Ionization_Penalty>
0.000842899

> <r_epik_Ionization_Penalty_Charging>
0

> <r_epik_Ionization_Penalty_Neutral>
0.000842899

> <r_epik_State_Penalty>
0.000441286

> <r_epik_Charging_Adjusted_Penalty>
0.000441286

> <i_epik_Tot_Q>
0

> <i_epik_Tot_abs_Q>
0

> <r_epik_Metal_State_Penalty>
-0

> <b_epik_Metal_Only>
0

> <s_lp_Force_Field>
OPLS_2005

> <r_lp_Energy>
47.8415

> <b_lp_Chiralities_Consistent>
1

> <s_lp_Variant>
AV-unprocessed.smi:231-1

> <Gold.Version>
5.8.1

> <Gold.Id.Protein>
6NUR|6NUR_protein|mol2

> <Gold.PLP.Fitness>
48.3780

> <Gold.PLP.PLP>
-37.0541

> <Gold.PLP.part.hbond>
-3.2556

> <Gold.PLP.part.metal>
0.0000

> <Gold.PLP.part.buried>
-6.7708

> <Gold.PLP.part.nonpolar>
-27.7754

> <Gold.PLP.part.repulsive>
0.6241

> <Gold.PLP.ligand.clash>
0.0000

> <Gold.PLP.ligand.torsion>
1.1619

> <Gold.PLP.Chemscore.Hbond>
3.0000

> <Gold.PLP.Chemscore.CHOScore>
1.0000

> <Gold.PLP.Chemscore.Metal>
0.0000

> <Gold.Chemscore.Hbonds>
donor molecule, donor type, donor heavy atom, donor atom, acceptor molecule, acceptor atom, score
      L1  H    17    39       P1 10747  1.00
      L1  H    19    42       P1 10186  0.91
      P1  H  7989  7998       L1    26  1.00
      L1  C    11    33       P1 10171  1.00

> <Gold.PLP.Chemscore.Internal.Correction>
1.6477

> <Gold.Rescore>
     Score         DG    S(hbond)    S(metal)    S(lipo)     H(rot)  DE(clash)    DE(int)     intcor
     11.32     -13.84       2.98        0.00      65.85       3.63       0.00       2.53       ----

> <Gold.Chemscore.Fitness>
11.3196

> <Gold.Chemscore.DG>
-13.8446

> <Gold.Chemscore.ZeroCoef>
-5.4800

> <Gold.Chemscore.Hbond>
2.9770

> <Gold.Chemscore.Metal>
0.0000

> <Gold.Chemscore.Lipo>
65.8547

> <Gold.Chemscore.Internal_Hbond>
0.0000

> <Gold.Chemscore.DEClash>
0.0000

> <Gold.Chemscore.DEInternal>
2.5250

> <Gold.Chemscore.Rot>
3.6264

> <Gold.Chemscore.Internal.Correction>
   9.000000E+99

> <Gold.Chemscore.Hbonds>
donor molecule, donor type, donor heavy atom, donor atom, acceptor molecule, acceptor atom, score
      L1  H    17    39       P1 10747  1.00
      L1  H    19    42       P1 10186  0.88
      P1  H  7989  7998       L1    26  0.65

> <Gold.Chemscore.Hbond.Weighted>
-9.9432

> <Gold.Chemscore.Metal.Weighted>
-0.0000

> <Gold.Chemscore.Lipo.Weighted>
-7.7050

> <Gold.Chemscore.Internal_Hbond.Weighted>
0.0000

> <Gold.Chemscore.DEClash.Weighted>
0.0000

> <Gold.Chemscore.DEInternal.Weighted>
2.5250

> <Gold.Chemscore.Rot.Weighted>
9.2835

> <Gold.Chemscore.Internal.Correction.Weighted>
   9.000000E+99

> <Gold.Protein.RotatedTorsions>
[ 6907 6896 6895 6894 ] final  110.82 input  -60.11 | X-H torsion
[ 7974 7965 7964 7962 ] final   50.92 input  175.53 | X-H torsion
[ 8008 7997 7996 7995 ] final  -53.92 input   59.86 | X-H torsion
[ 10167 10162 10161 10158 ] final   86.35 input  -65.29 | X-H torsion
[ 10718 10713 10712 10709 ] final   93.30 input   66.30 | X-H torsion
[ 10763 10752 10751 10750 ] final   61.90 input  -60.55 | X-H torsion
[ 11005 11000 10999 10996 ] final   89.27 input  -57.11 | X-H torsion

> <Gold.Protein.ActiveResidues>
 VAL166  LYS551  ARG553  GLY616  TRP617  ASP618  TYR619  PRO620  LYS621  CYS622 
 ASP623  PHE694  ASN695  SER759  ASP760  ASP761  ALA762  ILE779  LEU786  VAL792 
 PHE793  MET794  SER795  GLU796  ALA797  LYS798  CYS799  TRP800  GLU811  SER814 

> <Gold.Protein.RotatedAtoms>
  152.5001  133.8746  159.7315 H   0  0  0  0  0  0  0  0  0  0  0  0  # atno 6907 bound_to 6896
  150.9224  133.6856  159.2836 H   0  0  0  0  0  0  0  0  0  0  0  0  # atno 6908 bound_to 6896
  151.4228  135.1004  159.9671 H   0  0  0  0  0  0  0  0  0  0  0  0  # atno 6909 bound_to 6896
  145.9964  139.4393  143.0041 H   0  0  0  0  0  0  0  0  0  0  0  0  # atno 7974 bound_to 7965
  154.4147  140.1188  156.5232 H   0  0  0  0  0  0  0  0  0  0  0  0  # atno 8008 bound_to 7997
  155.6681  140.3496  155.4788 H   0  0  0  0  0  0  0  0  0  0  0  0  # atno 8009 bound_to 7997
  155.9656  140.1131  157.0847 H   0  0  0  0  0  0  0  0  0  0  0  0  # atno 8010 bound_to 7997
  139.8884  144.6400  150.8765 H   0  0  0  0  0  0  0  0  0  0  0  0  # atno 10167 bound_to 10162
  157.6955  131.0473  150.4014 H   0  0  0  0  0  0  0  0  0  0  0  0  # atno 10718 bound_to 10713
  152.9965  135.5484  154.6108 H   0  0  0  0  0  0  0  0  0  0  0  0  # atno 10763 bound_to 10752
  154.5429  135.2821  155.1081 H   0  0  0  0  0  0  0  0  0  0  0  0  # atno 10764 bound_to 10752
  154.2352  135.6426  153.5241 H   0  0  0  0  0  0  0  0  0  0  0  0  # atno 10765 bound_to 10752
  139.8879  134.8540  156.3118 H   0  0  0  0  0  0  0  0  0  0  0  0  # atno 11005 bound_to 11000
  145.7553  140.9957  143.1229 LP  0  0  0  0  0  0  0  0  0  0  0  0  # atno 17320 bound_to 7965
  144.6905  139.9264  143.7470 LP  0  0  0  0  0  0  0  0  0  0  0  0  # atno 17321 bound_to 7965
  140.7731  143.3529  151.1978 LP  0  0  0  0  0  0  0  0  0  0  0  0  # atno 17342 bound_to 10162
  139.7132  143.9343  152.2956 LP  0  0  0  0  0  0  0  0  0  0  0  0  # atno 17343 bound_to 10162
  156.4407  130.3991  149.6699 LP  0  0  0  0  0  0  0  0  0  0  0  0  # atno 17370 bound_to 10713
  156.3884  130.7614  151.2613 LP  0  0  0  0  0  0  0  0  0  0  0  0  # atno 17371 bound_to 10713
  140.9845  133.7246  156.0722 LP  0  0  0  0  0  0  0  0  0  0  0  0  # atno 17394 bound_to 11000
  140.7706  134.3837  157.5508 LP  0  0  0  0  0  0  0  0  0  0  0  0  # atno 17395 bound_to 11000

$$$$
