AV-unprocessed.smi:994|AV-procd|sdf|4341|dock1
  -GOLD-   22720 2243D 1   1.00000     0.00000
 Structure written by MMmdl.
 37 38  0  0  0  0  0  0  0  0  2 V2000
  153.7718  139.4254  158.2586 O   0  0  0  0  0  0  0  0  0  0  0  0
  152.5965  139.7793  158.3605 C   0  0  0  0  0  0  0  0  0  0  0  0
  151.5860  139.1899  157.7036 N   0  0  0  0  0  0  0  0  0  0  0  0
  151.7023  138.0439  156.8026 C   0  0  2  0  0  0  0  0  0  0  0  0
  150.3779  137.8866  156.0248 C   0  0  0  0  0  0  0  0  0  0  0  0
  149.8236  139.1801  155.4769 C   0  0  0  0  0  0  0  0  0  0  0  0
  149.2992  139.5024  154.2442 C   0  0  0  0  0  0  0  0  0  0  0  0
  148.8994  140.8412  154.2335 N   0  0  0  0  0  0  0  0  0  0  0  0
  149.1943  141.2761  155.4533 C   0  0  0  0  0  0  0  0  0  0  0  0
  149.7450  140.3393  156.2296 N   0  0  0  0  0  0  0  0  0  0  0  0
  151.9610  136.7718  157.6239 C   0  0  0  0  0  0  0  0  0  0  0  0
  152.7628  135.9408  157.1443 O   0  0  0  0  0  0  0  0  0  0  0  0
  151.3544  136.6460  158.7121 O   0  5  0  0  0  0  0  0  0  0  0  0
  152.2197  140.9597  159.2650 C   0  0  0  0  0  0  0  0  0  0  0  0
  151.5781  142.0980  158.4432 C   0  0  0  0  0  0  0  0  0  0  0  0
  151.2062  143.2922  159.3375 C   0  0  0  0  0  0  0  0  0  0  0  0
  152.4267  143.8045  160.1190 C   0  0  0  0  0  0  0  0  0  0  0  0
  153.0782  142.6765  160.9346 C   0  0  0  0  0  0  0  0  0  0  0  0
  153.4487  141.4834  160.0384 C   0  0  0  0  0  0  0  0  0  0  0  0
  150.0372  140.4497  157.1903 H   0  0  0  0  0  0  0  0  0  0  0  0
  150.6521  139.5379  157.8630 H   0  0  0  0  0  0  0  0  0  0  0  0
  152.5205  138.1876  156.0940 H   0  0  0  0  0  0  0  0  0  0  0  0
  150.5212  137.2031  155.1866 H   0  0  0  0  0  0  0  0  0  0  0  0
  149.6121  137.4373  156.6593 H   0  0  0  0  0  0  0  0  0  0  0  0
  149.1741  138.8768  153.3727 H   0  0  0  0  0  0  0  0  0  0  0  0
  149.0061  142.2865  155.7852 H   0  0  0  0  0  0  0  0  0  0  0  0
  151.4853  140.6115  159.9938 H   0  0  0  0  0  0  0  0  0  0  0  0
  152.2649  142.4335  157.6644 H   0  0  0  0  0  0  0  0  0  0  0  0
  150.6858  141.7343  157.9312 H   0  0  0  0  0  0  0  0  0  0  0  0
  150.7898  144.0963  158.7299 H   0  0  0  0  0  0  0  0  0  0  0  0
  150.4229  142.9949  160.0358 H   0  0  0  0  0  0  0  0  0  0  0  0
  153.1570  144.2206  159.4237 H   0  0  0  0  0  0  0  0  0  0  0  0
  152.1304  144.6186  160.7808 H   0  0  0  0  0  0  0  0  0  0  0  0
  153.9680  143.0506  161.4414 H   0  0  0  0  0  0  0  0  0  0  0  0
  152.3925  142.3469  161.7161 H   0  0  0  0  0  0  0  0  0  0  0  0
  153.8748  140.6867  160.6499 H   0  0  0  0  0  0  0  0  0  0  0  0
  154.2310  141.7889  159.3418 H   0  0  0  0  0  0  0  0  0  0  0  0
  1  2  2  0  0  0  0
  2  3  1  0  0  0  0
  2 14  1  0  0  0  0
  3  4  1  0  0  0  0
  3 21  1  0  0  0  0
  4  5  1  0  0  0  0
  4 11  1  0  0  0  0
  4 22  1  0  0  0  0
  5 23  1  0  0  0  0
  5 24  1  0  0  0  0
  5  6  1  0  0  0  0
  6  7  2  0  0  0  0
  6 10  1  0  0  0  0
  7 25  1  0  0  0  0
  7  8  1  0  0  0  0
  8  9  2  0  0  0  0
  9 10  1  0  0  0  0
  9 26  1  0  0  0  0
 10 20  1  0  0  0  0
 11 12  2  0  0  0  0
 11 13  1  0  0  0  0
 14 19  1  0  0  0  0
 14 15  1  0  0  0  0
 14 27  1  0  0  0  0
 15 16  1  0  0  0  0
 15 28  1  0  0  0  0
 15 29  1  0  0  0  0
 16 17  1  0  0  0  0
 16 30  1  0  0  0  0
 16 31  1  0  0  0  0
 17 18  1  0  0  0  0
 17 32  1  0  0  0  0
 17 33  1  0  0  0  0
 18 19  1  0  0  0  0
 18 34  1  0  0  0  0
 18 35  1  0  0  0  0
 19 36  1  0  0  0  0
 19 37  1  0  0  0  0
M  CHG  1  13  -1
M  END
> <s_m_source_file>
AV-unprocessed.smi

> <i_m_source_file_index>
994

> <i_lp_mmshare_version>
43012

> <i_f3d_flags>
0

> <s_epik_input>
W0NIMl0xW0NIMl1bQ0gyXVtDSDJdW0NIMl1bQ0hdMUMoPU8pW05IXVtDQEBIXShDKD1PKVtPSF0pW0NIMl1jMltjSF1bbkhdW2NIXW4y

> <s_epik_cmdline>
J2VwaWtfcHl0aG9uJywgJy1waCcsICc3LjAnLCAnLXRuJywgJzgnLCAnLW1hJywgJzIwMCcsICctbWV0YWxfYmluZGluZycsICctaW1hZScsICc8aW5maWxlLm1hZT4nLCAnLW9tYWUnLCAnPG91dGZpbGUubWFlPic=

> <r_lp_tautomer_probability>
0.5

> <r_epik_Ionization_Penalty>
0.540742

> <r_epik_Ionization_Penalty_Charging>
0.540742

> <r_epik_Ionization_Penalty_Neutral>
4.77468e-08

> <r_epik_State_Penalty>
0.78427

> <r_epik_Charging_Adjusted_Penalty>
1.32501

> <i_epik_Tot_Q>
-1

> <i_epik_Tot_abs_Q>
1

> <r_epik_Metal_State_Penalty>
0.663709

> <b_epik_Metal_Only>
0

> <s_lp_Force_Field>
OPLS_2005

> <r_lp_Energy>
10.7007

> <b_lp_Chiralities_Consistent>
1

> <s_lp_Variant>
AV-unprocessed.smi:994-3

> <Gold.Version>
5.8.1

> <Gold.Id.Protein>
6NUR|6NUR_protein|mol2

> <Gold.PLP.Fitness>
50.2372

> <Gold.PLP.PLP>
-30.9304

> <Gold.PLP.part.hbond>
-4.9775

> <Gold.PLP.part.metal>
0.0000

> <Gold.PLP.part.buried>
-1.6820

> <Gold.PLP.part.nonpolar>
-25.7324

> <Gold.PLP.part.repulsive>
1.3517

> <Gold.PLP.ligand.clash>
0.0000

> <Gold.PLP.ligand.torsion>
1.0440

> <Gold.PLP.Chemscore.Hbond>
5.2875

> <Gold.PLP.Chemscore.CHOScore>
1.8043

> <Gold.PLP.Chemscore.Metal>
0.0000

> <Gold.Chemscore.Hbonds>
donor molecule, donor type, donor heavy atom, donor atom, acceptor molecule, acceptor atom, score
      P1  H  6896  6909       L1    13  1.63
      P1  H  7997  8010       L1     1  1.00
      P1  H 10752 10763       L1    12  1.95
      L1  C     7    25       P1  7957  0.71
      L1  C     9    26       P1  8028  1.00

> <Gold.PLP.Chemscore.Internal.Correction>
0.1195

> <Gold.Rescore>
     Score         DG    S(hbond)    S(metal)    S(lipo)     H(rot)  DE(clash)    DE(int)     intcor
     15.00     -19.06       3.26        0.00      81.11       2.66       1.51       2.55       ----

> <Gold.Chemscore.Fitness>
15.0042

> <Gold.Chemscore.DG>
-19.0623

> <Gold.Chemscore.ZeroCoef>
-5.4800

> <Gold.Chemscore.Hbond>
3.2626

> <Gold.Chemscore.Metal>
0.0000

> <Gold.Chemscore.Lipo>
81.1111

> <Gold.Chemscore.Internal_Hbond>
0.0000

> <Gold.Chemscore.DEClash>
1.5122

> <Gold.Chemscore.DEInternal>
2.5458

> <Gold.Chemscore.Rot>
2.6581

> <Gold.Chemscore.Internal.Correction>
   9.000000E+99

> <Gold.Chemscore.Hbonds>
donor molecule, donor type, donor heavy atom, donor atom, acceptor molecule, acceptor atom, score
      P1  H  6896  6909       L1    13  0.81
      P1  H  7997  8010       L1     1  0.89
      P1  H 10752 10763       L1    12  0.91

> <Gold.Chemscore.Hbond.Weighted>
-10.8971

> <Gold.Chemscore.Metal.Weighted>
-0.0000

> <Gold.Chemscore.Lipo.Weighted>
-9.4900

> <Gold.Chemscore.Internal_Hbond.Weighted>
0.0000

> <Gold.Chemscore.DEClash.Weighted>
1.5122

> <Gold.Chemscore.DEInternal.Weighted>
2.5458

> <Gold.Chemscore.Rot.Weighted>
6.8048

> <Gold.Chemscore.Internal.Correction.Weighted>
   9.000000E+99

> <Gold.Protein.RotatedTorsions>
[ 6907 6896 6895 6894 ] final  100.16 input  -60.11 | X-H torsion
[ 7974 7965 7964 7962 ] final  -37.63 input  175.53 | X-H torsion
[ 8008 7997 7996 7995 ] final   38.66 input   59.86 | X-H torsion
[ 10167 10162 10161 10158 ] final -161.41 input  -65.29 | X-H torsion
[ 10718 10713 10712 10709 ] final -166.05 input   66.30 | X-H torsion
[ 10763 10752 10751 10750 ] final  117.58 input  -60.55 | X-H torsion
[ 11005 11000 10999 10996 ] final  -91.95 input  -57.11 | X-H torsion

> <Gold.Protein.ActiveResidues>
 VAL166  LYS551  ARG553  GLY616  TRP617  ASP618  TYR619  PRO620  LYS621  CYS622 
 ASP623  PHE694  ASN695  SER759  ASP760  ASP761  ALA762  ILE779  LEU786  VAL792 
 PHE793  MET794  SER795  GLU796  ALA797  LYS798  CYS799  TRP800  GLU811  SER814 

> <Gold.Protein.RotatedAtoms>
  152.5378  134.0319  159.8028 H   0  0  0  0  0  0  0  0  0  0  0  0  # atno 6907 bound_to 6896
  151.0488  133.5634  159.2651 H   0  0  0  0  0  0  0  0  0  0  0  0  # atno 6908 bound_to 6896
  151.2576  135.0651  159.9139 H   0  0  0  0  0  0  0  0  0  0  0  0  # atno 6909 bound_to 6896
  146.0558  140.6418  142.9020 H   0  0  0  0  0  0  0  0  0  0  0  0  # atno 7974 bound_to 7965
  155.2238  140.3333  155.4312 H   0  0  0  0  0  0  0  0  0  0  0  0  # atno 8008 bound_to 7997
  156.2323  140.1856  156.7258 H   0  0  0  0  0  0  0  0  0  0  0  0  # atno 8009 bound_to 7997
  154.5998  140.0625  156.9339 H   0  0  0  0  0  0  0  0  0  0  0  0  # atno 8010 bound_to 7997
  139.6467  144.0159  152.2132 H   0  0  0  0  0  0  0  0  0  0  0  0  # atno 10167 bound_to 10162
  156.6623  130.9051  151.3031 H   0  0  0  0  0  0  0  0  0  0  0  0  # atno 10718 bound_to 10713
  153.5545  135.3533  155.2773 H   0  0  0  0  0  0  0  0  0  0  0  0  # atno 10763 bound_to 10752
  154.8702  135.4122  154.2899 H   0  0  0  0  0  0  0  0  0  0  0  0  # atno 10764 bound_to 10752
  153.3632  135.7061  153.6764 H   0  0  0  0  0  0  0  0  0  0  0  0  # atno 10765 bound_to 10752
  141.1533  133.7789  156.9951 H   0  0  0  0  0  0  0  0  0  0  0  0  # atno 11005 bound_to 11000
  144.7147  140.4166  143.7053 LP  0  0  0  0  0  0  0  0  0  0  0  0  # atno 17320 bound_to 7965
  145.6647  139.1588  143.2789 LP  0  0  0  0  0  0  0  0  0  0  0  0  # atno 17321 bound_to 7965
  139.9863  144.6393  150.7855 LP  0  0  0  0  0  0  0  0  0  0  0  0  # atno 17342 bound_to 10162
  140.7518  143.2979  151.3157 LP  0  0  0  0  0  0  0  0  0  0  0  0  # atno 17343 bound_to 10162
  157.7105  130.9435  150.1074 LP  0  0  0  0  0  0  0  0  0  0  0  0  # atno 17370 bound_to 10713
  156.2001  130.3660  149.8798 LP  0  0  0  0  0  0  0  0  0  0  0  0  # atno 17371 bound_to 10713
  140.0977  134.9554  157.1875 LP  0  0  0  0  0  0  0  0  0  0  0  0  # atno 17394 bound_to 11000
  140.3360  134.2757  155.7220 LP  0  0  0  0  0  0  0  0  0  0  0  0  # atno 17395 bound_to 11000

$$$$
