AV-unprocessed.smi:3287|AV-procd|sdf|12594|dock7
  -GOLD-   2272018513D 1   1.00000     0.00000
 Structure written by MMmdl.
 43 44  0  0  0  0  0  0  0  0  2 V2000
  153.1007  143.2554  162.4213 C   0  0  0  0  0  0  0  0  0  0  0  0
  152.8843  143.4411  160.9089 C   0  0  2  0  0  0  0  0  0  0  0  0
  151.8524  144.5605  160.6636 C   0  0  0  0  0  0  0  0  0  0  0  0
  151.6035  144.7954  159.1681 C   0  0  0  0  0  0  0  0  0  0  0  0
  151.1380  143.5053  158.4763 C   0  0  1  0  0  0  0  0  0  0  0  0
  150.9050  143.7652  157.0383 N   0  3  0  0  0  0  0  0  0  0  0  0
  151.1503  142.6161  156.1398 C   0  0  0  0  0  0  0  0  0  0  0  0
  150.0779  141.5264  156.3121 C   0  0  1  0  0  0  0  0  0  0  0  0
  148.8639  141.9871  155.7513 O   0  0  0  0  0  0  0  0  0  0  0  0
  150.5274  140.2145  155.6877 C   0  0  0  0  0  0  0  0  0  0  0  0
  151.7570  139.6177  156.0426 C   0  0  0  0  0  0  0  0  0  0  0  0
  152.1140  138.3969  155.4359 C   0  0  0  0  0  0  0  0  0  0  0  0
  151.3367  137.7640  154.5315 N   0  0  0  0  0  0  0  0  0  0  0  0
  150.1610  138.3373  154.1977 C   0  0  0  0  0  0  0  0  0  0  0  0
  149.7110  139.5556  154.7449 C   0  0  0  0  0  0  0  0  0  0  0  0
  152.1799  142.3902  158.6961 C   0  0  0  0  0  0  0  0  0  0  0  0
  152.4544  142.1330  160.1933 C   0  0  1  0  0  0  0  0  0  0  0  0
  153.4853  141.0003  160.3468 C   0  0  0  0  0  0  0  0  0  0  0  0
  152.2084  142.8562  162.9045 H   0  0  0  0  0  0  0  0  0  0  0  0
  153.3395  144.2048  162.9017 H   0  0  0  0  0  0  0  0  0  0  0  0
  153.9285  142.5791  162.6323 H   0  0  0  0  0  0  0  0  0  0  0  0
  153.8331  143.7667  160.4793 H   0  0  0  0  0  0  0  0  0  0  0  0
  150.9102  144.3075  161.1519 H   0  0  0  0  0  0  0  0  0  0  0  0
  152.1947  145.4894  161.1216 H   0  0  0  0  0  0  0  0  0  0  0  0
  150.8557  145.5794  159.0426 H   0  0  0  0  0  0  0  0  0  0  0  0
  152.5188  145.1623  158.7008 H   0  0  0  0  0  0  0  0  0  0  0  0
  150.1904  143.2036  158.9256 H   0  0  0  0  0  0  0  0  0  0  0  0
  149.9362  144.0289  156.9295 H   0  0  0  0  0  0  0  0  0  0  0  0
  151.1816  142.9494  155.1023 H   0  0  0  0  0  0  0  0  0  0  0  0
  152.1310  142.1977  156.3715 H   0  0  0  0  0  0  0  0  0  0  0  0
  149.9022  141.3587  157.3758 H   0  0  0  0  0  0  0  0  0  0  0  0
  148.9025  142.9298  155.6865 H   0  0  0  0  0  0  0  0  0  0  0  0
  152.4150  140.0801  156.7636 H   0  0  0  0  0  0  0  0  0  0  0  0
  153.0481  137.9158  155.6852 H   0  0  0  0  0  0  0  0  0  0  0  0
  149.5593  137.8089  153.4731 H   0  0  0  0  0  0  0  0  0  0  0  0
  148.7598  139.9689  154.4438 H   0  0  0  0  0  0  0  0  0  0  0  0
  151.8398  141.4627  158.2354 H   0  0  0  0  0  0  0  0  0  0  0  0
  153.1122  142.6570  158.1955 H   0  0  0  0  0  0  0  0  0  0  0  0
  151.5223  141.7901  160.6455 H   0  0  0  0  0  0  0  0  0  0  0  0
  154.4651  141.3033  159.9764 H   0  0  0  0  0  0  0  0  0  0  0  0
  153.1807  140.1146  159.7886 H   0  0  0  0  0  0  0  0  0  0  0  0
  153.5994  140.6929  161.3859 H   0  0  0  0  0  0  0  0  0  0  0  0
  151.4807  144.5417  156.7445 H   0  0  0  0  0  0  0  0  0  0  0  0
  1  2  1  0  0  0  0
  1 19  1  0  0  0  0
  1 20  1  0  0  0  0
  1 21  1  0  0  0  0
  2 17  1  0  0  0  0
  2  3  1  0  0  0  0
  2 22  1  0  0  0  0
  3  4  1  0  0  0  0
  3 23  1  0  0  0  0
  3 24  1  0  0  0  0
  4  5  1  0  0  0  0
  4 25  1  0  0  0  0
  4 26  1  0  0  0  0
  5  6  1  0  0  0  0
  5 16  1  0  0  0  0
  5 27  1  0  0  0  0
  6  7  1  0  0  0  0
  6 28  1  0  0  0  0
  6 43  1  0  0  0  0
  7  8  1  0  0  0  0
  7 29  1  0  0  0  0
  7 30  1  0  0  0  0
  8  9  1  0  0  0  0
  8 10  1  0  0  0  0
  8 31  1  0  0  0  0
  9 32  1  0  0  0  0
 10 15  1  0  0  0  0
 10 11  2  0  0  0  0
 11 12  1  0  0  0  0
 11 33  1  0  0  0  0
 12 13  2  0  0  0  0
 12 34  1  0  0  0  0
 13 14  1  0  0  0  0
 14 15  2  0  0  0  0
 14 35  1  0  0  0  0
 15 36  1  0  0  0  0
 16 17  1  0  0  0  0
 16 37  1  0  0  0  0
 16 38  1  0  0  0  0
 17 18  1  0  0  0  0
 17 39  1  0  0  0  0
 18 40  1  0  0  0  0
 18 41  1  0  0  0  0
 18 42  1  0  0  0  0
M  CHG  1   6   1
M  END
> <s_m_source_file>
AV-unprocessed.smi

> <i_m_source_file_index>
3287

> <i_lp_mmshare_version>
43012

> <i_f3d_flags>
0

> <s_epik_input>
W0NIM11bQ0BASF0xW0NIMl1bQ0gyXVtDQEhdKFtDSDJdW0NASF0xW0NIM10pW05IXVtDSDJdW0NASF0oW09IXSljMltjSF1bY0hdbltjSF1bY0hdMg==

> <s_epik_cmdline>
J2VwaWtfcHl0aG9uJywgJy1waCcsICc3LjAnLCAnLXRuJywgJzgnLCAnLW1hJywgJzIwMCcsICctbWV0YWxfYmluZGluZycsICctaW1hZScsICc8aW5maWxlLm1hZT4nLCAnLW9tYWUnLCAnPG91dGZpbGUubWFlPic=

> <r_lp_tautomer_probability>
1

> <r_epik_Ionization_Penalty>
0.00537262

> <r_epik_Ionization_Penalty_Charging>
0.00321624

> <r_epik_Ionization_Penalty_Neutral>
0.00215638

> <r_epik_State_Penalty>
-0

> <r_epik_Charging_Adjusted_Penalty>
0.00321624

> <i_epik_Tot_Q>
1

> <i_epik_Tot_abs_Q>
1

> <r_epik_Metal_State_Penalty>
-0

> <b_epik_Metal_Only>
0

> <s_lp_Force_Field>
OPLS_2005

> <r_lp_Energy>
16.1009

> <b_lp_Chiralities_Consistent>
1

> <s_lp_Variant>
AV-unprocessed.smi:3287-5

> <Gold.Version>
5.8.1

> <Gold.Id.Protein>
6NUR|6NUR_protein|mol2

> <Gold.PLP.Fitness>
56.8279

> <Gold.PLP.PLP>
-44.5082

> <Gold.PLP.part.hbond>
-2.8348

> <Gold.PLP.part.metal>
0.0000

> <Gold.PLP.part.buried>
-6.6336

> <Gold.PLP.part.nonpolar>
-35.1750

> <Gold.PLP.part.repulsive>
0.1363

> <Gold.PLP.ligand.clash>
0.0000

> <Gold.PLP.ligand.torsion>
0.5864

> <Gold.PLP.Chemscore.Hbond>
3.3846

> <Gold.PLP.Chemscore.CHOScore>
1.1071

> <Gold.PLP.Chemscore.Metal>
0.0000

> <Gold.Chemscore.Hbonds>
donor molecule, donor type, donor heavy atom, donor atom, acceptor molecule, acceptor atom, score
      L1  H     6    28       P1  8028  1.50
      L1  H     9    32       P1  8028  1.00
      L1  C    14    35       P1  7948  1.00

> <Gold.PLP.Chemscore.Internal.Correction>
0.0172

> <Gold.Rescore>
     Score         DG    S(hbond)    S(metal)    S(lipo)     H(rot)  DE(clash)    DE(int)     intcor
     21.74     -23.82       2.07        0.00     139.30       1.90       1.28       0.80       ----

> <Gold.Chemscore.Fitness>
21.7403

> <Gold.Chemscore.DG>
-23.8196

> <Gold.Chemscore.ZeroCoef>
-5.4800

> <Gold.Chemscore.Hbond>
2.0701

> <Gold.Chemscore.Metal>
0.0000

> <Gold.Chemscore.Lipo>
139.3021

> <Gold.Chemscore.Internal_Hbond>
0.0000

> <Gold.Chemscore.DEClash>
1.2824

> <Gold.Chemscore.DEInternal>
0.7969

> <Gold.Chemscore.Rot>
1.9035

> <Gold.Chemscore.Internal.Correction>
   9.000000E+99

> <Gold.Chemscore.Hbonds>
donor molecule, donor type, donor heavy atom, donor atom, acceptor molecule, acceptor atom, score
      L1  H     6    28       P1  8028  0.70
      L1  H     9    32       P1  8028  1.00

> <Gold.Chemscore.Hbond.Weighted>
-6.9141

> <Gold.Chemscore.Metal.Weighted>
-0.0000

> <Gold.Chemscore.Lipo.Weighted>
-16.2983

> <Gold.Chemscore.Internal_Hbond.Weighted>
0.0000

> <Gold.Chemscore.DEClash.Weighted>
1.2824

> <Gold.Chemscore.DEInternal.Weighted>
0.7969

> <Gold.Chemscore.Rot.Weighted>
4.8729

> <Gold.Chemscore.Internal.Correction.Weighted>
   9.000000E+99

> <Gold.Protein.RotatedTorsions>
[ 6907 6896 6895 6894 ] final  -69.79 input  -60.11 | X-H torsion
[ 7974 7965 7964 7962 ] final  -61.73 input  175.53 | X-H torsion
[ 8008 7997 7996 7995 ] final  127.83 input   59.86 | X-H torsion
[ 10167 10162 10161 10158 ] final  -24.59 input  -65.29 | X-H torsion
[ 10718 10713 10712 10709 ] final -145.19 input   66.30 | X-H torsion
[ 10763 10752 10751 10750 ] final  165.75 input  -60.55 | X-H torsion
[ 11005 11000 10999 10996 ] final -143.14 input  -57.11 | X-H torsion

> <Gold.Protein.ActiveResidues>
 VAL166  LYS551  ARG553  GLY616  TRP617  ASP618  TYR619  PRO620  LYS621  CYS622 
 ASP623  PHE694  ASN695  SER759  ASP760  ASP761  ALA762  ILE779  LEU786  VAL792 
 PHE793  MET794  SER795  GLU796  ALA797  LYS798  CYS799  TRP800  GLU811  SER814 

> <Gold.Protein.RotatedAtoms>
  150.7288  134.5546  159.5811 H   0  0  0  0  0  0  0  0  0  0  0  0  # atno 6907 bound_to 6896
  152.3025  134.7592  160.0364 H   0  0  0  0  0  0  0  0  0  0  0  0  # atno 6908 bound_to 6896
  151.8167  133.3353  159.3608 H   0  0  0  0  0  0  0  0  0  0  0  0  # atno 6909 bound_to 6896
  145.7999  140.8661  143.0236 H   0  0  0  0  0  0  0  0  0  0  0  0  # atno 7974 bound_to 7965
  156.2900  140.2659  156.2336 H   0  0  0  0  0  0  0  0  0  0  0  0  # atno 8008 bound_to 7997
  155.0047  140.0387  157.2393 H   0  0  0  0  0  0  0  0  0  0  0  0  # atno 8009 bound_to 7997
  154.7570  140.2753  155.6250 H   0  0  0  0  0  0  0  0  0  0  0  0  # atno 8010 bound_to 7997
  140.7288  143.4339  151.0759 H   0  0  0  0  0  0  0  0  0  0  0  0  # atno 10167 bound_to 10162
  156.3794  130.7829  151.2019 H   0  0  0  0  0  0  0  0  0  0  0  0  # atno 10718 bound_to 10713
  154.3287  135.2755  155.2483 H   0  0  0  0  0  0  0  0  0  0  0  0  # atno 10763 bound_to 10752
  154.4804  135.5860  153.6389 H   0  0  0  0  0  0  0  0  0  0  0  0  # atno 10764 bound_to 10752
  152.9869  135.6110  154.3478 H   0  0  0  0  0  0  0  0  0  0  0  0  # atno 10765 bound_to 10752
  140.8155  134.2693  157.4923 H   0  0  0  0  0  0  0  0  0  0  0  0  # atno 11005 bound_to 11000
  144.6770  140.0244  143.7483 LP  0  0  0  0  0  0  0  0  0  0  0  0  # atno 17320 bound_to 7965
  145.9888  139.2999  143.0997 LP  0  0  0  0  0  0  0  0  0  0  0  0  # atno 17321 bound_to 7965
  139.7999  143.8098  152.3162 LP  0  0  0  0  0  0  0  0  0  0  0  0  # atno 17342 bound_to 10162
  139.8111  144.7335  150.9696 LP  0  0  0  0  0  0  0  0  0  0  0  0  # atno 17343 bound_to 10162
  157.7491  131.0349  150.4337 LP  0  0  0  0  0  0  0  0  0  0  0  0  # atno 17370 bound_to 10713
  156.4578  130.4025  149.6595 LP  0  0  0  0  0  0  0  0  0  0  0  0  # atno 17371 bound_to 10713
  139.8711  134.9507  156.4062 LP  0  0  0  0  0  0  0  0  0  0  0  0  # atno 17394 bound_to 11000
  140.9153  133.7683  155.9841 LP  0  0  0  0  0  0  0  0  0  0  0  0  # atno 17395 bound_to 11000

$$$$
