AV-unprocessed.smi:810|AV-procd|sdf|3809|dock7
  -GOLD-   22720 1253D 1   1.00000     0.00000
 Structure written by MMmdl.
 34 35  0  0  0  0  0  0  0  0  1 V2000
  145.1665  137.7368  153.5964 O   0  0  0  0  0  0  0  0  0  0  0  0
  146.1750  137.2595  153.0773 C   0  0  0  0  0  0  0  0  0  0  0  0
  147.4030  137.8037  153.1203 N   0  0  0  0  0  0  0  0  0  0  0  0
  147.8170  139.0028  153.7609 C   0  0  0  0  0  0  0  0  0  0  0  0
  149.1540  139.2904  154.1283 C   0  0  0  0  0  0  0  0  0  0  0  0
  149.4387  140.5244  154.7441 C   0  0  0  0  0  0  0  0  0  0  0  0
  148.3806  141.4274  154.9634 C   0  0  0  0  0  0  0  0  0  0  0  0
  147.1045  141.1727  154.6055 N   0  0  0  0  0  0  0  0  0  0  0  0
  146.8390  139.9880  154.0151 C   0  0  0  0  0  0  0  0  0  0  0  0
  146.1760  136.1209  152.3693 N   0  0  0  0  0  0  0  0  0  0  0  0
  145.0049  135.2904  152.0988 C   0  0  2  0  0  0  0  0  0  0  0  0
  144.4229  134.7682  153.4267 C   0  0  0  0  0  0  0  0  0  0  0  0
  142.9286  134.4131  153.3506 C   0  0  0  0  0  0  0  0  0  0  0  0
  142.5299  133.7727  154.5432 O   0  0  0  0  0  0  0  0  0  0  0  0
  145.3043  134.1401  151.1521 C   0  0  0  0  0  0  0  0  0  0  0  0
  144.3294  133.0018  150.9647 C   0  0  0  0  0  0  0  0  0  0  0  0
  145.6402  132.7651  151.6795 C   0  0  0  0  0  0  0  0  0  0  0  0
  148.1143  137.3368  152.5770 H   0  0  0  0  0  0  0  0  0  0  0  0
  149.9633  138.6023  153.9406 H   0  0  0  0  0  0  0  0  0  0  0  0
  150.4472  140.7745  155.0386 H   0  0  0  0  0  0  0  0  0  0  0  0
  148.5653  142.3822  155.4331 H   0  0  0  0  0  0  0  0  0  0  0  0
  145.8078  139.8194  153.7404 H   0  0  0  0  0  0  0  0  0  0  0  0
  147.0516  135.8092  151.9754 H   0  0  0  0  0  0  0  0  0  0  0  0
  144.2360  135.9095  151.6319 H   0  0  0  0  0  0  0  0  0  0  0  0
  144.9767  133.8785  153.7304 H   0  0  0  0  0  0  0  0  0  0  0  0
  144.5843  135.5070  154.2131 H   0  0  0  0  0  0  0  0  0  0  0  0
  142.3166  135.3045  153.2111 H   0  0  0  0  0  0  0  0  0  0  0  0
  142.7347  133.7478  152.5088 H   0  0  0  0  0  0  0  0  0  0  0  0
  143.0062  132.9604  154.6230 H   0  0  0  0  0  0  0  0  0  0  0  0
  145.8512  134.4443  150.2614 H   0  0  0  0  0  0  0  0  0  0  0  0
  143.4234  133.0026  151.5677 H   0  0  0  0  0  0  0  0  0  0  0  0
  144.2210  132.5953  149.9613 H   0  0  0  0  0  0  0  0  0  0  0  0
  146.4055  132.1983  151.1536 H   0  0  0  0  0  0  0  0  0  0  0  0
  145.6022  132.6105  152.7561 H   0  0  0  0  0  0  0  0  0  0  0  0
  1  2  2  0  0  0  0
  2  3  1  0  0  0  0
  2 10  1  0  0  0  0
  3  4  1  0  0  0  0
  3 18  1  0  0  0  0
  4  9  1  0  0  0  0
  4  5  2  0  0  0  0
  5  6  1  0  0  0  0
  5 19  1  0  0  0  0
  6  7  2  0  0  0  0
  6 20  1  0  0  0  0
  7  8  1  0  0  0  0
  7 21  1  0  0  0  0
  8  9  2  0  0  0  0
  9 22  1  0  0  0  0
 10 11  1  0  0  0  0
 10 23  1  0  0  0  0
 11 12  1  0  0  0  0
 11 15  1  0  0  0  0
 11 24  1  0  0  0  0
 12 13  1  0  0  0  0
 12 25  1  0  0  0  0
 12 26  1  0  0  0  0
 13 14  1  0  0  0  0
 13 27  1  0  0  0  0
 13 28  1  0  0  0  0
 14 29  1  0  0  0  0
 15 17  1  0  0  0  0
 15 16  1  0  0  0  0
 15 30  1  0  0  0  0
 16 17  1  0  0  0  0
 16 31  1  0  0  0  0
 16 32  1  0  0  0  0
 17 33  1  0  0  0  0
 17 34  1  0  0  0  0
M  END
> <s_m_source_file>
AV-unprocessed.smi

> <i_m_source_file_index>
810

> <i_lp_mmshare_version>
43012

> <i_f3d_flags>
0

> <s_epik_input>
W09IXVtDSDJdW0NIMl1bQ0BIXShbQ0hdMVtDSDJdW0NIMl0xKVtOSF1DKD1PKVtOSF1jMltjSF1bY0hdW2NIXW5bY0hdMg==

> <s_epik_cmdline>
J2VwaWtfcHl0aG9uJywgJy1waCcsICc3LjAnLCAnLXRuJywgJzgnLCAnLW1hJywgJzIwMCcsICctbWV0YWxfYmluZGluZycsICctaW1hZScsICc8aW5maWxlLm1hZT4nLCAnLW9tYWUnLCAnPG91dGZpbGUubWFlPic=

> <r_epik_Ionization_Penalty>
0.00486911

> <r_epik_Ionization_Penalty_Charging>
0

> <r_epik_Ionization_Penalty_Neutral>
0.00486911

> <r_epik_State_Penalty>
0.00350304

> <r_epik_Charging_Adjusted_Penalty>
0.00350304

> <i_epik_Tot_Q>
0

> <i_epik_Tot_abs_Q>
0

> <r_epik_Metal_State_Penalty>
-0

> <b_epik_Metal_Only>
0

> <s_lp_Force_Field>
OPLS_2005

> <r_lp_Energy>
17.5915

> <b_lp_Chiralities_Consistent>
1

> <s_lp_Variant>
AV-unprocessed.smi:810-1

> <Gold.Version>
5.8.1

> <Gold.Id.Protein>
6NUR|6NUR_protein|mol2

> <Gold.PLP.Fitness>
43.2960

> <Gold.PLP.PLP>
-28.1029

> <Gold.PLP.part.hbond>
-3.8639

> <Gold.PLP.part.metal>
0.0000

> <Gold.PLP.part.buried>
-4.8225

> <Gold.PLP.part.nonpolar>
-21.5926

> <Gold.PLP.part.repulsive>
1.3017

> <Gold.PLP.ligand.clash>
0.0000

> <Gold.PLP.ligand.torsion>
0.9201

> <Gold.PLP.Chemscore.Hbond>
3.3102

> <Gold.PLP.Chemscore.CHOScore>
2.0000

> <Gold.PLP.Chemscore.Metal>
0.0000

> <Gold.Chemscore.Hbonds>
donor molecule, donor type, donor heavy atom, donor atom, acceptor molecule, acceptor atom, score
      L1  H     3    18       P1  7948  1.00
      L1  H    10    23       P1  7948  0.90
      L1  H    14    29       P1 10957  0.21
      P1  H 11000 11005       L1    14  0.25
      L1  C     7    21       P1  8028  1.00
      L1  C     9    22       P1 10175  0.93

> <Gold.PLP.Chemscore.Internal.Correction>
1.1027

> <Gold.Rescore>
     Score         DG    S(hbond)    S(metal)    S(lipo)     H(rot)  DE(clash)    DE(int)     intcor
     12.88     -16.05       2.90        0.00      58.00       2.31       0.19       2.98       ----

> <Gold.Chemscore.Fitness>
12.8774

> <Gold.Chemscore.DG>
-16.0501

> <Gold.Chemscore.ZeroCoef>
-5.4800

> <Gold.Chemscore.Hbond>
2.9031

> <Gold.Chemscore.Metal>
0.0000

> <Gold.Chemscore.Lipo>
58.0044

> <Gold.Chemscore.Internal_Hbond>
0.0000

> <Gold.Chemscore.DEClash>
0.1942

> <Gold.Chemscore.DEInternal>
2.9785

> <Gold.Chemscore.Rot>
2.3097

> <Gold.Chemscore.Internal.Correction>
   9.000000E+99

> <Gold.Chemscore.Hbonds>
donor molecule, donor type, donor heavy atom, donor atom, acceptor molecule, acceptor atom, score
      L1  H     3    18       P1  7948  0.95
      L1  H    10    23       P1  7948  0.88
      L1  H    14    29       P1 10957  0.20
      P1  H 11000 11005       L1    14  0.24

> <Gold.Chemscore.Hbond.Weighted>
-9.6963

> <Gold.Chemscore.Metal.Weighted>
-0.0000

> <Gold.Chemscore.Lipo.Weighted>
-6.7865

> <Gold.Chemscore.Internal_Hbond.Weighted>
0.0000

> <Gold.Chemscore.DEClash.Weighted>
0.1942

> <Gold.Chemscore.DEInternal.Weighted>
2.9785

> <Gold.Chemscore.Rot.Weighted>
5.9127

> <Gold.Chemscore.Internal.Correction.Weighted>
   9.000000E+99

> <Gold.Protein.RotatedTorsions>
[ 6907 6896 6895 6894 ] final -109.96 input  -60.11 | X-H torsion
[ 7974 7965 7964 7962 ] final   39.76 input  175.53 | X-H torsion
[ 8008 7997 7996 7995 ] final  160.96 input   59.86 | X-H torsion
[ 10167 10162 10161 10158 ] final  -45.65 input  -65.29 | X-H torsion
[ 10718 10713 10712 10709 ] final -138.79 input   66.30 | X-H torsion
[ 10763 10752 10751 10750 ] final   16.74 input  -60.55 | X-H torsion
[ 11005 11000 10999 10996 ] final    8.13 input  -57.11 | X-H torsion

> <Gold.Protein.ActiveResidues>
 VAL166  LYS551  ARG553  GLY616  TRP617  ASP618  TYR619  PRO620  LYS621  CYS622 
 ASP623  PHE694  ASN695  SER759  ASP760  ASP761  ALA762  ILE779  LEU786  VAL792 
 PHE793  MET794  SER795  GLU796  ALA797  LYS798  CYS799  TRP800  GLU811  SER814 

> <Gold.Protein.RotatedAtoms>
  150.7594  133.9452  159.3468 H   0  0  0  0  0  0  0  0  0  0  0  0  # atno 6907 bound_to 6896
  151.7364  135.0862  160.0318 H   0  0  0  0  0  0  0  0  0  0  0  0  # atno 6908 bound_to 6896
  152.3556  133.6196  159.6013 H   0  0  0  0  0  0  0  0  0  0  0  0  # atno 6909 bound_to 6896
  146.0958  139.5613  142.9446 H   0  0  0  0  0  0  0  0  0  0  0  0  # atno 7974 bound_to 7965
  156.2137  140.1790  156.7638 H   0  0  0  0  0  0  0  0  0  0  0  0  # atno 8008 bound_to 7997
  154.5759  140.0674  156.9063 H   0  0  0  0  0  0  0  0  0  0  0  0  # atno 8009 bound_to 7997
  155.2589  140.3334  155.4277 H   0  0  0  0  0  0  0  0  0  0  0  0  # atno 8010 bound_to 7997
  140.6849  143.2869  151.3669 H   0  0  0  0  0  0  0  0  0  0  0  0  # atno 10167 bound_to 10162
  156.3034  130.7441  151.1499 H   0  0  0  0  0  0  0  0  0  0  0  0  # atno 10718 bound_to 10713
  153.1403  135.6758  153.9038 H   0  0  0  0  0  0  0  0  0  0  0  0  # atno 10763 bound_to 10752
  153.8497  135.3095  155.3433 H   0  0  0  0  0  0  0  0  0  0  0  0  # atno 10764 bound_to 10752
  154.7782  135.4903  153.9871 H   0  0  0  0  0  0  0  0  0  0  0  0  # atno 10765 bound_to 10752
  140.5405  134.0379  155.7902 H   0  0  0  0  0  0  0  0  0  0  0  0  # atno 11005 bound_to 11000
  145.5950  141.0364  143.2049 LP  0  0  0  0  0  0  0  0  0  0  0  0  # atno 17320 bound_to 7965
  144.7394  139.7491  143.7316 LP  0  0  0  0  0  0  0  0  0  0  0  0  # atno 17321 bound_to 7965
  139.6200  144.0925  152.2382 LP  0  0  0  0  0  0  0  0  0  0  0  0  # atno 17342 bound_to 10162
  140.0367  144.6039  150.7444 LP  0  0  0  0  0  0  0  0  0  0  0  0  # atno 17343 bound_to 10162
  157.7373  131.0553  150.5361 LP  0  0  0  0  0  0  0  0  0  0  0  0  # atno 17370 bound_to 10713
  156.5491  130.4227  149.6116 LP  0  0  0  0  0  0  0  0  0  0  0  0  # atno 17371 bound_to 10713
  141.1230  133.9430  157.2692 LP  0  0  0  0  0  0  0  0  0  0  0  0  # atno 17394 bound_to 11000
  139.9506  135.0176  156.8984 LP  0  0  0  0  0  0  0  0  0  0  0  0  # atno 17395 bound_to 11000

$$$$
