AV-unprocessed.smi:3250|AV-procd|sdf|12427|dock3
  -GOLD-   2272018313D 1   1.00000     0.00000
 Structure written by MMmdl.
 39 40  0  0  0  0  0  0  0  0  2 V2000
  145.8944  131.9134  150.4110 C   0  0  0  0  0  0  0  0  0  0  0  0
  146.3369  133.3197  150.8380 C   0  0  0  0  0  0  0  0  0  0  0  0
  145.4034  134.3731  150.3587 N   0  3  1  0  0  0  0  0  0  0  0  0
  143.9686  134.0996  150.6270 C   0  0  0  0  0  0  0  0  0  0  0  0
  143.5998  134.3999  152.0925 C   0  0  0  0  0  0  0  0  0  0  0  0
  143.9696  135.7344  152.4186 O   0  0  0  0  0  0  0  0  0  0  0  0
  145.3694  135.9593  152.2915 C   0  0  2  0  0  0  0  0  0  0  0  0
  145.6558  137.3925  152.7717 C   0  0  0  0  0  0  0  0  0  0  0  0
  147.0817  137.6783  152.8688 N   0  0  0  0  0  0  0  0  0  0  0  0
  147.6185  138.8756  153.3069 C   0  0  0  0  0  0  0  0  0  0  0  0
  146.8392  139.9468  153.1454 N   0  0  0  0  0  0  0  0  0  0  0  0
  147.3302  141.1323  153.5684 C   0  0  0  0  0  0  0  0  0  0  0  0
  148.6080  141.2409  154.1524 C   0  0  0  0  0  0  0  0  0  0  0  0
  149.3478  140.0474  154.2728 C   0  0  0  0  0  0  0  0  0  0  0  0
  150.6064  140.0816  154.8361 O   0  0  0  0  0  0  0  0  0  0  0  0
  151.3177  138.8553  154.9640 C   0  0  0  0  0  0  0  0  0  0  0  0
  148.8440  138.8636  153.8429 N   0  0  0  0  0  0  0  0  0  0  0  0
  145.7646  135.7374  150.8147 C   0  0  0  0  0  0  0  0  0  0  0  0
  146.6404  131.1732  150.7003 H   0  0  0  0  0  0  0  0  0  0  0  0
  145.7717  131.8509  149.3293 H   0  0  0  0  0  0  0  0  0  0  0  0
  144.9527  131.6207  150.8745 H   0  0  0  0  0  0  0  0  0  0  0  0
  146.4595  133.3692  151.9200 H   0  0  0  0  0  0  0  0  0  0  0  0
  147.3249  133.4974  150.4113 H   0  0  0  0  0  0  0  0  0  0  0  0
  143.3751  134.7399  149.9732 H   0  0  0  0  0  0  0  0  0  0  0  0
  143.7055  133.0751  150.3668 H   0  0  0  0  0  0  0  0  0  0  0  0
  142.5246  134.2910  152.2345 H   0  0  0  0  0  0  0  0  0  0  0  0
  144.0779  133.6985  152.7775 H   0  0  0  0  0  0  0  0  0  0  0  0
  145.8965  135.2536  152.9354 H   0  0  0  0  0  0  0  0  0  0  0  0
  145.2018  138.1130  152.0913 H   0  0  0  0  0  0  0  0  0  0  0  0
  145.1936  137.5588  153.7456 H   0  0  0  0  0  0  0  0  0  0  0  0
  147.7328  136.9465  152.6232 H   0  0  0  0  0  0  0  0  0  0  0  0
  146.6999  141.9998  153.4399 H   0  0  0  0  0  0  0  0  0  0  0  0
  148.9982  142.1892  154.4916 H   0  0  0  0  0  0  0  0  0  0  0  0
  152.2823  139.0445  155.4350 H   0  0  0  0  0  0  0  0  0  0  0  0
  151.5075  138.4022  153.9898 H   0  0  0  0  0  0  0  0  0  0  0  0
  150.7780  138.1434  155.5901 H   0  0  0  0  0  0  0  0  0  0  0  0
  146.8293  135.9167  150.6596 H   0  0  0  0  0  0  0  0  0  0  0  0
  145.2399  136.4582  150.1860 H   0  0  0  0  0  0  0  0  0  0  0  0
  145.5123  134.3812  149.3544 H   0  0  0  0  0  0  0  0  0  0  0  0
  1  2  1  0  0  0  0
  1 19  1  0  0  0  0
  1 20  1  0  0  0  0
  1 21  1  0  0  0  0
  2  3  1  0  0  0  0
  2 22  1  0  0  0  0
  2 23  1  0  0  0  0
  3 18  1  0  0  0  0
  3  4  1  0  0  0  0
  3 39  1  0  0  0  0
  4  5  1  0  0  0  0
  4 24  1  0  0  0  0
  4 25  1  0  0  0  0
  5  6  1  0  0  0  0
  5 26  1  0  0  0  0
  5 27  1  0  0  0  0
  6  7  1  0  0  0  0
  7  8  1  0  0  0  0
  7 18  1  0  0  0  0
  7 28  1  0  0  0  0
  8  9  1  0  0  0  0
  8 29  1  0  0  0  0
  8 30  1  0  0  0  0
  9 10  1  0  0  0  0
  9 31  1  0  0  0  0
 10 17  1  0  0  0  0
 10 11  2  0  0  0  0
 11 12  1  0  0  0  0
 12 13  2  0  0  0  0
 12 32  1  0  0  0  0
 13 14  1  0  0  0  0
 13 33  1  0  0  0  0
 14 15  1  0  0  0  0
 14 17  2  0  0  0  0
 15 16  1  0  0  0  0
 16 34  1  0  0  0  0
 16 35  1  0  0  0  0
 16 36  1  0  0  0  0
 18 37  1  0  0  0  0
 18 38  1  0  0  0  0
M  CHG  1   3   1
M  END
> <s_m_source_file>
AV-unprocessed.smi

> <i_m_source_file_index>
3250

> <i_lp_mmshare_version>
43012

> <i_f3d_flags>
0

> <s_epik_input>
W0NIM11bQ0gyXU4xW0NIMl1bQ0gyXU9bQ0BIXShbQ0gyXTEpW0NIMl1bTkhdYzJuW2NIXVtjSF1jKG4yKU9bQ0gzXQ==

> <s_epik_cmdline>
J2VwaWtfcHl0aG9uJywgJy1waCcsICc3LjAnLCAnLXRuJywgJzgnLCAnLW1hJywgJzIwMCcsICctbWV0YWxfYmluZGluZycsICctaW1hZScsICc8aW5maWxlLm1hZT4nLCAnLW9tYWUnLCAnPG91dGZpbGUubWFlPic=

> <r_lp_tautomer_probability>
1

> <r_epik_Ionization_Penalty>
0.19684

> <r_epik_Ionization_Penalty_Charging>
0.178504

> <r_epik_Ionization_Penalty_Neutral>
0.0183356

> <r_epik_State_Penalty>
0.162939

> <r_epik_Charging_Adjusted_Penalty>
0.341443

> <i_epik_Tot_Q>
1

> <i_epik_Tot_abs_Q>
1

> <r_epik_Metal_State_Penalty>
0.1608

> <b_epik_Metal_Only>
0

> <s_lp_Force_Field>
OPLS_2005

> <r_lp_Energy>
9.61167

> <b_lp_Chiralities_Consistent>
1

> <s_lp_Variant>
AV-unprocessed.smi:3250-3

> <Gold.Version>
5.8.1

> <Gold.Id.Protein>
6NUR|6NUR_protein|mol2

> <Gold.PLP.Fitness>
40.2635

> <Gold.PLP.PLP>
-31.6525

> <Gold.PLP.part.hbond>
-3.0000

> <Gold.PLP.part.metal>
0.0000

> <Gold.PLP.part.buried>
-3.2272

> <Gold.PLP.part.nonpolar>
-26.4965

> <Gold.PLP.part.repulsive>
1.6064

> <Gold.PLP.ligand.clash>
0.0000

> <Gold.PLP.ligand.torsion>
0.2182

> <Gold.PLP.Chemscore.Hbond>
3.0000

> <Gold.PLP.Chemscore.CHOScore>
0.0000

> <Gold.PLP.Chemscore.Metal>
0.0000

> <Gold.Chemscore.Hbonds>
donor molecule, donor type, donor heavy atom, donor atom, acceptor molecule, acceptor atom, score
      L1  H     3    39       P1  7921  1.00
      L1  H     9    31       P1  7948  1.00
      P1  H  7989  7998       L1    15  0.95

> <Gold.PLP.Chemscore.Internal.Correction>
0.0474

> <Gold.Rescore>
     Score         DG    S(hbond)    S(metal)    S(lipo)     H(rot)  DE(clash)    DE(int)     intcor
     15.67     -16.02       2.03        0.00      69.76       1.71       0.12       0.24       ----

> <Gold.Chemscore.Fitness>
15.6709

> <Gold.Chemscore.DG>
-16.0233

> <Gold.Chemscore.ZeroCoef>
-5.4800

> <Gold.Chemscore.Hbond>
2.0256

> <Gold.Chemscore.Metal>
0.0000

> <Gold.Chemscore.Lipo>
69.7637

> <Gold.Chemscore.Internal_Hbond>
0.0000

> <Gold.Chemscore.DEClash>
0.1162

> <Gold.Chemscore.DEInternal>
0.2362

> <Gold.Chemscore.Rot>
1.7127

> <Gold.Chemscore.Internal.Correction>
   9.000000E+99

> <Gold.Chemscore.Hbonds>
donor molecule, donor type, donor heavy atom, donor atom, acceptor molecule, acceptor atom, score
      L1  H     3    39       P1  7921  0.92
      L1  H     9    31       P1  7948  0.98
      P1  H  7989  7998       L1    15  0.09

> <Gold.Chemscore.Hbond.Weighted>
-6.7656

> <Gold.Chemscore.Metal.Weighted>
-0.0000

> <Gold.Chemscore.Lipo.Weighted>
-8.1624

> <Gold.Chemscore.Internal_Hbond.Weighted>
0.0000

> <Gold.Chemscore.DEClash.Weighted>
0.1162

> <Gold.Chemscore.DEInternal.Weighted>
0.2362

> <Gold.Chemscore.Rot.Weighted>
4.3846

> <Gold.Chemscore.Internal.Correction.Weighted>
   9.000000E+99

> <Gold.Protein.RotatedTorsions>
[ 6907 6896 6895 6894 ] final   50.96 input  -60.11 | X-H torsion
[ 7974 7965 7964 7962 ] final   -2.97 input  175.53 | X-H torsion
[ 8008 7997 7996 7995 ] final  -34.96 input   59.86 | X-H torsion
[ 10167 10162 10161 10158 ] final  -30.02 input  -65.29 | X-H torsion
[ 10718 10713 10712 10709 ] final  -77.83 input   66.30 | X-H torsion
[ 10763 10752 10751 10750 ] final -162.89 input  -60.55 | X-H torsion
[ 11005 11000 10999 10996 ] final -157.79 input  -57.11 | X-H torsion

> <Gold.Protein.ActiveResidues>
 VAL166  LYS551  ARG553  GLY616  TRP617  ASP618  TYR619  PRO620  LYS621  CYS622 
 ASP623  PHE694  ASN695  SER759  ASP760  ASP761  ALA762  ILE779  LEU786  VAL792 
 PHE793  MET794  SER795  GLU796  ALA797  LYS798  CYS799  TRP800  GLU811  SER814 

> <Gold.Protein.RotatedAtoms>
  152.3075  134.7537  160.0343 H   0  0  0  0  0  0  0  0  0  0  0  0  # atno 6907 bound_to 6896
  151.8029  133.3367  159.3540 H   0  0  0  0  0  0  0  0  0  0  0  0  # atno 6908 bound_to 6896
  150.7304  134.5666  159.5914 H   0  0  0  0  0  0  0  0  0  0  0  0  # atno 6909 bound_to 6896
  146.2397  140.1650  142.8332 H   0  0  0  0  0  0  0  0  0  0  0  0  # atno 7974 bound_to 7965
  154.4107  140.1670  156.2134 H   0  0  0  0  0  0  0  0  0  0  0  0  # atno 8008 bound_to 7997
  155.9425  140.3407  155.6316 H   0  0  0  0  0  0  0  0  0  0  0  0  # atno 8009 bound_to 7997
  155.6971  140.0740  157.2416 H   0  0  0  0  0  0  0  0  0  0  0  0  # atno 8010 bound_to 7997
  140.7254  143.3882  151.1478 H   0  0  0  0  0  0  0  0  0  0  0  0  # atno 10167 bound_to 10162
  156.0134  130.4502  150.3404 H   0  0  0  0  0  0  0  0  0  0  0  0  # atno 10718 bound_to 10713
  154.7172  135.3018  154.9104 H   0  0  0  0  0  0  0  0  0  0  0  0  # atno 10763 bound_to 10752
  153.9987  135.6709  153.4762 H   0  0  0  0  0  0  0  0  0  0  0  0  # atno 10764 bound_to 10752
  153.0804  135.5012  154.8406 H   0  0  0  0  0  0  0  0  0  0  0  0  # atno 10765 bound_to 10752
  140.6607  134.4352  157.5234 H   0  0  0  0  0  0  0  0  0  0  0  0  # atno 11005 bound_to 11000
  145.0058  140.8671  143.5254 LP  0  0  0  0  0  0  0  0  0  0  0  0  # atno 17320 bound_to 7965
  145.1676  139.2422  143.5359 LP  0  0  0  0  0  0  0  0  0  0  0  0  # atno 17321 bound_to 7965
  139.7482  143.8819  152.3069 LP  0  0  0  0  0  0  0  0  0  0  0  0  # atno 17342 bound_to 10162
  139.8663  144.7091  150.9039 LP  0  0  0  0  0  0  0  0  0  0  0  0  # atno 17343 bound_to 10162
  157.1500  131.0318  151.2889 LP  0  0  0  0  0  0  0  0  0  0  0  0  # atno 17370 bound_to 10713
  157.4400  130.7539  149.7061 LP  0  0  0  0  0  0  0  0  0  0  0  0  # atno 17371 bound_to 10713
  139.9014  134.8548  156.1882 LP  0  0  0  0  0  0  0  0  0  0  0  0  # atno 17394 bound_to 11000
  141.0467  133.6910  156.1696 LP  0  0  0  0  0  0  0  0  0  0  0  0  # atno 17395 bound_to 11000

$$$$
