AV-unprocessed.smi:35|AV-procd|sdf|262|dock7
  -GOLD-   2262016 23D 1   1.00000     0.00000
 Structure written by MMmdl.
 29 30  0  0  0  0  0  0  0  0  1 V2000
  152.2599  135.7878  156.6032 O   0  0  0  0  0  0  0  0  0  0  0  0
  151.7670  136.8107  156.1330 C   0  0  0  0  0  0  0  0  0  0  0  0
  152.5887  137.8367  155.6594 N   0  0  0  0  0  0  0  0  0  0  0  0
  152.1461  139.0419  155.1114 C   0  0  0  0  0  0  0  0  0  0  0  0
  152.9625  139.8703  154.7097 O   0  0  0  0  0  0  0  0  0  0  0  0
  150.7499  139.2533  155.0451 N   0  0  0  0  0  0  0  0  0  0  0  0
  150.2520  140.5530  154.4358 C   0  0  1  0  0  0  0  0  0  0  0  0
  149.3096  140.2727  153.4428 O   0  0  0  0  0  0  0  0  0  0  0  0
  147.9970  140.3816  153.9841 C   0  0  2  0  0  0  0  0  0  0  0  0
  146.9385  140.4761  152.8720 C   0  0  0  0  0  0  0  0  0  0  0  0
  146.9443  139.2925  152.1025 O   0  0  0  0  0  0  0  0  0  0  0  0
  148.1341  141.6134  154.8833 C   0  0  2  0  0  0  0  0  0  0  0  0
  148.0357  142.8025  154.1155 O   0  0  0  0  0  0  0  0  0  0  0  0
  149.5226  141.4160  155.4920 C   0  0  2  0  0  0  0  0  0  0  0  0
  150.1745  142.6418  155.7704 O   0  0  0  0  0  0  0  0  0  0  0  0
  149.8936  138.2459  155.4798 C   0  0  0  0  0  0  0  0  0  0  0  0
  150.3397  137.0802  156.0046 C   0  0  0  0  0  0  0  0  0  0  0  0
  148.9584  135.7774  156.5705 Br  0  0  0  0  0  0  0  0  0  0  0  0
  153.5863  137.6914  155.7138 H   0  0  0  0  0  0  0  0  0  0  0  0
  151.1312  141.0196  153.9872 H   0  0  0  0  0  0  0  0  0  0  0  0
  147.7915  139.5192  154.6212 H   0  0  0  0  0  0  0  0  0  0  0  0
  145.9442  140.5781  153.3075 H   0  0  0  0  0  0  0  0  0  0  0  0
  147.1062  141.3434  152.2328 H   0  0  0  0  0  0  0  0  0  0  0  0
  147.8162  139.1594  151.7635 H   0  0  0  0  0  0  0  0  0  0  0  0
  147.3599  141.6407  155.6509 H   0  0  0  0  0  0  0  0  0  0  0  0
  148.5486  143.4732  154.5408 H   0  0  0  0  0  0  0  0  0  0  0  0
  149.4238  140.8481  156.4186 H   0  0  0  0  0  0  0  0  0  0  0  0
  149.5221  143.3256  155.7971 H   0  0  0  0  0  0  0  0  0  0  0  0
  148.8236  138.3670  155.4056 H   0  0  0  0  0  0  0  0  0  0  0  0
  1  2  2  0  0  0  0
  2 17  1  0  0  0  0
  2  3  1  0  0  0  0
  3 19  1  0  0  0  0
  3  4  1  0  0  0  0
  4  5  2  0  0  0  0
  4  6  1  0  0  0  0
  6  7  1  0  0  0  0
  6 16  1  0  0  0  0
  7 14  1  0  0  0  0
  7  8  1  0  0  0  0
  7 20  1  0  0  0  0
  8  9  1  0  0  0  0
  9 10  1  0  0  0  0
  9 12  1  0  0  0  0
  9 21  1  0  0  0  0
 10 11  1  0  0  0  0
 10 22  1  0  0  0  0
 10 23  1  0  0  0  0
 11 24  1  0  0  0  0
 12 13  1  0  0  0  0
 12 14  1  0  0  0  0
 12 25  1  0  0  0  0
 13 26  1  0  0  0  0
 14 15  1  0  0  0  0
 14 27  1  0  0  0  0
 15 28  1  0  0  0  0
 16 17  2  0  0  0  0
 16 29  1  0  0  0  0
 17 18  1  0  0  0  0
M  END
> <s_m_source_file>
AV-unprocessed.smi

> <i_m_source_file_index>
35

> <i_lp_mmshare_version>
43012

> <i_f3d_flags>
0

> <s_epik_input>
Tz1jMVtuSF1jKD1PKW4oW2NIXWMxQnIpW0NAQEhdMk9bQ0BASF0oW0NIMl1bT0hdKVtDQEBIXShbT0hdKVtDQEhdMltPSF0=

> <s_epik_cmdline>
J2VwaWtfcHl0aG9uJywgJy1waCcsICc3LjAnLCAnLXRuJywgJzgnLCAnLW1hJywgJzIwMCcsICctbWV0YWxfYmluZGluZycsICctaW1hZScsICc8aW5maWxlLm1hZT4nLCAnLW9tYWUnLCAnPG91dGZpbGUubWFlPic=

> <r_lp_tautomer_probability>
0.999537

> <r_epik_Ionization_Penalty>
0.10812

> <r_epik_Ionization_Penalty_Charging>
0.108119

> <r_epik_Ionization_Penalty_Neutral>
4.93006e-07

> <r_epik_State_Penalty>
0.0979238

> <r_epik_Charging_Adjusted_Penalty>
0.206043

> <i_epik_Tot_Q>
0

> <i_epik_Tot_abs_Q>
0

> <r_epik_Metal_State_Penalty>
3.07911

> <b_epik_Metal_Only>
0

> <s_epik_Chemistry_Notes>
This compound contains an acetal/aminal-like group ( X-CH(R)-Y where X, Y are N, S, or O) that may be acid/base labile, releasing an aldehyde.

> <s_lp_Force_Field>
OPLS_2005

> <r_lp_Energy>
32.933

> <b_lp_Chiralities_Consistent>
1

> <s_lp_Variant>
AV-unprocessed.smi:35-16

> <Gold.Version>
5.8.1

> <Gold.Id.Protein>
6NUR|6NUR_protein|mol2

> <Gold.PLP.Fitness>
39.3725

> <Gold.PLP.PLP>
-23.0013

> <Gold.PLP.part.hbond>
-8.5847

> <Gold.PLP.part.metal>
0.0000

> <Gold.PLP.part.buried>
2.0299

> <Gold.PLP.part.nonpolar>
-19.3500

> <Gold.PLP.part.repulsive>
5.7633

> <Gold.PLP.ligand.clash>
0.0000

> <Gold.PLP.ligand.torsion>
0.1331

> <Gold.PLP.Chemscore.Hbond>
5.5378

> <Gold.PLP.Chemscore.CHOScore>
0.0000

> <Gold.PLP.Chemscore.Metal>
0.0000

> <Gold.Chemscore.Hbonds>
donor molecule, donor type, donor heavy atom, donor atom, acceptor molecule, acceptor atom, score
      L1  H    11    24       P1  7957  0.91
      L1  H    13    26       P1  8028  1.00
      L1  H    15    28       P1  8028  1.00
      P1  H  7989  7998       L1     5  0.29
      P1  H  7997  8008       L1     5  1.00
      P1  H 10752 10765       L1     1  1.00

> <Gold.PLP.Chemscore.Internal.Correction>
0.0239

> <Gold.Rescore>
     Score         DG    S(hbond)    S(metal)    S(lipo)     H(rot)  DE(clash)    DE(int)     intcor
     10.89     -14.69       4.25        0.00      37.70       3.67       3.63       0.17       ----

> <Gold.Chemscore.Fitness>
10.8896

> <Gold.Chemscore.DG>
-14.6872

> <Gold.Chemscore.ZeroCoef>
-5.4800

> <Gold.Chemscore.Hbond>
4.2489

> <Gold.Chemscore.Metal>
0.0000

> <Gold.Chemscore.Lipo>
37.7037

> <Gold.Chemscore.Internal_Hbond>
0.0000

> <Gold.Chemscore.DEClash>
3.6277

> <Gold.Chemscore.DEInternal>
0.1699

> <Gold.Chemscore.Rot>
3.6701

> <Gold.Chemscore.Internal.Correction>
   9.000000E+99

> <Gold.Chemscore.Hbonds>
donor molecule, donor type, donor heavy atom, donor atom, acceptor molecule, acceptor atom, score
      L1  H    11    24       P1  7957  0.80
      L1  H    13    26       P1  8028  0.98
      L1  H    15    28       P1  8028  0.94
      P1  H  7989  7998       L1     5  0.05
      P1  H  7997  8008       L1     5  0.92
      P1  H 10752 10765       L1     1  0.26

> <Gold.Chemscore.Hbond.Weighted>
-14.1913

> <Gold.Chemscore.Metal.Weighted>
-0.0000

> <Gold.Chemscore.Lipo.Weighted>
-4.4113

> <Gold.Chemscore.Internal_Hbond.Weighted>
0.0000

> <Gold.Chemscore.DEClash.Weighted>
3.6277

> <Gold.Chemscore.DEInternal.Weighted>
0.1699

> <Gold.Chemscore.Rot.Weighted>
9.3955

> <Gold.Chemscore.Internal.Correction.Weighted>
   9.000000E+99

> <Gold.Protein.RotatedTorsions>
[ 6907 6896 6895 6894 ] final   44.04 input  -60.11 | X-H torsion
[ 7974 7965 7964 7962 ] final  -35.60 input  175.53 | X-H torsion
[ 8008 7997 7996 7995 ] final  -14.38 input   59.86 | X-H torsion
[ 10167 10162 10161 10158 ] final   86.69 input  -65.29 | X-H torsion
[ 10718 10713 10712 10709 ] final  -95.79 input   66.30 | X-H torsion
[ 10763 10752 10751 10750 ] final -126.02 input  -60.55 | X-H torsion
[ 11005 11000 10999 10996 ] final   54.39 input  -57.11 | X-H torsion

> <Gold.Protein.ActiveResidues>
 VAL166  LYS551  ARG553  GLY616  TRP617  ASP618  TYR619  PRO620  LYS621  CYS622 
 ASP623  PHE694  ASN695  SER759  ASP760  ASP761  ALA762  ILE779  LEU786  VAL792 
 PHE793  MET794  SER795  GLU796  ALA797  LYS798  CYS799  TRP800  GLU811  SER814 

> <Gold.Protein.RotatedAtoms>
  152.2277  134.8352  160.0477 H   0  0  0  0  0  0  0  0  0  0  0  0  # atno 6907 bound_to 6896
  151.9113  133.3557  159.3872 H   0  0  0  0  0  0  0  0  0  0  0  0  # atno 6908 bound_to 6896
  150.7017  134.4655  159.5444 H   0  0  0  0  0  0  0  0  0  0  0  0  # atno 6909 bound_to 6896
  146.0732  140.6179  142.8942 H   0  0  0  0  0  0  0  0  0  0  0  0  # atno 7974 bound_to 7965
  154.5214  140.2224  155.8968 H   0  0  0  0  0  0  0  0  0  0  0  0  # atno 8008 bound_to 7997
  156.1666  140.3131  155.8865 H   0  0  0  0  0  0  0  0  0  0  0  0  # atno 8009 bound_to 7997
  155.3643  140.0463  157.3037 H   0  0  0  0  0  0  0  0  0  0  0  0  # atno 8010 bound_to 7997
  139.8850  144.6418  150.8801 H   0  0  0  0  0  0  0  0  0  0  0  0  # atno 10167 bound_to 10162
  156.0050  130.5124  150.6129 H   0  0  0  0  0  0  0  0  0  0  0  0  # atno 10718 bound_to 10713
  154.8742  135.4009  154.3363 H   0  0  0  0  0  0  0  0  0  0  0  0  # atno 10763 bound_to 10752
  153.4169  135.7022  153.6326 H   0  0  0  0  0  0  0  0  0  0  0  0  # atno 10764 bound_to 10752
  153.5004  135.3729  155.2507 H   0  0  0  0  0  0  0  0  0  0  0  0  # atno 10765 bound_to 10752
  140.0690  134.5496  155.9067 H   0  0  0  0  0  0  0  0  0  0  0  0  # atno 11005 bound_to 11000
  144.7245  140.4480  143.6983 LP  0  0  0  0  0  0  0  0  0  0  0  0  # atno 17320 bound_to 7965
  145.6353  139.1542  143.2946 LP  0  0  0  0  0  0  0  0  0  0  0  0  # atno 17321 bound_to 7965
  140.7737  143.3555  151.1929 LP  0  0  0  0  0  0  0  0  0  0  0  0  # atno 17342 bound_to 10162
  139.7161  143.9298  152.2967 LP  0  0  0  0  0  0  0  0  0  0  0  0  # atno 17343 bound_to 10162
  157.3958  131.0802  151.1353 LP  0  0  0  0  0  0  0  0  0  0  0  0  # atno 17370 bound_to 10713
  157.2030  130.6403  149.5745 LP  0  0  0  0  0  0  0  0  0  0  0  0  # atno 17371 bound_to 10713
  141.2004  133.6612  156.5896 LP  0  0  0  0  0  0  0  0  0  0  0  0  # atno 17394 bound_to 11000
  140.3655  134.7650  157.4563 LP  0  0  0  0  0  0  0  0  0  0  0  0  # atno 17395 bound_to 11000

$$$$
