AV-unprocessed.smi:69|AV-procd|sdf|654|dock7
  -GOLD-   2262016553D 1   1.00000     0.00000
 Structure written by MMmdl.
 32 34  0  0  0  0  0  0  0  0  1 V2000
  145.1952  135.1124  149.7874 N   0  0  0  0  0  0  0  0  0  0  0  0
  145.1632  135.6867  150.9980 C   0  0  0  0  0  0  0  0  0  0  0  0
  144.4358  135.0921  151.9720 N   0  0  0  0  0  0  0  0  0  0  0  0
  144.3870  135.6468  153.1869 C   0  0  0  0  0  0  0  0  0  0  0  0
  144.9781  136.7635  153.6190 N   0  0  0  0  0  0  0  0  0  0  0  0
  145.7120  137.3652  152.6376 C   0  0  0  0  0  0  0  0  0  0  0  0
  145.8535  136.8869  151.3043 C   0  0  0  0  0  0  0  0  0  0  0  0
  146.6698  137.7413  150.5772 N   0  0  0  0  0  0  0  0  0  0  0  0
  146.9898  138.6717  151.4352 C   0  0  0  0  0  0  0  0  0  0  0  0
  146.4555  138.5295  152.6974 N   0  0  0  0  0  0  0  0  0  0  0  0
  146.6658  139.4495  153.8599 C   0  0  1  0  0  0  0  0  0  0  0  0
  147.5573  138.8689  154.7603 O   0  0  0  0  0  0  0  0  0  0  0  0
  148.5022  139.8244  155.2495 C   0  0  1  0  0  0  0  0  0  0  0  0
  149.9115  139.3668  154.8170 C   0  0  0  0  0  0  0  0  0  0  0  0
  150.8630  140.3515  155.1607 O   0  0  0  0  0  0  0  0  0  0  0  0
  148.0391  141.1702  154.6559 C   0  0  1  0  0  0  0  0  0  0  0  0
  149.0984  142.0594  154.3563 O   0  0  0  0  0  0  0  0  0  0  0  0
  147.2793  140.7706  153.4013 C   0  0  2  0  0  0  0  0  0  0  0  0
  146.2915  141.7440  153.1221 O   0  0  0  0  0  0  0  0  0  0  0  0
  145.6872  139.5541  154.3321 H   0  0  0  0  0  0  0  0  0  0  0  0
  148.4526  139.8722  156.3384 H   0  0  0  0  0  0  0  0  0  0  0  0
  147.3621  141.6489  155.3661 H   0  0  0  0  0  0  0  0  0  0  0  0
  147.9494  140.6018  152.5562 H   0  0  0  0  0  0  0  0  0  0  0  0
  145.7299  135.5373  149.0435 H   0  0  0  0  0  0  0  0  0  0  0  0
  144.6833  134.2583  149.6212 H   0  0  0  0  0  0  0  0  0  0  0  0
  143.7889  135.1221  153.9172 H   0  0  0  0  0  0  0  0  0  0  0  0
  147.6340  139.4972  151.1696 H   0  0  0  0  0  0  0  0  0  0  0  0
  150.1767  138.4032  155.2500 H   0  0  0  0  0  0  0  0  0  0  0  0
  149.9694  139.2547  153.7345 H   0  0  0  0  0  0  0  0  0  0  0  0
  150.4599  140.9630  155.7578 H   0  0  0  0  0  0  0  0  0  0  0  0
  149.0231  142.8173  154.9160 H   0  0  0  0  0  0  0  0  0  0  0  0
  145.4653  141.3053  152.9899 H   0  0  0  0  0  0  0  0  0  0  0  0
  1  2  1  0  0  0  0
  1 24  1  0  0  0  0
  1 25  1  0  0  0  0
  2  7  1  0  0  0  0
  2  3  2  0  0  0  0
  3  4  1  0  0  0  0
  4  5  2  0  0  0  0
  4 26  1  0  0  0  0
  5  6  1  0  0  0  0
  6 10  1  0  0  0  0
  6  7  2  0  0  0  0
  7  8  1  0  0  0  0
  8  9  2  0  0  0  0
  9 10  1  0  0  0  0
  9 27  1  0  0  0  0
 10 11  1  0  0  0  0
 11 20  1  0  0  0  0
 11 18  1  0  0  0  0
 11 12  1  0  0  0  0
 12 13  1  0  0  0  0
 13 21  1  0  0  0  0
 13 14  1  0  0  0  0
 13 16  1  0  0  0  0
 14 15  1  0  0  0  0
 14 28  1  0  0  0  0
 14 29  1  0  0  0  0
 15 30  1  0  0  0  0
 16 22  1  0  0  0  0
 16 17  1  0  0  0  0
 16 18  1  0  0  0  0
 17 31  1  0  0  0  0
 18 23  1  0  0  0  0
 18 19  1  0  0  0  0
 19 32  1  0  0  0  0
M  END
> <s_m_source_file>
AV-unprocessed.smi

> <i_m_source_file_index>
69

> <i_lp_mmshare_version>
43012

> <i_f3d_flags>
0

> <s_epik_input>
bjFbY0hdbmMoW05IMl0pYyhjMTIpbltjSF1uMltDQEBIXTNPW0NASF0oW0NIMl1bT0hdKVtDQEBIXShbT0hdKVtDQEhdM1tPSF0=

> <s_epik_cmdline>
J2VwaWtfcHl0aG9uJywgJy1waCcsICc3LjAnLCAnLXRuJywgJzgnLCAnLW1hJywgJzIwMCcsICctbWV0YWxfYmluZGluZycsICctaW1hZScsICc8aW5maWxlLm1hZT4nLCAnLW9tYWUnLCAnPG91dGZpbGUubWFlPic=

> <r_lp_tautomer_probability>
1

> <r_epik_Ionization_Penalty>
0.000428445

> <r_epik_Ionization_Penalty_Charging>
0

> <r_epik_Ionization_Penalty_Neutral>
0.000428445

> <r_epik_State_Penalty>
-0

> <r_epik_Charging_Adjusted_Penalty>
0

> <i_epik_Tot_Q>
0

> <i_epik_Tot_abs_Q>
0

> <r_epik_Metal_State_Penalty>
-0

> <b_epik_Metal_Only>
0

> <s_epik_Chemistry_Notes>
This compound contains an acetal/aminal-like group ( X-CH(R)-Y where X, Y are N, S, or O) that may be acid/base labile, releasing an aldehyde.

> <s_lp_Force_Field>
OPLS_2005

> <r_lp_Energy>
41.5942

> <b_lp_Chiralities_Consistent>
1

> <s_lp_Variant>
AV-unprocessed.smi:69-12

> <Gold.Version>
5.8.1

> <Gold.Id.Protein>
6NUR|6NUR_protein|mol2

> <Gold.PLP.Fitness>
41.0832

> <Gold.PLP.PLP>
-26.0092

> <Gold.PLP.part.hbond>
-6.0000

> <Gold.PLP.part.metal>
0.0000

> <Gold.PLP.part.buried>
-2.3691

> <Gold.PLP.part.nonpolar>
-22.0006

> <Gold.PLP.part.repulsive>
2.6187

> <Gold.PLP.ligand.clash>
0.0000

> <Gold.PLP.ligand.torsion>
0.3672

> <Gold.PLP.Chemscore.Hbond>
4.2671

> <Gold.PLP.Chemscore.CHOScore>
1.0000

> <Gold.PLP.Chemscore.Metal>
0.0000

> <Gold.Chemscore.Hbonds>
donor molecule, donor type, donor heavy atom, donor atom, acceptor molecule, acceptor atom, score
      L1  H     1    24       P1  7921  0.54
      L1  H    17    31       P1  8028  0.99
      L1  H    19    32       P1 10175  0.70
      P1  H  7954  7966       L1     8  0.50
      P1  H  7989  7998       L1    15  1.00
      P1  H  8011  8017       L1    17  0.23
      L1  C     9    27       P1  7957  0.91

> <Gold.PLP.Chemscore.Internal.Correction>
0.0070

> <Gold.Rescore>
     Score         DG    S(hbond)    S(metal)    S(lipo)     H(rot)  DE(clash)    DE(int)     intcor
      7.58      -9.40       3.21        0.00      29.93       4.03       1.63       0.20       ----

> <Gold.Chemscore.Fitness>
7.5770

> <Gold.Chemscore.DG>
-9.4022

> <Gold.Chemscore.ZeroCoef>
-5.4800

> <Gold.Chemscore.Hbond>
3.2131

> <Gold.Chemscore.Metal>
0.0000

> <Gold.Chemscore.Lipo>
29.9265

> <Gold.Chemscore.Internal_Hbond>
0.0000

> <Gold.Chemscore.DEClash>
1.6287

> <Gold.Chemscore.DEInternal>
0.1964

> <Gold.Chemscore.Rot>
4.0277

> <Gold.Chemscore.Internal.Correction>
   9.000000E+99

> <Gold.Chemscore.Hbonds>
donor molecule, donor type, donor heavy atom, donor atom, acceptor molecule, acceptor atom, score
      L1  H     1    24       P1  7921  0.54
      L1  H    17    31       P1  8028  0.92
      L1  H    19    32       P1 10175  0.07
      P1  H  7954  7966       L1     8  0.02
      P1  H  7989  7998       L1    15  0.48
      P1  H  8011  8017       L1    17  0.21

> <Gold.Chemscore.Hbond.Weighted>
-10.7318

> <Gold.Chemscore.Metal.Weighted>
-0.0000

> <Gold.Chemscore.Lipo.Weighted>
-3.5014

> <Gold.Chemscore.Internal_Hbond.Weighted>
0.0000

> <Gold.Chemscore.DEClash.Weighted>
1.6287

> <Gold.Chemscore.DEInternal.Weighted>
0.1964

> <Gold.Chemscore.Rot.Weighted>
10.3110

> <Gold.Chemscore.Internal.Correction.Weighted>
   9.000000E+99

> <Gold.Protein.RotatedTorsions>
[ 6907 6896 6895 6894 ] final -170.21 input  -60.11 | X-H torsion
[ 7974 7965 7964 7962 ] final  -14.68 input  175.53 | X-H torsion
[ 8008 7997 7996 7995 ] final  179.12 input   59.86 | X-H torsion
[ 10167 10162 10161 10158 ] final  162.12 input  -65.29 | X-H torsion
[ 10718 10713 10712 10709 ] final -164.11 input   66.30 | X-H torsion
[ 10763 10752 10751 10750 ] final  -30.06 input  -60.55 | X-H torsion
[ 11005 11000 10999 10996 ] final -130.48 input  -57.11 | X-H torsion

> <Gold.Protein.ActiveResidues>
 VAL166  LYS551  ARG553  GLY616  TRP617  ASP618  TYR619  PRO620  LYS621  CYS622 
 ASP623  PHE694  ASN695  SER759  ASP760  ASP761  ALA762  ILE779  LEU786  VAL792 
 PHE793  MET794  SER795  GLU796  ALA797  LYS798  CYS799  TRP800  GLU811  SER814 

> <Gold.Protein.RotatedAtoms>
  151.5040  133.3498  159.2873 H   0  0  0  0  0  0  0  0  0  0  0  0  # atno 6907 bound_to 6896
  150.8754  134.8138  159.7197 H   0  0  0  0  0  0  0  0  0  0  0  0  # atno 6908 bound_to 6896
  152.4727  134.4930  159.9753 H   0  0  0  0  0  0  0  0  0  0  0  0  # atno 6909 bound_to 6896
  146.2064  140.3383  142.8405 H   0  0  0  0  0  0  0  0  0  0  0  0  # atno 7974 bound_to 7965
  156.0470  140.1316  157.0093 H   0  0  0  0  0  0  0  0  0  0  0  0  # atno 8008 bound_to 7997
  154.4417  140.1018  156.6390 H   0  0  0  0  0  0  0  0  0  0  0  0  # atno 8009 bound_to 7997
  155.5581  140.3464  155.4487 H   0  0  0  0  0  0  0  0  0  0  0  0  # atno 8010 bound_to 7997
  139.4857  144.4469  151.8880 H   0  0  0  0  0  0  0  0  0  0  0  0  # atno 10167 bound_to 10162
  156.6344  130.8943  151.2984 H   0  0  0  0  0  0  0  0  0  0  0  0  # atno 10718 bound_to 10713
  153.7748  135.6909  153.4899 H   0  0  0  0  0  0  0  0  0  0  0  0  # atno 10763 bound_to 10752
  153.1850  135.4492  155.0076 H   0  0  0  0  0  0  0  0  0  0  0  0  # atno 10764 bound_to 10752
  154.8104  135.3375  154.7255 H   0  0  0  0  0  0  0  0  0  0  0  0  # atno 10765 bound_to 10752
  140.9342  134.1279  157.4208 H   0  0  0  0  0  0  0  0  0  0  0  0  # atno 11005 bound_to 11000
  144.8803  140.7391  143.5991 LP  0  0  0  0  0  0  0  0  0  0  0  0  # atno 17320 bound_to 7965
  145.3304  139.1761  143.4540 LP  0  0  0  0  0  0  0  0  0  0  0  0  # atno 17321 bound_to 7965
  140.3923  144.2599  150.5899 LP  0  0  0  0  0  0  0  0  0  0  0  0  # atno 17342 bound_to 10162
  140.5134  143.2284  151.8500 LP  0  0  0  0  0  0  0  0  0  0  0  0  # atno 17343 bound_to 10162
  157.7190  130.9534  150.1365 LP  0  0  0  0  0  0  0  0  0  0  0  0  # atno 17370 bound_to 10713
  156.2209  130.3674  149.8557 LP  0  0  0  0  0  0  0  0  0  0  0  0  # atno 17371 bound_to 10713
  139.8804  135.0015  156.6073 LP  0  0  0  0  0  0  0  0  0  0  0  0  # atno 17394 bound_to 11000
  140.7821  133.8651  155.8576 LP  0  0  0  0  0  0  0  0  0  0  0  0  # atno 17395 bound_to 11000

$$$$
