AV-unprocessed.smi:3150|AV-procd|sdf|12007|dock4
  -GOLD-   2272017413D 1   1.00000     0.00000
 Structure written by MMmdl.
 33 34  0  0  0  0  0  0  0  0  1 V2000
  151.4961  139.1403  158.5458 C   0  0  0  0  0  0  0  0  0  0  0  0
  152.1064  140.1728  157.5860 C   0  0  2  0  0  0  0  0  0  0  0  0
  152.3098  141.3763  158.3220 O   0  0  0  0  0  0  0  0  0  0  0  0
  153.1775  141.2663  159.4437 C   0  0  0  0  0  0  0  0  0  0  0  0
  153.4164  142.6483  160.0112 C   0  0  0  0  0  0  0  0  0  0  0  0
  152.6175  143.1418  161.1961 C   0  0  0  0  0  0  0  0  0  0  0  0
  152.3839  143.7381  159.8313 C   0  0  0  0  0  0  0  0  0  0  0  0
  151.1882  140.4317  156.3803 C   0  0  0  0  0  0  0  0  0  0  0  0
  151.6058  140.2281  155.2397 O   0  0  0  0  0  0  0  0  0  0  0  0
  149.9474  140.8615  156.6758 N   0  0  0  0  0  0  0  0  0  0  0  0
  148.8798  141.1706  155.7883 C   0  0  0  0  0  0  0  0  0  0  0  0
  148.9502  140.9730  154.4477 N   0  0  0  0  0  0  0  0  0  0  0  0
  147.8918  141.2926  153.6744 C   0  0  0  0  0  0  0  0  0  0  0  0
  146.6981  141.8296  154.1882 C   0  0  0  0  0  0  0  0  0  0  0  0
  146.6101  142.0401  155.5752 C   0  0  0  0  0  0  0  0  0  0  0  0
  147.7122  141.7079  156.3884 C   0  0  0  0  0  0  0  0  0  0  0  0
  147.6328  141.9095  157.7388 O   0  0  0  0  0  0  0  0  0  0  0  0
  151.2993  138.1950  158.0385 H   0  0  0  0  0  0  0  0  0  0  0  0
  150.5569  139.4941  158.9732 H   0  0  0  0  0  0  0  0  0  0  0  0
  152.1758  138.9342  159.3728 H   0  0  0  0  0  0  0  0  0  0  0  0
  153.0705  139.7913  157.2435 H   0  0  0  0  0  0  0  0  0  0  0  0
  152.7228  140.6427  160.2143 H   0  0  0  0  0  0  0  0  0  0  0  0
  154.1331  140.8172  159.1700 H   0  0  0  0  0  0  0  0  0  0  0  0
  154.4556  142.9688  159.9658 H   0  0  0  0  0  0  0  0  0  0  0  0
  151.8476  142.4851  161.5968 H   0  0  0  0  0  0  0  0  0  0  0  0
  153.1370  143.7534  161.9310 H   0  0  0  0  0  0  0  0  0  0  0  0
  152.7460  144.7490  159.6555 H   0  0  0  0  0  0  0  0  0  0  0  0
  151.4556  143.4809  159.3246 H   0  0  0  0  0  0  0  0  0  0  0  0
  149.7364  140.9775  157.6564 H   0  0  0  0  0  0  0  0  0  0  0  0
  148.0006  141.1147  152.6147 H   0  0  0  0  0  0  0  0  0  0  0  0
  145.8729  142.0726  153.5354 H   0  0  0  0  0  0  0  0  0  0  0  0
  145.7094  142.4507  156.0077 H   0  0  0  0  0  0  0  0  0  0  0  0
  146.8306  142.3328  158.0037 H   0  0  0  0  0  0  0  0  0  0  0  0
  1  2  1  0  0  0  0
  1 18  1  0  0  0  0
  1 19  1  0  0  0  0
  1 20  1  0  0  0  0
  2  3  1  0  0  0  0
  2  8  1  0  0  0  0
  2 21  1  0  0  0  0
  3  4  1  0  0  0  0
  4  5  1  0  0  0  0
  4 22  1  0  0  0  0
  4 23  1  0  0  0  0
  5  7  1  0  0  0  0
  5  6  1  0  0  0  0
  5 24  1  0  0  0  0
  6  7  1  0  0  0  0
  6 25  1  0  0  0  0
  6 26  1  0  0  0  0
  7 27  1  0  0  0  0
  7 28  1  0  0  0  0
  8  9  2  0  0  0  0
  8 10  1  0  0  0  0
 10 11  1  0  0  0  0
 10 29  1  0  0  0  0
 11 16  1  0  0  0  0
 11 12  2  0  0  0  0
 12 13  1  0  0  0  0
 13 14  2  0  0  0  0
 13 30  1  0  0  0  0
 14 15  1  0  0  0  0
 14 31  1  0  0  0  0
 15 16  2  0  0  0  0
 15 32  1  0  0  0  0
 16 17  1  0  0  0  0
 17 33  1  0  0  0  0
M  END
> <s_m_source_file>
AV-unprocessed.smi

> <i_m_source_file_index>
3150

> <i_lp_mmshare_version>
43012

> <i_f3d_flags>
0

> <s_epik_input>
W0NIMl0xW0NIMl1bQ0hdMVtDSDJdT1tDQEBIXShbQ0gzXSlDKD1PKVtOSF1jMm5bY0hdW2NIXVtjSF1jMltPSF0=

> <s_epik_cmdline>
J2VwaWtfcHl0aG9uJywgJy1waCcsICc3LjAnLCAnLXRuJywgJzgnLCAnLW1hJywgJzIwMCcsICctbWV0YWxfYmluZGluZycsICctaW1hZScsICc8aW5maWxlLm1hZT4nLCAnLW9tYWUnLCAnPG91dGZpbGUubWFlPic=

> <r_lp_tautomer_probability>
0.43658

> <r_epik_Ionization_Penalty>
0.0204299

> <r_epik_Ionization_Penalty_Charging>
0

> <r_epik_Ionization_Penalty_Neutral>
0.0204299

> <r_epik_State_Penalty>
0.419322

> <r_epik_Charging_Adjusted_Penalty>
0.419322

> <i_epik_Tot_Q>
0

> <i_epik_Tot_abs_Q>
0

> <r_epik_Metal_State_Penalty>
0.377394

> <b_epik_Metal_Only>
0

> <s_lp_Force_Field>
OPLS_2005

> <r_lp_Energy>
16.2266

> <b_lp_Chiralities_Consistent>
1

> <s_lp_Variant>
AV-unprocessed.smi:3150-1

> <Gold.Version>
5.8.1

> <Gold.Id.Protein>
6NUR|6NUR_protein|mol2

> <Gold.PLP.Fitness>
37.9257

> <Gold.PLP.PLP>
-32.4905

> <Gold.PLP.part.hbond>
-1.0000

> <Gold.PLP.part.metal>
0.0000

> <Gold.PLP.part.buried>
-5.0186

> <Gold.PLP.part.nonpolar>
-26.6900

> <Gold.PLP.part.repulsive>
0.1904

> <Gold.PLP.ligand.clash>
0.0000

> <Gold.PLP.ligand.torsion>
0.5010

> <Gold.PLP.Chemscore.Hbond>
0.9600

> <Gold.PLP.Chemscore.CHOScore>
1.0000

> <Gold.PLP.Chemscore.Metal>
0.0000

> <Gold.Chemscore.Hbonds>
donor molecule, donor type, donor heavy atom, donor atom, acceptor molecule, acceptor atom, score
      P1  H  7989  7998       L1     9  0.93
      L1  C    13    30       P1  7957  1.00

> <Gold.PLP.Chemscore.Internal.Correction>
0.5573

> <Gold.Rescore>
     Score         DG    S(hbond)    S(metal)    S(lipo)     H(rot)  DE(clash)    DE(int)     intcor
     10.50     -12.31       0.97        0.00      79.31       2.22       0.00       1.81       ----

> <Gold.Chemscore.Fitness>
10.4961

> <Gold.Chemscore.DG>
-12.3143

> <Gold.Chemscore.ZeroCoef>
-5.4800

> <Gold.Chemscore.Hbond>
0.9690

> <Gold.Chemscore.Metal>
0.0000

> <Gold.Chemscore.Lipo>
79.3081

> <Gold.Chemscore.Internal_Hbond>
0.0000

> <Gold.Chemscore.DEClash>
0.0036

> <Gold.Chemscore.DEInternal>
1.8146

> <Gold.Chemscore.Rot>
2.2192

> <Gold.Chemscore.Internal.Correction>
   9.000000E+99

> <Gold.Chemscore.Hbonds>
donor molecule, donor type, donor heavy atom, donor atom, acceptor molecule, acceptor atom, score
      P1  H  7989  7998       L1     9  0.91

> <Gold.Chemscore.Hbond.Weighted>
-3.2364

> <Gold.Chemscore.Metal.Weighted>
-0.0000

> <Gold.Chemscore.Lipo.Weighted>
-9.2790

> <Gold.Chemscore.Internal_Hbond.Weighted>
0.0000

> <Gold.Chemscore.DEClash.Weighted>
0.0036

> <Gold.Chemscore.DEInternal.Weighted>
1.8146

> <Gold.Chemscore.Rot.Weighted>
5.6812

> <Gold.Chemscore.Internal.Correction.Weighted>
   9.000000E+99

> <Gold.Protein.RotatedTorsions>
[ 6907 6896 6895 6894 ] final -151.35 input  -60.11 | X-H torsion
[ 7974 7965 7964 7962 ] final   71.48 input  175.53 | X-H torsion
[ 8008 7997 7996 7995 ] final  -12.17 input   59.86 | X-H torsion
[ 10167 10162 10161 10158 ] final -146.86 input  -65.29 | X-H torsion
[ 10718 10713 10712 10709 ] final  105.57 input   66.30 | X-H torsion
[ 10763 10752 10751 10750 ] final   50.02 input  -60.55 | X-H torsion
[ 11005 11000 10999 10996 ] final  -93.74 input  -57.11 | X-H torsion

> <Gold.Protein.ActiveResidues>
 VAL166  LYS551  ARG553  GLY616  TRP617  ASP618  TYR619  PRO620  LYS621  CYS622 
 ASP623  PHE694  ASN695  SER759  ASP760  ASP761  ALA762  ILE779  LEU786  VAL792 
 PHE793  MET794  SER795  GLU796  ALA797  LYS798  CYS799  TRP800  GLU811  SER814 

> <Gold.Protein.RotatedAtoms>
  151.2119  133.4551  159.2598 H   0  0  0  0  0  0  0  0  0  0  0  0  # atno 6907 bound_to 6896
  151.0968  134.9949  159.8440 H   0  0  0  0  0  0  0  0  0  0  0  0  # atno 6908 bound_to 6896
  152.5440  134.2048  159.8779 H   0  0  0  0  0  0  0  0  0  0  0  0  # atno 6909 bound_to 6896
  145.7652  139.2818  143.1353 H   0  0  0  0  0  0  0  0  0  0  0  0  # atno 7974 bound_to 7965
  154.5401  140.2283  155.8656 H   0  0  0  0  0  0  0  0  0  0  0  0  # atno 8008 bound_to 7997
  156.1850  140.3091  155.9183 H   0  0  0  0  0  0  0  0  0  0  0  0  # atno 8009 bound_to 7997
  155.3275  140.0443  157.3032 H   0  0  0  0  0  0  0  0  0  0  0  0  # atno 8010 bound_to 7997
  139.7674  143.8287  152.2618 H   0  0  0  0  0  0  0  0  0  0  0  0  # atno 10167 bound_to 10162
  157.6700  131.0831  150.5877 H   0  0  0  0  0  0  0  0  0  0  0  0  # atno 10718 bound_to 10713
  152.9785  135.5892  154.4184 H   0  0  0  0  0  0  0  0  0  0  0  0  # atno 10763 bound_to 10752
  154.3811  135.2767  155.2212 H   0  0  0  0  0  0  0  0  0  0  0  0  # atno 10764 bound_to 10752
  154.4125  135.6078  153.6016 H   0  0  0  0  0  0  0  0  0  0  0  0  # atno 10765 bound_to 10752
  141.1489  133.7908  157.0201 H   0  0  0  0  0  0  0  0  0  0  0  0  # atno 11005 bound_to 11000
  146.0224  140.8335  142.9916 LP  0  0  0  0  0  0  0  0  0  0  0  0  # atno 17320 bound_to 7965
  144.6823  140.2648  143.7314 LP  0  0  0  0  0  0  0  0  0  0  0  0  # atno 17321 bound_to 7965
  139.8311  144.7253  150.9449 LP  0  0  0  0  0  0  0  0  0  0  0  0  # atno 17342 bound_to 10162
  140.7812  143.4069  151.1057 LP  0  0  0  0  0  0  0  0  0  0  0  0  # atno 17343 bound_to 10162
  156.6177  130.4397  149.5834 LP  0  0  0  0  0  0  0  0  0  0  0  0  # atno 17370 bound_to 10713
  156.2380  130.6834  151.1528 LP  0  0  0  0  0  0  0  0  0  0  0  0  # atno 17371 bound_to 10713
  140.0821  134.9642  157.1641 LP  0  0  0  0  0  0  0  0  0  0  0  0  # atno 17394 bound_to 11000
  140.3562  134.2544  155.7192 LP  0  0  0  0  0  0  0  0  0  0  0  0  # atno 17395 bound_to 11000

$$$$
