AV-unprocessed.smi:2300|AV-procd|sdf|9232|dock9
  -GOLD-   2272012453D 1   1.00000     0.00000
 Structure written by MMmdl.
 51 52  0  0  0  0  0  0  0  0  1 V2000
  156.6109  141.4799  166.0244 C   0  0  0  0  0  0  0  0  0  0  0  0
  156.2061  140.0387  165.7333 C   0  0  0  0  0  0  0  0  0  0  0  0
  156.1272  139.2221  166.6507 O   0  0  0  0  0  0  0  0  0  0  0  0
  155.9535  139.7394  164.4505 N   0  0  0  0  0  0  0  0  0  0  0  0
  155.5444  138.4273  163.9611 C   0  0  0  0  0  0  0  0  0  0  0  0
  155.4720  138.3887  162.4254 C   0  0  2  0  0  0  0  0  0  0  0  0
  154.3735  139.3225  161.8831 C   0  0  0  0  0  0  0  0  0  0  0  0
  154.2572  139.1907  160.4320 N   0  0  0  0  0  0  0  0  0  0  0  0
  153.4885  140.1536  159.7432 C   0  0  0  0  0  0  0  0  0  0  0  0
  152.7006  139.7917  158.6247 C   0  0  0  0  0  0  0  0  0  0  0  0
  151.9657  140.8206  157.9982 C   0  0  0  0  0  0  0  0  0  0  0  0
  151.0904  140.5405  156.7848 C   0  0  0  0  0  0  0  0  0  0  0  0
  151.8599  139.7876  155.6882 C   0  0  0  0  0  0  0  0  0  0  0  0
  150.4221  141.8195  156.2565 C   0  0  0  0  0  0  0  0  0  0  0  0
  152.0109  142.0950  158.4448 N   0  0  0  0  0  0  0  0  0  0  0  0
  152.7875  142.3391  159.5039 C   0  0  0  0  0  0  0  0  0  0  0  0
  152.8422  143.7760  160.0057 C   0  0  0  0  0  0  0  0  0  0  0  0
  152.3943  143.8910  161.4709 C   0  0  0  0  0  0  0  0  0  0  0  0
  152.0961  144.7403  159.0705 C   0  0  0  0  0  0  0  0  0  0  0  0
  153.5219  141.4412  160.1670 N   0  0  0  0  0  0  0  0  0  0  0  0
  154.0958  137.8095  159.9853 C   0  0  0  0  0  0  0  0  0  0  0  0
  155.1859  136.9158  160.6002 C   0  0  0  0  0  0  0  0  0  0  0  0
  155.1800  137.0543  162.0169 O   0  0  0  0  0  0  0  0  0  0  0  0
  155.9639  142.1781  165.4922 H   0  0  0  0  0  0  0  0  0  0  0  0
  157.6403  141.6539  165.7105 H   0  0  0  0  0  0  0  0  0  0  0  0
  156.5371  141.6944  167.0912 H   0  0  0  0  0  0  0  0  0  0  0  0
  156.0383  140.4754  163.7648 H   0  0  0  0  0  0  0  0  0  0  0  0
  156.2589  137.6865  164.3208 H   0  0  0  0  0  0  0  0  0  0  0  0
  154.5785  138.1594  164.3928 H   0  0  0  0  0  0  0  0  0  0  0  0
  156.4361  138.6921  162.0122 H   0  0  0  0  0  0  0  0  0  0  0  0
  153.4136  139.0845  162.3439 H   0  0  0  0  0  0  0  0  0  0  0  0
  154.6162  140.3526  162.1473 H   0  0  0  0  0  0  0  0  0  0  0  0
  152.6684  138.7809  158.2476 H   0  0  0  0  0  0  0  0  0  0  0  0
  150.2872  139.8800  157.1141 H   0  0  0  0  0  0  0  0  0  0  0  0
  152.2707  138.8524  156.0703 H   0  0  0  0  0  0  0  0  0  0  0  0
  152.6884  140.3820  155.3014 H   0  0  0  0  0  0  0  0  0  0  0  0
  151.2082  139.5431  154.8491 H   0  0  0  0  0  0  0  0  0  0  0  0
  149.8312  142.3020  157.0355 H   0  0  0  0  0  0  0  0  0  0  0  0
  149.7530  141.5973  155.4250 H   0  0  0  0  0  0  0  0  0  0  0  0
  151.1605  142.5402  155.9036 H   0  0  0  0  0  0  0  0  0  0  0  0
  153.8894  144.0838  159.9845 H   0  0  0  0  0  0  0  0  0  0  0  0
  152.9998  143.2534  162.1156 H   0  0  0  0  0  0  0  0  0  0  0  0
  151.3517  143.5961  161.5936 H   0  0  0  0  0  0  0  0  0  0  0  0
  152.4930  144.9151  161.8318 H   0  0  0  0  0  0  0  0  0  0  0  0
  152.4923  144.6859  158.0562 H   0  0  0  0  0  0  0  0  0  0  0  0
  152.1968  145.7716  159.4094 H   0  0  0  0  0  0  0  0  0  0  0  0
  151.0314  144.5088  159.0257 H   0  0  0  0  0  0  0  0  0  0  0  0
  153.1096  137.4555  160.2879 H   0  0  0  0  0  0  0  0  0  0  0  0
  154.1434  137.7263  158.9006 H   0  0  0  0  0  0  0  0  0  0  0  0
  155.0022  135.8721  160.3454 H   0  0  0  0  0  0  0  0  0  0  0  0
  156.1694  137.1715  160.2028 H   0  0  0  0  0  0  0  0  0  0  0  0
  1  2  1  0  0  0  0
  1 24  1  0  0  0  0
  1 25  1  0  0  0  0
  1 26  1  0  0  0  0
  2  3  2  0  0  0  0
  2  4  1  0  0  0  0
  4  5  1  0  0  0  0
  4 27  1  0  0  0  0
  5  6  1  0  0  0  0
  5 28  1  0  0  0  0
  5 29  1  0  0  0  0
  6 23  1  0  0  0  0
  6  7  1  0  0  0  0
  6 30  1  0  0  0  0
  7  8  1  0  0  0  0
  7 31  1  0  0  0  0
  7 32  1  0  0  0  0
  8  9  1  0  0  0  0
  8 21  1  0  0  0  0
  9 20  1  0  0  0  0
  9 10  2  0  0  0  0
 10 11  1  0  0  0  0
 10 33  1  0  0  0  0
 11 12  1  0  0  0  0
 11 15  2  0  0  0  0
 12 13  1  0  0  0  0
 12 14  1  0  0  0  0
 12 34  1  0  0  0  0
 13 35  1  0  0  0  0
 13 36  1  0  0  0  0
 13 37  1  0  0  0  0
 14 38  1  0  0  0  0
 14 39  1  0  0  0  0
 14 40  1  0  0  0  0
 15 16  1  0  0  0  0
 16 17  1  0  0  0  0
 16 20  2  0  0  0  0
 17 18  1  0  0  0  0
 17 19  1  0  0  0  0
 17 41  1  0  0  0  0
 18 42  1  0  0  0  0
 18 43  1  0  0  0  0
 18 44  1  0  0  0  0
 19 45  1  0  0  0  0
 19 46  1  0  0  0  0
 19 47  1  0  0  0  0
 21 22  1  0  0  0  0
 21 48  1  0  0  0  0
 21 49  1  0  0  0  0
 22 23  1  0  0  0  0
 22 50  1  0  0  0  0
 22 51  1  0  0  0  0
M  END
> <s_m_source_file>
AV-unprocessed.smi

> <i_m_source_file_index>
2300

> <i_lp_mmshare_version>
43012

> <i_f3d_flags>
0

> <s_epik_input>
W0NIM11DKD1PKVtOSF1bQ0gyXVtDQEBIXTFbQ0gyXU4oW0NIMl1bQ0gyXU8xKWMyW2NIXWMoW0NIXShbQ0gzXSlbQ0gzXSluYyhuMilbQ0hdKFtDSDNdKVtDSDNd

> <s_epik_cmdline>
J2VwaWtfcHl0aG9uJywgJy1waCcsICc3LjAnLCAnLXRuJywgJzgnLCAnLW1hJywgJzIwMCcsICctbWV0YWxfYmluZGluZycsICctaW1hZScsICc8aW5maWxlLm1hZT4nLCAnLW9tYWUnLCAnPG91dGZpbGUubWFlPic=

> <r_lp_tautomer_probability>
1

> <r_epik_Ionization_Penalty>
0.0035465

> <r_epik_Ionization_Penalty_Charging>
0

> <r_epik_Ionization_Penalty_Neutral>
0.0035465

> <r_epik_State_Penalty>
0.00247846

> <r_epik_Charging_Adjusted_Penalty>
0.00247846

> <i_epik_Tot_Q>
0

> <i_epik_Tot_abs_Q>
0

> <r_epik_Metal_State_Penalty>
-0

> <b_epik_Metal_Only>
0

> <s_lp_Force_Field>
OPLS_2005

> <r_lp_Energy>
0.953056

> <b_lp_Chiralities_Consistent>
1

> <s_lp_Variant>
AV-unprocessed.smi:2300-1

> <Gold.Version>
5.8.1

> <Gold.Id.Protein>
6NUR|6NUR_protein|mol2

> <Gold.PLP.Fitness>
41.5398

> <Gold.PLP.PLP>
-42.0841

> <Gold.PLP.part.hbond>
-1.0000

> <Gold.PLP.part.metal>
0.0000

> <Gold.PLP.part.buried>
-6.1112

> <Gold.PLP.part.nonpolar>
-34.6307

> <Gold.PLP.part.repulsive>
0.1402

> <Gold.PLP.ligand.clash>
0.0000

> <Gold.PLP.ligand.torsion>
0.5038

> <Gold.PLP.Chemscore.Hbond>
0.0000

> <Gold.PLP.Chemscore.CHOScore>
0.0000

> <Gold.PLP.Chemscore.Metal>
0.0000

> <Gold.PLP.Chemscore.Internal.Correction>
0.4633

> <Gold.Rescore>
     Score         DG    S(hbond)    S(metal)    S(lipo)     H(rot)  DE(clash)    DE(int)     intcor
     12.89     -13.43       0.00        0.00     107.71       1.82       0.11       0.43       ----

> <Gold.Chemscore.Fitness>
12.8899

> <Gold.Chemscore.DG>
-13.4338

> <Gold.Chemscore.ZeroCoef>
-5.4800

> <Gold.Chemscore.Hbond>
0.0000

> <Gold.Chemscore.Metal>
0.0000

> <Gold.Chemscore.Lipo>
107.7080

> <Gold.Chemscore.Internal_Hbond>
0.0000

> <Gold.Chemscore.DEClash>
0.1120

> <Gold.Chemscore.DEInternal>
0.4319

> <Gold.Chemscore.Rot>
1.8156

> <Gold.Chemscore.Internal.Correction>
   9.000000E+99

> <Gold.Chemscore.Hbond.Weighted>
-0.0000

> <Gold.Chemscore.Metal.Weighted>
-0.0000

> <Gold.Chemscore.Lipo.Weighted>
-12.6018

> <Gold.Chemscore.Internal_Hbond.Weighted>
0.0000

> <Gold.Chemscore.DEClash.Weighted>
0.1120

> <Gold.Chemscore.DEInternal.Weighted>
0.4319

> <Gold.Chemscore.Rot.Weighted>
4.6481

> <Gold.Chemscore.Internal.Correction.Weighted>
   9.000000E+99

> <Gold.Protein.RotatedTorsions>
[ 6907 6896 6895 6894 ] final  -56.27 input  -60.11 | X-H torsion
[ 7974 7965 7964 7962 ] final -118.66 input  175.53 | X-H torsion
[ 8008 7997 7996 7995 ] final    9.72 input   59.86 | X-H torsion
[ 10167 10162 10161 10158 ] final  145.23 input  -65.29 | X-H torsion
[ 10718 10713 10712 10709 ] final  -62.61 input   66.30 | X-H torsion
[ 10763 10752 10751 10750 ] final  113.28 input  -60.55 | X-H torsion
[ 11005 11000 10999 10996 ] final -114.24 input  -57.11 | X-H torsion

> <Gold.Protein.ActiveResidues>
 VAL166  LYS551  ARG553  GLY616  TRP617  ASP618  TYR619  PRO620  LYS621  CYS622 
 ASP623  PHE694  ASN695  SER759  ASP760  ASP761  ALA762  ILE779  LEU786  VAL792 
 PHE793  MET794  SER795  GLU796  ALA797  LYS798  CYS799  TRP800  GLU811  SER814 

> <Gold.Protein.RotatedAtoms>
  150.8182  134.7375  159.6748 H   0  0  0  0  0  0  0  0  0  0  0  0  # atno 6907 bound_to 6896
  152.4299  134.5794  159.9953 H   0  0  0  0  0  0  0  0  0  0  0  0  # atno 6908 bound_to 6896
  151.5985  133.3321  159.3078 H   0  0  0  0  0  0  0  0  0  0  0  0  # atno 6909 bound_to 6896
  145.0713  140.8361  143.4094 H   0  0  0  0  0  0  0  0  0  0  0  0  # atno 7974 bound_to 7965
  154.7838  140.2823  155.6043 H   0  0  0  0  0  0  0  0  0  0  0  0  # atno 8008 bound_to 7997
  156.2954  140.2618  156.2598 H   0  0  0  0  0  0  0  0  0  0  0  0  # atno 8009 bound_to 7997
  154.9752  140.0375  157.2242 H   0  0  0  0  0  0  0  0  0  0  0  0  # atno 8010 bound_to 7997
  139.4930  144.5916  151.6668 H   0  0  0  0  0  0  0  0  0  0  0  0  # atno 10167 bound_to 10162
  156.0844  130.4211  150.1160 H   0  0  0  0  0  0  0  0  0  0  0  0  # atno 10718 bound_to 10713
  153.4901  135.3660  155.2487 H   0  0  0  0  0  0  0  0  0  0  0  0  # atno 10763 bound_to 10752
  154.8752  135.3975  154.3599 H   0  0  0  0  0  0  0  0  0  0  0  0  # atno 10764 bound_to 10752
  153.4217  135.7080  153.6355 H   0  0  0  0  0  0  0  0  0  0  0  0  # atno 10765 bound_to 10752
  141.0564  133.9605  157.2745 H   0  0  0  0  0  0  0  0  0  0  0  0  # atno 11005 bound_to 11000
  145.1289  139.2645  143.5550 LP  0  0  0  0  0  0  0  0  0  0  0  0  # atno 17320 bound_to 7965
  146.3529  140.0934  142.8611 LP  0  0  0  0  0  0  0  0  0  0  0  0  # atno 17321 bound_to 7965
  140.5545  144.0371  150.6141 LP  0  0  0  0  0  0  0  0  0  0  0  0  # atno 17342 bound_to 10162
  140.3436  143.3004  152.0562 LP  0  0  0  0  0  0  0  0  0  0  0  0  # atno 17343 bound_to 10162
  156.9184  130.9675  151.3552 LP  0  0  0  0  0  0  0  0  0  0  0  0  # atno 17370 bound_to 10713
  157.5972  130.8486  149.8748 LP  0  0  0  0  0  0  0  0  0  0  0  0  # atno 17371 bound_to 10713
  139.9394  135.0193  156.8660 LP  0  0  0  0  0  0  0  0  0  0  0  0  # atno 17394 bound_to 11000
  140.5955  134.0221  155.7516 LP  0  0  0  0  0  0  0  0  0  0  0  0  # atno 17395 bound_to 11000

$$$$
