AV-unprocessed.smi:1990|AV-procd|sdf|8065|dock2
  -GOLD-   2272010273D 1   1.00000     0.00000
 Structure written by MMmdl.
 46 47  0  0  0  0  0  0  0  0  1 V2000
  153.1970  142.8427  161.9037 C   0  0  0  0  0  0  0  0  0  0  0  0
  152.9017  142.9036  160.4014 C   0  0  1  0  0  0  0  0  0  0  0  0
  152.3944  141.5538  159.8615 C   0  0  0  0  0  0  0  0  0  0  0  0
  151.9925  141.6833  158.4652 N   0  0  0  0  0  0  0  0  0  0  0  0
  151.8166  140.4695  157.7679 C   0  0  0  0  0  0  0  0  0  0  0  0
  151.8496  140.4532  156.3542 C   0  0  0  0  0  0  0  0  0  0  0  0
  151.6678  139.2339  155.6733 C   0  0  0  0  0  0  0  0  0  0  0  0
  151.4638  138.0528  156.4253 C   0  0  0  0  0  0  0  0  0  0  0  0
  151.2521  136.7593  155.8739 N   0  0  0  0  0  0  0  0  0  0  0  0
  151.0500  135.5828  156.4972 C   0  0  0  0  0  0  0  0  0  0  0  0
  150.9576  135.4424  157.7159 O   0  0  0  0  0  0  0  0  0  0  0  0
  150.9059  134.3635  155.5751 C   0  0  2  0  0  0  0  0  0  0  0  0
  149.6962  134.4916  154.6346 C   0  0  0  0  0  0  0  0  0  0  0  0
  150.7566  132.8164  156.5865 S   0  0  0  0  0  0  0  0  0  0  0  0
  150.8008  131.4788  155.3198 C   0  0  0  0  0  0  0  0  0  0  0  0
  151.9518  132.6810  157.4336 O   0  0  0  0  0  0  0  0  0  0  0  0
  149.4258  132.8106  157.2129 O   0  0  0  0  0  0  0  0  0  0  0  0
  151.4381  138.1726  157.8290 C   0  0  0  0  0  0  0  0  0  0  0  0
  151.6078  139.3389  158.4851 N   0  0  0  0  0  0  0  0  0  0  0  0
  151.0191  142.7496  158.2422 C   0  0  0  0  0  0  0  0  0  0  0  0
  151.5203  144.0852  158.8247 C   0  0  2  0  0  0  0  0  0  0  0  0
  152.6253  144.7462  157.9810 C   0  0  0  0  0  0  0  0  0  0  0  0
  151.9128  143.9105  160.1879 O   0  0  0  0  0  0  0  0  0  0  0  0
  153.9618  142.0976  162.1232 H   0  0  0  0  0  0  0  0  0  0  0  0
  152.3031  142.5829  162.4716 H   0  0  0  0  0  0  0  0  0  0  0  0
  153.5558  143.8051  162.2693 H   0  0  0  0  0  0  0  0  0  0  0  0
  153.8233  143.1796  159.8887 H   0  0  0  0  0  0  0  0  0  0  0  0
  153.1725  140.8016  159.9869 H   0  0  0  0  0  0  0  0  0  0  0  0
  151.5341  141.2170  160.4414 H   0  0  0  0  0  0  0  0  0  0  0  0
  151.9925  141.3614  155.7875 H   0  0  0  0  0  0  0  0  0  0  0  0
  151.6766  139.2421  154.5955 H   0  0  0  0  0  0  0  0  0  0  0  0
  151.2412  136.7255  154.8649 H   0  0  0  0  0  0  0  0  0  0  0  0
  151.8060  134.2636  154.9671 H   0  0  0  0  0  0  0  0  0  0  0  0
  149.7411  135.4123  154.0518 H   0  0  0  0  0  0  0  0  0  0  0  0
  148.7561  134.4896  155.1876 H   0  0  0  0  0  0  0  0  0  0  0  0
  149.6632  133.6599  153.9305 H   0  0  0  0  0  0  0  0  0  0  0  0
  150.6088  130.5210  155.8026 H   0  0  0  0  0  0  0  0  0  0  0  0
  151.7820  131.4458  154.8471 H   0  0  0  0  0  0  0  0  0  0  0  0
  150.0356  131.6615  154.5659 H   0  0  0  0  0  0  0  0  0  0  0  0
  151.2745  137.3038  158.4501 H   0  0  0  0  0  0  0  0  0  0  0  0
  150.8163  142.8669  157.1768 H   0  0  0  0  0  0  0  0  0  0  0  0
  150.0790  142.4710  158.7206 H   0  0  0  0  0  0  0  0  0  0  0  0
  150.6779  144.7774  158.8371 H   0  0  0  0  0  0  0  0  0  0  0  0
  152.2554  144.9900  156.9850 H   0  0  0  0  0  0  0  0  0  0  0  0
  153.4923  144.0988  157.8523 H   0  0  0  0  0  0  0  0  0  0  0  0
  152.9646  145.6737  158.4424 H   0  0  0  0  0  0  0  0  0  0  0  0
  1  2  1  0  0  0  0
  1 24  1  0  0  0  0
  1 25  1  0  0  0  0
  1 26  1  0  0  0  0
  2 23  1  0  0  0  0
  2  3  1  0  0  0  0
  2 27  1  0  0  0  0
  3  4  1  0  0  0  0
  3 28  1  0  0  0  0
  3 29  1  0  0  0  0
  4  5  1  0  0  0  0
  4 20  1  0  0  0  0
  5 19  1  0  0  0  0
  5  6  2  0  0  0  0
  6  7  1  0  0  0  0
  6 30  1  0  0  0  0
  7  8  2  0  0  0  0
  7 31  1  0  0  0  0
  8  9  1  0  0  0  0
  8 18  1  0  0  0  0
  9 10  1  0  0  0  0
  9 32  1  0  0  0  0
 10 11  2  0  0  0  0
 10 12  1  0  0  0  0
 12 13  1  0  0  0  0
 12 14  1  0  0  0  0
 12 33  1  0  0  0  0
 13 34  1  0  0  0  0
 13 35  1  0  0  0  0
 13 36  1  0  0  0  0
 14 15  1  0  0  0  0
 14 16  2  0  0  0  0
 14 17  2  0  0  0  0
 15 37  1  0  0  0  0
 15 38  1  0  0  0  0
 15 39  1  0  0  0  0
 18 19  2  0  0  0  0
 18 40  1  0  0  0  0
 20 21  1  0  0  0  0
 20 41  1  0  0  0  0
 20 42  1  0  0  0  0
 21 22  1  0  0  0  0
 21 23  1  0  0  0  0
 21 43  1  0  0  0  0
 22 44  1  0  0  0  0
 22 45  1  0  0  0  0
 22 46  1  0  0  0  0
M  END
> <s_m_source_file>
AV-unprocessed.smi

> <i_m_source_file_index>
1990

> <i_lp_mmshare_version>
43012

> <i_f3d_flags>
0

> <s_epik_input>
W0NIM11bQ0BASF0xW0NIMl1OKFtDSDJdW0NASF0oTzEpW0NIM10pYzJbY0hdW2NIXWMoW2NIXW4yKVtOSF1DKD1PKVtDQEhdKFtDSDNdKVMoPU8pKD1PKVtDSDNd

> <s_epik_cmdline>
J2VwaWtfcHl0aG9uJywgJy1waCcsICc3LjAnLCAnLXRuJywgJzgnLCAnLW1hJywgJzIwMCcsICctbWV0YWxfYmluZGluZycsICctaW1hZScsICc8aW5maWxlLm1hZT4nLCAnLW9tYWUnLCAnPG91dGZpbGUubWFlPic=

> <r_lp_tautomer_probability>
1

> <r_epik_Ionization_Penalty>
0.000334888

> <r_epik_Ionization_Penalty_Charging>
0

> <r_epik_Ionization_Penalty_Neutral>
0.000334888

> <r_epik_State_Penalty>
0.000200905

> <r_epik_Charging_Adjusted_Penalty>
0.000200905

> <i_epik_Tot_Q>
0

> <i_epik_Tot_abs_Q>
0

> <r_epik_Metal_State_Penalty>
-0

> <b_epik_Metal_Only>
0

> <s_lp_Force_Field>
OPLS_2005

> <r_lp_Energy>
21.5774

> <b_lp_Chiralities_Consistent>
1

> <s_lp_Variant>
AV-unprocessed.smi:1990-5

> <Gold.Version>
5.8.1

> <Gold.Id.Protein>
6NUR|6NUR_protein|mol2

> <Gold.PLP.Fitness>
46.0664

> <Gold.PLP.PLP>
-42.0419

> <Gold.PLP.part.hbond>
-2.0000

> <Gold.PLP.part.metal>
0.0000

> <Gold.PLP.part.buried>
-6.1657

> <Gold.PLP.part.nonpolar>
-33.1422

> <Gold.PLP.part.repulsive>
0.1427

> <Gold.PLP.ligand.clash>
0.0000

> <Gold.PLP.ligand.torsion>
0.4467

> <Gold.PLP.Chemscore.Hbond>
1.4800

> <Gold.PLP.Chemscore.CHOScore>
0.0000

> <Gold.PLP.Chemscore.Metal>
0.0000

> <Gold.Chemscore.Hbonds>
donor molecule, donor type, donor heavy atom, donor atom, acceptor molecule, acceptor atom, score
      P1  H  6896  6907       L1    11  0.32
      P1  H  6896  6909       L1    16  0.99

> <Gold.PLP.Chemscore.Internal.Correction>
0.4778

> <Gold.Rescore>
     Score         DG    S(hbond)    S(metal)    S(lipo)     H(rot)  DE(clash)    DE(int)     intcor
     16.09     -19.16       1.55        0.00     105.83       1.52       0.03       3.04       ----

> <Gold.Chemscore.Fitness>
16.0913

> <Gold.Chemscore.DG>
-19.1613

> <Gold.Chemscore.ZeroCoef>
-5.4800

> <Gold.Chemscore.Hbond>
1.5521

> <Gold.Chemscore.Metal>
0.0000

> <Gold.Chemscore.Lipo>
105.8343

> <Gold.Chemscore.Internal_Hbond>
0.0000

> <Gold.Chemscore.DEClash>
0.0266

> <Gold.Chemscore.DEInternal>
3.0434

> <Gold.Chemscore.Rot>
1.5177

> <Gold.Chemscore.Internal.Correction>
   9.000000E+99

> <Gold.Chemscore.Hbonds>
donor molecule, donor type, donor heavy atom, donor atom, acceptor molecule, acceptor atom, score
      P1  H  6896  6907       L1    11  0.30
      P1  H  6896  6909       L1    16  0.73

> <Gold.Chemscore.Hbond.Weighted>
-5.1840

> <Gold.Chemscore.Metal.Weighted>
-0.0000

> <Gold.Chemscore.Lipo.Weighted>
-12.3826

> <Gold.Chemscore.Internal_Hbond.Weighted>
0.0000

> <Gold.Chemscore.DEClash.Weighted>
0.0266

> <Gold.Chemscore.DEInternal.Weighted>
3.0434

> <Gold.Chemscore.Rot.Weighted>
3.8853

> <Gold.Chemscore.Internal.Correction.Weighted>
   9.000000E+99

> <Gold.Protein.RotatedTorsions>
[ 6907 6896 6895 6894 ] final  -56.61 input  -60.11 | X-H torsion
[ 7974 7965 7964 7962 ] final   62.41 input  175.53 | X-H torsion
[ 8008 7997 7996 7995 ] final  166.61 input   59.86 | X-H torsion
[ 10167 10162 10161 10158 ] final   71.09 input  -65.29 | X-H torsion
[ 10718 10713 10712 10709 ] final  -49.28 input   66.30 | X-H torsion
[ 10763 10752 10751 10750 ] final  104.51 input  -60.55 | X-H torsion
[ 11005 11000 10999 10996 ] final  158.88 input  -57.11 | X-H torsion

> <Gold.Protein.ActiveResidues>
 VAL166  LYS551  ARG553  GLY616  TRP617  ASP618  TYR619  PRO620  LYS621  CYS622 
 ASP623  PHE694  ASN695  SER759  ASP760  ASP761  ALA762  ILE779  LEU786  VAL792 
 PHE793  MET794  SER795  GLU796  ALA797  LYS798  CYS799  TRP800  GLU811  SER814 

> <Gold.Protein.RotatedAtoms>
  150.8153  134.7332  159.6724 H   0  0  0  0  0  0  0  0  0  0  0  0  # atno 6907 bound_to 6896
  152.4272  134.5842  159.9966 H   0  0  0  0  0  0  0  0  0  0  0  0  # atno 6908 bound_to 6896
  151.6041  133.3316  159.3089 H   0  0  0  0  0  0  0  0  0  0  0  0  # atno 6909 bound_to 6896
  145.8737  139.3395  143.0747 H   0  0  0  0  0  0  0  0  0  0  0  0  # atno 7974 bound_to 7965
  156.1704  140.1639  156.8457 H   0  0  0  0  0  0  0  0  0  0  0  0  # atno 8008 bound_to 7997
  154.5251  140.0769  156.8277 H   0  0  0  0  0  0  0  0  0  0  0  0  # atno 8009 bound_to 7997
  155.3524  140.3391  155.4242 H   0  0  0  0  0  0  0  0  0  0  0  0  # atno 8010 bound_to 7997
  140.0499  144.5320  150.7371 H   0  0  0  0  0  0  0  0  0  0  0  0  # atno 10167 bound_to 10162
  156.1908  130.4153  149.9374 H   0  0  0  0  0  0  0  0  0  0  0  0  # atno 10718 bound_to 10713
  153.3669  135.3941  155.1759 H   0  0  0  0  0  0  0  0  0  0  0  0  # atno 10763 bound_to 10752
  154.8688  135.3693  154.5028 H   0  0  0  0  0  0  0  0  0  0  0  0  # atno 10764 bound_to 10752
  153.5492  135.7083  153.5660 H   0  0  0  0  0  0  0  0  0  0  0  0  # atno 10765 bound_to 10752
  140.1907  134.8409  157.2909 H   0  0  0  0  0  0  0  0  0  0  0  0  # atno 11005 bound_to 11000
  145.9106  140.9182  143.0456 LP  0  0  0  0  0  0  0  0  0  0  0  0  # atno 17320 bound_to 7965
  144.6726  140.1156  143.7453 LP  0  0  0  0  0  0  0  0  0  0  0  0  # atno 17321 bound_to 7965
  140.7221  143.2599  151.4242 LP  0  0  0  0  0  0  0  0  0  0  0  0  # atno 17342 bound_to 10162
  139.5960  144.1397  152.2144 LP  0  0  0  0  0  0  0  0  0  0  0  0  # atno 17343 bound_to 10162
  156.7115  130.8972  151.3610 LP  0  0  0  0  0  0  0  0  0  0  0  0  # atno 17370 bound_to 10713
  157.6928  130.9250  150.0560 LP  0  0  0  0  0  0  0  0  0  0  0  0  # atno 17371 bound_to 10713
  140.2163  134.4078  155.7588 LP  0  0  0  0  0  0  0  0  0  0  0  0  # atno 17394 bound_to 11000
  141.2226  133.7143  156.8418 LP  0  0  0  0  0  0  0  0  0  0  0  0  # atno 17395 bound_to 11000

$$$$
