AV-unprocessed.smi:2532|AV-procd|sdf|9970|dock5
  -GOLD-   2272014 13D 1   1.00000     0.00000
 Structure written by MMmdl.
 37 39  0  0  0  0  0  0  0  0  2 V2000
  151.1550  137.3966  159.0432 O   0  0  0  0  0  0  0  0  0  0  0  0
  150.7737  138.7411  158.8296 C   0  0  2  0  0  0  0  0  0  0  0  0
  149.3642  138.7518  158.2182 C   0  0  0  0  0  0  0  0  0  0  0  0
  148.4668  138.1280  159.1212 O   0  0  0  0  0  0  0  0  0  0  0  0
  148.2192  136.7687  158.7989 C   0  0  0  0  0  0  0  0  0  0  0  0
  147.6198  136.1068  160.0001 C   0  0  0  0  0  0  0  0  0  0  0  0
  147.5324  136.6302  161.2653 C   0  0  0  0  0  0  0  0  0  0  0  0
  146.8914  135.7589  162.1944 C   0  0  0  0  0  0  0  0  0  0  0  0
  146.4900  134.5794  161.6265 C   0  0  0  0  0  0  0  0  0  0  0  0
  146.8911  134.5171  159.9324 S   0  0  0  0  0  0  0  0  0  0  0  0
  151.8042  139.4229  157.9076 C   0  0  0  0  0  0  0  0  0  0  0  0
  151.6280  140.8807  157.8309 N   0  0  0  0  0  0  0  0  0  0  0  0
  150.8384  141.6153  157.0011 C   0  0  0  0  0  0  0  0  0  0  0  0
  151.0222  142.9282  157.3124 N   0  3  0  0  0  0  0  0  0  0  0  0
  151.9414  143.0353  158.3581 C   0  0  0  0  0  0  0  0  0  0  0  0
  152.4452  144.1532  159.0160 C   0  0  0  0  0  0  0  0  0  0  0  0
  153.3741  143.9138  160.0500 C   0  0  0  0  0  0  0  0  0  0  0  0
  153.7672  142.6046  160.3954 C   0  0  0  0  0  0  0  0  0  0  0  0
  153.2508  141.4788  159.7207 C   0  0  0  0  0  0  0  0  0  0  0  0
  152.3344  141.7232  158.6981 C   0  0  0  0  0  0  0  0  0  0  0  0
  150.7859  137.1104  159.8653 H   0  0  0  0  0  0  0  0  0  0  0  0
  150.7598  139.2606  159.7887 H   0  0  0  0  0  0  0  0  0  0  0  0
  149.0364  139.7817  158.0679 H   0  0  0  0  0  0  0  0  0  0  0  0
  149.3528  138.2633  157.2422 H   0  0  0  0  0  0  0  0  0  0  0  0
  147.5366  136.6984  157.9509 H   0  0  0  0  0  0  0  0  0  0  0  0
  149.1483  136.2676  158.5240 H   0  0  0  0  0  0  0  0  0  0  0  0
  147.9046  137.6021  161.5540 H   0  0  0  0  0  0  0  0  0  0  0  0
  146.7478  136.0247  163.2314 H   0  0  0  0  0  0  0  0  0  0  0  0
  145.9837  133.7488  162.0959 H   0  0  0  0  0  0  0  0  0  0  0  0
  152.8250  139.1967  158.2164 H   0  0  0  0  0  0  0  0  0  0  0  0
  151.7021  139.0387  156.8920 H   0  0  0  0  0  0  0  0  0  0  0  0
  150.1848  141.2269  156.2334 H   0  0  0  0  0  0  0  0  0  0  0  0
  152.1440  145.1572  158.7551 H   0  0  0  0  0  0  0  0  0  0  0  0
  153.7921  144.7511  160.5899 H   0  0  0  0  0  0  0  0  0  0  0  0
  154.4784  142.4599  161.1958 H   0  0  0  0  0  0  0  0  0  0  0  0
  153.5543  140.4804  159.9985 H   0  0  0  0  0  0  0  0  0  0  0  0
  150.5526  143.6927  156.8444 H   0  0  0  0  0  0  0  0  0  0  0  0
  1  2  1  0  0  0  0
  1 21  1  0  0  0  0
  2  3  1  0  0  0  0
  2 11  1  0  0  0  0
  2 22  1  0  0  0  0
  3  4  1  0  0  0  0
  3 23  1  0  0  0  0
  3 24  1  0  0  0  0
  4  5  1  0  0  0  0
  5  6  1  0  0  0  0
  5 25  1  0  0  0  0
  5 26  1  0  0  0  0
  6 10  1  0  0  0  0
  6  7  2  0  0  0  0
  7  8  1  0  0  0  0
  7 27  1  0  0  0  0
  8  9  2  0  0  0  0
  8 28  1  0  0  0  0
  9 10  1  0  0  0  0
  9 29  1  0  0  0  0
 11 12  1  0  0  0  0
 11 30  1  0  0  0  0
 11 31  1  0  0  0  0
 12 20  1  0  0  0  0
 12 13  1  0  0  0  0
 13 14  2  0  0  0  0
 13 32  1  0  0  0  0
 14 15  1  0  0  0  0
 14 37  1  0  0  0  0
 15 20  2  0  0  0  0
 15 16  1  0  0  0  0
 16 17  2  0  0  0  0
 16 33  1  0  0  0  0
 17 18  1  0  0  0  0
 17 34  1  0  0  0  0
 18 19  2  0  0  0  0
 18 35  1  0  0  0  0
 19 20  1  0  0  0  0
 19 36  1  0  0  0  0
M  CHG  1  14   1
M  END
> <s_m_source_file>
AV-unprocessed.smi

> <i_m_source_file_index>
2532

> <i_lp_mmshare_version>
43012

> <i_f3d_flags>
0

> <s_epik_input>
W2NIXTFbY0hdW2NIXVtjSF1jKGMxMiluKFtjSF1uMilbQ0gyXVtDQEhdKFtPSF0pW0NIMl1PW0NIMl1jM1tjSF1bY0hdW2NIXXMz

> <s_epik_cmdline>
J2VwaWtfcHl0aG9uJywgJy1waCcsICc3LjAnLCAnLXRuJywgJzgnLCAnLW1hJywgJzIwMCcsICctbWV0YWxfYmluZGluZycsICctaW1hZScsICc8aW5maWxlLm1hZT4nLCAnLW9tYWUnLCAnPG91dGZpbGUubWFlPic=

> <r_epik_Ionization_Penalty>
1.31758

> <r_epik_Ionization_Penalty_Charging>
1.31758

> <r_epik_Ionization_Penalty_Neutral>
1.26231e-06

> <r_epik_State_Penalty>
1.39289

> <r_epik_Charging_Adjusted_Penalty>
2.71047

> <i_epik_Tot_Q>
1

> <i_epik_Tot_abs_Q>
1

> <r_epik_Metal_State_Penalty>
5.42637

> <b_epik_Metal_Only>
0

> <s_lp_Force_Field>
OPLS_2005

> <r_lp_Energy>
15.3098

> <b_lp_Chiralities_Consistent>
1

> <s_lp_Variant>
AV-unprocessed.smi:2532-3

> <Gold.Version>
5.8.1

> <Gold.Id.Protein>
6NUR|6NUR_protein|mol2

> <Gold.PLP.Fitness>
53.0501

> <Gold.PLP.PLP>
-48.7022

> <Gold.PLP.part.hbond>
-2.7810

> <Gold.PLP.part.metal>
0.0000

> <Gold.PLP.part.buried>
-4.4166

> <Gold.PLP.part.nonpolar>
-42.1189

> <Gold.PLP.part.repulsive>
0.0590

> <Gold.PLP.ligand.clash>
0.0000

> <Gold.PLP.ligand.torsion>
0.8717

> <Gold.PLP.Chemscore.Hbond>
2.0000

> <Gold.PLP.Chemscore.CHOScore>
0.0000

> <Gold.PLP.Chemscore.Metal>
0.0000

> <Gold.Chemscore.Hbonds>
donor molecule, donor type, donor heavy atom, donor atom, acceptor molecule, acceptor atom, score
      L1  H    14    37       P1  8028  0.78
      P1  H  6934  6947       L1     4  0.03

> <Gold.PLP.Chemscore.Internal.Correction>
0.0912

> <Gold.Rescore>
     Score         DG    S(hbond)    S(metal)    S(lipo)     H(rot)  DE(clash)    DE(int)     intcor
     14.85     -16.35       1.00        0.00     118.20       2.46       0.01       1.48       ----

> <Gold.Chemscore.Fitness>
14.8529

> <Gold.Chemscore.DG>
-16.3472

> <Gold.Chemscore.ZeroCoef>
-5.4800

> <Gold.Chemscore.Hbond>
0.9992

> <Gold.Chemscore.Metal>
0.0000

> <Gold.Chemscore.Lipo>
118.2013

> <Gold.Chemscore.Internal_Hbond>
0.0000

> <Gold.Chemscore.DEClash>
0.0141

> <Gold.Chemscore.DEInternal>
1.4802

> <Gold.Chemscore.Rot>
2.4608

> <Gold.Chemscore.Internal.Correction>
   9.000000E+99

> <Gold.Chemscore.Hbonds>
donor molecule, donor type, donor heavy atom, donor atom, acceptor molecule, acceptor atom, score
      L1  H    14    37       P1  8028  0.39
      P1  H  6934  6947       L1     4  0.03

> <Gold.Chemscore.Hbond.Weighted>
-3.3373

> <Gold.Chemscore.Metal.Weighted>
-0.0000

> <Gold.Chemscore.Lipo.Weighted>
-13.8296

> <Gold.Chemscore.Internal_Hbond.Weighted>
0.0000

> <Gold.Chemscore.DEClash.Weighted>
0.0141

> <Gold.Chemscore.DEInternal.Weighted>
1.4802

> <Gold.Chemscore.Rot.Weighted>
6.2996

> <Gold.Chemscore.Internal.Correction.Weighted>
   9.000000E+99

> <Gold.Protein.RotatedTorsions>
[ 6907 6896 6895 6894 ] final    3.59 input  -60.11 | X-H torsion
[ 7974 7965 7964 7962 ] final -156.79 input  175.53 | X-H torsion
[ 8008 7997 7996 7995 ] final -167.21 input   59.86 | X-H torsion
[ 10167 10162 10161 10158 ] final -145.70 input  -65.29 | X-H torsion
[ 10718 10713 10712 10709 ] final -112.58 input   66.30 | X-H torsion
[ 10763 10752 10751 10750 ] final  -41.72 input  -60.55 | X-H torsion
[ 11005 11000 10999 10996 ] final   77.38 input  -57.11 | X-H torsion

> <Gold.Protein.ActiveResidues>
 VAL166  LYS551  ARG553  GLY616  TRP617  ASP618  TYR619  PRO620  LYS621  CYS622 
 ASP623  PHE694  ASN695  SER759  ASP760  ASP761  ALA762  ILE779  LEU786  VAL792 
 PHE793  MET794  SER795  GLU796  ALA797  LYS798  CYS799  TRP800  GLU811  SER814 

> <Gold.Protein.RotatedAtoms>
  151.6275  135.1026  160.0114 H   0  0  0  0  0  0  0  0  0  0  0  0  # atno 6907 bound_to 6896
  152.4124  133.6980  159.6418 H   0  0  0  0  0  0  0  0  0  0  0  0  # atno 6908 bound_to 6896
  150.8014  133.8517  159.3248 H   0  0  0  0  0  0  0  0  0  0  0  0  # atno 6909 bound_to 6896
  144.7577  140.4060  143.6000 H   0  0  0  0  0  0  0  0  0  0  0  0  # atno 7974 bound_to 7965
  155.8746  140.0999  157.1527 H   0  0  0  0  0  0  0  0  0  0  0  0  # atno 8008 bound_to 7997
  154.4000  140.1340  156.4183 H   0  0  0  0  0  0  0  0  0  0  0  0  # atno 8009 bound_to 7997
  155.7712  140.3461  155.5250 H   0  0  0  0  0  0  0  0  0  0  0  0  # atno 8010 bound_to 7997
  139.7781  143.8141  152.2635 H   0  0  0  0  0  0  0  0  0  0  0  0  # atno 10167 bound_to 10162
  156.0714  130.5927  150.8528 H   0  0  0  0  0  0  0  0  0  0  0  0  # atno 10718 bound_to 10713
  153.9672  135.6732  153.4746 H   0  0  0  0  0  0  0  0  0  0  0  0  # atno 10763 bound_to 10752
  153.0810  135.4923  154.8499 H   0  0  0  0  0  0  0  0  0  0  0  0  # atno 10764 bound_to 10752
  154.7240  135.3123  154.8962 H   0  0  0  0  0  0  0  0  0  0  0  0  # atno 10765 bound_to 10752
  139.9257  134.7678  156.1515 H   0  0  0  0  0  0  0  0  0  0  0  0  # atno 11005 bound_to 11000
  145.6724  139.1602  143.2747 LP  0  0  0  0  0  0  0  0  0  0  0  0  # atno 17320 bound_to 7965
  146.1606  140.6794  142.9279 LP  0  0  0  0  0  0  0  0  0  0  0  0  # atno 17321 bound_to 7965
  139.8195  144.7302  150.9591 LP  0  0  0  0  0  0  0  0  0  0  0  0  # atno 17342 bound_to 10162
  140.7817  143.4173  151.0897 LP  0  0  0  0  0  0  0  0  0  0  0  0  # atno 17343 bound_to 10162
  157.5787  131.0946  150.9305 LP  0  0  0  0  0  0  0  0  0  0  0  0  # atno 17370 bound_to 10713
  156.9505  130.5418  149.5282 LP  0  0  0  0  0  0  0  0  0  0  0  0  # atno 17371 bound_to 10713
  141.0812  133.6753  156.2341 LP  0  0  0  0  0  0  0  0  0  0  0  0  # atno 17394 bound_to 11000
  140.6344  134.5231  157.5563 LP  0  0  0  0  0  0  0  0  0  0  0  0  # atno 17395 bound_to 11000

$$$$
