AV-unprocessed.smi:37|AV-procd|sdf|325|dock9
  -GOLD-   2262016153D 1   1.00000     0.00000
 Structure written by MMmdl.
 43 44  0  0  0  0  0  0  0  0  2 V2000
  148.1504  127.5113  150.6102 C   0  0  0  0  0  0  0  0  0  0  0  0
  148.1280  127.5070  152.1449 C   0  0  0  0  0  0  0  0  0  0  0  0
  147.0492  128.4367  152.6914 C   0  0  0  0  0  0  0  0  0  0  0  0
  146.0155  127.9928  153.1915 O   0  0  0  0  0  0  0  0  0  0  0  0
  147.3606  129.7367  152.5296 O   0  0  0  0  0  0  0  0  0  0  0  0
  146.4910  130.7573  153.0023 C   0  0  0  0  0  0  0  0  0  0  0  0
  147.0880  132.1378  152.6850 C   0  0  2  0  0  0  0  0  0  0  0  0
  148.4257  132.1677  153.1771 O   0  0  0  0  0  0  0  0  0  0  0  0
  148.5944  133.2639  154.0184 C   0  0  2  0  0  0  0  0  0  0  0  0
  149.6291  132.9714  155.0865 N   0  0  0  0  0  0  0  0  0  0  0  0
  150.3249  131.7785  155.0083 C   0  0  0  0  0  0  0  0  0  0  0  0
  151.2509  131.4411  155.9285 C   0  0  0  0  0  0  0  0  0  0  0  0
  151.9128  130.2766  155.8163 F   0  0  0  0  0  0  0  0  0  0  0  0
  151.5268  132.3470  157.0409 C   0  0  0  0  0  0  0  0  0  0  0  0
  152.3828  132.0418  157.8699 O   0  0  0  0  0  0  0  0  0  0  0  0
  150.8106  133.5056  157.1106 N   0  5  0  0  0  0  0  0  0  0  0  0
  149.8655  133.8483  156.1866 C   0  0  0  0  0  0  0  0  0  0  0  0
  149.2051  134.8832  156.2686 O   0  0  0  0  0  0  0  0  0  0  0  0
  147.2116  133.7024  154.5254 C   0  0  2  0  0  0  0  0  0  0  0  0
  146.5438  132.7606  156.1539 Br  0  0  0  0  0  0  0  0  0  0  0  0
  146.3374  133.3069  153.3491 C   0  0  1  0  0  0  0  0  0  0  0  0
  146.2415  134.3757  152.4141 O   0  0  0  0  0  0  0  0  0  0  0  0
  145.6327  134.1935  151.2271 C   0  0  0  0  0  0  0  0  0  0  0  0
  145.5760  133.1387  150.5953 O   0  0  0  0  0  0  0  0  0  0  0  0
  144.9908  135.4721  150.6945 C   0  0  0  0  0  0  0  0  0  0  0  0
  143.9681  136.0594  151.6762 C   0  0  0  0  0  0  0  0  0  0  0  0
  148.9196  126.8368  150.2348 H   0  0  0  0  0  0  0  0  0  0  0  0
  148.3611  128.5059  150.2150 H   0  0  0  0  0  0  0  0  0  0  0  0
  147.1944  127.1841  150.2000 H   0  0  0  0  0  0  0  0  0  0  0  0
  147.9473  126.4967  152.5131 H   0  0  0  0  0  0  0  0  0  0  0  0
  149.0971  127.8195  152.5350 H   0  0  0  0  0  0  0  0  0  0  0  0
  145.4793  130.6661  152.6052 H   0  0  0  0  0  0  0  0  0  0  0  0
  146.4079  130.6421  154.0831 H   0  0  0  0  0  0  0  0  0  0  0  0
  147.1214  132.2654  151.6017 H   0  0  0  0  0  0  0  0  0  0  0  0
  149.0404  134.0444  153.3999 H   0  0  0  0  0  0  0  0  0  0  0  0
  150.1311  131.1012  154.1895 H   0  0  0  0  0  0  0  0  0  0  0  0
  147.2015  134.7716  154.7384 H   0  0  0  0  0  0  0  0  0  0  0  0
  145.3441  133.0084  153.6820 H   0  0  0  0  0  0  0  0  0  0  0  0
  145.7748  136.2011  150.4890 H   0  0  0  0  0  0  0  0  0  0  0  0
  144.5062  135.2527  149.7426 H   0  0  0  0  0  0  0  0  0  0  0  0
  143.4982  136.9479  151.2543 H   0  0  0  0  0  0  0  0  0  0  0  0
  144.4370  136.3502  152.6169 H   0  0  0  0  0  0  0  0  0  0  0  0
  143.1774  135.3429  151.9008 H   0  0  0  0  0  0  0  0  0  0  0  0
  1  2  1  0  0  0  0
  1 27  1  0  0  0  0
  1 28  1  0  0  0  0
  1 29  1  0  0  0  0
  2  3  1  0  0  0  0
  2 30  1  0  0  0  0
  2 31  1  0  0  0  0
  3  4  2  0  0  0  0
  3  5  1  0  0  0  0
  5  6  1  0  0  0  0
  6  7  1  0  0  0  0
  6 32  1  0  0  0  0
  6 33  1  0  0  0  0
  7 21  1  0  0  0  0
  7  8  1  0  0  0  0
  7 34  1  0  0  0  0
  8  9  1  0  0  0  0
  9 10  1  0  0  0  0
  9 19  1  0  0  0  0
  9 35  1  0  0  0  0
 10 17  1  0  0  0  0
 10 11  1  0  0  0  0
 11 12  2  0  0  0  0
 11 36  1  0  0  0  0
 12 13  1  0  0  0  0
 12 14  1  0  0  0  0
 14 15  2  0  0  0  0
 14 16  1  0  0  0  0
 16 17  1  0  0  0  0
 17 18  2  0  0  0  0
 19 20  1  0  0  0  0
 19 21  1  0  0  0  0
 19 37  1  0  0  0  0
 21 22  1  0  0  0  0
 21 38  1  0  0  0  0
 22 23  1  0  0  0  0
 23 24  2  0  0  0  0
 23 25  1  0  0  0  0
 25 26  1  0  0  0  0
 25 39  1  0  0  0  0
 25 40  1  0  0  0  0
 26 41  1  0  0  0  0
 26 42  1  0  0  0  0
 26 43  1  0  0  0  0
M  CHG  1  16  -1
M  END
> <s_m_source_file>
AV-unprocessed.smi

> <i_m_source_file_index>
37

> <i_lp_mmshare_version>
43012

> <i_f3d_flags>
0

> <s_epik_input>
W0NIM11bQ0gyXUMoPU8pT1tDSDJdW0NAQEhdMU9bQ0BASF0objJbY0hdYyhGKWMoPU8pW25IXWMyPU8pW0NAQEhdKEJyKVtDQEhdMU9DKD1PKVtDSDJdW0NIM10=

> <s_epik_cmdline>
J2VwaWtfcHl0aG9uJywgJy1waCcsICc3LjAnLCAnLXRuJywgJzgnLCAnLW1hJywgJzIwMCcsICctbWV0YWxfYmluZGluZycsICctaW1hZScsICc8aW5maWxlLm1hZT4nLCAnLW9tYWUnLCAnPG91dGZpbGUubWFlPic=

> <r_epik_Ionization_Penalty>
1.08158

> <r_epik_Ionization_Penalty_Charging>
9.05154e-09

> <r_epik_Ionization_Penalty_Neutral>
1.08158

> <r_epik_State_Penalty>
1.13706

> <r_epik_Charging_Adjusted_Penalty>
1.13706

> <i_epik_Tot_Q>
-1

> <i_epik_Tot_abs_Q>
1

> <r_epik_Metal_State_Penalty>
0.00343535

> <b_epik_Metal_Only>
0

> <s_epik_Chemistry_Notes>
This compound has an ester and may undergo hydrolysis at high or low pH. This compound contains an acetal/aminal-like group ( X-CH(R)-Y where X, Y are N, S, or O) that may be acid/base labile, releasing an aldehyde.

> <s_lp_Force_Field>
OPLS_2005

> <r_lp_Energy>
32.7064

> <b_lp_Chiralities_Consistent>
1

> <s_lp_Variant>
AV-unprocessed.smi:37-23

> <Gold.Version>
5.8.1

> <Gold.Id.Protein>
6NUR|6NUR_protein|mol2

> <Gold.PLP.Fitness>
39.4932

> <Gold.PLP.PLP>
-37.0553

> <Gold.PLP.part.hbond>
-2.0000

> <Gold.PLP.part.metal>
0.0000

> <Gold.PLP.part.buried>
-6.7600

> <Gold.PLP.part.nonpolar>
-30.3363

> <Gold.PLP.part.repulsive>
1.6698

> <Gold.PLP.ligand.clash>
0.0000

> <Gold.PLP.ligand.torsion>
0.7537

> <Gold.PLP.Chemscore.Hbond>
1.2828

> <Gold.PLP.Chemscore.CHOScore>
0.0000

> <Gold.PLP.Chemscore.Metal>
0.0000

> <Gold.Chemscore.Hbonds>
donor molecule, donor type, donor heavy atom, donor atom, acceptor molecule, acceptor atom, score
      P1  H  6896  6908       L1    15  0.46
      P1  H  6896  6909       L1    16  0.32

> <Gold.PLP.Chemscore.Internal.Correction>
0.0968

> <Gold.Rescore>
     Score         DG    S(hbond)    S(metal)    S(lipo)     H(rot)  DE(clash)    DE(int)     intcor
      4.53      -6.46       0.82        0.00      56.37       3.27       0.08       1.85       ----

> <Gold.Chemscore.Fitness>
4.5321

> <Gold.Chemscore.DG>
-6.4640

> <Gold.Chemscore.ZeroCoef>
-5.4800

> <Gold.Chemscore.Hbond>
0.8240

> <Gold.Chemscore.Metal>
0.0000

> <Gold.Chemscore.Lipo>
56.3699

> <Gold.Chemscore.Internal_Hbond>
0.0000

> <Gold.Chemscore.DEClash>
0.0814

> <Gold.Chemscore.DEInternal>
1.8505

> <Gold.Chemscore.Rot>
3.2669

> <Gold.Chemscore.Internal.Correction>
   9.000000E+99

> <Gold.Chemscore.Hbonds>
donor molecule, donor type, donor heavy atom, donor atom, acceptor molecule, acceptor atom, score
      P1  H  6896  6908       L1    15  0.29
      P1  H  6896  6909       L1    16  0.09

> <Gold.Chemscore.Hbond.Weighted>
-2.7521

> <Gold.Chemscore.Metal.Weighted>
-0.0000

> <Gold.Chemscore.Lipo.Weighted>
-6.5953

> <Gold.Chemscore.Internal_Hbond.Weighted>
0.0000

> <Gold.Chemscore.DEClash.Weighted>
0.0814

> <Gold.Chemscore.DEInternal.Weighted>
1.8505

> <Gold.Chemscore.Rot.Weighted>
8.3634

> <Gold.Chemscore.Internal.Correction.Weighted>
   9.000000E+99

> <Gold.Protein.RotatedTorsions>
[ 6907 6896 6895 6894 ] final   18.01 input  -60.11 | X-H torsion
[ 7974 7965 7964 7962 ] final -125.87 input  175.53 | X-H torsion
[ 8008 7997 7996 7995 ] final -149.34 input   59.86 | X-H torsion
[ 10167 10162 10161 10158 ] final -142.22 input  -65.29 | X-H torsion
[ 10718 10713 10712 10709 ] final   54.58 input   66.30 | X-H torsion
[ 10763 10752 10751 10750 ] final   21.97 input  -60.55 | X-H torsion
[ 11005 11000 10999 10996 ] final -148.71 input  -57.11 | X-H torsion

> <Gold.Protein.ActiveResidues>
 VAL166  LYS551  ARG553  GLY616  TRP617  ASP618  TYR619  PRO620  LYS621  CYS622 
 ASP623  PHE694  ASN695  SER759  ASP760  ASP761  ALA762  ILE779  LEU786  VAL792 
 PHE793  MET794  SER795  GLU796  ALA797  LYS798  CYS799  TRP800  GLU811  SER814 

> <Gold.Protein.RotatedAtoms>
  151.8586  135.0532  160.0466 H   0  0  0  0  0  0  0  0  0  0  0  0  # atno 6907 bound_to 6896
  152.2681  133.5353  159.5430 H   0  0  0  0  0  0  0  0  0  0  0  0  # atno 6908 bound_to 6896
  150.7141  134.0653  159.3888 H   0  0  0  0  0  0  0  0  0  0  0  0  # atno 6909 bound_to 6896
  144.9931  140.7751  143.4542 H   0  0  0  0  0  0  0  0  0  0  0  0  # atno 7974 bound_to 7965
  155.6061  140.0667  157.2719 H   0  0  0  0  0  0  0  0  0  0  0  0  # atno 8008 bound_to 7997
  154.4266  140.1810  156.1271 H   0  0  0  0  0  0  0  0  0  0  0  0  # atno 8009 bound_to 7997
  156.0121  140.3325  155.6955 H   0  0  0  0  0  0  0  0  0  0  0  0  # atno 8010 bound_to 7997
  139.8109  143.7704  152.2663 H   0  0  0  0  0  0  0  0  0  0  0  0  # atno 10167 bound_to 10162
  157.5270  130.8604  149.8635 H   0  0  0  0  0  0  0  0  0  0  0  0  # atno 10718 bound_to 10713
  153.0952  135.6658  153.9776 H   0  0  0  0  0  0  0  0  0  0  0  0  # atno 10763 bound_to 10752
  153.9362  135.2999  155.3445 H   0  0  0  0  0  0  0  0  0  0  0  0  # atno 10764 bound_to 10752
  154.7370  135.5097  153.9133 H   0  0  0  0  0  0  0  0  0  0  0  0  # atno 10765 bound_to 10752
  140.7584  134.3326  157.5108 H   0  0  0  0  0  0  0  0  0  0  0  0  # atno 11005 bound_to 11000
  145.2257  139.2138  143.5069 LP  0  0  0  0  0  0  0  0  0  0  0  0  # atno 17320 bound_to 7965
  146.3436  140.2124  142.8590 LP  0  0  0  0  0  0  0  0  0  0  0  0  # atno 17321 bound_to 7965
  139.7852  144.7430  151.0031 LP  0  0  0  0  0  0  0  0  0  0  0  0  # atno 17342 bound_to 10162
  140.7818  143.4499  151.0427 LP  0  0  0  0  0  0  0  0  0  0  0  0  # atno 17343 bound_to 10162
  156.0394  130.3743  150.1475 LP  0  0  0  0  0  0  0  0  0  0  0  0  # atno 17370 bound_to 10713
  156.9661  130.9820  151.3469 LP  0  0  0  0  0  0  0  0  0  0  0  0  # atno 17371 bound_to 10713
  139.8775  134.9186  156.3207 LP  0  0  0  0  0  0  0  0  0  0  0  0  # atno 17394 bound_to 11000
  140.9686  133.7342  156.0502 LP  0  0  0  0  0  0  0  0  0  0  0  0  # atno 17395 bound_to 11000

$$$$
