AV-unprocessed.smi:2037|AV-procd|sdf|8279|dock4
  -GOLD-   2272010543D 1   1.00000     0.00000
 Structure written by MMmdl.
 38 39  0  0  0  0  0  0  0  0  3 V2000
  151.0231  144.5753  159.7832 C   0  0  0  0  0  0  0  0  0  0  0  0
  151.9663  144.1029  158.6631 C   0  0  2  0  0  0  0  0  0  0  0  0
  151.2765  143.1603  157.6607 C   0  0  0  0  0  0  0  0  0  0  0  0
  151.0459  141.7552  158.2452 C   0  0  0  0  0  0  0  0  0  0  0  0
  152.3154  141.1570  158.7332 N   0  3  2  0  0  0  0  0  0  0  0  0
  152.1348  139.7521  159.1774 C   0  0  0  0  0  0  0  0  0  0  0  0
  151.4505  138.8803  158.1080 C   0  0  0  0  0  0  0  0  0  0  0  0
  150.8743  137.6765  158.6947 N   0  0  0  0  0  0  0  0  0  0  0  0
  149.6011  137.5308  159.0882 C   0  0  0  0  0  0  0  0  0  0  0  0
  148.8103  138.4699  158.9694 O   0  0  0  0  0  0  0  0  0  0  0  0
  149.3262  136.3086  159.5958 N   0  5  0  0  0  0  0  0  0  0  0  0
  148.4149  136.1763  160.5734 C   0  0  0  0  0  0  0  0  0  0  0  0
  147.8834  137.2203  161.2198 N   0  0  0  0  0  0  0  0  0  0  0  0
  146.9523  136.8552  162.1936 C   0  0  0  0  0  0  0  0  0  0  0  0
  146.7637  135.5016  162.2846 C   0  0  0  0  0  0  0  0  0  0  0  0
  147.7558  134.6402  161.1430 S   0  0  0  0  0  0  0  0  0  0  0  0
  152.9688  142.0186  159.7545 C   0  0  0  0  0  0  0  0  0  0  0  0
  153.2412  143.4299  159.2027 C   0  0  0  0  0  0  0  0  0  0  0  0
  150.6647  143.7491  160.3968 H   0  0  0  0  0  0  0  0  0  0  0  0
  150.1499  145.0814  159.3706 H   0  0  0  0  0  0  0  0  0  0  0  0
  151.5262  145.2818  160.4436 H   0  0  0  0  0  0  0  0  0  0  0  0
  152.2703  144.9980  158.1187 H   0  0  0  0  0  0  0  0  0  0  0  0
  150.3298  143.5880  157.3288 H   0  0  0  0  0  0  0  0  0  0  0  0
  151.8969  143.0733  156.7676 H   0  0  0  0  0  0  0  0  0  0  0  0
  150.3208  141.7918  159.0593 H   0  0  0  0  0  0  0  0  0  0  0  0
  150.6148  141.1190  157.4711 H   0  0  0  0  0  0  0  0  0  0  0  0
  153.0971  139.3274  159.4672 H   0  0  0  0  0  0  0  0  0  0  0  0
  151.5136  139.7441  160.0743 H   0  0  0  0  0  0  0  0  0  0  0  0
  150.6793  139.4479  157.5845 H   0  0  0  0  0  0  0  0  0  0  0  0
  152.1646  138.5562  157.3524 H   0  0  0  0  0  0  0  0  0  0  0  0
  151.4864  136.8812  158.8063 H   0  0  0  0  0  0  0  0  0  0  0  0
  146.4700  137.6264  162.7756 H   0  0  0  0  0  0  0  0  0  0  0  0
  146.1052  134.9615  162.9480 H   0  0  0  0  0  0  0  0  0  0  0  0
  152.3421  142.0712  160.6457 H   0  0  0  0  0  0  0  0  0  0  0  0
  153.9164  141.5829  160.0675 H   0  0  0  0  0  0  0  0  0  0  0  0
  153.9747  143.3575  158.3984 H   0  0  0  0  0  0  0  0  0  0  0  0
  153.6994  144.0513  159.9730 H   0  0  0  0  0  0  0  0  0  0  0  0
  152.9340  141.1231  157.9355 H   0  0  0  0  0  0  0  0  0  0  0  0
  1  2  1  0  0  0  0
  1 19  1  0  0  0  0
  1 20  1  0  0  0  0
  1 21  1  0  0  0  0
  2 18  1  0  0  0  0
  2  3  1  0  0  0  0
  2 22  1  0  0  0  0
  3  4  1  0  0  0  0
  3 23  1  0  0  0  0
  3 24  1  0  0  0  0
  4  5  1  0  0  0  0
  4 25  1  0  0  0  0
  4 26  1  0  0  0  0
  5  6  1  0  0  0  0
  5 17  1  0  0  0  0
  5 38  1  0  0  0  0
  6  7  1  0  0  0  0
  6 27  1  0  0  0  0
  6 28  1  0  0  0  0
  7  8  1  0  0  0  0
  7 29  1  0  0  0  0
  7 30  1  0  0  0  0
  8  9  1  0  0  0  0
  8 31  1  0  0  0  0
  9 10  2  0  0  0  0
  9 11  1  0  0  0  0
 11 12  1  0  0  0  0
 12 16  1  0  0  0  0
 12 13  2  0  0  0  0
 13 14  1  0  0  0  0
 14 15  2  0  0  0  0
 14 32  1  0  0  0  0
 15 16  1  0  0  0  0
 15 33  1  0  0  0  0
 17 18  1  0  0  0  0
 17 34  1  0  0  0  0
 17 35  1  0  0  0  0
 18 36  1  0  0  0  0
 18 37  1  0  0  0  0
M  CHG  1   5   1
M  CHG  1  11  -1
M  END
> <s_m_source_file>
AV-unprocessed.smi

> <i_m_source_file_index>
2037

> <i_lp_mmshare_version>
43012

> <i_f3d_flags>
0

> <s_epik_input>
W0NIM11bQ0hdMVtDSDJdW0NIMl1OKFtDSDJdW0NIMl0xKVtDSDJdW0NIMl1bTkhdQyg9TylbTkhdYzJuW2NIXVtjSF1zMg==

> <s_epik_cmdline>
J2VwaWtfcHl0aG9uJywgJy1waCcsICc3LjAnLCAnLXRuJywgJzgnLCAnLW1hJywgJzIwMCcsICctbWV0YWxfYmluZGluZycsICctaW1hZScsICc8aW5maWxlLm1hZT4nLCAnLW9tYWUnLCAnPG91dGZpbGUubWFlPic=

> <r_lp_tautomer_probability>
0.999

> <r_epik_Ionization_Penalty>
6.22113

> <r_epik_Ionization_Penalty_Charging>
5.39005

> <r_epik_Ionization_Penalty_Neutral>
0.831074

> <r_epik_State_Penalty>
5.38997

> <r_epik_Charging_Adjusted_Penalty>
10.78

> <i_epik_Tot_Q>
0

> <i_epik_Tot_abs_Q>
2

> <r_epik_Metal_State_Penalty>
1.41601

> <b_epik_Metal_Only>
1

> <s_lp_Force_Field>
OPLS_2005

> <r_lp_Energy>
7.28937

> <b_lp_Chiralities_Consistent>
1

> <s_lp_Variant>
AV-unprocessed.smi:2037-4

> <Gold.Version>
5.8.1

> <Gold.Id.Protein>
6NUR|6NUR_protein|mol2

> <Gold.PLP.Fitness>
48.8391

> <Gold.PLP.PLP>
-39.1834

> <Gold.PLP.part.hbond>
-4.4493

> <Gold.PLP.part.metal>
0.0000

> <Gold.PLP.part.buried>
-4.5266

> <Gold.PLP.part.nonpolar>
-31.1970

> <Gold.PLP.part.repulsive>
0.2301

> <Gold.PLP.ligand.clash>
0.0000

> <Gold.PLP.ligand.torsion>
0.5211

> <Gold.PLP.Chemscore.Hbond>
3.5520

> <Gold.PLP.Chemscore.CHOScore>
0.0000

> <Gold.PLP.Chemscore.Metal>
0.0000

> <Gold.Chemscore.Hbonds>
donor molecule, donor type, donor heavy atom, donor atom, acceptor molecule, acceptor atom, score
      P1  H  6896  6908       L1    11  1.69
      P1  H  6931  6943       L1    13  0.99
      P1  H  6934  6947       L1    13  0.60

> <Gold.PLP.Chemscore.Internal.Correction>
0.0419

> <Gold.Rescore>
     Score         DG    S(hbond)    S(metal)    S(lipo)     H(rot)  DE(clash)    DE(int)     intcor
     15.81     -18.25       1.68        0.00      95.47       1.57       0.46       1.98       ----

> <Gold.Chemscore.Fitness>
15.8129

> <Gold.Chemscore.DG>
-18.2511

> <Gold.Chemscore.ZeroCoef>
-5.4800

> <Gold.Chemscore.Hbond>
1.6810

> <Gold.Chemscore.Metal>
0.0000

> <Gold.Chemscore.Lipo>
95.4657

> <Gold.Chemscore.Internal_Hbond>
0.0000

> <Gold.Chemscore.DEClash>
0.4570

> <Gold.Chemscore.DEInternal>
1.9812

> <Gold.Chemscore.Rot>
1.5676

> <Gold.Chemscore.Internal.Correction>
   9.000000E+99

> <Gold.Chemscore.Hbonds>
donor molecule, donor type, donor heavy atom, donor atom, acceptor molecule, acceptor atom, score
      P1  H  6896  6908       L1    11  0.68
      P1  H  6931  6943       L1    13  0.58
      P1  H  6934  6947       L1    13  0.09

> <Gold.Chemscore.Hbond.Weighted>
-5.6147

> <Gold.Chemscore.Metal.Weighted>
-0.0000

> <Gold.Chemscore.Lipo.Weighted>
-11.1695

> <Gold.Chemscore.Internal_Hbond.Weighted>
0.0000

> <Gold.Chemscore.DEClash.Weighted>
0.4570

> <Gold.Chemscore.DEInternal.Weighted>
1.9812

> <Gold.Chemscore.Rot.Weighted>
4.0130

> <Gold.Chemscore.Internal.Correction.Weighted>
   9.000000E+99

> <Gold.Protein.RotatedTorsions>
[ 6907 6896 6895 6894 ] final -173.02 input  -60.11 | X-H torsion
[ 7974 7965 7964 7962 ] final  -57.65 input  175.53 | X-H torsion
[ 8008 7997 7996 7995 ] final    4.52 input   59.86 | X-H torsion
[ 10167 10162 10161 10158 ] final   69.26 input  -65.29 | X-H torsion
[ 10718 10713 10712 10709 ] final -147.90 input   66.30 | X-H torsion
[ 10763 10752 10751 10750 ] final   16.36 input  -60.55 | X-H torsion
[ 11005 11000 10999 10996 ] final -104.70 input  -57.11 | X-H torsion

> <Gold.Protein.ActiveResidues>
 VAL166  LYS551  ARG553  GLY616  TRP617  ASP618  TYR619  PRO620  LYS621  CYS622 
 ASP623  PHE694  ASN695  SER759  ASP760  ASP761  ALA762  ILE779  LEU786  VAL792 
 PHE793  MET794  SER795  GLU796  ALA797  LYS798  CYS799  TRP800  GLU811  SER814 

> <Gold.Protein.RotatedAtoms>
  151.5494  133.3420  159.2949 H   0  0  0  0  0  0  0  0  0  0  0  0  # atno 6907 bound_to 6896
  150.8488  134.7808  159.7003 H   0  0  0  0  0  0  0  0  0  0  0  0  # atno 6908 bound_to 6896
  152.4539  134.5342  159.9871 H   0  0  0  0  0  0  0  0  0  0  0  0  # atno 6909 bound_to 6896
  145.8485  140.8368  142.9998 H   0  0  0  0  0  0  0  0  0  0  0  0  # atno 7974 bound_to 7965
  154.7169  140.2704  155.6577 H   0  0  0  0  0  0  0  0  0  0  0  0  # atno 8008 bound_to 7997
  156.2812  140.2742  156.1753 H   0  0  0  0  0  0  0  0  0  0  0  0  # atno 8009 bound_to 7997
  155.0559  140.0371  157.2550 H   0  0  0  0  0  0  0  0  0  0  0  0  # atno 8010 bound_to 7997
  140.0697  144.5163  150.7236 H   0  0  0  0  0  0  0  0  0  0  0  0  # atno 10167 bound_to 10162
  156.4134  130.7993  151.2211 H   0  0  0  0  0  0  0  0  0  0  0  0  # atno 10718 bound_to 10713
  153.1438  135.6765  153.8985 H   0  0  0  0  0  0  0  0  0  0  0  0  # atno 10763 bound_to 10752
  153.8434  135.3102  155.3429 H   0  0  0  0  0  0  0  0  0  0  0  0  # atno 10764 bound_to 10752
  154.7809  135.4889  153.9927 H   0  0  0  0  0  0  0  0  0  0  0  0  # atno 10765 bound_to 10752
  141.1088  133.8746  157.1644 H   0  0  0  0  0  0  0  0  0  0  0  0  # atno 11005 bound_to 11000
  144.6730  140.0918  143.7465 LP  0  0  0  0  0  0  0  0  0  0  0  0  # atno 17320 bound_to 7965
  145.9384  139.2652  143.1283 LP  0  0  0  0  0  0  0  0  0  0  0  0  # atno 17321 bound_to 7965
  140.7131  143.2522  151.4518 LP  0  0  0  0  0  0  0  0  0  0  0  0  # atno 17342 bound_to 10162
  139.5843  144.1639  152.2009 LP  0  0  0  0  0  0  0  0  0  0  0  0  # atno 17343 bound_to 10162
  157.7507  131.0250  150.3903 LP  0  0  0  0  0  0  0  0  0  0  0  0  # atno 17370 bound_to 10713
  156.4205  130.3952  149.6828 LP  0  0  0  0  0  0  0  0  0  0  0  0  # atno 17371 bound_to 10713
  139.9971  135.0042  157.0107 LP  0  0  0  0  0  0  0  0  0  0  0  0  # atno 17394 bound_to 11000
  140.4831  134.1269  155.7220 LP  0  0  0  0  0  0  0  0  0  0  0  0  # atno 17395 bound_to 11000

$$$$
