AV-unprocessed.smi:39|AV-procd|sdf|362|dock7
  -GOLD-   2262016203D 1   1.00000     0.00000
 Structure written by MMmdl.
 31 32  0  0  0  0  0  0  0  0  4 V2000
  152.4548  143.4356  160.7280 C   0  0  0  0  0  0  0  0  0  0  0  0
  152.7553  142.0009  160.3311 C   0  0  0  0  0  0  0  0  0  0  0  0
  152.0939  141.3758  159.3316 C   0  0  0  0  0  0  0  0  0  0  0  0
  152.3708  140.0666  158.9724 N   0  0  0  0  0  0  0  0  0  0  0  0
  151.6174  139.3654  157.8579 C   0  0  2  0  0  0  0  0  0  0  0  0
  152.5659  139.0034  156.6987 C   0  0  0  0  0  0  0  0  0  0  0  0
  151.8482  139.5665  155.4797 C   0  0  1  0  0  0  0  0  0  0  0  0
  150.9113  138.5863  154.9120 N   0  0  0  0  0  0  0  0  0  0  0  0
  151.0863  137.4033  155.2313 N   0  3  0  0  0  0  0  0  0  0  0  0
  151.2753  136.2944  155.4036 N   0  5  0  0  0  0  0  0  0  0  0  0
  151.1230  140.7651  156.1027 C   0  0  1  0  0  0  0  0  0  0  0  0
  149.9677  141.3413  155.2660 C   0  0  0  0  0  0  0  0  0  0  0  0
  149.2353  142.2766  156.0291 O   0  0  0  0  0  0  0  0  0  0  0  0
  150.6445  140.2188  157.3264 O   0  0  0  0  0  0  0  0  0  0  0  0
  153.3648  139.3433  159.6830 C   0  0  0  0  0  0  0  0  0  0  0  0
  153.5764  138.1760  159.3522 O   0  0  0  0  0  0  0  0  0  0  0  0
  154.0387  139.9664  160.6912 N   0  5  0  0  0  0  0  0  0  0  0  0
  153.7933  141.2575  161.0553 C   0  0  0  0  0  0  0  0  0  0  0  0
  154.4115  141.8093  161.9654 O   0  0  0  0  0  0  0  0  0  0  0  0
  151.1321  138.5069  158.3252 H   0  0  0  0  0  0  0  0  0  0  0  0
  152.5588  139.9065  154.7239 H   0  0  0  0  0  0  0  0  0  0  0  0
  151.8597  141.5442  156.3098 H   0  0  0  0  0  0  0  0  0  0  0  0
  151.6762  143.8668  160.0982 H   0  0  0  0  0  0  0  0  0  0  0  0
  153.3483  144.0533  160.6304 H   0  0  0  0  0  0  0  0  0  0  0  0
  152.1157  143.4799  161.7634 H   0  0  0  0  0  0  0  0  0  0  0  0
  151.3278  141.9274  158.8090 H   0  0  0  0  0  0  0  0  0  0  0  0
  153.5260  139.5047  156.8323 H   0  0  0  0  0  0  0  0  0  0  0  0
  152.7412  137.9276  156.6580 H   0  0  0  0  0  0  0  0  0  0  0  0
  150.3616  141.8667  154.3955 H   0  0  0  0  0  0  0  0  0  0  0  0
  149.3083  140.5532  154.9008 H   0  0  0  0  0  0  0  0  0  0  0  0
  149.1675  143.0795  155.5355 H   0  0  0  0  0  0  0  0  0  0  0  0
  1  2  1  0  0  0  0
  1 23  1  0  0  0  0
  1 24  1  0  0  0  0
  1 25  1  0  0  0  0
  2 18  1  0  0  0  0
  2  3  2  0  0  0  0
  3  4  1  0  0  0  0
  3 26  1  0  0  0  0
  4  5  1  0  0  0  0
  4 15  1  0  0  0  0
  5 20  1  0  0  0  0
  5 14  1  0  0  0  0
  5  6  1  0  0  0  0
  6  7  1  0  0  0  0
  6 27  1  0  0  0  0
  6 28  1  0  0  0  0
  7 21  1  0  0  0  0
  7  8  1  0  0  0  0
  7 11  1  0  0  0  0
  8  9  2  0  0  0  0
  9 10  2  0  0  0  0
 11 22  1  0  0  0  0
 11 12  1  0  0  0  0
 11 14  1  0  0  0  0
 12 13  1  0  0  0  0
 12 29  1  0  0  0  0
 12 30  1  0  0  0  0
 13 31  1  0  0  0  0
 15 16  2  0  0  0  0
 15 17  1  0  0  0  0
 17 18  1  0  0  0  0
 18 19  2  0  0  0  0
M  CHG  1   9   1
M  CHG  1  10  -1
M  CHG  1  17  -1
M  END
> <s_m_source_file>
AV-unprocessed.smi

> <i_m_source_file_index>
39

> <i_lp_mmshare_version>
43012

> <i_f3d_flags>
0

> <s_epik_input>
Tz1jMVtuSF1jKD1PKW4oW2NIXWMxW0NIM10pW0NASF0yW0NIMl1bQ0BIXShOPVtOK109W04tXSlbQ0BIXShPMilbQ0gyXVtPSF0=

> <s_epik_cmdline>
J2VwaWtfcHl0aG9uJywgJy1waCcsICc3LjAnLCAnLXRuJywgJzgnLCAnLW1hJywgJzIwMCcsICctbWV0YWxfYmluZGluZycsICctaW1hZScsICc8aW5maWxlLm1hZT4nLCAnLW9tYWUnLCAnPG91dGZpbGUubWFlPic=

> <r_lp_tautomer_probability>
0.999537

> <r_epik_Ionization_Penalty>
3.6393

> <r_epik_Ionization_Penalty_Charging>
9.76484e-08

> <r_epik_Ionization_Penalty_Neutral>
3.6393

> <r_epik_State_Penalty>
3.63887

> <r_epik_Charging_Adjusted_Penalty>
3.63887

> <i_epik_Tot_Q>
-1

> <i_epik_Tot_abs_Q>
3

> <r_epik_Metal_State_Penalty>
0.225911

> <b_epik_Metal_Only>
1

> <s_epik_Chemistry_Notes>
This compound contains an acetal/aminal-like group ( X-CH(R)-Y where X, Y are N, S, or O) that may be acid/base labile, releasing an aldehyde.

> <s_lp_Force_Field>
OPLS_2005

> <r_lp_Energy>
37.741

> <b_lp_Chiralities_Consistent>
1

> <s_lp_Variant>
AV-unprocessed.smi:39-12

> <Gold.Version>
5.8.1

> <Gold.Id.Protein>
6NUR|6NUR_protein|mol2

> <Gold.PLP.Fitness>
38.4460

> <Gold.PLP.PLP>
-32.8828

> <Gold.PLP.part.hbond>
-2.9396

> <Gold.PLP.part.metal>
0.0000

> <Gold.PLP.part.buried>
-3.6505

> <Gold.PLP.part.nonpolar>
-25.8000

> <Gold.PLP.part.repulsive>
0.3293

> <Gold.PLP.ligand.clash>
0.0000

> <Gold.PLP.ligand.torsion>
0.2416

> <Gold.PLP.Chemscore.Hbond>
2.0000

> <Gold.PLP.Chemscore.CHOScore>
0.0000

> <Gold.PLP.Chemscore.Metal>
0.0000

> <Gold.Chemscore.Hbonds>
donor molecule, donor type, donor heavy atom, donor atom, acceptor molecule, acceptor atom, score
      L1  H    13    31       P1  8028  0.90
      P1  H 10752 10764       L1    10  1.00

> <Gold.PLP.Chemscore.Internal.Correction>
0.0464

> <Gold.Rescore>
     Score         DG    S(hbond)    S(metal)    S(lipo)     H(rot)  DE(clash)    DE(int)     intcor
     10.29     -11.45       1.92        0.00      55.75       2.72       0.01       1.15       ----

> <Gold.Chemscore.Fitness>
10.2933

> <Gold.Chemscore.DG>
-11.4525

> <Gold.Chemscore.ZeroCoef>
-5.4800

> <Gold.Chemscore.Hbond>
1.9165

> <Gold.Chemscore.Metal>
0.0000

> <Gold.Chemscore.Lipo>
55.7469

> <Gold.Chemscore.Internal_Hbond>
0.0000

> <Gold.Chemscore.DEClash>
0.0106

> <Gold.Chemscore.DEInternal>
1.1485

> <Gold.Chemscore.Rot>
2.7153

> <Gold.Chemscore.Internal.Correction>
   9.000000E+99

> <Gold.Chemscore.Hbonds>
donor molecule, donor type, donor heavy atom, donor atom, acceptor molecule, acceptor atom, score
      L1  H    13    31       P1  8028  0.88
      P1  H 10752 10764       L1    10  0.89

> <Gold.Chemscore.Hbond.Weighted>
-6.4013

> <Gold.Chemscore.Metal.Weighted>
-0.0000

> <Gold.Chemscore.Lipo.Weighted>
-6.5224

> <Gold.Chemscore.Internal_Hbond.Weighted>
0.0000

> <Gold.Chemscore.DEClash.Weighted>
0.0106

> <Gold.Chemscore.DEInternal.Weighted>
1.1485

> <Gold.Chemscore.Rot.Weighted>
6.9512

> <Gold.Chemscore.Internal.Correction.Weighted>
   9.000000E+99

> <Gold.Protein.RotatedTorsions>
[ 6907 6896 6895 6894 ] final  -58.22 input  -60.11 | X-H torsion
[ 7974 7965 7964 7962 ] final   84.28 input  175.53 | X-H torsion
[ 8008 7997 7996 7995 ] final  -88.66 input   59.86 | X-H torsion
[ 10167 10162 10161 10158 ] final   99.36 input  -65.29 | X-H torsion
[ 10718 10713 10712 10709 ] final   -4.91 input   66.30 | X-H torsion
[ 10763 10752 10751 10750 ] final  -33.50 input  -60.55 | X-H torsion
[ 11005 11000 10999 10996 ] final  -48.01 input  -57.11 | X-H torsion

> <Gold.Protein.ActiveResidues>
 VAL166  LYS551  ARG553  GLY616  TRP617  ASP618  TYR619  PRO620  LYS621  CYS622 
 ASP623  PHE694  ASN695  SER759  ASP760  ASP761  ALA762  ILE779  LEU786  VAL792 
 PHE793  MET794  SER795  GLU796  ALA797  LYS798  CYS799  TRP800  GLU811  SER814 

> <Gold.Protein.RotatedAtoms>
  150.8024  134.7126  159.6612 H   0  0  0  0  0  0  0  0  0  0  0  0  # atno 6907 bound_to 6896
  152.4141  134.6068  160.0025 H   0  0  0  0  0  0  0  0  0  0  0  0  # atno 6908 bound_to 6896
  151.6303  133.3295  159.3143 H   0  0  0  0  0  0  0  0  0  0  0  0  # atno 6909 bound_to 6896
  145.6008  139.2352  143.2247 H   0  0  0  0  0  0  0  0  0  0  0  0  # atno 7974 bound_to 7965
  154.6775  140.0551  157.0231 H   0  0  0  0  0  0  0  0  0  0  0  0  # atno 8008 bound_to 7997
  155.1000  140.3228  155.4531 H   0  0  0  0  0  0  0  0  0  0  0  0  # atno 8009 bound_to 7997
  156.2681  140.2033  156.6126 H   0  0  0  0  0  0  0  0  0  0  0  0  # atno 8010 bound_to 7997
  139.7624  144.6950  151.0273 H   0  0  0  0  0  0  0  0  0  0  0  0  # atno 10167 bound_to 10162
  156.7543  130.5249  149.5797 H   0  0  0  0  0  0  0  0  0  0  0  0  # atno 10718 bound_to 10713
  153.8312  135.6866  153.4814 H   0  0  0  0  0  0  0  0  0  0  0  0  # atno 10763 bound_to 10752
  153.1510  135.4618  154.9634 H   0  0  0  0  0  0  0  0  0  0  0  0  # atno 10764 bound_to 10752
  154.7886  135.3293  154.7775 H   0  0  0  0  0  0  0  0  0  0  0  0  # atno 10765 bound_to 10752
  141.0675  133.6689  156.3380 H   0  0  0  0  0  0  0  0  0  0  0  0  # atno 11005 bound_to 11000
  146.1578  140.6833  142.9292 LP  0  0  0  0  0  0  0  0  0  0  0  0  # atno 17320 bound_to 7965
  144.7311  140.4673  143.6937 LP  0  0  0  0  0  0  0  0  0  0  0  0  # atno 17321 bound_to 7965
  140.7808  143.4681  151.0184 LP  0  0  0  0  0  0  0  0  0  0  0  0  # atno 17342 bound_to 10162
  139.8367  143.7618  152.3180 LP  0  0  0  0  0  0  0  0  0  0  0  0  # atno 17343 bound_to 10162
  156.1380  130.6225  151.0428 LP  0  0  0  0  0  0  0  0  0  0  0  0  # atno 17370 bound_to 10713
  157.6763  131.0849  150.7486 LP  0  0  0  0  0  0  0  0  0  0  0  0  # atno 17371 bound_to 10713
  140.5742  134.5810  157.5465 LP  0  0  0  0  0  0  0  0  0  0  0  0  # atno 17394 bound_to 11000
  139.9491  134.7649  156.0491 LP  0  0  0  0  0  0  0  0  0  0  0  0  # atno 17395 bound_to 11000

$$$$
