AV-unprocessed.smi:3156|AV-procd|sdf|12036|dock1
  -GOLD-   2272017453D 1   1.00000     0.00000
 Structure written by MMmdl.
 41 42  0  0  0  0  0  0  0  0  2 V2000
  149.4087  139.1357  157.1734 C   0  0  0  0  0  0  0  0  0  0  0  0
  149.9904  140.3992  156.5185 C   0  0  1  0  0  0  0  0  0  0  0  0
  151.3648  140.6059  157.0319 N   0  3  0  0  0  0  0  0  0  0  0  0
  151.4566  140.8780  158.4814 C   0  0  0  0  0  0  0  0  0  0  0  0
  152.0745  142.2566  158.7560 C   0  0  1  0  0  0  0  0  0  0  0  0
  151.5096  143.3510  157.8254 C   0  0  0  0  0  0  0  0  0  0  0  0
  152.0652  144.7272  158.2076 C   0  0  0  0  0  0  0  0  0  0  0  0
  151.8223  144.9847  159.6978 C   0  0  0  0  0  0  0  0  0  0  0  0
  152.3670  143.8176  160.5355 C   0  0  0  0  0  0  0  0  0  0  0  0
  151.7738  142.5952  160.1077 O   0  0  0  0  0  0  0  0  0  0  0  0
  150.0015  140.3218  154.9670 C   0  0  1  0  0  0  0  0  0  0  0  0
  150.4453  138.9482  154.4271 C   0  0  0  0  0  0  0  0  0  0  0  0
  148.7039  140.6800  154.4041 N   0  0  0  0  0  0  0  0  0  0  0  0
  148.0461  141.8911  154.4775 C   0  0  0  0  0  0  0  0  0  0  0  0
  146.8567  141.7509  153.8220 C   0  0  0  0  0  0  0  0  0  0  0  0
  146.8754  140.4018  153.3715 C   0  0  0  0  0  0  0  0  0  0  0  0
  147.9791  139.7633  153.7235 N   0  0  0  0  0  0  0  0  0  0  0  0
  148.3577  138.9978  156.9212 H   0  0  0  0  0  0  0  0  0  0  0  0
  149.4665  139.1981  158.2606 H   0  0  0  0  0  0  0  0  0  0  0  0
  149.9488  138.2408  156.8628 H   0  0  0  0  0  0  0  0  0  0  0  0
  149.3644  141.2395  156.8245 H   0  0  0  0  0  0  0  0  0  0  0  0
  151.9126  139.7820  156.8289 H   0  0  0  0  0  0  0  0  0  0  0  0
  150.4701  140.8193  158.9424 H   0  0  0  0  0  0  0  0  0  0  0  0
  152.0671  140.0978  158.9379 H   0  0  0  0  0  0  0  0  0  0  0  0
  153.1585  142.1916  158.6439 H   0  0  0  0  0  0  0  0  0  0  0  0
  151.7500  143.1329  156.7846 H   0  0  0  0  0  0  0  0  0  0  0  0
  150.4209  143.3677  157.8956 H   0  0  0  0  0  0  0  0  0  0  0  0
  153.1348  144.7651  157.9970 H   0  0  0  0  0  0  0  0  0  0  0  0
  151.5986  145.5074  157.6055 H   0  0  0  0  0  0  0  0  0  0  0  0
  152.2922  145.9205  160.0018 H   0  0  0  0  0  0  0  0  0  0  0  0
  150.7530  145.0968  159.8816 H   0  0  0  0  0  0  0  0  0  0  0  0
  153.4532  143.7549  160.4561 H   0  0  0  0  0  0  0  0  0  0  0  0
  152.1330  143.9723  161.5889 H   0  0  0  0  0  0  0  0  0  0  0  0
  150.7167  141.0589  154.5988 H   0  0  0  0  0  0  0  0  0  0  0  0
  151.4841  138.7331  154.6756 H   0  0  0  0  0  0  0  0  0  0  0  0
  150.3661  138.9134  153.3400 H   0  0  0  0  0  0  0  0  0  0  0  0
  149.8317  138.1414  154.8291 H   0  0  0  0  0  0  0  0  0  0  0  0
  148.4719  142.7430  154.9872 H   0  0  0  0  0  0  0  0  0  0  0  0
  146.0902  142.4989  153.6831 H   0  0  0  0  0  0  0  0  0  0  0  0
  146.1246  139.8705  152.8053 H   0  0  0  0  0  0  0  0  0  0  0  0
  151.7669  141.3879  156.5352 H   0  0  0  0  0  0  0  0  0  0  0  0
  1  2  1  0  0  0  0
  1 18  1  0  0  0  0
  1 19  1  0  0  0  0
  1 20  1  0  0  0  0
  2  3  1  0  0  0  0
  2 11  1  0  0  0  0
  2 21  1  0  0  0  0
  3  4  1  0  0  0  0
  3 22  1  0  0  0  0
  3 41  1  0  0  0  0
  4  5  1  0  0  0  0
  4 23  1  0  0  0  0
  4 24  1  0  0  0  0
  5 10  1  0  0  0  0
  5  6  1  0  0  0  0
  5 25  1  0  0  0  0
  6  7  1  0  0  0  0
  6 26  1  0  0  0  0
  6 27  1  0  0  0  0
  7  8  1  0  0  0  0
  7 28  1  0  0  0  0
  7 29  1  0  0  0  0
  8  9  1  0  0  0  0
  8 30  1  0  0  0  0
  8 31  1  0  0  0  0
  9 10  1  0  0  0  0
  9 32  1  0  0  0  0
  9 33  1  0  0  0  0
 11 12  1  0  0  0  0
 11 13  1  0  0  0  0
 11 34  1  0  0  0  0
 12 35  1  0  0  0  0
 12 36  1  0  0  0  0
 12 37  1  0  0  0  0
 13 17  1  0  0  0  0
 13 14  1  0  0  0  0
 14 15  2  0  0  0  0
 14 38  1  0  0  0  0
 15 16  1  0  0  0  0
 15 39  1  0  0  0  0
 16 17  2  0  0  0  0
 16 40  1  0  0  0  0
M  CHG  1   3   1
M  END
> <s_m_source_file>
AV-unprocessed.smi

> <i_m_source_file_index>
3156

> <i_lp_mmshare_version>
43012

> <i_f3d_flags>
0

> <s_epik_input>
bjFbY0hdW2NIXVtjSF1uMVtDQEBIXShbQ0gzXSlbQ0BIXShbQ0gzXSlbTkhdW0NIMl1bQ0BASF0yW0NIMl1bQ0gyXVtDSDJdW0NIMl1PMg==

> <s_epik_cmdline>
J2VwaWtfcHl0aG9uJywgJy1waCcsICc3LjAnLCAnLXRuJywgJzgnLCAnLW1hJywgJzIwMCcsICctbWV0YWxfYmluZGluZycsICctaW1hZScsICc8aW5maWxlLm1hZT4nLCAnLW9tYWUnLCAnPG91dGZpbGUubWFlPic=

> <r_lp_tautomer_probability>
1

> <r_epik_Ionization_Penalty>
0.00658015

> <r_epik_Ionization_Penalty_Charging>
0.00656881

> <r_epik_Ionization_Penalty_Neutral>
1.13431e-05

> <r_epik_State_Penalty>
0.0048654

> <r_epik_Charging_Adjusted_Penalty>
0.0114342

> <i_epik_Tot_Q>
1

> <i_epik_Tot_abs_Q>
1

> <r_epik_Metal_State_Penalty>
-0

> <b_epik_Metal_Only>
0

> <s_lp_Force_Field>
OPLS_2005

> <r_lp_Energy>
18.5215

> <b_lp_Chiralities_Consistent>
1

> <s_lp_Variant>
AV-unprocessed.smi:3156-8

> <Gold.Version>
5.8.1

> <Gold.Id.Protein>
6NUR|6NUR_protein|mol2

> <Gold.PLP.Fitness>
42.7918

> <Gold.PLP.PLP>
-38.8016

> <Gold.PLP.part.hbond>
-0.1423

> <Gold.PLP.part.metal>
0.0000

> <Gold.PLP.part.buried>
-4.7200

> <Gold.PLP.part.nonpolar>
-34.9669

> <Gold.PLP.part.repulsive>
0.8851

> <Gold.PLP.ligand.clash>
0.0000

> <Gold.PLP.ligand.torsion>
1.0497

> <Gold.PLP.Chemscore.Hbond>
0.0000

> <Gold.PLP.Chemscore.CHOScore>
2.0000

> <Gold.PLP.Chemscore.Metal>
0.0000

> <Gold.Chemscore.Hbonds>
donor molecule, donor type, donor heavy atom, donor atom, acceptor molecule, acceptor atom, score
      L1  C    14    38       P1  8028  1.00
      L1  C    16    40       P1 10175  0.96

> <Gold.PLP.Chemscore.Internal.Correction>
0.0896

> <Gold.Rescore>
     Score         DG    S(hbond)    S(metal)    S(lipo)     H(rot)  DE(clash)    DE(int)     intcor
     13.50     -14.49       0.00        0.00     111.86       1.59       0.07       0.92       ----

> <Gold.Chemscore.Fitness>
13.5003

> <Gold.Chemscore.DG>
-14.4869

> <Gold.Chemscore.ZeroCoef>
-5.4800

> <Gold.Chemscore.Hbond>
0.0000

> <Gold.Chemscore.Metal>
0.0000

> <Gold.Chemscore.Lipo>
111.8558

> <Gold.Chemscore.Internal_Hbond>
0.0000

> <Gold.Chemscore.DEClash>
0.0707

> <Gold.Chemscore.DEInternal>
0.9159

> <Gold.Chemscore.Rot>
1.5938

> <Gold.Chemscore.Internal.Correction>
   9.000000E+99

> <Gold.Chemscore.Hbond.Weighted>
-0.0000

> <Gold.Chemscore.Metal.Weighted>
-0.0000

> <Gold.Chemscore.Lipo.Weighted>
-13.0871

> <Gold.Chemscore.Internal_Hbond.Weighted>
0.0000

> <Gold.Chemscore.DEClash.Weighted>
0.0707

> <Gold.Chemscore.DEInternal.Weighted>
0.9159

> <Gold.Chemscore.Rot.Weighted>
4.0802

> <Gold.Chemscore.Internal.Correction.Weighted>
   9.000000E+99

> <Gold.Protein.RotatedTorsions>
[ 6907 6896 6895 6894 ] final -124.55 input  -60.11 | X-H torsion
[ 7974 7965 7964 7962 ] final  169.61 input  175.53 | X-H torsion
[ 8008 7997 7996 7995 ] final -173.43 input   59.86 | X-H torsion
[ 10167 10162 10161 10158 ] final  -67.48 input  -65.29 | X-H torsion
[ 10718 10713 10712 10709 ] final   75.13 input   66.30 | X-H torsion
[ 10763 10752 10751 10750 ] final   66.42 input  -60.55 | X-H torsion
[ 11005 11000 10999 10996 ] final   47.12 input  -57.11 | X-H torsion

> <Gold.Protein.ActiveResidues>
 VAL166  LYS551  ARG553  GLY616  TRP617  ASP618  TYR619  PRO620  LYS621  CYS622 
 ASP623  PHE694  ASN695  SER759  ASP760  ASP761  ALA762  ILE779  LEU786  VAL792 
 PHE793  MET794  SER795  GLU796  ALA797  LYS798  CYS799  TRP800  GLU811  SER814 

> <Gold.Protein.RotatedAtoms>
  150.8780  133.7412  159.2940 H   0  0  0  0  0  0  0  0  0  0  0  0  # atno 6907 bound_to 6896
  151.5003  135.1060  159.9836 H   0  0  0  0  0  0  0  0  0  0  0  0  # atno 6908 bound_to 6896
  152.4740  133.8050  159.7029 H   0  0  0  0  0  0  0  0  0  0  0  0  # atno 6909 bound_to 6896
  144.7349  139.9080  143.6413 H   0  0  0  0  0  0  0  0  0  0  0  0  # atno 7974 bound_to 7965
  155.9574  140.1138  157.0925 H   0  0  0  0  0  0  0  0  0  0  0  0  # atno 8008 bound_to 7997
  154.4123  140.1188  156.5199 H   0  0  0  0  0  0  0  0  0  0  0  0  # atno 8009 bound_to 7997
  155.6765  140.3473  155.4841 H   0  0  0  0  0  0  0  0  0  0  0  0  # atno 8010 bound_to 7997
  140.5579  143.2312  151.6784 H   0  0  0  0  0  0  0  0  0  0  0  0  # atno 10167 bound_to 10162
  157.6621  130.9711  150.1309 H   0  0  0  0  0  0  0  0  0  0  0  0  # atno 10718 bound_to 10713
  153.0139  135.5321  154.6820 H   0  0  0  0  0  0  0  0  0  0  0  0  # atno 10763 bound_to 10752
  154.5978  135.2865  155.0570 H   0  0  0  0  0  0  0  0  0  0  0  0  # atno 10764 bound_to 10752
  154.1639  135.6543  153.5045 H   0  0  0  0  0  0  0  0  0  0  0  0  # atno 10765 bound_to 10752
  140.1307  134.4709  155.8523 H   0  0  0  0  0  0  0  0  0  0  0  0  # atno 11005 bound_to 11000
  146.1022  139.4019  143.0339 LP  0  0  0  0  0  0  0  0  0  0  0  0  # atno 17320 bound_to 7965
  145.7562  140.9953  143.1224 LP  0  0  0  0  0  0  0  0  0  0  0  0  # atno 17321 bound_to 7965
  139.5056  144.3710  152.0470 LP  0  0  0  0  0  0  0  0  0  0  0  0  # atno 17342 bound_to 10162
  140.2833  144.3835  150.6112 LP  0  0  0  0  0  0  0  0  0  0  0  0  # atno 17343 bound_to 10162
  156.2156  130.3670  149.8617 LP  0  0  0  0  0  0  0  0  0  0  0  0  # atno 17370 bound_to 10713
  156.6484  130.8733  151.3527 LP  0  0  0  0  0  0  0  0  0  0  0  0  # atno 17371 bound_to 10713
  141.2169  133.6795  156.7064 LP  0  0  0  0  0  0  0  0  0  0  0  0  # atno 17394 bound_to 11000
  140.2845  134.8290  157.3963 LP  0  0  0  0  0  0  0  0  0  0  0  0  # atno 17395 bound_to 11000

$$$$
