AV-unprocessed.smi:414|AV-procd|sdf|2516|dock5
  -GOLD-   2262022463D 1   1.00000     0.00000
 Structure written by MMmdl.
 37 38  0  0  0  0  0  0  0  0  2 V2000
  152.6536  143.6646  161.6828 C   0  0  0  0  0  0  0  0  0  0  0  0
  151.9100  142.9247  160.5620 C   0  0  2  0  0  0  0  0  0  0  0  0
  152.7534  141.7667  159.9951 C   0  0  0  0  0  0  0  0  0  0  0  0
  152.0114  141.0249  158.8717 C   0  0  0  0  0  0  0  0  0  0  0  0
  151.5967  141.9855  157.7427 C   0  0  1  0  0  0  0  0  0  0  0  0
  150.8496  141.2516  156.7264 N   0  0  0  0  0  0  0  0  0  0  0  0
  151.3443  140.2736  155.9523 C   0  0  0  0  0  0  0  0  0  0  0  0
  152.5172  139.9013  156.0000 O   0  0  0  0  0  0  0  0  0  0  0  0
  150.3675  139.6458  154.9493 C   0  0  0  0  0  0  0  0  0  0  0  0
  150.4095  138.1750  154.9610 N   0  0  0  0  0  0  0  0  0  0  0  0
  149.2447  137.4885  155.3474 C   0  0  0  0  0  0  0  0  0  0  0  0
  149.1922  136.1434  155.3844 C   0  0  0  0  0  0  0  0  0  0  0  0
  150.3863  135.3956  155.0103 C   0  0  0  0  0  0  0  0  0  0  0  0
  150.3582  134.1668  155.0424 O   0  0  0  0  0  0  0  0  0  0  0  0
  151.4903  136.1072  154.6382 N   0  5  0  0  0  0  0  0  0  0  0  0
  151.5281  137.4754  154.6022 C   0  0  0  0  0  0  0  0  0  0  0  0
  152.5342  138.0980  154.2598 O   0  0  0  0  0  0  0  0  0  0  0  0
  150.7552  143.1501  158.3019 C   0  0  0  0  0  0  0  0  0  0  0  0
  151.4929  143.8860  159.4325 C   0  0  0  0  0  0  0  0  0  0  0  0
  153.5769  144.1142  161.3164 H   0  0  0  0  0  0  0  0  0  0  0  0
  152.9132  142.9866  162.4963 H   0  0  0  0  0  0  0  0  0  0  0  0
  152.0388  144.4613  162.1024 H   0  0  0  0  0  0  0  0  0  0  0  0
  151.0027  142.5000  160.9945 H   0  0  0  0  0  0  0  0  0  0  0  0
  153.6992  142.1518  159.6117 H   0  0  0  0  0  0  0  0  0  0  0  0
  153.0064  141.0646  160.7902 H   0  0  0  0  0  0  0  0  0  0  0  0
  152.6473  140.2331  158.4737 H   0  0  0  0  0  0  0  0  0  0  0  0
  151.1287  140.5342  159.2846 H   0  0  0  0  0  0  0  0  0  0  0  0
  152.5060  142.3905  157.2938 H   0  0  0  0  0  0  0  0  0  0  0  0
  149.8752  141.4915  156.6153 H   0  0  0  0  0  0  0  0  0  0  0  0
  149.3515  139.9936  155.1463 H   0  0  0  0  0  0  0  0  0  0  0  0
  150.6123  140.0263  153.9568 H   0  0  0  0  0  0  0  0  0  0  0  0
  148.4033  138.1161  155.6020 H   0  0  0  0  0  0  0  0  0  0  0  0
  148.2887  135.6309  155.6798 H   0  0  0  0  0  0  0  0  0  0  0  0
  150.5134  143.8559  157.5064 H   0  0  0  0  0  0  0  0  0  0  0  0
  149.8035  142.7719  158.6778 H   0  0  0  0  0  0  0  0  0  0  0  0
  150.8538  144.6748  159.8312 H   0  0  0  0  0  0  0  0  0  0  0  0
  152.3756  144.3811  159.0254 H   0  0  0  0  0  0  0  0  0  0  0  0
  1  2  1  0  0  0  0
  1 20  1  0  0  0  0
  1 21  1  0  0  0  0
  1 22  1  0  0  0  0
  2 19  1  0  0  0  0
  2  3  1  0  0  0  0
  2 23  1  0  0  0  0
  3  4  1  0  0  0  0
  3 24  1  0  0  0  0
  3 25  1  0  0  0  0
  4  5  1  0  0  0  0
  4 26  1  0  0  0  0
  4 27  1  0  0  0  0
  5  6  1  0  0  0  0
  5 18  1  0  0  0  0
  5 28  1  0  0  0  0
  6  7  1  0  0  0  0
  6 29  1  0  0  0  0
  7  8  2  0  0  0  0
  7  9  1  0  0  0  0
  9 10  1  0  0  0  0
  9 30  1  0  0  0  0
  9 31  1  0  0  0  0
 10 16  1  0  0  0  0
 10 11  1  0  0  0  0
 11 12  2  0  0  0  0
 11 32  1  0  0  0  0
 12 13  1  0  0  0  0
 12 33  1  0  0  0  0
 13 14  2  0  0  0  0
 13 15  1  0  0  0  0
 15 16  1  0  0  0  0
 16 17  2  0  0  0  0
 18 19  1  0  0  0  0
 18 34  1  0  0  0  0
 18 35  1  0  0  0  0
 19 36  1  0  0  0  0
 19 37  1  0  0  0  0
M  CHG  1  15  -1
M  END
> <s_m_source_file>
AV-unprocessed.smi

> <i_m_source_file_index>
414

> <i_lp_mmshare_version>
43012

> <i_f3d_flags>
0

> <s_epik_input>
W0NIM11bQ0BASF0xW0NIMl1bQ0gyXVtDQEhdKFtDSDJdW0NIMl0xKVtOSF1DKD1PKVtDSDJdbjJbY0hdW2NIXWMoPU8pW25IXWMyPU8=

> <s_epik_cmdline>
J2VwaWtfcHl0aG9uJywgJy1waCcsICc3LjAnLCAnLXRuJywgJzgnLCAnLW1hJywgJzIwMCcsICctbWV0YWxfYmluZGluZycsICctaW1hZScsICc8aW5maWxlLm1hZT4nLCAnLW9tYWUnLCAnPG91dGZpbGUubWFlPic=

> <r_lp_tautomer_probability>
0.999537

> <r_epik_Ionization_Penalty>
3.11551

> <r_epik_Ionization_Penalty_Charging>
2.90498e-08

> <r_epik_Ionization_Penalty_Neutral>
3.11551

> <r_epik_State_Penalty>
3.11459

> <r_epik_Charging_Adjusted_Penalty>
3.11459

> <i_epik_Tot_Q>
-1

> <i_epik_Tot_abs_Q>
1

> <r_epik_Metal_State_Penalty>
0.463083

> <b_epik_Metal_Only>
1

> <s_lp_Force_Field>
OPLS_2005

> <r_lp_Energy>
17.7967

> <b_lp_Chiralities_Consistent>
1

> <s_lp_Variant>
AV-unprocessed.smi:414-3

> <Gold.Version>
5.8.1

> <Gold.Id.Protein>
6NUR|6NUR_protein|mol2

> <Gold.PLP.Fitness>
44.9801

> <Gold.PLP.PLP>
-36.3424

> <Gold.PLP.part.hbond>
-2.7369

> <Gold.PLP.part.metal>
0.0000

> <Gold.PLP.part.buried>
-5.0469

> <Gold.PLP.part.nonpolar>
-28.6826

> <Gold.PLP.part.repulsive>
0.4396

> <Gold.PLP.ligand.clash>
0.0000

> <Gold.PLP.ligand.torsion>
0.1846

> <Gold.PLP.Chemscore.Hbond>
3.0000

> <Gold.PLP.Chemscore.CHOScore>
0.0000

> <Gold.PLP.Chemscore.Metal>
0.0000

> <Gold.Chemscore.Hbonds>
donor molecule, donor type, donor heavy atom, donor atom, acceptor molecule, acceptor atom, score
      P1  H  7997  8008       L1     8  1.00
      P1  H 10752 10763       L1    15  2.00

> <Gold.PLP.Chemscore.Internal.Correction>
0.0069

> <Gold.Rescore>
     Score         DG    S(hbond)    S(metal)    S(lipo)     H(rot)  DE(clash)    DE(int)     intcor
     12.50     -17.00       1.88        0.00      81.10       1.65       0.08       4.42       ----

> <Gold.Chemscore.Fitness>
12.5014

> <Gold.Chemscore.DG>
-16.9966

> <Gold.Chemscore.ZeroCoef>
-5.4800

> <Gold.Chemscore.Hbond>
1.8756

> <Gold.Chemscore.Metal>
0.0000

> <Gold.Chemscore.Lipo>
81.0999

> <Gold.Chemscore.Internal_Hbond>
0.0000

> <Gold.Chemscore.DEClash>
0.0758

> <Gold.Chemscore.DEInternal>
4.4195

> <Gold.Chemscore.Rot>
1.6549

> <Gold.Chemscore.Internal.Correction>
   9.000000E+99

> <Gold.Chemscore.Hbonds>
donor molecule, donor type, donor heavy atom, donor atom, acceptor molecule, acceptor atom, score
      P1  H  7997  8008       L1     8  1.00
      P1  H 10752 10763       L1    15  0.66

> <Gold.Chemscore.Hbond.Weighted>
-6.2644

> <Gold.Chemscore.Metal.Weighted>
-0.0000

> <Gold.Chemscore.Lipo.Weighted>
-9.4887

> <Gold.Chemscore.Internal_Hbond.Weighted>
0.0000

> <Gold.Chemscore.DEClash.Weighted>
0.0758

> <Gold.Chemscore.DEInternal.Weighted>
4.4195

> <Gold.Chemscore.Rot.Weighted>
4.2364

> <Gold.Chemscore.Internal.Correction.Weighted>
   9.000000E+99

> <Gold.Protein.RotatedTorsions>
[ 6907 6896 6895 6894 ] final  -40.73 input  -60.11 | X-H torsion
[ 7974 7965 7964 7962 ] final  -28.58 input  175.53 | X-H torsion
[ 8008 7997 7996 7995 ] final  -30.78 input   59.86 | X-H torsion
[ 10167 10162 10161 10158 ] final  112.27 input  -65.29 | X-H torsion
[ 10718 10713 10712 10709 ] final  175.16 input   66.30 | X-H torsion
[ 10763 10752 10751 10750 ] final   71.30 input  -60.55 | X-H torsion
[ 11005 11000 10999 10996 ] final   73.69 input  -57.11 | X-H torsion

> <Gold.Protein.ActiveResidues>
 VAL166  LYS551  ARG553  GLY616  TRP617  ASP618  TYR619  PRO620  LYS621  CYS622 
 ASP623  PHE694  ASN695  SER759  ASP760  ASP761  ALA762  ILE779  LEU786  VAL792 
 PHE793  MET794  SER795  GLU796  ALA797  LYS798  CYS799  TRP800  GLU811  SER814 

> <Gold.Protein.RotatedAtoms>
  150.9750  134.9116  159.7810 H   0  0  0  0  0  0  0  0  0  0  0  0  # atno 6907 bound_to 6896
  152.5203  134.3489  159.9254 H   0  0  0  0  0  0  0  0  0  0  0  0  # atno 6908 bound_to 6896
  151.3497  133.3889  159.2713 H   0  0  0  0  0  0  0  0  0  0  0  0  # atno 6909 bound_to 6896
  146.1278  140.5302  142.8707 H   0  0  0  0  0  0  0  0  0  0  0  0  # atno 7974 bound_to 7965
  154.4237  140.1782  156.1462 H   0  0  0  0  0  0  0  0  0  0  0  0  # atno 8008 bound_to 7997
  155.9952  140.3365  155.6767 H   0  0  0  0  0  0  0  0  0  0  0  0  # atno 8009 bound_to 7997
  155.6318  140.0670  157.2637 H   0  0  0  0  0  0  0  0  0  0  0  0  # atno 8010 bound_to 7997
  139.6548  144.7129  151.1977 H   0  0  0  0  0  0  0  0  0  0  0  0  # atno 10167 bound_to 10162
  156.9389  130.9995  151.2972 H   0  0  0  0  0  0  0  0  0  0  0  0  # atno 10718 bound_to 10713
  153.0391  135.5142  154.7572 H   0  0  0  0  0  0  0  0  0  0  0  0  # atno 10763 bound_to 10752
  154.6524  135.2927  154.9972 H   0  0  0  0  0  0  0  0  0  0  0  0  # atno 10764 bound_to 10752
  154.0851  135.6658  153.4896 H   0  0  0  0  0  0  0  0  0  0  0  0  # atno 10765 bound_to 10752
  139.9427  134.7369  156.1057 H   0  0  0  0  0  0  0  0  0  0  0  0  # atno 11005 bound_to 11000
  144.7659  140.5530  143.6703 LP  0  0  0  0  0  0  0  0  0  0  0  0  # atno 17320 bound_to 7965
  145.5328  139.1475  143.3490 LP  0  0  0  0  0  0  0  0  0  0  0  0  # atno 17321 bound_to 7965
  140.7554  143.6090  150.8624 LP  0  0  0  0  0  0  0  0  0  0  0  0  # atno 17342 bound_to 10162
  139.9741  143.6023  152.2964 LP  0  0  0  0  0  0  0  0  0  0  0  0  # atno 17343 bound_to 10162
  157.5798  130.8368  149.8506 LP  0  0  0  0  0  0  0  0  0  0  0  0  # atno 17370 bound_to 10713
  156.0413  130.3738  150.1428 LP  0  0  0  0  0  0  0  0  0  0  0  0  # atno 17371 bound_to 10713
  141.1068  133.6657  156.2882 LP  0  0  0  0  0  0  0  0  0  0  0  0  # atno 17394 bound_to 11000
  140.5910  134.5650  157.5499 LP  0  0  0  0  0  0  0  0  0  0  0  0  # atno 17395 bound_to 11000

$$$$
