AV-unprocessed.smi:2124|AV-procd|sdf|8658|dock7
  -GOLD-   2272011403D 1   1.00000     0.00000
 Structure written by MMmdl.
 47 49  0  0  0  0  0  0  0  0  1 V2000
  150.9876  142.6670  156.8009 C   0  0  0  0  0  0  0  0  0  0  0  0
  150.2997  141.7267  155.8353 C   0  0  0  0  0  0  0  0  0  0  0  0
  149.1218  142.2324  155.3110 N   0  0  0  0  0  0  0  0  0  0  0  0
  148.4338  141.4546  154.3967 C   0  0  0  0  0  0  0  0  0  0  0  0
  147.1666  142.0930  153.8550 C   0  0  0  0  0  0  0  0  0  0  0  0
  148.8876  140.2273  154.0358 C   0  0  0  0  0  0  0  0  0  0  0  0
  148.1641  139.3439  153.0215 C   0  0  0  0  0  0  0  0  0  0  0  0
  146.8586  138.7144  153.5107 C   0  0  0  0  0  0  0  0  0  0  0  0
  146.0384  139.3970  154.1238 O   0  0  0  0  0  0  0  0  0  0  0  0
  146.6798  137.4140  153.2301 N   0  0  0  0  0  0  0  0  0  0  0  0
  145.5107  136.6157  153.5919 C   0  0  2  0  0  0  0  0  0  0  0  0
  145.9617  135.3809  154.3895 C   0  0  0  0  0  0  0  0  0  0  0  0
  144.7330  136.2398  152.3086 C   0  0  2  0  0  0  0  0  0  0  0  0
  143.6523  135.1513  152.5030 C   0  0  0  0  0  0  0  0  0  0  0  0
  143.9491  134.1590  151.3636 C   0  0  2  0  0  0  0  0  0  0  0  0
  145.2168  133.3585  151.7132 C   0  0  0  0  0  0  0  0  0  0  0  0
  146.3355  134.3987  151.5223 C   0  0  0  0  0  0  0  0  0  0  0  0
  145.5573  135.6709  151.1262 C   0  0  1  0  0  0  0  0  0  0  0  0
  144.4526  135.0785  150.2567 C   0  0  0  0  0  0  0  0  0  0  0  0
  150.1407  139.7291  154.6511 C   0  0  0  0  0  0  0  0  0  0  0  0
  150.5901  138.6145  154.3870 O   0  0  0  0  0  0  0  0  0  0  0  0
  150.8115  140.5663  155.5572 N   0  0  0  0  0  0  0  0  0  0  0  0
  148.7498  143.1401  155.5507 H   0  0  0  0  0  0  0  0  0  0  0  0
  151.9167  142.2334  157.1733 H   0  0  0  0  0  0  0  0  0  0  0  0
  150.3417  142.8751  157.6544 H   0  0  0  0  0  0  0  0  0  0  0  0
  151.2262  143.6097  156.3076 H   0  0  0  0  0  0  0  0  0  0  0  0
  147.2319  142.2171  152.7741 H   0  0  0  0  0  0  0  0  0  0  0  0
  146.9918  143.0758  154.2943 H   0  0  0  0  0  0  0  0  0  0  0  0
  146.3016  141.4702  154.0801 H   0  0  0  0  0  0  0  0  0  0  0  0
  148.8167  138.5427  152.6734 H   0  0  0  0  0  0  0  0  0  0  0  0
  147.9641  139.9388  152.1296 H   0  0  0  0  0  0  0  0  0  0  0  0
  147.4109  136.9385  152.7212 H   0  0  0  0  0  0  0  0  0  0  0  0
  144.8654  137.2223  154.2281 H   0  0  0  0  0  0  0  0  0  0  0  0
  145.1081  134.7925  154.7259 H   0  0  0  0  0  0  0  0  0  0  0  0
  146.5240  135.6696  155.2782 H   0  0  0  0  0  0  0  0  0  0  0  0
  146.5991  134.7313  153.7888 H   0  0  0  0  0  0  0  0  0  0  0  0
  144.2356  137.1431  151.9495 H   0  0  0  0  0  0  0  0  0  0  0  0
  143.7059  134.6662  153.4785 H   0  0  0  0  0  0  0  0  0  0  0  0
  142.6548  135.5807  152.4015 H   0  0  0  0  0  0  0  0  0  0  0  0
  143.0977  133.5333  151.0949 H   0  0  0  0  0  0  0  0  0  0  0  0
  145.1886  132.9592  152.7277 H   0  0  0  0  0  0  0  0  0  0  0  0
  145.3511  132.5209  151.0277 H   0  0  0  0  0  0  0  0  0  0  0  0
  146.9542  134.5242  152.4098 H   0  0  0  0  0  0  0  0  0  0  0  0
  146.9976  134.0928  150.7111 H   0  0  0  0  0  0  0  0  0  0  0  0
  146.1712  136.4180  150.6224 H   0  0  0  0  0  0  0  0  0  0  0  0
  144.8279  134.5403  149.3842 H   0  0  0  0  0  0  0  0  0  0  0  0
  143.7122  135.8121  149.9324 H   0  0  0  0  0  0  0  0  0  0  0  0
  1 24  1  0  0  0  0
  1 25  1  0  0  0  0
  1 26  1  0  0  0  0
  1  2  1  0  0  0  0
  2  3  1  0  0  0  0
  2 22  2  0  0  0  0
  3  4  1  0  0  0  0
  3 23  1  0  0  0  0
  4  6  2  0  0  0  0
  4  5  1  0  0  0  0
  5 27  1  0  0  0  0
  5 28  1  0  0  0  0
  5 29  1  0  0  0  0
  6 20  1  0  0  0  0
  6  7  1  0  0  0  0
  7  8  1  0  0  0  0
  7 30  1  0  0  0  0
  7 31  1  0  0  0  0
  8  9  2  0  0  0  0
  8 10  1  0  0  0  0
 10 11  1  0  0  0  0
 10 32  1  0  0  0  0
 11 12  1  0  0  0  0
 11 13  1  0  0  0  0
 11 33  1  0  0  0  0
 12 34  1  0  0  0  0
 12 35  1  0  0  0  0
 12 36  1  0  0  0  0
 13 18  1  0  0  0  0
 13 14  1  0  0  0  0
 13 37  1  0  0  0  0
 14 15  1  0  0  0  0
 14 38  1  0  0  0  0
 14 39  1  0  0  0  0
 15 19  1  0  0  0  0
 15 16  1  0  0  0  0
 15 40  1  0  0  0  0
 16 17  1  0  0  0  0
 16 41  1  0  0  0  0
 16 42  1  0  0  0  0
 17 18  1  0  0  0  0
 17 43  1  0  0  0  0
 17 44  1  0  0  0  0
 18 19  1  0  0  0  0
 18 45  1  0  0  0  0
 19 46  1  0  0  0  0
 19 47  1  0  0  0  0
 20 21  2  0  0  0  0
 20 22  1  0  0  0  0
M  END
> <s_m_source_file>
AV-unprocessed.smi

> <i_m_source_file_index>
2124

> <i_lp_mmshare_version>
43012

> <i_f3d_flags>
0

> <s_epik_input>
W0NIM11jMW5jKFtDSDNdKWMoYyg9TylbbkhdMSlbQ0gyXUMoPU8pW05IXVtDQEhdKFtDSDNdKVtDQEhdKFtDSDJdW0NASF0yMylbQ0BIXShbQ0gyXTMpW0NIMl1bQ0gyXTI=

> <s_epik_cmdline>
J2VwaWtfcHl0aG9uJywgJy1waCcsICc3LjAnLCAnLXRuJywgJzgnLCAnLW1hJywgJzIwMCcsICctbWV0YWxfYmluZGluZycsICctaW1hZScsICc8aW5maWxlLm1hZT4nLCAnLW9tYWUnLCAnPG91dGZpbGUubWFlPic=

> <r_lp_tautomer_probability>
0.156392

> <r_epik_Ionization_Penalty>
0.0139374

> <r_epik_Ionization_Penalty_Charging>
0.0138122

> <r_epik_Ionization_Penalty_Neutral>
0.000125146

> <r_epik_State_Penalty>
1.15342

> <r_epik_Charging_Adjusted_Penalty>
1.16723

> <i_epik_Tot_Q>
0

> <i_epik_Tot_abs_Q>
0

> <r_epik_Metal_State_Penalty>
1.3173

> <b_epik_Metal_Only>
0

> <s_lp_Force_Field>
OPLS_2005

> <r_lp_Energy>
55.868

> <b_lp_Chiralities_Consistent>
1

> <s_lp_Variant>
AV-unprocessed.smi:2124-9

> <Gold.Version>
5.8.1

> <Gold.Id.Protein>
6NUR|6NUR_protein|mol2

> <Gold.PLP.Fitness>
40.8681

> <Gold.PLP.PLP>
-35.9430

> <Gold.PLP.part.hbond>
-2.6222

> <Gold.PLP.part.metal>
0.0000

> <Gold.PLP.part.buried>
-1.6527

> <Gold.PLP.part.nonpolar>
-33.2891

> <Gold.PLP.part.repulsive>
0.5149

> <Gold.PLP.ligand.clash>
0.0000

> <Gold.PLP.ligand.torsion>
0.5362

> <Gold.PLP.Chemscore.Hbond>
1.9920

> <Gold.PLP.Chemscore.CHOScore>
0.0000

> <Gold.PLP.Chemscore.Metal>
0.0000

> <Gold.Chemscore.Hbonds>
donor molecule, donor type, donor heavy atom, donor atom, acceptor molecule, acceptor atom, score
      L1  H     3    23       P1  8028  1.00
      L1  H    10    32       P1  7948  1.00

> <Gold.PLP.Chemscore.Internal.Correction>
0.0216

> <Gold.Rescore>
     Score         DG    S(hbond)    S(metal)    S(lipo)     H(rot)  DE(clash)    DE(int)     intcor
     14.59     -16.97       1.97        0.00      78.13       1.65       1.60       0.78       ----

> <Gold.Chemscore.Fitness>
14.5934

> <Gold.Chemscore.DG>
-16.9702

> <Gold.Chemscore.ZeroCoef>
-5.4800

> <Gold.Chemscore.Hbond>
1.9707

> <Gold.Chemscore.Metal>
0.0000

> <Gold.Chemscore.Lipo>
78.1261

> <Gold.Chemscore.Internal_Hbond>
0.0000

> <Gold.Chemscore.DEClash>
1.5993

> <Gold.Chemscore.DEInternal>
0.7776

> <Gold.Chemscore.Rot>
1.6534

> <Gold.Chemscore.Internal.Correction>
   9.000000E+99

> <Gold.Chemscore.Hbonds>
donor molecule, donor type, donor heavy atom, donor atom, acceptor molecule, acceptor atom, score
      L1  H     3    23       P1  8028  0.94
      L1  H    10    32       P1  7948  1.00

> <Gold.Chemscore.Hbond.Weighted>
-6.5820

> <Gold.Chemscore.Metal.Weighted>
-0.0000

> <Gold.Chemscore.Lipo.Weighted>
-9.1407

> <Gold.Chemscore.Internal_Hbond.Weighted>
0.0000

> <Gold.Chemscore.DEClash.Weighted>
1.5993

> <Gold.Chemscore.DEInternal.Weighted>
0.7776

> <Gold.Chemscore.Rot.Weighted>
4.2326

> <Gold.Chemscore.Internal.Correction.Weighted>
   9.000000E+99

> <Gold.Protein.RotatedTorsions>
[ 6907 6896 6895 6894 ] final -154.93 input  -60.11 | X-H torsion
[ 7974 7965 7964 7962 ] final  166.15 input  175.53 | X-H torsion
[ 8008 7997 7996 7995 ] final   13.82 input   59.86 | X-H torsion
[ 10167 10162 10161 10158 ] final  176.10 input  -65.29 | X-H torsion
[ 10718 10713 10712 10709 ] final  100.25 input   66.30 | X-H torsion
[ 10763 10752 10751 10750 ] final   92.19 input  -60.55 | X-H torsion
[ 11005 11000 10999 10996 ] final -142.04 input  -57.11 | X-H torsion

> <Gold.Protein.ActiveResidues>
 VAL166  LYS551  ARG553  GLY616  TRP617  ASP618  TYR619  PRO620  LYS621  CYS622 
 ASP623  PHE694  ASN695  SER759  ASP760  ASP761  ALA762  ILE779  LEU786  VAL792 
 PHE793  MET794  SER795  GLU796  ALA797  LYS798  CYS799  TRP800  GLU811  SER814 

> <Gold.Protein.RotatedAtoms>
  151.2649  133.4283  159.2617 H   0  0  0  0  0  0  0  0  0  0  0  0  # atno 6907 bound_to 6896
  151.0497  134.9664  159.8215 H   0  0  0  0  0  0  0  0  0  0  0  0  # atno 6908 bound_to 6896
  152.5380  134.2604  159.8986 H   0  0  0  0  0  0  0  0  0  0  0  0  # atno 6909 bound_to 6896
  144.7474  139.8574  143.6378 H   0  0  0  0  0  0  0  0  0  0  0  0  # atno 7974 bound_to 7965
  154.8398  140.2913  155.5667 H   0  0  0  0  0  0  0  0  0  0  0  0  # atno 8008 bound_to 7997
  156.3011  140.2516  156.3270 H   0  0  0  0  0  0  0  0  0  0  0  0  # atno 8009 bound_to 7997
  154.9138  140.0388  157.1950 H   0  0  0  0  0  0  0  0  0  0  0  0  # atno 8010 bound_to 7997
  139.5202  144.2954  152.0426 H   0  0  0  0  0  0  0  0  0  0  0  0  # atno 10167 bound_to 10162
  157.6858  131.0693  150.5072 H   0  0  0  0  0  0  0  0  0  0  0  0  # atno 10718 bound_to 10713
  153.2164  135.4370  155.0439 H   0  0  0  0  0  0  0  0  0  0  0  0  # atno 10763 bound_to 10752
  154.8227  135.3345  154.6991 H   0  0  0  0  0  0  0  0  0  0  0  0  # atno 10764 bound_to 10752
  153.7426  135.7003  153.5019 H   0  0  0  0  0  0  0  0  0  0  0  0  # atno 10765 bound_to 10752
  140.8265  134.2569  157.4877 H   0  0  0  0  0  0  0  0  0  0  0  0  # atno 11005 bound_to 11000
  146.1373  139.4421  143.0131 LP  0  0  0  0  0  0  0  0  0  0  0  0  # atno 17320 bound_to 7965
  145.7072  141.0117  143.1472 LP  0  0  0  0  0  0  0  0  0  0  0  0  # atno 17321 bound_to 7965
  140.2404  144.4275  150.6262 LP  0  0  0  0  0  0  0  0  0  0  0  0  # atno 17342 bound_to 10162
  140.6295  143.2185  151.6526 LP  0  0  0  0  0  0  0  0  0  0  0  0  # atno 17343 bound_to 10162
  156.5390  130.4203  149.6163 LP  0  0  0  0  0  0  0  0  0  0  0  0  # atno 17370 bound_to 10713
  156.3002  130.7172  151.2042 LP  0  0  0  0  0  0  0  0  0  0  0  0  # atno 17371 bound_to 10713
  139.8706  134.9563  156.4233 LP  0  0  0  0  0  0  0  0  0  0  0  0  # atno 17394 bound_to 11000
  140.9044  133.7756  155.9718 LP  0  0  0  0  0  0  0  0  0  0  0  0  # atno 17395 bound_to 11000

$$$$
