AV-unprocessed.smi:1900|AV-procd|sdf|7710|dock9
  -GOLD-   22720 9453D 1   1.00000     0.00000
 Structure written by MMmdl.
 44 45  0  0  0  0  0  0  0  0  2 V2000
  150.3247  134.9292  155.7708 C   0  0  0  0  0  0  0  0  0  0  0  0
  150.3426  136.1373  154.8276 C   0  0  1  0  0  0  0  0  0  0  0  0
  149.0813  137.0095  154.9754 C   0  0  0  0  0  0  0  0  0  0  0  0
  149.1685  138.2068  154.1054 N   0  3  1  0  0  0  0  0  0  0  0  0
  147.9462  139.0464  154.1777 C   0  0  0  0  0  0  0  0  0  0  0  0
  147.6031  139.7100  152.8328 C   0  0  0  0  0  0  0  0  0  0  0  0
  146.8077  138.7733  151.9085 C   0  0  0  0  0  0  0  0  0  0  0  0
  145.4266  138.6188  152.3520 N   0  0  0  0  0  0  0  0  0  0  0  0
  144.8659  137.4619  152.7320 C   0  0  0  0  0  0  0  0  0  0  0  0
  145.4625  136.3848  152.7302 O   0  0  0  0  0  0  0  0  0  0  0  0
  143.5883  137.6376  153.1078 N   0  0  0  0  0  0  0  0  0  0  0  0
  142.6828  136.6485  153.5685 C   0  0  0  0  0  0  0  0  0  0  0  0
  141.2733  136.6967  153.3919 C   0  0  0  0  0  0  0  0  0  0  0  0
  140.6825  135.6364  153.9240 N   0  0  0  0  0  0  0  0  0  0  0  0
  141.7015  134.9113  154.4376 N   0  0  0  0  0  0  0  0  0  0  0  0
  142.9372  135.4885  154.2450 C   0  0  0  0  0  0  0  0  0  0  0  0
  150.4197  138.9548  154.3829 C   0  0  0  0  0  0  0  0  0  0  0  0
  151.6443  138.0294  154.2526 C   0  0  1  0  0  0  0  0  0  0  0  0
  152.9507  138.7462  154.6117 C   0  0  0  0  0  0  0  0  0  0  0  0
  151.4884  136.9235  155.1347 O   0  0  0  0  0  0  0  0  0  0  0  0
  141.5396  134.0343  154.9119 H   0  0  0  0  0  0  0  0  0  0  0  0
  149.4705  134.2835  155.5660 H   0  0  0  0  0  0  0  0  0  0  0  0
  150.2654  135.2421  156.8137 H   0  0  0  0  0  0  0  0  0  0  0  0
  151.2285  134.3304  155.6545 H   0  0  0  0  0  0  0  0  0  0  0  0
  150.4208  135.7742  153.8012 H   0  0  0  0  0  0  0  0  0  0  0  0
  148.1992  136.4254  154.7092 H   0  0  0  0  0  0  0  0  0  0  0  0
  148.9576  137.3229  156.0134 H   0  0  0  0  0  0  0  0  0  0  0  0
  147.1038  138.4162  154.4668 H   0  0  0  0  0  0  0  0  0  0  0  0
  148.0550  139.7955  154.9636 H   0  0  0  0  0  0  0  0  0  0  0  0
  147.0228  140.6185  152.9935 H   0  0  0  0  0  0  0  0  0  0  0  0
  148.5265  140.0151  152.3388 H   0  0  0  0  0  0  0  0  0  0  0  0
  146.8290  139.1388  150.8804 H   0  0  0  0  0  0  0  0  0  0  0  0
  147.2694  137.7857  151.8959 H   0  0  0  0  0  0  0  0  0  0  0  0
  144.8615  139.4550  152.3852 H   0  0  0  0  0  0  0  0  0  0  0  0
  143.2265  138.5792  153.0686 H   0  0  0  0  0  0  0  0  0  0  0  0
  140.6715  137.4504  152.9061 H   0  0  0  0  0  0  0  0  0  0  0  0
  143.8500  135.0309  154.5961 H   0  0  0  0  0  0  0  0  0  0  0  0
  150.5254  139.7872  153.6882 H   0  0  0  0  0  0  0  0  0  0  0  0
  150.3742  139.3801  155.3869 H   0  0  0  0  0  0  0  0  0  0  0  0
  151.7211  137.6631  153.2273 H   0  0  0  0  0  0  0  0  0  0  0  0
  153.1225  139.6008  153.9568 H   0  0  0  0  0  0  0  0  0  0  0  0
  153.8040  138.0749  154.5115 H   0  0  0  0  0  0  0  0  0  0  0  0
  152.9328  139.1103  155.6393 H   0  0  0  0  0  0  0  0  0  0  0  0
  149.2302  137.8642  153.1571 H   0  0  0  0  0  0  0  0  0  0  0  0
  1  2  1  0  0  0  0
  1 22  1  0  0  0  0
  1 23  1  0  0  0  0
  1 24  1  0  0  0  0
  2 20  1  0  0  0  0
  2  3  1  0  0  0  0
  2 25  1  0  0  0  0
  3  4  1  0  0  0  0
  3 26  1  0  0  0  0
  3 27  1  0  0  0  0
  4  5  1  0  0  0  0
  4 17  1  0  0  0  0
  4 44  1  0  0  0  0
  5  6  1  0  0  0  0
  5 28  1  0  0  0  0
  5 29  1  0  0  0  0
  6  7  1  0  0  0  0
  6 30  1  0  0  0  0
  6 31  1  0  0  0  0
  7  8  1  0  0  0  0
  7 32  1  0  0  0  0
  7 33  1  0  0  0  0
  8  9  1  0  0  0  0
  8 34  1  0  0  0  0
  9 10  2  0  0  0  0
  9 11  1  0  0  0  0
 11 12  1  0  0  0  0
 11 35  1  0  0  0  0
 12 16  2  0  0  0  0
 12 13  1  0  0  0  0
 13 14  2  0  0  0  0
 13 36  1  0  0  0  0
 14 15  1  0  0  0  0
 15 21  1  0  0  0  0
 15 16  1  0  0  0  0
 16 37  1  0  0  0  0
 17 18  1  0  0  0  0
 17 38  1  0  0  0  0
 17 39  1  0  0  0  0
 18 19  1  0  0  0  0
 18 20  1  0  0  0  0
 18 40  1  0  0  0  0
 19 41  1  0  0  0  0
 19 42  1  0  0  0  0
 19 43  1  0  0  0  0
M  CHG  1   4   1
M  END
> <s_m_source_file>
AV-unprocessed.smi

> <i_m_source_file_index>
1900

> <i_lp_mmshare_version>
43012

> <i_f3d_flags>
0

> <s_epik_input>
W0NIM11bQ0BASF0xW0NIMl1OKFtDSDJdW0NASF0oTzEpW0NIM10pW0NIMl1bQ0gyXVtDSDJdW05IXUMoPU8pW05IXWMyW2NIXW5bbkhdW2NIXTI=

> <s_epik_cmdline>
J2VwaWtfcHl0aG9uJywgJy1waCcsICc3LjAnLCAnLXRuJywgJzgnLCAnLW1hJywgJzIwMCcsICctbWV0YWxfYmluZGluZycsICctaW1hZScsICc8aW5maWxlLm1hZT4nLCAnLW9tYWUnLCAnPG91dGZpbGUubWFlPic=

> <r_lp_tautomer_probability>
0.5

> <r_epik_Ionization_Penalty>
0.270543

> <r_epik_Ionization_Penalty_Charging>
0.270496

> <r_epik_Ionization_Penalty_Neutral>
4.67091e-05

> <r_epik_State_Penalty>
0.262618

> <r_epik_Charging_Adjusted_Penalty>
0.533114

> <i_epik_Tot_Q>
1

> <i_epik_Tot_abs_Q>
1

> <r_epik_Metal_State_Penalty>
0.262618

> <b_epik_Metal_Only>
0

> <s_lp_Force_Field>
OPLS_2005

> <r_lp_Energy>
18.2287

> <b_lp_Chiralities_Consistent>
1

> <s_lp_Variant>
AV-unprocessed.smi:1900-2

> <Gold.Version>
5.8.1

> <Gold.Id.Protein>
6NUR|6NUR_protein|mol2

> <Gold.PLP.Fitness>
47.8854

> <Gold.PLP.PLP>
-33.6427

> <Gold.PLP.part.hbond>
-7.0079

> <Gold.PLP.part.metal>
0.0000

> <Gold.PLP.part.buried>
-1.1746

> <Gold.PLP.part.nonpolar>
-25.5217

> <Gold.PLP.part.repulsive>
0.4994

> <Gold.PLP.ligand.clash>
0.0000

> <Gold.PLP.ligand.torsion>
0.7658

> <Gold.PLP.Chemscore.Hbond>
5.2442

> <Gold.PLP.Chemscore.CHOScore>
0.0000

> <Gold.PLP.Chemscore.Metal>
0.0000

> <Gold.Chemscore.Hbonds>
donor molecule, donor type, donor heavy atom, donor atom, acceptor molecule, acceptor atom, score
      L1  H     4    44       P1  7948  1.72
      L1  H     8    34       P1 10175  1.00
      L1  H    11    35       P1 10175  0.88
      L1  H    15    21       P1 11000  0.27
      P1  H 10752 10765       L1    20  0.99

> <Gold.PLP.Chemscore.Internal.Correction>
0.0419

> <Gold.Rescore>
     Score         DG    S(hbond)    S(metal)    S(lipo)     H(rot)  DE(clash)    DE(int)     intcor
     19.11     -22.32       3.82        0.00      77.26       1.93       1.76       1.45       ----

> <Gold.Chemscore.Fitness>
19.1079

> <Gold.Chemscore.DG>
-22.3201

> <Gold.Chemscore.ZeroCoef>
-5.4800

> <Gold.Chemscore.Hbond>
3.8184

> <Gold.Chemscore.Metal>
0.0000

> <Gold.Chemscore.Lipo>
77.2607

> <Gold.Chemscore.Internal_Hbond>
0.0000

> <Gold.Chemscore.DEClash>
1.7639

> <Gold.Chemscore.DEInternal>
1.4483

> <Gold.Chemscore.Rot>
1.9347

> <Gold.Chemscore.Internal.Correction>
   9.000000E+99

> <Gold.Chemscore.Hbonds>
donor molecule, donor type, donor heavy atom, donor atom, acceptor molecule, acceptor atom, score
      L1  H     4    44       P1  7948  0.79
      L1  H     8    34       P1 10175  0.95
      L1  H    11    35       P1 10175  0.84
      L1  H    15    21       P1 11000  0.27
      P1  H 10752 10765       L1    20  0.13

> <Gold.Chemscore.Hbond.Weighted>
-12.7534

> <Gold.Chemscore.Metal.Weighted>
-0.0000

> <Gold.Chemscore.Lipo.Weighted>
-9.0395

> <Gold.Chemscore.Internal_Hbond.Weighted>
0.0000

> <Gold.Chemscore.DEClash.Weighted>
1.7639

> <Gold.Chemscore.DEInternal.Weighted>
1.4483

> <Gold.Chemscore.Rot.Weighted>
4.9528

> <Gold.Chemscore.Internal.Correction.Weighted>
   9.000000E+99

> <Gold.Protein.RotatedTorsions>
[ 6907 6896 6895 6894 ] final  -42.03 input  -60.11 | X-H torsion
[ 7974 7965 7964 7962 ] final  104.43 input  175.53 | X-H torsion
[ 8008 7997 7996 7995 ] final   66.01 input   59.86 | X-H torsion
[ 10167 10162 10161 10158 ] final -169.76 input  -65.29 | X-H torsion
[ 10718 10713 10712 10709 ] final -122.76 input   66.30 | X-H torsion
[ 10763 10752 10751 10750 ] final -176.80 input  -60.55 | X-H torsion
[ 11005 11000 10999 10996 ] final -158.74 input  -57.11 | X-H torsion

> <Gold.Protein.ActiveResidues>
 VAL166  LYS551  ARG553  GLY616  TRP617  ASP618  TYR619  PRO620  LYS621  CYS622 
 ASP623  PHE694  ASN695  SER759  ASP760  ASP761  ALA762  ILE779  LEU786  VAL792 
 PHE793  MET794  SER795  GLU796  ALA797  LYS798  CYS799  TRP800  GLU811  SER814 

> <Gold.Protein.RotatedAtoms>
  150.9599  134.8988  159.7723 H   0  0  0  0  0  0  0  0  0  0  0  0  # atno 6907 bound_to 6896
  152.5152  134.3687  159.9320 H   0  0  0  0  0  0  0  0  0  0  0  0  # atno 6908 bound_to 6896
  151.3700  133.3818  159.2733 H   0  0  0  0  0  0  0  0  0  0  0  0  # atno 6909 bound_to 6896
  145.3329  139.2482  143.3651 H   0  0  0  0  0  0  0  0  0  0  0  0  # atno 7974 bound_to 7965
  155.6706  140.3497  155.4817 H   0  0  0  0  0  0  0  0  0  0  0  0  # atno 8008 bound_to 7997
  155.9691  140.1152  157.0851 H   0  0  0  0  0  0  0  0  0  0  0  0  # atno 8009 bound_to 7997
  154.4162  140.1160  156.5268 H   0  0  0  0  0  0  0  0  0  0  0  0  # atno 8010 bound_to 7997
  139.5903  144.1229  152.1625 H   0  0  0  0  0  0  0  0  0  0  0  0  # atno 10167 bound_to 10162
  156.1446  130.6490  150.9822 H   0  0  0  0  0  0  0  0  0  0  0  0  # atno 10718 bound_to 10713
  154.5680  135.2825  155.0855 H   0  0  0  0  0  0  0  0  0  0  0  0  # atno 10763 bound_to 10752
  154.2239  135.6386  153.5157 H   0  0  0  0  0  0  0  0  0  0  0  0  # atno 10764 bound_to 10752
  153.0049  135.5521  154.6294 H   0  0  0  0  0  0  0  0  0  0  0  0  # atno 10765 bound_to 10752
  140.6503  134.4457  157.5235 H   0  0  0  0  0  0  0  0  0  0  0  0  # atno 11005 bound_to 11000
  146.3038  140.3910  142.8694 LP  0  0  0  0  0  0  0  0  0  0  0  0  # atno 17320 bound_to 7965
  144.8850  140.7450  143.5962 LP  0  0  0  0  0  0  0  0  0  0  0  0  # atno 17321 bound_to 7965
  140.0801  144.5707  150.7128 LP  0  0  0  0  0  0  0  0  0  0  0  0  # atno 17342 bound_to 10162
  140.7167  143.2551  151.4412 LP  0  0  0  0  0  0  0  0  0  0  0  0  # atno 17343 bound_to 10162
  157.6605  131.0881  150.7849 LP  0  0  0  0  0  0  0  0  0  0  0  0  # atno 17370 bound_to 10713
  156.7922  130.4893  149.5383 LP  0  0  0  0  0  0  0  0  0  0  0  0  # atno 17371 bound_to 10713
  139.9048  134.8474  156.1749 LP  0  0  0  0  0  0  0  0  0  0  0  0  # atno 17394 bound_to 11000
  141.0541  133.6874  156.1828 LP  0  0  0  0  0  0  0  0  0  0  0  0  # atno 17395 bound_to 11000

$$$$
