AV-unprocessed.smi:1813|AV-procd|sdf|7340|dock1
  -GOLD-   22720 9 03D 1   1.00000     0.00000
 Structure written by MMmdl.
 39 40  0  0  0  0  0  0  0  0  1 V2000
  142.8397  136.5715  152.8096 C   0  0  0  0  0  0  0  0  0  0  0  0
  143.9757  137.3614  152.3610 N   0  0  0  0  0  0  0  0  0  0  0  0
  145.1992  137.3010  152.9062 C   0  0  0  0  0  0  0  0  0  0  0  0
  145.4846  136.5605  153.8472 O   0  0  0  0  0  0  0  0  0  0  0  0
  146.2713  138.2097  152.2930 C   0  0  0  0  0  0  0  0  0  0  0  0
  146.8965  139.1517  153.2491 N   0  0  0  0  0  0  0  0  0  0  0  0
  147.2144  140.4033  152.5533 C   0  0  0  0  0  0  0  0  0  0  0  0
  147.7496  141.4548  153.5403 C   0  0  0  0  0  0  0  0  0  0  0  0
  148.9991  140.9401  154.2724 C   0  0  0  0  0  0  0  0  0  0  0  0
  149.4299  141.8865  155.2968 N   0  0  0  0  0  0  0  0  0  0  0  0
  150.3722  141.6481  156.2208 C   0  0  0  0  0  0  0  0  0  0  0  0
  150.9844  140.5830  156.3073 O   0  0  0  0  0  0  0  0  0  0  0  0
  150.5498  142.7142  157.0204 N   0  0  0  0  0  0  0  0  0  0  0  0
  151.4520  142.8556  158.1074 C   0  0  0  0  0  0  0  0  0  0  0  0
  152.0416  141.8328  158.7375 N   0  0  0  0  0  0  0  0  0  0  0  0
  152.8791  142.2648  159.7691 C   0  0  0  0  0  0  0  0  0  0  0  0
  152.9160  143.6296  159.9110 C   0  0  0  0  0  0  0  0  0  0  0  0
  151.8949  144.4315  158.7474 S   0  0  0  0  0  0  0  0  0  0  0  0
  148.6749  139.5839  154.9144 C   0  0  0  0  0  0  0  0  0  0  0  0
  148.1044  138.5983  153.8793 C   0  0  0  0  0  0  0  0  0  0  0  0
  141.9778  136.7634  152.1704 H   0  0  0  0  0  0  0  0  0  0  0  0
  142.5696  136.8309  153.8340 H   0  0  0  0  0  0  0  0  0  0  0  0
  143.0646  135.5049  152.7676 H   0  0  0  0  0  0  0  0  0  0  0  0
  143.8242  137.9935  151.5884 H   0  0  0  0  0  0  0  0  0  0  0  0
  147.0434  137.6017  151.8174 H   0  0  0  0  0  0  0  0  0  0  0  0
  145.7884  138.7736  151.4936 H   0  0  0  0  0  0  0  0  0  0  0  0
  147.9440  140.2242  151.7613 H   0  0  0  0  0  0  0  0  0  0  0  0
  146.3173  140.7978  152.0743 H   0  0  0  0  0  0  0  0  0  0  0  0
  147.9803  142.3759  153.0041 H   0  0  0  0  0  0  0  0  0  0  0  0
  146.9701  141.7044  154.2620 H   0  0  0  0  0  0  0  0  0  0  0  0
  149.8050  140.7954  153.5503 H   0  0  0  0  0  0  0  0  0  0  0  0
  148.9801  142.7902  155.2972 H   0  0  0  0  0  0  0  0  0  0  0  0
  149.9715  143.5190  156.8299 H   0  0  0  0  0  0  0  0  0  0  0  0
  153.4132  141.5303  160.3537 H   0  0  0  0  0  0  0  0  0  0  0  0
  153.4800  144.2092  160.6265 H   0  0  0  0  0  0  0  0  0  0  0  0
  149.5724  139.1618  155.3680 H   0  0  0  0  0  0  0  0  0  0  0  0
  147.9528  139.7157  155.7220 H   0  0  0  0  0  0  0  0  0  0  0  0
  147.8825  137.6633  154.3934 H   0  0  0  0  0  0  0  0  0  0  0  0
  148.8543  138.3706  153.1195 H   0  0  0  0  0  0  0  0  0  0  0  0
  1  2  1  0  0  0  0
  1 21  1  0  0  0  0
  1 22  1  0  0  0  0
  1 23  1  0  0  0  0
  2  3  1  0  0  0  0
  2 24  1  0  0  0  0
  3  4  2  0  0  0  0
  3  5  1  0  0  0  0
  5  6  1  0  0  0  0
  5 25  1  0  0  0  0
  5 26  1  0  0  0  0
  6 20  1  0  0  0  0
  6  7  1  0  0  0  0
  7  8  1  0  0  0  0
  7 27  1  0  0  0  0
  7 28  1  0  0  0  0
  8  9  1  0  0  0  0
  8 29  1  0  0  0  0
  8 30  1  0  0  0  0
  9 10  1  0  0  0  0
  9 19  1  0  0  0  0
  9 31  1  0  0  0  0
 10 11  1  0  0  0  0
 10 32  1  0  0  0  0
 11 12  2  0  0  0  0
 11 13  1  0  0  0  0
 13 14  1  0  0  0  0
 13 33  1  0  0  0  0
 14 18  1  0  0  0  0
 14 15  2  0  0  0  0
 15 16  1  0  0  0  0
 16 17  2  0  0  0  0
 16 34  1  0  0  0  0
 17 18  1  0  0  0  0
 17 35  1  0  0  0  0
 19 20  1  0  0  0  0
 19 36  1  0  0  0  0
 19 37  1  0  0  0  0
 20 38  1  0  0  0  0
 20 39  1  0  0  0  0
M  END
> <s_m_source_file>
AV-unprocessed.smi

> <i_m_source_file_index>
1813

> <i_lp_mmshare_version>
43012

> <i_f3d_flags>
0

> <s_epik_input>
W0NIM11bTkhdQyg9TylbQ0gyXU4xW0NIMl1bQ0gyXVtDSF0oW0NIMl1bQ0gyXTEpW05IXUMoPU8pW05IXWMybltjSF1bY0hdczI=

> <s_epik_cmdline>
J2VwaWtfcHl0aG9uJywgJy1waCcsICc3LjAnLCAnLXRuJywgJzgnLCAnLW1hJywgJzIwMCcsICctbWV0YWxfYmluZGluZycsICctaW1hZScsICc8aW5maWxlLm1hZT4nLCAnLW9tYWUnLCAnPG91dGZpbGUubWFlPic=

> <r_lp_tautomer_probability>
0.999

> <r_epik_Ionization_Penalty>
0.157547

> <r_epik_Ionization_Penalty_Charging>
0

> <r_epik_Ionization_Penalty_Neutral>
0.157547

> <r_epik_State_Penalty>
0.146692

> <r_epik_Charging_Adjusted_Penalty>
0.146692

> <i_epik_Tot_Q>
0

> <i_epik_Tot_abs_Q>
0

> <r_epik_Metal_State_Penalty>
0.184536

> <b_epik_Metal_Only>
0

> <s_lp_Force_Field>
OPLS_2005

> <r_lp_Energy>
12.1503

> <b_lp_Chiralities_Consistent>
1

> <s_lp_Variant>
AV-unprocessed.smi:1813-1

> <Gold.Version>
5.8.1

> <Gold.Id.Protein>
6NUR|6NUR_protein|mol2

> <Gold.PLP.Fitness>
45.7300

> <Gold.PLP.PLP>
-37.9181

> <Gold.PLP.part.hbond>
-4.0000

> <Gold.PLP.part.metal>
0.0000

> <Gold.PLP.part.buried>
-4.5666

> <Gold.PLP.part.nonpolar>
-30.3476

> <Gold.PLP.part.repulsive>
0.5863

> <Gold.PLP.ligand.clash>
0.0000

> <Gold.PLP.ligand.torsion>
0.5989

> <Gold.PLP.Chemscore.Hbond>
2.9920

> <Gold.PLP.Chemscore.CHOScore>
0.0000

> <Gold.PLP.Chemscore.Metal>
0.0000

> <Gold.Chemscore.Hbonds>
donor molecule, donor type, donor heavy atom, donor atom, acceptor molecule, acceptor atom, score
      L1  H     2    24       P1 10171  1.00
      L1  H    10    32       P1  8028  1.00
      L1  H    13    33       P1  8028  1.00

> <Gold.PLP.Chemscore.Internal.Correction>
0.0337

> <Gold.Rescore>
     Score         DG    S(hbond)    S(metal)    S(lipo)     H(rot)  DE(clash)    DE(int)     intcor
     16.34     -20.53       2.85        0.00      85.87       1.76       1.11       3.08       ----

> <Gold.Chemscore.Fitness>
16.3370

> <Gold.Chemscore.DG>
-20.5333

> <Gold.Chemscore.ZeroCoef>
-5.4800

> <Gold.Chemscore.Hbond>
2.8487

> <Gold.Chemscore.Metal>
0.0000

> <Gold.Chemscore.Lipo>
85.8715

> <Gold.Chemscore.Internal_Hbond>
0.0000

> <Gold.Chemscore.DEClash>
1.1133

> <Gold.Chemscore.DEInternal>
3.0831

> <Gold.Chemscore.Rot>
1.7610

> <Gold.Chemscore.Internal.Correction>
   9.000000E+99

> <Gold.Chemscore.Hbonds>
donor molecule, donor type, donor heavy atom, donor atom, acceptor molecule, acceptor atom, score
      L1  H     2    24       P1 10171  0.98
      L1  H    10    32       P1  8028  0.97
      L1  H    13    33       P1  8028  0.95

> <Gold.Chemscore.Hbond.Weighted>
-9.5146

> <Gold.Chemscore.Metal.Weighted>
-0.0000

> <Gold.Chemscore.Lipo.Weighted>
-10.0470

> <Gold.Chemscore.Internal_Hbond.Weighted>
0.0000

> <Gold.Chemscore.DEClash.Weighted>
1.1133

> <Gold.Chemscore.DEInternal.Weighted>
3.0831

> <Gold.Chemscore.Rot.Weighted>
4.5082

> <Gold.Chemscore.Internal.Correction.Weighted>
   9.000000E+99

> <Gold.Protein.RotatedTorsions>
[ 6907 6896 6895 6894 ] final   81.44 input  -60.11 | X-H torsion
[ 7974 7965 7964 7962 ] final   85.79 input  175.53 | X-H torsion
[ 8008 7997 7996 7995 ] final    2.56 input   59.86 | X-H torsion
[ 10167 10162 10161 10158 ] final  -18.05 input  -65.29 | X-H torsion
[ 10718 10713 10712 10709 ] final -149.91 input   66.30 | X-H torsion
[ 10763 10752 10751 10750 ] final  154.34 input  -60.55 | X-H torsion
[ 11005 11000 10999 10996 ] final -126.23 input  -57.11 | X-H torsion

> <Gold.Protein.ActiveResidues>
 VAL166  LYS551  ARG553  GLY616  TRP617  ASP618  TYR619  PRO620  LYS621  CYS622 
 ASP623  PHE694  ASN695  SER759  ASP760  ASP761  ALA762  ILE779  LEU786  VAL792 
 PHE793  MET794  SER795  GLU796  ALA797  LYS798  CYS799  TRP800  GLU811  SER814 

> <Gold.Protein.RotatedAtoms>
  152.5268  134.3203  159.9145 H   0  0  0  0  0  0  0  0  0  0  0  0  # atno 6907 bound_to 6896
  151.3153  133.4057  159.2658 H   0  0  0  0  0  0  0  0  0  0  0  0  # atno 6908 bound_to 6896
  151.0004  134.9335  159.8008 H   0  0  0  0  0  0  0  0  0  0  0  0  # atno 6909 bound_to 6896
  145.5808  139.2325  143.2354 H   0  0  0  0  0  0  0  0  0  0  0  0  # atno 7974 bound_to 7965
  154.6931  140.2657  155.6793 H   0  0  0  0  0  0  0  0  0  0  0  0  # atno 8008 bound_to 7997
  156.2739  140.2787  156.1439 H   0  0  0  0  0  0  0  0  0  0  0  0  # atno 8009 bound_to 7997
  155.0869  140.0373  157.2646 H   0  0  0  0  0  0  0  0  0  0  0  0  # atno 8010 bound_to 7997
  140.7254  143.4954  150.9937 H   0  0  0  0  0  0  0  0  0  0  0  0  # atno 10167 bound_to 10162
  156.4392  130.8113  151.2343 H   0  0  0  0  0  0  0  0  0  0  0  0  # atno 10718 bound_to 10713
  154.1507  135.2815  155.3136 H   0  0  0  0  0  0  0  0  0  0  0  0  # atno 10763 bound_to 10752
  154.6219  135.5464  153.7588 H   0  0  0  0  0  0  0  0  0  0  0  0  # atno 10764 bound_to 10752
  153.0222  135.6441  154.1652 H   0  0  0  0  0  0  0  0  0  0  0  0  # atno 10765 bound_to 10752
  140.9698  134.0821  157.3881 H   0  0  0  0  0  0  0  0  0  0  0  0  # atno 11005 bound_to 11000
  146.1717  140.6634  142.9230 LP  0  0  0  0  0  0  0  0  0  0  0  0  # atno 17320 bound_to 7965
  144.7395  140.4902  143.6880 LP  0  0  0  0  0  0  0  0  0  0  0  0  # atno 17321 bound_to 7965
  139.8661  143.7252  152.3170 LP  0  0  0  0  0  0  0  0  0  0  0  0  # atno 17342 bound_to 10162
  139.7484  144.7541  151.0544 LP  0  0  0  0  0  0  0  0  0  0  0  0  # atno 17343 bound_to 10162
  157.7506  131.0173  150.3582 LP  0  0  0  0  0  0  0  0  0  0  0  0  # atno 17370 bound_to 10713
  156.3935  130.3902  149.7012 LP  0  0  0  0  0  0  0  0  0  0  0  0  # atno 17371 bound_to 10713
  139.8908  135.0114  156.6755 LP  0  0  0  0  0  0  0  0  0  0  0  0  # atno 17394 bound_to 11000
  140.7346  133.9030  155.8235 LP  0  0  0  0  0  0  0  0  0  0  0  0  # atno 17395 bound_to 11000

$$$$
