AV-unprocessed.smi:2055|AV-procd|sdf|8336|dock2
  -GOLD-   2272011 03D 1   1.00000     0.00000
 Structure written by MMmdl.
 44 45  0  0  0  0  0  0  0  0  2 V2000
  150.5023  133.1622  155.4536 C   0  0  0  0  0  0  0  0  0  0  0  0
  149.2112  133.9129  155.0933 C   0  0  2  0  0  0  0  0  0  0  0  0
  148.3195  133.1093  154.1260 C   0  0  0  0  0  0  0  0  0  0  0  0
  147.3668  133.9562  153.5197 O   0  0  0  0  0  0  0  0  0  0  0  0
  149.5591  135.2079  154.5149 N   0  0  0  0  0  0  0  0  0  0  0  0
  150.5275  136.0206  154.9606 C   0  0  0  0  0  0  0  0  0  0  0  0
  151.2339  135.7840  155.9404 O   0  0  0  0  0  0  0  0  0  0  0  0
  150.6438  137.1199  154.2024 N   0  0  0  0  0  0  0  0  0  0  0  0
  151.5973  138.2003  154.4409 C   0  0  0  0  0  0  0  0  0  0  0  0
  150.9891  139.5154  154.9169 C   0  0  0  0  0  0  0  0  0  0  0  0
  149.9086  140.0721  154.2017 C   0  0  0  0  0  0  0  0  0  0  0  0
  149.3477  141.2865  154.6379 C   0  0  0  0  0  0  0  0  0  0  0  0
  149.8477  141.9036  155.7292 N   0  3  0  0  0  0  0  0  0  0  0  0
  150.8861  141.4257  156.4574 C   0  0  0  0  0  0  0  0  0  0  0  0
  151.3008  142.1654  157.5871 N   0  0  0  0  0  0  0  0  0  0  0  0
  150.3833  143.1588  158.1383 C   0  0  0  0  0  0  0  0  0  0  0  0
  151.1143  144.0753  159.1338 C   0  0  0  0  0  0  0  0  0  0  0  0
  151.7522  143.2873  160.1320 O   0  0  0  0  0  0  0  0  0  0  0  0
  152.7398  142.4284  159.5733 C   0  0  0  0  0  0  0  0  0  0  0  0
  152.0791  141.4441  158.5932 C   0  0  0  0  0  0  0  0  0  0  0  0
  151.4849  140.2067  156.0484 C   0  0  0  0  0  0  0  0  0  0  0  0
  150.2834  132.2091  155.9355 H   0  0  0  0  0  0  0  0  0  0  0  0
  151.1150  133.7431  156.1436 H   0  0  0  0  0  0  0  0  0  0  0  0
  151.1029  132.9555  154.5672 H   0  0  0  0  0  0  0  0  0  0  0  0
  148.6576  134.0932  156.0170 H   0  0  0  0  0  0  0  0  0  0  0  0
  148.9141  132.6627  153.3286 H   0  0  0  0  0  0  0  0  0  0  0  0
  147.8115  132.2945  154.6430 H   0  0  0  0  0  0  0  0  0  0  0  0
  146.5345  133.8281  153.9485 H   0  0  0  0  0  0  0  0  0  0  0  0
  149.0308  135.4964  153.7044 H   0  0  0  0  0  0  0  0  0  0  0  0
  150.0189  137.2265  153.4164 H   0  0  0  0  0  0  0  0  0  0  0  0
  152.3092  137.8625  155.1941 H   0  0  0  0  0  0  0  0  0  0  0  0
  152.1716  138.3743  153.5293 H   0  0  0  0  0  0  0  0  0  0  0  0
  149.5097  139.5731  153.3303 H   0  0  0  0  0  0  0  0  0  0  0  0
  148.5171  141.7781  154.1529 H   0  0  0  0  0  0  0  0  0  0  0  0
  149.9645  143.7734  157.3409 H   0  0  0  0  0  0  0  0  0  0  0  0
  149.5558  142.6494  158.6337 H   0  0  0  0  0  0  0  0  0  0  0  0
  151.8493  144.6984  158.6218 H   0  0  0  0  0  0  0  0  0  0  0  0
  150.4049  144.7504  159.6127 H   0  0  0  0  0  0  0  0  0  0  0  0
  153.5100  143.0178  159.0728 H   0  0  0  0  0  0  0  0  0  0  0  0
  153.2315  141.8823  160.3785 H   0  0  0  0  0  0  0  0  0  0  0  0
  151.4146  140.7685  159.1333 H   0  0  0  0  0  0  0  0  0  0  0  0
  152.8562  140.8313  158.1369 H   0  0  0  0  0  0  0  0  0  0  0  0
  152.3231  139.7954  156.5890 H   0  0  0  0  0  0  0  0  0  0  0  0
  149.4146  142.7786  156.0251 H   0  0  0  0  0  0  0  0  0  0  0  0
  1  2  1  0  0  0  0
  1 22  1  0  0  0  0
  1 23  1  0  0  0  0
  1 24  1  0  0  0  0
  2  3  1  0  0  0  0
  2  5  1  0  0  0  0
  2 25  1  0  0  0  0
  3  4  1  0  0  0  0
  3 26  1  0  0  0  0
  3 27  1  0  0  0  0
  4 28  1  0  0  0  0
  5  6  1  0  0  0  0
  5 29  1  0  0  0  0
  6  7  2  0  0  0  0
  6  8  1  0  0  0  0
  8  9  1  0  0  0  0
  8 30  1  0  0  0  0
  9 10  1  0  0  0  0
  9 31  1  0  0  0  0
  9 32  1  0  0  0  0
 10 21  1  0  0  0  0
 10 11  2  0  0  0  0
 11 12  1  0  0  0  0
 11 33  1  0  0  0  0
 12 13  2  0  0  0  0
 12 34  1  0  0  0  0
 13 14  1  0  0  0  0
 13 44  1  0  0  0  0
 14 15  1  0  0  0  0
 14 21  2  0  0  0  0
 15 20  1  0  0  0  0
 15 16  1  0  0  0  0
 16 17  1  0  0  0  0
 16 35  1  0  0  0  0
 16 36  1  0  0  0  0
 17 18  1  0  0  0  0
 17 37  1  0  0  0  0
 17 38  1  0  0  0  0
 18 19  1  0  0  0  0
 19 20  1  0  0  0  0
 19 39  1  0  0  0  0
 19 40  1  0  0  0  0
 20 41  1  0  0  0  0
 20 42  1  0  0  0  0
 21 43  1  0  0  0  0
M  CHG  1  13   1
M  END
> <s_m_source_file>
AV-unprocessed.smi

> <i_m_source_file_index>
2055

> <i_lp_mmshare_version>
43012

> <i_f3d_flags>
0

> <s_epik_input>
W09IXVtDSDJdW0NAQEhdKFtDSDNdKVtOSF1DKD1PKVtOSF1bQ0gyXWMxW2NIXVtjSF1uYyhbY0hdMSlOMltDSDJdW0NIMl1PW0NIMl1bQ0gyXTI=

> <s_epik_cmdline>
J2VwaWtfcHl0aG9uJywgJy1waCcsICc3LjAnLCAnLXRuJywgJzgnLCAnLW1hJywgJzIwMCcsICctbWV0YWxfYmluZGluZycsICctaW1hZScsICc8aW5maWxlLm1hZT4nLCAnLW9tYWUnLCAnPG91dGZpbGUubWFlPic=

> <r_lp_tautomer_probability>
0.999994

> <r_epik_Ionization_Penalty>
2.3082

> <r_epik_Ionization_Penalty_Charging>
2.30816

> <r_epik_Ionization_Penalty_Neutral>
3.71771e-05

> <r_epik_State_Penalty>
2.45942

> <r_epik_Charging_Adjusted_Penalty>
4.76758

> <i_epik_Tot_Q>
1

> <i_epik_Tot_abs_Q>
1

> <r_epik_Metal_State_Penalty>
2.47143

> <b_epik_Metal_Only>
0

> <s_lp_Force_Field>
OPLS_2005

> <r_lp_Energy>
15.7879

> <b_lp_Chiralities_Consistent>
1

> <s_lp_Variant>
AV-unprocessed.smi:2055-3

> <Gold.Version>
5.8.1

> <Gold.Id.Protein>
6NUR|6NUR_protein|mol2

> <Gold.PLP.Fitness>
52.8531

> <Gold.PLP.PLP>
-40.0645

> <Gold.PLP.part.hbond>
-5.8532

> <Gold.PLP.part.metal>
0.0000

> <Gold.PLP.part.buried>
0.4609

> <Gold.PLP.part.nonpolar>
-34.1304

> <Gold.PLP.part.repulsive>
0.3995

> <Gold.PLP.ligand.clash>
0.0000

> <Gold.PLP.ligand.torsion>
1.0339

> <Gold.PLP.Chemscore.Hbond>
4.7702

> <Gold.PLP.Chemscore.CHOScore>
0.0000

> <Gold.PLP.Chemscore.Metal>
0.0000

> <Gold.Chemscore.Hbonds>
donor molecule, donor type, donor heavy atom, donor atom, acceptor molecule, acceptor atom, score
      L1  H     5    29       P1  7948  0.99
      L1  H     8    30       P1  7948  0.79
      L1  H    13    44       P1  8028  1.92
      P1  H 10752 10763       L1     7  0.76

> <Gold.PLP.Chemscore.Internal.Correction>
0.5456

> <Gold.Rescore>
     Score         DG    S(hbond)    S(metal)    S(lipo)     H(rot)  DE(clash)    DE(int)     intcor
     15.25     -18.16       2.65        0.00      93.30       2.76       0.72       2.18       ----

> <Gold.Chemscore.Fitness>
15.2543

> <Gold.Chemscore.DG>
-18.1626

> <Gold.Chemscore.ZeroCoef>
-5.4800

> <Gold.Chemscore.Hbond>
2.6473

> <Gold.Chemscore.Metal>
0.0000

> <Gold.Chemscore.Lipo>
93.2951

> <Gold.Chemscore.Internal_Hbond>
0.0000

> <Gold.Chemscore.DEClash>
0.7244

> <Gold.Chemscore.DEInternal>
2.1840

> <Gold.Chemscore.Rot>
2.7636

> <Gold.Chemscore.Internal.Correction>
   9.000000E+99

> <Gold.Chemscore.Hbonds>
donor molecule, donor type, donor heavy atom, donor atom, acceptor molecule, acceptor atom, score
      L1  H     5    29       P1  7948  0.69
      L1  H     8    30       P1  7948  0.23
      L1  H    13    44       P1  8028  0.87
      P1  H 10752 10763       L1     7  0.15

> <Gold.Chemscore.Hbond.Weighted>
-8.8420

> <Gold.Chemscore.Metal.Weighted>
-0.0000

> <Gold.Chemscore.Lipo.Weighted>
-10.9155

> <Gold.Chemscore.Internal_Hbond.Weighted>
0.0000

> <Gold.Chemscore.DEClash.Weighted>
0.7244

> <Gold.Chemscore.DEInternal.Weighted>
2.1840

> <Gold.Chemscore.Rot.Weighted>
7.0749

> <Gold.Chemscore.Internal.Correction.Weighted>
   9.000000E+99

> <Gold.Protein.RotatedTorsions>
[ 6907 6896 6895 6894 ] final  -92.80 input  -60.11 | X-H torsion
[ 7974 7965 7964 7962 ] final -167.49 input  175.53 | X-H torsion
[ 8008 7997 7996 7995 ] final   -4.17 input   59.86 | X-H torsion
[ 10167 10162 10161 10158 ] final    8.27 input  -65.29 | X-H torsion
[ 10718 10713 10712 10709 ] final  -44.99 input   66.30 | X-H torsion
[ 10763 10752 10751 10750 ] final   80.05 input  -60.55 | X-H torsion
[ 11005 11000 10999 10996 ] final   44.31 input  -57.11 | X-H torsion

> <Gold.Protein.ActiveResidues>
 VAL166  LYS551  ARG553  GLY616  TRP617  ASP618  TYR619  PRO620  LYS621  CYS622 
 ASP623  PHE694  ASN695  SER759  ASP760  ASP761  ALA762  ILE779  LEU786  VAL792 
 PHE793  MET794  SER795  GLU796  ALA797  LYS798  CYS799  TRP800  GLU811  SER814 

> <Gold.Protein.RotatedAtoms>
  150.6912  134.2066  159.4342 H   0  0  0  0  0  0  0  0  0  0  0  0  # atno 6907 bound_to 6896
  152.0029  134.9916  160.0575 H   0  0  0  0  0  0  0  0  0  0  0  0  # atno 6908 bound_to 6896
  152.1561  133.4517  159.4874 H   0  0  0  0  0  0  0  0  0  0  0  0  # atno 6909 bound_to 6896
  144.7222  140.2510  143.6278 H   0  0  0  0  0  0  0  0  0  0  0  0  # atno 7974 bound_to 7965
  154.6172  140.2491  155.7595 H   0  0  0  0  0  0  0  0  0  0  0  0  # atno 8008 bound_to 7997
  156.2405  140.2934  156.0381 H   0  0  0  0  0  0  0  0  0  0  0  0  # atno 8009 bound_to 7997
  155.1956  140.0393  157.2898 H   0  0  0  0  0  0  0  0  0  0  0  0  # atno 8010 bound_to 7997
  140.6324  143.7963  150.7313 H   0  0  0  0  0  0  0  0  0  0  0  0  # atno 10167 bound_to 10162
  156.2329  130.4174  149.8853 H   0  0  0  0  0  0  0  0  0  0  0  0  # atno 10718 bound_to 10713
  153.1002  135.4817  154.8853 H   0  0  0  0  0  0  0  0  0  0  0  0  # atno 10763 bound_to 10752
  154.7370  135.3073  154.8797 H   0  0  0  0  0  0  0  0  0  0  0  0  # atno 10764 bound_to 10752
  153.9416  135.6833  153.4797 H   0  0  0  0  0  0  0  0  0  0  0  0  # atno 10765 bound_to 10752
  140.1564  134.4396  155.8347 H   0  0  0  0  0  0  0  0  0  0  0  0  # atno 11005 bound_to 11000
  145.8227  139.2051  143.1928 LP  0  0  0  0  0  0  0  0  0  0  0  0  # atno 17320 bound_to 7965
  146.0499  140.8079  142.9786 LP  0  0  0  0  0  0  0  0  0  0  0  0  # atno 17321 bound_to 7965
  140.1577  143.4302  152.2088 LP  0  0  0  0  0  0  0  0  0  0  0  0  # atno 17342 bound_to 10162
  139.5537  144.7357  151.4358 LP  0  0  0  0  0  0  0  0  0  0  0  0  # atno 17343 bound_to 10162
  156.6461  130.8725  151.3523 LP  0  0  0  0  0  0  0  0  0  0  0  0  # atno 17370 bound_to 10713
  157.7141  130.9476  150.1192 LP  0  0  0  0  0  0  0  0  0  0  0  0  # atno 17371 bound_to 10713
  141.2205  133.6894  156.7515 LP  0  0  0  0  0  0  0  0  0  0  0  0  # atno 17394 bound_to 11000
  140.2542  134.8517  157.3697 LP  0  0  0  0  0  0  0  0  0  0  0  0  # atno 17395 bound_to 11000

$$$$
