AV-unprocessed.smi:1644|AV-procd|sdf|6599|dock5
  -GOLD-   22720 7303D 1   1.00000     0.00000
 Structure written by MMmdl.
 49 51  0  0  0  0  0  0  0  0  3 V2000
  146.1999  135.5476  163.0785 C   0  0  0  0  0  0  0  0  0  0  0  0
  146.8662  136.8640  162.6645 C   0  0  0  0  0  0  0  0  0  0  0  0
  147.9061  136.6681  161.5403 C   0  0  0  0  0  0  0  0  0  0  0  0
  147.3741  136.7784  160.0904 C   0  0  1  0  0  0  0  0  0  0  0  0
  146.7978  138.0803  159.8258 N   0  5  0  0  0  0  0  0  0  0  0  0
  147.4351  138.6208  158.7608 C   0  0  0  0  0  0  0  0  0  0  0  0
  147.2240  139.7253  158.2598 O   0  0  0  0  0  0  0  0  0  0  0  0
  148.3880  137.7910  158.2919 N   0  0  0  0  0  0  0  0  0  0  0  0
  149.2916  138.0925  157.1777 C   0  0  0  0  0  0  0  0  0  0  0  0
  150.7182  138.4011  157.6781 C   0  0  1  0  0  0  0  0  0  0  0  0
  151.4029  137.1860  157.9122 O   0  0  0  0  0  0  0  0  0  0  0  0
  151.5255  139.2207  156.6528 C   0  0  0  0  0  0  0  0  0  0  0  0
  151.2013  140.6515  156.7013 N   0  0  0  0  0  0  0  0  0  0  0  0
  150.4706  141.4199  155.8495 C   0  0  0  0  0  0  0  0  0  0  0  0
  150.4761  142.6915  156.3387 N   0  3  0  0  0  0  0  0  0  0  0  0
  151.2255  142.7346  157.5172 C   0  0  0  0  0  0  0  0  0  0  0  0
  151.5273  143.7902  158.3696 C   0  0  0  0  0  0  0  0  0  0  0  0
  152.3301  143.5004  159.4964 C   0  0  0  0  0  0  0  0  0  0  0  0
  152.6865  144.6332  160.4437 C   0  0  0  0  0  0  0  0  0  0  0  0
  152.7970  142.1826  159.7415 C   0  0  0  0  0  0  0  0  0  0  0  0
  153.6597  141.8806  160.9549 C   0  0  0  0  0  0  0  0  0  0  0  0
  152.4758  141.1224  158.8651 C   0  0  0  0  0  0  0  0  0  0  0  0
  151.6898  141.4275  157.7569 C   0  0  0  0  0  0  0  0  0  0  0  0
  148.4451  136.6747  159.0234 C   0  0  0  0  0  0  0  0  0  0  0  0
  149.2168  135.7239  158.8938 O   0  0  0  0  0  0  0  0  0  0  0  0
  145.4646  135.7157  163.8654 H   0  0  0  0  0  0  0  0  0  0  0  0
  146.9353  134.8366  163.4554 H   0  0  0  0  0  0  0  0  0  0  0  0
  145.6859  135.0846  162.2358 H   0  0  0  0  0  0  0  0  0  0  0  0
  146.0950  137.5632  162.3402 H   0  0  0  0  0  0  0  0  0  0  0  0
  147.3361  137.3089  163.5421 H   0  0  0  0  0  0  0  0  0  0  0  0
  148.7050  137.3992  161.6726 H   0  0  0  0  0  0  0  0  0  0  0  0
  148.3807  135.6936  161.6633 H   0  0  0  0  0  0  0  0  0  0  0  0
  146.6501  135.9808  159.9195 H   0  0  0  0  0  0  0  0  0  0  0  0
  149.2965  137.2915  156.4361 H   0  0  0  0  0  0  0  0  0  0  0  0
  148.8874  138.9596  156.6526 H   0  0  0  0  0  0  0  0  0  0  0  0
  150.6741  138.9528  158.6177 H   0  0  0  0  0  0  0  0  0  0  0  0
  150.7946  136.5654  158.2831 H   0  0  0  0  0  0  0  0  0  0  0  0
  152.5973  139.1104  156.8247 H   0  0  0  0  0  0  0  0  0  0  0  0
  151.3360  138.8704  155.6372 H   0  0  0  0  0  0  0  0  0  0  0  0
  149.9805  141.0837  154.9474 H   0  0  0  0  0  0  0  0  0  0  0  0
  151.1685  144.7908  158.1772 H   0  0  0  0  0  0  0  0  0  0  0  0
  153.7688  144.7378  160.5264 H   0  0  0  0  0  0  0  0  0  0  0  0
  152.2795  144.4422  161.4368 H   0  0  0  0  0  0  0  0  0  0  0  0
  152.2861  145.5860  160.0958 H   0  0  0  0  0  0  0  0  0  0  0  0
  153.8965  140.8180  161.0210 H   0  0  0  0  0  0  0  0  0  0  0  0
  153.1446  142.1638  161.8731 H   0  0  0  0  0  0  0  0  0  0  0  0
  154.6005  142.4290  160.9003 H   0  0  0  0  0  0  0  0  0  0  0  0
  152.8353  140.1195  159.0473 H   0  0  0  0  0  0  0  0  0  0  0  0
  150.0061  143.4710  155.8962 H   0  0  0  0  0  0  0  0  0  0  0  0
  1  2  1  0  0  0  0
  1 26  1  0  0  0  0
  1 27  1  0  0  0  0
  1 28  1  0  0  0  0
  2  3  1  0  0  0  0
  2 29  1  0  0  0  0
  2 30  1  0  0  0  0
  3  4  1  0  0  0  0
  3 31  1  0  0  0  0
  3 32  1  0  0  0  0
  4 24  1  0  0  0  0
  4  5  1  0  0  0  0
  4 33  1  0  0  0  0
  5  6  1  0  0  0  0
  6  7  2  0  0  0  0
  6  8  1  0  0  0  0
  8  9  1  0  0  0  0
  8 24  1  0  0  0  0
  9 10  1  0  0  0  0
  9 34  1  0  0  0  0
  9 35  1  0  0  0  0
 10 11  1  0  0  0  0
 10 12  1  0  0  0  0
 10 36  1  0  0  0  0
 11 37  1  0  0  0  0
 12 13  1  0  0  0  0
 12 38  1  0  0  0  0
 12 39  1  0  0  0  0
 13 23  1  0  0  0  0
 13 14  1  0  0  0  0
 14 15  2  0  0  0  0
 14 40  1  0  0  0  0
 15 16  1  0  0  0  0
 15 49  1  0  0  0  0
 16 23  2  0  0  0  0
 16 17  1  0  0  0  0
 17 18  2  0  0  0  0
 17 41  1  0  0  0  0
 18 19  1  0  0  0  0
 18 20  1  0  0  0  0
 19 42  1  0  0  0  0
 19 43  1  0  0  0  0
 19 44  1  0  0  0  0
 20 21  1  0  0  0  0
 20 22  2  0  0  0  0
 21 45  1  0  0  0  0
 21 46  1  0  0  0  0
 21 47  1  0  0  0  0
 22 23  1  0  0  0  0
 22 48  1  0  0  0  0
 24 25  2  0  0  0  0
M  CHG  1   5  -1
M  CHG  1  15   1
M  END
> <s_m_source_file>
AV-unprocessed.smi

> <i_m_source_file_index>
1644

> <i_lp_mmshare_version>
43012

> <i_f3d_flags>
0

> <s_epik_input>
W0NIM11bQ0gyXVtDSDJdW0NAQEhdMVtOSF1DKD1PKU4oQzE9TylbQ0gyXVtDQEhdKFtPSF0pW0NIMl1uKFtjSF1uMiljKGMyMylbY0hdYyhbQ0gzXSljKFtjSF0zKVtDSDNd

> <s_epik_cmdline>
J2VwaWtfcHl0aG9uJywgJy1waCcsICc3LjAnLCAnLXRuJywgJzgnLCAnLW1hJywgJzIwMCcsICctbWV0YWxfYmluZGluZycsICctaW1hZScsICc8aW5maWxlLm1hZT4nLCAnLW9tYWUnLCAnPG91dGZpbGUubWFlPic=

> <r_lp_tautomer_probability>
1

> <r_epik_Ionization_Penalty>
6.86868

> <r_epik_Ionization_Penalty_Charging>
6.86868

> <r_epik_Ionization_Penalty_Neutral>
5.84798e-07

> <r_epik_State_Penalty>
6.92818

> <r_epik_Charging_Adjusted_Penalty>
13.7969

> <i_epik_Tot_Q>
0

> <i_epik_Tot_abs_Q>
2

> <r_epik_Metal_State_Penalty>
2.98017

> <b_epik_Metal_Only>
1

> <s_lp_Force_Field>
OPLS_2005

> <r_lp_Energy>
22.7733

> <b_lp_Chiralities_Consistent>
1

> <s_lp_Variant>
AV-unprocessed.smi:1644-16

> <Gold.Version>
5.8.1

> <Gold.Id.Protein>
6NUR|6NUR_protein|mol2

> <Gold.PLP.Fitness>
61.2932

> <Gold.PLP.PLP>
-48.8503

> <Gold.PLP.part.hbond>
-3.6710

> <Gold.PLP.part.metal>
0.0000

> <Gold.PLP.part.buried>
-4.2058

> <Gold.PLP.part.nonpolar>
-40.5152

> <Gold.PLP.part.repulsive>
0.1247

> <Gold.PLP.ligand.clash>
0.0000

> <Gold.PLP.ligand.torsion>
0.9241

> <Gold.PLP.Chemscore.Hbond>
4.7280

> <Gold.PLP.Chemscore.CHOScore>
0.0000

> <Gold.PLP.Chemscore.Metal>
0.0000

> <Gold.Chemscore.Hbonds>
donor molecule, donor type, donor heavy atom, donor atom, acceptor molecule, acceptor atom, score
      L1  H    15    49       P1  8028  2.00
      P1  H  6896  6908       L1    25  1.00
      P1  H  6934  6947       L1     5  1.46

> <Gold.PLP.Chemscore.Internal.Correction>
0.1073

> <Gold.Rescore>
     Score         DG    S(hbond)    S(metal)    S(lipo)     H(rot)  DE(clash)    DE(int)     intcor
     17.15     -19.70       2.23        0.00     117.56       2.72       0.07       2.48       ----

> <Gold.Chemscore.Fitness>
17.1535

> <Gold.Chemscore.DG>
-19.7040

> <Gold.Chemscore.ZeroCoef>
-5.4800

> <Gold.Chemscore.Hbond>
2.2287

> <Gold.Chemscore.Metal>
0.0000

> <Gold.Chemscore.Lipo>
117.5630

> <Gold.Chemscore.Internal_Hbond>
0.0000

> <Gold.Chemscore.DEClash>
0.0660

> <Gold.Chemscore.DEInternal>
2.4845

> <Gold.Chemscore.Rot>
2.7245

> <Gold.Chemscore.Internal.Correction>
   9.000000E+99

> <Gold.Chemscore.Hbonds>
donor molecule, donor type, donor heavy atom, donor atom, acceptor molecule, acceptor atom, score
      L1  H    15    49       P1  8028  1.00
      P1  H  6896  6908       L1    25  0.94
      P1  H  6934  6947       L1     5  0.16

> <Gold.Chemscore.Hbond.Weighted>
-7.4439

> <Gold.Chemscore.Metal.Weighted>
-0.0000

> <Gold.Chemscore.Lipo.Weighted>
-13.7549

> <Gold.Chemscore.Internal_Hbond.Weighted>
0.0000

> <Gold.Chemscore.DEClash.Weighted>
0.0660

> <Gold.Chemscore.DEInternal.Weighted>
2.4845

> <Gold.Chemscore.Rot.Weighted>
6.9748

> <Gold.Chemscore.Internal.Correction.Weighted>
   9.000000E+99

> <Gold.Protein.RotatedTorsions>
[ 6907 6896 6895 6894 ] final  158.97 input  -60.11 | X-H torsion
[ 7974 7965 7964 7962 ] final  -93.96 input  175.53 | X-H torsion
[ 8008 7997 7996 7995 ] final  109.66 input   59.86 | X-H torsion
[ 10167 10162 10161 10158 ] final  -61.91 input  -65.29 | X-H torsion
[ 10718 10713 10712 10709 ] final   14.58 input   66.30 | X-H torsion
[ 10763 10752 10751 10750 ] final -142.72 input  -60.55 | X-H torsion
[ 11005 11000 10999 10996 ] final  -97.53 input  -57.11 | X-H torsion

> <Gold.Protein.ActiveResidues>
 VAL166  LYS551  ARG553  GLY616  TRP617  ASP618  TYR619  PRO620  LYS621  CYS622 
 ASP623  PHE694  ASN695  SER759  ASP760  ASP761  ALA762  ILE779  LEU786  VAL792 
 PHE793  MET794  SER795  GLU796  ALA797  LYS798  CYS799  TRP800  GLU811  SER814 

> <Gold.Protein.RotatedAtoms>
  151.9925  133.3796  159.4149 H   0  0  0  0  0  0  0  0  0  0  0  0  # atno 6907 bound_to 6896
  150.6920  134.3921  159.5090 H   0  0  0  0  0  0  0  0  0  0  0  0  # atno 6908 bound_to 6896
  152.1657  134.8876  160.0589 H   0  0  0  0  0  0  0  0  0  0  0  0  # atno 6909 bound_to 6896
  145.3796  140.9516  143.2401 H   0  0  0  0  0  0  0  0  0  0  0  0  # atno 7974 bound_to 7965
  156.1995  140.3053  155.9497 H   0  0  0  0  0  0  0  0  0  0  0  0  # atno 8008 bound_to 7997
  155.2987  140.0445  157.3045 H   0  0  0  0  0  0  0  0  0  0  0  0  # atno 8009 bound_to 7997
  154.5553  140.2304  155.8429 H   0  0  0  0  0  0  0  0  0  0  0  0  # atno 8010 bound_to 7997
  140.5974  143.2354  151.6004 H   0  0  0  0  0  0  0  0  0  0  0  0  # atno 10167 bound_to 10162
  157.0411  130.6231  149.5751 H   0  0  0  0  0  0  0  0  0  0  0  0  # atno 10718 bound_to 10713
  154.8498  135.3488  154.6073 H   0  0  0  0  0  0  0  0  0  0  0  0  # atno 10763 bound_to 10752
  153.6682  135.6986  153.5160 H   0  0  0  0  0  0  0  0  0  0  0  0  # atno 10764 bound_to 10752
  153.2764  135.4277  155.0993 H   0  0  0  0  0  0  0  0  0  0  0  0  # atno 10765 bound_to 10752
  141.1376  133.8178  157.0719 H   0  0  0  0  0  0  0  0  0  0  0  0  # atno 11005 bound_to 11000
  144.8517  139.5311  143.6853 LP  0  0  0  0  0  0  0  0  0  0  0  0  # atno 17320 bound_to 7965
  146.2848  139.6974  142.9203 LP  0  0  0  0  0  0  0  0  0  0  0  0  # atno 17321 bound_to 7965
  139.5268  144.3036  152.1052 LP  0  0  0  0  0  0  0  0  0  0  0  0  # atno 17342 bound_to 10162
  140.2211  144.4465  150.6342 LP  0  0  0  0  0  0  0  0  0  0  0  0  # atno 17343 bound_to 10162
  156.0038  130.5121  150.7757 LP  0  0  0  0  0  0  0  0  0  0  0  0  # atno 17370 bound_to 10713
  157.5104  131.0925  151.0206 LP  0  0  0  0  0  0  0  0  0  0  0  0  # atno 17371 bound_to 10713
  140.0506  134.9807  157.1129 LP  0  0  0  0  0  0  0  0  0  0  0  0  # atno 17394 bound_to 11000
  140.3996  134.2097  155.7164 LP  0  0  0  0  0  0  0  0  0  0  0  0  # atno 17395 bound_to 11000

$$$$
