AV-unprocessed.smi:160|AV-procd|sdf|1365|dock5
  -GOLD-   2262019 83D 1   1.00000     0.00000
 Structure written by MMmdl.
 28 29  0  0  0  0  0  0  0  0  2 V2000
  152.0581  137.3204  153.9818 N   0  5  0  0  0  0  0  0  0  0  0  0
  152.6783  138.2987  154.6767 C   0  0  0  0  0  0  0  0  0  0  0  0
  153.8938  138.4652  154.7721 O   0  0  0  0  0  0  0  0  0  0  0  0
  151.7454  139.2538  155.3826 C   0  0  0  0  0  0  0  0  0  0  0  0
  152.0057  139.6665  156.6600 N   0  0  0  0  0  0  0  0  0  0  0  0
  150.9585  140.4592  156.8437 C   0  0  0  0  0  0  0  0  0  0  0  0
  150.1421  140.5479  155.7896 N   0  0  0  0  0  0  0  0  0  0  0  0
  148.8526  141.3060  155.6520 C   0  0  2  0  0  0  0  0  0  0  0  0
  147.8231  140.4996  156.1272 O   0  0  0  0  0  0  0  0  0  0  0  0
  147.3362  139.6845  155.0693 C   0  0  1  0  0  0  0  0  0  0  0  0
  145.9109  139.2107  155.3916 C   0  0  0  0  0  0  0  0  0  0  0  0
  145.2484  138.8163  154.2089 O   0  0  0  0  0  0  0  0  0  0  0  0
  147.4065  140.6195  153.8497 C   0  0  2  0  0  0  0  0  0  0  0  0
  147.7462  139.8782  152.6951 O   0  0  0  0  0  0  0  0  0  0  0  0
  148.5113  141.6274  154.1857 C   0  0  1  0  0  0  0  0  0  0  0  0
  148.0345  142.9517  154.0535 O   0  0  0  0  0  0  0  0  0  0  0  0
  150.6363  139.7400  154.8173 N   0  0  0  0  0  0  0  0  0  0  0  0
  148.9957  142.1860  156.2806 H   0  0  0  0  0  0  0  0  0  0  0  0
  148.0026  138.8306  154.9331 H   0  0  0  0  0  0  0  0  0  0  0  0
  146.4512  141.1249  153.6963 H   0  0  0  0  0  0  0  0  0  0  0  0
  149.3928  141.5281  153.5506 H   0  0  0  0  0  0  0  0  0  0  0  0
  151.7712  137.5142  153.0149 H   0  0  0  0  0  0  0  0  0  0  0  0
  150.7807  140.9856  157.7698 H   0  0  0  0  0  0  0  0  0  0  0  0
  145.9176  138.3948  156.1152 H   0  0  0  0  0  0  0  0  0  0  0  0
  145.3368  140.0278  155.8291 H   0  0  0  0  0  0  0  0  0  0  0  0
  144.7054  139.5314  153.9151 H   0  0  0  0  0  0  0  0  0  0  0  0
  148.4986  140.2815  152.2900 H   0  0  0  0  0  0  0  0  0  0  0  0
  148.4708  143.4912  154.6952 H   0  0  0  0  0  0  0  0  0  0  0  0
  1  2  1  0  0  0  0
  1 22  1  0  0  0  0
  2  3  2  0  0  0  0
  2  4  1  0  0  0  0
  4 17  2  0  0  0  0
  4  5  1  0  0  0  0
  5  6  2  0  0  0  0
  6  7  1  0  0  0  0
  6 23  1  0  0  0  0
  7  8  1  0  0  0  0
  7 17  1  0  0  0  0
  8 18  1  0  0  0  0
  8 15  1  0  0  0  0
  8  9  1  0  0  0  0
  9 10  1  0  0  0  0
 10 19  1  0  0  0  0
 10 11  1  0  0  0  0
 10 13  1  0  0  0  0
 11 12  1  0  0  0  0
 11 24  1  0  0  0  0
 11 25  1  0  0  0  0
 12 26  1  0  0  0  0
 13 20  1  0  0  0  0
 13 14  1  0  0  0  0
 13 15  1  0  0  0  0
 14 27  1  0  0  0  0
 15 21  1  0  0  0  0
 15 16  1  0  0  0  0
 16 28  1  0  0  0  0
M  CHG  1   1  -1
M  END
> <s_m_source_file>
AV-unprocessed.smi

> <i_m_source_file_index>
160

> <i_lp_mmshare_version>
43012

> <i_f3d_flags>
0

> <s_epik_input>
W05IMl1DKD1PKWMxbltjSF1uKG4xKVtDQEBIXTJPW0NASF0oW0NIMl1bT0hdKVtDQEBIXShbT0hdKVtDQEhdMltPSF0=

> <s_epik_cmdline>
J2VwaWtfcHl0aG9uJywgJy1waCcsICc3LjAnLCAnLXRuJywgJzgnLCAnLW1hJywgJzIwMCcsICctbWV0YWxfYmluZGluZycsICctaW1hZScsICc8aW5maWxlLm1hZT4nLCAnLW9tYWUnLCAnPG91dGZpbGUubWFlPic=

> <r_lp_tautomer_probability>
1

> <r_epik_Ionization_Penalty>
6.6993

> <r_epik_Ionization_Penalty_Charging>
6.6993

> <r_epik_Ionization_Penalty_Neutral>
6.01698e-06

> <r_epik_State_Penalty>
6.69929

> <r_epik_Charging_Adjusted_Penalty>
13.3986

> <i_epik_Tot_Q>
-1

> <i_epik_Tot_abs_Q>
1

> <r_epik_Metal_State_Penalty>
2.62798

> <b_epik_Metal_Only>
1

> <s_epik_Chemistry_Notes>
This compound contains an acetal/aminal-like group ( X-CH(R)-Y where X, Y are N, S, or O) that may be acid/base labile, releasing an aldehyde.

> <s_lp_Force_Field>
OPLS_2005

> <r_lp_Energy>
36.7288

> <b_lp_Chiralities_Consistent>
1

> <s_lp_Variant>
AV-unprocessed.smi:160-23

> <Gold.Version>
5.8.1

> <Gold.Id.Protein>
6NUR|6NUR_protein|mol2

> <Gold.PLP.Fitness>
44.8216

> <Gold.PLP.PLP>
-28.5396

> <Gold.PLP.part.hbond>
-8.5335

> <Gold.PLP.part.metal>
0.0000

> <Gold.PLP.part.buried>
-3.7793

> <Gold.PLP.part.nonpolar>
-16.8088

> <Gold.PLP.part.repulsive>
0.1000

> <Gold.PLP.ligand.clash>
0.0000

> <Gold.PLP.ligand.torsion>
1.5573

> <Gold.PLP.Chemscore.Hbond>
6.4538

> <Gold.PLP.Chemscore.CHOScore>
0.0000

> <Gold.PLP.Chemscore.Metal>
0.0000

> <Gold.Chemscore.Hbonds>
donor molecule, donor type, donor heavy atom, donor atom, acceptor molecule, acceptor atom, score
      L1  H     1    22       P1  7949  0.26
      L1  H    12    26       P1 10175  1.00
      L1  H    14    27       P1  7957  0.83
      L1  H    16    28       P1  8028  1.00
      P1  H  7989  7998       L1    17  0.70
      P1  H  7997  8009       L1     3  0.66
      P1  H 10752 10765       L1     1  1.95

> <Gold.PLP.Chemscore.Internal.Correction>
0.0352

> <Gold.Rescore>
     Score         DG    S(hbond)    S(metal)    S(lipo)     H(rot)  DE(clash)    DE(int)     intcor
     11.11     -12.84       4.68        0.00      17.60       4.04       0.02       1.70       ----

> <Gold.Chemscore.Fitness>
11.1124

> <Gold.Chemscore.DG>
-12.8374

> <Gold.Chemscore.ZeroCoef>
-5.4800

> <Gold.Chemscore.Hbond>
4.6831

> <Gold.Chemscore.Metal>
0.0000

> <Gold.Chemscore.Lipo>
17.5971

> <Gold.Chemscore.Internal_Hbond>
0.0000

> <Gold.Chemscore.DEClash>
0.0232

> <Gold.Chemscore.DEInternal>
1.7018

> <Gold.Chemscore.Rot>
4.0403

> <Gold.Chemscore.Internal.Correction>
   9.000000E+99

> <Gold.Chemscore.Hbonds>
donor molecule, donor type, donor heavy atom, donor atom, acceptor molecule, acceptor atom, score
      L1  H     1    22       P1  7949  0.25
      L1  H    12    26       P1 10175  0.92
      L1  H    14    27       P1  7957  0.82
      L1  H    16    28       P1  8028  0.97
      P1  H  7989  7998       L1    17  0.05
      P1  H  7997  8009       L1     3  0.62
      P1  H 10752 10765       L1     1  0.54

> <Gold.Chemscore.Hbond.Weighted>
-15.6416

> <Gold.Chemscore.Metal.Weighted>
-0.0000

> <Gold.Chemscore.Lipo.Weighted>
-2.0589

> <Gold.Chemscore.Internal_Hbond.Weighted>
0.0000

> <Gold.Chemscore.DEClash.Weighted>
0.0232

> <Gold.Chemscore.DEInternal.Weighted>
1.7018

> <Gold.Chemscore.Rot.Weighted>
10.3431

> <Gold.Chemscore.Internal.Correction.Weighted>
   9.000000E+99

> <Gold.Protein.RotatedTorsions>
[ 6907 6896 6895 6894 ] final -143.54 input  -60.11 | X-H torsion
[ 7974 7965 7964 7962 ] final  127.63 input  175.53 | X-H torsion
[ 8008 7997 7996 7995 ] final -123.60 input   59.86 | X-H torsion
[ 10167 10162 10161 10158 ] final -173.39 input  -65.29 | X-H torsion
[ 10718 10713 10712 10709 ] final -164.43 input   66.30 | X-H torsion
[ 10763 10752 10751 10750 ] final  147.23 input  -60.55 | X-H torsion
[ 11005 11000 10999 10996 ] final -105.51 input  -57.11 | X-H torsion

> <Gold.Protein.ActiveResidues>
 VAL166  LYS551  ARG553  GLY616  TRP617  ASP618  TYR619  PRO620  LYS621  CYS622 
 ASP623  PHE694  ASN695  SER759  ASP760  ASP761  ALA762  ILE779  LEU786  VAL792 
 PHE793  MET794  SER795  GLU796  ALA797  LYS798  CYS799  TRP800  GLU811  SER814 

> <Gold.Protein.RotatedAtoms>
  151.1019  133.5237  159.2609 H   0  0  0  0  0  0  0  0  0  0  0  0  # atno 6907 bound_to 6896
  151.2064  135.0463  159.8903 H   0  0  0  0  0  0  0  0  0  0  0  0  # atno 6908 bound_to 6896
  152.5443  134.0840  159.8301 H   0  0  0  0  0  0  0  0  0  0  0  0  # atno 6909 bound_to 6896
  145.0484  139.3903  143.5066 H   0  0  0  0  0  0  0  0  0  0  0  0  # atno 7974 bound_to 7965
  155.1832  140.0411  157.2886 H   0  0  0  0  0  0  0  0  0  0  0  0  # atno 8008 bound_to 7997
  154.6189  140.2496  155.7546 H   0  0  0  0  0  0  0  0  0  0  0  0  # atno 8009 bound_to 7997
  156.2422  140.2899  156.0488 H   0  0  0  0  0  0  0  0  0  0  0  0  # atno 8010 bound_to 7997
  139.5691  144.1684  152.1357 H   0  0  0  0  0  0  0  0  0  0  0  0  # atno 10167 bound_to 10162
  156.6389  130.8960  151.2992 H   0  0  0  0  0  0  0  0  0  0  0  0  # atno 10718 bound_to 10713
  154.0349  135.2894  155.3363 H   0  0  0  0  0  0  0  0  0  0  0  0  # atno 10763 bound_to 10752
  154.6965  135.5206  153.8469 H   0  0  0  0  0  0  0  0  0  0  0  0  # atno 10764 bound_to 10752
  153.0624  135.6618  154.0559 H   0  0  0  0  0  0  0  0  0  0  0  0  # atno 10765 bound_to 10752
  141.1050  133.8814  157.1742 H   0  0  0  0  0  0  0  0  0  0  0  0  # atno 11005 bound_to 11000
  146.3516  140.0122  142.8666 LP  0  0  0  0  0  0  0  0  0  0  0  0  # atno 17320 bound_to 7965
  145.1558  140.9647  143.4406 LP  0  0  0  0  0  0  0  0  0  0  0  0  # atno 17321 bound_to 7965
  140.1213  144.5370  150.6861 LP  0  0  0  0  0  0  0  0  0  0  0  0  # atno 17342 bound_to 10162
  140.6975  143.2413  151.4958 LP  0  0  0  0  0  0  0  0  0  0  0  0  # atno 17343 bound_to 10162
  157.7177  130.9518  150.1318 LP  0  0  0  0  0  0  0  0  0  0  0  0  # atno 17370 bound_to 10713
  156.2175  130.3671  149.8596 LP  0  0  0  0  0  0  0  0  0  0  0  0  # atno 17371 bound_to 10713
  139.9916  135.0062  156.9989 LP  0  0  0  0  0  0  0  0  0  0  0  0  # atno 17394 bound_to 11000
  140.4925  134.1178  155.7235 LP  0  0  0  0  0  0  0  0  0  0  0  0  # atno 17395 bound_to 11000

$$$$
