AV-unprocessed.smi:3056|AV-procd|sdf|11650|dock9
  -GOLD-   2272017 43D 1   1.00000     0.00000
 Structure written by MMmdl.
 48 49  0  0  0  0  0  0  0  0  2 V2000
  145.0088  132.4273  149.0972 C   0  0  0  0  0  0  0  0  0  0  0  0
  145.1323  133.0497  150.4580 C   0  0  0  0  0  0  0  0  0  0  0  0
  144.1624  133.8203  151.1593 C   0  0  0  0  0  0  0  0  0  0  0  0
  144.5913  134.2343  152.3403 N   0  0  0  0  0  0  0  0  0  0  0  0
  145.8410  133.7317  152.4454 N   0  0  0  0  0  0  0  0  0  0  0  0
  146.6387  134.0285  153.6296 C   0  0  1  0  0  0  0  0  0  0  0  0
  146.0165  133.3425  154.8612 C   0  0  0  0  0  0  0  0  0  0  0  0
  148.1342  133.6683  153.4090 C   0  0  2  0  0  0  0  0  0  0  0  0
  148.3519  132.1576  153.2170 C   0  0  0  0  0  0  0  0  0  0  0  0
  148.9613  134.1137  154.5584 N   0  3  0  0  0  0  0  0  0  0  0  0
  148.9197  135.5624  154.8693 C   0  0  0  0  0  0  0  0  0  0  0  0
  150.2482  136.1153  155.4124 C   0  0  0  0  0  0  0  0  0  0  0  0
  151.2002  135.3459  155.5538 O   0  0  0  0  0  0  0  0  0  0  0  0
  150.3287  137.4298  155.7283 N   0  0  0  0  0  0  0  0  0  0  0  0
  151.5255  138.1333  156.1995 C   0  0  0  0  0  0  0  0  0  0  0  0
  151.9453  139.1407  155.1150 C   0  0  0  0  0  0  0  0  0  0  0  0
  150.8675  140.0359  154.8491 O   0  0  0  0  0  0  0  0  0  0  0  0
  149.6737  139.3805  154.4218 C   0  0  2  0  0  0  0  0  0  0  0  0
  148.6092  140.4491  154.1510 C   0  0  0  0  0  0  0  0  0  0  0  0
  149.2330  138.3775  155.5074 C   0  0  0  0  0  0  0  0  0  0  0  0
  146.1951  133.0204  151.3156 C   0  0  0  0  0  0  0  0  0  0  0  0
  143.9792  132.4367  148.7387 H   0  0  0  0  0  0  0  0  0  0  0  0
  145.3380  131.3881  149.0982 H   0  0  0  0  0  0  0  0  0  0  0  0
  145.6109  132.9555  148.3578 H   0  0  0  0  0  0  0  0  0  0  0  0
  143.1666  134.0953  150.8434 H   0  0  0  0  0  0  0  0  0  0  0  0
  146.5731  135.1044  153.8036 H   0  0  0  0  0  0  0  0  0  0  0  0
  146.4633  133.6984  155.7891 H   0  0  0  0  0  0  0  0  0  0  0  0
  146.1412  132.2600  154.8253 H   0  0  0  0  0  0  0  0  0  0  0  0
  144.9481  133.5522  154.9266 H   0  0  0  0  0  0  0  0  0  0  0  0
  148.4875  134.1629  152.5025 H   0  0  0  0  0  0  0  0  0  0  0  0
  147.8710  131.7912  152.3104 H   0  0  0  0  0  0  0  0  0  0  0  0
  147.9594  131.5881  154.0602 H   0  0  0  0  0  0  0  0  0  0  0  0
  149.4130  131.9237  153.1253 H   0  0  0  0  0  0  0  0  0  0  0  0
  148.6543  133.6009  155.3730 H   0  0  0  0  0  0  0  0  0  0  0  0
  148.6094  136.1265  153.9909 H   0  0  0  0  0  0  0  0  0  0  0  0
  148.1546  135.7053  155.6329 H   0  0  0  0  0  0  0  0  0  0  0  0
  151.2918  138.6590  157.1266 H   0  0  0  0  0  0  0  0  0  0  0  0
  152.3626  137.4782  156.4347 H   0  0  0  0  0  0  0  0  0  0  0  0
  152.8087  139.7169  155.4478 H   0  0  0  0  0  0  0  0  0  0  0  0
  152.2376  138.6257  154.1985 H   0  0  0  0  0  0  0  0  0  0  0  0
  149.8762  138.8473  153.4912 H   0  0  0  0  0  0  0  0  0  0  0  0
  147.6758  139.9968  153.8150 H   0  0  0  0  0  0  0  0  0  0  0  0
  148.9404  141.1410  153.3762 H   0  0  0  0  0  0  0  0  0  0  0  0
  148.3962  141.0307  155.0483 H   0  0  0  0  0  0  0  0  0  0  0  0
  148.3050  137.8887  155.2078 H   0  0  0  0  0  0  0  0  0  0  0  0
  149.0111  138.8986  156.4401 H   0  0  0  0  0  0  0  0  0  0  0  0
  147.1667  132.5600  151.2117 H   0  0  0  0  0  0  0  0  0  0  0  0
  149.9242  133.8724  154.3722 H   0  0  0  0  0  0  0  0  0  0  0  0
  1  2  1  0  0  0  0
  1 22  1  0  0  0  0
  1 23  1  0  0  0  0
  1 24  1  0  0  0  0
  2 21  2  0  0  0  0
  2  3  1  0  0  0  0
  3  4  2  0  0  0  0
  3 25  1  0  0  0  0
  4  5  1  0  0  0  0
  5  6  1  0  0  0  0
  5 21  1  0  0  0  0
  6  7  1  0  0  0  0
  6  8  1  0  0  0  0
  6 26  1  0  0  0  0
  7 27  1  0  0  0  0
  7 28  1  0  0  0  0
  7 29  1  0  0  0  0
  8  9  1  0  0  0  0
  8 10  1  0  0  0  0
  8 30  1  0  0  0  0
  9 31  1  0  0  0  0
  9 32  1  0  0  0  0
  9 33  1  0  0  0  0
 10 11  1  0  0  0  0
 10 34  1  0  0  0  0
 10 48  1  0  0  0  0
 11 12  1  0  0  0  0
 11 35  1  0  0  0  0
 11 36  1  0  0  0  0
 12 13  2  0  0  0  0
 12 14  1  0  0  0  0
 14 20  1  0  0  0  0
 14 15  1  0  0  0  0
 15 16  1  0  0  0  0
 15 37  1  0  0  0  0
 15 38  1  0  0  0  0
 16 17  1  0  0  0  0
 16 39  1  0  0  0  0
 16 40  1  0  0  0  0
 17 18  1  0  0  0  0
 18 19  1  0  0  0  0
 18 20  1  0  0  0  0
 18 41  1  0  0  0  0
 19 42  1  0  0  0  0
 19 43  1  0  0  0  0
 19 44  1  0  0  0  0
 20 45  1  0  0  0  0
 20 46  1  0  0  0  0
 21 47  1  0  0  0  0
M  CHG  1  10   1
M  END
> <s_m_source_file>
AV-unprocessed.smi

> <i_m_source_file_index>
3056

> <i_lp_mmshare_version>
43012

> <i_f3d_flags>
0

> <s_epik_input>
W0NIM11jMVtjSF1ubihbY0hdMSlbQ0BIXShbQ0gzXSlbQ0BIXShbQ0gzXSlbTkhdW0NIMl1DKD1PKU4yW0NIMl1bQ0gyXU9bQ0BASF0oW0NIM10pW0NIMl0y

> <s_epik_cmdline>
J2VwaWtfcHl0aG9uJywgJy1waCcsICc3LjAnLCAnLXRuJywgJzgnLCAnLW1hJywgJzIwMCcsICctbWV0YWxfYmluZGluZycsICctaW1hZScsICc8aW5maWxlLm1hZT4nLCAnLW9tYWUnLCAnPG91dGZpbGUubWFlPic=

> <r_lp_tautomer_probability>
1

> <r_epik_Ionization_Penalty>
0.233715

> <r_epik_Ionization_Penalty_Charging>
0.233698

> <r_epik_Ionization_Penalty_Neutral>
1.68157e-05

> <r_epik_State_Penalty>
0.225221

> <r_epik_Charging_Adjusted_Penalty>
0.458919

> <i_epik_Tot_Q>
1

> <i_epik_Tot_abs_Q>
1

> <r_epik_Metal_State_Penalty>
0.225535

> <b_epik_Metal_Only>
0

> <s_lp_Force_Field>
OPLS_2005

> <r_lp_Energy>
28.2676

> <b_lp_Chiralities_Consistent>
1

> <s_lp_Variant>
AV-unprocessed.smi:3056-6

> <Gold.Version>
5.8.1

> <Gold.Id.Protein>
6NUR|6NUR_protein|mol2

> <Gold.PLP.Fitness>
43.0138

> <Gold.PLP.PLP>
-33.0075

> <Gold.PLP.part.hbond>
-2.0000

> <Gold.PLP.part.metal>
0.0000

> <Gold.PLP.part.buried>
-2.3226

> <Gold.PLP.part.nonpolar>
-28.1785

> <Gold.PLP.part.repulsive>
0.2142

> <Gold.PLP.ligand.clash>
0.0000

> <Gold.PLP.ligand.torsion>
0.4248

> <Gold.PLP.Chemscore.Hbond>
2.0000

> <Gold.PLP.Chemscore.CHOScore>
1.5854

> <Gold.PLP.Chemscore.Metal>
0.0000

> <Gold.Chemscore.Hbonds>
donor molecule, donor type, donor heavy atom, donor atom, acceptor molecule, acceptor atom, score
      P1  H  7989  7998       L1    17  0.80
      P1  H 10752 10764       L1    13  1.00
      L1  C     3    25       P1 10186  1.00
      L1  C    21    47       P1 10747  0.69

> <Gold.PLP.Chemscore.Internal.Correction>
0.0998

> <Gold.Rescore>
     Score         DG    S(hbond)    S(metal)    S(lipo)     H(rot)  DE(clash)    DE(int)     intcor
     14.40     -14.84       1.30        0.00      80.85       1.74       0.05       0.39       ----

> <Gold.Chemscore.Fitness>
14.4037

> <Gold.Chemscore.DG>
-14.8389

> <Gold.Chemscore.ZeroCoef>
-5.4800

> <Gold.Chemscore.Hbond>
1.2999

> <Gold.Chemscore.Metal>
0.0000

> <Gold.Chemscore.Lipo>
80.8539

> <Gold.Chemscore.Internal_Hbond>
0.0000

> <Gold.Chemscore.DEClash>
0.0468

> <Gold.Chemscore.DEInternal>
0.3884

> <Gold.Chemscore.Rot>
1.7354

> <Gold.Chemscore.Internal.Correction>
   9.000000E+99

> <Gold.Chemscore.Hbonds>
donor molecule, donor type, donor heavy atom, donor atom, acceptor molecule, acceptor atom, score
      P1  H  7989  7998       L1    17  0.09
      P1  H 10752 10764       L1    13  0.95

> <Gold.Chemscore.Hbond.Weighted>
-4.3416

> <Gold.Chemscore.Metal.Weighted>
-0.0000

> <Gold.Chemscore.Lipo.Weighted>
-9.4599

> <Gold.Chemscore.Internal_Hbond.Weighted>
0.0000

> <Gold.Chemscore.DEClash.Weighted>
0.0468

> <Gold.Chemscore.DEInternal.Weighted>
0.3884

> <Gold.Chemscore.Rot.Weighted>
4.4426

> <Gold.Chemscore.Internal.Correction.Weighted>
   9.000000E+99

> <Gold.Protein.RotatedTorsions>
[ 6907 6896 6895 6894 ] final  -21.04 input  -60.11 | X-H torsion
[ 7974 7965 7964 7962 ] final  -85.56 input  175.53 | X-H torsion
[ 8008 7997 7996 7995 ] final   77.33 input   59.86 | X-H torsion
[ 10167 10162 10161 10158 ] final  -36.64 input  -65.29 | X-H torsion
[ 10718 10713 10712 10709 ] final -104.09 input   66.30 | X-H torsion
[ 10763 10752 10751 10750 ] final  -36.76 input  -60.55 | X-H torsion
[ 11005 11000 10999 10996 ] final -159.71 input  -57.11 | X-H torsion

> <Gold.Protein.ActiveResidues>
 VAL166  LYS551  ARG553  GLY616  TRP617  ASP618  TYR619  PRO620  LYS621  CYS622 
 ASP623  PHE694  ASN695  SER759  ASP760  ASP761  ALA762  ILE779  LEU786  VAL792 
 PHE793  MET794  SER795  GLU796  ALA797  LYS798  CYS799  TRP800  GLU811  SER814 

> <Gold.Protein.RotatedAtoms>
  151.2392  135.0582  159.9017 H   0  0  0  0  0  0  0  0  0  0  0  0  # atno 6907 bound_to 6896
  152.5395  134.0453  159.8096 H   0  0  0  0  0  0  0  0  0  0  0  0  # atno 6908 bound_to 6896
  151.0644  133.5468  159.2663 H   0  0  0  0  0  0  0  0  0  0  0  0  # atno 6909 bound_to 6896
  145.4916  140.9552  143.1809 H   0  0  0  0  0  0  0  0  0  0  0  0  # atno 7974 bound_to 7965
  155.8401  140.3462  155.5626 H   0  0  0  0  0  0  0  0  0  0  0  0  # atno 8008 bound_to 7997
  155.8150  140.0904  157.1902 H   0  0  0  0  0  0  0  0  0  0  0  0  # atno 8009 bound_to 7997
  154.4005  140.1441  156.3419 H   0  0  0  0  0  0  0  0  0  0  0  0  # atno 8010 bound_to 7997
  140.7138  143.3395  151.2388 H   0  0  0  0  0  0  0  0  0  0  0  0  # atno 10167 bound_to 10162
  156.0291  130.5498  150.7347 H   0  0  0  0  0  0  0  0  0  0  0  0  # atno 10718 bound_to 10713
  153.8851  135.6818  153.4764 H   0  0  0  0  0  0  0  0  0  0  0  0  # atno 10763 bound_to 10752
  153.1212  135.4739  154.9196 H   0  0  0  0  0  0  0  0  0  0  0  0  # atno 10764 bound_to 10752
  154.7650  135.3221  154.8257 H   0  0  0  0  0  0  0  0  0  0  0  0  # atno 10765 bound_to 10752
  140.6395  134.4566  157.5233 H   0  0  0  0  0  0  0  0  0  0  0  0  # atno 11005 bound_to 11000
  144.7831  139.6484  143.7146 LP  0  0  0  0  0  0  0  0  0  0  0  0  # atno 17320 bound_to 7965
  146.2281  139.5760  142.9574 LP  0  0  0  0  0  0  0  0  0  0  0  0  # atno 17321 bound_to 7965
  139.6899  143.9710  152.2854 LP  0  0  0  0  0  0  0  0  0  0  0  0  # atno 17342 bound_to 10162
  139.9368  144.6707  150.8307 LP  0  0  0  0  0  0  0  0  0  0  0  0  # atno 17343 bound_to 10162
  157.4930  131.0912  151.0404 LP  0  0  0  0  0  0  0  0  0  0  0  0  # atno 17370 bound_to 10713
  157.0805  130.5901  149.5419 LP  0  0  0  0  0  0  0  0  0  0  0  0  # atno 17371 bound_to 10713
  139.9085  134.8396  156.1614 LP  0  0  0  0  0  0  0  0  0  0  0  0  # atno 17394 bound_to 11000
  141.0617  133.6838  156.1965 LP  0  0  0  0  0  0  0  0  0  0  0  0  # atno 17395 bound_to 11000

$$$$
