AV-unprocessed.smi:2895|AV-procd|sdf|11129|dock10
  -GOLD-   2272016 03D 1   1.00000     0.00000
 Structure written by MMmdl.
 53 56  0  0  0  0  0  0  0  0  2 V2000
  151.1297  136.6844  159.1336 O   0  0  0  0  0  0  0  0  0  0  0  0
  150.3009  137.5668  158.9041 C   0  0  0  0  0  0  0  0  0  0  0  0
  148.9971  137.4044  159.1926 N   0  0  0  0  0  0  0  0  0  0  0  0
  148.4069  136.2115  159.7889 C   0  0  0  0  0  0  0  0  0  0  0  0
  147.9954  136.4564  161.2490 C   0  0  0  0  0  0  0  0  0  0  0  0
  146.9189  135.4922  161.7071 C   0  0  0  0  0  0  0  0  0  0  0  0
  145.6036  135.9406  161.9457 C   0  0  0  0  0  0  0  0  0  0  0  0
  144.6406  135.0019  162.3673 C   0  0  0  0  0  0  0  0  0  0  0  0
  144.9125  133.6921  162.5535 N   0  0  0  0  0  0  0  0  0  0  0  0
  146.1740  133.2700  162.3209 C   0  0  0  0  0  0  0  0  0  0  0  0
  147.2109  134.1258  161.8978 C   0  0  0  0  0  0  0  0  0  0  0  0
  150.6278  138.7748  158.3700 N   0  0  0  0  0  0  0  0  0  0  0  0
  149.6157  139.7649  157.9322 C   0  0  0  0  0  0  0  0  0  0  0  0
  150.1304  140.7945  156.9119 C   0  0  0  0  0  0  0  0  0  0  0  0
  151.4324  141.3784  157.3075 N   0  3  0  0  0  0  0  0  0  0  0  0
  151.4071  142.2512  158.5239 C   0  0  1  0  0  0  0  0  0  0  0  0
  152.8193  142.4528  159.1351 C   0  0  0  0  0  0  0  0  0  0  0  0
  152.9591  143.9810  159.2284 C   0  0  2  0  0  0  0  0  0  0  0  0
  151.9978  144.5273  160.2980 C   0  0  0  0  0  0  0  0  0  0  0  0
  150.6244  144.3754  159.6211 C   0  0  0  0  0  0  0  0  0  0  0  0
  150.9763  143.7229  158.2694 C   0  0  1  0  0  0  0  0  0  0  0  0
  152.2898  144.4201  157.9338 C   0  0  0  0  0  0  0  0  0  0  0  0
  152.4303  140.2849  157.3752 C   0  0  0  0  0  0  0  0  0  0  0  0
  152.0465  139.1925  158.3921 C   0  0  0  0  0  0  0  0  0  0  0  0
  148.3685  138.1680  158.9899 H   0  0  0  0  0  0  0  0  0  0  0  0
  147.5502  135.8786  159.2001 H   0  0  0  0  0  0  0  0  0  0  0  0
  149.1453  135.4108  159.7400 H   0  0  0  0  0  0  0  0  0  0  0  0
  148.8615  136.3558  161.9046 H   0  0  0  0  0  0  0  0  0  0  0  0
  147.6324  137.4776  161.3741 H   0  0  0  0  0  0  0  0  0  0  0  0
  145.3354  136.9779  161.8091 H   0  0  0  0  0  0  0  0  0  0  0  0
  143.6240  135.3115  162.5600 H   0  0  0  0  0  0  0  0  0  0  0  0
  146.3635  132.2182  162.4764 H   0  0  0  0  0  0  0  0  0  0  0  0
  148.2042  133.7393  161.7232 H   0  0  0  0  0  0  0  0  0  0  0  0
  148.7515  139.2807  157.4752 H   0  0  0  0  0  0  0  0  0  0  0  0
  149.2443  140.2814  158.8184 H   0  0  0  0  0  0  0  0  0  0  0  0
  150.2654  140.2956  155.9510 H   0  0  0  0  0  0  0  0  0  0  0  0
  149.3787  141.5563  156.7181 H   0  0  0  0  0  0  0  0  0  0  0  0
  150.7412  141.8039  159.2626 H   0  0  0  0  0  0  0  0  0  0  0  0
  152.9261  141.9643  160.1044 H   0  0  0  0  0  0  0  0  0  0  0  0
  153.6055  142.0690  158.4838 H   0  0  0  0  0  0  0  0  0  0  0  0
  153.9886  144.3182  159.3520 H   0  0  0  0  0  0  0  0  0  0  0  0
  152.0649  143.9743  161.2356 H   0  0  0  0  0  0  0  0  0  0  0  0
  152.2063  145.5766  160.5111 H   0  0  0  0  0  0  0  0  0  0  0  0
  149.9315  143.7742  160.2110 H   0  0  0  0  0  0  0  0  0  0  0  0
  150.1657  145.3532  159.4686 H   0  0  0  0  0  0  0  0  0  0  0  0
  150.1836  143.8733  157.5402 H   0  0  0  0  0  0  0  0  0  0  0  0
  152.1944  145.5035  157.8426 H   0  0  0  0  0  0  0  0  0  0  0  0
  152.7739  144.0264  157.0385 H   0  0  0  0  0  0  0  0  0  0  0  0
  152.5061  139.8347  156.3842 H   0  0  0  0  0  0  0  0  0  0  0  0
  153.4278  140.6638  157.5946 H   0  0  0  0  0  0  0  0  0  0  0  0
  152.2697  139.5440  159.4003 H   0  0  0  0  0  0  0  0  0  0  0  0
  152.7105  138.3437  158.2188 H   0  0  0  0  0  0  0  0  0  0  0  0
  151.7160  141.9789  156.5464 H   0  0  0  0  0  0  0  0  0  0  0  0
  1  2  2  0  0  0  0
  2  3  1  0  0  0  0
  2 12  1  0  0  0  0
  3  4  1  0  0  0  0
  3 25  1  0  0  0  0
  4  5  1  0  0  0  0
  4 26  1  0  0  0  0
  4 27  1  0  0  0  0
  5  6  1  0  0  0  0
  5 28  1  0  0  0  0
  5 29  1  0  0  0  0
  6 11  1  0  0  0  0
  6  7  2  0  0  0  0
  7  8  1  0  0  0  0
  7 30  1  0  0  0  0
  8  9  2  0  0  0  0
  8 31  1  0  0  0  0
  9 10  1  0  0  0  0
 10 11  2  0  0  0  0
 10 32  1  0  0  0  0
 11 33  1  0  0  0  0
 12 24  1  0  0  0  0
 12 13  1  0  0  0  0
 13 14  1  0  0  0  0
 13 34  1  0  0  0  0
 13 35  1  0  0  0  0
 14 15  1  0  0  0  0
 14 36  1  0  0  0  0
 14 37  1  0  0  0  0
 15 16  1  0  0  0  0
 15 23  1  0  0  0  0
 15 53  1  0  0  0  0
 16 21  1  0  0  0  0
 16 17  1  0  0  0  0
 16 38  1  0  0  0  0
 17 18  1  0  0  0  0
 17 39  1  0  0  0  0
 17 40  1  0  0  0  0
 18 22  1  0  0  0  0
 18 19  1  0  0  0  0
 18 41  1  0  0  0  0
 19 20  1  0  0  0  0
 19 42  1  0  0  0  0
 19 43  1  0  0  0  0
 20 21  1  0  0  0  0
 20 44  1  0  0  0  0
 20 45  1  0  0  0  0
 21 22  1  0  0  0  0
 21 46  1  0  0  0  0
 22 47  1  0  0  0  0
 22 48  1  0  0  0  0
 23 24  1  0  0  0  0
 23 49  1  0  0  0  0
 23 50  1  0  0  0  0
 24 51  1  0  0  0  0
 24 52  1  0  0  0  0
M  CHG  1  15   1
M  END
> <s_m_source_file>
AV-unprocessed.smi

> <i_m_source_file_index>
2895

> <i_lp_mmshare_version>
43012

> <i_f3d_flags>
0

> <s_epik_input>
W0NIMl0xW0NIMl1bQ0BASF0oW0NIMl0yKVtDQEBIXShbQ0gyXVtDQEhdMTIpTihbQ0gyXVtDSDJdMylbQ0gyXVtDSDJdTjNDKD1PKVtOSF1bQ0gyXVtDSDJdYzRbY0hdW2NIXW5bY0hdW2NIXTQ=

> <s_epik_cmdline>
J2VwaWtfcHl0aG9uJywgJy1waCcsICc3LjAnLCAnLXRuJywgJzgnLCAnLW1hJywgJzIwMCcsICctbWV0YWxfYmluZGluZycsICctaW1hZScsICc8aW5maWxlLm1hZT4nLCAnLW9tYWUnLCAnPG91dGZpbGUubWFlPic=

> <r_epik_Ionization_Penalty>
0.0566172

> <r_epik_Ionization_Penalty_Charging>
0.00262064

> <r_epik_Ionization_Penalty_Neutral>
0.0539965

> <r_epik_State_Penalty>
0.0463959

> <r_epik_Charging_Adjusted_Penalty>
0.0490165

> <i_epik_Tot_Q>
1

> <i_epik_Tot_abs_Q>
1

> <r_epik_Metal_State_Penalty>
0.0424856

> <b_epik_Metal_Only>
0

> <s_lp_Force_Field>
OPLS_2005

> <r_lp_Energy>
101.263

> <b_lp_Chiralities_Consistent>
1

> <s_lp_Variant>
AV-unprocessed.smi:2895-2

> <Gold.Version>
5.8.1

> <Gold.Id.Protein>
6NUR|6NUR_protein|mol2

> <Gold.PLP.Fitness>
51.1303

> <Gold.PLP.PLP>
-49.8953

> <Gold.PLP.part.hbond>
-1.3162

> <Gold.PLP.part.metal>
0.0000

> <Gold.PLP.part.buried>
-7.5959

> <Gold.PLP.part.nonpolar>
-41.7756

> <Gold.PLP.part.repulsive>
0.3497

> <Gold.PLP.ligand.clash>
0.1284

> <Gold.PLP.ligand.torsion>
0.8848

> <Gold.PLP.Chemscore.Hbond>
1.0000

> <Gold.PLP.Chemscore.CHOScore>
0.0000

> <Gold.PLP.Chemscore.Metal>
0.0000

> <Gold.Chemscore.Hbonds>
donor molecule, donor type, donor heavy atom, donor atom, acceptor molecule, acceptor atom, score
      P1  H  6896  6909       L1     1  0.96

> <Gold.PLP.Chemscore.Internal.Correction>
0.1330

> <Gold.Rescore>
     Score         DG    S(hbond)    S(metal)    S(lipo)     H(rot)  DE(clash)    DE(int)     intcor
     21.31     -21.93       0.93        0.00     144.15       1.37       0.00       0.62       ----

> <Gold.Chemscore.Fitness>
21.3123

> <Gold.Chemscore.DG>
-21.9340

> <Gold.Chemscore.ZeroCoef>
-5.4800

> <Gold.Chemscore.Hbond>
0.9294

> <Gold.Chemscore.Metal>
0.0000

> <Gold.Chemscore.Lipo>
144.1467

> <Gold.Chemscore.Internal_Hbond>
0.0000

> <Gold.Chemscore.DEClash>
0.0048

> <Gold.Chemscore.DEInternal>
0.6169

> <Gold.Chemscore.Rot>
1.3731

> <Gold.Chemscore.Internal.Correction>
   9.000000E+99

> <Gold.Chemscore.Hbonds>
donor molecule, donor type, donor heavy atom, donor atom, acceptor molecule, acceptor atom, score
      P1  H  6896  6909       L1     1  0.92

> <Gold.Chemscore.Hbond.Weighted>
-3.1041

> <Gold.Chemscore.Metal.Weighted>
-0.0000

> <Gold.Chemscore.Lipo.Weighted>
-16.8652

> <Gold.Chemscore.Internal_Hbond.Weighted>
0.0000

> <Gold.Chemscore.DEClash.Weighted>
0.0048

> <Gold.Chemscore.DEInternal.Weighted>
0.6169

> <Gold.Chemscore.Rot.Weighted>
3.5152

> <Gold.Chemscore.Internal.Correction.Weighted>
   9.000000E+99

> <Gold.Protein.RotatedTorsions>
[ 6907 6896 6895 6894 ] final   87.92 input  -60.11 | X-H torsion
[ 7974 7965 7964 7962 ] final  -65.39 input  175.53 | X-H torsion
[ 8008 7997 7996 7995 ] final   14.43 input   59.86 | X-H torsion
[ 10167 10162 10161 10158 ] final   17.49 input  -65.29 | X-H torsion
[ 10718 10713 10712 10709 ] final  176.08 input   66.30 | X-H torsion
[ 10763 10752 10751 10750 ] final  177.49 input  -60.55 | X-H torsion
[ 11005 11000 10999 10996 ] final -172.36 input  -57.11 | X-H torsion

> <Gold.Protein.ActiveResidues>
 VAL166  LYS551  ARG553  GLY616  TRP617  ASP618  TYR619  PRO620  LYS621  CYS622 
 ASP623  PHE694  ASN695  SER759  ASP760  ASP761  ALA762  ILE779  LEU786  VAL792 
 PHE793  MET794  SER795  GLU796  ALA797  LYS798  CYS799  TRP800  GLU811  SER814 

> <Gold.Protein.RotatedAtoms>
  152.5418  134.2201  159.8783 H   0  0  0  0  0  0  0  0  0  0  0  0  # atno 6907 bound_to 6896
  151.2179  133.4512  159.2607 H   0  0  0  0  0  0  0  0  0  0  0  0  # atno 6908 bound_to 6896
  151.0834  134.9885  159.8423 H   0  0  0  0  0  0  0  0  0  0  0  0  # atno 6909 bound_to 6896
  145.7548  140.8891  143.0461 H   0  0  0  0  0  0  0  0  0  0  0  0  # atno 7974 bound_to 7965
  154.8484  140.2926  155.5614 H   0  0  0  0  0  0  0  0  0  0  0  0  # atno 8008 bound_to 7997
  156.3015  140.2500  156.3370 H   0  0  0  0  0  0  0  0  0  0  0  0  # atno 8009 bound_to 7997
  154.9048  140.0390  157.1903 H   0  0  0  0  0  0  0  0  0  0  0  0  # atno 8010 bound_to 7997
  140.5722  143.9140  150.6722 H   0  0  0  0  0  0  0  0  0  0  0  0  # atno 10167 bound_to 10162
  156.9254  130.9954  151.2997 H   0  0  0  0  0  0  0  0  0  0  0  0  # atno 10718 bound_to 10713
  154.4952  135.2781  155.1465 H   0  0  0  0  0  0  0  0  0  0  0  0  # atno 10763 bound_to 10752
  154.3121  135.6227  153.5473 H   0  0  0  0  0  0  0  0  0  0  0  0  # atno 10764 bound_to 10752
  152.9894  135.5722  154.5382 H   0  0  0  0  0  0  0  0  0  0  0  0  # atno 10765 bound_to 10752
  140.4979  134.5922  157.4977 H   0  0  0  0  0  0  0  0  0  0  0  0  # atno 11005 bound_to 11000
  144.6842  139.9641  143.7481 LP  0  0  0  0  0  0  0  0  0  0  0  0  # atno 17320 bound_to 7965
  146.0321  139.3345  143.0748 LP  0  0  0  0  0  0  0  0  0  0  0  0  # atno 17321 bound_to 7965
  140.2618  143.3518  152.1316 LP  0  0  0  0  0  0  0  0  0  0  0  0  # atno 17342 bound_to 10162
  139.5123  144.6915  151.5746 LP  0  0  0  0  0  0  0  0  0  0  0  0  # atno 17343 bound_to 10162
  157.5881  130.8424  149.8618 LP  0  0  0  0  0  0  0  0  0  0  0  0  # atno 17370 bound_to 10713
  156.0471  130.3725  150.1290 LP  0  0  0  0  0  0  0  0  0  0  0  0  # atno 17371 bound_to 10713
  139.9731  134.7261  156.0003 LP  0  0  0  0  0  0  0  0  0  0  0  0  # atno 17394 bound_to 11000
  141.1451  133.6557  156.3843 LP  0  0  0  0  0  0  0  0  0  0  0  0  # atno 17395 bound_to 11000

$$$$
