AV-unprocessed.smi:1306|AV-procd|sdf|5435|dock2
  -GOLD-   22720 5 03D 1   1.00000     0.00000
 Structure written by MMmdl.
 38 39  0  0  0  0  0  0  0  0  2 V2000
  152.4571  136.7550  159.8769 O   0  0  0  0  0  0  0  0  0  0  0  0
  153.4157  137.2888  160.4371 C   0  0  0  0  0  0  0  0  0  0  0  0
  154.0753  136.6344  161.6586 C   0  0  0  0  0  0  0  0  0  0  0  0
  155.3972  137.2021  161.9686 N   0  0  0  0  0  0  0  0  0  0  0  0
  155.5778  137.7877  163.2340 C   0  0  0  0  0  0  0  0  0  0  0  0
  156.7545  138.3266  163.6061 C   0  0  0  0  0  0  0  0  0  0  0  0
  157.8602  138.2927  162.6568 C   0  0  0  0  0  0  0  0  0  0  0  0
  158.9408  138.7829  162.9783 O   0  0  0  0  0  0  0  0  0  0  0  0
  157.6363  137.7108  161.4424 N   0  5  0  0  0  0  0  0  0  0  0  0
  156.4346  137.1646  161.0784 C   0  0  0  0  0  0  0  0  0  0  0  0
  156.2548  136.6425  159.9775 O   0  0  0  0  0  0  0  0  0  0  0  0
  153.9264  138.4662  160.0515 N   0  0  0  0  0  0  0  0  0  0  0  0
  153.4504  139.2386  158.9117 C   0  0  0  0  0  0  0  0  0  0  0  0
  152.3963  140.2657  159.3456 C   0  0  0  0  0  0  0  0  0  0  0  0
  153.1438  141.7055  160.1627 S   0  0  0  0  0  0  0  0  0  0  0  0
  151.9000  142.9756  159.7936 C   0  0  0  0  0  0  0  0  0  0  0  0
  151.9065  143.3877  158.3224 C   0  0  0  0  0  0  0  0  0  0  0  0
  151.2044  144.7472  158.3067 C   0  0  0  0  0  0  0  0  0  0  0  0
  151.4784  145.3795  159.6795 C   0  0  0  0  0  0  0  0  0  0  0  0
  152.1427  144.2928  160.5367 C   0  0  0  0  0  0  0  0  0  0  0  0
  153.4189  136.7214  162.5267 H   0  0  0  0  0  0  0  0  0  0  0  0
  154.1557  135.5637  161.4667 H   0  0  0  0  0  0  0  0  0  0  0  0
  154.7116  137.7664  163.8789 H   0  0  0  0  0  0  0  0  0  0  0  0
  156.8778  138.7701  164.5831 H   0  0  0  0  0  0  0  0  0  0  0  0
  154.7147  138.8364  160.5624 H   0  0  0  0  0  0  0  0  0  0  0  0
  154.2892  139.7412  158.4275 H   0  0  0  0  0  0  0  0  0  0  0  0
  153.0181  138.5575  158.1772 H   0  0  0  0  0  0  0  0  0  0  0  0
  151.8436  140.6148  158.4732 H   0  0  0  0  0  0  0  0  0  0  0  0
  151.6729  139.8010  160.0158 H   0  0  0  0  0  0  0  0  0  0  0  0
  150.9115  142.5897  160.0476 H   0  0  0  0  0  0  0  0  0  0  0  0
  152.9331  143.5050  157.9722 H   0  0  0  0  0  0  0  0  0  0  0  0
  151.4170  142.6560  157.6791 H   0  0  0  0  0  0  0  0  0  0  0  0
  151.5495  145.3752  157.4849 H   0  0  0  0  0  0  0  0  0  0  0  0
  150.1307  144.6035  158.1797 H   0  0  0  0  0  0  0  0  0  0  0  0
  152.1289  146.2504  159.5929 H   0  0  0  0  0  0  0  0  0  0  0  0
  150.5447  145.7148  160.1321 H   0  0  0  0  0  0  0  0  0  0  0  0
  151.7514  144.2740  161.5542 H   0  0  0  0  0  0  0  0  0  0  0  0
  153.2135  144.4917  160.6010 H   0  0  0  0  0  0  0  0  0  0  0  0
  1  2  2  0  0  0  0
  2  3  1  0  0  0  0
  2 12  1  0  0  0  0
  3  4  1  0  0  0  0
  3 21  1  0  0  0  0
  3 22  1  0  0  0  0
  4 10  1  0  0  0  0
  4  5  1  0  0  0  0
  5  6  2  0  0  0  0
  5 23  1  0  0  0  0
  6  7  1  0  0  0  0
  6 24  1  0  0  0  0
  7  8  2  0  0  0  0
  7  9  1  0  0  0  0
  9 10  1  0  0  0  0
 10 11  2  0  0  0  0
 12 13  1  0  0  0  0
 12 25  1  0  0  0  0
 13 14  1  0  0  0  0
 13 26  1  0  0  0  0
 13 27  1  0  0  0  0
 14 15  1  0  0  0  0
 14 28  1  0  0  0  0
 14 29  1  0  0  0  0
 15 16  1  0  0  0  0
 16 20  1  0  0  0  0
 16 17  1  0  0  0  0
 16 30  1  0  0  0  0
 17 18  1  0  0  0  0
 17 31  1  0  0  0  0
 17 32  1  0  0  0  0
 18 19  1  0  0  0  0
 18 33  1  0  0  0  0
 18 34  1  0  0  0  0
 19 20  1  0  0  0  0
 19 35  1  0  0  0  0
 19 36  1  0  0  0  0
 20 37  1  0  0  0  0
 20 38  1  0  0  0  0
M  CHG  1   9  -1
M  END
> <s_m_source_file>
AV-unprocessed.smi

> <i_m_source_file_index>
1306

> <i_lp_mmshare_version>
43012

> <i_f3d_flags>
0

> <s_epik_input>
Tz1jMVtuSF1jKD1PKVtjSF1bY0hdbjFbQ0gyXUMoPU8pW05IXVtDSDJdW0NIMl1TW0NIXTJbQ0gyXVtDSDJdW0NIMl1bQ0gyXTI=

> <s_epik_cmdline>
J2VwaWtfcHl0aG9uJywgJy1waCcsICc3LjAnLCAnLXRuJywgJzgnLCAnLW1hJywgJzIwMCcsICctbWV0YWxfYmluZGluZycsICctaW1hZScsICc8aW5maWxlLm1hZT4nLCAnLW9tYWUnLCAnPG91dGZpbGUubWFlPic=

> <r_lp_tautomer_probability>
0.999537

> <r_epik_Ionization_Penalty>
3.06336

> <r_epik_Ionization_Penalty_Charging>
2.63481e-08

> <r_epik_Ionization_Penalty_Neutral>
3.06336

> <r_epik_State_Penalty>
3.06238

> <r_epik_Charging_Adjusted_Penalty>
3.06238

> <i_epik_Tot_Q>
-1

> <i_epik_Tot_abs_Q>
1

> <r_epik_Metal_State_Penalty>
0.458539

> <b_epik_Metal_Only>
1

> <s_lp_Force_Field>
OPLS_2005

> <r_lp_Energy>
29.7989

> <b_lp_Chiralities_Consistent>
1

> <s_lp_Variant>
AV-unprocessed.smi:1306-2

> <Gold.Version>
5.8.1

> <Gold.Id.Protein>
6NUR|6NUR_protein|mol2

> <Gold.PLP.Fitness>
44.8555

> <Gold.PLP.PLP>
-43.2325

> <Gold.PLP.part.hbond>
-0.9186

> <Gold.PLP.part.metal>
0.0000

> <Gold.PLP.part.buried>
-5.2217

> <Gold.PLP.part.nonpolar>
-37.1355

> <Gold.PLP.part.repulsive>
0.0027

> <Gold.PLP.ligand.clash>
0.0000

> <Gold.PLP.ligand.torsion>
0.6695

> <Gold.PLP.Chemscore.Hbond>
0.9588

> <Gold.PLP.Chemscore.CHOScore>
0.0000

> <Gold.PLP.Chemscore.Metal>
0.0000

> <Gold.Chemscore.Hbonds>
donor molecule, donor type, donor heavy atom, donor atom, acceptor molecule, acceptor atom, score
      P1  H  6896  6909       L1     1  1.00

> <Gold.PLP.Chemscore.Internal.Correction>
0.0858

> <Gold.Rescore>
     Score         DG    S(hbond)    S(metal)    S(lipo)     H(rot)  DE(clash)    DE(int)     intcor
     14.51     -15.33       0.99        0.00     107.80       2.38       0.06       0.76       ----

> <Gold.Chemscore.Fitness>
14.5116

> <Gold.Chemscore.DG>
-15.3279

> <Gold.Chemscore.ZeroCoef>
-5.4800

> <Gold.Chemscore.Hbond>
0.9937

> <Gold.Chemscore.Metal>
0.0000

> <Gold.Chemscore.Lipo>
107.8049

> <Gold.Chemscore.Internal_Hbond>
0.0000

> <Gold.Chemscore.DEClash>
0.0551

> <Gold.Chemscore.DEInternal>
0.7612

> <Gold.Chemscore.Rot>
2.3767

> <Gold.Chemscore.Internal.Correction>
   9.000000E+99

> <Gold.Chemscore.Hbonds>
donor molecule, donor type, donor heavy atom, donor atom, acceptor molecule, acceptor atom, score
      P1  H  6896  6909       L1     1  1.00

> <Gold.Chemscore.Hbond.Weighted>
-3.3191

> <Gold.Chemscore.Metal.Weighted>
-0.0000

> <Gold.Chemscore.Lipo.Weighted>
-12.6132

> <Gold.Chemscore.Internal_Hbond.Weighted>
0.0000

> <Gold.Chemscore.DEClash.Weighted>
0.0551

> <Gold.Chemscore.DEInternal.Weighted>
0.7612

> <Gold.Chemscore.Rot.Weighted>
6.0844

> <Gold.Chemscore.Internal.Correction.Weighted>
   9.000000E+99

> <Gold.Protein.RotatedTorsions>
[ 6907 6896 6895 6894 ] final  145.44 input  -60.11 | X-H torsion
[ 7974 7965 7964 7962 ] final   21.70 input  175.53 | X-H torsion
[ 8008 7997 7996 7995 ] final   97.04 input   59.86 | X-H torsion
[ 10167 10162 10161 10158 ] final   69.46 input  -65.29 | X-H torsion
[ 10718 10713 10712 10709 ] final  -31.45 input   66.30 | X-H torsion
[ 10763 10752 10751 10750 ] final  -82.95 input  -60.55 | X-H torsion
[ 11005 11000 10999 10996 ] final  -84.09 input  -57.11 | X-H torsion

> <Gold.Protein.ActiveResidues>
 VAL166  LYS551  ARG553  GLY616  TRP617  ASP618  TYR619  PRO620  LYS621  CYS622 
 ASP623  PHE694  ASN695  SER759  ASP760  ASP761  ALA762  ILE779  LEU786  VAL792 
 PHE793  MET794  SER795  GLU796  ALA797  LYS798  CYS799  TRP800  GLU811  SER814 

> <Gold.Protein.RotatedAtoms>
  152.1808  133.4706  159.4956 H   0  0  0  0  0  0  0  0  0  0  0  0  # atno 6907 bound_to 6896
  150.6934  134.1836  159.4267 H   0  0  0  0  0  0  0  0  0  0  0  0  # atno 6908 bound_to 6896
  151.9747  135.0059  160.0605 H   0  0  0  0  0  0  0  0  0  0  0  0  # atno 6909 bound_to 6896
  146.2060  139.7990  142.8725 H   0  0  0  0  0  0  0  0  0  0  0  0  # atno 7974 bound_to 7965
  156.0860  140.3264  155.7754 H   0  0  0  0  0  0  0  0  0  0  0  0  # atno 8008 bound_to 7997
  155.5075  140.0574  157.2946 H   0  0  0  0  0  0  0  0  0  0  0  0  # atno 8009 bound_to 7997
  154.4609  140.1966  156.0263 H   0  0  0  0  0  0  0  0  0  0  0  0  # atno 8010 bound_to 7997
  140.0676  144.5180  150.7250 H   0  0  0  0  0  0  0  0  0  0  0  0  # atno 10167 bound_to 10162
  156.3871  130.4366  149.7423 H   0  0  0  0  0  0  0  0  0  0  0  0  # atno 10718 bound_to 10713
  154.5819  135.5573  153.7193 H   0  0  0  0  0  0  0  0  0  0  0  0  # atno 10763 bound_to 10752
  153.0084  135.6322  154.1970 H   0  0  0  0  0  0  0  0  0  0  0  0  # atno 10764 bound_to 10752
  154.1911  135.2882  155.3001 H   0  0  0  0  0  0  0  0  0  0  0  0  # atno 10765 bound_to 10752
  141.1653  133.7328  156.8817 H   0  0  0  0  0  0  0  0  0  0  0  0  # atno 11005 bound_to 11000
  145.3317  141.0268  143.3443 LP  0  0  0  0  0  0  0  0  0  0  0  0  # atno 17320 bound_to 7965
  144.8794  139.4925  143.6730 LP  0  0  0  0  0  0  0  0  0  0  0  0  # atno 17321 bound_to 7965
  140.7141  143.2530  151.4488 LP  0  0  0  0  0  0  0  0  0  0  0  0  # atno 17342 bound_to 10162
  139.5855  144.1613  152.2024 LP  0  0  0  0  0  0  0  0  0  0  0  0  # atno 17343 bound_to 10162
  156.4491  130.7898  151.2919 LP  0  0  0  0  0  0  0  0  0  0  0  0  # atno 17370 bound_to 10713
  157.7496  131.0101  150.3292 LP  0  0  0  0  0  0  0  0  0  0  0  0  # atno 17371 bound_to 10713
  140.1710  134.9100  157.2833 LP  0  0  0  0  0  0  0  0  0  0  0  0  # atno 17394 bound_to 11000
  140.2502  134.3692  155.7445 LP  0  0  0  0  0  0  0  0  0  0  0  0  # atno 17395 bound_to 11000

$$$$
