AV-unprocessed.smi:2093|AV-procd|sdf|8544|dock1
  -GOLD-   2272011263D 1   1.00000     0.00000
 Structure written by MMmdl.
 31 32  0  0  0  0  0  0  0  0  1 V2000
  151.8812  145.0168  158.5090 C   0  0  0  0  0  0  0  0  0  0  0  0
  151.9266  143.6024  157.9106 C   0  0  2  0  0  0  0  0  0  0  0  0
  150.7401  143.4043  157.0806 N   0  0  0  0  0  0  0  0  0  0  0  0
  150.4633  142.3129  156.3518 C   0  0  0  0  0  0  0  0  0  0  0  0
  151.2049  141.3327  156.2792 O   0  0  0  0  0  0  0  0  0  0  0  0
  149.2811  142.4389  155.7239 N   0  0  0  0  0  0  0  0  0  0  0  0
  148.6392  141.5092  154.8645 C   0  0  0  0  0  0  0  0  0  0  0  0
  149.1255  140.2997  154.5613 N   0  0  0  0  0  0  0  0  0  0  0  0
  148.2847  139.5989  153.6929 C   0  0  0  0  0  0  0  0  0  0  0  0
  147.1549  140.2948  153.3421 C   0  0  0  0  0  0  0  0  0  0  0  0
  147.1014  141.8677  154.0925 S   0  0  0  0  0  0  0  0  0  0  0  0
  151.9783  142.5065  158.9927 C   0  0  2  0  0  0  0  0  0  0  0  0
  152.9641  142.7746  160.1319 C   0  0  0  0  0  0  0  0  0  0  0  0
  153.3280  141.3848  160.6332 C   0  0  0  0  0  0  0  0  0  0  0  0
  152.8034  140.4448  159.5451 C   0  0  0  0  0  0  0  0  0  0  0  0
  152.4789  141.2925  158.4533 O   0  0  0  0  0  0  0  0  0  0  0  0
  152.7714  145.2260  159.1024 H   0  0  0  0  0  0  0  0  0  0  0  0
  151.0120  145.1477  159.1545 H   0  0  0  0  0  0  0  0  0  0  0  0
  151.8299  145.7721  157.7241 H   0  0  0  0  0  0  0  0  0  0  0  0
  152.8305  143.5263  157.3036 H   0  0  0  0  0  0  0  0  0  0  0  0
  150.0658  144.1553  157.0769 H   0  0  0  0  0  0  0  0  0  0  0  0
  148.7795  143.3002  155.8815 H   0  0  0  0  0  0  0  0  0  0  0  0
  148.5687  138.6069  153.3741 H   0  0  0  0  0  0  0  0  0  0  0  0
  146.3541  139.9785  152.6904 H   0  0  0  0  0  0  0  0  0  0  0  0
  150.9816  142.3246  159.4003 H   0  0  0  0  0  0  0  0  0  0  0  0
  153.8587  143.2680  159.7493 H   0  0  0  0  0  0  0  0  0  0  0  0
  152.5404  143.4067  160.9127 H   0  0  0  0  0  0  0  0  0  0  0  0
  154.4072  141.2899  160.7587 H   0  0  0  0  0  0  0  0  0  0  0  0
  152.8576  141.1664  161.5925 H   0  0  0  0  0  0  0  0  0  0  0  0
  153.5341  139.6896  159.2541 H   0  0  0  0  0  0  0  0  0  0  0  0
  151.9007  139.9333  159.8823 H   0  0  0  0  0  0  0  0  0  0  0  0
  1  2  1  0  0  0  0
  1 17  1  0  0  0  0
  1 18  1  0  0  0  0
  1 19  1  0  0  0  0
  2  3  1  0  0  0  0
  2 12  1  0  0  0  0
  2 20  1  0  0  0  0
  3  4  1  0  0  0  0
  3 21  1  0  0  0  0
  4  5  2  0  0  0  0
  4  6  1  0  0  0  0
  6  7  1  0  0  0  0
  6 22  1  0  0  0  0
  7 11  1  0  0  0  0
  7  8  2  0  0  0  0
  8  9  1  0  0  0  0
  9 10  2  0  0  0  0
  9 23  1  0  0  0  0
 10 11  1  0  0  0  0
 10 24  1  0  0  0  0
 12 16  1  0  0  0  0
 12 13  1  0  0  0  0
 12 25  1  0  0  0  0
 13 14  1  0  0  0  0
 13 26  1  0  0  0  0
 13 27  1  0  0  0  0
 14 15  1  0  0  0  0
 14 28  1  0  0  0  0
 14 29  1  0  0  0  0
 15 16  1  0  0  0  0
 15 30  1  0  0  0  0
 15 31  1  0  0  0  0
M  END
> <s_m_source_file>
AV-unprocessed.smi

> <i_m_source_file_index>
2093

> <i_lp_mmshare_version>
43012

> <i_f3d_flags>
0

> <s_epik_input>
TzFbQ0gyXVtDSDJdW0NIMl1bQ0BIXTFbQ0BIXShbQ0gzXSlbTkhdQyg9TylbTkhdYzJuW2NIXVtjSF1zMg==

> <s_epik_cmdline>
J2VwaWtfcHl0aG9uJywgJy1waCcsICc3LjAnLCAnLXRuJywgJzgnLCAnLW1hJywgJzIwMCcsICctbWV0YWxfYmluZGluZycsICctaW1hZScsICc8aW5maWxlLm1hZT4nLCAnLW9tYWUnLCAnPG91dGZpbGUubWFlPic=

> <r_lp_tautomer_probability>
0.999

> <r_epik_Ionization_Penalty>
0.000334433

> <r_epik_Ionization_Penalty_Charging>
0

> <r_epik_Ionization_Penalty_Neutral>
0.000334433

> <r_epik_State_Penalty>
0.000177984

> <r_epik_Charging_Adjusted_Penalty>
0.000177984

> <i_epik_Tot_Q>
0

> <i_epik_Tot_abs_Q>
0

> <r_epik_Metal_State_Penalty>
0.00767616

> <b_epik_Metal_Only>
0

> <s_lp_Force_Field>
OPLS_2005

> <r_lp_Energy>
16.8099

> <b_lp_Chiralities_Consistent>
1

> <s_lp_Variant>
AV-unprocessed.smi:2093-1

> <Gold.Version>
5.8.1

> <Gold.Id.Protein>
6NUR|6NUR_protein|mol2

> <Gold.PLP.Fitness>
43.1760

> <Gold.PLP.PLP>
-32.5680

> <Gold.PLP.part.hbond>
-2.0000

> <Gold.PLP.part.metal>
0.0000

> <Gold.PLP.part.buried>
-4.1604

> <Gold.PLP.part.nonpolar>
-26.6811

> <Gold.PLP.part.repulsive>
0.3593

> <Gold.PLP.ligand.clash>
0.0000

> <Gold.PLP.ligand.torsion>
0.2930

> <Gold.PLP.Chemscore.Hbond>
1.8960

> <Gold.PLP.Chemscore.CHOScore>
1.8234

> <Gold.PLP.Chemscore.Metal>
0.0000

> <Gold.Chemscore.Hbonds>
donor molecule, donor type, donor heavy atom, donor atom, acceptor molecule, acceptor atom, score
      L1  H     3    21       P1  8028  0.61
      L1  H     6    22       P1  8028  0.65
      L1  C     9    23       P1  7948  0.28
      L1  C     9    23       P1  7957  0.01
      L1  C    10    24       P1 10175  0.53

> <Gold.PLP.Chemscore.Internal.Correction>
0.0360

> <Gold.Rescore>
     Score         DG    S(hbond)    S(metal)    S(lipo)     H(rot)  DE(clash)    DE(int)     intcor
     14.45     -17.81       1.73        0.00      84.27       1.29       0.06       3.30       ----

> <Gold.Chemscore.Fitness>
14.4516

> <Gold.Chemscore.DG>
-17.8102

> <Gold.Chemscore.ZeroCoef>
-5.4800

> <Gold.Chemscore.Hbond>
1.7313

> <Gold.Chemscore.Metal>
0.0000

> <Gold.Chemscore.Lipo>
84.2729

> <Gold.Chemscore.Internal_Hbond>
0.0000

> <Gold.Chemscore.DEClash>
0.0620

> <Gold.Chemscore.DEInternal>
3.2966

> <Gold.Chemscore.Rot>
1.2938

> <Gold.Chemscore.Internal.Correction>
   9.000000E+99

> <Gold.Chemscore.Hbonds>
donor molecule, donor type, donor heavy atom, donor atom, acceptor molecule, acceptor atom, score
      L1  H     3    21       P1  8028  0.51
      L1  H     6    22       P1  8028  0.62

> <Gold.Chemscore.Hbond.Weighted>
-5.7824

> <Gold.Chemscore.Metal.Weighted>
-0.0000

> <Gold.Chemscore.Lipo.Weighted>
-9.8599

> <Gold.Chemscore.Internal_Hbond.Weighted>
0.0000

> <Gold.Chemscore.DEClash.Weighted>
0.0620

> <Gold.Chemscore.DEInternal.Weighted>
3.2966

> <Gold.Chemscore.Rot.Weighted>
3.3122

> <Gold.Chemscore.Internal.Correction.Weighted>
   9.000000E+99

> <Gold.Protein.RotatedTorsions>
[ 6907 6896 6895 6894 ] final -142.84 input  -60.11 | X-H torsion
[ 7974 7965 7964 7962 ] final   26.15 input  175.53 | X-H torsion
[ 8008 7997 7996 7995 ] final  100.70 input   59.86 | X-H torsion
[ 10167 10162 10161 10158 ] final  175.69 input  -65.29 | X-H torsion
[ 10718 10713 10712 10709 ] final  -77.75 input   66.30 | X-H torsion
[ 10763 10752 10751 10750 ] final   88.52 input  -60.55 | X-H torsion
[ 11005 11000 10999 10996 ] final -103.27 input  -57.11 | X-H torsion

> <Gold.Protein.ActiveResidues>
 VAL166  LYS551  ARG553  GLY616  TRP617  ASP618  TYR619  PRO620  LYS621  CYS622 
 ASP623  PHE694  ASN695  SER759  ASP760  ASP761  ALA762  ILE779  LEU786  VAL792 
 PHE793  MET794  SER795  GLU796  ALA797  LYS798  CYS799  TRP800  GLU811  SER814 

> <Gold.Protein.RotatedAtoms>
  151.0924  133.5306  159.2614 H   0  0  0  0  0  0  0  0  0  0  0  0  # atno 6907 bound_to 6896
  151.2168  135.0502  159.8943 H   0  0  0  0  0  0  0  0  0  0  0  0  # atno 6908 bound_to 6896
  152.5435  134.0732  159.8256 H   0  0  0  0  0  0  0  0  0  0  0  0  # atno 6909 bound_to 6896
  146.1852  139.7368  142.8871 H   0  0  0  0  0  0  0  0  0  0  0  0  # atno 7974 bound_to 7965
  156.1229  140.3209  155.8234 H   0  0  0  0  0  0  0  0  0  0  0  0  # atno 8008 bound_to 7997
  155.4472  140.0530  157.3022 H   0  0  0  0  0  0  0  0  0  0  0  0  # atno 8009 bound_to 7997
  154.4841  140.2065  155.9710 H   0  0  0  0  0  0  0  0  0  0  0  0  # atno 8010 bound_to 7997
  139.5186  144.3002  152.0386 H   0  0  0  0  0  0  0  0  0  0  0  0  # atno 10167 bound_to 10162
  156.0136  130.4499  150.3392 H   0  0  0  0  0  0  0  0  0  0  0  0  # atno 10718 bound_to 10713
  153.1777  135.4504  154.9987 H   0  0  0  0  0  0  0  0  0  0  0  0  # atno 10763 bound_to 10752
  154.8009  135.3255  154.7554 H   0  0  0  0  0  0  0  0  0  0  0  0  # atno 10764 bound_to 10752
  153.8022  135.6961  153.4909 H   0  0  0  0  0  0  0  0  0  0  0  0  # atno 10765 bound_to 10752
  141.1153  133.8626  157.1465 H   0  0  0  0  0  0  0  0  0  0  0  0  # atno 11005 bound_to 11000
  145.3959  141.0379  143.3098 LP  0  0  0  0  0  0  0  0  0  0  0  0  # atno 17320 bound_to 7965
  144.8385  139.5511  143.6911 LP  0  0  0  0  0  0  0  0  0  0  0  0  # atno 17321 bound_to 7965
  140.2449  144.4230  150.6245 LP  0  0  0  0  0  0  0  0  0  0  0  0  # atno 17342 bound_to 10162
  140.6265  143.2182  151.6586 LP  0  0  0  0  0  0  0  0  0  0  0  0  # atno 17343 bound_to 10162
  157.1488  131.0315  151.2894 LP  0  0  0  0  0  0  0  0  0  0  0  0  # atno 17370 bound_to 10713
  157.4410  130.7544  149.7069 LP  0  0  0  0  0  0  0  0  0  0  0  0  # atno 17371 bound_to 10713
  140.0071  135.0004  157.0316 LP  0  0  0  0  0  0  0  0  0  0  0  0  # atno 17394 bound_to 11000
  140.4663  134.1432  155.7197 LP  0  0  0  0  0  0  0  0  0  0  0  0  # atno 17395 bound_to 11000

$$$$
