AV-unprocessed.smi:1224|AV-procd|sdf|5128|dock10
  -GOLD-   22720 4183D 1   1.00000     0.00000
 Structure written by MMmdl.
 44 46  0  0  0  0  0  0  0  0  2 V2000
  153.4600  142.4085  160.5880 C   0  0  0  0  0  0  0  0  0  0  0  0
  152.4858  142.1349  159.4558 C   0  0  0  0  0  0  0  0  0  0  0  0
  152.4603  140.8505  158.8669 C   0  0  0  0  0  0  0  0  0  0  0  0
  151.5649  140.5533  157.8163 C   0  0  0  0  0  0  0  0  0  0  0  0
  151.3688  139.3817  157.1058 N   0  0  0  0  0  0  0  0  0  0  0  0
  150.3971  139.7340  156.2693 C   0  0  0  0  0  0  0  0  0  0  0  0
  149.9345  140.9962  156.3592 N   0  0  0  0  0  0  0  0  0  0  0  0
  148.8776  141.6023  155.5693 C   0  0  0  0  0  0  0  0  0  0  0  0
  148.5778  140.8060  154.2845 C   0  0  2  0  0  0  0  0  0  0  0  0
  149.7254  140.8052  153.4563 O   0  0  0  0  0  0  0  0  0  0  0  0
  147.4045  141.4058  153.4940 C   0  0  0  0  0  0  0  0  0  0  0  0
  146.1088  141.0307  154.0996 N   0  3  0  0  0  0  0  0  0  0  0  0
  145.5793  141.9915  155.0889 C   0  0  0  0  0  0  0  0  0  0  0  0
  145.1175  143.2631  154.4539 C   0  0  0  0  0  0  0  0  0  0  0  0
  145.5296  143.8068  153.2634 C   0  0  0  0  0  0  0  0  0  0  0  0
  144.8664  145.0283  152.9461 C   0  0  0  0  0  0  0  0  0  0  0  0
  143.9562  145.4013  153.8991 C   0  0  0  0  0  0  0  0  0  0  0  0
  143.8970  144.2566  155.2106 S   0  0  0  0  0  0  0  0  0  0  0  0
  150.6876  141.5842  157.3692 C   0  0  0  0  0  0  0  0  0  0  0  0
  150.7072  142.8676  157.9431 C   0  0  0  0  0  0  0  0  0  0  0  0
  151.6085  143.1476  158.9912 C   0  0  0  0  0  0  0  0  0  0  0  0
  151.6208  144.5359  159.6064 C   0  0  0  0  0  0  0  0  0  0  0  0
  154.0900  141.5416  160.7893 H   0  0  0  0  0  0  0  0  0  0  0  0
  152.9204  142.6504  161.5039 H   0  0  0  0  0  0  0  0  0  0  0  0
  154.1132  143.2451  160.3394 H   0  0  0  0  0  0  0  0  0  0  0  0
  153.1292  140.0794  159.2199 H   0  0  0  0  0  0  0  0  0  0  0  0
  149.9916  139.0315  155.5557 H   0  0  0  0  0  0  0  0  0  0  0  0
  147.9841  141.6680  156.1917 H   0  0  0  0  0  0  0  0  0  0  0  0
  149.1655  142.6264  155.3264 H   0  0  0  0  0  0  0  0  0  0  0  0
  148.3466  139.7734  154.5501 H   0  0  0  0  0  0  0  0  0  0  0  0
  149.5814  140.2002  152.7437 H   0  0  0  0  0  0  0  0  0  0  0  0
  147.4783  142.4942  153.4881 H   0  0  0  0  0  0  0  0  0  0  0  0
  147.4495  141.0780  152.4545 H   0  0  0  0  0  0  0  0  0  0  0  0
  145.4297  140.9296  153.3584 H   0  0  0  0  0  0  0  0  0  0  0  0
  144.7428  141.5210  155.6061 H   0  0  0  0  0  0  0  0  0  0  0  0
  146.3387  142.1931  155.8456 H   0  0  0  0  0  0  0  0  0  0  0  0
  146.2754  143.3736  152.6132 H   0  0  0  0  0  0  0  0  0  0  0  0
  145.0767  145.5825  152.0431 H   0  0  0  0  0  0  0  0  0  0  0  0
  143.3204  146.2748  153.9111 H   0  0  0  0  0  0  0  0  0  0  0  0
  150.0333  143.6294  157.5807 H   0  0  0  0  0  0  0  0  0  0  0  0
  150.8759  145.1835  159.1432 H   0  0  0  0  0  0  0  0  0  0  0  0
  152.5972  145.0025  159.4752 H   0  0  0  0  0  0  0  0  0  0  0  0
  151.4019  144.4836  160.6731 H   0  0  0  0  0  0  0  0  0  0  0  0
  146.2231  140.1360  154.5538 H   0  0  0  0  0  0  0  0  0  0  0  0
  1  2  1  0  0  0  0
  1 23  1  0  0  0  0
  1 24  1  0  0  0  0
  1 25  1  0  0  0  0
  2 21  1  0  0  0  0
  2  3  2  0  0  0  0
  3  4  1  0  0  0  0
  3 26  1  0  0  0  0
  4 19  2  0  0  0  0
  4  5  1  0  0  0  0
  5  6  2  0  0  0  0
  6  7  1  0  0  0  0
  6 27  1  0  0  0  0
  7  8  1  0  0  0  0
  7 19  1  0  0  0  0
  8  9  1  0  0  0  0
  8 28  1  0  0  0  0
  8 29  1  0  0  0  0
  9 10  1  0  0  0  0
  9 11  1  0  0  0  0
  9 30  1  0  0  0  0
 10 31  1  0  0  0  0
 11 12  1  0  0  0  0
 11 32  1  0  0  0  0
 11 33  1  0  0  0  0
 12 13  1  0  0  0  0
 12 34  1  0  0  0  0
 12 44  1  0  0  0  0
 13 14  1  0  0  0  0
 13 35  1  0  0  0  0
 13 36  1  0  0  0  0
 14 18  1  0  0  0  0
 14 15  2  0  0  0  0
 15 16  1  0  0  0  0
 15 37  1  0  0  0  0
 16 17  2  0  0  0  0
 16 38  1  0  0  0  0
 17 18  1  0  0  0  0
 17 39  1  0  0  0  0
 19 20  1  0  0  0  0
 20 21  2  0  0  0  0
 20 40  1  0  0  0  0
 21 22  1  0  0  0  0
 22 41  1  0  0  0  0
 22 42  1  0  0  0  0
 22 43  1  0  0  0  0
M  CHG  1  12   1
M  END
> <s_m_source_file>
AV-unprocessed.smi

> <i_m_source_file_index>
1224

> <i_lp_mmshare_version>
43012

> <i_f3d_flags>
0

> <s_epik_input>
W0NIM11jKFtjSF0xKWMoW0NIM10pW2NIXWMoYzEyKW4oW2NIXW4yKVtDSDJdW0NASF0oW09IXSlbQ0gyXVtOSF1bQ0gyXWMzW2NIXVtjSF1bY0hdczM=

> <s_epik_cmdline>
J2VwaWtfcHl0aG9uJywgJy1waCcsICc3LjAnLCAnLXRuJywgJzgnLCAnLW1hJywgJzIwMCcsICctbWV0YWxfYmluZGluZycsICctaW1hZScsICc8aW5maWxlLm1hZT4nLCAnLW9tYWUnLCAnPG91dGZpbGUubWFlPic=

> <r_epik_Ionization_Penalty>
0.145091

> <r_epik_Ionization_Penalty_Charging>
0.0551904

> <r_epik_Ionization_Penalty_Neutral>
0.0899003

> <r_epik_State_Penalty>
0.131364

> <r_epik_Charging_Adjusted_Penalty>
0.186554

> <i_epik_Tot_Q>
1

> <i_epik_Tot_abs_Q>
1

> <r_epik_Metal_State_Penalty>
0.0472291

> <b_epik_Metal_Only>
0

> <s_lp_Force_Field>
OPLS_2005

> <r_lp_Energy>
7.24279

> <b_lp_Chiralities_Consistent>
1

> <s_lp_Variant>
AV-unprocessed.smi:1224-1

> <Gold.Version>
5.8.1

> <Gold.Id.Protein>
6NUR|6NUR_protein|mol2

> <Gold.PLP.Fitness>
62.8359

> <Gold.PLP.PLP>
-52.5271

> <Gold.PLP.part.hbond>
-3.4611

> <Gold.PLP.part.metal>
0.0000

> <Gold.PLP.part.buried>
-6.2637

> <Gold.PLP.part.nonpolar>
-43.2947

> <Gold.PLP.part.repulsive>
0.0000

> <Gold.PLP.ligand.clash>
0.0000

> <Gold.PLP.ligand.torsion>
0.9953

> <Gold.PLP.Chemscore.Hbond>
4.0880

> <Gold.PLP.Chemscore.CHOScore>
0.0000

> <Gold.PLP.Chemscore.Metal>
0.0000

> <Gold.Chemscore.Hbonds>
donor molecule, donor type, donor heavy atom, donor atom, acceptor molecule, acceptor atom, score
      L1  H    10    31       P1  7957  0.88
      L1  H    12    34       P1 10175  2.00
      P1  H  7989  7998       L1    10  0.32
      P1  H  8011  8017       L1    10  0.75

> <Gold.PLP.Chemscore.Internal.Correction>
0.0354

> <Gold.Rescore>
     Score         DG    S(hbond)    S(metal)    S(lipo)     H(rot)  DE(clash)    DE(int)     intcor
     21.23     -23.02       2.22        0.00     139.53       2.42       0.14       1.64       ----

> <Gold.Chemscore.Fitness>
21.2306

> <Gold.Chemscore.DG>
-23.0175

> <Gold.Chemscore.ZeroCoef>
-5.4800

> <Gold.Chemscore.Hbond>
2.2211

> <Gold.Chemscore.Metal>
0.0000

> <Gold.Chemscore.Lipo>
139.5254

> <Gold.Chemscore.Internal_Hbond>
0.0000

> <Gold.Chemscore.DEClash>
0.1443

> <Gold.Chemscore.DEInternal>
1.6426

> <Gold.Chemscore.Rot>
2.4240

> <Gold.Chemscore.Internal.Correction>
   9.000000E+99

> <Gold.Chemscore.Hbonds>
donor molecule, donor type, donor heavy atom, donor atom, acceptor molecule, acceptor atom, score
      L1  H    10    31       P1  7957  0.85
      L1  H    12    34       P1 10175  0.62
      P1  H  7989  7998       L1    10  0.08
      P1  H  8011  8017       L1    10  0.07

> <Gold.Chemscore.Hbond.Weighted>
-7.4185

> <Gold.Chemscore.Metal.Weighted>
-0.0000

> <Gold.Chemscore.Lipo.Weighted>
-16.3245

> <Gold.Chemscore.Internal_Hbond.Weighted>
0.0000

> <Gold.Chemscore.DEClash.Weighted>
0.1443

> <Gold.Chemscore.DEInternal.Weighted>
1.6426

> <Gold.Chemscore.Rot.Weighted>
6.2055

> <Gold.Chemscore.Internal.Correction.Weighted>
   9.000000E+99

> <Gold.Protein.RotatedTorsions>
[ 6907 6896 6895 6894 ] final   83.69 input  -60.11 | X-H torsion
[ 7974 7965 7964 7962 ] final   63.83 input  175.53 | X-H torsion
[ 8008 7997 7996 7995 ] final  -44.78 input   59.86 | X-H torsion
[ 10167 10162 10161 10158 ] final  168.42 input  -65.29 | X-H torsion
[ 10718 10713 10712 10709 ] final  -79.02 input   66.30 | X-H torsion
[ 10763 10752 10751 10750 ] final  -11.40 input  -60.55 | X-H torsion
[ 11005 11000 10999 10996 ] final -122.64 input  -57.11 | X-H torsion

> <Gold.Protein.ActiveResidues>
 VAL166  LYS551  ARG553  GLY616  TRP617  ASP618  TYR619  PRO620  LYS621  CYS622 
 ASP623  PHE694  ASN695  SER759  ASP760  ASP761  ALA762  ILE779  LEU786  VAL792 
 PHE793  MET794  SER795  GLU796  ALA797  LYS798  CYS799  TRP800  GLU811  SER814 

> <Gold.Protein.RotatedAtoms>
  152.5334  134.2856  159.9023 H   0  0  0  0  0  0  0  0  0  0  0  0  # atno 6907 bound_to 6896
  151.2809  133.4203  159.2634 H   0  0  0  0  0  0  0  0  0  0  0  0  # atno 6908 bound_to 6896
  151.0284  134.9536  159.8154 H   0  0  0  0  0  0  0  0  0  0  0  0  # atno 6909 bound_to 6896
  145.8573  139.3292  143.0839 H   0  0  0  0  0  0  0  0  0  0  0  0  # atno 7974 bound_to 7965
  154.3998  140.1413  156.3740 H   0  0  0  0  0  0  0  0  0  0  0  0  # atno 8008 bound_to 7997
  155.8066  140.3474  155.5413 H   0  0  0  0  0  0  0  0  0  0  0  0  # atno 8009 bound_to 7997
  155.8429  140.0929  157.1713 H   0  0  0  0  0  0  0  0  0  0  0  0  # atno 8010 bound_to 7997
  139.4967  144.3816  151.9615 H   0  0  0  0  0  0  0  0  0  0  0  0  # atno 10167 bound_to 10162
  156.0103  130.4534  150.3585 H   0  0  0  0  0  0  0  0  0  0  0  0  # atno 10718 bound_to 10713
  153.4832  135.7017  153.5926 H   0  0  0  0  0  0  0  0  0  0  0  0  # atno 10763 bound_to 10752
  153.4130  135.3844  155.2062 H   0  0  0  0  0  0  0  0  0  0  0  0  # atno 10764 bound_to 10752
  154.8720  135.3909  154.4284 H   0  0  0  0  0  0  0  0  0  0  0  0  # atno 10765 bound_to 10752
  140.9980  134.0444  157.3573 H   0  0  0  0  0  0  0  0  0  0  0  0  # atno 11005 bound_to 11000
  145.9288  140.9063  143.0367 LP  0  0  0  0  0  0  0  0  0  0  0  0  # atno 17320 bound_to 7965
  144.6727  140.1390  143.7438 LP  0  0  0  0  0  0  0  0  0  0  0  0  # atno 17321 bound_to 7965
  140.3253  144.3380  150.6000 LP  0  0  0  0  0  0  0  0  0  0  0  0  # atno 17342 bound_to 10162
  140.5689  143.2183  151.7634 LP  0  0  0  0  0  0  0  0  0  0  0  0  # atno 17343 bound_to 10162
  157.1674  131.0360  151.2812 LP  0  0  0  0  0  0  0  0  0  0  0  0  # atno 17370 bound_to 10713
  157.4258  130.7463  149.6950 LP  0  0  0  0  0  0  0  0  0  0  0  0  # atno 17371 bound_to 10713
  139.9024  135.0169  156.7331 LP  0  0  0  0  0  0  0  0  0  0  0  0  # atno 17394 bound_to 11000
  140.6935  133.9369  155.7981 LP  0  0  0  0  0  0  0  0  0  0  0  0  # atno 17395 bound_to 11000

$$$$
