AV-unprocessed.smi:283|AV-procd|sdf|2137|dock10
  -GOLD-   2262021463D 1   1.00000     0.00000
 Structure written by MMmdl.
 48 51  0  0  0  0  0  0  0  0  1 V2000
  151.2351  140.4204  156.1207 C   0  0  0  0  0  0  0  0  0  0  0  0
  150.2905  141.2601  156.9907 C   0  0  2  0  0  0  0  0  0  0  0  0
  149.4060  142.0558  156.1409 N   0  0  0  0  0  0  0  0  0  0  0  0
  148.4784  141.4626  155.3564 C   0  0  0  0  0  0  0  0  0  0  0  0
  148.5754  141.4994  154.0015 N   0  0  0  0  0  0  0  0  0  0  0  0
  147.6445  140.9069  153.2482 C   0  0  0  0  0  0  0  0  0  0  0  0
  146.5569  140.2379  153.6384 N   0  0  0  0  0  0  0  0  0  0  0  0
  146.4541  140.2005  154.9988 C   0  0  0  0  0  0  0  0  0  0  0  0
  147.3649  140.7877  155.9199 C   0  0  0  0  0  0  0  0  0  0  0  0
  146.9345  140.5546  157.2185 N   0  0  0  0  0  0  0  0  0  0  0  0
  145.8301  139.8742  157.0674 C   0  0  0  0  0  0  0  0  0  0  0  0
  145.4736  139.6012  155.7609 N   0  0  0  0  0  0  0  0  0  0  0  0
  144.2734  138.8805  155.2141 C   0  0  2  0  0  0  0  0  0  0  0  0
  143.5241  138.4182  156.2907 O   0  0  0  0  0  0  0  0  0  0  0  0
  143.9986  137.1367  156.6783 C   0  0  1  0  0  0  0  0  0  0  0  0
  142.9062  136.3908  157.4597 C   0  0  0  0  0  0  0  0  0  0  0  0
  141.7633  136.2151  156.6502 O   0  0  0  0  0  0  0  0  0  0  0  0
  144.3473  136.4758  155.3343 C   0  0  2  0  0  0  0  0  0  0  0  0
  145.4722  135.6329  155.4901 O   0  0  0  0  0  0  0  0  0  0  0  0
  144.6704  137.6422  154.3938 C   0  0  1  0  0  0  0  0  0  0  0  0
  143.9076  137.5527  153.2077 O   0  0  0  0  0  0  0  0  0  0  0  0
  151.0866  142.0778  158.0106 C   0  0  0  0  0  0  0  0  0  0  0  0
  151.0273  143.4906  157.9767 C   0  0  0  0  0  0  0  0  0  0  0  0
  151.7510  144.2624  158.9048 C   0  0  0  0  0  0  0  0  0  0  0  0
  152.5484  143.6290  159.8748 C   0  0  0  0  0  0  0  0  0  0  0  0
  152.6239  142.2245  159.9112 C   0  0  0  0  0  0  0  0  0  0  0  0
  151.9014  141.4465  158.9841 C   0  0  0  0  0  0  0  0  0  0  0  0
  152.0423  139.7253  159.0690 Cl  0  0  0  0  0  0  0  0  0  0  0  0
  143.7333  139.6351  154.6411 H   0  0  0  0  0  0  0  0  0  0  0  0
  144.8962  137.2541  157.2882 H   0  0  0  0  0  0  0  0  0  0  0  0
  143.5008  135.8969  154.9607 H   0  0  0  0  0  0  0  0  0  0  0  0
  145.7226  137.6899  154.1107 H   0  0  0  0  0  0  0  0  0  0  0  0
  151.8467  139.7582  156.7343 H   0  0  0  0  0  0  0  0  0  0  0  0
  151.9083  141.0518  155.5398 H   0  0  0  0  0  0  0  0  0  0  0  0
  150.6760  139.7969  155.4224 H   0  0  0  0  0  0  0  0  0  0  0  0
  149.6444  140.5639  157.5242 H   0  0  0  0  0  0  0  0  0  0  0  0
  149.4257  143.0525  156.3024 H   0  0  0  0  0  0  0  0  0  0  0  0
  147.7922  140.9793  152.1807 H   0  0  0  0  0  0  0  0  0  0  0  0
  145.2479  139.5552  157.9185 H   0  0  0  0  0  0  0  0  0  0  0  0
  143.2653  135.4284  157.8252 H   0  0  0  0  0  0  0  0  0  0  0  0
  142.6032  136.9749  158.3290 H   0  0  0  0  0  0  0  0  0  0  0  0
  141.4086  135.3543  156.8122 H   0  0  0  0  0  0  0  0  0  0  0  0
  146.0519  136.0169  156.1293 H   0  0  0  0  0  0  0  0  0  0  0  0
  143.7288  138.4277  152.8986 H   0  0  0  0  0  0  0  0  0  0  0  0
  150.4227  143.9925  157.2356 H   0  0  0  0  0  0  0  0  0  0  0  0
  151.6951  145.3405  158.8711 H   0  0  0  0  0  0  0  0  0  0  0  0
  153.1047  144.2194  160.5878 H   0  0  0  0  0  0  0  0  0  0  0  0
  153.2413  141.7416  160.6542 H   0  0  0  0  0  0  0  0  0  0  0  0
  1  2  1  0  0  0  0
  1 33  1  0  0  0  0
  1 34  1  0  0  0  0
  1 35  1  0  0  0  0
  2  3  1  0  0  0  0
  2 22  1  0  0  0  0
  2 36  1  0  0  0  0
  3  4  1  0  0  0  0
  3 37  1  0  0  0  0
  4  9  1  0  0  0  0
  4  5  2  0  0  0  0
  5  6  1  0  0  0  0
  6  7  2  0  0  0  0
  6 38  1  0  0  0  0
  7  8  1  0  0  0  0
  8 12  1  0  0  0  0
  8  9  2  0  0  0  0
  9 10  1  0  0  0  0
 10 11  2  0  0  0  0
 11 12  1  0  0  0  0
 11 39  1  0  0  0  0
 12 13  1  0  0  0  0
 13 29  1  0  0  0  0
 13 20  1  0  0  0  0
 13 14  1  0  0  0  0
 14 15  1  0  0  0  0
 15 30  1  0  0  0  0
 15 16  1  0  0  0  0
 15 18  1  0  0  0  0
 16 17  1  0  0  0  0
 16 40  1  0  0  0  0
 16 41  1  0  0  0  0
 17 42  1  0  0  0  0
 18 31  1  0  0  0  0
 18 19  1  0  0  0  0
 18 20  1  0  0  0  0
 19 43  1  0  0  0  0
 20 32  1  0  0  0  0
 20 21  1  0  0  0  0
 21 44  1  0  0  0  0
 22 27  1  0  0  0  0
 22 23  2  0  0  0  0
 23 24  1  0  0  0  0
 23 45  1  0  0  0  0
 24 25  2  0  0  0  0
 24 46  1  0  0  0  0
 25 26  1  0  0  0  0
 25 47  1  0  0  0  0
 26 27  2  0  0  0  0
 26 48  1  0  0  0  0
 27 28  1  0  0  0  0
M  END
> <s_m_source_file>
AV-unprocessed.smi

> <i_m_source_file_index>
283

> <i_lp_mmshare_version>
43012

> <i_f3d_flags>
0

> <s_epik_input>
Q2xjMVtjSF1bY0hdW2NIXVtjSF1jMVtDQEhdKFtDSDNdKVtOSF1jKG5bY0hdbjIpYyhjMjMpbltjSF1uM1tDQEBIXTRPW0NASF0oW0NIMl1bT0hdKVtDQEBIXShbT0hdKVtDQEhdNFtPSF0=

> <s_epik_cmdline>
J2VwaWtfcHl0aG9uJywgJy1waCcsICc3LjAnLCAnLXRuJywgJzgnLCAnLW1hJywgJzIwMCcsICctbWV0YWxfYmluZGluZycsICctaW1hZScsICc8aW5maWxlLm1hZT4nLCAnLW9tYWUnLCAnPG91dGZpbGUubWFlPic=

> <r_lp_tautomer_probability>
1

> <r_epik_Ionization_Penalty>
0.000266407

> <r_epik_Ionization_Penalty_Charging>
0

> <r_epik_Ionization_Penalty_Neutral>
0.000266407

> <r_epik_State_Penalty>
-0

> <r_epik_Charging_Adjusted_Penalty>
0

> <i_epik_Tot_Q>
0

> <i_epik_Tot_abs_Q>
0

> <r_epik_Metal_State_Penalty>
-0

> <b_epik_Metal_Only>
0

> <s_epik_Chemistry_Notes>
This compound contains an acetal/aminal-like group ( X-CH(R)-Y where X, Y are N, S, or O) that may be acid/base labile, releasing an aldehyde.

> <s_lp_Force_Field>
OPLS_2005

> <r_lp_Energy>
39.6204

> <b_lp_Chiralities_Consistent>
1

> <s_lp_Variant>
AV-unprocessed.smi:283-13

> <Gold.Version>
5.8.1

> <Gold.Id.Protein>
6NUR|6NUR_protein|mol2

> <Gold.PLP.Fitness>
48.8318

> <Gold.PLP.PLP>
-36.8174

> <Gold.PLP.part.hbond>
-4.0000

> <Gold.PLP.part.metal>
0.0000

> <Gold.PLP.part.buried>
-2.9022

> <Gold.PLP.part.nonpolar>
-31.1592

> <Gold.PLP.part.repulsive>
0.7466

> <Gold.PLP.ligand.clash>
0.0000

> <Gold.PLP.ligand.torsion>
0.7769

> <Gold.PLP.Chemscore.Hbond>
3.6330

> <Gold.PLP.Chemscore.CHOScore>
0.8589

> <Gold.PLP.Chemscore.Metal>
0.0000

> <Gold.Chemscore.Hbonds>
donor molecule, donor type, donor heavy atom, donor atom, acceptor molecule, acceptor atom, score
      L1  H     3    37       P1  8028  0.91
      L1  H    17    42       P1 11000  0.35
      L1  H    21    44       P1 10175  0.94
      P1  H  8011  8017       L1     5  0.26
      L1  C     6    38       P1  7957  0.86

> <Gold.PLP.Chemscore.Internal.Correction>
0.0927

> <Gold.Rescore>
     Score         DG    S(hbond)    S(metal)    S(lipo)     H(rot)  DE(clash)    DE(int)     intcor
     11.99     -14.04       2.56        0.00      89.73       4.10       1.11       0.94       ----

> <Gold.Chemscore.Fitness>
11.9854

> <Gold.Chemscore.DG>
-14.0418

> <Gold.Chemscore.ZeroCoef>
-5.4800

> <Gold.Chemscore.Hbond>
2.5604

> <Gold.Chemscore.Metal>
0.0000

> <Gold.Chemscore.Lipo>
89.7260

> <Gold.Chemscore.Internal_Hbond>
0.0000

> <Gold.Chemscore.DEClash>
1.1149

> <Gold.Chemscore.DEInternal>
0.9415

> <Gold.Chemscore.Rot>
4.0968

> <Gold.Chemscore.Internal.Correction>
   9.000000E+99

> <Gold.Chemscore.Hbonds>
donor molecule, donor type, donor heavy atom, donor atom, acceptor molecule, acceptor atom, score
      L1  H     3    37       P1  8028  0.88
      L1  H    17    42       P1 11000  0.01
      L1  H    21    44       P1 10175  0.90
      P1  H  8011  8017       L1     5  0.05

> <Gold.Chemscore.Hbond.Weighted>
-8.5518

> <Gold.Chemscore.Metal.Weighted>
-0.0000

> <Gold.Chemscore.Lipo.Weighted>
-10.4979

> <Gold.Chemscore.Internal_Hbond.Weighted>
0.0000

> <Gold.Chemscore.DEClash.Weighted>
1.1149

> <Gold.Chemscore.DEInternal.Weighted>
0.9415

> <Gold.Chemscore.Rot.Weighted>
10.4879

> <Gold.Chemscore.Internal.Correction.Weighted>
   9.000000E+99

> <Gold.Protein.RotatedTorsions>
[ 6907 6896 6895 6894 ] final  135.17 input  -60.11 | X-H torsion
[ 7974 7965 7964 7962 ] final   45.77 input  175.53 | X-H torsion
[ 8008 7997 7996 7995 ] final -167.53 input   59.86 | X-H torsion
[ 10167 10162 10161 10158 ] final   69.04 input  -65.29 | X-H torsion
[ 10718 10713 10712 10709 ] final -105.48 input   66.30 | X-H torsion
[ 10763 10752 10751 10750 ] final -153.91 input  -60.55 | X-H torsion
[ 11005 11000 10999 10996 ] final   -2.64 input  -57.11 | X-H torsion

> <Gold.Protein.ActiveResidues>
 VAL166  LYS551  ARG553  GLY616  TRP617  ASP618  TYR619  PRO620  LYS621  CYS622 
 ASP623  PHE694  ASN695  SER759  ASP760  ASP761  ALA762  ILE779  LEU786  VAL792 
 PHE793  MET794  SER795  GLU796  ALA797  LYS798  CYS799  TRP800  GLU811  SER814 

> <Gold.Protein.RotatedAtoms>
  152.3034  133.5678  159.5632 H   0  0  0  0  0  0  0  0  0  0  0  0  # atno 6907 bound_to 6896
  150.7288  134.0258  159.3726 H   0  0  0  0  0  0  0  0  0  0  0  0  # atno 6908 bound_to 6896
  151.8157  135.0668  160.0469 H   0  0  0  0  0  0  0  0  0  0  0  0  # atno 6909 bound_to 6896
  146.0450  139.4928  142.9754 H   0  0  0  0  0  0  0  0  0  0  0  0  # atno 7974 bound_to 7965
  155.8789  140.1006  157.1499 H   0  0  0  0  0  0  0  0  0  0  0  0  # atno 8008 bound_to 7997
  154.4003  140.1332  156.4235 H   0  0  0  0  0  0  0  0  0  0  0  0  # atno 8009 bound_to 7997
  155.7665  140.3462  155.5227 H   0  0  0  0  0  0  0  0  0  0  0  0  # atno 8010 bound_to 7997
  140.0722  144.5143  150.7219 H   0  0  0  0  0  0  0  0  0  0  0  0  # atno 10167 bound_to 10162
  156.0348  130.5566  150.7545 H   0  0  0  0  0  0  0  0  0  0  0  0  # atno 10718 bound_to 10713
  154.7895  135.3202  154.7810 H   0  0  0  0  0  0  0  0  0  0  0  0  # atno 10763 bound_to 10752
  153.8502  135.6863  153.4797 H   0  0  0  0  0  0  0  0  0  0  0  0  # atno 10764 bound_to 10752
  153.1559  135.4680  154.9644 H   0  0  0  0  0  0  0  0  0  0  0  0  # atno 10765 bound_to 10752
  140.6605  133.9324  155.8433 H   0  0  0  0  0  0  0  0  0  0  0  0  # atno 11005 bound_to 11000
  145.6821  141.0188  143.1601 LP  0  0  0  0  0  0  0  0  0  0  0  0  # atno 17320 bound_to 7965
  144.7093  139.8433  143.7420 LP  0  0  0  0  0  0  0  0  0  0  0  0  # atno 17321 bound_to 7965
  140.7120  143.2513  151.4552 LP  0  0  0  0  0  0  0  0  0  0  0  0  # atno 17342 bound_to 10162
  139.5829  144.1668  152.1992 LP  0  0  0  0  0  0  0  0  0  0  0  0  # atno 17343 bound_to 10162
  157.5081  131.0923  151.0233 LP  0  0  0  0  0  0  0  0  0  0  0  0  # atno 17370 bound_to 10713
  157.0595  130.5820  149.5383 LP  0  0  0  0  0  0  0  0  0  0  0  0  # atno 17371 bound_to 10713
  141.0468  134.0542  157.3833 LP  0  0  0  0  0  0  0  0  0  0  0  0  # atno 17394 bound_to 11000
  139.9014  135.0166  156.7288 LP  0  0  0  0  0  0  0  0  0  0  0  0  # atno 17395 bound_to 11000

$$$$
