AV-unprocessed.smi:3150|AV-procd|sdf|12010|dock2
  -GOLD-   2272017413D 1   1.00000     0.00000
 Structure written by MMmdl.
 33 34  0  0  0  0  0  0  0  0  3 V2000
  148.3461  141.6992  154.4061 C   0  0  0  0  0  0  0  0  0  0  0  0
  149.1232  140.5763  155.1101 C   0  0  1  0  0  0  0  0  0  0  0  0
  150.1438  140.1387  154.2169 O   0  0  0  0  0  0  0  0  0  0  0  0
  150.5179  138.7718  154.3396 C   0  0  0  0  0  0  0  0  0  0  0  0
  151.9876  138.7013  154.6938 C   0  0  0  0  0  0  0  0  0  0  0  0
  152.4543  137.8396  155.8449 C   0  0  0  0  0  0  0  0  0  0  0  0
  152.5075  139.3416  155.9611 C   0  0  0  0  0  0  0  0  0  0  0  0
  149.7427  141.0620  156.4306 C   0  0  0  0  0  0  0  0  0  0  0  0
  149.5977  140.3940  157.4558 O   0  0  0  0  0  0  0  0  0  0  0  0
  150.4076  142.2308  156.3677 N   0  0  0  0  0  0  0  0  0  0  0  0
  151.0693  142.9366  157.4106 C   0  0  0  0  0  0  0  0  0  0  0  0
  150.9566  144.2806  157.5576 N   0  3  0  0  0  0  0  0  0  0  0  0
  151.5707  144.9797  158.5361 C   0  0  0  0  0  0  0  0  0  0  0  0
  152.3798  144.3093  159.4733 C   0  0  0  0  0  0  0  0  0  0  0  0
  152.5320  142.9127  159.3676 C   0  0  0  0  0  0  0  0  0  0  0  0
  151.8734  142.2192  158.3296 C   0  0  0  0  0  0  0  0  0  0  0  0
  152.0222  140.8643  158.2270 O   0  5  0  0  0  0  0  0  0  0  0  0
  147.5508  142.0907  155.0412 H   0  0  0  0  0  0  0  0  0  0  0  0
  147.8841  141.3319  153.4896 H   0  0  0  0  0  0  0  0  0  0  0  0
  148.9981  142.5298  154.1327 H   0  0  0  0  0  0  0  0  0  0  0  0
  148.4324  139.7531  155.3031 H   0  0  0  0  0  0  0  0  0  0  0  0
  149.9345  138.2619  155.1071 H   0  0  0  0  0  0  0  0  0  0  0  0
  150.3582  138.2501  153.3951 H   0  0  0  0  0  0  0  0  0  0  0  0
  152.6498  138.7309  153.8305 H   0  0  0  0  0  0  0  0  0  0  0  0
  151.6981  137.3177  156.4281 H   0  0  0  0  0  0  0  0  0  0  0  0
  153.3974  137.3105  155.7245 H   0  0  0  0  0  0  0  0  0  0  0  0
  153.4859  139.8158  155.9191 H   0  0  0  0  0  0  0  0  0  0  0  0
  151.7860  139.8205  156.6203 H   0  0  0  0  0  0  0  0  0  0  0  0
  150.4432  142.6803  155.4637 H   0  0  0  0  0  0  0  0  0  0  0  0
  151.3964  146.0457  158.5386 H   0  0  0  0  0  0  0  0  0  0  0  0
  152.8764  144.8563  160.2611 H   0  0  0  0  0  0  0  0  0  0  0  0
  153.1486  142.3797  160.0770 H   0  0  0  0  0  0  0  0  0  0  0  0
  150.3754  144.7892  156.8905 H   0  0  0  0  0  0  0  0  0  0  0  0
  1  2  1  0  0  0  0
  1 18  1  0  0  0  0
  1 19  1  0  0  0  0
  1 20  1  0  0  0  0
  2  3  1  0  0  0  0
  2  8  1  0  0  0  0
  2 21  1  0  0  0  0
  3  4  1  0  0  0  0
  4  5  1  0  0  0  0
  4 22  1  0  0  0  0
  4 23  1  0  0  0  0
  5  7  1  0  0  0  0
  5  6  1  0  0  0  0
  5 24  1  0  0  0  0
  6  7  1  0  0  0  0
  6 25  1  0  0  0  0
  6 26  1  0  0  0  0
  7 27  1  0  0  0  0
  7 28  1  0  0  0  0
  8  9  2  0  0  0  0
  8 10  1  0  0  0  0
 10 29  1  0  0  0  0
 10 11  1  0  0  0  0
 11 16  2  0  0  0  0
 11 12  1  0  0  0  0
 12 33  1  0  0  0  0
 12 13  2  0  0  0  0
 13 30  1  0  0  0  0
 13 14  1  0  0  0  0
 14 31  1  0  0  0  0
 14 15  2  0  0  0  0
 15 16  1  0  0  0  0
 15 32  1  0  0  0  0
 16 17  1  0  0  0  0
M  CHG  1  12   1
M  CHG  1  17  -1
M  END
> <s_m_source_file>
AV-unprocessed.smi

> <i_m_source_file_index>
3150

> <i_lp_mmshare_version>
43012

> <i_f3d_flags>
0

> <s_epik_input>
W0NIMl0xW0NIMl1bQ0hdMVtDSDJdT1tDQEBIXShbQ0gzXSlDKD1PKVtOSF1jMm5bY0hdW2NIXVtjSF1jMltPSF0=

> <s_epik_cmdline>
J2VwaWtfcHl0aG9uJywgJy1waCcsICc3LjAnLCAnLXRuJywgJzgnLCAnLW1hJywgJzIwMCcsICctbWV0YWxfYmluZGluZycsICctaW1hZScsICc8aW5maWxlLm1hZT4nLCAnLW9tYWUnLCAnPG91dGZpbGUubWFlPic=

> <r_lp_tautomer_probability>
0.56342

> <r_epik_Ionization_Penalty>
0.213151

> <r_epik_Ionization_Penalty_Charging>
0.0249427

> <r_epik_Ionization_Penalty_Neutral>
0.188209

> <r_epik_State_Penalty>
0.538305

> <r_epik_Charging_Adjusted_Penalty>
0.563248

> <i_epik_Tot_Q>
0

> <i_epik_Tot_abs_Q>
2

> <r_epik_Metal_State_Penalty>
2.57454

> <b_epik_Metal_Only>
0

> <s_lp_Force_Field>
OPLS_2005

> <r_lp_Energy>
15.4349

> <b_lp_Chiralities_Consistent>
1

> <s_lp_Variant>
AV-unprocessed.smi:3150-4

> <Gold.Version>
5.8.1

> <Gold.Id.Protein>
6NUR|6NUR_protein|mol2

> <Gold.PLP.Fitness>
44.1890

> <Gold.PLP.PLP>
-37.6339

> <Gold.PLP.part.hbond>
-3.0000

> <Gold.PLP.part.metal>
0.0000

> <Gold.PLP.part.buried>
-4.8405

> <Gold.PLP.part.nonpolar>
-30.9506

> <Gold.PLP.part.repulsive>
0.4278

> <Gold.PLP.ligand.clash>
0.0000

> <Gold.PLP.ligand.torsion>
1.6725

> <Gold.PLP.Chemscore.Hbond>
2.9440

> <Gold.PLP.Chemscore.CHOScore>
0.0000

> <Gold.PLP.Chemscore.Metal>
0.0000

> <Gold.Chemscore.Hbonds>
donor molecule, donor type, donor heavy atom, donor atom, acceptor molecule, acceptor atom, score
      L1  H    12    33       P1  8028  1.95
      P1  H  7989  7998       L1     3  0.99

> <Gold.PLP.Chemscore.Internal.Correction>
1.0681

> <Gold.Rescore>
     Score         DG    S(hbond)    S(metal)    S(lipo)     H(rot)  DE(clash)    DE(int)     intcor
     12.57     -18.04       1.90        0.00      89.79       1.68       1.46       4.00       ----

> <Gold.Chemscore.Fitness>
12.5699

> <Gold.Chemscore.DG>
-18.0357

> <Gold.Chemscore.ZeroCoef>
-5.4800

> <Gold.Chemscore.Hbond>
1.9042

> <Gold.Chemscore.Metal>
0.0000

> <Gold.Chemscore.Lipo>
89.7856

> <Gold.Chemscore.Internal_Hbond>
0.0000

> <Gold.Chemscore.DEClash>
1.4639

> <Gold.Chemscore.DEInternal>
4.0018

> <Gold.Chemscore.Rot>
1.6833

> <Gold.Chemscore.Internal.Correction>
   9.000000E+99

> <Gold.Chemscore.Hbonds>
donor molecule, donor type, donor heavy atom, donor atom, acceptor molecule, acceptor atom, score
      L1  H    12    33       P1  8028  0.56
      P1  H  7989  7998       L1     3  0.33

> <Gold.Chemscore.Hbond.Weighted>
-6.3601

> <Gold.Chemscore.Metal.Weighted>
-0.0000

> <Gold.Chemscore.Lipo.Weighted>
-10.5049

> <Gold.Chemscore.Internal_Hbond.Weighted>
0.0000

> <Gold.Chemscore.DEClash.Weighted>
1.4639

> <Gold.Chemscore.DEInternal.Weighted>
4.0018

> <Gold.Chemscore.Rot.Weighted>
4.3094

> <Gold.Chemscore.Internal.Correction.Weighted>
   9.000000E+99

> <Gold.Protein.RotatedTorsions>
[ 6907 6896 6895 6894 ] final  133.37 input  -60.11 | X-H torsion
[ 7974 7965 7964 7962 ] final   91.44 input  175.53 | X-H torsion
[ 8008 7997 7996 7995 ] final -179.36 input   59.86 | X-H torsion
[ 10167 10162 10161 10158 ] final -163.87 input  -65.29 | X-H torsion
[ 10718 10713 10712 10709 ] final   77.36 input   66.30 | X-H torsion
[ 10763 10752 10751 10750 ] final -147.25 input  -60.55 | X-H torsion
[ 11005 11000 10999 10996 ] final -140.32 input  -57.11 | X-H torsion

> <Gold.Protein.ActiveResidues>
 VAL166  LYS551  ARG553  GLY616  TRP617  ASP618  TYR619  PRO620  LYS621  CYS622 
 ASP623  PHE694  ASN695  SER759  ASP760  ASP761  ALA762  ILE779  LEU786  VAL792 
 PHE793  MET794  SER795  GLU796  ALA797  LYS798  CYS799  TRP800  GLU811  SER814 

> <Gold.Protein.RotatedAtoms>
  152.3227  133.5871  159.5755 H   0  0  0  0  0  0  0  0  0  0  0  0  # atno 6907 bound_to 6896
  150.7380  133.9987  159.3640 H   0  0  0  0  0  0  0  0  0  0  0  0  # atno 6908 bound_to 6896
  151.7870  135.0747  160.0433 H   0  0  0  0  0  0  0  0  0  0  0  0  # atno 6909 bound_to 6896
  145.5056  139.2276  143.2753 H   0  0  0  0  0  0  0  0  0  0  0  0  # atno 7974 bound_to 7965
  156.0296  140.1279  157.0272 H   0  0  0  0  0  0  0  0  0  0  0  0  # atno 8008 bound_to 7997
  154.4344  140.1052  156.6151 H   0  0  0  0  0  0  0  0  0  0  0  0  # atno 8009 bound_to 7997
  155.5826  140.3468  155.4546 H   0  0  0  0  0  0  0  0  0  0  0  0  # atno 8010 bound_to 7997
  139.6290  144.0476  152.1999 H   0  0  0  0  0  0  0  0  0  0  0  0  # atno 10167 bound_to 10162
  157.6707  130.9818  150.1630 H   0  0  0  0  0  0  0  0  0  0  0  0  # atno 10718 bound_to 10713
  154.8295  135.3365  154.6789 H   0  0  0  0  0  0  0  0  0  0  0  0  # atno 10763 bound_to 10752
  153.7411  135.6946  153.4971 H   0  0  0  0  0  0  0  0  0  0  0  0  # atno 10764 bound_to 10752
  153.2243  135.4438  155.0476 H   0  0  0  0  0  0  0  0  0  0  0  0  # atno 10765 bound_to 10752
  140.8433  134.2375  157.4798 H   0  0  0  0  0  0  0  0  0  0  0  0  # atno 11005 bound_to 11000
  146.2199  140.5859  142.9022 LP  0  0  0  0  0  0  0  0  0  0  0  0  # atno 17320 bound_to 7965
  144.7756  140.5731  143.6640 LP  0  0  0  0  0  0  0  0  0  0  0  0  # atno 17321 bound_to 7965
  140.0137  144.6205  150.7625 LP  0  0  0  0  0  0  0  0  0  0  0  0  # atno 17342 bound_to 10162
  140.7428  143.2837  151.3525 LP  0  0  0  0  0  0  0  0  0  0  0  0  # atno 17343 bound_to 10162
  156.2402  130.3690  149.8345 LP  0  0  0  0  0  0  0  0  0  0  0  0  # atno 17370 bound_to 10713
  156.6147  130.8601  151.3462 LP  0  0  0  0  0  0  0  0  0  0  0  0  # atno 17371 bound_to 10713
  139.8703  134.9647  156.4503 LP  0  0  0  0  0  0  0  0  0  0  0  0  # atno 17394 bound_to 11000
  140.8871  133.7875  155.9530 LP  0  0  0  0  0  0  0  0  0  0  0  0  # atno 17395 bound_to 11000

$$$$
