AV-unprocessed.smi:152|AV-procd|sdf|1246|dock8
  -GOLD-   2262018473D 1   1.00000     0.00000
 Structure written by MMmdl.
 58 61  0  0  0  0  0  0  0  0  2 V2000
  146.1714  133.6884  154.4927 C   0  0  0  0  0  0  0  0  0  0  0  0
  147.0928  134.7811  153.9327 C   0  0  0  0  0  0  0  0  0  0  0  0
  148.4439  134.2765  153.5744 N   0  3  2  0  0  0  0  0  0  0  0  0
  148.4017  133.2253  152.5291 C   0  0  0  0  0  0  0  0  0  0  0  0
  148.8341  131.9288  153.2056 C   0  0  0  0  0  0  0  0  0  0  0  0
  149.8320  132.4180  154.2409 C   0  0  0  0  0  0  0  0  0  0  0  0
  149.2380  133.7520  154.7199 C   0  0  1  0  0  0  0  0  0  0  0  0
  150.3103  134.7701  155.1685 C   0  0  0  0  0  0  0  0  0  0  0  0
  149.7466  136.0168  155.6871 N   0  0  0  0  0  0  0  0  0  0  0  0
  148.9058  135.9313  156.8783 C   0  0  0  0  0  0  0  0  0  0  0  0
  150.4106  137.1818  155.4542 C   0  0  0  0  0  0  0  0  0  0  0  0
  151.5292  137.1580  154.6805 N   0  0  0  0  0  0  0  0  0  0  0  0
  152.1955  138.2838  154.4109 C   0  0  0  0  0  0  0  0  0  0  0  0
  151.9253  139.5269  154.8096 N   0  0  0  0  0  0  0  0  0  0  0  0
  150.8132  139.5617  155.5972 C   0  0  0  0  0  0  0  0  0  0  0  0
  150.0035  138.4490  155.9669 C   0  0  0  0  0  0  0  0  0  0  0  0
  148.9667  138.8808  156.7869 N   0  0  0  0  0  0  0  0  0  0  0  0
  149.1475  140.1690  156.8878 C   0  0  0  0  0  0  0  0  0  0  0  0
  150.2379  140.6613  156.2091 N   0  0  0  0  0  0  0  0  0  0  0  0
  150.6769  142.0476  156.1555 C   0  0  0  0  0  0  0  0  0  0  0  0
  151.0132  142.6524  157.5411 C   0  0  0  0  0  0  0  0  0  0  0  0
  149.7973  142.7906  158.2566 O   0  0  0  0  0  0  0  0  0  0  0  0
  151.9660  141.7590  158.3655 C   0  0  0  0  0  0  0  0  0  0  0  0
  152.4533  142.4598  159.6462 C   0  0  0  0  0  0  0  0  0  0  0  0
  153.0553  143.7077  159.3238 O   0  0  0  0  0  0  0  0  0  0  0  0
  152.1450  144.6186  158.7192 C   0  0  0  0  0  0  0  0  0  0  0  0
  151.6435  144.0503  157.3799 C   0  0  0  0  0  0  0  0  0  0  0  0
  145.2255  134.1176  154.8230 H   0  0  0  0  0  0  0  0  0  0  0  0
  146.6240  133.1899  155.3504 H   0  0  0  0  0  0  0  0  0  0  0  0
  145.9379  132.9322  153.7432 H   0  0  0  0  0  0  0  0  0  0  0  0
  146.6316  135.2592  153.0672 H   0  0  0  0  0  0  0  0  0  0  0  0
  147.2008  135.5543  154.6944 H   0  0  0  0  0  0  0  0  0  0  0  0
  147.4292  133.1287  152.0441 H   0  0  0  0  0  0  0  0  0  0  0  0
  149.1236  133.4936  151.7570 H   0  0  0  0  0  0  0  0  0  0  0  0
  147.9820  131.4610  153.7001 H   0  0  0  0  0  0  0  0  0  0  0  0
  149.2618  131.2079  152.5081 H   0  0  0  0  0  0  0  0  0  0  0  0
  149.9793  131.7046  155.0524 H   0  0  0  0  0  0  0  0  0  0  0  0
  150.7973  132.5792  153.7587 H   0  0  0  0  0  0  0  0  0  0  0  0
  148.5561  133.5391  155.5451 H   0  0  0  0  0  0  0  0  0  0  0  0
  150.9903  134.3063  155.8791 H   0  0  0  0  0  0  0  0  0  0  0  0
  150.9388  135.0357  154.3192 H   0  0  0  0  0  0  0  0  0  0  0  0
  148.2363  136.7897  156.9429 H   0  0  0  0  0  0  0  0  0  0  0  0
  149.5139  135.8968  157.7827 H   0  0  0  0  0  0  0  0  0  0  0  0
  148.2891  135.0328  156.8509 H   0  0  0  0  0  0  0  0  0  0  0  0
  153.0695  138.1725  153.7860 H   0  0  0  0  0  0  0  0  0  0  0  0
  148.4915  140.7993  157.4705 H   0  0  0  0  0  0  0  0  0  0  0  0
  151.5496  142.1010  155.5035 H   0  0  0  0  0  0  0  0  0  0  0  0
  149.8979  142.6331  155.6650 H   0  0  0  0  0  0  0  0  0  0  0  0
  149.2528  142.0408  158.0702 H   0  0  0  0  0  0  0  0  0  0  0  0
  151.4879  140.8137  158.6256 H   0  0  0  0  0  0  0  0  0  0  0  0
  152.8354  141.5054  157.7574 H   0  0  0  0  0  0  0  0  0  0  0  0
  151.6324  142.6105  160.3490 H   0  0  0  0  0  0  0  0  0  0  0  0
  153.1901  141.8365  160.1532 H   0  0  0  0  0  0  0  0  0  0  0  0
  151.3146  144.8252  159.3959 H   0  0  0  0  0  0  0  0  0  0  0  0
  152.6577  145.5660  158.5524 H   0  0  0  0  0  0  0  0  0  0  0  0
  152.4905  143.9866  156.6955 H   0  0  0  0  0  0  0  0  0  0  0  0
  150.9336  144.7408  156.9222 H   0  0  0  0  0  0  0  0  0  0  0  0
  148.9553  135.0521  153.1780 H   0  0  0  0  0  0  0  0  0  0  0  0
  1  2  1  0  0  0  0
  1 28  1  0  0  0  0
  1 29  1  0  0  0  0
  1 30  1  0  0  0  0
  2  3  1  0  0  0  0
  2 31  1  0  0  0  0
  2 32  1  0  0  0  0
  3  7  1  0  0  0  0
  3  4  1  0  0  0  0
  3 58  1  0  0  0  0
  4  5  1  0  0  0  0
  4 33  1  0  0  0  0
  4 34  1  0  0  0  0
  5  6  1  0  0  0  0
  5 35  1  0  0  0  0
  5 36  1  0  0  0  0
  6  7  1  0  0  0  0
  6 37  1  0  0  0  0
  6 38  1  0  0  0  0
  7  8  1  0  0  0  0
  7 39  1  0  0  0  0
  8  9  1  0  0  0  0
  8 40  1  0  0  0  0
  8 41  1  0  0  0  0
  9 10  1  0  0  0  0
  9 11  1  0  0  0  0
 10 42  1  0  0  0  0
 10 43  1  0  0  0  0
 10 44  1  0  0  0  0
 11 16  1  0  0  0  0
 11 12  2  0  0  0  0
 12 13  1  0  0  0  0
 13 14  2  0  0  0  0
 13 45  1  0  0  0  0
 14 15  1  0  0  0  0
 15 19  1  0  0  0  0
 15 16  2  0  0  0  0
 16 17  1  0  0  0  0
 17 18  2  0  0  0  0
 18 19  1  0  0  0  0
 18 46  1  0  0  0  0
 19 20  1  0  0  0  0
 20 21  1  0  0  0  0
 20 47  1  0  0  0  0
 20 48  1  0  0  0  0
 21 27  1  0  0  0  0
 21 22  1  0  0  0  0
 21 23  1  0  0  0  0
 22 49  1  0  0  0  0
 23 24  1  0  0  0  0
 23 50  1  0  0  0  0
 23 51  1  0  0  0  0
 24 25  1  0  0  0  0
 24 52  1  0  0  0  0
 24 53  1  0  0  0  0
 25 26  1  0  0  0  0
 26 27  1  0  0  0  0
 26 54  1  0  0  0  0
 26 55  1  0  0  0  0
 27 56  1  0  0  0  0
 27 57  1  0  0  0  0
M  CHG  1   3   1
M  END
> <s_m_source_file>
AV-unprocessed.smi

> <i_m_source_file_index>
152

> <i_lp_mmshare_version>
43012

> <i_f3d_flags>
0

> <s_epik_input>
W0NIM11bQ0gyXU4xW0NIMl1bQ0gyXVtDSDJdW0NASF0xW0NIMl1OKFtDSDNdKWMobltjSF1uMiljKGMyMyluW2NIXW4zW0NIMl1DNChbT0hdKVtDSDJdW0NIMl1PW0NIMl1bQ0gyXTQ=

> <s_epik_cmdline>
J2VwaWtfcHl0aG9uJywgJy1waCcsICc3LjAnLCAnLXRuJywgJzgnLCAnLW1hJywgJzIwMCcsICctbWV0YWxfYmluZGluZycsICctaW1hZScsICc8aW5maWxlLm1hZT4nLCAnLW9tYWUnLCAnPG91dGZpbGUubWFlPic=

> <r_lp_tautomer_probability>
1

> <r_epik_Ionization_Penalty>
0.00152183

> <r_epik_Ionization_Penalty_Charging>
0.00112577

> <r_epik_Ionization_Penalty_Neutral>
0.000396066

> <r_epik_State_Penalty>
-0

> <r_epik_Charging_Adjusted_Penalty>
0.00112577

> <i_epik_Tot_Q>
1

> <i_epik_Tot_abs_Q>
1

> <r_epik_Metal_State_Penalty>
-0

> <b_epik_Metal_Only>
0

> <s_lp_Force_Field>
OPLS_2005

> <r_lp_Energy>
43.1926

> <b_lp_Chiralities_Consistent>
1

> <s_lp_Variant>
AV-unprocessed.smi:152-1

> <Gold.Version>
5.8.1

> <Gold.Id.Protein>
6NUR|6NUR_protein|mol2

> <Gold.PLP.Fitness>
59.1978

> <Gold.PLP.PLP>
-47.6888

> <Gold.PLP.part.hbond>
-3.0000

> <Gold.PLP.part.metal>
0.0000

> <Gold.PLP.part.buried>
-8.1567

> <Gold.PLP.part.nonpolar>
-38.0732

> <Gold.PLP.part.repulsive>
0.1896

> <Gold.PLP.ligand.clash>
0.0000

> <Gold.PLP.ligand.torsion>
0.3728

> <Gold.PLP.Chemscore.Hbond>
3.9033

> <Gold.PLP.Chemscore.CHOScore>
0.0000

> <Gold.PLP.Chemscore.Metal>
0.0000

> <Gold.Chemscore.Hbonds>
donor molecule, donor type, donor heavy atom, donor atom, acceptor molecule, acceptor atom, score
      L1  H     3    58       P1  7948  1.76
      P1  H  7989  7998       L1    14  0.96
      P1  H 10752 10764       L1    12  0.88

> <Gold.PLP.Chemscore.Internal.Correction>
0.5449

> <Gold.Rescore>
     Score         DG    S(hbond)    S(metal)    S(lipo)     H(rot)  DE(clash)    DE(int)     intcor
     14.78     -16.47       1.89        0.00      93.95       2.46       0.07       1.61       ----

> <Gold.Chemscore.Fitness>
14.7834

> <Gold.Chemscore.DG>
-16.4726

> <Gold.Chemscore.ZeroCoef>
-5.4800

> <Gold.Chemscore.Hbond>
1.8868

> <Gold.Chemscore.Metal>
0.0000

> <Gold.Chemscore.Lipo>
93.9480

> <Gold.Chemscore.Internal_Hbond>
0.0000

> <Gold.Chemscore.DEClash>
0.0742

> <Gold.Chemscore.DEInternal>
1.6150

> <Gold.Chemscore.Rot>
2.4614

> <Gold.Chemscore.Internal.Correction>
   9.000000E+99

> <Gold.Chemscore.Hbonds>
donor molecule, donor type, donor heavy atom, donor atom, acceptor molecule, acceptor atom, score
      L1  H     3    58       P1  7948  0.22
      P1  H  7989  7998       L1    14  0.49
      P1  H 10752 10764       L1    12  0.42

> <Gold.Chemscore.Hbond.Weighted>
-6.3019

> <Gold.Chemscore.Metal.Weighted>
-0.0000

> <Gold.Chemscore.Lipo.Weighted>
-10.9919

> <Gold.Chemscore.Internal_Hbond.Weighted>
0.0000

> <Gold.Chemscore.DEClash.Weighted>
0.0742

> <Gold.Chemscore.DEInternal.Weighted>
1.6150

> <Gold.Chemscore.Rot.Weighted>
6.3012

> <Gold.Chemscore.Internal.Correction.Weighted>
   9.000000E+99

> <Gold.Protein.RotatedTorsions>
[ 6907 6896 6895 6894 ] final   -2.79 input  -60.11 | X-H torsion
[ 7974 7965 7964 7962 ] final -120.34 input  175.53 | X-H torsion
[ 8008 7997 7996 7995 ] final   76.53 input   59.86 | X-H torsion
[ 10167 10162 10161 10158 ] final  169.49 input  -65.29 | X-H torsion
[ 10718 10713 10712 10709 ] final -145.72 input   66.30 | X-H torsion
[ 10763 10752 10751 10750 ] final  -68.53 input  -60.55 | X-H torsion
[ 11005 11000 10999 10996 ] final  -21.45 input  -57.11 | X-H torsion

> <Gold.Protein.ActiveResidues>
 VAL166  LYS551  ARG553  GLY616  TRP617  ASP618  TYR619  PRO620  LYS621  CYS622 
 ASP623  PHE694  ASN695  SER759  ASP760  ASP761  ALA762  ILE779  LEU786  VAL792 
 PHE793  MET794  SER795  GLU796  ALA797  LYS798  CYS799  TRP800  GLU811  SER814 

> <Gold.Protein.RotatedAtoms>
  151.5243  135.1067  159.9886 H   0  0  0  0  0  0  0  0  0  0  0  0  # atno 6907 bound_to 6896
  152.4607  133.7811  159.6862 H   0  0  0  0  0  0  0  0  0  0  0  0  # atno 6908 bound_to 6896
  150.8568  133.7639  159.3031 H   0  0  0  0  0  0  0  0  0  0  0  0  # atno 6909 bound_to 6896
  145.0524  140.8229  143.4201 H   0  0  0  0  0  0  0  0  0  0  0  0  # atno 7974 bound_to 7965
  155.8286  140.3467  155.5558 H   0  0  0  0  0  0  0  0  0  0  0  0  # atno 8008 bound_to 7997
  155.8266  140.0921  157.1837 H   0  0  0  0  0  0  0  0  0  0  0  0  # atno 8009 bound_to 7997
  154.4004  140.1420  156.3551 H   0  0  0  0  0  0  0  0  0  0  0  0  # atno 8010 bound_to 7997
  139.4994  144.3700  151.9734 H   0  0  0  0  0  0  0  0  0  0  0  0  # atno 10167 bound_to 10162
  156.3860  130.7861  151.2058 H   0  0  0  0  0  0  0  0  0  0  0  0  # atno 10718 bound_to 10713
  154.3903  135.6054  153.5839 H   0  0  0  0  0  0  0  0  0  0  0  0  # atno 10763 bound_to 10752
  152.9787  135.5882  154.4305 H   0  0  0  0  0  0  0  0  0  0  0  0  # atno 10764 bound_to 10752
  154.4088  135.2844  155.2028 H   0  0  0  0  0  0  0  0  0  0  0  0  # atno 10765 bound_to 10752
  140.8562  133.7821  156.0022 H   0  0  0  0  0  0  0  0  0  0  0  0  # atno 11005 bound_to 11000
  145.1510  139.2514  143.5441 LP  0  0  0  0  0  0  0  0  0  0  0  0  # atno 17320 bound_to 7965
  146.3519  140.1213  142.8600 LP  0  0  0  0  0  0  0  0  0  0  0  0  # atno 17321 bound_to 7965
  140.3136  144.3509  150.6027 LP  0  0  0  0  0  0  0  0  0  0  0  0  # atno 17342 bound_to 10162
  140.5779  143.2175  151.7482 LP  0  0  0  0  0  0  0  0  0  0  0  0  # atno 17343 bound_to 10162
  157.7496  131.0330  150.4251 LP  0  0  0  0  0  0  0  0  0  0  0  0  # atno 17370 bound_to 10713
  156.4504  130.4010  149.6640 LP  0  0  0  0  0  0  0  0  0  0  0  0  # atno 17371 bound_to 10713
  140.8734  134.2699  157.5179 LP  0  0  0  0  0  0  0  0  0  0  0  0  # atno 17394 bound_to 11000
  139.8705  134.9579  156.4282 LP  0  0  0  0  0  0  0  0  0  0  0  0  # atno 17395 bound_to 11000

$$$$
