AV-unprocessed.smi:910|AV-procd|sdf|4123|dock4
  -GOLD-   22720 2 23D 1   1.00000     0.00000
 Structure written by MMmdl.
 46 47  0  0  0  0  0  0  0  0  1 V2000
  149.5374  133.1195  153.0245 C   0  0  0  0  0  0  0  0  0  0  0  0
  149.9594  133.8837  154.2602 C   0  0  0  0  0  0  0  0  0  0  0  0
  149.9337  135.2509  154.3113 N   0  0  0  0  0  0  0  0  0  0  0  0
  150.3810  135.6468  155.5623 C   0  0  0  0  0  0  0  0  0  0  0  0
  150.5070  136.8571  156.0116 N   0  0  0  0  0  0  0  0  0  0  0  0
  150.9884  137.0625  157.2962 C   0  0  0  0  0  0  0  0  0  0  0  0
  151.2786  136.2206  158.1521 O   0  0  0  0  0  0  0  0  0  0  0  0
  151.0967  138.3768  157.5412 N   0  0  0  0  0  0  0  0  0  0  0  0
  151.5292  138.9734  158.8010 C   0  0  0  0  0  0  0  0  0  0  0  0
  152.3527  140.2485  158.5690 C   0  0  0  0  0  0  0  0  0  0  0  0
  152.0812  141.1633  159.6207 O   0  0  0  0  0  0  0  0  0  0  0  0
  152.2833  142.5300  159.2852 C   0  0  1  0  0  0  0  0  0  0  0  0
  151.3882  142.9086  158.0867 C   0  0  0  0  0  0  0  0  0  0  0  0
  151.4649  144.4111  157.7779 C   0  0  0  0  0  0  0  0  0  0  0  0
  151.1072  145.2470  159.0146 C   0  0  0  0  0  0  0  0  0  0  0  0
  152.0044  144.8801  160.2064 C   0  0  0  0  0  0  0  0  0  0  0  0
  151.9364  143.3743  160.5321 C   0  0  2  0  0  0  0  0  0  0  0  0
  152.8506  143.0334  161.7210 C   0  0  0  0  0  0  0  0  0  0  0  0
  150.6674  134.4926  156.2548 O   0  0  0  0  0  0  0  0  0  0  0  0
  150.4012  133.4391  155.4343 C   0  0  0  0  0  0  0  0  0  0  0  0
  150.6403  132.0387  155.9522 C   0  0  0  0  0  0  0  0  0  0  0  0
  150.3642  132.5110  152.6573 H   0  0  0  0  0  0  0  0  0  0  0  0
  149.2304  133.7990  152.2289 H   0  0  0  0  0  0  0  0  0  0  0  0
  148.7007  132.4603  153.2564 H   0  0  0  0  0  0  0  0  0  0  0  0
  149.6360  135.8323  153.5415 H   0  0  0  0  0  0  0  0  0  0  0  0
  150.8367  139.0156  156.8036 H   0  0  0  0  0  0  0  0  0  0  0  0
  150.6624  139.1915  159.4269 H   0  0  0  0  0  0  0  0  0  0  0  0
  152.1263  138.2397  159.3428 H   0  0  0  0  0  0  0  0  0  0  0  0
  153.4163  140.0081  158.5329 H   0  0  0  0  0  0  0  0  0  0  0  0
  152.0863  140.6878  157.6078 H   0  0  0  0  0  0  0  0  0  0  0  0
  153.3302  142.7081  159.0313 H   0  0  0  0  0  0  0  0  0  0  0  0
  151.6775  142.3451  157.2002 H   0  0  0  0  0  0  0  0  0  0  0  0
  150.3544  142.6352  158.3020 H   0  0  0  0  0  0  0  0  0  0  0  0
  152.4712  144.6646  157.4417 H   0  0  0  0  0  0  0  0  0  0  0  0
  150.7922  144.6569  156.9556 H   0  0  0  0  0  0  0  0  0  0  0  0
  151.2061  146.3088  158.7872 H   0  0  0  0  0  0  0  0  0  0  0  0
  150.0617  145.0827  159.2785 H   0  0  0  0  0  0  0  0  0  0  0  0
  153.0344  145.1630  159.9839 H   0  0  0  0  0  0  0  0  0  0  0  0
  151.7072  145.4637  161.0785 H   0  0  0  0  0  0  0  0  0  0  0  0
  150.9112  143.1417  160.8246 H   0  0  0  0  0  0  0  0  0  0  0  0
  153.8971  143.2302  161.4861 H   0  0  0  0  0  0  0  0  0  0  0  0
  152.7662  141.9827  162.0002 H   0  0  0  0  0  0  0  0  0  0  0  0
  152.5897  143.6253  162.5986 H   0  0  0  0  0  0  0  0  0  0  0  0
  150.1221  131.3038  155.3358 H   0  0  0  0  0  0  0  0  0  0  0  0
  150.2775  131.9478  156.9760 H   0  0  0  0  0  0  0  0  0  0  0  0
  151.7062  131.8112  155.9408 H   0  0  0  0  0  0  0  0  0  0  0  0
  1 22  1  0  0  0  0
  1 23  1  0  0  0  0
  1 24  1  0  0  0  0
  1  2  1  0  0  0  0
  2  3  1  0  0  0  0
  2 20  2  0  0  0  0
  3 25  1  0  0  0  0
  3  4  1  0  0  0  0
  4 19  1  0  0  0  0
  4  5  2  0  0  0  0
  5  6  1  0  0  0  0
  6  8  1  0  0  0  0
  6  7  2  0  0  0  0
  8  9  1  0  0  0  0
  8 26  1  0  0  0  0
  9 10  1  0  0  0  0
  9 27  1  0  0  0  0
  9 28  1  0  0  0  0
 10 11  1  0  0  0  0
 10 29  1  0  0  0  0
 10 30  1  0  0  0  0
 11 12  1  0  0  0  0
 12 17  1  0  0  0  0
 12 13  1  0  0  0  0
 12 31  1  0  0  0  0
 13 14  1  0  0  0  0
 13 32  1  0  0  0  0
 13 33  1  0  0  0  0
 14 15  1  0  0  0  0
 14 34  1  0  0  0  0
 14 35  1  0  0  0  0
 15 16  1  0  0  0  0
 15 36  1  0  0  0  0
 15 37  1  0  0  0  0
 16 17  1  0  0  0  0
 16 38  1  0  0  0  0
 16 39  1  0  0  0  0
 17 18  1  0  0  0  0
 17 40  1  0  0  0  0
 18 41  1  0  0  0  0
 18 42  1  0  0  0  0
 18 43  1  0  0  0  0
 19 20  1  0  0  0  0
 20 21  1  0  0  0  0
 21 44  1  0  0  0  0
 21 45  1  0  0  0  0
 21 46  1  0  0  0  0
M  END
> <s_m_source_file>
AV-unprocessed.smi

> <i_m_source_file_index>
910

> <i_lp_mmshare_version>
43012

> <i_f3d_flags>
0

> <s_epik_input>
W0NIM11jMW5jKG9jMVtDSDNdKVtOSF1DKD1PKVtOSF1bQ0gyXVtDSDJdT1tDQEBIXTJbQ0gyXVtDSDJdW0NIMl1bQ0gyXVtDQEhdMltDSDNd

> <s_epik_cmdline>
J2VwaWtfcHl0aG9uJywgJy1waCcsICc3LjAnLCAnLXRuJywgJzgnLCAnLW1hJywgJzIwMCcsICctbWV0YWxfYmluZGluZycsICctaW1hZScsICc8aW5maWxlLm1hZT4nLCAnLW9tYWUnLCAnPG91dGZpbGUubWFlPic=

> <r_lp_tautomer_probability>
0.107061

> <r_epik_Ionization_Penalty>
0.727192

> <r_epik_Ionization_Penalty_Charging>
0.726719

> <r_epik_Ionization_Penalty_Neutral>
0.000473387

> <r_epik_State_Penalty>
2.53712

> <r_epik_Charging_Adjusted_Penalty>
3.26383

> <i_epik_Tot_Q>
0

> <i_epik_Tot_abs_Q>
0

> <r_epik_Metal_State_Penalty>
3.71015

> <b_epik_Metal_Only>
0

> <s_lp_Force_Field>
OPLS_2005

> <r_lp_Energy>
30.8064

> <b_lp_Chiralities_Consistent>
1

> <s_lp_Variant>
AV-unprocessed.smi:910-8

> <Gold.Version>
5.8.1

> <Gold.Id.Protein>
6NUR|6NUR_protein|mol2

> <Gold.PLP.Fitness>
46.6376

> <Gold.PLP.PLP>
-42.5299

> <Gold.PLP.part.hbond>
-2.0000

> <Gold.PLP.part.metal>
0.0000

> <Gold.PLP.part.buried>
-5.6051

> <Gold.PLP.part.nonpolar>
-33.5337

> <Gold.PLP.part.repulsive>
0.0916

> <Gold.PLP.ligand.clash>
0.0000

> <Gold.PLP.ligand.torsion>
0.5484

> <Gold.PLP.Chemscore.Hbond>
1.7200

> <Gold.PLP.Chemscore.CHOScore>
0.0000

> <Gold.PLP.Chemscore.Metal>
0.0000

> <Gold.Chemscore.Hbonds>
donor molecule, donor type, donor heavy atom, donor atom, acceptor molecule, acceptor atom, score
      L1  H     3    25       P1  7948  0.90
      P1  H  6896  6907       L1     7  0.46

> <Gold.PLP.Chemscore.Internal.Correction>
0.0445

> <Gold.Rescore>
     Score         DG    S(hbond)    S(metal)    S(lipo)     H(rot)  DE(clash)    DE(int)     intcor
     17.38     -19.60       1.75        0.00     107.02       1.66       0.04       2.18       ----

> <Gold.Chemscore.Fitness>
17.3841

> <Gold.Chemscore.DG>
-19.6020

> <Gold.Chemscore.ZeroCoef>
-5.4800

> <Gold.Chemscore.Hbond>
1.7496

> <Gold.Chemscore.Metal>
0.0000

> <Gold.Chemscore.Lipo>
107.0238

> <Gold.Chemscore.Internal_Hbond>
0.0000

> <Gold.Chemscore.DEClash>
0.0351

> <Gold.Chemscore.DEInternal>
2.1828

> <Gold.Chemscore.Rot>
1.6576

> <Gold.Chemscore.Internal.Correction>
   9.000000E+99

> <Gold.Chemscore.Hbonds>
donor molecule, donor type, donor heavy atom, donor atom, acceptor molecule, acceptor atom, score
      L1  H     3    25       P1  7948  0.18
      P1  H  6896  6907       L1     7  0.44

> <Gold.Chemscore.Hbond.Weighted>
-5.8438

> <Gold.Chemscore.Metal.Weighted>
-0.0000

> <Gold.Chemscore.Lipo.Weighted>
-12.5218

> <Gold.Chemscore.Internal_Hbond.Weighted>
0.0000

> <Gold.Chemscore.DEClash.Weighted>
0.0351

> <Gold.Chemscore.DEInternal.Weighted>
2.1828

> <Gold.Chemscore.Rot.Weighted>
4.2436

> <Gold.Chemscore.Internal.Correction.Weighted>
   9.000000E+99

> <Gold.Protein.RotatedTorsions>
[ 6907 6896 6895 6894 ] final  -41.37 input  -60.11 | X-H torsion
[ 7974 7965 7964 7962 ] final  -16.79 input  175.53 | X-H torsion
[ 8008 7997 7996 7995 ] final  142.58 input   59.86 | X-H torsion
[ 10167 10162 10161 10158 ] final    9.54 input  -65.29 | X-H torsion
[ 10718 10713 10712 10709 ] final -145.63 input   66.30 | X-H torsion
[ 10763 10752 10751 10750 ] final -104.62 input  -60.55 | X-H torsion
[ 11005 11000 10999 10996 ] final   87.07 input  -57.11 | X-H torsion

> <Gold.Protein.ActiveResidues>
 VAL166  LYS551  ARG553  GLY616  TRP617  ASP618  TYR619  PRO620  LYS621  CYS622 
 ASP623  PHE694  ASN695  SER759  ASP760  ASP761  ALA762  ILE779  LEU786  VAL792 
 PHE793  MET794  SER795  GLU796  ALA797  LYS798  CYS799  TRP800  GLU811  SER814 

> <Gold.Protein.RotatedAtoms>
  150.9676  134.9054  159.7768 H   0  0  0  0  0  0  0  0  0  0  0  0  # atno 6907 bound_to 6896
  152.5179  134.3586  159.9286 H   0  0  0  0  0  0  0  0  0  0  0  0  # atno 6908 bound_to 6896
  151.3596  133.3854  159.2723 H   0  0  0  0  0  0  0  0  0  0  0  0  # atno 6909 bound_to 6896
  146.1971  140.3686  142.8436 H   0  0  0  0  0  0  0  0  0  0  0  0  # atno 7974 bound_to 7965
  156.2946  140.2285  156.4752 H   0  0  0  0  0  0  0  0  0  0  0  0  # atno 8008 bound_to 7997
  154.7901  140.0455  157.1215 H   0  0  0  0  0  0  0  0  0  0  0  0  # atno 8009 bound_to 7997
  154.9655  140.3060  155.5014 H   0  0  0  0  0  0  0  0  0  0  0  0  # atno 8010 bound_to 7997
  140.6249  143.8124  150.7220 H   0  0  0  0  0  0  0  0  0  0  0  0  # atno 10167 bound_to 10162
  156.3849  130.7856  151.2052 H   0  0  0  0  0  0  0  0  0  0  0  0  # atno 10718 bound_to 10713
  154.7890  135.4779  154.0011 H   0  0  0  0  0  0  0  0  0  0  0  0  # atno 10763 bound_to 10752
  153.1603  135.6807  153.8759 H   0  0  0  0  0  0  0  0  0  0  0  0  # atno 10764 bound_to 10752
  153.8375  135.3183  155.3401 H   0  0  0  0  0  0  0  0  0  0  0  0  # atno 10765 bound_to 10752
  139.8928  134.8398  156.2808 H   0  0  0  0  0  0  0  0  0  0  0  0  # atno 11005 bound_to 11000
  144.8604  140.7131  143.6111 LP  0  0  0  0  0  0  0  0  0  0  0  0  # atno 17320 bound_to 7965
  145.3607  139.1682  143.4385 LP  0  0  0  0  0  0  0  0  0  0  0  0  # atno 17321 bound_to 7965
  140.1722  143.4185  152.1993 LP  0  0  0  0  0  0  0  0  0  0  0  0  # atno 17342 bound_to 10162
  139.5471  144.7307  151.4550 LP  0  0  0  0  0  0  0  0  0  0  0  0  # atno 17343 bound_to 10162
  157.7495  131.0333  150.4265 LP  0  0  0  0  0  0  0  0  0  0  0  0  # atno 17370 bound_to 10713
  156.4516  130.4013  149.6632 LP  0  0  0  0  0  0  0  0  0  0  0  0  # atno 17371 bound_to 10713
  141.0040  133.7135  156.1005 LP  0  0  0  0  0  0  0  0  0  0  0  0  # atno 17394 bound_to 11000
  140.7459  134.4098  157.5548 LP  0  0  0  0  0  0  0  0  0  0  0  0  # atno 17395 bound_to 11000

$$$$
