AV-unprocessed.smi:517|AV-procd|sdf|2790|dock7
  -GOLD-   2262023263D 1   1.00000     0.00000
 Structure written by MMmdl.
 36 37  0  0  0  0  0  0  0  0  2 V2000
  154.4356  139.9847  160.5652 C   0  0  0  0  0  0  0  0  0  0  0  0
  153.4149  139.2334  159.7074 C   0  0  0  0  0  0  0  0  0  0  0  0
  153.5696  139.6402  158.3595 O   0  0  0  0  0  0  0  0  0  0  0  0
  152.5426  139.1524  157.5112 C   0  0  0  0  0  0  0  0  0  0  0  0
  151.1947  139.7320  157.9629 C   0  0  0  0  0  0  0  0  0  0  0  0
  151.0531  141.1484  157.5958 N   0  0  0  0  0  0  0  0  0  0  0  0
  150.4028  141.7312  156.5465 C   0  0  0  0  0  0  0  0  0  0  0  0
  149.6549  141.0381  155.4494 C   0  0  2  0  0  0  0  0  0  0  0  0
  150.5261  139.9611  154.7904 C   0  0  0  0  0  0  0  0  0  0  0  0
  149.2146  141.9396  154.4556 O   0  0  0  0  0  0  0  0  0  0  0  0
  150.5743  143.0790  156.6678 N   0  3  0  0  0  0  0  0  0  0  0  0
  151.3268  143.3609  157.8081 C   0  0  0  0  0  0  0  0  0  0  0  0
  151.7505  144.5731  158.3446 C   0  0  0  0  0  0  0  0  0  0  0  0
  152.5080  144.5089  159.5326 C   0  0  0  0  0  0  0  0  0  0  0  0
  152.8143  143.2749  160.1423 C   0  0  0  0  0  0  0  0  0  0  0  0
  152.3788  142.0526  159.5891 C   0  0  0  0  0  0  0  0  0  0  0  0
  151.6343  142.1249  158.4119 C   0  0  0  0  0  0  0  0  0  0  0  0
  154.3494  139.6992  161.6138 H   0  0  0  0  0  0  0  0  0  0  0  0
  154.2847  141.0624  160.4982 H   0  0  0  0  0  0  0  0  0  0  0  0
  155.4537  139.7675  160.2411 H   0  0  0  0  0  0  0  0  0  0  0  0
  153.5726  138.1577  159.7976 H   0  0  0  0  0  0  0  0  0  0  0  0
  152.4034  139.4509  160.0534 H   0  0  0  0  0  0  0  0  0  0  0  0
  152.7456  139.4387  156.4782 H   0  0  0  0  0  0  0  0  0  0  0  0
  152.5094  138.0627  157.5482 H   0  0  0  0  0  0  0  0  0  0  0  0
  150.3624  139.1679  157.5414 H   0  0  0  0  0  0  0  0  0  0  0  0
  151.0968  139.6561  159.0460 H   0  0  0  0  0  0  0  0  0  0  0  0
  148.7656  140.5671  155.8677 H   0  0  0  0  0  0  0  0  0  0  0  0
  150.8480  139.2182  155.5210 H   0  0  0  0  0  0  0  0  0  0  0  0
  151.4201  140.3918  154.3378 H   0  0  0  0  0  0  0  0  0  0  0  0
  149.9769  139.4359  154.0083 H   0  0  0  0  0  0  0  0  0  0  0  0
  149.3099  142.8199  154.7867 H   0  0  0  0  0  0  0  0  0  0  0  0
  151.5147  145.5196  157.8804 H   0  0  0  0  0  0  0  0  0  0  0  0
  152.8600  145.4241  159.9861 H   0  0  0  0  0  0  0  0  0  0  0  0
  153.3953  143.2652  161.0532 H   0  0  0  0  0  0  0  0  0  0  0  0
  152.6173  141.1132  160.0654 H   0  0  0  0  0  0  0  0  0  0  0  0
  150.1955  143.7529  156.0148 H   0  0  0  0  0  0  0  0  0  0  0  0
  1  2  1  0  0  0  0
  1 18  1  0  0  0  0
  1 19  1  0  0  0  0
  1 20  1  0  0  0  0
  2  3  1  0  0  0  0
  2 21  1  0  0  0  0
  2 22  1  0  0  0  0
  3  4  1  0  0  0  0
  4  5  1  0  0  0  0
  4 23  1  0  0  0  0
  4 24  1  0  0  0  0
  5  6  1  0  0  0  0
  5 25  1  0  0  0  0
  5 26  1  0  0  0  0
  6 17  1  0  0  0  0
  6  7  1  0  0  0  0
  7  8  1  0  0  0  0
  7 11  2  0  0  0  0
  8  9  1  0  0  0  0
  8 10  1  0  0  0  0
  8 27  1  0  0  0  0
  9 28  1  0  0  0  0
  9 29  1  0  0  0  0
  9 30  1  0  0  0  0
 10 31  1  0  0  0  0
 11 12  1  0  0  0  0
 11 36  1  0  0  0  0
 12 17  2  0  0  0  0
 12 13  1  0  0  0  0
 13 14  2  0  0  0  0
 13 32  1  0  0  0  0
 14 15  1  0  0  0  0
 14 33  1  0  0  0  0
 15 16  2  0  0  0  0
 15 34  1  0  0  0  0
 16 17  1  0  0  0  0
 16 35  1  0  0  0  0
M  CHG  1  11   1
M  END
> <s_m_source_file>
AV-unprocessed.smi

> <i_m_source_file_index>
517

> <i_lp_mmshare_version>
43012

> <i_f3d_flags>
0

> <s_epik_input>
W0NIM11bQ0gyXU9bQ0gyXVtDSDJdbihjKG4xKVtDQEhdKFtDSDNdKVtPSF0pYyhjMTIpW2NIXVtjSF1bY0hdW2NIXTI=

> <s_epik_cmdline>
J2VwaWtfcHl0aG9uJywgJy1waCcsICc3LjAnLCAnLXRuJywgJzgnLCAnLW1hJywgJzIwMCcsICctbWV0YWxfYmluZGluZycsICctaW1hZScsICc8aW5maWxlLm1hZT4nLCAnLW9tYWUnLCAnPG91dGZpbGUubWFlPic=

> <r_epik_Ionization_Penalty>
1.46962

> <r_epik_Ionization_Penalty_Charging>
1.46959

> <r_epik_Ionization_Penalty_Neutral>
2.92192e-05

> <r_epik_State_Penalty>
1.55729

> <r_epik_Charging_Adjusted_Penalty>
3.02688

> <i_epik_Tot_Q>
1

> <i_epik_Tot_abs_Q>
1

> <r_epik_Metal_State_Penalty>
5.60569

> <b_epik_Metal_Only>
0

> <s_lp_Force_Field>
OPLS_2005

> <r_lp_Energy>
10.0589

> <b_lp_Chiralities_Consistent>
1

> <s_lp_Variant>
AV-unprocessed.smi:517-3

> <Gold.Version>
5.8.1

> <Gold.Id.Protein>
6NUR|6NUR_protein|mol2

> <Gold.PLP.Fitness>
50.7545

> <Gold.PLP.PLP>
-39.7701

> <Gold.PLP.part.hbond>
-3.8393

> <Gold.PLP.part.metal>
0.0000

> <Gold.PLP.part.buried>
-3.9394

> <Gold.PLP.part.nonpolar>
-32.7197

> <Gold.PLP.part.repulsive>
0.0571

> <Gold.PLP.ligand.clash>
0.0000

> <Gold.PLP.ligand.torsion>
0.4552

> <Gold.PLP.Chemscore.Hbond>
3.9601

> <Gold.PLP.Chemscore.CHOScore>
0.0000

> <Gold.PLP.Chemscore.Metal>
0.0000

> <Gold.Chemscore.Hbonds>
donor molecule, donor type, donor heavy atom, donor atom, acceptor molecule, acceptor atom, score
      L1  H    10    31       P1  8028  0.78
      L1  H    11    36       P1  8028  1.82
      P1  H  7997  8009       L1     3  1.00
      P1  H  8011  8017       L1    10  0.14

> <Gold.PLP.Chemscore.Internal.Correction>
0.0145

> <Gold.Rescore>
     Score         DG    S(hbond)    S(metal)    S(lipo)     H(rot)  DE(clash)    DE(int)     intcor
     21.10     -21.54       2.97        0.00     100.11       2.18       0.00       0.44       ----

> <Gold.Chemscore.Fitness>
21.1001

> <Gold.Chemscore.DG>
-21.5382

> <Gold.Chemscore.ZeroCoef>
-5.4800

> <Gold.Chemscore.Hbond>
2.9716

> <Gold.Chemscore.Metal>
0.0000

> <Gold.Chemscore.Lipo>
100.1125

> <Gold.Chemscore.Internal_Hbond>
0.0000

> <Gold.Chemscore.DEClash>
0.0015

> <Gold.Chemscore.DEInternal>
0.4367

> <Gold.Chemscore.Rot>
2.1797

> <Gold.Chemscore.Internal.Correction>
   9.000000E+99

> <Gold.Chemscore.Hbonds>
donor molecule, donor type, donor heavy atom, donor atom, acceptor molecule, acceptor atom, score
      L1  H    10    31       P1  8028  0.77
      L1  H    11    36       P1  8028  0.89
      P1  H  7997  8009       L1     3  0.34
      P1  H  8011  8017       L1    10  0.02

> <Gold.Chemscore.Hbond.Weighted>
-9.9252

> <Gold.Chemscore.Metal.Weighted>
-0.0000

> <Gold.Chemscore.Lipo.Weighted>
-11.7132

> <Gold.Chemscore.Internal_Hbond.Weighted>
0.0000

> <Gold.Chemscore.DEClash.Weighted>
0.0015

> <Gold.Chemscore.DEInternal.Weighted>
0.4367

> <Gold.Chemscore.Rot.Weighted>
5.5801

> <Gold.Chemscore.Internal.Correction.Weighted>
   9.000000E+99

> <Gold.Protein.RotatedTorsions>
[ 6907 6896 6895 6894 ] final -112.59 input  -60.11 | X-H torsion
[ 7974 7965 7964 7962 ] final   -3.88 input  175.53 | X-H torsion
[ 8008 7997 7996 7995 ] final  135.89 input   59.86 | X-H torsion
[ 10167 10162 10161 10158 ] final  -14.16 input  -65.29 | X-H torsion
[ 10718 10713 10712 10709 ] final  -99.71 input   66.30 | X-H torsion
[ 10763 10752 10751 10750 ] final   52.52 input  -60.55 | X-H torsion
[ 11005 11000 10999 10996 ] final  176.71 input  -57.11 | X-H torsion

> <Gold.Protein.ActiveResidues>
 VAL166  LYS551  ARG553  GLY616  TRP617  ASP618  TYR619  PRO620  LYS621  CYS622 
 ASP623  PHE694  ASN695  SER759  ASP760  ASP761  ALA762  ILE779  LEU786  VAL792 
 PHE793  MET794  SER795  GLU796  ALA797  LYS798  CYS799  TRP800  GLU811  SER814 

> <Gold.Protein.RotatedAtoms>
  150.7769  133.9068  159.3357 H   0  0  0  0  0  0  0  0  0  0  0  0  # atno 6907 bound_to 6896
  151.6940  135.0939  160.0248 H   0  0  0  0  0  0  0  0  0  0  0  0  # atno 6908 bound_to 6896
  152.3808  133.6505  159.6195 H   0  0  0  0  0  0  0  0  0  0  0  0  # atno 6909 bound_to 6896
  146.2382  140.1787  142.8332 H   0  0  0  0  0  0  0  0  0  0  0  0  # atno 7974 bound_to 7965
  156.3004  140.2459  156.3656 H   0  0  0  0  0  0  0  0  0  0  0  0  # atno 8008 bound_to 7997
  154.8837  140.0411  157.1817 H   0  0  0  0  0  0  0  0  0  0  0  0  # atno 8009 bound_to 7997
  154.8670  140.2929  155.5508 H   0  0  0  0  0  0  0  0  0  0  0  0  # atno 8010 bound_to 7997
  140.7196  143.5351  150.9475 H   0  0  0  0  0  0  0  0  0  0  0  0  # atno 10167 bound_to 10162
  156.0142  130.5295  150.6710 H   0  0  0  0  0  0  0  0  0  0  0  0  # atno 10718 bound_to 10713
  152.9789  135.5810  154.4591 H   0  0  0  0  0  0  0  0  0  0  0  0  # atno 10763 bound_to 10752
  154.4170  135.2771  155.2002 H   0  0  0  0  0  0  0  0  0  0  0  0  # atno 10764 bound_to 10752
  154.3768  135.6155  153.5823 H   0  0  0  0  0  0  0  0  0  0  0  0  # atno 10765 bound_to 10752
  140.3761  134.6987  157.4422 H   0  0  0  0  0  0  0  0  0  0  0  0  # atno 11005 bound_to 11000
  144.9952  140.8582  143.5315 LP  0  0  0  0  0  0  0  0  0  0  0  0  # atno 17320 bound_to 7965
  145.1799  139.2357  143.5298 LP  0  0  0  0  0  0  0  0  0  0  0  0  # atno 17321 bound_to 7965
  139.9072  143.6764  152.3121 LP  0  0  0  0  0  0  0  0  0  0  0  0  # atno 17342 bound_to 10162
  139.7134  144.7616  151.1074 LP  0  0  0  0  0  0  0  0  0  0  0  0  # atno 17343 bound_to 10162
  157.4433  131.0864  151.0921 LP  0  0  0  0  0  0  0  0  0  0  0  0  # atno 17370 bound_to 10713
  157.1459  130.6163  149.5568 LP  0  0  0  0  0  0  0  0  0  0  0  0  # atno 17371 bound_to 10713
  140.0514  134.6125  155.8857 LP  0  0  0  0  0  0  0  0  0  0  0  0  # atno 17394 bound_to 11000
  141.1939  133.6580  156.5569 LP  0  0  0  0  0  0  0  0  0  0  0  0  # atno 17395 bound_to 11000

$$$$
