AV-unprocessed.smi:285|AV-procd|sdf|2168|dock8
  -GOLD-   2262021533D 1   1.00000     0.00000
 Structure written by MMmdl.
 31 33  0  0  0  0  0  0  0  0  1 V2000
  154.8462  140.5859  160.8947 N   0  0  0  0  0  0  0  0  0  0  0  0
  153.7367  141.1258  160.3710 C   0  0  0  0  0  0  0  0  0  0  0  0
  153.2913  142.2990  160.8784 N   0  0  0  0  0  0  0  0  0  0  0  0
  152.1864  142.8587  160.3747 C   0  0  0  0  0  0  0  0  0  0  0  0
  151.4011  142.4178  159.3881 N   0  0  0  0  0  0  0  0  0  0  0  0
  151.8522  141.2345  158.8756 C   0  0  0  0  0  0  0  0  0  0  0  0
  153.0092  140.5254  159.3126 C   0  0  0  0  0  0  0  0  0  0  0  0
  153.1655  139.3594  158.5731 N   0  0  0  0  0  0  0  0  0  0  0  0
  152.1508  139.3998  157.7552 C   0  0  0  0  0  0  0  0  0  0  0  0
  151.8697  137.9972  156.4978 Br  0  0  0  0  0  0  0  0  0  0  0  0
  151.3053  140.4814  157.8558 N   0  0  0  0  0  0  0  0  0  0  0  0
  150.0799  140.8003  157.0630 C   0  0  1  0  0  0  0  0  0  0  0  0
  150.3902  141.7565  155.9162 C   0  0  0  0  0  0  0  0  0  0  0  0
  149.4136  141.2985  154.8381 C   0  0  2  0  0  0  0  0  0  0  0  0
  148.4430  142.2962  154.5898 O   0  0  0  0  0  0  0  0  0  0  0  0
  148.7579  140.0232  155.4068 C   0  0  1  0  0  0  0  0  0  0  0  0
  148.6549  138.8803  154.3854 C   0  0  0  0  0  0  0  0  0  0  0  0
  147.8623  139.2794  153.2875 O   0  0  0  0  0  0  0  0  0  0  0  0
  149.6183  139.6367  156.4705 O   0  0  0  0  0  0  0  0  0  0  0  0
  155.1989  139.7108  160.5341 H   0  0  0  0  0  0  0  0  0  0  0  0
  155.3284  141.0554  161.6474 H   0  0  0  0  0  0  0  0  0  0  0  0
  151.8889  143.7937  160.8260 H   0  0  0  0  0  0  0  0  0  0  0  0
  149.3435  141.1880  157.7672 H   0  0  0  0  0  0  0  0  0  0  0  0
  150.2653  142.7919  156.2364 H   0  0  0  0  0  0  0  0  0  0  0  0
  151.4167  141.6159  155.5757 H   0  0  0  0  0  0  0  0  0  0  0  0
  149.9589  141.0909  153.9164 H   0  0  0  0  0  0  0  0  0  0  0  0
  148.7463  143.1115  154.9590 H   0  0  0  0  0  0  0  0  0  0  0  0
  147.7772  140.2635  155.8238 H   0  0  0  0  0  0  0  0  0  0  0  0
  149.6439  138.6330  153.9985 H   0  0  0  0  0  0  0  0  0  0  0  0
  148.2487  137.9767  154.8415 H   0  0  0  0  0  0  0  0  0  0  0  0
  148.4235  139.6805  152.6416 H   0  0  0  0  0  0  0  0  0  0  0  0
  1  2  1  0  0  0  0
  1 20  1  0  0  0  0
  1 21  1  0  0  0  0
  2  7  1  0  0  0  0
  2  3  2  0  0  0  0
  3  4  1  0  0  0  0
  4  5  2  0  0  0  0
  4 22  1  0  0  0  0
  5  6  1  0  0  0  0
  6 11  1  0  0  0  0
  6  7  2  0  0  0  0
  7  8  1  0  0  0  0
  8  9  2  0  0  0  0
  9 10  1  0  0  0  0
  9 11  1  0  0  0  0
 11 12  1  0  0  0  0
 12 19  1  0  0  0  0
 12 13  1  0  0  0  0
 12 23  1  0  0  0  0
 13 14  1  0  0  0  0
 13 24  1  0  0  0  0
 13 25  1  0  0  0  0
 14 15  1  0  0  0  0
 14 16  1  0  0  0  0
 14 26  1  0  0  0  0
 15 27  1  0  0  0  0
 16 17  1  0  0  0  0
 16 19  1  0  0  0  0
 16 28  1  0  0  0  0
 17 18  1  0  0  0  0
 17 29  1  0  0  0  0
 17 30  1  0  0  0  0
 18 31  1  0  0  0  0
M  END
> <s_m_source_file>
AV-unprocessed.smi

> <i_m_source_file_index>
285

> <i_lp_mmshare_version>
43012

> <i_f3d_flags>
0

> <s_epik_input>
bjFbY0hdbmMoW05IMl0pYyhjMTIpbmMoQnIpbjJbQ0BASF0zW0NIMl1bQ0BASF0oW09IXSlbQ0BIXShPMylbQ0gyXVtPSF0=

> <s_epik_cmdline>
J2VwaWtfcHl0aG9uJywgJy1waCcsICc3LjAnLCAnLXRuJywgJzgnLCAnLW1hJywgJzIwMCcsICctbWV0YWxfYmluZGluZycsICctaW1hZScsICc8aW5maWxlLm1hZT4nLCAnLW9tYWUnLCAnPG91dGZpbGUubWFlPic=

> <r_lp_tautomer_probability>
1

> <r_epik_Ionization_Penalty>
0.000103242

> <r_epik_Ionization_Penalty_Charging>
0

> <r_epik_Ionization_Penalty_Neutral>
0.000103242

> <r_epik_State_Penalty>
-0

> <r_epik_Charging_Adjusted_Penalty>
0

> <i_epik_Tot_Q>
0

> <i_epik_Tot_abs_Q>
0

> <r_epik_Metal_State_Penalty>
-0

> <b_epik_Metal_Only>
0

> <s_epik_Chemistry_Notes>
This compound contains an acetal/aminal-like group ( X-CH(R)-Y where X, Y are N, S, or O) that may be acid/base labile, releasing an aldehyde.

> <s_lp_Force_Field>
OPLS_2005

> <r_lp_Energy>
33.2332

> <b_lp_Chiralities_Consistent>
1

> <s_lp_Variant>
AV-unprocessed.smi:285-4

> <Gold.Version>
5.8.1

> <Gold.Id.Protein>
6NUR|6NUR_protein|mol2

> <Gold.PLP.Fitness>
40.1863

> <Gold.PLP.PLP>
-32.6089

> <Gold.PLP.part.hbond>
-5.2104

> <Gold.PLP.part.metal>
0.0000

> <Gold.PLP.part.buried>
-4.6816

> <Gold.PLP.part.nonpolar>
-22.2112

> <Gold.PLP.part.repulsive>
0.0296

> <Gold.PLP.ligand.clash>
0.0000

> <Gold.PLP.ligand.torsion>
0.6114

> <Gold.PLP.Chemscore.Hbond>
2.9272

> <Gold.PLP.Chemscore.CHOScore>
0.0000

> <Gold.PLP.Chemscore.Metal>
0.0000

> <Gold.Chemscore.Hbonds>
donor molecule, donor type, donor heavy atom, donor atom, acceptor molecule, acceptor atom, score
      L1  H    15    27       P1  8028  1.00
      L1  H    18    31       P1  7957  1.00
      P1  H  7997  8008       L1     8  0.24

> <Gold.PLP.Chemscore.Internal.Correction>
0.0185

> <Gold.Rescore>
     Score         DG    S(hbond)    S(metal)    S(lipo)     H(rot)  DE(clash)    DE(int)     intcor
      8.91     -11.01       2.57        0.00      40.89       3.06       0.02       2.07       ----

> <Gold.Chemscore.Fitness>
8.9109

> <Gold.Chemscore.DG>
-11.0069

> <Gold.Chemscore.ZeroCoef>
-5.4800

> <Gold.Chemscore.Hbond>
2.5681

> <Gold.Chemscore.Metal>
0.0000

> <Gold.Chemscore.Lipo>
40.8946

> <Gold.Chemscore.Internal_Hbond>
0.0000

> <Gold.Chemscore.DEClash>
0.0235

> <Gold.Chemscore.DEInternal>
2.0724

> <Gold.Chemscore.Rot>
3.0607

> <Gold.Chemscore.Internal.Correction>
   9.000000E+99

> <Gold.Chemscore.Hbonds>
donor molecule, donor type, donor heavy atom, donor atom, acceptor molecule, acceptor atom, score
      L1  H    15    27       P1  8028  1.00
      L1  H    18    31       P1  7957  0.99
      P1  H  7997  8008       L1     8  0.02

> <Gold.Chemscore.Hbond.Weighted>
-8.5776

> <Gold.Chemscore.Metal.Weighted>
-0.0000

> <Gold.Chemscore.Lipo.Weighted>
-4.7847

> <Gold.Chemscore.Internal_Hbond.Weighted>
0.0000

> <Gold.Chemscore.DEClash.Weighted>
0.0235

> <Gold.Chemscore.DEInternal.Weighted>
2.0724

> <Gold.Chemscore.Rot.Weighted>
7.8354

> <Gold.Chemscore.Internal.Correction.Weighted>
   9.000000E+99

> <Gold.Protein.RotatedTorsions>
[ 6907 6896 6895 6894 ] final  118.51 input  -60.11 | X-H torsion
[ 7974 7965 7964 7962 ] final -172.04 input  175.53 | X-H torsion
[ 8008 7997 7996 7995 ] final -113.49 input   59.86 | X-H torsion
[ 10167 10162 10161 10158 ] final -160.33 input  -65.29 | X-H torsion
[ 10718 10713 10712 10709 ] final -110.04 input   66.30 | X-H torsion
[ 10763 10752 10751 10750 ] final    3.81 input  -60.55 | X-H torsion
[ 11005 11000 10999 10996 ] final  -90.67 input  -57.11 | X-H torsion

> <Gold.Protein.ActiveResidues>
 VAL166  LYS551  ARG553  GLY616  TRP617  ASP618  TYR619  PRO620  LYS621  CYS622 
 ASP623  PHE694  ASN695  SER759  ASP760  ASP761  ALA762  ILE779  LEU786  VAL792 
 PHE793  MET794  SER795  GLU796  ALA797  LYS798  CYS799  TRP800  GLU811  SER814 

> <Gold.Protein.RotatedAtoms>
  152.4538  133.7682  159.6783 H   0  0  0  0  0  0  0  0  0  0  0  0  # atno 6907 bound_to 6896
  150.8458  133.7854  159.3050 H   0  0  0  0  0  0  0  0  0  0  0  0  # atno 6908 bound_to 6896
  151.5465  135.1071  159.9991 H   0  0  0  0  0  0  0  0  0  0  0  0  # atno 6909 bound_to 6896
  144.7150  140.1832  143.6356 H   0  0  0  0  0  0  0  0  0  0  0  0  # atno 7974 bound_to 7965
  155.0216  140.0393  157.2439 H   0  0  0  0  0  0  0  0  0  0  0  0  # atno 8008 bound_to 7997
  154.7373  140.2742  155.6380 H   0  0  0  0  0  0  0  0  0  0  0  0  # atno 8009 bound_to 7997
  156.2856  140.2672  156.2090 H   0  0  0  0  0  0  0  0  0  0  0  0  # atno 8010 bound_to 7997
  139.6548  144.0019  152.2186 H   0  0  0  0  0  0  0  0  0  0  0  0  # atno 10167 bound_to 10162
  156.0569  130.5795  150.8183 H   0  0  0  0  0  0  0  0  0  0  0  0  # atno 10718 bound_to 10713
  153.2788  135.6939  153.7406 H   0  0  0  0  0  0  0  0  0  0  0  0  # atno 10763 bound_to 10752
  153.6401  135.3395  155.3069 H   0  0  0  0  0  0  0  0  0  0  0  0  # atno 10764 bound_to 10752
  154.8488  135.4429  154.1835 H   0  0  0  0  0  0  0  0  0  0  0  0  # atno 10765 bound_to 10752
  141.1561  133.7707  156.9771 H   0  0  0  0  0  0  0  0  0  0  0  0  # atno 11005 bound_to 11000
  145.8837  139.2337  143.1590 LP  0  0  0  0  0  0  0  0  0  0  0  0  # atno 17320 bound_to 7965
  145.9970  140.8553  143.0037 LP  0  0  0  0  0  0  0  0  0  0  0  0  # atno 17321 bound_to 7965
  139.9742  144.6473  150.7960 LP  0  0  0  0  0  0  0  0  0  0  0  0  # atno 17342 bound_to 10162
  140.7554  143.3045  151.2996 LP  0  0  0  0  0  0  0  0  0  0  0  0  # atno 17343 bound_to 10162
  157.5547  131.0944  150.9646 LP  0  0  0  0  0  0  0  0  0  0  0  0  # atno 17370 bound_to 10713
  156.9897  130.5558  149.5302 LP  0  0  0  0  0  0  0  0  0  0  0  0  # atno 17371 bound_to 10713
  140.1091  134.9488  157.2038 LP  0  0  0  0  0  0  0  0  0  0  0  0  # atno 17394 bound_to 11000
  140.3218  134.2908  155.7245 LP  0  0  0  0  0  0  0  0  0  0  0  0  # atno 17395 bound_to 11000

$$$$
