AV-unprocessed.smi:3126|AV-procd|sdf|11911|dock1
  -GOLD-   2272017293D 1   1.00000     0.00000
 Structure written by MMmdl.
 42 43  0  0  0  0  0  0  0  0  2 V2000
  153.7125  140.9525  160.7980 C   0  0  0  0  0  0  0  0  0  0  0  0
  153.4616  142.3870  161.2836 C   0  0  0  0  0  0  0  0  0  0  0  0
  152.2223  143.0575  160.6558 C   0  0  1  0  0  0  0  0  0  0  0  0
  152.3445  144.5932  160.7127 C   0  0  0  0  0  0  0  0  0  0  0  0
  151.1162  145.2832  160.1012 C   0  0  0  0  0  0  0  0  0  0  0  0
  150.8834  144.8186  158.6568 C   0  0  0  0  0  0  0  0  0  0  0  0
  150.7420  143.2881  158.5760 C   0  0  1  0  0  0  0  0  0  0  0  0
  150.5437  142.8806  157.1668 N   0  3  0  0  0  0  0  0  0  0  0  0
  149.8689  141.5803  156.9730 C   0  0  0  0  0  0  0  0  0  0  0  0
  150.2304  140.9722  155.6119 C   0  0  0  0  0  0  0  0  0  0  0  0
  149.0017  140.5208  154.8474 C   0  0  0  0  0  0  0  0  0  0  0  0
  148.8066  139.1614  154.5266 C   0  0  0  0  0  0  0  0  0  0  0  0
  147.6454  138.7907  153.8216 C   0  0  0  0  0  0  0  0  0  0  0  0
  146.7261  139.7979  153.4660 C   0  0  0  0  0  0  0  0  0  0  0  0
  146.9025  141.1022  153.7686 N   0  0  0  0  0  0  0  0  0  0  0  0
  148.0187  141.4496  154.4439 C   0  0  0  0  0  0  0  0  0  0  0  0
  151.9756  142.5997  159.2010 C   0  0  0  0  0  0  0  0  0  0  0  0
  154.5571  140.5108  161.3271 H   0  0  0  0  0  0  0  0  0  0  0  0
  153.9426  140.9181  159.7337 H   0  0  0  0  0  0  0  0  0  0  0  0
  152.8438  140.3185  160.9769 H   0  0  0  0  0  0  0  0  0  0  0  0
  153.3389  142.3560  162.3670 H   0  0  0  0  0  0  0  0  0  0  0  0
  154.3476  142.9960  161.1001 H   0  0  0  0  0  0  0  0  0  0  0  0
  151.3533  142.7754  161.2523 H   0  0  0  0  0  0  0  0  0  0  0  0
  152.4646  144.9206  161.7462 H   0  0  0  0  0  0  0  0  0  0  0  0
  153.2430  144.9124  160.1827 H   0  0  0  0  0  0  0  0  0  0  0  0
  150.2338  145.0651  160.7046 H   0  0  0  0  0  0  0  0  0  0  0  0
  151.2477  146.3653  160.1267 H   0  0  0  0  0  0  0  0  0  0  0  0
  149.9886  145.2992  158.2593 H   0  0  0  0  0  0  0  0  0  0  0  0
  151.7151  145.1491  158.0323 H   0  0  0  0  0  0  0  0  0  0  0  0
  149.8522  143.0034  159.1400 H   0  0  0  0  0  0  0  0  0  0  0  0
  149.9687  143.5842  156.7256 H   0  0  0  0  0  0  0  0  0  0  0  0
  150.1564  140.8916  157.7676 H   0  0  0  0  0  0  0  0  0  0  0  0
  148.7893  141.7207  157.0408 H   0  0  0  0  0  0  0  0  0  0  0  0
  150.7759  141.6995  155.0086 H   0  0  0  0  0  0  0  0  0  0  0  0
  150.8977  140.1195  155.7457 H   0  0  0  0  0  0  0  0  0  0  0  0
  149.5309  138.4143  154.8167 H   0  0  0  0  0  0  0  0  0  0  0  0
  147.4623  137.7589  153.5599 H   0  0  0  0  0  0  0  0  0  0  0  0
  145.8243  139.5489  152.9266 H   0  0  0  0  0  0  0  0  0  0  0  0
  148.1284  142.4996  154.6725 H   0  0  0  0  0  0  0  0  0  0  0  0
  152.8591  142.8106  158.5963 H   0  0  0  0  0  0  0  0  0  0  0  0
  151.8403  141.5194  159.1821 H   0  0  0  0  0  0  0  0  0  0  0  0
  151.4403  142.8638  156.7021 H   0  0  0  0  0  0  0  0  0  0  0  0
  1  2  1  0  0  0  0
  1 18  1  0  0  0  0
  1 19  1  0  0  0  0
  1 20  1  0  0  0  0
  2  3  1  0  0  0  0
  2 21  1  0  0  0  0
  2 22  1  0  0  0  0
  3 17  1  0  0  0  0
  3  4  1  0  0  0  0
  3 23  1  0  0  0  0
  4  5  1  0  0  0  0
  4 24  1  0  0  0  0
  4 25  1  0  0  0  0
  5  6  1  0  0  0  0
  5 26  1  0  0  0  0
  5 27  1  0  0  0  0
  6  7  1  0  0  0  0
  6 28  1  0  0  0  0
  6 29  1  0  0  0  0
  7  8  1  0  0  0  0
  7 17  1  0  0  0  0
  7 30  1  0  0  0  0
  8  9  1  0  0  0  0
  8 31  1  0  0  0  0
  8 42  1  0  0  0  0
  9 10  1  0  0  0  0
  9 32  1  0  0  0  0
  9 33  1  0  0  0  0
 10 11  1  0  0  0  0
 10 34  1  0  0  0  0
 10 35  1  0  0  0  0
 11 16  1  0  0  0  0
 11 12  2  0  0  0  0
 12 13  1  0  0  0  0
 12 36  1  0  0  0  0
 13 14  2  0  0  0  0
 13 37  1  0  0  0  0
 14 15  1  0  0  0  0
 14 38  1  0  0  0  0
 15 16  2  0  0  0  0
 16 39  1  0  0  0  0
 17 40  1  0  0  0  0
 17 41  1  0  0  0  0
M  CHG  1   8   1
M  END
> <s_m_source_file>
AV-unprocessed.smi

> <i_m_source_file_index>
3126

> <i_lp_mmshare_version>
43012

> <i_f3d_flags>
0

> <s_epik_input>
W0NIM11bQ0gyXVtDQEBIXTFbQ0gyXVtDSDJdW0NIMl1bQ0BIXShbQ0gyXTEpW05IXVtDSDJdW0NIMl1jMltjSF1bY0hdW2NIXW5bY0hdMg==

> <s_epik_cmdline>
J2VwaWtfcHl0aG9uJywgJy1waCcsICc3LjAnLCAnLXRuJywgJzgnLCAnLW1hJywgJzIwMCcsICctbWV0YWxfYmluZGluZycsICctaW1hZScsICc8aW5maWxlLm1hZT4nLCAnLW9tYWUnLCAnPG91dGZpbGUubWFlPic=

> <r_lp_tautomer_probability>
1

> <r_epik_Ionization_Penalty>
0.000947364

> <r_epik_Ionization_Penalty_Charging>
0.000286103

> <r_epik_Ionization_Penalty_Neutral>
0.000661261

> <r_epik_State_Penalty>
-0

> <r_epik_Charging_Adjusted_Penalty>
0.000286103

> <i_epik_Tot_Q>
1

> <i_epik_Tot_abs_Q>
1

> <r_epik_Metal_State_Penalty>
-0

> <b_epik_Metal_Only>
0

> <s_lp_Force_Field>
OPLS_2005

> <r_lp_Energy>
13.7456

> <b_lp_Chiralities_Consistent>
1

> <s_lp_Variant>
AV-unprocessed.smi:3126-2

> <Gold.Version>
5.8.1

> <Gold.Id.Protein>
6NUR|6NUR_protein|mol2

> <Gold.PLP.Fitness>
52.6185

> <Gold.PLP.PLP>
-42.4830

> <Gold.PLP.part.hbond>
-1.0000

> <Gold.PLP.part.metal>
0.0000

> <Gold.PLP.part.buried>
-2.9826

> <Gold.PLP.part.nonpolar>
-37.6395

> <Gold.PLP.part.repulsive>
0.1955

> <Gold.PLP.ligand.clash>
0.0000

> <Gold.PLP.ligand.torsion>
0.9929

> <Gold.PLP.Chemscore.Hbond>
2.0000

> <Gold.PLP.Chemscore.CHOScore>
1.9982

> <Gold.PLP.Chemscore.Metal>
0.0000

> <Gold.Chemscore.Hbonds>
donor molecule, donor type, donor heavy atom, donor atom, acceptor molecule, acceptor atom, score
      L1  H     8    31       P1  8028  2.00
      L1  C    14    38       P1 10175  1.00
      L1  C    16    39       P1  8028  1.00

> <Gold.PLP.Chemscore.Internal.Correction>
0.1266

> <Gold.Rescore>
     Score         DG    S(hbond)    S(metal)    S(lipo)     H(rot)  DE(clash)    DE(int)     intcor
     19.91     -20.83       1.00        0.00     132.25       1.35       0.13       0.79       ----

> <Gold.Chemscore.Fitness>
19.9149

> <Gold.Chemscore.DG>
-20.8348

> <Gold.Chemscore.ZeroCoef>
-5.4800

> <Gold.Chemscore.Hbond>
0.9997

> <Gold.Chemscore.Metal>
0.0000

> <Gold.Chemscore.Lipo>
132.2537

> <Gold.Chemscore.Internal_Hbond>
0.0000

> <Gold.Chemscore.DEClash>
0.1278

> <Gold.Chemscore.DEInternal>
0.7921

> <Gold.Chemscore.Rot>
1.3507

> <Gold.Chemscore.Internal.Correction>
   9.000000E+99

> <Gold.Chemscore.Hbonds>
donor molecule, donor type, donor heavy atom, donor atom, acceptor molecule, acceptor atom, score
      L1  H     8    31       P1  8028  1.00

> <Gold.Chemscore.Hbond.Weighted>
-3.3390

> <Gold.Chemscore.Metal.Weighted>
-0.0000

> <Gold.Chemscore.Lipo.Weighted>
-15.4737

> <Gold.Chemscore.Internal_Hbond.Weighted>
0.0000

> <Gold.Chemscore.DEClash.Weighted>
0.1278

> <Gold.Chemscore.DEInternal.Weighted>
0.7921

> <Gold.Chemscore.Rot.Weighted>
3.4579

> <Gold.Chemscore.Internal.Correction.Weighted>
   9.000000E+99

> <Gold.Protein.RotatedTorsions>
[ 6907 6896 6895 6894 ] final -125.03 input  -60.11 | X-H torsion
[ 7974 7965 7964 7962 ] final   48.16 input  175.53 | X-H torsion
[ 8008 7997 7996 7995 ] final   95.76 input   59.86 | X-H torsion
[ 10167 10162 10161 10158 ] final  -40.79 input  -65.29 | X-H torsion
[ 10718 10713 10712 10709 ] final  -84.38 input   66.30 | X-H torsion
[ 10763 10752 10751 10750 ] final   88.55 input  -60.55 | X-H torsion
[ 11005 11000 10999 10996 ] final  -51.77 input  -57.11 | X-H torsion

> <Gold.Protein.ActiveResidues>
 VAL166  LYS551  ARG553  GLY616  TRP617  ASP618  TYR619  PRO620  LYS621  CYS622 
 ASP623  PHE694  ASN695  SER759  ASP760  ASP761  ALA762  ILE779  LEU786  VAL792 
 PHE793  MET794  SER795  GLU796  ALA797  LYS798  CYS799  TRP800  GLU811  SER814 

> <Gold.Protein.RotatedAtoms>
  150.8827  133.7350  159.2927 H   0  0  0  0  0  0  0  0  0  0  0  0  # atno 6907 bound_to 6896
  151.4926  135.1057  159.9817 H   0  0  0  0  0  0  0  0  0  0  0  0  # atno 6908 bound_to 6896
  152.4770  133.8116  159.7062 H   0  0  0  0  0  0  0  0  0  0  0  0  # atno 6909 bound_to 6896
  146.0230  139.4674  142.9885 H   0  0  0  0  0  0  0  0  0  0  0  0  # atno 7974 bound_to 7965
  156.0724  140.3282  155.7591 H   0  0  0  0  0  0  0  0  0  0  0  0  # atno 8008 bound_to 7997
  155.5285  140.0591  157.2911 H   0  0  0  0  0  0  0  0  0  0  0  0  # atno 8009 bound_to 7997
  154.4537  140.1931  156.0460 H   0  0  0  0  0  0  0  0  0  0  0  0  # atno 8010 bound_to 7997
  140.7023  143.3132  151.2975 H   0  0  0  0  0  0  0  0  0  0  0  0  # atno 10167 bound_to 10162
  156.0007  130.4696  150.4401 H   0  0  0  0  0  0  0  0  0  0  0  0  # atno 10718 bound_to 10713
  153.1780  135.4503  154.9991 H   0  0  0  0  0  0  0  0  0  0  0  0  # atno 10763 bound_to 10752
  154.8011  135.3256  154.7550 H   0  0  0  0  0  0  0  0  0  0  0  0  # atno 10764 bound_to 10752
  153.8018  135.6962  153.4909 H   0  0  0  0  0  0  0  0  0  0  0  0  # atno 10765 bound_to 10752
  141.0889  133.6637  156.3926 H   0  0  0  0  0  0  0  0  0  0  0  0  # atno 11005 bound_to 11000
  145.7162  141.0090  143.1427 LP  0  0  0  0  0  0  0  0  0  0  0  0  # atno 17320 bound_to 7965
  144.6998  139.8816  143.7447 LP  0  0  0  0  0  0  0  0  0  0  0  0  # atno 17321 bound_to 7965
  139.6562  144.0272  152.2661 LP  0  0  0  0  0  0  0  0  0  0  0  0  # atno 17342 bound_to 10162
  139.9824  144.6419  150.7888 LP  0  0  0  0  0  0  0  0  0  0  0  0  # atno 17343 bound_to 10162
  157.2443  131.0532  151.2418 LP  0  0  0  0  0  0  0  0  0  0  0  0  # atno 17370 bound_to 10713
  157.3590  130.7121  149.6489 LP  0  0  0  0  0  0  0  0  0  0  0  0  # atno 17371 bound_to 10713
  140.5299  134.6222  157.5346 LP  0  0  0  0  0  0  0  0  0  0  0  0  # atno 17394 bound_to 11000
  139.9711  134.7291  156.0040 LP  0  0  0  0  0  0  0  0  0  0  0  0  # atno 17395 bound_to 11000

$$$$
