AV-unprocessed.smi:252|AV-procd|sdf|1943|dock5
  -GOLD-   2262021 73D 1   1.00000     0.00000
 Structure written by MMmdl.
 56 59  0  0  0  0  0  0  0  0  1 V2000
  151.9456  145.2904  159.1557 C   0  0  0  0  0  0  0  0  0  0  0  0
  152.2896  144.0834  158.2686 C   0  0  0  0  0  0  0  0  0  0  0  0
  151.1458  143.0727  158.1354 C   0  0  0  0  0  0  0  0  0  0  0  0
  150.5875  142.6119  159.1319 O   0  0  0  0  0  0  0  0  0  0  0  0
  150.8078  142.7346  156.8816 N   0  0  0  0  0  0  0  0  0  0  0  0
  149.7613  141.7848  156.5181 C   0  0  1  0  0  0  0  0  0  0  0  0
  149.7779  141.5485  154.9972 C   0  0  0  0  0  0  0  0  0  0  0  0
  148.7410  140.4839  154.6084 C   0  0  0  0  0  0  0  0  0  0  0  0
  148.9596  139.1863  155.4023 C   0  0  0  0  0  0  0  0  0  0  0  0
  148.9776  139.4532  156.8401 N   0  0  0  0  0  0  0  0  0  0  0  0
  148.8138  138.3556  157.6217 C   0  0  0  0  0  0  0  0  0  0  0  0
  149.8533  137.5006  157.8183 N   0  0  0  0  0  0  0  0  0  0  0  0
  149.6989  136.4127  158.5784 C   0  0  0  0  0  0  0  0  0  0  0  0
  148.6095  135.9946  159.2249 N   0  0  0  0  0  0  0  0  0  0  0  0
  147.5637  136.8491  159.0363 C   0  0  0  0  0  0  0  0  0  0  0  0
  147.5808  138.0437  158.2617 C   0  0  0  0  0  0  0  0  0  0  0  0
  146.3383  138.6639  158.3230 N   0  0  0  0  0  0  0  0  0  0  0  0
  145.6263  137.8777  159.0828 C   0  0  0  0  0  0  0  0  0  0  0  0
  146.2789  136.7561  159.5427 N   0  0  0  0  0  0  0  0  0  0  0  0
  145.7276  135.7175  160.3991 C   0  0  0  0  0  0  0  0  0  0  0  0
  145.7229  136.0791  161.9106 C   0  0  2  0  0  0  0  0  0  0  0  0
  144.8980  137.2083  162.1274 O   0  0  0  0  0  0  0  0  0  0  0  0
  147.1064  136.3617  162.4845 C   0  0  0  0  0  0  0  0  0  0  0  0
  147.6322  134.9612  162.7838 C   0  0  0  0  0  0  0  0  0  0  0  0
  146.4832  134.1778  163.0938 O   0  0  0  0  0  0  0  0  0  0  0  0
  145.2945  134.9200  162.8318 C   0  0  2  0  0  0  0  0  0  0  0  0
  144.1808  133.9986  162.3126 C   0  0  0  0  0  0  0  0  0  0  0  0
  149.9536  140.4543  157.2744 C   0  0  0  0  0  0  0  0  0  0  0  0
  152.7987  145.9644  159.2365 H   0  0  0  0  0  0  0  0  0  0  0  0
  151.6757  144.9781  160.1653 H   0  0  0  0  0  0  0  0  0  0  0  0
  151.1132  145.8627  158.7447 H   0  0  0  0  0  0  0  0  0  0  0  0
  152.5666  144.4282  157.2718 H   0  0  0  0  0  0  0  0  0  0  0  0
  153.1616  143.5720  158.6783 H   0  0  0  0  0  0  0  0  0  0  0  0
  151.3178  143.1618  156.1222 H   0  0  0  0  0  0  0  0  0  0  0  0
  148.7898  142.2057  156.7849 H   0  0  0  0  0  0  0  0  0  0  0  0
  149.5724  142.4792  154.4669 H   0  0  0  0  0  0  0  0  0  0  0  0
  150.7698  141.2210  154.6820 H   0  0  0  0  0  0  0  0  0  0  0  0
  147.7370  140.8638  154.8015 H   0  0  0  0  0  0  0  0  0  0  0  0
  148.7959  140.2797  153.5389 H   0  0  0  0  0  0  0  0  0  0  0  0
  148.1838  138.4685  155.1380 H   0  0  0  0  0  0  0  0  0  0  0  0
  149.9109  138.7343  155.1194 H   0  0  0  0  0  0  0  0  0  0  0  0
  150.5730  135.7869  158.6824 H   0  0  0  0  0  0  0  0  0  0  0  0
  144.5955  138.0920  159.3251 H   0  0  0  0  0  0  0  0  0  0  0  0
  144.7140  135.5067  160.0563 H   0  0  0  0  0  0  0  0  0  0  0  0
  146.2995  134.8046  160.2286 H   0  0  0  0  0  0  0  0  0  0  0  0
  144.7696  137.3128  163.0577 H   0  0  0  0  0  0  0  0  0  0  0  0
  147.7639  136.9388  161.8359 H   0  0  0  0  0  0  0  0  0  0  0  0
  147.0201  136.9116  163.4235 H   0  0  0  0  0  0  0  0  0  0  0  0
  148.1177  134.5373  161.9042 H   0  0  0  0  0  0  0  0  0  0  0  0
  148.3517  134.9552  163.6030 H   0  0  0  0  0  0  0  0  0  0  0  0
  144.9804  135.3333  163.7922 H   0  0  0  0  0  0  0  0  0  0  0  0
  143.2805  134.5664  162.0764 H   0  0  0  0  0  0  0  0  0  0  0  0
  143.9161  133.2547  163.0643 H   0  0  0  0  0  0  0  0  0  0  0  0
  144.4870  133.4597  161.4161 H   0  0  0  0  0  0  0  0  0  0  0  0
  150.9600  140.0689  157.1030 H   0  0  0  0  0  0  0  0  0  0  0  0
  149.8528  140.6263  158.3471 H   0  0  0  0  0  0  0  0  0  0  0  0
  1  2  1  0  0  0  0
  1 29  1  0  0  0  0
  1 30  1  0  0  0  0
  1 31  1  0  0  0  0
  2  3  1  0  0  0  0
  2 32  1  0  0  0  0
  2 33  1  0  0  0  0
  3  4  2  0  0  0  0
  3  5  1  0  0  0  0
  5  6  1  0  0  0  0
  5 34  1  0  0  0  0
  6 28  1  0  0  0  0
  6  7  1  0  0  0  0
  6 35  1  0  0  0  0
  7  8  1  0  0  0  0
  7 36  1  0  0  0  0
  7 37  1  0  0  0  0
  8  9  1  0  0  0  0
  8 38  1  0  0  0  0
  8 39  1  0  0  0  0
  9 10  1  0  0  0  0
  9 40  1  0  0  0  0
  9 41  1  0  0  0  0
 10 11  1  0  0  0  0
 10 28  1  0  0  0  0
 11 16  1  0  0  0  0
 11 12  2  0  0  0  0
 12 13  1  0  0  0  0
 13 14  2  0  0  0  0
 13 42  1  0  0  0  0
 14 15  1  0  0  0  0
 15 19  1  0  0  0  0
 15 16  2  0  0  0  0
 16 17  1  0  0  0  0
 17 18  2  0  0  0  0
 18 19  1  0  0  0  0
 18 43  1  0  0  0  0
 19 20  1  0  0  0  0
 20 21  1  0  0  0  0
 20 44  1  0  0  0  0
 20 45  1  0  0  0  0
 21 26  1  0  0  0  0
 21 22  1  0  0  0  0
 21 23  1  0  0  0  0
 22 46  1  0  0  0  0
 23 24  1  0  0  0  0
 23 47  1  0  0  0  0
 23 48  1  0  0  0  0
 24 25  1  0  0  0  0
 24 49  1  0  0  0  0
 24 50  1  0  0  0  0
 25 26  1  0  0  0  0
 26 27  1  0  0  0  0
 26 51  1  0  0  0  0
 27 52  1  0  0  0  0
 27 53  1  0  0  0  0
 27 54  1  0  0  0  0
 28 55  1  0  0  0  0
 28 56  1  0  0  0  0
M  END
> <s_m_source_file>
AV-unprocessed.smi

> <i_m_source_file_index>
252

> <i_lp_mmshare_version>
43012

> <i_f3d_flags>
0

> <s_epik_input>
W0NIM11bQ0gyXUMoPU8pW05IXVtDQEBIXTFbQ0gyXVtDSDJdW0NIMl1OKFtDSDJdMSljKG5bY0hdbjIpYyhjMjMpbltjSF1uM1tDSDJdW0NAQF00KFtPSF0pW0NIMl1bQ0gyXU9bQ0BIXTRbQ0gzXQ==

> <s_epik_cmdline>
J2VwaWtfcHl0aG9uJywgJy1waCcsICc3LjAnLCAnLXRuJywgJzgnLCAnLW1hJywgJzIwMCcsICctbWV0YWxfYmluZGluZycsICctaW1hZScsICc8aW5maWxlLm1hZT4nLCAnLW9tYWUnLCAnPG91dGZpbGUubWFlPic=

> <r_lp_tautomer_probability>
1

> <r_epik_Ionization_Penalty>
0.00182575

> <r_epik_Ionization_Penalty_Charging>
0

> <r_epik_Ionization_Penalty_Neutral>
0.00182575

> <r_epik_State_Penalty>
0.00104524

> <r_epik_Charging_Adjusted_Penalty>
0.00104524

> <i_epik_Tot_Q>
0

> <i_epik_Tot_abs_Q>
0

> <r_epik_Metal_State_Penalty>
-0

> <b_epik_Metal_Only>
0

> <s_lp_Force_Field>
OPLS_2005

> <r_lp_Energy>
35.9235

> <b_lp_Chiralities_Consistent>
1

> <s_lp_Variant>
AV-unprocessed.smi:252-8

> <Gold.Version>
5.8.1

> <Gold.Id.Protein>
6NUR|6NUR_protein|mol2

> <Gold.PLP.Fitness>
41.2960

> <Gold.PLP.PLP>
-42.2479

> <Gold.PLP.part.hbond>
-2.8997

> <Gold.PLP.part.metal>
0.0000

> <Gold.PLP.part.buried>
-6.3238

> <Gold.PLP.part.nonpolar>
-33.3039

> <Gold.PLP.part.repulsive>
0.0962

> <Gold.PLP.ligand.clash>
0.0000

> <Gold.PLP.ligand.torsion>
0.6823

> <Gold.PLP.Chemscore.Hbond>
0.0000

> <Gold.PLP.Chemscore.CHOScore>
0.0000

> <Gold.PLP.Chemscore.Metal>
0.0000

> <Gold.PLP.Chemscore.Internal.Correction>
0.4127

> <Gold.Rescore>
     Score         DG    S(hbond)    S(metal)    S(lipo)     H(rot)  DE(clash)    DE(int)     intcor
      7.91      -9.96       0.00        0.00      97.43       2.70       0.09       1.95       ----

> <Gold.Chemscore.Fitness>
7.9098

> <Gold.Chemscore.DG>
-9.9564

> <Gold.Chemscore.ZeroCoef>
-5.4800

> <Gold.Chemscore.Hbond>
0.0000

> <Gold.Chemscore.Metal>
0.0000

> <Gold.Chemscore.Lipo>
97.4264

> <Gold.Chemscore.Internal_Hbond>
0.0000

> <Gold.Chemscore.DEClash>
0.0947

> <Gold.Chemscore.DEInternal>
1.9519

> <Gold.Chemscore.Rot>
2.7041

> <Gold.Chemscore.Internal.Correction>
   9.000000E+99

> <Gold.Chemscore.Hbond.Weighted>
-0.0000

> <Gold.Chemscore.Metal.Weighted>
-0.0000

> <Gold.Chemscore.Lipo.Weighted>
-11.3989

> <Gold.Chemscore.Internal_Hbond.Weighted>
0.0000

> <Gold.Chemscore.DEClash.Weighted>
0.0947

> <Gold.Chemscore.DEInternal.Weighted>
1.9519

> <Gold.Chemscore.Rot.Weighted>
6.9225

> <Gold.Chemscore.Internal.Correction.Weighted>
   9.000000E+99

> <Gold.Protein.RotatedTorsions>
[ 6907 6896 6895 6894 ] final  -48.46 input  -60.11 | X-H torsion
[ 7974 7965 7964 7962 ] final  -81.99 input  175.53 | X-H torsion
[ 8008 7997 7996 7995 ] final  -71.07 input   59.86 | X-H torsion
[ 10167 10162 10161 10158 ] final   51.22 input  -65.29 | X-H torsion
[ 10718 10713 10712 10709 ] final   23.64 input   66.30 | X-H torsion
[ 10763 10752 10751 10750 ] final  -90.68 input  -60.55 | X-H torsion
[ 11005 11000 10999 10996 ] final  -58.17 input  -57.11 | X-H torsion

> <Gold.Protein.ActiveResidues>
 VAL166  LYS551  ARG553  GLY616  TRP617  ASP618  TYR619  PRO620  LYS621  CYS622 
 ASP623  PHE694  ASN695  SER759  ASP760  ASP761  ALA762  ILE779  LEU786  VAL792 
 PHE793  MET794  SER795  GLU796  ALA797  LYS798  CYS799  TRP800  GLU811  SER814 

> <Gold.Protein.RotatedAtoms>
  150.8903  134.8305  159.7288 H   0  0  0  0  0  0  0  0  0  0  0  0  # atno 6907 bound_to 6896
  152.4833  134.4659  159.9630 H   0  0  0  0  0  0  0  0  0  0  0  0  # atno 6908 bound_to 6896
  151.4722  133.3527  159.2860 H   0  0  0  0  0  0  0  0  0  0  0  0  # atno 6909 bound_to 6896
  145.5393  140.9511  143.1560 H   0  0  0  0  0  0  0  0  0  0  0  0  # atno 7974 bound_to 7965
  154.5060  140.0822  156.7894 H   0  0  0  0  0  0  0  0  0  0  0  0  # atno 8008 bound_to 7997
  155.3894  140.3432  155.4232 H   0  0  0  0  0  0  0  0  0  0  0  0  # atno 8009 bound_to 7997
  156.1515  140.1560  156.8749 H   0  0  0  0  0  0  0  0  0  0  0  0  # atno 8010 bound_to 7997
  140.2642  144.3339  150.6309 H   0  0  0  0  0  0  0  0  0  0  0  0  # atno 10167 bound_to 10162
  157.1689  130.6751  149.6071 H   0  0  0  0  0  0  0  0  0  0  0  0  # atno 10718 bound_to 10713
  154.6683  135.5295  153.8105 H   0  0  0  0  0  0  0  0  0  0  0  0  # atno 10763 bound_to 10752
  153.0485  135.6523  154.0764 H   0  0  0  0  0  0  0  0  0  0  0  0  # atno 10764 bound_to 10752
  154.0666  135.2957  155.3295 H   0  0  0  0  0  0  0  0  0  0  0  0  # atno 10765 bound_to 10752
  141.1196  133.6611  156.4880 H   0  0  0  0  0  0  0  0  0  0  0  0  # atno 11005 bound_to 11000
  144.7585  139.7014  143.7244 LP  0  0  0  0  0  0  0  0  0  0  0  0  # atno 17320 bound_to 7965
  146.1992  139.5276  142.9754 LP  0  0  0  0  0  0  0  0  0  0  0  0  # atno 17321 bound_to 7965
  140.5942  143.2167  151.7196 LP  0  0  0  0  0  0  0  0  0  0  0  0  # atno 17342 bound_to 10162
  139.5008  144.3893  152.0296 LP  0  0  0  0  0  0  0  0  0  0  0  0  # atno 17343 bound_to 10162
  155.9741  130.4686  150.6364 LP  0  0  0  0  0  0  0  0  0  0  0  0  # atno 17370 bound_to 10713
  157.4062  131.0817  151.1263 LP  0  0  0  0  0  0  0  0  0  0  0  0  # atno 17371 bound_to 10713
  140.4547  134.6897  157.5056 LP  0  0  0  0  0  0  0  0  0  0  0  0  # atno 17394 bound_to 11000
  140.0143  134.6643  155.9334 LP  0  0  0  0  0  0  0  0  0  0  0  0  # atno 17395 bound_to 11000

$$$$
