AV-unprocessed.smi:1990|AV-procd|sdf|8061|dock8
  -GOLD-   2272010263D 1   1.00000     0.00000
 Structure written by MMmdl.
 46 47  0  0  0  0  0  0  0  0  1 V2000
  149.5944  142.1633  157.5928 C   0  0  0  0  0  0  0  0  0  0  0  0
  151.0567  142.4851  157.2371 C   0  0  2  0  0  0  0  0  0  0  0  0
  152.0644  141.4640  157.8022 C   0  0  0  0  0  0  0  0  0  0  0  0
  152.2667  141.6617  159.2344 N   0  0  0  0  0  0  0  0  0  0  0  0
  152.9461  140.6176  159.8968 C   0  0  0  0  0  0  0  0  0  0  0  0
  153.9429  140.9170  160.8547 C   0  0  0  0  0  0  0  0  0  0  0  0
  154.6131  139.8635  161.5058 C   0  0  0  0  0  0  0  0  0  0  0  0
  154.2629  138.5300  161.1892 C   0  0  0  0  0  0  0  0  0  0  0  0
  154.8732  137.3768  161.7527 N   0  0  0  0  0  0  0  0  0  0  0  0
  154.7746  136.0896  161.3709 C   0  0  0  0  0  0  0  0  0  0  0  0
  154.1557  135.7004  160.3811 O   0  0  0  0  0  0  0  0  0  0  0  0
  155.5309  135.0804  162.2463 C   0  0  2  0  0  0  0  0  0  0  0  0
  155.3475  133.6363  161.7501 C   0  0  0  0  0  0  0  0  0  0  0  0
  154.9657  135.2194  164.0070 S   0  0  0  0  0  0  0  0  0  0  0  0
  154.3014  133.5393  164.3700 C   0  0  0  0  0  0  0  0  0  0  0  0
  156.1367  135.4419  164.8692 O   0  0  0  0  0  0  0  0  0  0  0  0
  153.8473  136.1737  164.0508 O   0  0  0  0  0  0  0  0  0  0  0  0
  153.2668  138.3326  160.2124 C   0  0  0  0  0  0  0  0  0  0  0  0
  152.6249  139.3388  159.5836 N   0  0  0  0  0  0  0  0  0  0  0  0
  152.6166  143.0361  159.5807 C   0  0  0  0  0  0  0  0  0  0  0  0
  151.5650  144.0121  159.0249 C   0  0  1  0  0  0  0  0  0  0  0  0
  151.9608  145.4734  159.2619 C   0  0  0  0  0  0  0  0  0  0  0  0
  151.4257  143.8124  157.6189 O   0  0  0  0  0  0  0  0  0  0  0  0
  149.2978  141.2024  157.1717 H   0  0  0  0  0  0  0  0  0  0  0  0
  148.9212  142.9211  157.1918 H   0  0  0  0  0  0  0  0  0  0  0  0
  149.4325  142.1065  158.6691 H   0  0  0  0  0  0  0  0  0  0  0  0
  151.1290  142.4522  156.1497 H   0  0  0  0  0  0  0  0  0  0  0  0
  151.7244  140.4545  157.5740 H   0  0  0  0  0  0  0  0  0  0  0  0
  153.0270  141.5879  157.3042 H   0  0  0  0  0  0  0  0  0  0  0  0
  154.2126  141.9382  161.0810 H   0  0  0  0  0  0  0  0  0  0  0  0
  155.3882  140.1035  162.2162 H   0  0  0  0  0  0  0  0  0  0  0  0
  155.4865  137.5576  162.5341 H   0  0  0  0  0  0  0  0  0  0  0  0
  156.5952  135.3177  162.2317 H   0  0  0  0  0  0  0  0  0  0  0  0
  155.6394  133.5357  160.7043 H   0  0  0  0  0  0  0  0  0  0  0  0
  154.3111  133.3091  161.8429 H   0  0  0  0  0  0  0  0  0  0  0  0
  155.9615  132.9463  162.3292 H   0  0  0  0  0  0  0  0  0  0  0  0
  153.8452  133.5404  165.3598 H   0  0  0  0  0  0  0  0  0  0  0  0
  155.1088  132.8077  164.3541 H   0  0  0  0  0  0  0  0  0  0  0  0
  153.5496  133.2731  163.6275 H   0  0  0  0  0  0  0  0  0  0  0  0
  152.9735  137.3340  159.9229 H   0  0  0  0  0  0  0  0  0  0  0  0
  152.6765  143.1478  160.6641 H   0  0  0  0  0  0  0  0  0  0  0  0
  153.6011  143.2695  159.1730 H   0  0  0  0  0  0  0  0  0  0  0  0
  150.6081  143.8382  159.5174 H   0  0  0  0  0  0  0  0  0  0  0  0
  152.0684  145.6824  160.3263 H   0  0  0  0  0  0  0  0  0  0  0  0
  151.2048  146.1510  158.8649 H   0  0  0  0  0  0  0  0  0  0  0  0
  152.9082  145.7099  158.7769 H   0  0  0  0  0  0  0  0  0  0  0  0
  1  2  1  0  0  0  0
  1 24  1  0  0  0  0
  1 25  1  0  0  0  0
  1 26  1  0  0  0  0
  2 23  1  0  0  0  0
  2  3  1  0  0  0  0
  2 27  1  0  0  0  0
  3  4  1  0  0  0  0
  3 28  1  0  0  0  0
  3 29  1  0  0  0  0
  4  5  1  0  0  0  0
  4 20  1  0  0  0  0
  5 19  1  0  0  0  0
  5  6  2  0  0  0  0
  6  7  1  0  0  0  0
  6 30  1  0  0  0  0
  7  8  2  0  0  0  0
  7 31  1  0  0  0  0
  8  9  1  0  0  0  0
  8 18  1  0  0  0  0
  9 10  1  0  0  0  0
  9 32  1  0  0  0  0
 10 11  2  0  0  0  0
 10 12  1  0  0  0  0
 12 13  1  0  0  0  0
 12 14  1  0  0  0  0
 12 33  1  0  0  0  0
 13 34  1  0  0  0  0
 13 35  1  0  0  0  0
 13 36  1  0  0  0  0
 14 15  1  0  0  0  0
 14 16  2  0  0  0  0
 14 17  2  0  0  0  0
 15 37  1  0  0  0  0
 15 38  1  0  0  0  0
 15 39  1  0  0  0  0
 18 19  2  0  0  0  0
 18 40  1  0  0  0  0
 20 21  1  0  0  0  0
 20 41  1  0  0  0  0
 20 42  1  0  0  0  0
 21 22  1  0  0  0  0
 21 23  1  0  0  0  0
 21 43  1  0  0  0  0
 22 44  1  0  0  0  0
 22 45  1  0  0  0  0
 22 46  1  0  0  0  0
M  END
> <s_m_source_file>
AV-unprocessed.smi

> <i_m_source_file_index>
1990

> <i_lp_mmshare_version>
43012

> <i_f3d_flags>
0

> <s_epik_input>
W0NIM11bQ0BASF0xW0NIMl1OKFtDSDJdW0NASF0oTzEpW0NIM10pYzJbY0hdW2NIXWMoW2NIXW4yKVtOSF1DKD1PKVtDQEhdKFtDSDNdKVMoPU8pKD1PKVtDSDNd

> <s_epik_cmdline>
J2VwaWtfcHl0aG9uJywgJy1waCcsICc3LjAnLCAnLXRuJywgJzgnLCAnLW1hJywgJzIwMCcsICctbWV0YWxfYmluZGluZycsICctaW1hZScsICc8aW5maWxlLm1hZT4nLCAnLW9tYWUnLCAnPG91dGZpbGUubWFlPic=

> <r_lp_tautomer_probability>
1

> <r_epik_Ionization_Penalty>
0.000334888

> <r_epik_Ionization_Penalty_Charging>
0

> <r_epik_Ionization_Penalty_Neutral>
0.000334888

> <r_epik_State_Penalty>
0.000200905

> <r_epik_Charging_Adjusted_Penalty>
0.000200905

> <i_epik_Tot_Q>
0

> <i_epik_Tot_abs_Q>
0

> <r_epik_Metal_State_Penalty>
-0

> <b_epik_Metal_Only>
0

> <s_lp_Force_Field>
OPLS_2005

> <r_lp_Energy>
21.5885

> <b_lp_Chiralities_Consistent>
1

> <s_lp_Variant>
AV-unprocessed.smi:1990-1

> <Gold.Version>
5.8.1

> <Gold.Id.Protein>
6NUR|6NUR_protein|mol2

> <Gold.PLP.Fitness>
42.0934

> <Gold.PLP.PLP>
-39.3646

> <Gold.PLP.part.hbond>
-1.0000

> <Gold.PLP.part.metal>
0.0000

> <Gold.PLP.part.buried>
-6.4753

> <Gold.PLP.part.nonpolar>
-30.7591

> <Gold.PLP.part.repulsive>
0.2916

> <Gold.PLP.ligand.clash>
0.0000

> <Gold.PLP.ligand.torsion>
0.3681

> <Gold.PLP.Chemscore.Hbond>
1.0000

> <Gold.PLP.Chemscore.CHOScore>
0.0000

> <Gold.PLP.Chemscore.Metal>
0.0000

> <Gold.Chemscore.Hbonds>
donor molecule, donor type, donor heavy atom, donor atom, acceptor molecule, acceptor atom, score
      P1  H  6896  6908       L1    11  1.00

> <Gold.PLP.Chemscore.Internal.Correction>
0.4649

> <Gold.Rescore>
     Score         DG    S(hbond)    S(metal)    S(lipo)     H(rot)  DE(clash)    DE(int)     intcor
     14.21     -17.30       1.00        0.00     105.79       1.52       0.17       2.92       ----

> <Gold.Chemscore.Fitness>
14.2088

> <Gold.Chemscore.DG>
-17.3018

> <Gold.Chemscore.ZeroCoef>
-5.4800

> <Gold.Chemscore.Hbond>
0.9968

> <Gold.Chemscore.Metal>
0.0000

> <Gold.Chemscore.Lipo>
105.7944

> <Gold.Chemscore.Internal_Hbond>
0.0000

> <Gold.Chemscore.DEClash>
0.1748

> <Gold.Chemscore.DEInternal>
2.9182

> <Gold.Chemscore.Rot>
1.5177

> <Gold.Chemscore.Internal.Correction>
   9.000000E+99

> <Gold.Chemscore.Hbonds>
donor molecule, donor type, donor heavy atom, donor atom, acceptor molecule, acceptor atom, score
      P1  H  6896  6908       L1    11  0.93

> <Gold.Chemscore.Hbond.Weighted>
-3.3292

> <Gold.Chemscore.Metal.Weighted>
-0.0000

> <Gold.Chemscore.Lipo.Weighted>
-12.3779

> <Gold.Chemscore.Internal_Hbond.Weighted>
0.0000

> <Gold.Chemscore.DEClash.Weighted>
0.1748

> <Gold.Chemscore.DEInternal.Weighted>
2.9182

> <Gold.Chemscore.Rot.Weighted>
3.8853

> <Gold.Chemscore.Internal.Correction.Weighted>
   9.000000E+99

> <Gold.Protein.RotatedTorsions>
[ 6907 6896 6895 6894 ] final  -54.49 input  -60.11 | X-H torsion
[ 7974 7965 7964 7962 ] final  -23.17 input  175.53 | X-H torsion
[ 8008 7997 7996 7995 ] final  100.57 input   59.86 | X-H torsion
[ 10167 10162 10161 10158 ] final   48.23 input  -65.29 | X-H torsion
[ 10718 10713 10712 10709 ] final  165.24 input   66.30 | X-H torsion
[ 10763 10752 10751 10750 ] final  -63.36 input  -60.55 | X-H torsion
[ 11005 11000 10999 10996 ] final  131.39 input  -57.11 | X-H torsion

> <Gold.Protein.ActiveResidues>
 VAL166  LYS551  ARG553  GLY616  TRP617  ASP618  TYR619  PRO620  LYS621  CYS622 
 ASP623  PHE694  ASN695  SER759  ASP760  ASP761  ALA762  ILE779  LEU786  VAL792 
 PHE793  MET794  SER795  GLU796  ALA797  LYS798  CYS799  TRP800  GLU811  SER814 

> <Gold.Protein.RotatedAtoms>
  150.8334  134.7596  159.6871 H   0  0  0  0  0  0  0  0  0  0  0  0  # atno 6907 bound_to 6896
  152.4434  134.5540  159.9885 H   0  0  0  0  0  0  0  0  0  0  0  0  # atno 6908 bound_to 6896
  151.5696  133.3354  159.3023 H   0  0  0  0  0  0  0  0  0  0  0  0  # atno 6909 bound_to 6896
  146.1632  140.4579  142.8562 H   0  0  0  0  0  0  0  0  0  0  0  0  # atno 7974 bound_to 7965
  156.1216  140.3211  155.8217 H   0  0  0  0  0  0  0  0  0  0  0  0  # atno 8008 bound_to 7997
  155.4494  140.0531  157.3020 H   0  0  0  0  0  0  0  0  0  0  0  0  # atno 8009 bound_to 7997
  154.4832  140.2061  155.9730 H   0  0  0  0  0  0  0  0  0  0  0  0  # atno 8010 bound_to 7997
  140.2954  144.2996  150.6231 H   0  0  0  0  0  0  0  0  0  0  0  0  # atno 10167 bound_to 10162
  157.0829  131.0397  151.2568 H   0  0  0  0  0  0  0  0  0  0  0  0  # atno 10718 bound_to 10713
  154.3138  135.6210  153.5477 H   0  0  0  0  0  0  0  0  0  0  0  0  # atno 10763 bound_to 10752
  152.9827  135.5707  154.5147 H   0  0  0  0  0  0  0  0  0  0  0  0  # atno 10764 bound_to 10752
  154.4802  135.2863  155.1553 H   0  0  0  0  0  0  0  0  0  0  0  0  # atno 10765 bound_to 10752
  139.9728  134.9572  156.9432 H   0  0  0  0  0  0  0  0  0  0  0  0  # atno 11005 bound_to 11000
  144.8056  140.6293  143.6449 LP  0  0  0  0  0  0  0  0  0  0  0  0  # atno 17320 bound_to 7965
  145.4534  139.1521  143.3906 LP  0  0  0  0  0  0  0  0  0  0  0  0  # atno 17321 bound_to 7965
  140.5696  143.2182  151.7622 LP  0  0  0  0  0  0  0  0  0  0  0  0  # atno 17342 bound_to 10162
  139.4927  144.4235  151.9952 LP  0  0  0  0  0  0  0  0  0  0  0  0  # atno 17343 bound_to 10162
  157.4785  130.7751  149.7391 LP  0  0  0  0  0  0  0  0  0  0  0  0  # atno 17370 bound_to 10713
  155.9918  130.3935  150.2967 LP  0  0  0  0  0  0  0  0  0  0  0  0  # atno 17371 bound_to 10713
  140.5258  134.0862  155.7303 LP  0  0  0  0  0  0  0  0  0  0  0  0  # atno 17394 bound_to 11000
  141.1406  133.9144  157.2333 LP  0  0  0  0  0  0  0  0  0  0  0  0  # atno 17395 bound_to 11000

$$$$
