AV-unprocessed.smi:2203|AV-procd|sdf|8935|dock8
  -GOLD-   2272012153D 1   1.00000     0.00000
 Structure written by MMmdl.
 48 49  0  0  0  0  0  0  0  0  1 V2000
  151.7437  137.9850  154.0821 C   0  0  0  0  0  0  0  0  0  0  0  0
  150.9150  139.0645  154.7180 C   0  0  0  0  0  0  0  0  0  0  0  0
  151.4849  140.2143  155.0350 N   0  0  0  0  0  0  0  0  0  0  0  0
  150.4942  140.9578  155.5701 N   0  0  0  0  0  0  0  0  0  0  0  0
  150.7902  142.3056  156.0332 C   0  0  0  0  0  0  0  0  0  0  0  0
  150.9968  142.3929  157.5607 C   0  0  0  0  0  0  0  0  0  0  0  0
  149.6785  142.1311  158.3032 C   0  0  0  0  0  0  0  0  0  0  0  0
  151.6185  143.7282  158.0050 C   0  0  0  0  0  0  0  0  0  0  0  0
  149.2911  140.2751  155.5800 C   0  0  0  0  0  0  0  0  0  0  0  0
  148.0266  140.8754  156.1070 C   0  0  0  0  0  0  0  0  0  0  0  0
  149.5261  139.0393  155.0390 C   0  0  0  0  0  0  0  0  0  0  0  0
  148.5523  137.9095  154.8201 C   0  0  0  0  0  0  0  0  0  0  0  0
  149.1509  136.6089  155.3546 C   0  0  0  0  0  0  0  0  0  0  0  0
  149.3987  136.4922  156.5547 O   0  0  0  0  0  0  0  0  0  0  0  0
  149.3694  135.6372  154.4573 N   0  0  0  0  0  0  0  0  0  0  0  0
  149.9138  134.3257  154.7782 C   0  0  0  0  0  0  0  0  0  0  0  0
  149.4211  133.2755  153.7735 C   0  0  2  0  0  0  0  0  0  0  0  0
  147.9169  133.3386  153.5089 C   0  0  0  0  0  0  0  0  0  0  0  0
  147.6111  131.9112  153.1181 C   0  0  0  0  0  0  0  0  0  0  0  0
  148.5137  131.1366  154.0718 C   0  0  0  0  0  0  0  0  0  0  0  0
  149.6613  131.9581  154.2671 O   0  0  0  0  0  0  0  0  0  0  0  0
  151.5930  137.9660  153.0026 H   0  0  0  0  0  0  0  0  0  0  0  0
  151.4773  137.0030  154.4725 H   0  0  0  0  0  0  0  0  0  0  0  0
  152.8082  138.1336  154.2671 H   0  0  0  0  0  0  0  0  0  0  0  0
  151.6801  142.6678  155.5153 H   0  0  0  0  0  0  0  0  0  0  0  0
  149.9749  142.9598  155.7240 H   0  0  0  0  0  0  0  0  0  0  0  0
  151.6887  141.6021  157.8512 H   0  0  0  0  0  0  0  0  0  0  0  0
  148.9325  142.8903  158.0663 H   0  0  0  0  0  0  0  0  0  0  0  0
  149.8272  142.1358  159.3835 H   0  0  0  0  0  0  0  0  0  0  0  0
  149.2625  141.1597  158.0342 H   0  0  0  0  0  0  0  0  0  0  0  0
  150.9927  144.5715  157.7113 H   0  0  0  0  0  0  0  0  0  0  0  0
  152.6060  143.8772  157.5682 H   0  0  0  0  0  0  0  0  0  0  0  0
  151.7374  143.7637  159.0881 H   0  0  0  0  0  0  0  0  0  0  0  0
  147.1596  140.2785  155.8241 H   0  0  0  0  0  0  0  0  0  0  0  0
  147.8733  141.8801  155.7135 H   0  0  0  0  0  0  0  0  0  0  0  0
  148.0499  140.9341  157.1950 H   0  0  0  0  0  0  0  0  0  0  0  0
  147.5979  138.1019  155.3117 H   0  0  0  0  0  0  0  0  0  0  0  0
  148.3205  137.7820  153.7623 H   0  0  0  0  0  0  0  0  0  0  0  0
  149.1425  135.8167  153.4901 H   0  0  0  0  0  0  0  0  0  0  0  0
  151.0045  134.3623  154.7787 H   0  0  0  0  0  0  0  0  0  0  0  0
  149.5988  134.0532  155.7864 H   0  0  0  0  0  0  0  0  0  0  0  0
  149.9521  133.3792  152.8256 H   0  0  0  0  0  0  0  0  0  0  0  0
  147.3743  133.5968  154.4198 H   0  0  0  0  0  0  0  0  0  0  0  0
  147.6509  134.0612  152.7370 H   0  0  0  0  0  0  0  0  0  0  0  0
  146.5570  131.6521  153.2218 H   0  0  0  0  0  0  0  0  0  0  0  0
  147.9101  131.7318  152.0845 H   0  0  0  0  0  0  0  0  0  0  0  0
  148.0196  130.9983  155.0344 H   0  0  0  0  0  0  0  0  0  0  0  0
  148.7853  130.1538  153.6861 H   0  0  0  0  0  0  0  0  0  0  0  0
  1  2  1  0  0  0  0
  1 22  1  0  0  0  0
  1 23  1  0  0  0  0
  1 24  1  0  0  0  0
  2 11  1  0  0  0  0
  2  3  2  0  0  0  0
  3  4  1  0  0  0  0
  4  5  1  0  0  0  0
  4  9  1  0  0  0  0
  5  6  1  0  0  0  0
  5 25  1  0  0  0  0
  5 26  1  0  0  0  0
  6  7  1  0  0  0  0
  6  8  1  0  0  0  0
  6 27  1  0  0  0  0
  7 28  1  0  0  0  0
  7 29  1  0  0  0  0
  7 30  1  0  0  0  0
  8 31  1  0  0  0  0
  8 32  1  0  0  0  0
  8 33  1  0  0  0  0
  9 10  1  0  0  0  0
  9 11  2  0  0  0  0
 10 34  1  0  0  0  0
 10 35  1  0  0  0  0
 10 36  1  0  0  0  0
 11 12  1  0  0  0  0
 12 13  1  0  0  0  0
 12 37  1  0  0  0  0
 12 38  1  0  0  0  0
 13 14  2  0  0  0  0
 13 15  1  0  0  0  0
 15 16  1  0  0  0  0
 15 39  1  0  0  0  0
 16 17  1  0  0  0  0
 16 40  1  0  0  0  0
 16 41  1  0  0  0  0
 17 21  1  0  0  0  0
 17 18  1  0  0  0  0
 17 42  1  0  0  0  0
 18 19  1  0  0  0  0
 18 43  1  0  0  0  0
 18 44  1  0  0  0  0
 19 20  1  0  0  0  0
 19 45  1  0  0  0  0
 19 46  1  0  0  0  0
 20 21  1  0  0  0  0
 20 47  1  0  0  0  0
 20 48  1  0  0  0  0
M  END
> <s_m_source_file>
AV-unprocessed.smi

> <i_m_source_file_index>
2203

> <i_lp_mmshare_version>
43012

> <i_f3d_flags>
0

> <s_epik_input>
W0NIM11jMW5uKFtDSDJdW0NIXShbQ0gzXSlbQ0gzXSljKFtDSDNdKWMxW0NIMl1DKD1PKVtOSF1bQ0gyXVtDQEBIXTJbQ0gyXVtDSDJdW0NIMl1PMg==

> <s_epik_cmdline>
J2VwaWtfcHl0aG9uJywgJy1waCcsICc3LjAnLCAnLXRuJywgJzgnLCAnLW1hJywgJzIwMCcsICctbWV0YWxfYmluZGluZycsICctaW1hZScsICc8aW5maWxlLm1hZT4nLCAnLW9tYWUnLCAnPG91dGZpbGUubWFlPic=

> <r_lp_tautomer_probability>
1

> <r_epik_Ionization_Penalty>
0.00306713

> <r_epik_Ionization_Penalty_Charging>
0

> <r_epik_Ionization_Penalty_Neutral>
0.00306713

> <r_epik_State_Penalty>
0.00215672

> <r_epik_Charging_Adjusted_Penalty>
0.00215672

> <i_epik_Tot_Q>
0

> <i_epik_Tot_abs_Q>
0

> <r_epik_Metal_State_Penalty>
-0

> <b_epik_Metal_Only>
0

> <s_lp_Force_Field>
OPLS_2005

> <r_lp_Energy>
15.5636

> <b_lp_Chiralities_Consistent>
1

> <s_lp_Variant>
AV-unprocessed.smi:2203-1

> <Gold.Version>
5.8.1

> <Gold.Id.Protein>
6NUR|6NUR_protein|mol2

> <Gold.PLP.Fitness>
40.4227

> <Gold.PLP.PLP>
-35.8704

> <Gold.PLP.part.hbond>
-2.0000

> <Gold.PLP.part.metal>
0.0000

> <Gold.PLP.part.buried>
-4.7593

> <Gold.PLP.part.nonpolar>
-29.4186

> <Gold.PLP.part.repulsive>
0.1151

> <Gold.PLP.ligand.clash>
0.0000

> <Gold.PLP.ligand.torsion>
0.7592

> <Gold.PLP.Chemscore.Hbond>
2.0000

> <Gold.PLP.Chemscore.CHOScore>
0.0000

> <Gold.PLP.Chemscore.Metal>
0.0000

> <Gold.Chemscore.Hbonds>
donor molecule, donor type, donor heavy atom, donor atom, acceptor molecule, acceptor atom, score
      L1  H    15    39       P1  7948  1.00
      P1  H  7989  7998       L1     3  1.00

> <Gold.PLP.Chemscore.Internal.Correction>
0.0707

> <Gold.Rescore>
     Score         DG    S(hbond)    S(metal)    S(lipo)     H(rot)  DE(clash)    DE(int)     intcor
     16.10     -17.39       1.72        0.00      88.42       1.63       0.41       0.88       ----

> <Gold.Chemscore.Fitness>
16.1043

> <Gold.Chemscore.DG>
-17.3947

> <Gold.Chemscore.ZeroCoef>
-5.4800

> <Gold.Chemscore.Hbond>
1.7216

> <Gold.Chemscore.Metal>
0.0000

> <Gold.Chemscore.Lipo>
88.4161

> <Gold.Chemscore.Internal_Hbond>
0.0000

> <Gold.Chemscore.DEClash>
0.4067

> <Gold.Chemscore.DEInternal>
0.8836

> <Gold.Chemscore.Rot>
1.6329

> <Gold.Chemscore.Internal.Correction>
   9.000000E+99

> <Gold.Chemscore.Hbonds>
donor molecule, donor type, donor heavy atom, donor atom, acceptor molecule, acceptor atom, score
      L1  H    15    39       P1  7948  0.78
      P1  H  7989  7998       L1     3  0.10

> <Gold.Chemscore.Hbond.Weighted>
-5.7503

> <Gold.Chemscore.Metal.Weighted>
-0.0000

> <Gold.Chemscore.Lipo.Weighted>
-10.3447

> <Gold.Chemscore.Internal_Hbond.Weighted>
0.0000

> <Gold.Chemscore.DEClash.Weighted>
0.4067

> <Gold.Chemscore.DEInternal.Weighted>
0.8836

> <Gold.Chemscore.Rot.Weighted>
4.1803

> <Gold.Chemscore.Internal.Correction.Weighted>
   9.000000E+99

> <Gold.Protein.RotatedTorsions>
[ 6907 6896 6895 6894 ] final   34.95 input  -60.11 | X-H torsion
[ 7974 7965 7964 7962 ] final -105.44 input  175.53 | X-H torsion
[ 8008 7997 7996 7995 ] final   15.72 input   59.86 | X-H torsion
[ 10167 10162 10161 10158 ] final    1.49 input  -65.29 | X-H torsion
[ 10718 10713 10712 10709 ] final  111.37 input   66.30 | X-H torsion
[ 10763 10752 10751 10750 ] final -147.86 input  -60.55 | X-H torsion
[ 11005 11000 10999 10996 ] final  -74.89 input  -57.11 | X-H torsion

> <Gold.Protein.ActiveResidues>
 VAL166  LYS551  ARG553  GLY616  TRP617  ASP618  TYR619  PRO620  LYS621  CYS622 
 ASP623  PHE694  ASN695  SER759  ASP760  ASP761  ALA762  ILE779  LEU786  VAL792 
 PHE793  MET794  SER795  GLU796  ALA797  LYS798  CYS799  TRP800  GLU811  SER814 

> <Gold.Protein.RotatedAtoms>
  152.1094  134.9285  160.0566 H   0  0  0  0  0  0  0  0  0  0  0  0  # atno 6907 bound_to 6896
  152.0469  133.3997  159.4368 H   0  0  0  0  0  0  0  0  0  0  0  0  # atno 6908 bound_to 6896
  150.6843  134.3273  159.4855 H   0  0  0  0  0  0  0  0  0  0  0  0  # atno 6909 bound_to 6896
  145.2305  140.9168  143.3207 H   0  0  0  0  0  0  0  0  0  0  0  0  # atno 7974 bound_to 7965
  154.8667  140.2952  155.5506 H   0  0  0  0  0  0  0  0  0  0  0  0  # atno 8008 bound_to 7997
  156.3021  140.2468  156.3582 H   0  0  0  0  0  0  0  0  0  0  0  0  # atno 8009 bound_to 7997
  154.8861  140.0396  157.1800 H   0  0  0  0  0  0  0  0  0  0  0  0  # atno 8010 bound_to 7997
  140.6680  143.7126  150.7866 H   0  0  0  0  0  0  0  0  0  0  0  0  # atno 10167 bound_to 10162
  157.6448  131.0949  150.6738 H   0  0  0  0  0  0  0  0  0  0  0  0  # atno 10718 bound_to 10713
  154.8263  135.3349  154.6885 H   0  0  0  0  0  0  0  0  0  0  0  0  # atno 10763 bound_to 10752
  153.7510  135.6939  153.4950 H   0  0  0  0  0  0  0  0  0  0  0  0  # atno 10764 bound_to 10752
  153.2176  135.4460  155.0403 H   0  0  0  0  0  0  0  0  0  0  0  0  # atno 10765 bound_to 10752
  141.1640  133.6927  156.7434 H   0  0  0  0  0  0  0  0  0  0  0  0  # atno 11005 bound_to 11000
  144.9681  139.3909  143.6322 LP  0  0  0  0  0  0  0  0  0  0  0  0  # atno 17320 bound_to 7965
  146.3354  139.8766  142.8831 LP  0  0  0  0  0  0  0  0  0  0  0  0  # atno 17321 bound_to 7965
  140.0806  143.4972  152.2532 LP  0  0  0  0  0  0  0  0  0  0  0  0  # atno 17342 bound_to 10162
  139.5937  144.7559  151.3339 LP  0  0  0  0  0  0  0  0  0  0  0  0  # atno 17343 bound_to 10162
  156.7057  130.4636  149.5561 LP  0  0  0  0  0  0  0  0  0  0  0  0  # atno 17370 bound_to 10713
  156.1764  130.6471  151.0900 LP  0  0  0  0  0  0  0  0  0  0  0  0  # atno 17371 bound_to 10713
  140.2657  134.8431  157.3801 LP  0  0  0  0  0  0  0  0  0  0  0  0  # atno 17394 bound_to 11000
  140.1568  134.4779  155.7922 LP  0  0  0  0  0  0  0  0  0  0  0  0  # atno 17395 bound_to 11000

$$$$
