AV-unprocessed.smi:2768|AV-procd|sdf|10648|dock1
  -GOLD-   2272015 93D 1   1.00000     0.00000
 Structure written by MMmdl.
 35 36  0  0  0  0  0  0  0  0  1 V2000
  153.1190  139.8510  155.3031 O   0  0  0  0  0  0  0  0  0  0  0  0
  151.9234  139.8036  155.5960 C   0  0  0  0  0  0  0  0  0  0  0  0
  151.3853  140.5242  156.5937 N   0  0  0  0  0  0  0  0  0  0  0  0
  152.1102  141.4511  157.4590 C   0  0  2  0  0  0  0  0  0  0  0  0
  152.6523  140.6759  158.6810 C   0  0  0  0  0  0  0  0  0  0  0  0
  153.2912  141.6053  159.7233 C   0  0  0  0  0  0  0  0  0  0  0  0
  152.3037  142.6906  160.1707 C   0  0  0  0  0  0  0  0  0  0  0  0
  151.8037  143.4976  158.9653 C   0  0  0  0  0  0  0  0  0  0  0  0
  151.1607  142.5903  157.8991 C   0  0  1  0  0  0  0  0  0  0  0  0
  150.8433  143.4019  156.7855 O   0  0  0  0  0  0  0  0  0  0  0  0
  150.9743  138.8788  154.8190 C   0  0  0  0  0  0  0  0  0  0  0  0
  151.5974  138.4153  153.7323 F   0  0  0  0  0  0  0  0  0  0  0  0
  150.6696  137.8330  155.5907 F   0  0  0  0  0  0  0  0  0  0  0  0
  149.7104  139.6349  154.4176 C   0  0  0  0  0  0  0  0  0  0  0  0
  148.5924  138.9546  153.8830 C   0  0  0  0  0  0  0  0  0  0  0  0
  147.4480  139.7000  153.5401 C   0  0  0  0  0  0  0  0  0  0  0  0
  147.4586  141.0927  153.7442 C   0  0  0  0  0  0  0  0  0  0  0  0
  148.6184  141.6805  154.2857 C   0  0  0  0  0  0  0  0  0  0  0  0
  149.7207  140.9750  154.6178 N   0  0  0  0  0  0  0  0  0  0  0  0
  152.9526  141.8859  156.9169 H   0  0  0  0  0  0  0  0  0  0  0  0
  150.2361  142.1702  158.2985 H   0  0  0  0  0  0  0  0  0  0  0  0
  150.3952  140.4233  156.7657 H   0  0  0  0  0  0  0  0  0  0  0  0
  151.8402  140.1203  159.1527 H   0  0  0  0  0  0  0  0  0  0  0  0
  153.3836  139.9330  158.3603 H   0  0  0  0  0  0  0  0  0  0  0  0
  153.6210  141.0250  160.5855 H   0  0  0  0  0  0  0  0  0  0  0  0
  154.1836  142.0702  159.3022 H   0  0  0  0  0  0  0  0  0  0  0  0
  151.4578  142.2321  160.6845 H   0  0  0  0  0  0  0  0  0  0  0  0
  152.7824  143.3548  160.8909 H   0  0  0  0  0  0  0  0  0  0  0  0
  151.0869  144.2495  159.2975 H   0  0  0  0  0  0  0  0  0  0  0  0
  152.6429  144.0428  158.5301 H   0  0  0  0  0  0  0  0  0  0  0  0
  149.9715  143.7473  156.9039 H   0  0  0  0  0  0  0  0  0  0  0  0
  148.6045  137.8840  153.7407 H   0  0  0  0  0  0  0  0  0  0  0  0
  146.5764  139.2119  153.1295 H   0  0  0  0  0  0  0  0  0  0  0  0
  146.5985  141.6956  153.4931 H   0  0  0  0  0  0  0  0  0  0  0  0
  148.6617  142.7456  154.4578 H   0  0  0  0  0  0  0  0  0  0  0  0
  1  2  2  0  0  0  0
  2  3  1  0  0  0  0
  2 11  1  0  0  0  0
  3  4  1  0  0  0  0
  3 22  1  0  0  0  0
  4 20  1  0  0  0  0
  4  9  1  0  0  0  0
  4  5  1  0  0  0  0
  5  6  1  0  0  0  0
  5 23  1  0  0  0  0
  5 24  1  0  0  0  0
  6  7  1  0  0  0  0
  6 25  1  0  0  0  0
  6 26  1  0  0  0  0
  7  8  1  0  0  0  0
  7 27  1  0  0  0  0
  7 28  1  0  0  0  0
  8  9  1  0  0  0  0
  8 29  1  0  0  0  0
  8 30  1  0  0  0  0
  9 21  1  0  0  0  0
  9 10  1  0  0  0  0
 10 31  1  0  0  0  0
 11 12  1  0  0  0  0
 11 13  1  0  0  0  0
 11 14  1  0  0  0  0
 14 19  1  0  0  0  0
 14 15  2  0  0  0  0
 15 16  1  0  0  0  0
 15 32  1  0  0  0  0
 16 17  2  0  0  0  0
 16 33  1  0  0  0  0
 17 18  1  0  0  0  0
 17 34  1  0  0  0  0
 18 19  2  0  0  0  0
 18 35  1  0  0  0  0
M  END
> <s_m_source_file>
AV-unprocessed.smi

> <i_m_source_file_index>
2768

> <i_lp_mmshare_version>
43012

> <i_f3d_flags>
0

> <s_epik_input>
bjFbY0hdW2NIXVtjSF1bY0hdYzFDKEYpKEYpQyg9TylbTkhdW0NAQEhdMltDSDJdW0NIMl1bQ0gyXVtDSDJdW0NASF0yW09IXQ==

> <s_epik_cmdline>
J2VwaWtfcHl0aG9uJywgJy1waCcsICc3LjAnLCAnLXRuJywgJzgnLCAnLW1hJywgJzIwMCcsICctbWV0YWxfYmluZGluZycsICctaW1hZScsICc8aW5maWxlLm1hZT4nLCAnLW9tYWUnLCAnPG91dGZpbGUubWFlPic=

> <r_lp_tautomer_probability>
1

> <r_epik_Ionization_Penalty>
4.19456e-05

> <r_epik_Ionization_Penalty_Charging>
0

> <r_epik_Ionization_Penalty_Neutral>
4.19456e-05

> <r_epik_State_Penalty>
-0

> <r_epik_Charging_Adjusted_Penalty>
0

> <i_epik_Tot_Q>
0

> <i_epik_Tot_abs_Q>
0

> <r_epik_Metal_State_Penalty>
0.0354684

> <b_epik_Metal_Only>
0

> <s_lp_Force_Field>
OPLS_2005

> <r_lp_Energy>
17.1667

> <b_lp_Chiralities_Consistent>
1

> <s_lp_Variant>
AV-unprocessed.smi:2768-1

> <Gold.Version>
5.8.1

> <Gold.Id.Protein>
6NUR|6NUR_protein|mol2

> <Gold.PLP.Fitness>
47.8505

> <Gold.PLP.PLP>
-39.7791

> <Gold.PLP.part.hbond>
-3.0000

> <Gold.PLP.part.metal>
0.0000

> <Gold.PLP.part.buried>
-4.0303

> <Gold.PLP.part.nonpolar>
-32.4456

> <Gold.PLP.part.repulsive>
0.2233

> <Gold.PLP.ligand.clash>
0.0000

> <Gold.PLP.ligand.torsion>
1.0349

> <Gold.PLP.Chemscore.Hbond>
2.3764

> <Gold.PLP.Chemscore.CHOScore>
1.0000

> <Gold.PLP.Chemscore.Metal>
0.0000

> <Gold.Chemscore.Hbonds>
donor molecule, donor type, donor heavy atom, donor atom, acceptor molecule, acceptor atom, score
      L1  H    10    31       P1  8028  0.58
      P1  H  7989  7998       L1    19  0.07
      P1  H  7997  8009       L1     1  0.91
      L1  C    18    35       P1  8028  1.00

> <Gold.PLP.Chemscore.Internal.Correction>
0.0120

> <Gold.Rescore>
     Score         DG    S(hbond)    S(metal)    S(lipo)     H(rot)  DE(clash)    DE(int)     intcor
     15.23     -19.34       2.15        0.00     100.74       2.00       1.47       2.64       ----

> <Gold.Chemscore.Fitness>
15.2254

> <Gold.Chemscore.DG>
-19.3359

> <Gold.Chemscore.ZeroCoef>
-5.4800

> <Gold.Chemscore.Hbond>
2.1503

> <Gold.Chemscore.Metal>
0.0000

> <Gold.Chemscore.Lipo>
100.7368

> <Gold.Chemscore.Internal_Hbond>
0.0000

> <Gold.Chemscore.DEClash>
1.4662

> <Gold.Chemscore.DEInternal>
2.6444

> <Gold.Chemscore.Rot>
1.9969

> <Gold.Chemscore.Internal.Correction>
   9.000000E+99

> <Gold.Chemscore.Hbonds>
donor molecule, donor type, donor heavy atom, donor atom, acceptor molecule, acceptor atom, score
      L1  H    10    31       P1  8028  0.57
      P1  H  7997  8009       L1     1  0.87

> <Gold.Chemscore.Hbond.Weighted>
-7.1819

> <Gold.Chemscore.Metal.Weighted>
-0.0000

> <Gold.Chemscore.Lipo.Weighted>
-11.7862

> <Gold.Chemscore.Internal_Hbond.Weighted>
0.0000

> <Gold.Chemscore.DEClash.Weighted>
1.4662

> <Gold.Chemscore.DEInternal.Weighted>
2.6444

> <Gold.Chemscore.Rot.Weighted>
5.1122

> <Gold.Chemscore.Internal.Correction.Weighted>
   9.000000E+99

> <Gold.Protein.RotatedTorsions>
[ 6907 6896 6895 6894 ] final   14.28 input  -60.11 | X-H torsion
[ 7974 7965 7964 7962 ] final  -94.32 input  175.53 | X-H torsion
[ 8008 7997 7996 7995 ] final -135.81 input   59.86 | X-H torsion
[ 10167 10162 10161 10158 ] final  -43.34 input  -65.29 | X-H torsion
[ 10718 10713 10712 10709 ] final   24.96 input   66.30 | X-H torsion
[ 10763 10752 10751 10750 ] final  -86.68 input  -60.55 | X-H torsion
[ 11005 11000 10999 10996 ] final   29.88 input  -57.11 | X-H torsion

> <Gold.Protein.ActiveResidues>
 VAL166  LYS551  ARG553  GLY616  TRP617  ASP618  TYR619  PRO620  LYS621  CYS622 
 ASP623  PHE694  ASN695  SER759  ASP760  ASP761  ALA762  ILE779  LEU786  VAL792 
 PHE793  MET794  SER795  GLU796  ALA797  LYS798  CYS799  TRP800  GLU811  SER814 

> <Gold.Protein.RotatedAtoms>
  151.7997  135.0712  160.0398 H   0  0  0  0  0  0  0  0  0  0  0  0  # atno 6907 bound_to 6896
  152.3098  133.5736  159.5681 H   0  0  0  0  0  0  0  0  0  0  0  0  # atno 6908 bound_to 6896
  150.7314  134.0085  159.3704 H   0  0  0  0  0  0  0  0  0  0  0  0  # atno 6909 bound_to 6896
  145.3748  140.9510  143.2427 H   0  0  0  0  0  0  0  0  0  0  0  0  # atno 7974 bound_to 7965
  155.3848  140.0496  157.3042 H   0  0  0  0  0  0  0  0  0  0  0  0  # atno 8008 bound_to 7997
  154.5065  140.2176  155.9203 H   0  0  0  0  0  0  0  0  0  0  0  0  # atno 8009 bound_to 7997
  156.1532  140.3132  155.8687 H   0  0  0  0  0  0  0  0  0  0  0  0  # atno 8010 bound_to 7997
  140.6937  143.2988  151.3338 H   0  0  0  0  0  0  0  0  0  0  0  0  # atno 10167 bound_to 10162
  157.1869  130.6828  149.6135 H   0  0  0  0  0  0  0  0  0  0  0  0  # atno 10718 bound_to 10713
  154.6251  135.5440  153.7618 H   0  0  0  0  0  0  0  0  0  0  0  0  # atno 10763 bound_to 10752
  153.0257  135.6422  154.1383 H   0  0  0  0  0  0  0  0  0  0  0  0  # atno 10764 bound_to 10752
  154.1315  135.2914  155.3164 H   0  0  0  0  0  0  0  0  0  0  0  0  # atno 10765 bound_to 10752
  140.3003  134.2764  155.7755 H   0  0  0  0  0  0  0  0  0  0  0  0  # atno 11005 bound_to 11000
  144.8550  139.5263  143.6839 LP  0  0  0  0  0  0  0  0  0  0  0  0  # atno 17320 bound_to 7965
  146.2869  139.7029  142.9189 LP  0  0  0  0  0  0  0  0  0  0  0  0  # atno 17321 bound_to 7965
  139.6368  144.0615  152.2522 LP  0  0  0  0  0  0  0  0  0  0  0  0  # atno 17342 bound_to 10162
  140.0107  144.6225  150.7649 LP  0  0  0  0  0  0  0  0  0  0  0  0  # atno 17343 bound_to 10162
  155.9717  130.4628  150.6157 LP  0  0  0  0  0  0  0  0  0  0  0  0  # atno 17370 bound_to 10713
  157.3898  131.0794  151.1404 LP  0  0  0  0  0  0  0  0  0  0  0  0  # atno 17371 bound_to 10713
  141.2129  133.7642  156.9757 LP  0  0  0  0  0  0  0  0  0  0  0  0  # atno 17394 bound_to 11000
  140.1115  134.9474  157.2072 LP  0  0  0  0  0  0  0  0  0  0  0  0  # atno 17395 bound_to 11000

$$$$
