AV-unprocessed.smi:89|AV-procd|sdf|826|dock3
  -GOLD-   2262017243D 1   1.00000     0.00000
 Structure written by MMmdl.
 54 56  0  0  0  0  0  0  0  0  1 V2000
  146.9950  135.3001  155.0220 C   0  0  0  0  0  0  0  0  0  0  0  0
  147.0458  136.6837  155.6928 C   0  0  0  0  0  0  0  0  0  0  0  0
  148.3431  137.0050  156.2928 N   0  0  0  0  0  0  0  0  0  0  0  0
  148.9347  138.1517  155.8616 C   0  0  0  0  0  0  0  0  0  0  0  0
  148.7284  138.5819  154.5892 N   0  0  0  0  0  0  0  0  0  0  0  0
  149.3056  139.7040  154.1510 C   0  0  0  0  0  0  0  0  0  0  0  0
  150.1137  140.5371  154.8080 N   0  0  0  0  0  0  0  0  0  0  0  0
  150.3297  140.1109  156.0851 C   0  0  0  0  0  0  0  0  0  0  0  0
  149.7920  138.9365  156.6844 C   0  0  0  0  0  0  0  0  0  0  0  0
  150.2342  138.8344  157.9980 N   0  0  0  0  0  0  0  0  0  0  0  0
  150.9876  139.8860  158.1655 C   0  0  0  0  0  0  0  0  0  0  0  0
  151.0921  140.7132  157.0705 N   0  0  0  0  0  0  0  0  0  0  0  0
  151.8485  141.9529  156.9862 C   0  0  0  0  0  0  0  0  0  0  0  0
  151.3676  143.0292  157.9872 C   0  0  2  0  0  0  0  0  0  0  0  0
  149.9573  143.1420  157.8992 O   0  0  0  0  0  0  0  0  0  0  0  0
  151.9789  144.4092  157.7620 C   0  0  0  0  0  0  0  0  0  0  0  0
  152.0312  144.9893  159.1682 C   0  0  0  0  0  0  0  0  0  0  0  0
  152.4118  143.8696  159.9496 O   0  0  0  0  0  0  0  0  0  0  0  0
  151.7396  142.7172  159.4505 C   0  0  0  0  0  0  0  0  0  0  0  0
  148.7026  136.3861  157.5798 C   0  0  2  0  0  0  0  0  0  0  0  0
  149.1760  134.9270  157.4372 C   0  0  0  0  0  0  0  0  0  0  0  0
  147.6285  136.5411  158.6831 C   0  0  0  0  0  0  0  0  0  0  0  0
  148.3513  136.4198  160.3810 S   0  0  0  0  0  0  0  0  0  0  0  0
  149.8063  136.6039  160.2675 O   0  0  0  0  0  0  0  0  0  0  0  0
  147.5792  137.2840  161.2863 O   0  0  0  0  0  0  0  0  0  0  0  0
  148.0058  134.6644  160.8375 C   0  0  0  0  0  0  0  0  0  0  0  0
  147.2524  134.5460  162.1679 C   0  0  0  0  0  0  0  0  0  0  0  0
  146.0285  135.1447  154.5426 H   0  0  0  0  0  0  0  0  0  0  0  0
  147.1307  134.4970  155.7468 H   0  0  0  0  0  0  0  0  0  0  0  0
  147.7629  135.1920  154.2572 H   0  0  0  0  0  0  0  0  0  0  0  0
  146.8064  137.4412  154.9463 H   0  0  0  0  0  0  0  0  0  0  0  0
  146.2620  136.7620  156.4450 H   0  0  0  0  0  0  0  0  0  0  0  0
  149.0876  139.9729  153.1280 H   0  0  0  0  0  0  0  0  0  0  0  0
  151.4830  140.0950  159.1026 H   0  0  0  0  0  0  0  0  0  0  0  0
  152.9025  141.7248  157.1505 H   0  0  0  0  0  0  0  0  0  0  0  0
  151.7734  142.3302  155.9655 H   0  0  0  0  0  0  0  0  0  0  0  0
  149.7499  143.8271  157.2822 H   0  0  0  0  0  0  0  0  0  0  0  0
  152.9987  144.3134  157.3884 H   0  0  0  0  0  0  0  0  0  0  0  0
  151.4238  145.0298  157.0568 H   0  0  0  0  0  0  0  0  0  0  0  0
  152.7454  145.8077  159.2620 H   0  0  0  0  0  0  0  0  0  0  0  0
  151.0497  145.3460  159.4846 H   0  0  0  0  0  0  0  0  0  0  0  0
  150.8610  142.5111  160.0640 H   0  0  0  0  0  0  0  0  0  0  0  0
  152.4037  141.8564  159.5350 H   0  0  0  0  0  0  0  0  0  0  0  0
  149.5696  136.9415  157.9389 H   0  0  0  0  0  0  0  0  0  0  0  0
  149.5065  134.5330  158.3984 H   0  0  0  0  0  0  0  0  0  0  0  0
  150.0222  134.8478  156.7560 H   0  0  0  0  0  0  0  0  0  0  0  0
  148.3881  134.2693  157.0723 H   0  0  0  0  0  0  0  0  0  0  0  0
  147.0685  137.4715  158.6074 H   0  0  0  0  0  0  0  0  0  0  0  0
  146.9036  135.7342  158.5878 H   0  0  0  0  0  0  0  0  0  0  0  0
  147.4116  134.2276  160.0347 H   0  0  0  0  0  0  0  0  0  0  0  0
  148.9524  134.1250  160.8732 H   0  0  0  0  0  0  0  0  0  0  0  0
  147.0151  133.5039  162.3825 H   0  0  0  0  0  0  0  0  0  0  0  0
  146.3137  135.0994  162.1418 H   0  0  0  0  0  0  0  0  0  0  0  0
  147.8437  134.9236  163.0009 H   0  0  0  0  0  0  0  0  0  0  0  0
  1  2  1  0  0  0  0
  1 28  1  0  0  0  0
  1 29  1  0  0  0  0
  1 30  1  0  0  0  0
  2  3  1  0  0  0  0
  2 31  1  0  0  0  0
  2 32  1  0  0  0  0
  3  4  1  0  0  0  0
  3 20  1  0  0  0  0
  4  9  1  0  0  0  0
  4  5  2  0  0  0  0
  5  6  1  0  0  0  0
  6  7  2  0  0  0  0
  6 33  1  0  0  0  0
  7  8  1  0  0  0  0
  8 12  1  0  0  0  0
  8  9  2  0  0  0  0
  9 10  1  0  0  0  0
 10 11  2  0  0  0  0
 11 12  1  0  0  0  0
 11 34  1  0  0  0  0
 12 13  1  0  0  0  0
 13 14  1  0  0  0  0
 13 35  1  0  0  0  0
 13 36  1  0  0  0  0
 14 19  1  0  0  0  0
 14 15  1  0  0  0  0
 14 16  1  0  0  0  0
 15 37  1  0  0  0  0
 16 17  1  0  0  0  0
 16 38  1  0  0  0  0
 16 39  1  0  0  0  0
 17 18  1  0  0  0  0
 17 40  1  0  0  0  0
 17 41  1  0  0  0  0
 18 19  1  0  0  0  0
 19 42  1  0  0  0  0
 19 43  1  0  0  0  0
 20 21  1  0  0  0  0
 20 22  1  0  0  0  0
 20 44  1  0  0  0  0
 21 45  1  0  0  0  0
 21 46  1  0  0  0  0
 21 47  1  0  0  0  0
 22 23  1  0  0  0  0
 22 48  1  0  0  0  0
 22 49  1  0  0  0  0
 23 24  2  0  0  0  0
 23 25  2  0  0  0  0
 23 26  1  0  0  0  0
 26 27  1  0  0  0  0
 26 50  1  0  0  0  0
 26 51  1  0  0  0  0
 27 52  1  0  0  0  0
 27 53  1  0  0  0  0
 27 54  1  0  0  0  0
M  END
> <s_m_source_file>
AV-unprocessed.smi

> <i_m_source_file_index>
89

> <i_lp_mmshare_version>
43012

> <i_f3d_flags>
0

> <s_epik_input>
W0NIM11bQ0gyXVMoPU8pKD1PKVtDSDJdW0NAQEhdKFtDSDNdKU4oW0NIMl1bQ0gzXSljKG5bY0hdbjEpYyhjMTIpbltjSF1uMltDSDJdW0NAQF0zKFtPSF0pW0NIMl1bQ0gyXU9bQ0gyXTM=

> <s_epik_cmdline>
J2VwaWtfcHl0aG9uJywgJy1waCcsICc3LjAnLCAnLXRuJywgJzgnLCAnLW1hJywgJzIwMCcsICctbWV0YWxfYmluZGluZycsICctaW1hZScsICc8aW5maWxlLm1hZT4nLCAnLW9tYWUnLCAnPG91dGZpbGUubWFlPic=

> <r_lp_tautomer_probability>
1

> <r_epik_Ionization_Penalty>
0.00103773

> <r_epik_Ionization_Penalty_Charging>
0

> <r_epik_Ionization_Penalty_Neutral>
0.00103773

> <r_epik_State_Penalty>
0.000558914

> <r_epik_Charging_Adjusted_Penalty>
0.000558914

> <i_epik_Tot_Q>
0

> <i_epik_Tot_abs_Q>
0

> <r_epik_Metal_State_Penalty>
-0

> <b_epik_Metal_Only>
0

> <s_lp_Force_Field>
OPLS_2005

> <r_lp_Energy>
26.3336

> <b_lp_Chiralities_Consistent>
1

> <s_lp_Variant>
AV-unprocessed.smi:89-2

> <Gold.Version>
5.8.1

> <Gold.Id.Protein>
6NUR|6NUR_protein|mol2

> <Gold.PLP.Fitness>
50.1393

> <Gold.PLP.PLP>
-35.1032

> <Gold.PLP.part.hbond>
-5.6135

> <Gold.PLP.part.metal>
0.0000

> <Gold.PLP.part.buried>
-3.6211

> <Gold.PLP.part.nonpolar>
-26.3298

> <Gold.PLP.part.repulsive>
0.2671

> <Gold.PLP.ligand.clash>
0.0000

> <Gold.PLP.ligand.torsion>
1.3645

> <Gold.PLP.Chemscore.Hbond>
4.6016

> <Gold.PLP.Chemscore.CHOScore>
0.9385

> <Gold.PLP.Chemscore.Metal>
0.0000

> <Gold.Chemscore.Hbonds>
donor molecule, donor type, donor heavy atom, donor atom, acceptor molecule, acceptor atom, score
      L1  H    15    37       P1  8028  1.00
      P1  H  6896  6907       L1    24  0.98
      P1  H  6931  6943       L1    25  0.70
      P1  H  6934  6947       L1    25  0.88
      P1  H  7989  7998       L1     7  0.91
      L1  C     6    33       P1  7957  1.00

> <Gold.PLP.Chemscore.Internal.Correction>
1.1448

> <Gold.Rescore>
     Score         DG    S(hbond)    S(metal)    S(lipo)     H(rot)  DE(clash)    DE(int)     intcor
     14.84     -19.70       3.91        0.00      78.69       3.14       2.29       2.57       ----

> <Gold.Chemscore.Fitness>
14.8363

> <Gold.Chemscore.DG>
-19.6951

> <Gold.Chemscore.ZeroCoef>
-5.4800

> <Gold.Chemscore.Hbond>
3.9052

> <Gold.Chemscore.Metal>
0.0000

> <Gold.Chemscore.Lipo>
78.6902

> <Gold.Chemscore.Internal_Hbond>
0.0000

> <Gold.Chemscore.DEClash>
2.2858

> <Gold.Chemscore.DEInternal>
2.5730

> <Gold.Chemscore.Rot>
3.1386

> <Gold.Chemscore.Internal.Correction>
   9.000000E+99

> <Gold.Chemscore.Hbonds>
donor molecule, donor type, donor heavy atom, donor atom, acceptor molecule, acceptor atom, score
      L1  H    15    37       P1  8028  0.69
      P1  H  6896  6907       L1    24  0.88
      P1  H  6931  6943       L1    25  0.10
      P1  H  6934  6947       L1    25  0.86
      P1  H  7989  7998       L1     7  0.37

> <Gold.Chemscore.Hbond.Weighted>
-13.0433

> <Gold.Chemscore.Metal.Weighted>
-0.0000

> <Gold.Chemscore.Lipo.Weighted>
-9.2068

> <Gold.Chemscore.Internal_Hbond.Weighted>
0.0000

> <Gold.Chemscore.DEClash.Weighted>
2.2858

> <Gold.Chemscore.DEInternal.Weighted>
2.5730

> <Gold.Chemscore.Rot.Weighted>
8.0349

> <Gold.Chemscore.Internal.Correction.Weighted>
   9.000000E+99

> <Gold.Protein.RotatedTorsions>
[ 6907 6896 6895 6894 ] final  -38.69 input  -60.11 | X-H torsion
[ 7974 7965 7964 7962 ] final -176.49 input  175.53 | X-H torsion
[ 8008 7997 7996 7995 ] final   97.36 input   59.86 | X-H torsion
[ 10167 10162 10161 10158 ] final  -15.81 input  -65.29 | X-H torsion
[ 10718 10713 10712 10709 ] final  -94.13 input   66.30 | X-H torsion
[ 10763 10752 10751 10750 ] final -138.39 input  -60.55 | X-H torsion
[ 11005 11000 10999 10996 ] final  -52.23 input  -57.11 | X-H torsion

> <Gold.Protein.ActiveResidues>
 VAL166  LYS551  ARG553  GLY616  TRP617  ASP618  TYR619  PRO620  LYS621  CYS622 
 ASP623  PHE694  ASN695  SER759  ASP760  ASP761  ALA762  ILE779  LEU786  VAL792 
 PHE793  MET794  SER795  GLU796  ALA797  LYS798  CYS799  TRP800  GLU811  SER814 

> <Gold.Protein.RotatedAtoms>
  150.9994  134.9309  159.7944 H   0  0  0  0  0  0  0  0  0  0  0  0  # atno 6907 bound_to 6896
  152.5273  134.3175  159.9146 H   0  0  0  0  0  0  0  0  0  0  0  0  # atno 6908 bound_to 6896
  151.3181  133.4010  159.2686 H   0  0  0  0  0  0  0  0  0  0  0  0  # atno 6909 bound_to 6896
  144.7127  140.1162  143.6408 H   0  0  0  0  0  0  0  0  0  0  0  0  # atno 7974 bound_to 7965
  156.0893  140.3259  155.7795 H   0  0  0  0  0  0  0  0  0  0  0  0  # atno 8008 bound_to 7997
  155.5023  140.0570  157.2954 H   0  0  0  0  0  0  0  0  0  0  0  0  # atno 8009 bound_to 7997
  154.4628  140.1975  156.0215 H   0  0  0  0  0  0  0  0  0  0  0  0  # atno 8010 bound_to 7997
  140.7224  143.5180  150.9668 H   0  0  0  0  0  0  0  0  0  0  0  0  # atno 10167 bound_to 10162
  156.0023  130.5055  150.5881 H   0  0  0  0  0  0  0  0  0  0  0  0  # atno 10718 bound_to 10713
  154.8638  135.3613  154.5378 H   0  0  0  0  0  0  0  0  0  0  0  0  # atno 10763 bound_to 10752
  153.6001  135.7013  153.5393 H   0  0  0  0  0  0  0  0  0  0  0  0  # atno 10764 bound_to 10752
  153.3298  135.4127  155.1448 H   0  0  0  0  0  0  0  0  0  0  0  0  # atno 10765 bound_to 10752
  141.0913  133.6632  156.3994 H   0  0  0  0  0  0  0  0  0  0  0  0  # atno 11005 bound_to 11000
  145.9411  139.2669  143.1268 LP  0  0  0  0  0  0  0  0  0  0  0  0  # atno 17320 bound_to 7965
  145.9423  140.8970  143.0301 LP  0  0  0  0  0  0  0  0  0  0  0  0  # atno 17321 bound_to 7965
  139.8896  143.6969  152.3147 LP  0  0  0  0  0  0  0  0  0  0  0  0  # atno 17342 bound_to 10162
  139.7280  144.7588  151.0847 LP  0  0  0  0  0  0  0  0  0  0  0  0  # atno 17343 bound_to 10162
  157.3750  131.0772  151.1525 LP  0  0  0  0  0  0  0  0  0  0  0  0  # atno 17370 bound_to 10713
  157.2266  130.6506  149.5833 LP  0  0  0  0  0  0  0  0  0  0  0  0  # atno 17371 bound_to 10713
  140.5245  134.6272  157.5329 LP  0  0  0  0  0  0  0  0  0  0  0  0  # atno 17394 bound_to 11000
  139.9740  134.7246  155.9986 LP  0  0  0  0  0  0  0  0  0  0  0  0  # atno 17395 bound_to 11000

$$$$
