AV-unprocessed.smi:587|AV-procd|sdf|3003|dock1
  -GOLD-   2262023513D 1   1.00000     0.00000
 Structure written by MMmdl.
 47 49  0  0  0  0  0  0  0  0  2 V2000
  147.3651  140.1740  153.3271 C   0  0  0  0  0  0  0  0  0  0  0  0
  148.5013  140.1770  154.2247 N   0  0  0  0  0  0  0  0  0  0  0  0
  148.9140  141.2738  154.9790 C   0  0  0  0  0  0  0  0  0  0  0  0
  148.1953  142.4565  154.8777 N   0  0  0  0  0  0  0  0  0  0  0  0
  149.9932  141.1962  155.8034 C   0  0  0  0  0  0  0  0  0  0  0  0
  150.3667  142.4145  156.5862 N   0  3  0  0  0  0  0  0  0  0  0  0
  151.7276  142.9428  156.3126 C   0  0  0  0  0  0  0  0  0  0  0  0
  151.9077  144.3361  156.9379 C   0  0  0  0  0  0  0  0  0  0  0  0
  151.6165  144.3035  158.4451 C   0  0  0  0  0  0  0  0  0  0  0  0
  150.2208  143.7176  158.7015 C   0  0  0  0  0  0  0  0  0  0  0  0
  150.0742  142.3369  158.0406 C   0  0  0  0  0  0  0  0  0  0  0  0
  150.7677  139.9572  155.9283 C   0  0  0  0  0  0  0  0  0  0  0  0
  151.7469  139.8394  156.6668 O   0  0  0  0  0  0  0  0  0  0  0  0
  150.3228  138.8667  155.1485 N   0  0  0  0  0  0  0  0  0  0  0  0
  151.0436  137.5774  155.2529 C   0  0  0  0  0  0  0  0  0  0  0  0
  150.1971  136.4492  155.8630 C   0  0  0  0  0  0  0  0  0  0  0  0
  150.1385  135.3401  155.3290 O   0  0  0  0  0  0  0  0  0  0  0  0
  149.5403  136.7600  156.9897 N   0  0  0  0  0  0  0  0  0  0  0  0
  148.7016  135.8755  157.7317 C   0  0  0  0  0  0  0  0  0  0  0  0
  147.2133  136.1507  157.7330 C   0  0  0  0  0  0  0  0  0  0  0  0
  148.0251  136.4259  158.9687 C   0  0  0  0  0  0  0  0  0  0  0  0
  149.1948  138.9462  154.3054 C   0  0  0  0  0  0  0  0  0  0  0  0
  148.8246  137.9611  153.6601 O   0  0  0  0  0  0  0  0  0  0  0  0
  146.9038  141.1583  153.2904 H   0  0  0  0  0  0  0  0  0  0  0  0
  146.6500  139.4422  153.7075 H   0  0  0  0  0  0  0  0  0  0  0  0
  147.7301  139.9052  152.3341 H   0  0  0  0  0  0  0  0  0  0  0  0
  147.3870  142.5564  154.2815 H   0  0  0  0  0  0  0  0  0  0  0  0
  148.4593  143.2785  155.4030 H   0  0  0  0  0  0  0  0  0  0  0  0
  152.4831  142.2603  156.7032 H   0  0  0  0  0  0  0  0  0  0  0  0
  151.8806  143.0032  155.2343 H   0  0  0  0  0  0  0  0  0  0  0  0
  152.9214  144.6969  156.7609 H   0  0  0  0  0  0  0  0  0  0  0  0
  151.2373  145.0453  156.4503 H   0  0  0  0  0  0  0  0  0  0  0  0
  152.3689  143.6985  158.9529 H   0  0  0  0  0  0  0  0  0  0  0  0
  151.6870  145.3075  158.8648 H   0  0  0  0  0  0  0  0  0  0  0  0
  150.0401  143.6391  159.7741 H   0  0  0  0  0  0  0  0  0  0  0  0
  149.4611  144.3944  158.3083 H   0  0  0  0  0  0  0  0  0  0  0  0
  149.0578  141.9682  158.1849 H   0  0  0  0  0  0  0  0  0  0  0  0
  150.7429  141.6225  158.5220 H   0  0  0  0  0  0  0  0  0  0  0  0
  151.4053  137.2505  154.2765 H   0  0  0  0  0  0  0  0  0  0  0  0
  151.9542  137.6841  155.8447 H   0  0  0  0  0  0  0  0  0  0  0  0
  149.6479  137.6949  157.3558 H   0  0  0  0  0  0  0  0  0  0  0  0
  148.9940  134.8273  157.7757 H   0  0  0  0  0  0  0  0  0  0  0  0
  146.8532  137.0079  157.1673 H   0  0  0  0  0  0  0  0  0  0  0  0
  146.5450  135.2922  157.7521 H   0  0  0  0  0  0  0  0  0  0  0  0
  147.9001  135.7512  159.8131 H   0  0  0  0  0  0  0  0  0  0  0  0
  148.2060  137.4674  159.2281 H   0  0  0  0  0  0  0  0  0  0  0  0
  149.7542  143.1457  156.2567 H   0  0  0  0  0  0  0  0  0  0  0  0
  1  2  1  0  0  0  0
  1 24  1  0  0  0  0
  1 25  1  0  0  0  0
  1 26  1  0  0  0  0
  2 22  1  0  0  0  0
  2  3  1  0  0  0  0
  3  4  1  0  0  0  0
  3  5  2  0  0  0  0
  4 27  1  0  0  0  0
  4 28  1  0  0  0  0
  5  6  1  0  0  0  0
  5 12  1  0  0  0  0
  6 11  1  0  0  0  0
  6  7  1  0  0  0  0
  6 47  1  0  0  0  0
  7  8  1  0  0  0  0
  7 29  1  0  0  0  0
  7 30  1  0  0  0  0
  8  9  1  0  0  0  0
  8 31  1  0  0  0  0
  8 32  1  0  0  0  0
  9 10  1  0  0  0  0
  9 33  1  0  0  0  0
  9 34  1  0  0  0  0
 10 11  1  0  0  0  0
 10 35  1  0  0  0  0
 10 36  1  0  0  0  0
 11 37  1  0  0  0  0
 11 38  1  0  0  0  0
 12 13  2  0  0  0  0
 12 14  1  0  0  0  0
 14 15  1  0  0  0  0
 14 22  1  0  0  0  0
 15 16  1  0  0  0  0
 15 39  1  0  0  0  0
 15 40  1  0  0  0  0
 16 17  2  0  0  0  0
 16 18  1  0  0  0  0
 18 19  1  0  0  0  0
 18 41  1  0  0  0  0
 19 21  1  0  0  0  0
 19 20  1  0  0  0  0
 19 42  1  0  0  0  0
 20 21  1  0  0  0  0
 20 43  1  0  0  0  0
 20 44  1  0  0  0  0
 21 45  1  0  0  0  0
 21 46  1  0  0  0  0
 22 23  2  0  0  0  0
M  CHG  1   6   1
M  END
> <s_m_source_file>
AV-unprocessed.smi

> <i_m_source_file_index>
587

> <i_lp_mmshare_version>
43012

> <i_f3d_flags>
0

> <s_epik_input>
W0NIMl0xW0NIMl1bQ0gyXVtDSDJdW0NIMl1OMWMoYyhbTkgyXSluMltDSDNdKWMoPU8pbihjMj1PKVtDSDJdQyg9TylbTkhdW0NIXTNbQ0gyXVtDSDJdMw==

> <s_epik_cmdline>
J2VwaWtfcHl0aG9uJywgJy1waCcsICc3LjAnLCAnLXRuJywgJzgnLCAnLW1hJywgJzIwMCcsICctbWV0YWxfYmluZGluZycsICctaW1hZScsICc8aW5maWxlLm1hZT4nLCAnLW9tYWUnLCAnPG91dGZpbGUubWFlPic=

> <r_epik_Ionization_Penalty>
2.48068

> <r_epik_Ionization_Penalty_Charging>
2.47625

> <r_epik_Ionization_Penalty_Neutral>
0.00443673

> <r_epik_State_Penalty>
2.66159

> <r_epik_Charging_Adjusted_Penalty>
5.13784

> <i_epik_Tot_Q>
1

> <i_epik_Tot_abs_Q>
1

> <r_epik_Metal_State_Penalty>
2.66159

> <b_epik_Metal_Only>
0

> <s_lp_Force_Field>
OPLS_2005

> <r_lp_Energy>
35.5709

> <b_lp_Chiralities_Consistent>
1

> <s_lp_Variant>
AV-unprocessed.smi:587-2

> <Gold.Version>
5.8.1

> <Gold.Id.Protein>
6NUR|6NUR_protein|mol2

> <Gold.PLP.Fitness>
46.0245

> <Gold.PLP.PLP>
-33.1775

> <Gold.PLP.part.hbond>
-2.9314

> <Gold.PLP.part.metal>
0.0000

> <Gold.PLP.part.buried>
-2.9249

> <Gold.PLP.part.nonpolar>
-30.9698

> <Gold.PLP.part.repulsive>
2.4338

> <Gold.PLP.ligand.clash>
0.0000

> <Gold.PLP.ligand.torsion>
0.3312

> <Gold.PLP.Chemscore.Hbond>
4.4212

> <Gold.PLP.Chemscore.CHOScore>
0.0000

> <Gold.PLP.Chemscore.Metal>
0.0000

> <Gold.Chemscore.Hbonds>
donor molecule, donor type, donor heavy atom, donor atom, acceptor molecule, acceptor atom, score
      L1  H     4    28       P1  8028  0.94
      L1  H     6    47       P1  8028  2.00

> <Gold.PLP.Chemscore.Internal.Correction>
0.2459

> <Gold.Rescore>
     Score         DG    S(hbond)    S(metal)    S(lipo)     H(rot)  DE(clash)    DE(int)     intcor
     14.39     -20.98       3.22        0.00      81.42       1.87       3.82       2.77       ----

> <Gold.Chemscore.Fitness>
14.3929

> <Gold.Chemscore.DG>
-20.9838

> <Gold.Chemscore.ZeroCoef>
-5.4800

> <Gold.Chemscore.Hbond>
3.2208

> <Gold.Chemscore.Metal>
0.0000

> <Gold.Chemscore.Lipo>
81.4204

> <Gold.Chemscore.Internal_Hbond>
0.0000

> <Gold.Chemscore.DEClash>
3.8244

> <Gold.Chemscore.DEInternal>
2.7664

> <Gold.Chemscore.Rot>
1.8672

> <Gold.Chemscore.Internal.Correction>
   9.000000E+99

> <Gold.Chemscore.Hbonds>
donor molecule, donor type, donor heavy atom, donor atom, acceptor molecule, acceptor atom, score
      L1  H     4    28       P1  8028  0.88
      L1  H     6    47       P1  8028  1.00

> <Gold.Chemscore.Hbond.Weighted>
-10.7575

> <Gold.Chemscore.Metal.Weighted>
-0.0000

> <Gold.Chemscore.Lipo.Weighted>
-9.5262

> <Gold.Chemscore.Internal_Hbond.Weighted>
0.0000

> <Gold.Chemscore.DEClash.Weighted>
3.8244

> <Gold.Chemscore.DEInternal.Weighted>
2.7664

> <Gold.Chemscore.Rot.Weighted>
4.7799

> <Gold.Chemscore.Internal.Correction.Weighted>
   9.000000E+99

> <Gold.Protein.RotatedTorsions>
[ 6907 6896 6895 6894 ] final  -92.81 input  -60.11 | X-H torsion
[ 7974 7965 7964 7962 ] final -179.42 input  175.53 | X-H torsion
[ 8008 7997 7996 7995 ] final  -55.07 input   59.86 | X-H torsion
[ 10167 10162 10161 10158 ] final  120.98 input  -65.29 | X-H torsion
[ 10718 10713 10712 10709 ] final  177.31 input   66.30 | X-H torsion
[ 10763 10752 10751 10750 ] final   56.69 input  -60.55 | X-H torsion
[ 11005 11000 10999 10996 ] final   16.02 input  -57.11 | X-H torsion

> <Gold.Protein.ActiveResidues>
 VAL166  LYS551  ARG553  GLY616  TRP617  ASP618  TYR619  PRO620  LYS621  CYS622 
 ASP623  PHE694  ASN695  SER759  ASP760  ASP761  ALA762  ILE779  LEU786  VAL792 
 PHE793  MET794  SER795  GLU796  ALA797  LYS798  CYS799  TRP800  GLU811  SER814 

> <Gold.Protein.RotatedAtoms>
  150.6912  134.2065  159.4342 H   0  0  0  0  0  0  0  0  0  0  0  0  # atno 6907 bound_to 6896
  152.0028  134.9916  160.0575 H   0  0  0  0  0  0  0  0  0  0  0  0  # atno 6908 bound_to 6896
  152.1562  133.4518  159.4875 H   0  0  0  0  0  0  0  0  0  0  0  0  # atno 6909 bound_to 6896
  144.7136  140.0720  143.6429 H   0  0  0  0  0  0  0  0  0  0  0  0  # atno 7974 bound_to 7965
  154.4183  140.1161  156.5417 H   0  0  0  0  0  0  0  0  0  0  0  0  # atno 8008 bound_to 7997
  155.6501  140.3496  155.4726 H   0  0  0  0  0  0  0  0  0  0  0  0  # atno 8009 bound_to 7997
  155.9800  140.1158  157.0725 H   0  0  0  0  0  0  0  0  0  0  0  0  # atno 8010 bound_to 7997
  139.5948  144.7038  151.3203 H   0  0  0  0  0  0  0  0  0  0  0  0  # atno 10167 bound_to 10162
  156.9073  130.9898  151.3026 H   0  0  0  0  0  0  0  0  0  0  0  0  # atno 10718 bound_to 10713
  152.9836  135.5667  154.5269 H   0  0  0  0  0  0  0  0  0  0  0  0  # atno 10763 bound_to 10752
  154.4748  135.2786  155.1618 H   0  0  0  0  0  0  0  0  0  0  0  0  # atno 10764 bound_to 10752
  154.3151  135.6280  153.5536 H   0  0  0  0  0  0  0  0  0  0  0  0  # atno 10765 bound_to 10752
  140.4518  134.1216  155.7703 H   0  0  0  0  0  0  0  0  0  0  0  0  # atno 11005 bound_to 11000
  145.9775  139.2916  143.1062 LP  0  0  0  0  0  0  0  0  0  0  0  0  # atno 17320 bound_to 7965
  145.9048  140.9219  143.0484 LP  0  0  0  0  0  0  0  0  0  0  0  0  # atno 17321 bound_to 7965
  140.7203  143.7154  150.7736 LP  0  0  0  0  0  0  0  0  0  0  0  0  # atno 17342 bound_to 10162
  140.0718  143.5053  152.2576 LP  0  0  0  0  0  0  0  0  0  0  0  0  # atno 17343 bound_to 10162
  157.5989  130.8498  149.8772 LP  0  0  0  0  0  0  0  0  0  0  0  0  # atno 17370 bound_to 10713
  156.0553  130.3709  150.1106 LP  0  0  0  0  0  0  0  0  0  0  0  0  # atno 17371 bound_to 10713
  141.1660  133.8701  157.1711 LP  0  0  0  0  0  0  0  0  0  0  0  0  # atno 17394 bound_to 11000
  140.0002  135.0031  157.0172 LP  0  0  0  0  0  0  0  0  0  0  0  0  # atno 17395 bound_to 11000

$$$$
