AV-unprocessed.smi:2233|AV-procd|sdf|9040|dock5
  -GOLD-   2272012243D 1   1.00000     0.00000
 Structure written by MMmdl.
 43 44  0  0  0  0  0  0  0  0  2 V2000
  153.6699  141.0281  161.0850 C   0  0  0  0  0  0  0  0  0  0  0  0
  153.3905  142.1292  160.6370 C   0  0  0  0  0  0  0  0  0  0  0  0
  153.0683  143.4634  160.1013 C   0  0  0  0  0  0  0  0  0  0  0  0
  151.7821  143.5247  159.2572 C   0  0  0  0  0  0  0  0  0  0  0  0
  151.7673  142.5614  158.0561 C   0  0  0  0  0  0  0  0  0  0  0  0
  150.5791  142.8219  157.1130 C   0  0  0  0  0  0  0  0  0  0  0  0
  150.1851  141.5886  156.2939 C   0  0  0  0  0  0  0  0  0  0  0  0
  150.7896  140.5283  156.4513 O   0  0  0  0  0  0  0  0  0  0  0  0
  149.1630  141.7656  155.4371 N   0  0  0  0  0  0  0  0  0  0  0  0
  148.5501  140.8229  154.5612 C   0  0  0  0  0  0  0  0  0  0  0  0
  149.2226  139.6762  154.0681 C   0  0  0  0  0  0  0  0  0  0  0  0
  148.5927  138.8257  153.2301 N   0  3  0  0  0  0  0  0  0  0  0  0
  147.3224  139.0109  152.8161 C   0  0  0  0  0  0  0  0  0  0  0  0
  146.6014  140.1373  153.2559 C   0  0  0  0  0  0  0  0  0  0  0  0
  147.2171  141.0610  154.1346 C   0  0  0  0  0  0  0  0  0  0  0  0
  146.5222  142.1958  154.5844 N   0  0  0  0  0  0  0  0  0  0  0  0
  145.9211  142.9826  153.5151 C   0  0  0  0  0  0  0  0  0  0  0  0
  145.3190  144.2753  154.0921 C   0  0  0  0  0  0  0  0  0  0  0  0
  144.3881  143.9493  155.1205 O   0  0  0  0  0  0  0  0  0  0  0  0
  145.0022  143.2464  156.1975 C   0  0  0  0  0  0  0  0  0  0  0  0
  145.5975  141.9263  155.6780 C   0  0  0  0  0  0  0  0  0  0  0  0
  153.9130  140.0671  161.4799 H   0  0  0  0  0  0  0  0  0  0  0  0
  153.0006  144.1524  160.9435 H   0  0  0  0  0  0  0  0  0  0  0  0
  153.9195  143.7840  159.5000 H   0  0  0  0  0  0  0  0  0  0  0  0
  150.9354  143.2937  159.9046 H   0  0  0  0  0  0  0  0  0  0  0  0
  151.6225  144.5462  158.9084 H   0  0  0  0  0  0  0  0  0  0  0  0
  152.7005  142.6547  157.4991 H   0  0  0  0  0  0  0  0  0  0  0  0
  151.7265  141.5340  158.4209 H   0  0  0  0  0  0  0  0  0  0  0  0
  149.7200  143.1583  157.6958 H   0  0  0  0  0  0  0  0  0  0  0  0
  150.8229  143.6298  156.4223 H   0  0  0  0  0  0  0  0  0  0  0  0
  148.7186  142.6723  155.4672 H   0  0  0  0  0  0  0  0  0  0  0  0
  150.2423  139.4063  154.2966 H   0  0  0  0  0  0  0  0  0  0  0  0
  146.9261  138.2619  152.1460 H   0  0  0  0  0  0  0  0  0  0  0  0
  145.5862  140.2876  152.9184 H   0  0  0  0  0  0  0  0  0  0  0  0
  146.6738  143.2231  152.7633 H   0  0  0  0  0  0  0  0  0  0  0  0
  145.1417  142.4025  153.0194 H   0  0  0  0  0  0  0  0  0  0  0  0
  146.1005  144.9265  154.4870 H   0  0  0  0  0  0  0  0  0  0  0  0
  144.8045  144.8328  153.3093 H   0  0  0  0  0  0  0  0  0  0  0  0
  145.7731  143.8666  156.6579 H   0  0  0  0  0  0  0  0  0  0  0  0
  144.2540  143.0458  156.9644 H   0  0  0  0  0  0  0  0  0  0  0  0
  144.7963  141.2708  155.3340 H   0  0  0  0  0  0  0  0  0  0  0  0
  146.1174  141.4071  156.4842 H   0  0  0  0  0  0  0  0  0  0  0  0
  149.1020  138.0082  152.8930 H   0  0  0  0  0  0  0  0  0  0  0  0
  1  2  3  0  0  0  0
  1 22  1  0  0  0  0
  2  3  1  0  0  0  0
  3  4  1  0  0  0  0
  3 23  1  0  0  0  0
  3 24  1  0  0  0  0
  4  5  1  0  0  0  0
  4 25  1  0  0  0  0
  4 26  1  0  0  0  0
  5  6  1  0  0  0  0
  5 27  1  0  0  0  0
  5 28  1  0  0  0  0
  6  7  1  0  0  0  0
  6 29  1  0  0  0  0
  6 30  1  0  0  0  0
  7  8  2  0  0  0  0
  7  9  1  0  0  0  0
  9 10  1  0  0  0  0
  9 31  1  0  0  0  0
 10 15  1  0  0  0  0
 10 11  2  0  0  0  0
 11 12  1  0  0  0  0
 11 32  1  0  0  0  0
 12 13  2  0  0  0  0
 12 43  1  0  0  0  0
 13 14  1  0  0  0  0
 13 33  1  0  0  0  0
 14 15  2  0  0  0  0
 14 34  1  0  0  0  0
 15 16  1  0  0  0  0
 16 21  1  0  0  0  0
 16 17  1  0  0  0  0
 17 18  1  0  0  0  0
 17 35  1  0  0  0  0
 17 36  1  0  0  0  0
 18 19  1  0  0  0  0
 18 37  1  0  0  0  0
 18 38  1  0  0  0  0
 19 20  1  0  0  0  0
 20 21  1  0  0  0  0
 20 39  1  0  0  0  0
 20 40  1  0  0  0  0
 21 41  1  0  0  0  0
 21 42  1  0  0  0  0
M  CHG  1  12   1
M  END
> <s_m_source_file>
AV-unprocessed.smi

> <i_m_source_file_index>
2233

> <i_lp_mmshare_version>
43012

> <i_f3d_flags>
0

> <s_epik_input>
W0NIXSNDW0NIMl1bQ0gyXVtDSDJdW0NIMl1DKD1PKVtOSF1jMVtjSF1uW2NIXVtjSF1jMU4yW0NIMl1bQ0gyXU9bQ0gyXVtDSDJdMg==

> <s_epik_cmdline>
J2VwaWtfcHl0aG9uJywgJy1waCcsICc3LjAnLCAnLXRuJywgJzgnLCAnLW1hJywgJzIwMCcsICctbWV0YWxfYmluZGluZycsICctaW1hZScsICc8aW5maWxlLm1hZT4nLCAnLW9tYWUnLCAnPG91dGZpbGUubWFlPic=

> <r_lp_tautomer_probability>
1

> <r_epik_Ionization_Penalty>
0.153155

> <r_epik_Ionization_Penalty_Charging>
0.153154

> <r_epik_Ionization_Penalty_Neutral>
1.2848e-06

> <r_epik_State_Penalty>
0.142445

> <r_epik_Charging_Adjusted_Penalty>
0.295599

> <i_epik_Tot_Q>
1

> <i_epik_Tot_abs_Q>
1

> <r_epik_Metal_State_Penalty>
0.464899

> <b_epik_Metal_Only>
0

> <s_lp_Force_Field>
OPLS_2005

> <r_lp_Energy>
30.3927

> <b_lp_Chiralities_Consistent>
1

> <s_lp_Variant>
AV-unprocessed.smi:2233-1

> <Gold.Version>
5.8.1

> <Gold.Id.Protein>
6NUR|6NUR_protein|mol2

> <Gold.PLP.Fitness>
45.6109

> <Gold.PLP.PLP>
-38.2461

> <Gold.PLP.part.hbond>
-3.0000

> <Gold.PLP.part.metal>
0.0000

> <Gold.PLP.part.buried>
-0.6618

> <Gold.PLP.part.nonpolar>
-35.2498

> <Gold.PLP.part.repulsive>
0.5443

> <Gold.PLP.ligand.clash>
0.0000

> <Gold.PLP.ligand.torsion>
0.6391

> <Gold.PLP.Chemscore.Hbond>
2.8310

> <Gold.PLP.Chemscore.CHOScore>
0.0000

> <Gold.PLP.Chemscore.Metal>
0.0000

> <Gold.Chemscore.Hbonds>
donor molecule, donor type, donor heavy atom, donor atom, acceptor molecule, acceptor atom, score
      L1  H     9    31       P1  8028  0.93
      L1  H    12    43       P1  7948  1.86

> <Gold.PLP.Chemscore.Internal.Correction>
0.1501

> <Gold.Rescore>
     Score         DG    S(hbond)    S(metal)    S(lipo)     H(rot)  DE(clash)    DE(int)     intcor
     17.50     -19.59       1.53        0.00     110.68       1.54       0.37       1.72       ----

> <Gold.Chemscore.Fitness>
17.4975

> <Gold.Chemscore.DG>
-19.5886

> <Gold.Chemscore.ZeroCoef>
-5.4800

> <Gold.Chemscore.Hbond>
1.5258

> <Gold.Chemscore.Metal>
0.0000

> <Gold.Chemscore.Lipo>
110.6817

> <Gold.Chemscore.Internal_Hbond>
0.0000

> <Gold.Chemscore.DEClash>
0.3737

> <Gold.Chemscore.DEInternal>
1.7174

> <Gold.Chemscore.Rot>
1.5380

> <Gold.Chemscore.Internal.Correction>
   9.000000E+99

> <Gold.Chemscore.Hbonds>
donor molecule, donor type, donor heavy atom, donor atom, acceptor molecule, acceptor atom, score
      L1  H     9    31       P1  8028  0.85
      L1  H    12    43       P1  7948  0.83

> <Gold.Chemscore.Hbond.Weighted>
-5.0961

> <Gold.Chemscore.Metal.Weighted>
-0.0000

> <Gold.Chemscore.Lipo.Weighted>
-12.9498

> <Gold.Chemscore.Internal_Hbond.Weighted>
0.0000

> <Gold.Chemscore.DEClash.Weighted>
0.3737

> <Gold.Chemscore.DEInternal.Weighted>
1.7174

> <Gold.Chemscore.Rot.Weighted>
3.9373

> <Gold.Chemscore.Internal.Correction.Weighted>
   9.000000E+99

> <Gold.Protein.RotatedTorsions>
[ 6907 6896 6895 6894 ] final   57.09 input  -60.11 | X-H torsion
[ 7974 7965 7964 7962 ] final   86.53 input  175.53 | X-H torsion
[ 8008 7997 7996 7995 ] final -170.30 input   59.86 | X-H torsion
[ 10167 10162 10161 10158 ] final  -70.02 input  -65.29 | X-H torsion
[ 10718 10713 10712 10709 ] final  -74.80 input   66.30 | X-H torsion
[ 10763 10752 10751 10750 ] final   97.16 input  -60.55 | X-H torsion
[ 11005 11000 10999 10996 ] final  -53.18 input  -57.11 | X-H torsion

> <Gold.Protein.ActiveResidues>
 VAL166  LYS551  ARG553  GLY616  TRP617  ASP618  TYR619  PRO620  LYS621  CYS622 
 ASP623  PHE694  ASN695  SER759  ASP760  ASP761  ALA762  ILE779  LEU786  VAL792 
 PHE793  MET794  SER795  GLU796  ALA797  LYS798  CYS799  TRP800  GLU811  SER814 

> <Gold.Protein.RotatedAtoms>
  152.3698  134.6750  160.0179 H   0  0  0  0  0  0  0  0  0  0  0  0  # atno 6907 bound_to 6896
  151.7047  133.3306  159.3283 H   0  0  0  0  0  0  0  0  0  0  0  0  # atno 6908 bound_to 6896
  150.7665  134.6520  159.6338 H   0  0  0  0  0  0  0  0  0  0  0  0  # atno 6909 bound_to 6896
  145.5710  139.2314  143.2406 H   0  0  0  0  0  0  0  0  0  0  0  0  # atno 7974 bound_to 7965
  155.9165  140.1066  157.1240 H   0  0  0  0  0  0  0  0  0  0  0  0  # atno 8008 bound_to 7997
  154.4047  140.1264  156.4689 H   0  0  0  0  0  0  0  0  0  0  0  0  # atno 8009 bound_to 7997
  155.7248  140.3469  155.5034 H   0  0  0  0  0  0  0  0  0  0  0  0  # atno 8010 bound_to 7997
  140.5385  143.2316  151.7133 H   0  0  0  0  0  0  0  0  0  0  0  0  # atno 10167 bound_to 10162
  156.0230  130.4425  150.2947 H   0  0  0  0  0  0  0  0  0  0  0  0  # atno 10718 bound_to 10713
  153.2736  135.4193  155.1011 H   0  0  0  0  0  0  0  0  0  0  0  0  # atno 10763 bound_to 10752
  154.8465  135.3478  154.6210 H   0  0  0  0  0  0  0  0  0  0  0  0  # atno 10764 bound_to 10752
  153.6630  135.7047  153.5229 H   0  0  0  0  0  0  0  0  0  0  0  0  # atno 10765 bound_to 10752
  141.0963  133.6624  156.4134 H   0  0  0  0  0  0  0  0  0  0  0  0  # atno 11005 bound_to 11000
  146.1784  140.6536  142.9200 LP  0  0  0  0  0  0  0  0  0  0  0  0  # atno 17320 bound_to 7965
  144.7438  140.5012  143.6850 LP  0  0  0  0  0  0  0  0  0  0  0  0  # atno 17321 bound_to 7965
  139.4980  144.4005  152.0186 LP  0  0  0  0  0  0  0  0  0  0  0  0  # atno 17342 bound_to 10162
  140.3112  144.3535  150.6033 LP  0  0  0  0  0  0  0  0  0  0  0  0  # atno 17343 bound_to 10162
  157.1050  131.0206  151.3070 LP  0  0  0  0  0  0  0  0  0  0  0  0  # atno 17370 bound_to 10713
  157.4750  130.7731  149.7359 LP  0  0  0  0  0  0  0  0  0  0  0  0  # atno 17371 bound_to 10713
  140.5132  134.6375  157.5292 LP  0  0  0  0  0  0  0  0  0  0  0  0  # atno 17394 bound_to 11000
  139.9800  134.7152  155.9876 LP  0  0  0  0  0  0  0  0  0  0  0  0  # atno 17395 bound_to 11000

$$$$
