AV-unprocessed.smi:260|AV-procd|sdf|1977|dock5
  -GOLD-   2262021143D 1   1.00000     0.00000
 Structure written by MMmdl.
 53 56  0  0  0  0  0  0  0  0  1 V2000
  152.7212  130.9094  156.3171 C   0  0  0  0  0  0  0  0  0  0  0  0
  151.6689  131.7918  155.8366 N   0  0  0  0  0  0  0  0  0  0  0  0
  151.4290  133.0216  156.3191 C   0  0  0  0  0  0  0  0  0  0  0  0
  152.1055  133.5042  157.2291 O   0  0  0  0  0  0  0  0  0  0  0  0
  150.2604  133.8367  155.6976 C   0  0  1  0  0  0  0  0  0  0  0  0
  149.5863  133.0897  154.5230 C   0  0  0  0  0  0  0  0  0  0  0  0
  149.2379  134.2123  156.7899 C   0  0  0  0  0  0  0  0  0  0  0  0
  149.7786  135.4984  157.4197 C   0  0  0  0  0  0  0  0  0  0  0  0
  150.5453  136.1367  156.3641 N   0  0  0  0  0  0  0  0  0  0  0  0
  151.2906  137.2568  156.5528 C   0  0  0  0  0  0  0  0  0  0  0  0
  151.4122  138.1288  155.5168 N   0  0  0  0  0  0  0  0  0  0  0  0
  152.1337  139.2450  155.6463 C   0  0  0  0  0  0  0  0  0  0  0  0
  152.8066  139.6832  156.7106 N   0  0  0  0  0  0  0  0  0  0  0  0
  152.6861  138.8203  157.7591 C   0  0  0  0  0  0  0  0  0  0  0  0
  151.9543  137.5971  157.7702 C   0  0  0  0  0  0  0  0  0  0  0  0
  152.0699  137.0011  159.0225 N   0  0  0  0  0  0  0  0  0  0  0  0
  152.8257  137.8167  159.7046 C   0  0  0  0  0  0  0  0  0  0  0  0
  153.2429  138.9338  159.0207 N   0  0  0  0  0  0  0  0  0  0  0  0
  154.0908  139.9956  159.5336 C   0  0  0  0  0  0  0  0  0  0  0  0
  153.3882  140.8342  160.6188 C   0  0  1  0  0  0  0  0  0  0  0  0
  154.3634  141.4311  161.4523 O   0  0  0  0  0  0  0  0  0  0  0  0
  152.5042  141.9413  160.0163 C   0  0  2  0  0  0  0  0  0  0  0  0
  153.2655  142.9963  159.2112 C   0  0  0  0  0  0  0  0  0  0  0  0
  152.3783  144.2286  159.2999 C   0  0  0  0  0  0  0  0  0  0  0  0
  151.4036  143.9054  160.4353 C   0  0  0  0  0  0  0  0  0  0  0  0
  151.9197  142.7292  161.0422 O   0  0  0  0  0  0  0  0  0  0  0  0
  150.7576  135.2280  155.2416 C   0  0  0  0  0  0  0  0  0  0  0  0
  152.7031  129.9722  155.7610 H   0  0  0  0  0  0  0  0  0  0  0  0
  152.5840  130.6812  157.3748 H   0  0  0  0  0  0  0  0  0  0  0  0
  153.7024  131.3667  156.1830 H   0  0  0  0  0  0  0  0  0  0  0  0
  151.0823  131.4477  155.0902 H   0  0  0  0  0  0  0  0  0  0  0  0
  148.8038  133.6972  154.0669 H   0  0  0  0  0  0  0  0  0  0  0  0
  149.1161  132.1617  154.8508 H   0  0  0  0  0  0  0  0  0  0  0  0
  150.3031  132.8480  153.7369 H   0  0  0  0  0  0  0  0  0  0  0  0
  148.2669  134.4178  156.3373 H   0  0  0  0  0  0  0  0  0  0  0  0
  149.0854  133.4268  157.5316 H   0  0  0  0  0  0  0  0  0  0  0  0
  148.9697  136.1382  157.7733 H   0  0  0  0  0  0  0  0  0  0  0  0
  150.4335  135.2696  158.2612 H   0  0  0  0  0  0  0  0  0  0  0  0
  152.1780  139.8774  154.7720 H   0  0  0  0  0  0  0  0  0  0  0  0
  153.1041  137.6226  160.7302 H   0  0  0  0  0  0  0  0  0  0  0  0
  155.0105  139.5566  159.9222 H   0  0  0  0  0  0  0  0  0  0  0  0
  154.3805  140.6296  158.6948 H   0  0  0  0  0  0  0  0  0  0  0  0
  152.7732  140.1793  161.2376 H   0  0  0  0  0  0  0  0  0  0  0  0
  154.4561  140.9033  162.2311 H   0  0  0  0  0  0  0  0  0  0  0  0
  151.7088  141.5084  159.4062 H   0  0  0  0  0  0  0  0  0  0  0  0
  154.2279  143.2070  159.6797 H   0  0  0  0  0  0  0  0  0  0  0  0
  153.4543  142.6839  158.1837 H   0  0  0  0  0  0  0  0  0  0  0  0
  152.9710  145.1180  159.5164 H   0  0  0  0  0  0  0  0  0  0  0  0
  151.8392  144.4025  158.3680 H   0  0  0  0  0  0  0  0  0  0  0  0
  151.3187  144.7162  161.1592 H   0  0  0  0  0  0  0  0  0  0  0  0
  150.4087  143.6974  160.0390 H   0  0  0  0  0  0  0  0  0  0  0  0
  151.8050  135.1952  154.9369 H   0  0  0  0  0  0  0  0  0  0  0  0
  150.1836  135.5947  154.3900 H   0  0  0  0  0  0  0  0  0  0  0  0
  1  2  1  0  0  0  0
  1 28  1  0  0  0  0
  1 29  1  0  0  0  0
  1 30  1  0  0  0  0
  2  3  1  0  0  0  0
  2 31  1  0  0  0  0
  3  4  2  0  0  0  0
  3  5  1  0  0  0  0
  5 27  1  0  0  0  0
  5  6  1  0  0  0  0
  5  7  1  0  0  0  0
  6 32  1  0  0  0  0
  6 33  1  0  0  0  0
  6 34  1  0  0  0  0
  7  8  1  0  0  0  0
  7 35  1  0  0  0  0
  7 36  1  0  0  0  0
  8  9  1  0  0  0  0
  8 37  1  0  0  0  0
  8 38  1  0  0  0  0
  9 10  1  0  0  0  0
  9 27  1  0  0  0  0
 10 15  1  0  0  0  0
 10 11  2  0  0  0  0
 11 12  1  0  0  0  0
 12 13  2  0  0  0  0
 12 39  1  0  0  0  0
 13 14  1  0  0  0  0
 14 18  1  0  0  0  0
 14 15  2  0  0  0  0
 15 16  1  0  0  0  0
 16 17  2  0  0  0  0
 17 18  1  0  0  0  0
 17 40  1  0  0  0  0
 18 19  1  0  0  0  0
 19 20  1  0  0  0  0
 19 41  1  0  0  0  0
 19 42  1  0  0  0  0
 20 21  1  0  0  0  0
 20 22  1  0  0  0  0
 20 43  1  0  0  0  0
 21 44  1  0  0  0  0
 22 26  1  0  0  0  0
 22 23  1  0  0  0  0
 22 45  1  0  0  0  0
 23 24  1  0  0  0  0
 23 46  1  0  0  0  0
 23 47  1  0  0  0  0
 24 25  1  0  0  0  0
 24 48  1  0  0  0  0
 24 49  1  0  0  0  0
 25 26  1  0  0  0  0
 25 50  1  0  0  0  0
 25 51  1  0  0  0  0
 27 52  1  0  0  0  0
 27 53  1  0  0  0  0
M  END
> <s_m_source_file>
AV-unprocessed.smi

> <i_m_source_file_index>
260

> <i_lp_mmshare_version>
43012

> <i_f3d_flags>
0

> <s_epik_input>
W0NIM11bTkhdQyg9TylbQ0BAXTEoW0NIM10pW0NIMl1bQ0gyXU4oW0NIMl0xKWMobltjSF1uMiljKGMyMyluW2NIXW4zW0NIMl1bQ0BIXShbT0hdKVtDQEBIXTRbQ0gyXVtDSDJdW0NIMl1PNA==

> <s_epik_cmdline>
J2VwaWtfcHl0aG9uJywgJy1waCcsICc3LjAnLCAnLXRuJywgJzgnLCAnLW1hJywgJzIwMCcsICctbWV0YWxfYmluZGluZycsICctaW1hZScsICc8aW5maWxlLm1hZT4nLCAnLW9tYWUnLCAnPG91dGZpbGUubWFlPic=

> <r_lp_tautomer_probability>
1

> <r_epik_Ionization_Penalty>
0.00115068

> <r_epik_Ionization_Penalty_Charging>
0

> <r_epik_Ionization_Penalty_Neutral>
0.00115068

> <r_epik_State_Penalty>
0.000668876

> <r_epik_Charging_Adjusted_Penalty>
0.000668876

> <i_epik_Tot_Q>
0

> <i_epik_Tot_abs_Q>
0

> <r_epik_Metal_State_Penalty>
-0

> <b_epik_Metal_Only>
0

> <s_lp_Force_Field>
OPLS_2005

> <r_lp_Energy>
48.4888

> <b_lp_Chiralities_Consistent>
1

> <s_lp_Variant>
AV-unprocessed.smi:260-3

> <Gold.Version>
5.8.1

> <Gold.Id.Protein>
6NUR|6NUR_protein|mol2

> <Gold.PLP.Fitness>
48.0938

> <Gold.PLP.PLP>
-44.5898

> <Gold.PLP.part.hbond>
-4.5082

> <Gold.PLP.part.metal>
0.0000

> <Gold.PLP.part.buried>
-7.2402

> <Gold.PLP.part.nonpolar>
-33.7714

> <Gold.PLP.part.repulsive>
0.1555

> <Gold.PLP.ligand.clash>
0.0000

> <Gold.PLP.ligand.torsion>
1.0750

> <Gold.PLP.Chemscore.Hbond>
1.8178

> <Gold.PLP.Chemscore.CHOScore>
0.0000

> <Gold.PLP.Chemscore.Metal>
0.0000

> <Gold.Chemscore.Hbonds>
donor molecule, donor type, donor heavy atom, donor atom, acceptor molecule, acceptor atom, score
      P1  H  6896  6907       L1    16  0.76
      P1  H  6933  6945       L1    26  0.01
      P1  H  7997  8009       L1    13  1.00

> <Gold.PLP.Chemscore.Internal.Correction>
0.2005

> <Gold.Rescore>
     Score         DG    S(hbond)    S(metal)    S(lipo)     H(rot)  DE(clash)    DE(int)     intcor
     15.88     -17.17       2.38        0.00      87.35       2.53       0.00       1.29       ----

> <Gold.Chemscore.Fitness>
15.8807

> <Gold.Chemscore.DG>
-17.1707

> <Gold.Chemscore.ZeroCoef>
-5.4800

> <Gold.Chemscore.Hbond>
2.3765

> <Gold.Chemscore.Metal>
0.0000

> <Gold.Chemscore.Lipo>
87.3459

> <Gold.Chemscore.Internal_Hbond>
0.0000

> <Gold.Chemscore.DEClash>
0.0000

> <Gold.Chemscore.DEInternal>
1.2900

> <Gold.Chemscore.Rot>
2.5259

> <Gold.Chemscore.Internal.Correction>
   9.000000E+99

> <Gold.Chemscore.Hbonds>
donor molecule, donor type, donor heavy atom, donor atom, acceptor molecule, acceptor atom, score
      P1  H  6896  6907       L1    16  0.66
      P1  H  6896  6908       L1     4  0.01
      P1  H  6896  6909       L1     4  0.01
      P1  H  6933  6945       L1    26  0.02
      P1  H  7997  8009       L1    13  0.75

> <Gold.Chemscore.Hbond.Weighted>
-7.9375

> <Gold.Chemscore.Metal.Weighted>
-0.0000

> <Gold.Chemscore.Lipo.Weighted>
-10.2195

> <Gold.Chemscore.Internal_Hbond.Weighted>
0.0000

> <Gold.Chemscore.DEClash.Weighted>
0.0000

> <Gold.Chemscore.DEInternal.Weighted>
1.2900

> <Gold.Chemscore.Rot.Weighted>
6.4663

> <Gold.Chemscore.Internal.Correction.Weighted>
   9.000000E+99

> <Gold.Protein.RotatedTorsions>
[ 6907 6896 6895 6894 ] final   -0.22 input  -60.11 | X-H torsion
[ 7974 7965 7964 7962 ] final   23.31 input  175.53 | X-H torsion
[ 8008 7997 7996 7995 ] final -169.29 input   59.86 | X-H torsion
[ 10167 10162 10161 10158 ] final   11.93 input  -65.29 | X-H torsion
[ 10718 10713 10712 10709 ] final  167.16 input   66.30 | X-H torsion
[ 10763 10752 10751 10750 ] final  -38.40 input  -60.55 | X-H torsion
[ 11005 11000 10999 10996 ] final   10.30 input  -57.11 | X-H torsion

> <Gold.Protein.ActiveResidues>
 VAL166  LYS551  ARG553  GLY616  TRP617  ASP618  TYR619  PRO620  LYS621  CYS622 
 ASP623  PHE694  ASN695  SER759  ASP760  ASP761  ALA762  ILE779  LEU786  VAL792 
 PHE793  MET794  SER795  GLU796  ALA797  LYS798  CYS799  TRP800  GLU811  SER814 

> <Gold.Protein.RotatedAtoms>
  151.5658  135.1064  159.9983 H   0  0  0  0  0  0  0  0  0  0  0  0  # atno 6907 bound_to 6896
  152.4425  133.7470  159.6683 H   0  0  0  0  0  0  0  0  0  0  0  0  # atno 6908 bound_to 6896
  150.8333  133.7986  159.3113 H   0  0  0  0  0  0  0  0  0  0  0  0  # atno 6909 bound_to 6896
  146.1990  139.7762  142.8776 H   0  0  0  0  0  0  0  0  0  0  0  0  # atno 7974 bound_to 7965
  155.9030  140.1044  157.1336 H   0  0  0  0  0  0  0  0  0  0  0  0  # atno 8008 bound_to 7997
  154.4029  140.1289  156.4524 H   0  0  0  0  0  0  0  0  0  0  0  0  # atno 8009 bound_to 7997
  155.7401  140.3467  155.5102 H   0  0  0  0  0  0  0  0  0  0  0  0  # atno 8010 bound_to 7997
  140.6101  143.8426  150.7056 H   0  0  0  0  0  0  0  0  0  0  0  0  # atno 10167 bound_to 10162
  157.0555  131.0325  151.2665 H   0  0  0  0  0  0  0  0  0  0  0  0  # atno 10718 bound_to 10713
  153.9122  135.6791  153.4750 H   0  0  0  0  0  0  0  0  0  0  0  0  # atno 10763 bound_to 10752
  153.1072  135.4800  154.8970 H   0  0  0  0  0  0  0  0  0  0  0  0  # atno 10764 bound_to 10752
  154.7521  135.3187  154.8494 H   0  0  0  0  0  0  0  0  0  0  0  0  # atno 10765 bound_to 10752
  140.5160  134.0605  155.7831 H   0  0  0  0  0  0  0  0  0  0  0  0  # atno 11005 bound_to 11000
  145.3548  141.0314  143.3318 LP  0  0  0  0  0  0  0  0  0  0  0  0  # atno 17320 bound_to 7965
  144.8642  139.5133  143.6798 LP  0  0  0  0  0  0  0  0  0  0  0  0  # atno 17321 bound_to 7965
  140.1993  143.3973  152.1804 LP  0  0  0  0  0  0  0  0  0  0  0  0  # atno 17342 bound_to 10162
  139.5354  144.7204  151.4910 LP  0  0  0  0  0  0  0  0  0  0  0  0  # atno 17343 bound_to 10162
  157.4996  130.7872  149.7591 LP  0  0  0  0  0  0  0  0  0  0  0  0  # atno 17370 bound_to 10713
  155.9994  130.3889  150.2665 LP  0  0  0  0  0  0  0  0  0  0  0  0  # atno 17371 bound_to 10713
  141.1360  133.9221  157.2433 LP  0  0  0  0  0  0  0  0  0  0  0  0  # atno 17394 bound_to 11000
  139.9632  135.0149  156.9317 LP  0  0  0  0  0  0  0  0  0  0  0  0  # atno 17395 bound_to 11000

$$$$
