AV-unprocessed.smi:283|AV-procd|sdf|2139|dock6
  -GOLD-   2262021463D 1   1.00000     0.00000
 Structure written by MMmdl.
 48 51  0  0  0  0  0  0  0  0  1 V2000
  149.0604  137.0504  158.7555 C   0  0  0  0  0  0  0  0  0  0  0  0
  148.6168  135.5798  158.8577 C   0  0  2  0  0  0  0  0  0  0  0  0
  147.6459  135.2470  157.8157 N   0  0  0  0  0  0  0  0  0  0  0  0
  148.0103  134.6160  156.6774 C   0  0  0  0  0  0  0  0  0  0  0  0
  149.3133  134.3440  156.4045 N   0  0  0  0  0  0  0  0  0  0  0  0
  149.6423  133.7119  155.2742 C   0  0  0  0  0  0  0  0  0  0  0  0
  148.8413  133.2708  154.3021 N   0  0  0  0  0  0  0  0  0  0  0  0
  147.5299  133.5377  154.5725 C   0  0  0  0  0  0  0  0  0  0  0  0
  147.0381  134.2006  155.7312 C   0  0  0  0  0  0  0  0  0  0  0  0
  145.6535  134.2922  155.6695 N   0  0  0  0  0  0  0  0  0  0  0  0
  145.3487  133.7133  154.5390 C   0  0  0  0  0  0  0  0  0  0  0  0
  146.4160  133.2280  153.8167 N   0  0  0  0  0  0  0  0  0  0  0  0
  146.3756  132.5204  152.4985 C   0  0  1  0  0  0  0  0  0  0  0  0
  145.0875  132.0526  152.2679 O   0  0  0  0  0  0  0  0  0  0  0  0
  144.8651  131.9643  150.8645 C   0  0  1  0  0  0  0  0  0  0  0  0
  143.4304  132.4295  150.5564 C   0  0  0  0  0  0  0  0  0  0  0  0
  143.0382  132.0897  149.2428 O   0  0  0  0  0  0  0  0  0  0  0  0
  145.9940  132.7541  150.1670 C   0  0  2  0  0  0  0  0  0  0  0  0
  146.8537  131.8520  149.4964 O   0  0  0  0  0  0  0  0  0  0  0  0
  146.7452  133.4223  151.3123 C   0  0  1  0  0  0  0  0  0  0  0  0
  146.3350  134.7678  151.4738 O   0  0  0  0  0  0  0  0  0  0  0  0
  148.0919  135.2898  160.2632 C   0  0  0  0  0  0  0  0  0  0  0  0
  147.9700  136.3408  161.2030 C   0  0  0  0  0  0  0  0  0  0  0  0
  147.4931  136.0905  162.5035 C   0  0  0  0  0  0  0  0  0  0  0  0
  147.1385  134.7836  162.8827 C   0  0  0  0  0  0  0  0  0  0  0  0
  147.2677  133.7281  161.9616 C   0  0  0  0  0  0  0  0  0  0  0  0
  147.7452  133.9723  160.6581 C   0  0  0  0  0  0  0  0  0  0  0  0
  147.8987  132.6316  159.5766 Cl  0  0  0  0  0  0  0  0  0  0  0  0
  147.0529  131.6718  152.6063 H   0  0  0  0  0  0  0  0  0  0  0  0
  144.9339  130.9057  150.6075 H   0  0  0  0  0  0  0  0  0  0  0  0
  145.6261  133.4737  149.4343 H   0  0  0  0  0  0  0  0  0  0  0  0
  147.8272  133.4172  151.1732 H   0  0  0  0  0  0  0  0  0  0  0  0
  149.8193  137.2819  159.5034 H   0  0  0  0  0  0  0  0  0  0  0  0
  148.2210  137.7281  158.9147 H   0  0  0  0  0  0  0  0  0  0  0  0
  149.4885  137.2794  157.7796 H   0  0  0  0  0  0  0  0  0  0  0  0
  149.4848  134.9421  158.6948 H   0  0  0  0  0  0  0  0  0  0  0  0
  146.7052  135.5766  157.9776 H   0  0  0  0  0  0  0  0  0  0  0  0
  150.6973  133.5329  155.1283 H   0  0  0  0  0  0  0  0  0  0  0  0
  144.3273  133.6209  154.1991 H   0  0  0  0  0  0  0  0  0  0  0  0
  142.7325  131.9545  151.2463 H   0  0  0  0  0  0  0  0  0  0  0  0
  143.3362  133.5065  150.6980 H   0  0  0  0  0  0  0  0  0  0  0  0
  142.6189  132.8421  148.8522 H   0  0  0  0  0  0  0  0  0  0  0  0
  147.5172  131.5628  150.1041 H   0  0  0  0  0  0  0  0  0  0  0  0
  147.1047  135.3019  151.5981 H   0  0  0  0  0  0  0  0  0  0  0  0
  148.2456  137.3502  160.9356 H   0  0  0  0  0  0  0  0  0  0  0  0
  147.4018  136.9017  163.2108 H   0  0  0  0  0  0  0  0  0  0  0  0
  146.7730  134.5899  163.8804 H   0  0  0  0  0  0  0  0  0  0  0  0
  147.0009  132.7244  162.2586 H   0  0  0  0  0  0  0  0  0  0  0  0
  1  2  1  0  0  0  0
  1 33  1  0  0  0  0
  1 34  1  0  0  0  0
  1 35  1  0  0  0  0
  2  3  1  0  0  0  0
  2 22  1  0  0  0  0
  2 36  1  0  0  0  0
  3  4  1  0  0  0  0
  3 37  1  0  0  0  0
  4  9  1  0  0  0  0
  4  5  2  0  0  0  0
  5  6  1  0  0  0  0
  6  7  2  0  0  0  0
  6 38  1  0  0  0  0
  7  8  1  0  0  0  0
  8 12  1  0  0  0  0
  8  9  2  0  0  0  0
  9 10  1  0  0  0  0
 10 11  2  0  0  0  0
 11 12  1  0  0  0  0
 11 39  1  0  0  0  0
 12 13  1  0  0  0  0
 13 29  1  0  0  0  0
 13 20  1  0  0  0  0
 13 14  1  0  0  0  0
 14 15  1  0  0  0  0
 15 30  1  0  0  0  0
 15 16  1  0  0  0  0
 15 18  1  0  0  0  0
 16 17  1  0  0  0  0
 16 40  1  0  0  0  0
 16 41  1  0  0  0  0
 17 42  1  0  0  0  0
 18 31  1  0  0  0  0
 18 19  1  0  0  0  0
 18 20  1  0  0  0  0
 19 43  1  0  0  0  0
 20 32  1  0  0  0  0
 20 21  1  0  0  0  0
 21 44  1  0  0  0  0
 22 27  1  0  0  0  0
 22 23  2  0  0  0  0
 23 24  1  0  0  0  0
 23 45  1  0  0  0  0
 24 25  2  0  0  0  0
 24 46  1  0  0  0  0
 25 26  1  0  0  0  0
 25 47  1  0  0  0  0
 26 27  2  0  0  0  0
 26 48  1  0  0  0  0
 27 28  1  0  0  0  0
M  END
> <s_m_source_file>
AV-unprocessed.smi

> <i_m_source_file_index>
283

> <i_lp_mmshare_version>
43012

> <i_f3d_flags>
0

> <s_epik_input>
Q2xjMVtjSF1bY0hdW2NIXVtjSF1jMVtDQEhdKFtDSDNdKVtOSF1jKG5bY0hdbjIpYyhjMjMpbltjSF1uM1tDQEBIXTRPW0NASF0oW0NIMl1bT0hdKVtDQEBIXShbT0hdKVtDQEhdNFtPSF0=

> <s_epik_cmdline>
J2VwaWtfcHl0aG9uJywgJy1waCcsICc3LjAnLCAnLXRuJywgJzgnLCAnLW1hJywgJzIwMCcsICctbWV0YWxfYmluZGluZycsICctaW1hZScsICc8aW5maWxlLm1hZT4nLCAnLW9tYWUnLCAnPG91dGZpbGUubWFlPic=

> <r_lp_tautomer_probability>
1

> <r_epik_Ionization_Penalty>
0.000266407

> <r_epik_Ionization_Penalty_Charging>
0

> <r_epik_Ionization_Penalty_Neutral>
0.000266407

> <r_epik_State_Penalty>
-0

> <r_epik_Charging_Adjusted_Penalty>
0

> <i_epik_Tot_Q>
0

> <i_epik_Tot_abs_Q>
0

> <r_epik_Metal_State_Penalty>
-0

> <b_epik_Metal_Only>
0

> <s_epik_Chemistry_Notes>
This compound contains an acetal/aminal-like group ( X-CH(R)-Y where X, Y are N, S, or O) that may be acid/base labile, releasing an aldehyde.

> <s_lp_Force_Field>
OPLS_2005

> <r_lp_Energy>
48.6958

> <b_lp_Chiralities_Consistent>
1

> <s_lp_Variant>
AV-unprocessed.smi:283-15

> <Gold.Version>
5.8.1

> <Gold.Id.Protein>
6NUR|6NUR_protein|mol2

> <Gold.PLP.Fitness>
55.2600

> <Gold.PLP.PLP>
-45.2064

> <Gold.PLP.part.hbond>
-4.5022

> <Gold.PLP.part.metal>
0.0000

> <Gold.PLP.part.buried>
-8.3237

> <Gold.PLP.part.nonpolar>
-34.6411

> <Gold.PLP.part.repulsive>
0.3338

> <Gold.PLP.ligand.clash>
0.0000

> <Gold.PLP.ligand.torsion>
0.8832

> <Gold.PLP.Chemscore.Hbond>
3.0394

> <Gold.PLP.Chemscore.CHOScore>
0.8583

> <Gold.PLP.Chemscore.Metal>
0.0000

> <Gold.Chemscore.Hbonds>
donor molecule, donor type, donor heavy atom, donor atom, acceptor molecule, acceptor atom, score
      L1  H    17    42       P1 10186  0.14
      L1  H    19    43       P1 10747  0.90
      L1  H    21    44       P1  7948  0.98
      P1  H 10785 10796       L1    17  1.00
      L1  C    11    39       P1 10957  0.87

> <Gold.PLP.Chemscore.Internal.Correction>
0.1270

> <Gold.Rescore>
     Score         DG    S(hbond)    S(metal)    S(lipo)     H(rot)  DE(clash)    DE(int)     intcor
     16.00     -17.20       3.34        0.00      94.41       4.10       0.09       1.11       ----

> <Gold.Chemscore.Fitness>
16.0044

> <Gold.Chemscore.DG>
-17.2011

> <Gold.Chemscore.ZeroCoef>
-5.4800

> <Gold.Chemscore.Hbond>
3.3423

> <Gold.Chemscore.Metal>
0.0000

> <Gold.Chemscore.Lipo>
94.4074

> <Gold.Chemscore.Internal_Hbond>
0.0000

> <Gold.Chemscore.DEClash>
0.0903

> <Gold.Chemscore.DEInternal>
1.1064

> <Gold.Chemscore.Rot>
4.0968

> <Gold.Chemscore.Internal.Correction>
   9.000000E+99

> <Gold.Chemscore.Hbonds>
donor molecule, donor type, donor heavy atom, donor atom, acceptor molecule, acceptor atom, score
      L1  H    17    42       P1 10186  0.15
      L1  H    19    43       P1 10747  0.87
      L1  H    21    44       P1  7948  0.88
      P1  H 10785 10796       L1    17  0.89

> <Gold.Chemscore.Hbond.Weighted>
-11.1633

> <Gold.Chemscore.Metal.Weighted>
-0.0000

> <Gold.Chemscore.Lipo.Weighted>
-11.0457

> <Gold.Chemscore.Internal_Hbond.Weighted>
0.0000

> <Gold.Chemscore.DEClash.Weighted>
0.0903

> <Gold.Chemscore.DEInternal.Weighted>
1.1064

> <Gold.Chemscore.Rot.Weighted>
10.4879

> <Gold.Chemscore.Internal.Correction.Weighted>
   9.000000E+99

> <Gold.Protein.RotatedTorsions>
[ 6907 6896 6895 6894 ] final   10.99 input  -60.11 | X-H torsion
[ 7974 7965 7964 7962 ] final  113.64 input  175.53 | X-H torsion
[ 8008 7997 7996 7995 ] final  -55.44 input   59.86 | X-H torsion
[ 10167 10162 10161 10158 ] final   83.81 input  -65.29 | X-H torsion
[ 10718 10713 10712 10709 ] final  -18.04 input   66.30 | X-H torsion
[ 10763 10752 10751 10750 ] final  143.09 input  -60.55 | X-H torsion
[ 11005 11000 10999 10996 ] final   10.11 input  -57.11 | X-H torsion

> <Gold.Protein.ActiveResidues>
 VAL166  LYS551  ARG553  GLY616  TRP617  ASP618  TYR619  PRO620  LYS621  CYS622 
 ASP623  PHE694  ASN695  SER759  ASP760  ASP761  ALA762  ILE779  LEU786  VAL792 
 PHE793  MET794  SER795  GLU796  ALA797  LYS798  CYS799  TRP800  GLU811  SER814 

> <Gold.Protein.RotatedAtoms>
  151.7471  135.0841  160.0324 H   0  0  0  0  0  0  0  0  0  0  0  0  # atno 6907 bound_to 6896
  152.3441  133.6097  159.5906 H   0  0  0  0  0  0  0  0  0  0  0  0  # atno 6908 bound_to 6896
  150.7498  133.9592  159.3552 H   0  0  0  0  0  0  0  0  0  0  0  0  # atno 6909 bound_to 6896
  145.2144  139.2891  143.4251 H   0  0  0  0  0  0  0  0  0  0  0  0  # atno 7974 bound_to 7965
  154.4195  140.1153  156.5477 H   0  0  0  0  0  0  0  0  0  0  0  0  # atno 8008 bound_to 7997
  155.6443  140.3496  155.4706 H   0  0  0  0  0  0  0  0  0  0  0  0  # atno 8009 bound_to 7997
  155.9845  140.1167  157.0685 H   0  0  0  0  0  0  0  0  0  0  0  0  # atno 8010 bound_to 7997
  139.9146  144.6251  150.8502 H   0  0  0  0  0  0  0  0  0  0  0  0  # atno 10167 bound_to 10162
  156.5652  130.4735  149.6388 H   0  0  0  0  0  0  0  0  0  0  0  0  # atno 10718 bound_to 10713
  153.9666  135.2955  155.3430 H   0  0  0  0  0  0  0  0  0  0  0  0  # atno 10763 bound_to 10752
  154.7346  135.5052  153.9023 H   0  0  0  0  0  0  0  0  0  0  0  0  # atno 10764 bound_to 10752
  153.0920  135.6710  153.9946 H   0  0  0  0  0  0  0  0  0  0  0  0  # atno 10765 bound_to 10752
  140.5182  134.0585  155.7837 H   0  0  0  0  0  0  0  0  0  0  0  0  # atno 11005 bound_to 11000
  146.3390  140.2429  142.8596 LP  0  0  0  0  0  0  0  0  0  0  0  0  # atno 17320 bound_to 7965
  144.9825  140.8473  143.5388 LP  0  0  0  0  0  0  0  0  0  0  0  0  # atno 17321 bound_to 7965
  140.7677  143.3341  151.2347 LP  0  0  0  0  0  0  0  0  0  0  0  0  # atno 17342 bound_to 10162
  139.6913  143.9687  152.2861 LP  0  0  0  0  0  0  0  0  0  0  0  0  # atno 17343 bound_to 10162
  156.2764  130.7046  151.1858 LP  0  0  0  0  0  0  0  0  0  0  0  0  # atno 17370 bound_to 10713
  157.7360  131.0566  150.5438 LP  0  0  0  0  0  0  0  0  0  0  0  0  # atno 17371 bound_to 10713
  141.1349  133.9239  157.2456 LP  0  0  0  0  0  0  0  0  0  0  0  0  # atno 17394 bound_to 11000
  139.9620  135.0151  156.9287 LP  0  0  0  0  0  0  0  0  0  0  0  0  # atno 17395 bound_to 11000

$$$$
