AV-unprocessed.smi:2172|AV-procd|sdf|8837|dock2
  -GOLD-   2272012 33D 1   1.00000     0.00000
 Structure written by MMmdl.
 37 39  0  0  0  0  0  0  0  0  2 V2000
  151.3299  136.4403  154.0777 O   0  0  0  0  0  0  0  0  0  0  0  0
  151.5652  137.7017  154.6628 C   0  0  0  0  0  0  0  0  0  0  0  0
  150.4333  138.6498  154.4405 C   0  0  0  0  0  0  0  0  0  0  0  0
  149.2802  138.3740  153.7686 N   0  3  0  0  0  0  0  0  0  0  0  0
  148.4496  139.4951  153.7752 C   0  0  0  0  0  0  0  0  0  0  0  0
  147.1859  139.6948  153.2279 C   0  0  0  0  0  0  0  0  0  0  0  0
  146.6090  140.9678  153.4155 C   0  0  0  0  0  0  0  0  0  0  0  0
  147.2859  141.9836  154.1212 C   0  0  0  0  0  0  0  0  0  0  0  0
  148.5669  141.7692  154.6711 C   0  0  0  0  0  0  0  0  0  0  0  0
  149.1296  140.5063  154.4848 C   0  0  0  0  0  0  0  0  0  0  0  0
  150.3481  139.9391  154.8781 N   0  0  0  0  0  0  0  0  0  0  0  0
  151.3061  140.7371  155.6606 C   0  0  0  0  0  0  0  0  0  0  0  0
  151.7010  140.0720  156.9946 C   0  0  1  0  0  0  0  0  0  0  0  0
  152.8836  139.3131  156.8325 O   0  0  0  0  0  0  0  0  0  0  0  0
  151.8265  141.1035  158.1049 C   0  0  0  0  0  0  0  0  0  0  0  0
  152.4251  140.7638  159.3386 C   0  0  0  0  0  0  0  0  0  0  0  0
  152.5464  141.7276  160.3583 C   0  0  0  0  0  0  0  0  0  0  0  0
  152.0737  143.0377  160.1501 C   0  0  0  0  0  0  0  0  0  0  0  0
  152.2273  144.2194  161.3978 Cl  0  0  0  0  0  0  0  0  0  0  0  0
  151.4785  143.3826  158.9211 C   0  0  0  0  0  0  0  0  0  0  0  0
  151.3567  142.4186  157.9011 C   0  0  0  0  0  0  0  0  0  0  0  0
  151.4293  136.5185  153.1410 H   0  0  0  0  0  0  0  0  0  0  0  0
  151.7305  137.5744  155.7327 H   0  0  0  0  0  0  0  0  0  0  0  0
  152.4801  138.1225  154.2445 H   0  0  0  0  0  0  0  0  0  0  0  0
  146.6659  138.9188  152.6856 H   0  0  0  0  0  0  0  0  0  0  0  0
  145.6286  141.1702  153.0094 H   0  0  0  0  0  0  0  0  0  0  0  0
  146.8141  142.9479  154.2425 H   0  0  0  0  0  0  0  0  0  0  0  0
  149.0777  142.5571  155.2045 H   0  0  0  0  0  0  0  0  0  0  0  0
  152.1824  140.9502  155.0481 H   0  0  0  0  0  0  0  0  0  0  0  0
  150.8357  141.7019  155.8546 H   0  0  0  0  0  0  0  0  0  0  0  0
  150.9205  139.3645  157.2768 H   0  0  0  0  0  0  0  0  0  0  0  0
  152.6412  138.4140  156.6703 H   0  0  0  0  0  0  0  0  0  0  0  0
  152.7962  139.7632  159.5065 H   0  0  0  0  0  0  0  0  0  0  0  0
  153.0044  141.4606  161.2995 H   0  0  0  0  0  0  0  0  0  0  0  0
  151.1167  144.3872  158.7583 H   0  0  0  0  0  0  0  0  0  0  0  0
  150.9026  142.6944  156.9606 H   0  0  0  0  0  0  0  0  0  0  0  0
  149.0767  137.4799  153.3410 H   0  0  0  0  0  0  0  0  0  0  0  0
  1  2  1  0  0  0  0
  1 22  1  0  0  0  0
  2  3  1  0  0  0  0
  2 23  1  0  0  0  0
  2 24  1  0  0  0  0
  3 11  1  0  0  0  0
  3  4  2  0  0  0  0
  4  5  1  0  0  0  0
  4 37  1  0  0  0  0
  5 10  2  0  0  0  0
  5  6  1  0  0  0  0
  6  7  2  0  0  0  0
  6 25  1  0  0  0  0
  7  8  1  0  0  0  0
  7 26  1  0  0  0  0
  8  9  2  0  0  0  0
  8 27  1  0  0  0  0
  9 10  1  0  0  0  0
  9 28  1  0  0  0  0
 10 11  1  0  0  0  0
 11 12  1  0  0  0  0
 12 13  1  0  0  0  0
 12 29  1  0  0  0  0
 12 30  1  0  0  0  0
 13 14  1  0  0  0  0
 13 15  1  0  0  0  0
 13 31  1  0  0  0  0
 14 32  1  0  0  0  0
 15 21  1  0  0  0  0
 15 16  2  0  0  0  0
 16 17  1  0  0  0  0
 16 33  1  0  0  0  0
 17 18  2  0  0  0  0
 17 34  1  0  0  0  0
 18 19  1  0  0  0  0
 18 20  1  0  0  0  0
 20 21  2  0  0  0  0
 20 35  1  0  0  0  0
 21 36  1  0  0  0  0
M  CHG  1   4   1
M  END
> <s_m_source_file>
AV-unprocessed.smi

> <i_m_source_file_index>
2172

> <i_lp_mmshare_version>
43012

> <i_f3d_flags>
0

> <s_epik_input>
W2NIXTFbY0hdW2NIXVtjSF1jKGMxMiluKGMobjIpW0NIMl1bT0hdKVtDSDJdW0NASF0oW09IXSljM1tjSF1bY0hdYyhDbClbY0hdW2NIXTM=

> <s_epik_cmdline>
J2VwaWtfcHl0aG9uJywgJy1waCcsICc3LjAnLCAnLXRuJywgJzgnLCAnLW1hJywgJzIwMCcsICctbWV0YWxfYmluZGluZycsICctaW1hZScsICc8aW5maWxlLm1hZT4nLCAnLW9tYWUnLCAnPG91dGZpbGUubWFlPic=

> <r_epik_Ionization_Penalty>
1.35643

> <r_epik_Ionization_Penalty_Charging>
1.35557

> <r_epik_Ionization_Penalty_Neutral>
0.000858184

> <r_epik_State_Penalty>
1.43401

> <r_epik_Charging_Adjusted_Penalty>
2.78958

> <i_epik_Tot_Q>
1

> <i_epik_Tot_abs_Q>
1

> <r_epik_Metal_State_Penalty>
5.47166

> <b_epik_Metal_Only>
0

> <s_lp_Force_Field>
OPLS_2005

> <r_lp_Energy>
14.493

> <b_lp_Chiralities_Consistent>
1

> <s_lp_Variant>
AV-unprocessed.smi:2172-4

> <Gold.Version>
5.8.1

> <Gold.Id.Protein>
6NUR|6NUR_protein|mol2

> <Gold.PLP.Fitness>
61.5744

> <Gold.PLP.PLP>
-48.2280

> <Gold.PLP.part.hbond>
-5.0821

> <Gold.PLP.part.metal>
0.0000

> <Gold.PLP.part.buried>
1.8753

> <Gold.PLP.part.nonpolar>
-44.6279

> <Gold.PLP.part.repulsive>
0.0484

> <Gold.PLP.ligand.clash>
0.0000

> <Gold.PLP.ligand.torsion>
0.8433

> <Gold.PLP.Chemscore.Hbond>
5.0000

> <Gold.PLP.Chemscore.CHOScore>
0.0000

> <Gold.PLP.Chemscore.Metal>
0.0000

> <Gold.Chemscore.Hbonds>
donor molecule, donor type, donor heavy atom, donor atom, acceptor molecule, acceptor atom, score
      L1  H     1    22       P1  7949  1.00
      L1  H     4    37       P1  7948  2.00
      P1  H  7997  8009       L1    14  1.00
      P1  H 10752 10765       L1     1  0.95

> <Gold.PLP.Chemscore.Internal.Correction>
0.0330

> <Gold.Rescore>
     Score         DG    S(hbond)    S(metal)    S(lipo)     H(rot)  DE(clash)    DE(int)     intcor
     19.22     -23.45       2.95        0.00     128.39       2.70       2.34       1.90       ----

> <Gold.Chemscore.Fitness>
19.2173

> <Gold.Chemscore.DG>
-23.4533

> <Gold.Chemscore.ZeroCoef>
-5.4800

> <Gold.Chemscore.Hbond>
2.9504

> <Gold.Chemscore.Metal>
0.0000

> <Gold.Chemscore.Lipo>
128.3890

> <Gold.Chemscore.Internal_Hbond>
0.0000

> <Gold.Chemscore.DEClash>
2.3377

> <Gold.Chemscore.DEInternal>
1.8984

> <Gold.Chemscore.Rot>
2.6963

> <Gold.Chemscore.Internal.Correction>
   9.000000E+99

> <Gold.Chemscore.Hbonds>
donor molecule, donor type, donor heavy atom, donor atom, acceptor molecule, acceptor atom, score
      L1  H     1    22       P1  7949  0.83
      L1  H     4    37       P1  7948  0.97
      P1  H  7997  8009       L1    14  0.93
      P1  H 10752 10765       L1     1  0.06

> <Gold.Chemscore.Hbond.Weighted>
-9.8542

> <Gold.Chemscore.Metal.Weighted>
-0.0000

> <Gold.Chemscore.Lipo.Weighted>
-15.0215

> <Gold.Chemscore.Internal_Hbond.Weighted>
0.0000

> <Gold.Chemscore.DEClash.Weighted>
2.3377

> <Gold.Chemscore.DEInternal.Weighted>
1.8984

> <Gold.Chemscore.Rot.Weighted>
6.9024

> <Gold.Chemscore.Internal.Correction.Weighted>
   9.000000E+99

> <Gold.Protein.RotatedTorsions>
[ 6907 6896 6895 6894 ] final   26.01 input  -60.11 | X-H torsion
[ 7974 7965 7964 7962 ] final   89.00 input  175.53 | X-H torsion
[ 8008 7997 7996 7995 ] final -157.77 input   59.86 | X-H torsion
[ 10167 10162 10161 10158 ] final   50.18 input  -65.29 | X-H torsion
[ 10718 10713 10712 10709 ] final -133.06 input   66.30 | X-H torsion
[ 10763 10752 10751 10750 ] final  179.18 input  -60.55 | X-H torsion
[ 11005 11000 10999 10996 ] final  -19.20 input  -57.11 | X-H torsion

> <Gold.Protein.ActiveResidues>
 VAL166  LYS551  ARG553  GLY616  TRP617  ASP618  TYR619  PRO620  LYS621  CYS622 
 ASP623  PHE694  ASN695  SER759  ASP760  ASP761  ALA762  ILE779  LEU786  VAL792 
 PHE793  MET794  SER795  GLU796  ALA797  LYS798  CYS799  TRP800  GLU811  SER814 

> <Gold.Protein.RotatedAtoms>
  151.9811  135.0028  160.0557 H   0  0  0  0  0  0  0  0  0  0  0  0  # atno 6907 bound_to 6896
  152.1695  133.4630  159.4910 H   0  0  0  0  0  0  0  0  0  0  0  0  # atno 6908 bound_to 6896
  150.6899  134.1888  159.4320 H   0  0  0  0  0  0  0  0  0  0  0  0  # atno 6909 bound_to 6896
  145.5382  139.2287  143.2581 H   0  0  0  0  0  0  0  0  0  0  0  0  # atno 7974 bound_to 7965
  155.7374  140.0810  157.2261 H   0  0  0  0  0  0  0  0  0  0  0  0  # atno 8008 bound_to 7997
  154.4026  140.1584  156.2632 H   0  0  0  0  0  0  0  0  0  0  0  0  # atno 8009 bound_to 7997
  155.9052  140.3407  155.6059 H   0  0  0  0  0  0  0  0  0  0  0  0  # atno 8010 bound_to 7997
  140.2751  144.3220  150.6279 H   0  0  0  0  0  0  0  0  0  0  0  0  # atno 10167 bound_to 10162
  156.2410  130.7096  151.0957 H   0  0  0  0  0  0  0  0  0  0  0  0  # atno 10718 bound_to 10713
  154.5173  135.2792  155.1292 H   0  0  0  0  0  0  0  0  0  0  0  0  # atno 10763 bound_to 10752
  154.2863  135.6275  153.5371 H   0  0  0  0  0  0  0  0  0  0  0  0  # atno 10764 bound_to 10752
  152.9930  135.5663  154.5654 H   0  0  0  0  0  0  0  0  0  0  0  0  # atno 10765 bound_to 10752
  140.8343  133.7973  155.9792 H   0  0  0  0  0  0  0  0  0  0  0  0  # atno 11005 bound_to 11000
  146.1999  140.6201  142.9107 LP  0  0  0  0  0  0  0  0  0  0  0  0  # atno 17320 bound_to 7965
  144.7591  140.5378  143.6748 LP  0  0  0  0  0  0  0  0  0  0  0  0  # atno 17321 bound_to 7965
  140.5857  143.2170  151.7346 LP  0  0  0  0  0  0  0  0  0  0  0  0  # atno 17342 bound_to 10162
  139.4978  144.4014  152.0178 LP  0  0  0  0  0  0  0  0  0  0  0  0  # atno 17343 bound_to 10162
  157.7175  131.0701  150.6268 LP  0  0  0  0  0  0  0  0  0  0  0  0  # atno 17370 bound_to 10713
  156.6342  130.4440  149.5776 LP  0  0  0  0  0  0  0  0  0  0  0  0  # atno 17371 bound_to 10713
  140.8964  134.2432  157.5066 LP  0  0  0  0  0  0  0  0  0  0  0  0  # atno 17394 bound_to 11000
  139.8704  134.9686  156.4637 LP  0  0  0  0  0  0  0  0  0  0  0  0  # atno 17395 bound_to 11000

$$$$
