AV-unprocessed.smi:3044|AV-procd|sdf|11606|dock4
  -GOLD-   2272016583D 1   1.00000     0.00000
 Structure written by MMmdl.
 41 42  0  0  0  0  0  0  0  0  1 V2000
  155.9100  140.4793  166.6777 C   0  0  0  0  0  0  0  0  0  0  0  0
  155.6333  141.9695  166.7815 C   0  0  0  0  0  0  0  0  0  0  0  0
  155.7926  142.5030  168.0134 N   0  0  0  0  0  0  0  0  0  0  0  0
  155.5657  143.8235  168.1720 C   0  0  0  0  0  0  0  0  0  0  0  0
  155.1803  144.6714  167.1170 C   0  0  0  0  0  0  0  0  0  0  0  0
  155.0133  144.1146  165.8353 C   0  0  0  0  0  0  0  0  0  0  0  0
  155.2294  142.7269  165.6541 C   0  0  0  0  0  0  0  0  0  0  0  0
  155.1007  142.0779  164.3951 N   0  0  0  0  0  0  0  0  0  0  0  0
  154.1844  142.2916  163.4332 C   0  0  0  0  0  0  0  0  0  0  0  0
  153.2934  143.1385  163.4851 O   0  0  0  0  0  0  0  0  0  0  0  0
  154.2861  141.3779  162.2081 C   0  0  0  0  0  0  0  0  0  0  0  0
  153.0447  141.3212  161.5095 O   0  0  0  0  0  0  0  0  0  0  0  0
  153.0128  141.9767  160.2437 C   0  0  1  0  0  0  0  0  0  0  0  0
  152.0403  141.2079  159.3344 C   0  0  0  0  0  0  0  0  0  0  0  0
  151.8591  141.9215  157.9862 C   0  0  0  0  0  0  0  0  0  0  0  0
  151.3934  143.3730  158.1842 C   0  0  0  0  0  0  0  0  0  0  0  0
  152.3596  144.1577  159.0928 C   0  0  1  0  0  0  0  0  0  0  0  0
  151.8899  145.6049  159.2985 C   0  0  0  0  0  0  0  0  0  0  0  0
  152.5443  143.4310  160.4390 C   0  0  0  0  0  0  0  0  0  0  0  0
  155.0030  139.9437  166.3991 H   0  0  0  0  0  0  0  0  0  0  0  0
  156.2641  140.0703  167.6247 H   0  0  0  0  0  0  0  0  0  0  0  0
  156.6721  140.2845  165.9230 H   0  0  0  0  0  0  0  0  0  0  0  0
  155.7021  144.2173  169.1684 H   0  0  0  0  0  0  0  0  0  0  0  0
  155.0209  145.7260  167.2862 H   0  0  0  0  0  0  0  0  0  0  0  0
  154.7384  144.7617  165.0167 H   0  0  0  0  0  0  0  0  0  0  0  0
  155.7158  141.2908  164.2465 H   0  0  0  0  0  0  0  0  0  0  0  0
  155.0879  141.7027  161.5430 H   0  0  0  0  0  0  0  0  0  0  0  0
  154.5412  140.3726  162.5445 H   0  0  0  0  0  0  0  0  0  0  0  0
  153.9967  141.9802  159.7699 H   0  0  0  0  0  0  0  0  0  0  0  0
  152.4064  140.1938  159.1716 H   0  0  0  0  0  0  0  0  0  0  0  0
  151.0721  141.1125  159.8278 H   0  0  0  0  0  0  0  0  0  0  0  0
  152.8017  141.9111  157.4374 H   0  0  0  0  0  0  0  0  0  0  0  0
  151.1381  141.3801  157.3731 H   0  0  0  0  0  0  0  0  0  0  0  0
  151.3095  143.8651  157.2145 H   0  0  0  0  0  0  0  0  0  0  0  0
  150.3930  143.3768  158.6193 H   0  0  0  0  0  0  0  0  0  0  0  0
  153.3304  144.1956  158.5965 H   0  0  0  0  0  0  0  0  0  0  0  0
  150.9229  145.6403  159.8013 H   0  0  0  0  0  0  0  0  0  0  0  0
  151.7883  146.1243  158.3453 H   0  0  0  0  0  0  0  0  0  0  0  0
  152.6015  146.1659  159.9050 H   0  0  0  0  0  0  0  0  0  0  0  0
  151.6052  143.4403  160.9939 H   0  0  0  0  0  0  0  0  0  0  0  0
  153.2680  143.9730  161.0474 H   0  0  0  0  0  0  0  0  0  0  0  0
  1  2  1  0  0  0  0
  1 20  1  0  0  0  0
  1 21  1  0  0  0  0
  1 22  1  0  0  0  0
  2  7  1  0  0  0  0
  2  3  2  0  0  0  0
  3  4  1  0  0  0  0
  4  5  2  0  0  0  0
  4 23  1  0  0  0  0
  5  6  1  0  0  0  0
  5 24  1  0  0  0  0
  6  7  2  0  0  0  0
  6 25  1  0  0  0  0
  7  8  1  0  0  0  0
  8  9  1  0  0  0  0
  8 26  1  0  0  0  0
  9 10  2  0  0  0  0
  9 11  1  0  0  0  0
 11 12  1  0  0  0  0
 11 27  1  0  0  0  0
 11 28  1  0  0  0  0
 12 13  1  0  0  0  0
 13 19  1  0  0  0  0
 13 14  1  0  0  0  0
 13 29  1  0  0  0  0
 14 15  1  0  0  0  0
 14 30  1  0  0  0  0
 14 31  1  0  0  0  0
 15 16  1  0  0  0  0
 15 32  1  0  0  0  0
 15 33  1  0  0  0  0
 16 17  1  0  0  0  0
 16 34  1  0  0  0  0
 16 35  1  0  0  0  0
 17 18  1  0  0  0  0
 17 19  1  0  0  0  0
 17 36  1  0  0  0  0
 18 37  1  0  0  0  0
 18 38  1  0  0  0  0
 18 39  1  0  0  0  0
 19 40  1  0  0  0  0
 19 41  1  0  0  0  0
M  END
> <s_m_source_file>
AV-unprocessed.smi

> <i_m_source_file_index>
3044

> <i_lp_mmshare_version>
43012

> <i_f3d_flags>
0

> <s_epik_input>
W0NIM11jMW5bY0hdW2NIXVtjSF1jMVtOSF1DKD1PKVtDSDJdT1tDQEBIXTJbQ0gyXVtDSDJdW0NIMl1bQ0BASF0oW0NIM10pW0NIMl0y

> <s_epik_cmdline>
J2VwaWtfcHl0aG9uJywgJy1waCcsICc3LjAnLCAnLXRuJywgJzgnLCAnLW1hJywgJzIwMCcsICctbWV0YWxfYmluZGluZycsICctaW1hZScsICc8aW5maWxlLm1hZT4nLCAnLW9tYWUnLCAnPG91dGZpbGUubWFlPic=

> <r_epik_Ionization_Penalty>
0.0077122

> <r_epik_Ionization_Penalty_Charging>
0

> <r_epik_Ionization_Penalty_Neutral>
0.0077122

> <r_epik_State_Penalty>
0.00577497

> <r_epik_Charging_Adjusted_Penalty>
0.00577497

> <i_epik_Tot_Q>
0

> <i_epik_Tot_abs_Q>
0

> <r_epik_Metal_State_Penalty>
-0

> <b_epik_Metal_Only>
0

> <s_lp_Force_Field>
OPLS_2005

> <r_lp_Energy>
17.5643

> <b_lp_Chiralities_Consistent>
1

> <s_lp_Variant>
AV-unprocessed.smi:3044-2

> <Gold.Version>
5.8.1

> <Gold.Id.Protein>
6NUR|6NUR_protein|mol2

> <Gold.PLP.Fitness>
42.3490

> <Gold.PLP.PLP>
-45.0271

> <Gold.PLP.part.hbond>
-1.0000

> <Gold.PLP.part.metal>
0.0000

> <Gold.PLP.part.buried>
-0.8402

> <Gold.PLP.part.nonpolar>
-41.8554

> <Gold.PLP.part.repulsive>
0.2478

> <Gold.PLP.ligand.clash>
0.0000

> <Gold.PLP.ligand.torsion>
1.3439

> <Gold.PLP.Chemscore.Hbond>
0.0000

> <Gold.PLP.Chemscore.CHOScore>
0.0000

> <Gold.PLP.Chemscore.Metal>
0.0000

> <Gold.PLP.Chemscore.Internal.Correction>
0.0097

> <Gold.Rescore>
     Score         DG    S(hbond)    S(metal)    S(lipo)     H(rot)  DE(clash)    DE(int)     intcor
     15.65     -18.04       0.00        0.00     135.98       1.31       0.40       2.00       ----

> <Gold.Chemscore.Fitness>
15.6475

> <Gold.Chemscore.DG>
-18.0449

> <Gold.Chemscore.ZeroCoef>
-5.4800

> <Gold.Chemscore.Hbond>
0.0000

> <Gold.Chemscore.Metal>
0.0000

> <Gold.Chemscore.Lipo>
135.9758

> <Gold.Chemscore.Internal_Hbond>
0.0000

> <Gold.Chemscore.DEClash>
0.3966

> <Gold.Chemscore.DEInternal>
2.0007

> <Gold.Chemscore.Rot>
1.3064

> <Gold.Chemscore.Internal.Correction>
   9.000000E+99

> <Gold.Chemscore.Hbond.Weighted>
-0.0000

> <Gold.Chemscore.Metal.Weighted>
-0.0000

> <Gold.Chemscore.Lipo.Weighted>
-15.9092

> <Gold.Chemscore.Internal_Hbond.Weighted>
0.0000

> <Gold.Chemscore.DEClash.Weighted>
0.3966

> <Gold.Chemscore.DEInternal.Weighted>
2.0007

> <Gold.Chemscore.Rot.Weighted>
3.3443

> <Gold.Chemscore.Internal.Correction.Weighted>
   9.000000E+99

> <Gold.Protein.RotatedTorsions>
[ 6907 6896 6895 6894 ] final  159.41 input  -60.11 | X-H torsion
[ 7974 7965 7964 7962 ] final   74.41 input  175.53 | X-H torsion
[ 8008 7997 7996 7995 ] final -155.33 input   59.86 | X-H torsion
[ 10167 10162 10161 10158 ] final   97.74 input  -65.29 | X-H torsion
[ 10718 10713 10712 10709 ] final   36.73 input   66.30 | X-H torsion
[ 10763 10752 10751 10750 ] final  -58.55 input  -60.55 | X-H torsion
[ 11005 11000 10999 10996 ] final  -63.52 input  -57.11 | X-H torsion

> <Gold.Protein.ActiveResidues>
 VAL166  LYS551  ARG553  GLY616  TRP617  ASP618  TYR619  PRO620  LYS621  CYS622 
 ASP623  PHE694  ASN695  SER759  ASP760  ASP761  ALA762  ILE779  LEU786  VAL792 
 PHE793  MET794  SER795  GLU796  ALA797  LYS798  CYS799  TRP800  GLU811  SER814 

> <Gold.Protein.RotatedAtoms>
  151.9860  133.3774  159.4125 H   0  0  0  0  0  0  0  0  0  0  0  0  # atno 6907 bound_to 6896
  150.6928  134.3987  159.5118 H   0  0  0  0  0  0  0  0  0  0  0  0  # atno 6908 bound_to 6896
  152.1714  134.8831  160.0585 H   0  0  0  0  0  0  0  0  0  0  0  0  # atno 6909 bound_to 6896
  145.7286  139.2675  143.1554 H   0  0  0  0  0  0  0  0  0  0  0  0  # atno 7974 bound_to 7965
  155.7001  140.0766  157.2414 H   0  0  0  0  0  0  0  0  0  0  0  0  # atno 8008 bound_to 7997
  154.4074  140.1649  156.2234 H   0  0  0  0  0  0  0  0  0  0  0  0  # atno 8009 bound_to 7997
  155.9375  140.3387  155.6303 H   0  0  0  0  0  0  0  0  0  0  0  0  # atno 8010 bound_to 7997
  139.7773  144.6901  151.0072 H   0  0  0  0  0  0  0  0  0  0  0  0  # atno 10167 bound_to 10162
  157.3384  130.7534  149.6894 H   0  0  0  0  0  0  0  0  0  0  0  0  # atno 10718 bound_to 10713
  154.2399  135.6345  153.5203 H   0  0  0  0  0  0  0  0  0  0  0  0  # atno 10763 bound_to 10752
  152.9932  135.5539  154.5921 H   0  0  0  0  0  0  0  0  0  0  0  0  # atno 10764 bound_to 10752
  154.5424  135.2895  155.1057 H   0  0  0  0  0  0  0  0  0  0  0  0  # atno 10765 bound_to 10752
  141.1396  133.6653  156.5694 H   0  0  0  0  0  0  0  0  0  0  0  0  # atno 11005 bound_to 11000
  146.0559  140.8021  142.9759 LP  0  0  0  0  0  0  0  0  0  0  0  0  # atno 17320 bound_to 7965
  144.6898  140.3123  143.7246 LP  0  0  0  0  0  0  0  0  0  0  0  0  # atno 17321 bound_to 7965
  140.7817  143.4522  151.0396 LP  0  0  0  0  0  0  0  0  0  0  0  0  # atno 17342 bound_to 10162
  139.8204  143.7828  152.3176 LP  0  0  0  0  0  0  0  0  0  0  0  0  # atno 17343 bound_to 10162
  155.9704  130.4175  150.4282 LP  0  0  0  0  0  0  0  0  0  0  0  0  # atno 17370 bound_to 10713
  157.2325  131.0507  151.2484 LP  0  0  0  0  0  0  0  0  0  0  0  0  # atno 17371 bound_to 10713
  140.3925  134.7427  157.4730 LP  0  0  0  0  0  0  0  0  0  0  0  0  # atno 17394 bound_to 11000
  140.0555  134.6069  155.8810 LP  0  0  0  0  0  0  0  0  0  0  0  0  # atno 17395 bound_to 11000

$$$$
