AV-unprocessed.smi:694|AV-procd|sdf|3376|dock10
  -GOLD-   22720 0353D 1   1.00000     0.00000
 Structure written by MMmdl.
 43 44  0  0  0  0  0  0  0  0  2 V2000
  151.9533  142.2950  159.1349 C   0  0  0  0  0  0  0  0  0  0  0  0
  151.4786  142.8007  157.8517 N   0  0  0  0  0  0  0  0  0  0  0  0
  151.4635  144.2340  157.5890 C   0  0  0  0  0  0  0  0  0  0  0  0
  150.8868  141.9132  156.9266 C   0  0  0  0  0  0  0  0  0  0  0  0
  151.1680  140.5257  156.8930 C   0  0  0  0  0  0  0  0  0  0  0  0
  150.5392  139.7059  155.9335 C   0  0  0  0  0  0  0  0  0  0  0  0
  149.6310  140.2674  155.0117 C   0  0  0  0  0  0  0  0  0  0  0  0
  149.0396  139.3918  154.0583 N   0  0  0  0  0  0  0  0  0  0  0  0
  147.8222  139.4475  153.4891 C   0  0  0  0  0  0  0  0  0  0  0  0
  146.9440  140.2667  153.7562 O   0  0  0  0  0  0  0  0  0  0  0  0
  147.6707  138.4771  152.5768 N   0  0  0  0  0  0  0  0  0  0  0  0
  146.4748  138.2687  151.7665 C   0  0  0  0  0  0  0  0  0  0  0  0
  145.6837  137.0206  152.2066 C   0  0  2  0  0  0  0  0  0  0  0  0
  145.6981  135.8764  151.1789 C   0  0  0  0  0  0  0  0  0  0  0  0
  144.3588  135.1357  151.3274 C   0  0  0  0  0  0  0  0  0  0  0  0
  143.5594  135.8968  152.3900 C   0  0  0  0  0  0  0  0  0  0  0  0
  144.1919  137.2877  152.4349 C   0  0  1  0  0  0  0  0  0  0  0  0
  143.9442  137.9246  153.6713 O   0  0  0  0  0  0  0  0  0  0  0  0
  149.3815  141.6590  155.0877 C   0  0  0  0  0  0  0  0  0  0  0  0
  150.0062  142.4073  156.0226 N   0  3  0  0  0  0  0  0  0  0  0  0
  152.7257  141.5396  158.9868 H   0  0  0  0  0  0  0  0  0  0  0  0
  151.1331  141.8483  159.6978 H   0  0  0  0  0  0  0  0  0  0  0  0
  152.3810  143.0925  159.7430 H   0  0  0  0  0  0  0  0  0  0  0  0
  150.4404  144.5916  157.4697 H   0  0  0  0  0  0  0  0  0  0  0  0
  152.0228  144.4630  156.6813 H   0  0  0  0  0  0  0  0  0  0  0  0
  151.9179  144.7921  158.4079 H   0  0  0  0  0  0  0  0  0  0  0  0
  151.8590  140.0732  157.5885 H   0  0  0  0  0  0  0  0  0  0  0  0
  150.7593  138.6485  155.9085 H   0  0  0  0  0  0  0  0  0  0  0  0
  149.6286  138.6306  153.7539 H   0  0  0  0  0  0  0  0  0  0  0  0
  148.4401  137.8421  152.4215 H   0  0  0  0  0  0  0  0  0  0  0  0
  145.8388  139.1546  151.8075 H   0  0  0  0  0  0  0  0  0  0  0  0
  146.7865  138.1660  150.7266 H   0  0  0  0  0  0  0  0  0  0  0  0
  146.1057  136.6364  153.1374 H   0  0  0  0  0  0  0  0  0  0  0  0
  145.7782  136.2737  150.1661 H   0  0  0  0  0  0  0  0  0  0  0  0
  146.5497  135.2129  151.3335 H   0  0  0  0  0  0  0  0  0  0  0  0
  143.8253  135.1424  150.3763 H   0  0  0  0  0  0  0  0  0  0  0  0
  144.5006  134.0929  151.6132 H   0  0  0  0  0  0  0  0  0  0  0  0
  142.4916  135.9287  152.1703 H   0  0  0  0  0  0  0  0  0  0  0  0
  143.6824  135.3994  153.3536 H   0  0  0  0  0  0  0  0  0  0  0  0
  143.7900  137.8984  151.6249 H   0  0  0  0  0  0  0  0  0  0  0  0
  143.7309  138.8303  153.5064 H   0  0  0  0  0  0  0  0  0  0  0  0
  148.7188  142.2155  154.4434 H   0  0  0  0  0  0  0  0  0  0  0  0
  149.8044  143.4069  156.0465 H   0  0  0  0  0  0  0  0  0  0  0  0
  1  2  1  0  0  0  0
  1 21  1  0  0  0  0
  1 22  1  0  0  0  0
  1 23  1  0  0  0  0
  2  3  1  0  0  0  0
  2  4  1  0  0  0  0
  3 24  1  0  0  0  0
  3 25  1  0  0  0  0
  3 26  1  0  0  0  0
  4 20  1  0  0  0  0
  4  5  2  0  0  0  0
  5  6  1  0  0  0  0
  5 27  1  0  0  0  0
  6  7  2  0  0  0  0
  6 28  1  0  0  0  0
  7  8  1  0  0  0  0
  7 19  1  0  0  0  0
  8  9  1  0  0  0  0
  8 29  1  0  0  0  0
  9 10  2  0  0  0  0
  9 11  1  0  0  0  0
 11 12  1  0  0  0  0
 11 30  1  0  0  0  0
 12 13  1  0  0  0  0
 12 31  1  0  0  0  0
 12 32  1  0  0  0  0
 13 17  1  0  0  0  0
 13 14  1  0  0  0  0
 13 33  1  0  0  0  0
 14 15  1  0  0  0  0
 14 34  1  0  0  0  0
 14 35  1  0  0  0  0
 15 16  1  0  0  0  0
 15 36  1  0  0  0  0
 15 37  1  0  0  0  0
 16 17  1  0  0  0  0
 16 38  1  0  0  0  0
 16 39  1  0  0  0  0
 17 18  1  0  0  0  0
 17 40  1  0  0  0  0
 18 41  1  0  0  0  0
 19 20  2  0  0  0  0
 19 42  1  0  0  0  0
 20 43  1  0  0  0  0
M  CHG  1  20   1
M  END
> <s_m_source_file>
AV-unprocessed.smi

> <i_m_source_file_index>
694

> <i_lp_mmshare_version>
43012

> <i_f3d_flags>
0

> <s_epik_input>
W0NIM11OKFtDSDNdKWMxW2NIXVtjSF1jKFtjSF1uMSlbTkhdQyg9TylbTkhdW0NIMl1bQ0BASF0yW0NIMl1bQ0gyXVtDSDJdW0NASF0yW09IXQ==

> <s_epik_cmdline>
J2VwaWtfcHl0aG9uJywgJy1waCcsICc3LjAnLCAnLXRuJywgJzgnLCAnLW1hJywgJzIwMCcsICctbWV0YWxfYmluZGluZycsICctaW1hZScsICc8aW5maWxlLm1hZT4nLCAnLW9tYWUnLCAnPG91dGZpbGUubWFlPic=

> <r_lp_tautomer_probability>
0.999994

> <r_epik_Ionization_Penalty>
0.266135

> <r_epik_Ionization_Penalty_Charging>
0.266113

> <r_epik_Ionization_Penalty_Neutral>
2.14137e-05

> <r_epik_State_Penalty>
0.258052

> <r_epik_Charging_Adjusted_Penalty>
0.524165

> <i_epik_Tot_Q>
1

> <i_epik_Tot_abs_Q>
1

> <r_epik_Metal_State_Penalty>
0.544313

> <b_epik_Metal_Only>
0

> <s_lp_Force_Field>
OPLS_2005

> <r_lp_Energy>
32.5934

> <b_lp_Chiralities_Consistent>
1

> <s_lp_Variant>
AV-unprocessed.smi:694-1

> <Gold.Version>
5.8.1

> <Gold.Id.Protein>
6NUR|6NUR_protein|mol2

> <Gold.PLP.Fitness>
49.3702

> <Gold.PLP.PLP>
-39.7705

> <Gold.PLP.part.hbond>
-5.0000

> <Gold.PLP.part.metal>
0.0000

> <Gold.PLP.part.buried>
-0.4470

> <Gold.PLP.part.nonpolar>
-35.8203

> <Gold.PLP.part.repulsive>
0.4479

> <Gold.PLP.ligand.clash>
0.0000

> <Gold.PLP.ligand.torsion>
1.2005

> <Gold.PLP.Chemscore.Hbond>
3.9920

> <Gold.PLP.Chemscore.CHOScore>
0.0000

> <Gold.PLP.Chemscore.Metal>
0.0000

> <Gold.Chemscore.Hbonds>
donor molecule, donor type, donor heavy atom, donor atom, acceptor molecule, acceptor atom, score
      L1  H    11    30       P1  7948  0.96
      L1  H    18    41       P1 10175  1.00
      L1  H    20    43       P1  8028  2.00

> <Gold.PLP.Chemscore.Internal.Correction>
0.0246

> <Gold.Rescore>
     Score         DG    S(hbond)    S(metal)    S(lipo)     H(rot)  DE(clash)    DE(int)     intcor
     18.97     -20.19       2.90        0.00      81.17       1.75       0.27       0.95       ----

> <Gold.Chemscore.Fitness>
18.9671

> <Gold.Chemscore.DG>
-20.1873

> <Gold.Chemscore.ZeroCoef>
-5.4800

> <Gold.Chemscore.Hbond>
2.9000

> <Gold.Chemscore.Metal>
0.0000

> <Gold.Chemscore.Lipo>
81.1747

> <Gold.Chemscore.Internal_Hbond>
0.0000

> <Gold.Chemscore.DEClash>
0.2730

> <Gold.Chemscore.DEInternal>
0.9472

> <Gold.Chemscore.Rot>
1.7485

> <Gold.Chemscore.Internal.Correction>
   9.000000E+99

> <Gold.Chemscore.Hbonds>
donor molecule, donor type, donor heavy atom, donor atom, acceptor molecule, acceptor atom, score
      L1  H    11    30       P1  7948  0.92
      L1  H    18    41       P1 10175  0.98
      L1  H    20    43       P1  8028  0.97

> <Gold.Chemscore.Hbond.Weighted>
-9.6860

> <Gold.Chemscore.Metal.Weighted>
-0.0000

> <Gold.Chemscore.Lipo.Weighted>
-9.4974

> <Gold.Chemscore.Internal_Hbond.Weighted>
0.0000

> <Gold.Chemscore.DEClash.Weighted>
0.2730

> <Gold.Chemscore.DEInternal.Weighted>
0.9472

> <Gold.Chemscore.Rot.Weighted>
4.4762

> <Gold.Chemscore.Internal.Correction.Weighted>
   9.000000E+99

> <Gold.Protein.RotatedTorsions>
[ 6907 6896 6895 6894 ] final  -32.39 input  -60.11 | X-H torsion
[ 7974 7965 7964 7962 ] final  -54.78 input  175.53 | X-H torsion
[ 8008 7997 7996 7995 ] final -145.03 input   59.86 | X-H torsion
[ 10167 10162 10161 10158 ] final  112.17 input  -65.29 | X-H torsion
[ 10718 10713 10712 10709 ] final -178.54 input   66.30 | X-H torsion
[ 10763 10752 10751 10750 ] final -113.28 input  -60.55 | X-H torsion
[ 11005 11000 10999 10996 ] final   79.19 input  -57.11 | X-H torsion

> <Gold.Protein.ActiveResidues>
 VAL166  LYS551  ARG553  GLY616  TRP617  ASP618  TYR619  PRO620  LYS621  CYS622 
 ASP623  PHE694  ASN695  SER759  ASP760  ASP761  ALA762  ILE779  LEU786  VAL792 
 PHE793  MET794  SER795  GLU796  ALA797  LYS798  CYS799  TRP800  GLU811  SER814 

> <Gold.Protein.RotatedAtoms>
  151.0794  134.9848  159.8348 H   0  0  0  0  0  0  0  0  0  0  0  0  # atno 6907 bound_to 6896
  152.5418  134.2201  159.8794 H   0  0  0  0  0  0  0  0  0  0  0  0  # atno 6908 bound_to 6896
  151.2230  133.4448  159.2635 H   0  0  0  0  0  0  0  0  0  0  0  0  # atno 6909 bound_to 6896
  145.8817  140.8139  142.9836 H   0  0  0  0  0  0  0  0  0  0  0  0  # atno 7974 bound_to 7965
  155.5366  140.0604  157.2878 H   0  0  0  0  0  0  0  0  0  0  0  0  # atno 8008 bound_to 7997
  154.4466  140.1926  156.0593 H   0  0  0  0  0  0  0  0  0  0  0  0  # atno 8009 bound_to 7997
  156.0614  140.3272  155.7470 H   0  0  0  0  0  0  0  0  0  0  0  0  # atno 8010 bound_to 7997
  139.6556  144.7129  151.1963 H   0  0  0  0  0  0  0  0  0  0  0  0  # atno 10167 bound_to 10162
  156.8458  130.9702  151.3096 H   0  0  0  0  0  0  0  0  0  0  0  0  # atno 10718 bound_to 10713
  154.8389  135.4460  154.1325 H   0  0  0  0  0  0  0  0  0  0  0  0  # atno 10763 bound_to 10752
  153.2531  135.6928  153.7664 H   0  0  0  0  0  0  0  0  0  0  0  0  # atno 10764 bound_to 10752
  153.6968  135.3378  155.3191 H   0  0  0  0  0  0  0  0  0  0  0  0  # atno 10765 bound_to 10752
  139.9182  134.7823  156.1746 H   0  0  0  0  0  0  0  0  0  0  0  0  # atno 11005 bound_to 11000
  144.6727  140.1394  143.7438 LP  0  0  0  0  0  0  0  0  0  0  0  0  # atno 17320 bound_to 7965
  145.9016  139.2433  143.1490 LP  0  0  0  0  0  0  0  0  0  0  0  0  # atno 17321 bound_to 7965
  140.7557  143.6078  150.8636 LP  0  0  0  0  0  0  0  0  0  0  0  0  # atno 17342 bound_to 10162
  139.9730  143.6035  152.2967 LP  0  0  0  0  0  0  0  0  0  0  0  0  # atno 17343 bound_to 10162
  157.6331  130.8745  149.9309 LP  0  0  0  0  0  0  0  0  0  0  0  0  # atno 17370 bound_to 10713
  156.0855  130.3668  150.0495 LP  0  0  0  0  0  0  0  0  0  0  0  0  # atno 17371 bound_to 10713
  141.0679  133.6810  156.2081 LP  0  0  0  0  0  0  0  0  0  0  0  0  # atno 17394 bound_to 11000
  140.6555  134.5023  157.5580 LP  0  0  0  0  0  0  0  0  0  0  0  0  # atno 17395 bound_to 11000

$$$$
