AV-unprocessed.smi:2293|AV-procd|sdf|9215|dock3
  -GOLD-   2272012433D 1   1.00000     0.00000
 Structure written by MMmdl.
 34 35  0  0  0  0  0  0  0  0  1 V2000
  145.4615  140.3440  155.3746 C   0  0  0  0  0  0  0  0  0  0  0  0
  146.9512  140.6018  155.5155 C   0  0  0  0  0  0  0  0  0  0  0  0
  147.3279  141.3781  156.6150 N   0  0  0  0  0  0  0  0  0  0  0  0
  148.5761  141.6481  156.8158 C   0  0  0  0  0  0  0  0  0  0  0  0
  149.5814  141.1824  155.9515 N   0  0  0  0  0  0  0  0  0  0  0  0
  150.9643  141.5558  156.2969 C   0  0  0  0  0  0  0  0  0  0  0  0
  151.5021  140.7633  157.5102 C   0  0  1  0  0  0  0  0  0  0  0  0
  152.5622  139.9311  157.0837 O   0  0  0  0  0  0  0  0  0  0  0  0
  151.9566  141.7030  158.6167 C   0  0  0  0  0  0  0  0  0  0  0  0
  152.5585  141.1946  159.7894 C   0  0  0  0  0  0  0  0  0  0  0  0
  152.9819  142.0706  160.8077 C   0  0  0  0  0  0  0  0  0  0  0  0
  152.8085  143.4600  160.6590 C   0  0  0  0  0  0  0  0  0  0  0  0
  152.2137  143.9730  159.4904 C   0  0  0  0  0  0  0  0  0  0  0  0
  152.0495  145.3091  159.3452 F   0  0  0  0  0  0  0  0  0  0  0  0
  151.7898  143.0972  158.4718 C   0  0  0  0  0  0  0  0  0  0  0  0
  149.3007  140.4190  154.8561 C   0  0  0  0  0  0  0  0  0  0  0  0
  150.1879  140.0135  154.1030 O   0  0  0  0  0  0  0  0  0  0  0  0
  147.8759  140.1177  154.6418 C   0  0  0  0  0  0  0  0  0  0  0  0
  147.5240  139.2663  153.4282 C   0  0  0  0  0  0  0  0  0  0  0  0
  145.2535  139.2747  155.4161 H   0  0  0  0  0  0  0  0  0  0  0  0
  145.0942  140.7351  154.4256 H   0  0  0  0  0  0  0  0  0  0  0  0
  144.8975  140.8251  156.1746 H   0  0  0  0  0  0  0  0  0  0  0  0
  148.9239  142.2438  157.6616 H   0  0  0  0  0  0  0  0  0  0  0  0
  151.6407  141.4627  155.4450 H   0  0  0  0  0  0  0  0  0  0  0  0
  150.9815  142.6218  156.5338 H   0  0  0  0  0  0  0  0  0  0  0  0
  150.7191  140.1177  157.9104 H   0  0  0  0  0  0  0  0  0  0  0  0
  152.4062  139.0566  157.4065 H   0  0  0  0  0  0  0  0  0  0  0  0
  152.6987  140.1301  159.9101 H   0  0  0  0  0  0  0  0  0  0  0  0
  153.4407  141.6765  161.7026 H   0  0  0  0  0  0  0  0  0  0  0  0
  153.1327  144.1318  161.4401 H   0  0  0  0  0  0  0  0  0  0  0  0
  151.3363  143.5016  157.5787 H   0  0  0  0  0  0  0  0  0  0  0  0
  147.8436  139.7663  152.5133 H   0  0  0  0  0  0  0  0  0  0  0  0
  146.4578  139.0670  153.3374 H   0  0  0  0  0  0  0  0  0  0  0  0
  148.0328  138.3035  153.4838 H   0  0  0  0  0  0  0  0  0  0  0  0
  1  2  1  0  0  0  0
  1 20  1  0  0  0  0
  1 21  1  0  0  0  0
  1 22  1  0  0  0  0
  2 18  2  0  0  0  0
  2  3  1  0  0  0  0
  3  4  2  0  0  0  0
  4  5  1  0  0  0  0
  4 23  1  0  0  0  0
  5  6  1  0  0  0  0
  5 16  1  0  0  0  0
  6  7  1  0  0  0  0
  6 24  1  0  0  0  0
  6 25  1  0  0  0  0
  7  8  1  0  0  0  0
  7  9  1  0  0  0  0
  7 26  1  0  0  0  0
  8 27  1  0  0  0  0
  9 15  1  0  0  0  0
  9 10  2  0  0  0  0
 10 11  1  0  0  0  0
 10 28  1  0  0  0  0
 11 12  2  0  0  0  0
 11 29  1  0  0  0  0
 12 13  1  0  0  0  0
 12 30  1  0  0  0  0
 13 14  1  0  0  0  0
 13 15  2  0  0  0  0
 15 31  1  0  0  0  0
 16 17  2  0  0  0  0
 16 18  1  0  0  0  0
 18 19  1  0  0  0  0
 19 32  1  0  0  0  0
 19 33  1  0  0  0  0
 19 34  1  0  0  0  0
M  END
> <s_m_source_file>
AV-unprocessed.smi

> <i_m_source_file_index>
2293

> <i_lp_mmshare_version>
43012

> <i_f3d_flags>
0

> <s_epik_input>
W0NIM11jMW5bY0hdbihjKD1PKWMxW0NIM10pW0NIMl1bQ0BIXShbT0hdKWMyW2NIXVtjSF1bY0hdYyhGKVtjSF0y

> <s_epik_cmdline>
J2VwaWtfcHl0aG9uJywgJy1waCcsICc3LjAnLCAnLXRuJywgJzgnLCAnLW1hJywgJzIwMCcsICctbWV0YWxfYmluZGluZycsICctaW1hZScsICc8aW5maWxlLm1hZT4nLCAnLW9tYWUnLCAnPG91dGZpbGUubWFlPic=

> <r_lp_tautomer_probability>
1

> <r_epik_Ionization_Penalty>
5.08222e-05

> <r_epik_Ionization_Penalty_Charging>
7.56727e-08

> <r_epik_Ionization_Penalty_Neutral>
5.07465e-05

> <r_epik_State_Penalty>
-0

> <r_epik_Charging_Adjusted_Penalty>
7.56727e-08

> <i_epik_Tot_Q>
0

> <i_epik_Tot_abs_Q>
0

> <r_epik_Metal_State_Penalty>
-0

> <b_epik_Metal_Only>
0

> <s_lp_Force_Field>
OPLS_2005

> <r_lp_Energy>
19.6901

> <b_lp_Chiralities_Consistent>
1

> <s_lp_Variant>
AV-unprocessed.smi:2293-2

> <Gold.Version>
5.8.1

> <Gold.Id.Protein>
6NUR|6NUR_protein|mol2

> <Gold.PLP.Fitness>
42.7149

> <Gold.PLP.PLP>
-38.5839

> <Gold.PLP.part.hbond>
-2.0000

> <Gold.PLP.part.metal>
0.0000

> <Gold.PLP.part.buried>
-5.3647

> <Gold.PLP.part.nonpolar>
-32.3362

> <Gold.PLP.part.repulsive>
1.0578

> <Gold.PLP.ligand.clash>
0.0000

> <Gold.PLP.ligand.torsion>
0.9427

> <Gold.PLP.Chemscore.Hbond>
2.0000

> <Gold.PLP.Chemscore.CHOScore>
0.0000

> <Gold.PLP.Chemscore.Metal>
0.0000

> <Gold.Chemscore.Hbonds>
donor molecule, donor type, donor heavy atom, donor atom, acceptor molecule, acceptor atom, score
      P1  H  7989  7998       L1    17  1.00
      P1  H  7997  8010       L1     8  1.00

> <Gold.PLP.Chemscore.Internal.Correction>
0.0163

> <Gold.Rescore>
     Score         DG    S(hbond)    S(metal)    S(lipo)     H(rot)  DE(clash)    DE(int)     intcor
     16.53     -17.65       1.91        0.00      93.57       2.02       0.13       0.99       ----

> <Gold.Chemscore.Fitness>
16.5290

> <Gold.Chemscore.DG>
-17.6462

> <Gold.Chemscore.ZeroCoef>
-5.4800

> <Gold.Chemscore.Hbond>
1.9115

> <Gold.Chemscore.Metal>
0.0000

> <Gold.Chemscore.Lipo>
93.5737

> <Gold.Chemscore.Internal_Hbond>
0.0000

> <Gold.Chemscore.DEClash>
0.1265

> <Gold.Chemscore.DEInternal>
0.9907

> <Gold.Chemscore.Rot>
2.0181

> <Gold.Chemscore.Internal.Correction>
   9.000000E+99

> <Gold.Chemscore.Hbonds>
donor molecule, donor type, donor heavy atom, donor atom, acceptor molecule, acceptor atom, score
      P1  H  7989  7998       L1    17  0.94
      P1  H  7997  8010       L1     8  0.70

> <Gold.Chemscore.Hbond.Weighted>
-6.3844

> <Gold.Chemscore.Metal.Weighted>
-0.0000

> <Gold.Chemscore.Lipo.Weighted>
-10.9481

> <Gold.Chemscore.Internal_Hbond.Weighted>
0.0000

> <Gold.Chemscore.DEClash.Weighted>
0.1265

> <Gold.Chemscore.DEInternal.Weighted>
0.9907

> <Gold.Chemscore.Rot.Weighted>
5.1663

> <Gold.Chemscore.Internal.Correction.Weighted>
   9.000000E+99

> <Gold.Protein.RotatedTorsions>
[ 6907 6896 6895 6894 ] final  -91.03 input  -60.11 | X-H torsion
[ 7974 7965 7964 7962 ] final   -5.66 input  175.53 | X-H torsion
[ 8008 7997 7996 7995 ] final   58.67 input   59.86 | X-H torsion
[ 10167 10162 10161 10158 ] final -136.79 input  -65.29 | X-H torsion
[ 10718 10713 10712 10709 ] final  167.77 input   66.30 | X-H torsion
[ 10763 10752 10751 10750 ] final   85.92 input  -60.55 | X-H torsion
[ 11005 11000 10999 10996 ] final  -48.45 input  -57.11 | X-H torsion

> <Gold.Protein.ActiveResidues>
 VAL166  LYS551  ARG553  GLY616  TRP617  ASP618  TYR619  PRO620  LYS621  CYS622 
 ASP623  PHE694  ASN695  SER759  ASP760  ASP761  ALA762  ILE779  LEU786  VAL792 
 PHE793  MET794  SER795  GLU796  ALA797  LYS798  CYS799  TRP800  GLU811  SER814 

> <Gold.Protein.RotatedAtoms>
  150.6888  134.2339  159.4445 H   0  0  0  0  0  0  0  0  0  0  0  0  # atno 6907 bound_to 6896
  152.0288  134.9777  160.0581 H   0  0  0  0  0  0  0  0  0  0  0  0  # atno 6908 bound_to 6896
  152.1325  133.4381  159.4764 H   0  0  0  0  0  0  0  0  0  0  0  0  # atno 6909 bound_to 6896
  146.2348  140.2054  142.8334 H   0  0  0  0  0  0  0  0  0  0  0  0  # atno 7974 bound_to 7965
  155.5538  140.3487  155.4475 H   0  0  0  0  0  0  0  0  0  0  0  0  # atno 8008 bound_to 7997
  156.0564  140.1329  157.0018 H   0  0  0  0  0  0  0  0  0  0  0  0  # atno 8009 bound_to 7997
  154.4458  140.0994  156.6436 H   0  0  0  0  0  0  0  0  0  0  0  0  # atno 8010 bound_to 7997
  139.8642  143.7038  152.2647 H   0  0  0  0  0  0  0  0  0  0  0  0  # atno 10167 bound_to 10162
  157.0468  131.0302  151.2694 H   0  0  0  0  0  0  0  0  0  0  0  0  # atno 10718 bound_to 10713
  153.1520  135.4599  154.9650 H   0  0  0  0  0  0  0  0  0  0  0  0  # atno 10763 bound_to 10752
  154.7832  135.3195  154.7946 H   0  0  0  0  0  0  0  0  0  0  0  0  # atno 10764 bound_to 10752
  153.8450  135.6926  153.4853 H   0  0  0  0  0  0  0  0  0  0  0  0  # atno 10765 bound_to 10752
  141.0701  133.6681  156.3443 H   0  0  0  0  0  0  0  0  0  0  0  0  # atno 11005 bound_to 11000
  144.9749  140.8404  143.5433 LP  0  0  0  0  0  0  0  0  0  0  0  0  # atno 17320 bound_to 7965
  145.2040  139.2237  143.5178 LP  0  0  0  0  0  0  0  0  0  0  0  0  # atno 17321 bound_to 7965
  139.7344  144.7574  151.0750 LP  0  0  0  0  0  0  0  0  0  0  0  0  # atno 17342 bound_to 10162
  140.7770  143.5048  150.9726 LP  0  0  0  0  0  0  0  0  0  0  0  0  # atno 17343 bound_to 10162
  157.5061  130.7910  149.7656 LP  0  0  0  0  0  0  0  0  0  0  0  0  # atno 17370 bound_to 10713
  156.0020  130.3875  150.2569 LP  0  0  0  0  0  0  0  0  0  0  0  0  # atno 17371 bound_to 10713
  140.5690  134.5859  157.5453 LP  0  0  0  0  0  0  0  0  0  0  0  0  # atno 17394 bound_to 11000
  139.9515  134.7608  156.0437 LP  0  0  0  0  0  0  0  0  0  0  0  0  # atno 17395 bound_to 11000

$$$$
