AV-unprocessed.smi:1683|AV-procd|sdf|6750|dock5
  -GOLD-   22720 7503D 1   1.00000     0.00000
 Structure written by MMmdl.
 37 38  0  0  0  0  0  0  0  0  2 V2000
  149.4503  135.6442  156.4212 O   0  0  0  0  0  0  0  0  0  0  0  0
  149.2441  135.7596  155.2128 C   0  0  0  0  0  0  0  0  0  0  0  0
  148.6346  134.8209  154.4747 N   0  0  0  0  0  0  0  0  0  0  0  0
  148.1492  133.5437  154.9869 C   0  0  0  0  0  0  0  0  0  0  0  0
  147.6635  132.6141  153.8585 C   0  0  1  0  0  0  0  0  0  0  0  0
  146.5950  131.6058  154.2728 C   0  0  0  0  0  0  0  0  0  0  0  0
  145.9785  131.2093  152.9341 C   0  0  0  0  0  0  0  0  0  0  0  0
  145.9946  132.4380  152.1078 N   0  3  2  0  0  0  0  0  0  0  0  0
  146.1342  132.2143  150.6472 C   0  0  0  0  0  0  0  0  0  0  0  0
  145.3493  133.2372  149.8061 C   0  0  0  0  0  0  0  0  0  0  0  0
  144.1560  133.4332  150.3648 F   0  0  0  0  0  0  0  0  0  0  0  0
  145.9843  134.4073  149.7491 F   0  0  0  0  0  0  0  0  0  0  0  0
  145.1709  132.7721  148.5697 F   0  0  0  0  0  0  0  0  0  0  0  0
  147.0111  133.3529  152.6827 C   0  0  0  0  0  0  0  0  0  0  0  0
  149.5861  136.8241  154.4683 N   0  0  0  0  0  0  0  0  0  0  0  0
  150.2672  137.9909  154.8988 C   0  0  0  0  0  0  0  0  0  0  0  0
  150.3132  139.2144  154.1767 C   0  0  0  0  0  0  0  0  0  0  0  0
  151.0266  140.1285  154.8185 N   0  0  0  0  0  0  0  0  0  0  0  0
  151.4382  139.4997  155.9425 N   0  0  0  0  0  0  0  0  0  0  0  0
  151.0007  138.1968  156.0335 C   0  0  0  0  0  0  0  0  0  0  0  0
  152.0122  139.9670  156.6300 H   0  0  0  0  0  0  0  0  0  0  0  0
  148.5067  134.9973  153.4888 H   0  0  0  0  0  0  0  0  0  0  0  0
  148.9609  133.0705  155.5402 H   0  0  0  0  0  0  0  0  0  0  0  0
  147.3469  133.7150  155.7067 H   0  0  0  0  0  0  0  0  0  0  0  0
  148.5148  132.0557  153.4644 H   0  0  0  0  0  0  0  0  0  0  0  0
  147.0025  130.7538  154.8178 H   0  0  0  0  0  0  0  0  0  0  0  0
  145.8439  132.0842  154.9033 H   0  0  0  0  0  0  0  0  0  0  0  0
  146.5946  130.4378  152.4692 H   0  0  0  0  0  0  0  0  0  0  0  0
  144.9690  130.8127  153.0451 H   0  0  0  0  0  0  0  0  0  0  0  0
  147.1905  132.3057  150.3894 H   0  0  0  0  0  0  0  0  0  0  0  0
  145.8404  131.1948  150.3920 H   0  0  0  0  0  0  0  0  0  0  0  0
  146.4947  134.2503  153.0254 H   0  0  0  0  0  0  0  0  0  0  0  0
  147.7612  133.6662  151.9546 H   0  0  0  0  0  0  0  0  0  0  0  0
  149.3405  136.7955  153.4896 H   0  0  0  0  0  0  0  0  0  0  0  0
  149.8618  139.4647  153.2278 H   0  0  0  0  0  0  0  0  0  0  0  0
  151.2478  137.5613  156.8710 H   0  0  0  0  0  0  0  0  0  0  0  0
  145.1051  132.8954  152.2491 H   0  0  0  0  0  0  0  0  0  0  0  0
  1  2  2  0  0  0  0
  2  3  1  0  0  0  0
  2 15  1  0  0  0  0
  3  4  1  0  0  0  0
  3 22  1  0  0  0  0
  4  5  1  0  0  0  0
  4 23  1  0  0  0  0
  4 24  1  0  0  0  0
  5 14  1  0  0  0  0
  5  6  1  0  0  0  0
  5 25  1  0  0  0  0
  6  7  1  0  0  0  0
  6 26  1  0  0  0  0
  6 27  1  0  0  0  0
  7  8  1  0  0  0  0
  7 28  1  0  0  0  0
  7 29  1  0  0  0  0
  8  9  1  0  0  0  0
  8 14  1  0  0  0  0
  8 37  1  0  0  0  0
  9 10  1  0  0  0  0
  9 30  1  0  0  0  0
  9 31  1  0  0  0  0
 10 11  1  0  0  0  0
 10 12  1  0  0  0  0
 10 13  1  0  0  0  0
 14 32  1  0  0  0  0
 14 33  1  0  0  0  0
 15 16  1  0  0  0  0
 15 34  1  0  0  0  0
 16 20  2  0  0  0  0
 16 17  1  0  0  0  0
 17 18  2  0  0  0  0
 17 35  1  0  0  0  0
 18 19  1  0  0  0  0
 19 21  1  0  0  0  0
 19 20  1  0  0  0  0
 20 36  1  0  0  0  0
M  CHG  1   8   1
M  END
> <s_m_source_file>
AV-unprocessed.smi

> <i_m_source_file_index>
1683

> <i_lp_mmshare_version>
43012

> <i_f3d_flags>
0

> <s_epik_input>
W2NIXTFbbkhdbltjSF1jMVtOSF1DKD1PKVtOSF1bQ0gyXVtDQEBIXTJbQ0gyXVtDSDJdTihbQ0gyXTIpW0NIMl1DKEYpKEYpRg==

> <s_epik_cmdline>
J2VwaWtfcHl0aG9uJywgJy1waCcsICc3LjAnLCAnLXRuJywgJzgnLCAnLW1hJywgJzIwMCcsICctbWV0YWxfYmluZGluZycsICctaW1hZScsICc8aW5maWxlLm1hZT4nLCAnLW9tYWUnLCAnPG91dGZpbGUubWFlPic=

> <r_lp_tautomer_probability>
0.5

> <r_epik_Ionization_Penalty>
0.641865

> <r_epik_Ionization_Penalty_Charging>
0.64182

> <r_epik_Ionization_Penalty_Neutral>
4.50685e-05

> <r_epik_State_Penalty>
0.65957

> <r_epik_Charging_Adjusted_Penalty>
1.30139

> <i_epik_Tot_Q>
1

> <i_epik_Tot_abs_Q>
1

> <r_epik_Metal_State_Penalty>
0.659571

> <b_epik_Metal_Only>
0

> <s_lp_Force_Field>
OPLS_2005

> <r_lp_Energy>
31.4735

> <b_lp_Chiralities_Consistent>
1

> <s_lp_Variant>
AV-unprocessed.smi:1683-4

> <Gold.Version>
5.8.1

> <Gold.Id.Protein>
6NUR|6NUR_protein|mol2

> <Gold.PLP.Fitness>
48.4973

> <Gold.PLP.PLP>
-38.8069

> <Gold.PLP.part.hbond>
-4.3524

> <Gold.PLP.part.metal>
0.0000

> <Gold.PLP.part.buried>
-4.0342

> <Gold.PLP.part.nonpolar>
-30.7697

> <Gold.PLP.part.repulsive>
0.3979

> <Gold.PLP.ligand.clash>
0.0000

> <Gold.PLP.ligand.torsion>
1.0434

> <Gold.PLP.Chemscore.Hbond>
2.7752

> <Gold.PLP.Chemscore.CHOScore>
1.0000

> <Gold.PLP.Chemscore.Metal>
0.0000

> <Gold.Chemscore.Hbonds>
donor molecule, donor type, donor heavy atom, donor atom, acceptor molecule, acceptor atom, score
      L1  H     3    22       P1  7948  0.87
      L1  H    15    34       P1  7948  1.00
      P1  H  7989  7998       L1    18  0.85
      L1  C    17    35       P1  7957  1.00

> <Gold.PLP.Chemscore.Internal.Correction>
0.4517

> <Gold.Rescore>
     Score         DG    S(hbond)    S(metal)    S(lipo)     H(rot)  DE(clash)    DE(int)     intcor
     11.58     -12.61       1.53        0.00      56.75       1.81       0.05       0.98       ----

> <Gold.Chemscore.Fitness>
11.5757

> <Gold.Chemscore.DG>
-12.6055

> <Gold.Chemscore.ZeroCoef>
-5.4800

> <Gold.Chemscore.Hbond>
1.5341

> <Gold.Chemscore.Metal>
0.0000

> <Gold.Chemscore.Lipo>
56.7460

> <Gold.Chemscore.Internal_Hbond>
0.0000

> <Gold.Chemscore.DEClash>
0.0502

> <Gold.Chemscore.DEInternal>
0.9796

> <Gold.Chemscore.Rot>
1.8116

> <Gold.Chemscore.Internal.Correction>
   9.000000E+99

> <Gold.Chemscore.Hbonds>
donor molecule, donor type, donor heavy atom, donor atom, acceptor molecule, acceptor atom, score
      L1  H     3    22       P1  7948  0.66
      L1  H    15    34       P1  7948  0.94
      P1  H  7989  7998       L1    18  0.15

> <Gold.Chemscore.Hbond.Weighted>
-5.1240

> <Gold.Chemscore.Metal.Weighted>
-0.0000

> <Gold.Chemscore.Lipo.Weighted>
-6.6393

> <Gold.Chemscore.Internal_Hbond.Weighted>
0.0000

> <Gold.Chemscore.DEClash.Weighted>
0.0502

> <Gold.Chemscore.DEInternal.Weighted>
0.9796

> <Gold.Chemscore.Rot.Weighted>
4.6378

> <Gold.Chemscore.Internal.Correction.Weighted>
   9.000000E+99

> <Gold.Protein.RotatedTorsions>
[ 6907 6896 6895 6894 ] final  156.93 input  -60.11 | X-H torsion
[ 7974 7965 7964 7962 ] final -166.33 input  175.53 | X-H torsion
[ 8008 7997 7996 7995 ] final  -31.97 input   59.86 | X-H torsion
[ 10167 10162 10161 10158 ] final  -36.44 input  -65.29 | X-H torsion
[ 10718 10713 10712 10709 ] final  -63.05 input   66.30 | X-H torsion
[ 10763 10752 10751 10750 ] final  -10.19 input  -60.55 | X-H torsion
[ 11005 11000 10999 10996 ] final -177.06 input  -57.11 | X-H torsion

> <Gold.Protein.ActiveResidues>
 VAL166  LYS551  ARG553  GLY616  TRP617  ASP618  TYR619  PRO620  LYS621  CYS622 
 ASP623  PHE694  ASN695  SER759  ASP760  ASP761  ALA762  ILE779  LEU786  VAL792 
 PHE793  MET794  SER795  GLU796  ALA797  LYS798  CYS799  TRP800  GLU811  SER814 

> <Gold.Protein.RotatedAtoms>
  152.0225  133.3904  159.4263 H   0  0  0  0  0  0  0  0  0  0  0  0  # atno 6907 bound_to 6896
  150.6889  134.3610  159.4960 H   0  0  0  0  0  0  0  0  0  0  0  0  # atno 6908 bound_to 6896
  152.1386  134.9080  160.0605 H   0  0  0  0  0  0  0  0  0  0  0  0  # atno 6909 bound_to 6896
  144.7248  140.2682  143.6254 H   0  0  0  0  0  0  0  0  0  0  0  0  # atno 7974 bound_to 7965
  154.4195  140.1750  156.1652 H   0  0  0  0  0  0  0  0  0  0  0  0  # atno 8008 bound_to 7997
  155.9806  140.3378  155.6635 H   0  0  0  0  0  0  0  0  0  0  0  0  # atno 8009 bound_to 7997
  155.6505  140.0690  157.2579 H   0  0  0  0  0  0  0  0  0  0  0  0  # atno 8010 bound_to 7997
  140.7142  143.3408  151.2361 H   0  0  0  0  0  0  0  0  0  0  0  0  # atno 10167 bound_to 10162
  156.0816  130.4216  150.1222 H   0  0  0  0  0  0  0  0  0  0  0  0  # atno 10718 bound_to 10713
  153.4656  135.7016  153.6024 H   0  0  0  0  0  0  0  0  0  0  0  0  # atno 10763 bound_to 10752
  153.4300  135.3805  155.2164 H   0  0  0  0  0  0  0  0  0  0  0  0  # atno 10764 bound_to 10752
  154.8726  135.3948  154.4087 H   0  0  0  0  0  0  0  0  0  0  0  0  # atno 10765 bound_to 10752
  140.4452  134.6395  157.4776 H   0  0  0  0  0  0  0  0  0  0  0  0  # atno 11005 bound_to 11000
  145.8069  139.1987  143.2015 LP  0  0  0  0  0  0  0  0  0  0  0  0  # atno 17320 bound_to 7965
  146.0629  140.7951  142.9726 LP  0  0  0  0  0  0  0  0  0  0  0  0  # atno 17321 bound_to 7965
  139.6915  143.9683  152.2862 LP  0  0  0  0  0  0  0  0  0  0  0  0  # atno 17342 bound_to 10162
  139.9346  144.6720  150.8327 LP  0  0  0  0  0  0  0  0  0  0  0  0  # atno 17343 bound_to 10162
  156.9252  130.9696  151.3542 LP  0  0  0  0  0  0  0  0  0  0  0  0  # atno 17370 bound_to 10713
  157.5934  130.8460  149.8693 LP  0  0  0  0  0  0  0  0  0  0  0  0  # atno 17371 bound_to 10713
  140.0043  134.6787  155.9479 LP  0  0  0  0  0  0  0  0  0  0  0  0  # atno 17394 bound_to 11000
  141.1688  133.6537  156.4577 LP  0  0  0  0  0  0  0  0  0  0  0  0  # atno 17395 bound_to 11000

$$$$
