AV-unprocessed.smi:2119|AV-procd|sdf|8635|dock3
  -GOLD-   2272011383D 1   1.00000     0.00000
 Structure written by MMmdl.
 48 50  0  0  0  0  0  0  0  0  2 V2000
  144.6775  136.2234  152.7338 O   0  0  0  0  0  0  0  0  0  0  0  0
  145.8548  135.9212  152.5398 C   0  0  0  0  0  0  0  0  0  0  0  0
  146.8851  136.5970  153.0665 N   0  0  0  0  0  0  0  0  0  0  0  0
  146.7651  137.7614  153.9358 C   0  0  0  0  0  0  0  0  0  0  0  0
  147.9809  138.7305  153.8675 C   0  0  1  0  0  0  0  0  0  0  0  0
  147.7947  140.0402  154.6867 C   0  0  2  0  0  0  0  0  0  0  0  0
  146.3957  140.6419  154.6771 C   0  0  0  0  0  0  0  0  0  0  0  0
  146.6306  142.1152  155.0130 C   0  0  0  0  0  0  0  0  0  0  0  0
  148.0078  142.3682  154.7598 O   0  0  0  0  0  0  0  0  0  0  0  0
  148.5892  141.2309  154.1427 C   0  0  0  0  0  0  0  0  0  0  0  0
  149.2493  138.0527  154.2728 N   0  3  0  0  0  0  0  0  0  0  0  0
  150.4799  138.8825  154.2195 C   0  0  0  0  0  0  0  0  0  0  0  0
  151.7143  138.0035  154.4795 C   0  0  0  0  0  0  0  0  0  0  0  0
  151.5803  137.3578  155.7403 O   0  0  0  0  0  0  0  0  0  0  0  0
  150.4449  136.5016  155.7874 C   0  0  0  0  0  0  0  0  0  0  0  0
  149.1641  137.3234  155.5618 C   0  0  0  0  0  0  0  0  0  0  0  0
  146.2840  134.8988  151.7812 N   0  0  0  0  0  0  0  0  0  0  0  0
  145.5141  133.9247  151.0904 C   0  0  0  0  0  0  0  0  0  0  0  0
  144.1032  133.9580  150.9764 C   0  0  0  0  0  0  0  0  0  0  0  0
  143.4532  132.9181  150.2845 C   0  0  0  0  0  0  0  0  0  0  0  0
  144.2347  131.8818  149.7378 C   0  0  0  0  0  0  0  0  0  0  0  0
  145.5788  131.8312  149.8492 N   0  0  0  0  0  0  0  0  0  0  0  0
  146.1950  132.8307  150.5152 C   0  0  0  0  0  0  0  0  0  0  0  0
  147.8203  136.2843  152.8493 H   0  0  0  0  0  0  0  0  0  0  0  0
  145.8524  138.2802  153.6429 H   0  0  0  0  0  0  0  0  0  0  0  0
  146.6016  137.4089  154.9547 H   0  0  0  0  0  0  0  0  0  0  0  0
  148.1184  139.0320  152.8283 H   0  0  0  0  0  0  0  0  0  0  0  0
  148.0861  139.8750  155.7249 H   0  0  0  0  0  0  0  0  0  0  0  0
  145.9539  140.5597  153.6829 H   0  0  0  0  0  0  0  0  0  0  0  0
  145.7182  140.1691  155.3879 H   0  0  0  0  0  0  0  0  0  0  0  0
  145.9985  142.7693  154.4117 H   0  0  0  0  0  0  0  0  0  0  0  0
  146.4237  142.3175  156.0642 H   0  0  0  0  0  0  0  0  0  0  0  0
  149.6544  141.1695  154.3671 H   0  0  0  0  0  0  0  0  0  0  0  0
  148.4728  141.3161  153.0608 H   0  0  0  0  0  0  0  0  0  0  0  0
  150.5761  139.3645  153.2470 H   0  0  0  0  0  0  0  0  0  0  0  0
  150.4383  139.6725  154.9702 H   0  0  0  0  0  0  0  0  0  0  0  0
  151.8403  137.2632  153.6878 H   0  0  0  0  0  0  0  0  0  0  0  0
  152.6160  138.6158  154.4900 H   0  0  0  0  0  0  0  0  0  0  0  0
  150.5386  135.7135  155.0383 H   0  0  0  0  0  0  0  0  0  0  0  0
  150.4110  136.0124  156.7611 H   0  0  0  0  0  0  0  0  0  0  0  0
  149.0282  138.0250  156.3850 H   0  0  0  0  0  0  0  0  0  0  0  0
  148.3003  136.6577  155.5605 H   0  0  0  0  0  0  0  0  0  0  0  0
  147.2823  134.8337  151.6459 H   0  0  0  0  0  0  0  0  0  0  0  0
  143.5090  134.7446  151.4148 H   0  0  0  0  0  0  0  0  0  0  0  0
  142.3782  132.9124  150.1798 H   0  0  0  0  0  0  0  0  0  0  0  0
  143.7672  131.0686  149.2024 H   0  0  0  0  0  0  0  0  0  0  0  0
  147.2703  132.7550  150.5882 H   0  0  0  0  0  0  0  0  0  0  0  0
  149.3825  137.3296  153.5802 H   0  0  0  0  0  0  0  0  0  0  0  0
  1  2  2  0  0  0  0
  2  3  1  0  0  0  0
  2 17  1  0  0  0  0
  3  4  1  0  0  0  0
  3 24  1  0  0  0  0
  4  5  1  0  0  0  0
  4 25  1  0  0  0  0
  4 26  1  0  0  0  0
  5  6  1  0  0  0  0
  5 11  1  0  0  0  0
  5 27  1  0  0  0  0
  6 10  1  0  0  0  0
  6  7  1  0  0  0  0
  6 28  1  0  0  0  0
  7  8  1  0  0  0  0
  7 29  1  0  0  0  0
  7 30  1  0  0  0  0
  8  9  1  0  0  0  0
  8 31  1  0  0  0  0
  8 32  1  0  0  0  0
  9 10  1  0  0  0  0
 10 33  1  0  0  0  0
 10 34  1  0  0  0  0
 11 16  1  0  0  0  0
 11 12  1  0  0  0  0
 11 48  1  0  0  0  0
 12 13  1  0  0  0  0
 12 35  1  0  0  0  0
 12 36  1  0  0  0  0
 13 14  1  0  0  0  0
 13 37  1  0  0  0  0
 13 38  1  0  0  0  0
 14 15  1  0  0  0  0
 15 16  1  0  0  0  0
 15 39  1  0  0  0  0
 15 40  1  0  0  0  0
 16 41  1  0  0  0  0
 16 42  1  0  0  0  0
 17 18  1  0  0  0  0
 17 43  1  0  0  0  0
 18 23  1  0  0  0  0
 18 19  2  0  0  0  0
 19 20  1  0  0  0  0
 19 44  1  0  0  0  0
 20 21  2  0  0  0  0
 20 45  1  0  0  0  0
 21 22  1  0  0  0  0
 21 46  1  0  0  0  0
 22 23  2  0  0  0  0
 23 47  1  0  0  0  0
M  CHG  1  11   1
M  END
> <s_m_source_file>
AV-unprocessed.smi

> <i_m_source_file_index>
2119

> <i_lp_mmshare_version>
43012

> <i_f3d_flags>
0

> <s_epik_input>
W2NIXTFuW2NIXVtjSF1bY0hdYzFbTkhdQyg9TylbTkhdW0NIMl1bQ0BIXShbQ0BASF0yW0NIMl1bQ0gyXU9bQ0gyXTIpTjNbQ0gyXVtDSDJdT1tDSDJdW0NIMl0z

> <s_epik_cmdline>
J2VwaWtfcHl0aG9uJywgJy1waCcsICc3LjAnLCAnLXRuJywgJzgnLCAnLW1hJywgJzIwMCcsICctbWV0YWxfYmluZGluZycsICctaW1hZScsICc8aW5maWxlLm1hZT4nLCAnLW9tYWUnLCAnPG91dGZpbGUubWFlPic=

> <r_epik_Ionization_Penalty>
0.987463

> <r_epik_Ionization_Penalty_Charging>
0.98326

> <r_epik_Ionization_Penalty_Neutral>
0.00420251

> <r_epik_State_Penalty>
1.01721

> <r_epik_Charging_Adjusted_Penalty>
2.00047

> <i_epik_Tot_Q>
1

> <i_epik_Tot_abs_Q>
1

> <r_epik_Metal_State_Penalty>
1.01439

> <b_epik_Metal_Only>
0

> <s_lp_Force_Field>
OPLS_2005

> <r_lp_Energy>
39.9972

> <b_lp_Chiralities_Consistent>
1

> <s_lp_Variant>
AV-unprocessed.smi:2119-6

> <Gold.Version>
5.8.1

> <Gold.Id.Protein>
6NUR|6NUR_protein|mol2

> <Gold.PLP.Fitness>
43.2809

> <Gold.PLP.PLP>
-31.3282

> <Gold.PLP.part.hbond>
-2.5802

> <Gold.PLP.part.metal>
0.0000

> <Gold.PLP.part.buried>
-4.0475

> <Gold.PLP.part.nonpolar>
-27.8126

> <Gold.PLP.part.repulsive>
3.4295

> <Gold.PLP.ligand.clash>
0.0000

> <Gold.PLP.ligand.torsion>
0.7555

> <Gold.PLP.Chemscore.Hbond>
3.3970

> <Gold.PLP.Chemscore.CHOScore>
1.0000

> <Gold.PLP.Chemscore.Metal>
0.0000

> <Gold.Chemscore.Hbonds>
donor molecule, donor type, donor heavy atom, donor atom, acceptor molecule, acceptor atom, score
      L1  H     3    24       P1  7948  0.89
      L1  H    11    48       P1  7948  1.85
      L1  H    17    43       P1  7948  0.53
      L1  C    23    47       P1 10747  0.92

> <Gold.PLP.Chemscore.Internal.Correction>
0.2728

> <Gold.Rescore>
     Score         DG    S(hbond)    S(metal)    S(lipo)     H(rot)  DE(clash)    DE(int)     intcor
     14.39     -18.58       2.04        0.00      90.82       1.70       1.50       2.68       ----

> <Gold.Chemscore.Fitness>
14.3943

> <Gold.Chemscore.DG>
-18.5775

> <Gold.Chemscore.ZeroCoef>
-5.4800

> <Gold.Chemscore.Hbond>
2.0445

> <Gold.Chemscore.Metal>
0.0000

> <Gold.Chemscore.Lipo>
90.8240

> <Gold.Chemscore.Internal_Hbond>
0.0000

> <Gold.Chemscore.DEClash>
1.5030

> <Gold.Chemscore.DEInternal>
2.6802

> <Gold.Chemscore.Rot>
1.7021

> <Gold.Chemscore.Internal.Correction>
   9.000000E+99

> <Gold.Chemscore.Hbonds>
donor molecule, donor type, donor heavy atom, donor atom, acceptor molecule, acceptor atom, score
      L1  H     3    24       P1  7948  0.82
      L1  H    11    48       P1  7948  0.85
      L1  H    17    43       P1  7948  0.39

> <Gold.Chemscore.Hbond.Weighted>
-6.8286

> <Gold.Chemscore.Metal.Weighted>
-0.0000

> <Gold.Chemscore.Lipo.Weighted>
-10.6264

> <Gold.Chemscore.Internal_Hbond.Weighted>
0.0000

> <Gold.Chemscore.DEClash.Weighted>
1.5030

> <Gold.Chemscore.DEInternal.Weighted>
2.6802

> <Gold.Chemscore.Rot.Weighted>
4.3575

> <Gold.Chemscore.Internal.Correction.Weighted>
   9.000000E+99

> <Gold.Protein.RotatedTorsions>
[ 6907 6896 6895 6894 ] final -135.23 input  -60.11 | X-H torsion
[ 7974 7965 7964 7962 ] final   -2.85 input  175.53 | X-H torsion
[ 8008 7997 7996 7995 ] final -103.18 input   59.86 | X-H torsion
[ 10167 10162 10161 10158 ] final -169.09 input  -65.29 | X-H torsion
[ 10718 10713 10712 10709 ] final   36.87 input   66.30 | X-H torsion
[ 10763 10752 10751 10750 ] final   79.70 input  -60.55 | X-H torsion
[ 11005 11000 10999 10996 ] final  167.69 input  -57.11 | X-H torsion

> <Gold.Protein.ActiveResidues>
 VAL166  LYS551  ARG553  GLY616  TRP617  ASP618  TYR619  PRO620  LYS621  CYS622 
 ASP623  PHE694  ASN695  SER759  ASP760  ASP761  ALA762  ILE779  LEU786  VAL792 
 PHE793  MET794  SER795  GLU796  ALA797  LYS798  CYS799  TRP800  GLU811  SER814 

> <Gold.Protein.RotatedAtoms>
  150.9953  133.6109  159.2702 H   0  0  0  0  0  0  0  0  0  0  0  0  # atno 6907 bound_to 6896
  151.3315  135.0841  159.9350 H   0  0  0  0  0  0  0  0  0  0  0  0  # atno 6908 bound_to 6896
  152.5258  133.9582  159.7759 H   0  0  0  0  0  0  0  0  0  0  0  0  # atno 6909 bound_to 6896
  146.2398  140.1633  142.8332 H   0  0  0  0  0  0  0  0  0  0  0  0  # atno 7974 bound_to 7965
  154.8673  140.0424  157.1702 H   0  0  0  0  0  0  0  0  0  0  0  0  # atno 8008 bound_to 7997
  154.8777  140.2968  155.5423 H   0  0  0  0  0  0  0  0  0  0  0  0  # atno 8009 bound_to 7997
  156.2999  140.2417  156.3775 H   0  0  0  0  0  0  0  0  0  0  0  0  # atno 8010 bound_to 7997
  139.5944  144.1143  152.1672 H   0  0  0  0  0  0  0  0  0  0  0  0  # atno 10167 bound_to 10162
  157.3401  130.7543  149.6906 H   0  0  0  0  0  0  0  0  0  0  0  0  # atno 10718 bound_to 10713
  153.0974  135.4830  154.8804 H   0  0  0  0  0  0  0  0  0  0  0  0  # atno 10763 bound_to 10752
  154.7340  135.3066  154.8845 H   0  0  0  0  0  0  0  0  0  0  0  0  # atno 10764 bound_to 10752
  153.9473  135.6827  153.4797 H   0  0  0  0  0  0  0  0  0  0  0  0  # atno 10765 bound_to 10752
  140.2794  134.7762  157.3745 H   0  0  0  0  0  0  0  0  0  0  0  0  # atno 11005 bound_to 11000
  145.0072  140.8683  143.5246 LP  0  0  0  0  0  0  0  0  0  0  0  0  # atno 17320 bound_to 7965
  145.1661  139.2431  143.5366 LP  0  0  0  0  0  0  0  0  0  0  0  0  # atno 17321 bound_to 7965
  140.0725  144.5767  150.7181 LP  0  0  0  0  0  0  0  0  0  0  0  0  # atno 17342 bound_to 10162
  140.7200  143.2579  151.4310 LP  0  0  0  0  0  0  0  0  0  0  0  0  # atno 17343 bound_to 10162
  155.9706  130.4170  150.4258 LP  0  0  0  0  0  0  0  0  0  0  0  0  # atno 17370 bound_to 10713
  157.2305  131.0503  151.2495 LP  0  0  0  0  0  0  0  0  0  0  0  0  # atno 17371 bound_to 10713
  140.1297  134.5111  155.8115 LP  0  0  0  0  0  0  0  0  0  0  0  0  # atno 17394 bound_to 11000
  141.2165  133.6785  156.7017 LP  0  0  0  0  0  0  0  0  0  0  0  0  # atno 17395 bound_to 11000

$$$$
