AV-unprocessed.smi:1707|AV-procd|sdf|6888|dock2
  -GOLD-   22720 8 93D 1   1.00000     0.00000
 Structure written by MMmdl.
 40 41  0  0  0  0  0  0  0  0  2 V2000
  153.7305  136.7755  159.5069 O   0  0  0  0  0  0  0  0  0  0  0  0
  154.3509  137.3359  160.4104 C   0  0  0  0  0  0  0  0  0  0  0  0
  154.2985  138.6586  160.6236 N   0  0  0  0  0  0  0  0  0  0  0  0
  153.5155  139.6027  159.8350 C   0  0  0  0  0  0  0  0  0  0  0  0
  153.5720  141.0196  160.4325 C   0  0  0  0  0  0  0  0  0  0  0  0
  152.6160  141.9846  159.7517 C   0  0  0  0  0  0  0  0  0  0  0  0
  151.7861  141.5910  158.7660 C   0  0  0  0  0  0  0  0  0  0  0  0
  150.8193  142.5139  158.0448 C   0  0  0  0  0  0  0  0  0  0  0  0
  151.1198  143.9988  158.3084 C   0  0  0  0  0  0  0  0  0  0  0  0
  151.4307  144.2464  159.7897 C   0  0  0  0  0  0  0  0  0  0  0  0
  152.6475  143.4249  160.2515 C   0  0  0  0  0  0  0  0  0  0  0  0
  155.1701  136.7420  161.2974 N   0  0  0  0  0  0  0  0  0  0  0  0
  155.4997  135.3837  161.4475 C   0  0  0  0  0  0  0  0  0  0  0  0
  155.4282  134.6855  162.6150 C   0  0  0  0  0  0  0  0  0  0  0  0
  155.7977  133.2786  162.7072 C   0  0  0  0  0  0  0  0  0  0  0  0
  155.6381  132.4467  163.9675 C   0  0  0  0  0  0  0  0  0  0  0  0
  155.1257  133.1734  164.9610 F   0  0  0  0  0  0  0  0  0  0  0  0
  154.8168  131.4239  163.7345 F   0  0  0  0  0  0  0  0  0  0  0  0
  156.8108  131.9552  164.3674 F   0  0  0  0  0  0  0  0  0  0  0  0
  156.2051  132.7630  161.4923 C   0  0  0  0  0  0  0  0  0  0  0  0
  156.3291  133.3883  160.3013 N   0  5  0  0  0  0  0  0  0  0  0  0
  155.9826  134.7043  160.2270 C   0  0  0  0  0  0  0  0  0  0  0  0
  156.0654  135.3327  159.1710 O   0  0  0  0  0  0  0  0  0  0  0  0
  154.8392  139.0389  161.3866 H   0  0  0  0  0  0  0  0  0  0  0  0
  153.8670  139.5983  158.8020 H   0  0  0  0  0  0  0  0  0  0  0  0
  152.4838  139.2508  159.8137 H   0  0  0  0  0  0  0  0  0  0  0  0
  153.3426  140.9729  161.4982 H   0  0  0  0  0  0  0  0  0  0  0  0
  154.5816  141.4249  160.3549 H   0  0  0  0  0  0  0  0  0  0  0  0
  151.7765  140.5575  158.4519 H   0  0  0  0  0  0  0  0  0  0  0  0
  150.8589  142.3120  156.9742 H   0  0  0  0  0  0  0  0  0  0  0  0
  149.8101  142.2686  158.3767 H   0  0  0  0  0  0  0  0  0  0  0  0
  151.9754  144.3096  157.7073 H   0  0  0  0  0  0  0  0  0  0  0  0
  150.2776  144.6128  157.9879 H   0  0  0  0  0  0  0  0  0  0  0  0
  151.6092  145.3072  159.9681 H   0  0  0  0  0  0  0  0  0  0  0  0
  150.5602  143.9754  160.3886 H   0  0  0  0  0  0  0  0  0  0  0  0
  152.6992  143.4329  161.3407 H   0  0  0  0  0  0  0  0  0  0  0  0
  153.5634  143.8922  159.8887 H   0  0  0  0  0  0  0  0  0  0  0  0
  155.6481  137.3541  161.9424 H   0  0  0  0  0  0  0  0  0  0  0  0
  155.1087  135.1593  163.5277 H   0  0  0  0  0  0  0  0  0  0  0  0
  156.4665  131.6834  161.4734 H   0  0  0  0  0  0  0  0  0  0  0  0
  1  2  2  0  0  0  0
  2  3  1  0  0  0  0
  2 12  1  0  0  0  0
  3  4  1  0  0  0  0
  3 24  1  0  0  0  0
  4  5  1  0  0  0  0
  4 25  1  0  0  0  0
  4 26  1  0  0  0  0
  5  6  1  0  0  0  0
  5 27  1  0  0  0  0
  5 28  1  0  0  0  0
  6 11  1  0  0  0  0
  6  7  2  0  0  0  0
  7  8  1  0  0  0  0
  7 29  1  0  0  0  0
  8  9  1  0  0  0  0
  8 30  1  0  0  0  0
  8 31  1  0  0  0  0
  9 10  1  0  0  0  0
  9 32  1  0  0  0  0
  9 33  1  0  0  0  0
 10 11  1  0  0  0  0
 10 34  1  0  0  0  0
 10 35  1  0  0  0  0
 11 36  1  0  0  0  0
 11 37  1  0  0  0  0
 12 13  1  0  0  0  0
 12 38  1  0  0  0  0
 13 22  1  0  0  0  0
 13 14  2  0  0  0  0
 14 15  1  0  0  0  0
 14 39  1  0  0  0  0
 15 16  1  0  0  0  0
 15 20  2  0  0  0  0
 16 17  1  0  0  0  0
 16 18  1  0  0  0  0
 16 19  1  0  0  0  0
 20 21  1  0  0  0  0
 20 40  1  0  0  0  0
 21 22  1  0  0  0  0
 22 23  2  0  0  0  0
M  CHG  1  21  -1
M  END
> <s_m_source_file>
AV-unprocessed.smi

> <i_m_source_file_index>
1707

> <i_lp_mmshare_version>
43012

> <i_f3d_flags>
0

> <s_epik_input>
Tz1jMVtuSF1bY0hdYyhDKEYpKEYpRilbY0hdYzFbTkhdQyg9TylbTkhdW0NIMl1bQ0gyXUMyPVtDSF1bQ0gyXVtDSDJdW0NIMl1bQ0gyXTI=

> <s_epik_cmdline>
J2VwaWtfcHl0aG9uJywgJy1waCcsICc3LjAnLCAnLXRuJywgJzgnLCAnLW1hJywgJzIwMCcsICctbWV0YWxfYmluZGluZycsICctaW1hZScsICc8aW5maWxlLm1hZT4nLCAnLW9tYWUnLCAnPG91dGZpbGUubWFlPic=

> <r_lp_tautomer_probability>
1

> <r_epik_Ionization_Penalty>
3.1649

> <r_epik_Ionization_Penalty_Charging>
0.171543

> <r_epik_Ionization_Penalty_Neutral>
2.99336

> <r_epik_State_Penalty>
2.98952

> <r_epik_Charging_Adjusted_Penalty>
3.16106

> <i_epik_Tot_Q>
-1

> <i_epik_Tot_abs_Q>
1

> <r_epik_Metal_State_Penalty>
0.452963

> <b_epik_Metal_Only>
1

> <s_lp_Force_Field>
OPLS_2005

> <r_lp_Energy>
21.1574

> <b_lp_Chiralities_Consistent>
1

> <s_lp_Variant>
AV-unprocessed.smi:1707-2

> <Gold.Version>
5.8.1

> <Gold.Id.Protein>
6NUR|6NUR_protein|mol2

> <Gold.PLP.Fitness>
47.7547

> <Gold.PLP.PLP>
-45.7701

> <Gold.PLP.part.hbond>
-1.0000

> <Gold.PLP.part.metal>
0.0000

> <Gold.PLP.part.buried>
-3.3501

> <Gold.PLP.part.nonpolar>
-42.1292

> <Gold.PLP.part.repulsive>
0.0544

> <Gold.PLP.ligand.clash>
0.0000

> <Gold.PLP.ligand.torsion>
0.5406

> <Gold.PLP.Chemscore.Hbond>
1.0000

> <Gold.PLP.Chemscore.CHOScore>
0.0000

> <Gold.PLP.Chemscore.Metal>
0.0000

> <Gold.PLP.Chemscore.Internal.Correction>
0.0656

> <Gold.Rescore>
     Score         DG    S(hbond)    S(metal)    S(lipo)     H(rot)  DE(clash)    DE(int)     intcor
     15.37     -18.44       0.99        0.00     116.54       1.55       0.01       3.06       ----

> <Gold.Chemscore.Fitness>
15.3679

> <Gold.Chemscore.DG>
-18.4425

> <Gold.Chemscore.ZeroCoef>
-5.4800

> <Gold.Chemscore.Hbond>
0.9886

> <Gold.Chemscore.Metal>
0.0000

> <Gold.Chemscore.Lipo>
116.5357

> <Gold.Chemscore.Internal_Hbond>
0.0000

> <Gold.Chemscore.DEClash>
0.0145

> <Gold.Chemscore.DEInternal>
3.0601

> <Gold.Chemscore.Rot>
1.5523

> <Gold.Chemscore.Internal.Correction>
   9.000000E+99

> <Gold.Chemscore.Hbonds>
donor molecule, donor type, donor heavy atom, donor atom, acceptor molecule, acceptor atom, score
      P1  H  6896  6909       L1     1  0.03

> <Gold.Chemscore.Hbond.Weighted>
-3.3018

> <Gold.Chemscore.Metal.Weighted>
-0.0000

> <Gold.Chemscore.Lipo.Weighted>
-13.6347

> <Gold.Chemscore.Internal_Hbond.Weighted>
0.0000

> <Gold.Chemscore.DEClash.Weighted>
0.0145

> <Gold.Chemscore.DEInternal.Weighted>
3.0601

> <Gold.Chemscore.Rot.Weighted>
3.9740

> <Gold.Chemscore.Internal.Correction.Weighted>
   9.000000E+99

> <Gold.Protein.RotatedTorsions>
[ 6907 6896 6895 6894 ] final  149.70 input  -60.11 | X-H torsion
[ 7974 7965 7964 7962 ] final   28.64 input  175.53 | X-H torsion
[ 8008 7997 7996 7995 ] final  143.33 input   59.86 | X-H torsion
[ 10167 10162 10161 10158 ] final   92.17 input  -65.29 | X-H torsion
[ 10718 10713 10712 10709 ] final  -68.25 input   66.30 | X-H torsion
[ 10763 10752 10751 10750 ] final  -91.62 input  -60.55 | X-H torsion
[ 11005 11000 10999 10996 ] final   42.30 input  -57.11 | X-H torsion

> <Gold.Protein.ActiveResidues>
 VAL166  LYS551  ARG553  GLY616  TRP617  ASP618  TYR619  PRO620  LYS621  CYS622 
 ASP623  PHE694  ASN695  SER759  ASP760  ASP761  ALA762  ILE779  LEU786  VAL792 
 PHE793  MET794  SER795  GLU796  ALA797  LYS798  CYS799  TRP800  GLU811  SER814 

> <Gold.Protein.RotatedAtoms>
  152.1244  133.4371  159.4690 H   0  0  0  0  0  0  0  0  0  0  0  0  # atno 6907 bound_to 6896
  150.6874  134.2496  159.4514 H   0  0  0  0  0  0  0  0  0  0  0  0  # atno 6908 bound_to 6896
  152.0375  134.9731  160.0624 H   0  0  0  0  0  0  0  0  0  0  0  0  # atno 6909 bound_to 6896
  146.1717  139.7028  142.8963 H   0  0  0  0  0  0  0  0  0  0  0  0  # atno 7974 bound_to 7965
  156.2932  140.2265  156.4873 H   0  0  0  0  0  0  0  0  0  0  0  0  # atno 8008 bound_to 7997
  154.7801  140.0461  157.1141 H   0  0  0  0  0  0  0  0  0  0  0  0  # atno 8009 bound_to 7997
  154.9769  140.3073  155.4967 H   0  0  0  0  0  0  0  0  0  0  0  0  # atno 8010 bound_to 7997
  139.8302  144.6690  150.9409 H   0  0  0  0  0  0  0  0  0  0  0  0  # atno 10167 bound_to 10162
  156.0515  130.4291  150.1973 H   0  0  0  0  0  0  0  0  0  0  0  0  # atno 10718 bound_to 10713
  154.6779  135.5261  153.8223 H   0  0  0  0  0  0  0  0  0  0  0  0  # atno 10763 bound_to 10752
  153.0544  135.6545  154.0622 H   0  0  0  0  0  0  0  0  0  0  0  0  # atno 10764 bound_to 10752
  154.0513  135.2969  155.3319 H   0  0  0  0  0  0  0  0  0  0  0  0  # atno 10765 bound_to 10752
  140.1752  134.4172  155.8233 H   0  0  0  0  0  0  0  0  0  0  0  0  # atno 11005 bound_to 11000
  145.4322  141.0416  143.2904 LP  0  0  0  0  0  0  0  0  0  0  0  0  # atno 17320 bound_to 7965
  144.8173  139.5853  143.7002 LP  0  0  0  0  0  0  0  0  0  0  0  0  # atno 17321 bound_to 7965
  140.7807  143.4008  151.1153 LP  0  0  0  0  0  0  0  0  0  0  0  0  # atno 17342 bound_to 10162
  139.7662  143.8562  152.3111 LP  0  0  0  0  0  0  0  0  0  0  0  0  # atno 17343 bound_to 10162
  157.0056  130.9935  151.3379 LP  0  0  0  0  0  0  0  0  0  0  0  0  # atno 17370 bound_to 10713
  157.5445  130.8142  149.8069 LP  0  0  0  0  0  0  0  0  0  0  0  0  # atno 17371 bound_to 10713
  141.2220  133.6974  156.7834 LP  0  0  0  0  0  0  0  0  0  0  0  0  # atno 17394 bound_to 11000
  140.2331  134.8671  157.3497 LP  0  0  0  0  0  0  0  0  0  0  0  0  # atno 17395 bound_to 11000

$$$$
