AV-unprocessed.smi:1131|AV-procd|sdf|4852|dock9
  -GOLD-   22720 3423D 1   1.00000     0.00000
 Structure written by MMmdl.
 32 33  0  0  0  0  0  0  0  0  2 V2000
  150.3266  140.2276  155.1310 O   0  0  0  0  0  0  0  0  0  0  0  0
  149.6703  141.2412  155.3732 C   0  0  0  0  0  0  0  0  0  0  0  0
  148.4330  141.5851  154.5350 C   0  0  0  0  0  0  0  0  0  0  0  0
  147.4970  140.4549  154.4304 N   0  0  0  0  0  0  0  0  0  0  0  0
  147.2313  139.9383  153.1501 C   0  0  0  0  0  0  0  0  0  0  0  0
  146.3864  138.9066  152.9619 C   0  0  0  0  0  0  0  0  0  0  0  0
  145.7385  138.3228  154.1300 C   0  0  0  0  0  0  0  0  0  0  0  0
  144.9670  137.3778  153.9774 O   0  0  0  0  0  0  0  0  0  0  0  0
  146.0256  138.8622  155.3508 N   0  5  0  0  0  0  0  0  0  0  0  0
  146.8858  139.9125  155.5271 C   0  0  0  0  0  0  0  0  0  0  0  0
  147.1296  140.3852  156.6382 O   0  0  0  0  0  0  0  0  0  0  0  0
  149.9648  142.0897  156.3690 N   0  0  0  0  0  0  0  0  0  0  0  0
  151.1198  141.9811  157.2525 C   0  0  0  0  0  0  0  0  0  0  0  0
  151.1349  143.0930  158.3199 C   0  0  2  0  0  0  0  0  0  0  0  0
  151.8381  144.3601  157.8793 C   0  0  0  0  0  0  0  0  0  0  0  0
  152.1127  145.0352  159.2172 C   0  0  0  0  0  0  0  0  0  0  0  0
  152.4210  143.9703  160.1086 O   0  0  0  0  0  0  0  0  0  0  0  0
  151.8930  142.7445  159.6056 C   0  0  0  0  0  0  0  0  0  0  0  0
  147.9457  142.4490  154.9884 H   0  0  0  0  0  0  0  0  0  0  0  0
  148.7314  141.9141  153.5376 H   0  0  0  0  0  0  0  0  0  0  0  0
  147.7465  140.4308  152.3385 H   0  0  0  0  0  0  0  0  0  0  0  0
  146.1911  138.5229  151.9714 H   0  0  0  0  0  0  0  0  0  0  0  0
  149.3666  142.8933  156.4958 H   0  0  0  0  0  0  0  0  0  0  0  0
  151.0838  141.0022  157.7313 H   0  0  0  0  0  0  0  0  0  0  0  0
  152.0398  142.0050  156.6664 H   0  0  0  0  0  0  0  0  0  0  0  0
  150.1095  143.3545  158.5874 H   0  0  0  0  0  0  0  0  0  0  0  0
  152.7788  144.1245  157.3793 H   0  0  0  0  0  0  0  0  0  0  0  0
  151.2361  144.9741  157.2088 H   0  0  0  0  0  0  0  0  0  0  0  0
  152.9233  145.7621  159.1645 H   0  0  0  0  0  0  0  0  0  0  0  0
  151.2185  145.5464  159.5761 H   0  0  0  0  0  0  0  0  0  0  0  0
  151.2471  142.2628  160.3407 H   0  0  0  0  0  0  0  0  0  0  0  0
  152.7271  142.0724  159.4008 H   0  0  0  0  0  0  0  0  0  0  0  0
  1  2  2  0  0  0  0
  2  3  1  0  0  0  0
  2 12  1  0  0  0  0
  3  4  1  0  0  0  0
  3 19  1  0  0  0  0
  3 20  1  0  0  0  0
  4 10  1  0  0  0  0
  4  5  1  0  0  0  0
  5  6  2  0  0  0  0
  5 21  1  0  0  0  0
  6  7  1  0  0  0  0
  6 22  1  0  0  0  0
  7  8  2  0  0  0  0
  7  9  1  0  0  0  0
  9 10  1  0  0  0  0
 10 11  2  0  0  0  0
 12 13  1  0  0  0  0
 12 23  1  0  0  0  0
 13 14  1  0  0  0  0
 13 24  1  0  0  0  0
 13 25  1  0  0  0  0
 14 18  1  0  0  0  0
 14 15  1  0  0  0  0
 14 26  1  0  0  0  0
 15 16  1  0  0  0  0
 15 27  1  0  0  0  0
 15 28  1  0  0  0  0
 16 17  1  0  0  0  0
 16 29  1  0  0  0  0
 16 30  1  0  0  0  0
 17 18  1  0  0  0  0
 18 31  1  0  0  0  0
 18 32  1  0  0  0  0
M  CHG  1   9  -1
M  END
> <s_m_source_file>
AV-unprocessed.smi

> <i_m_source_file_index>
1131

> <i_lp_mmshare_version>
43012

> <i_f3d_flags>
0

> <s_epik_input>
W0NIMl0xT1tDSDJdW0NIMl1bQ0BIXTFbQ0gyXVtOSF1DKD1PKVtDSDJdbjJbY0hdW2NIXWMoPU8pW25IXWMyPU8=

> <s_epik_cmdline>
J2VwaWtfcHl0aG9uJywgJy1waCcsICc3LjAnLCAnLXRuJywgJzgnLCAnLW1hJywgJzIwMCcsICctbWV0YWxfYmluZGluZycsICctaW1hZScsICc8aW5maWxlLm1hZT4nLCAnLW9tYWUnLCAnPG91dGZpbGUubWFlPic=

> <r_lp_tautomer_probability>
0.999537

> <r_epik_Ionization_Penalty>
3.07866

> <r_epik_Ionization_Penalty_Charging>
2.6898e-08

> <r_epik_Ionization_Penalty_Neutral>
3.07866

> <r_epik_State_Penalty>
3.07769

> <r_epik_Charging_Adjusted_Penalty>
3.07769

> <i_epik_Tot_Q>
-1

> <i_epik_Tot_abs_Q>
1

> <r_epik_Metal_State_Penalty>
0.459839

> <b_epik_Metal_Only>
1

> <s_lp_Force_Field>
OPLS_2005

> <r_lp_Energy>
26.4243

> <b_lp_Chiralities_Consistent>
1

> <s_lp_Variant>
AV-unprocessed.smi:1131-3

> <Gold.Version>
5.8.1

> <Gold.Id.Protein>
6NUR|6NUR_protein|mol2

> <Gold.PLP.Fitness>
40.5654

> <Gold.PLP.PLP>
-32.6032

> <Gold.PLP.part.hbond>
-2.0000

> <Gold.PLP.part.metal>
0.0000

> <Gold.PLP.part.buried>
-2.1272

> <Gold.PLP.part.nonpolar>
-28.6680

> <Gold.PLP.part.repulsive>
0.3863

> <Gold.PLP.ligand.clash>
0.0000

> <Gold.PLP.ligand.torsion>
0.3898

> <Gold.PLP.Chemscore.Hbond>
1.9120

> <Gold.PLP.Chemscore.CHOScore>
1.0000

> <Gold.PLP.Chemscore.Metal>
0.0000

> <Gold.Chemscore.Hbonds>
donor molecule, donor type, donor heavy atom, donor atom, acceptor molecule, acceptor atom, score
      L1  H    12    23       P1  8028  0.77
      P1  H  7989  7998       L1     1  0.62
      L1  C     5    21       P1  7957  1.00

> <Gold.PLP.Chemscore.Internal.Correction>
0.0059

> <Gold.Rescore>
     Score         DG    S(hbond)    S(metal)    S(lipo)     H(rot)  DE(clash)    DE(int)     intcor
     14.43     -14.81       1.65        0.00      77.37       2.05       0.07       0.30       ----

> <Gold.Chemscore.Fitness>
14.4323

> <Gold.Chemscore.DG>
-14.8068

> <Gold.Chemscore.ZeroCoef>
-5.4800

> <Gold.Chemscore.Hbond>
1.6506

> <Gold.Chemscore.Metal>
0.0000

> <Gold.Chemscore.Lipo>
77.3709

> <Gold.Chemscore.Internal_Hbond>
0.0000

> <Gold.Chemscore.DEClash>
0.0741

> <Gold.Chemscore.DEInternal>
0.3005

> <Gold.Chemscore.Rot>
2.0463

> <Gold.Chemscore.Internal.Correction>
   9.000000E+99

> <Gold.Chemscore.Hbonds>
donor molecule, donor type, donor heavy atom, donor atom, acceptor molecule, acceptor atom, score
      L1  H    12    23       P1  8028  0.75
      P1  H  7989  7998       L1     1  0.21

> <Gold.Chemscore.Hbond.Weighted>
-5.5130

> <Gold.Chemscore.Metal.Weighted>
-0.0000

> <Gold.Chemscore.Lipo.Weighted>
-9.0524

> <Gold.Chemscore.Internal_Hbond.Weighted>
0.0000

> <Gold.Chemscore.DEClash.Weighted>
0.0741

> <Gold.Chemscore.DEInternal.Weighted>
0.3005

> <Gold.Chemscore.Rot.Weighted>
5.2386

> <Gold.Chemscore.Internal.Correction.Weighted>
   9.000000E+99

> <Gold.Protein.RotatedTorsions>
[ 6907 6896 6895 6894 ] final -160.59 input  -60.11 | X-H torsion
[ 7974 7965 7964 7962 ] final -147.84 input  175.53 | X-H torsion
[ 8008 7997 7996 7995 ] final  -55.69 input   59.86 | X-H torsion
[ 10167 10162 10161 10158 ] final  -30.46 input  -65.29 | X-H torsion
[ 10718 10713 10712 10709 ] final  114.84 input   66.30 | X-H torsion
[ 10763 10752 10751 10750 ] final   22.55 input  -60.55 | X-H torsion
[ 11005 11000 10999 10996 ] final   80.98 input  -57.11 | X-H torsion

> <Gold.Protein.ActiveResidues>
 VAL166  LYS551  ARG553  GLY616  TRP617  ASP618  TYR619  PRO620  LYS621  CYS622 
 ASP623  PHE694  ASN695  SER759  ASP760  ASP761  ALA762  ILE779  LEU786  VAL792 
 PHE793  MET794  SER795  GLU796  ALA797  LYS798  CYS799  TRP800  GLU811  SER814 

> <Gold.Protein.RotatedAtoms>
  151.3515  133.3924  159.2680 H   0  0  0  0  0  0  0  0  0  0  0  0  # atno 6907 bound_to 6896
  150.9798  134.9156  159.7848 H   0  0  0  0  0  0  0  0  0  0  0  0  # atno 6908 bound_to 6896
  152.5213  134.3478  159.9292 H   0  0  0  0  0  0  0  0  0  0  0  0  # atno 6909 bound_to 6896
  144.8068  140.5275  143.5670 H   0  0  0  0  0  0  0  0  0  0  0  0  # atno 7974 bound_to 7965
  154.4204  140.1147  156.5517 H   0  0  0  0  0  0  0  0  0  0  0  0  # atno 8008 bound_to 7997
  155.6403  140.3496  155.4693 H   0  0  0  0  0  0  0  0  0  0  0  0  # atno 8009 bound_to 7997
  155.9876  140.1173  157.0658 H   0  0  0  0  0  0  0  0  0  0  0  0  # atno 8010 bound_to 7997
  140.7249  143.3847  151.1537 H   0  0  0  0  0  0  0  0  0  0  0  0  # atno 10167 bound_to 10162
  157.6257  131.1004  150.7244 H   0  0  0  0  0  0  0  0  0  0  0  0  # atno 10718 bound_to 10713
  153.0907  135.6646  153.9860 H   0  0  0  0  0  0  0  0  0  0  0  0  # atno 10763 bound_to 10752
  153.9457  135.2989  155.3442 H   0  0  0  0  0  0  0  0  0  0  0  0  # atno 10764 bound_to 10752
  154.7321  135.5118  153.9054 H   0  0  0  0  0  0  0  0  0  0  0  0  # atno 10765 bound_to 10752
  139.9114  134.7962  156.1981 H   0  0  0  0  0  0  0  0  0  0  0  0  # atno 11005 bound_to 11000
  145.5420  139.1475  143.3442 LP  0  0  0  0  0  0  0  0  0  0  0  0  # atno 17320 bound_to 7965
  146.2360  140.5559  142.8954 LP  0  0  0  0  0  0  0  0  0  0  0  0  # atno 17321 bound_to 7965
  139.7442  143.8878  152.3058 LP  0  0  0  0  0  0  0  0  0  0  0  0  # atno 17342 bound_to 10162
  139.8709  144.7068  150.8988 LP  0  0  0  0  0  0  0  0  0  0  0  0  # atno 17343 bound_to 10162
  156.7592  130.4793  149.5440 LP  0  0  0  0  0  0  0  0  0  0  0  0  # atno 17370 bound_to 10713
  156.1428  130.6257  151.0491 LP  0  0  0  0  0  0  0  0  0  0  0  0  # atno 17371 bound_to 10713
  141.0542  133.6873  156.1829 LP  0  0  0  0  0  0  0  0  0  0  0  0  # atno 17394 bound_to 11000
  140.6763  134.4814  157.5588 LP  0  0  0  0  0  0  0  0  0  0  0  0  # atno 17395 bound_to 11000

$$$$
