AV-unprocessed.smi:1703|AV-procd|sdf|6866|dock8
  -GOLD-   22720 8 63D 1   1.00000     0.00000
 Structure written by MMmdl.
 49 51  0  0  0  0  0  0  0  0  2 V2000
  147.8306  135.1546  154.7378 C   0  0  0  0  0  0  0  0  0  0  0  0
  146.6462  136.1012  155.0037 C   0  0  1  0  0  0  0  0  0  0  0  0
  147.0437  137.5899  155.0231 C   0  0  0  0  0  0  0  0  0  0  0  0
  147.3287  138.0798  153.6522 N   0  3  2  0  0  0  0  0  0  0  0  0
  147.7933  139.4894  153.6056 C   0  0  0  0  0  0  0  0  0  0  0  0
  149.1605  139.6787  154.2910 C   0  0  1  0  0  0  0  0  0  0  0  0
  149.8468  140.7381  153.6510 O   0  0  0  0  0  0  0  0  0  0  0  0
  149.0094  139.9913  155.7931 C   0  0  0  0  0  0  0  0  0  0  0  0
  150.2921  140.1307  156.4701 N   0  0  0  0  0  0  0  0  0  0  0  0
  151.3810  139.3261  156.3766 C   0  0  0  0  0  0  0  0  0  0  0  0
  151.3996  138.1001  155.5157 C   0  0  0  0  0  0  0  0  0  0  0  0
  152.4865  137.2473  155.8052 O   0  0  0  0  0  0  0  0  0  0  0  0
  152.4368  139.6915  157.1041 N   0  0  0  0  0  0  0  0  0  0  0  0
  151.9908  140.8371  157.7337 C   0  0  0  0  0  0  0  0  0  0  0  0
  152.6450  141.7000  158.6419 C   0  0  0  0  0  0  0  0  0  0  0  0
  151.9772  142.8281  159.1623 C   0  0  0  0  0  0  0  0  0  0  0  0
  150.6485  143.1086  158.7834 C   0  0  0  0  0  0  0  0  0  0  0  0
  149.9783  142.2619  157.8798 C   0  0  0  0  0  0  0  0  0  0  0  0
  150.6498  141.1379  157.3617 C   0  0  0  0  0  0  0  0  0  0  0  0
  146.1677  137.8303  152.7679 C   0  0  0  0  0  0  0  0  0  0  0  0
  145.8141  136.3320  152.7582 C   0  0  2  0  0  0  0  0  0  0  0  0
  144.5599  136.0443  151.9255 C   0  0  0  0  0  0  0  0  0  0  0  0
  145.5676  135.8923  154.0917 O   0  0  0  0  0  0  0  0  0  0  0  0
  148.5816  135.2465  155.5228 H   0  0  0  0  0  0  0  0  0  0  0  0
  148.3270  135.3657  153.7910 H   0  0  0  0  0  0  0  0  0  0  0  0
  147.5009  134.1156  154.7188 H   0  0  0  0  0  0  0  0  0  0  0  0
  146.2585  135.8491  155.9913 H   0  0  0  0  0  0  0  0  0  0  0  0
  146.2297  138.1792  155.4491 H   0  0  0  0  0  0  0  0  0  0  0  0
  147.9048  137.7297  155.6756 H   0  0  0  0  0  0  0  0  0  0  0  0
  147.8778  139.8162  152.5678 H   0  0  0  0  0  0  0  0  0  0  0  0
  147.0404  140.1314  154.0656 H   0  0  0  0  0  0  0  0  0  0  0  0
  149.7632  138.7783  154.1817 H   0  0  0  0  0  0  0  0  0  0  0  0
  149.6095  140.7445  152.7360 H   0  0  0  0  0  0  0  0  0  0  0  0
  148.4410  140.9116  155.9346 H   0  0  0  0  0  0  0  0  0  0  0  0
  148.4340  139.2074  156.2858 H   0  0  0  0  0  0  0  0  0  0  0  0
  150.4663  137.5499  155.6319 H   0  0  0  0  0  0  0  0  0  0  0  0
  151.4599  138.3965  154.4679 H   0  0  0  0  0  0  0  0  0  0  0  0
  153.2823  137.7564  155.7847 H   0  0  0  0  0  0  0  0  0  0  0  0
  153.6624  141.4938  158.9391 H   0  0  0  0  0  0  0  0  0  0  0  0
  152.4869  143.4812  159.8554 H   0  0  0  0  0  0  0  0  0  0  0  0
  150.1445  143.9746  159.1866 H   0  0  0  0  0  0  0  0  0  0  0  0
  148.9611  142.4763  157.5881 H   0  0  0  0  0  0  0  0  0  0  0  0
  145.3167  138.4228  153.1081 H   0  0  0  0  0  0  0  0  0  0  0  0
  146.4000  138.1552  151.7528 H   0  0  0  0  0  0  0  0  0  0  0  0
  146.6401  135.7635  152.3307 H   0  0  0  0  0  0  0  0  0  0  0  0
  144.6979  136.3516  150.8887 H   0  0  0  0  0  0  0  0  0  0  0  0
  143.6927  136.5751  152.3193 H   0  0  0  0  0  0  0  0  0  0  0  0
  144.3272  134.9791  151.9271 H   0  0  0  0  0  0  0  0  0  0  0  0
  148.0877  137.5207  153.2881 H   0  0  0  0  0  0  0  0  0  0  0  0
  1  2  1  0  0  0  0
  1 24  1  0  0  0  0
  1 25  1  0  0  0  0
  1 26  1  0  0  0  0
  2 23  1  0  0  0  0
  2  3  1  0  0  0  0
  2 27  1  0  0  0  0
  3  4  1  0  0  0  0
  3 28  1  0  0  0  0
  3 29  1  0  0  0  0
  4  5  1  0  0  0  0
  4 20  1  0  0  0  0
  4 49  1  0  0  0  0
  5  6  1  0  0  0  0
  5 30  1  0  0  0  0
  5 31  1  0  0  0  0
  6  7  1  0  0  0  0
  6  8  1  0  0  0  0
  6 32  1  0  0  0  0
  7 33  1  0  0  0  0
  8  9  1  0  0  0  0
  8 34  1  0  0  0  0
  8 35  1  0  0  0  0
  9 19  1  0  0  0  0
  9 10  1  0  0  0  0
 10 11  1  0  0  0  0
 10 13  2  0  0  0  0
 11 12  1  0  0  0  0
 11 36  1  0  0  0  0
 11 37  1  0  0  0  0
 12 38  1  0  0  0  0
 13 14  1  0  0  0  0
 14 19  2  0  0  0  0
 14 15  1  0  0  0  0
 15 16  2  0  0  0  0
 15 39  1  0  0  0  0
 16 17  1  0  0  0  0
 16 40  1  0  0  0  0
 17 18  2  0  0  0  0
 17 41  1  0  0  0  0
 18 19  1  0  0  0  0
 18 42  1  0  0  0  0
 20 21  1  0  0  0  0
 20 43  1  0  0  0  0
 20 44  1  0  0  0  0
 21 22  1  0  0  0  0
 21 23  1  0  0  0  0
 21 45  1  0  0  0  0
 22 46  1  0  0  0  0
 22 47  1  0  0  0  0
 22 48  1  0  0  0  0
M  CHG  1   4   1
M  END
> <s_m_source_file>
AV-unprocessed.smi

> <i_m_source_file_index>
1703

> <i_lp_mmshare_version>
43012

> <i_f3d_flags>
0

> <s_epik_input>
W0NIM11bQ0BASF0xW0NIMl1OKFtDSDJdW0NASF0oTzEpW0NIM10pW0NIMl1bQ0BIXShbT0hdKVtDSDJdbihjKG4yKVtDSDJdW09IXSljKGMyMylbY0hdW2NIXVtjSF1bY0hdMw==

> <s_epik_cmdline>
J2VwaWtfcHl0aG9uJywgJy1waCcsICc3LjAnLCAnLXRuJywgJzgnLCAnLW1hJywgJzIwMCcsICctbWV0YWxfYmluZGluZycsICctaW1hZScsICc8aW5maWxlLm1hZT4nLCAnLW9tYWUnLCAnPG91dGZpbGUubWFlPic=

> <r_epik_Ionization_Penalty>
0.655661

> <r_epik_Ionization_Penalty_Charging>
0.608065

> <r_epik_Ionization_Penalty_Neutral>
0.0475963

> <r_epik_State_Penalty>
0.695267

> <r_epik_Charging_Adjusted_Penalty>
1.30333

> <i_epik_Tot_Q>
1

> <i_epik_Tot_abs_Q>
1

> <r_epik_Metal_State_Penalty>
0.653591

> <b_epik_Metal_Only>
0

> <s_lp_Force_Field>
OPLS_2005

> <r_lp_Energy>
24.2834

> <b_lp_Chiralities_Consistent>
1

> <s_lp_Variant>
AV-unprocessed.smi:1703-14

> <Gold.Version>
5.8.1

> <Gold.Id.Protein>
6NUR|6NUR_protein|mol2

> <Gold.PLP.Fitness>
43.9204

> <Gold.PLP.PLP>
-30.1123

> <Gold.PLP.part.hbond>
-5.8036

> <Gold.PLP.part.metal>
0.0000

> <Gold.PLP.part.buried>
-0.6464

> <Gold.PLP.part.nonpolar>
-22.5509

> <Gold.PLP.part.repulsive>
0.0666

> <Gold.PLP.ligand.clash>
0.0000

> <Gold.PLP.ligand.torsion>
0.7555

> <Gold.PLP.Chemscore.Hbond>
5.0960

> <Gold.PLP.Chemscore.CHOScore>
0.0000

> <Gold.PLP.Chemscore.Metal>
0.0000

> <Gold.Chemscore.Hbonds>
donor molecule, donor type, donor heavy atom, donor atom, acceptor molecule, acceptor atom, score
      L1  H     4    49       P1  7948  1.66
      L1  H     7    33       P1  7957  1.00
      P1  H  7989  7998       L1     7  0.40
      P1  H  7997  8008       L1    13  0.96
      P1  H 10752 10765       L1    12  0.75

> <Gold.PLP.Chemscore.Internal.Correction>
0.0310

> <Gold.Rescore>
     Score         DG    S(hbond)    S(metal)    S(lipo)     H(rot)  DE(clash)    DE(int)     intcor
     16.69     -18.46       3.16        0.00      85.65       2.96       0.43       1.33       ----

> <Gold.Chemscore.Fitness>
16.6947

> <Gold.Chemscore.DG>
-18.4592

> <Gold.Chemscore.ZeroCoef>
-5.4800

> <Gold.Chemscore.Hbond>
3.1553

> <Gold.Chemscore.Metal>
0.0000

> <Gold.Chemscore.Lipo>
85.6491

> <Gold.Chemscore.Internal_Hbond>
0.0000

> <Gold.Chemscore.DEClash>
0.4318

> <Gold.Chemscore.DEInternal>
1.3327

> <Gold.Chemscore.Rot>
2.9611

> <Gold.Chemscore.Internal.Correction>
   9.000000E+99

> <Gold.Chemscore.Hbonds>
donor molecule, donor type, donor heavy atom, donor atom, acceptor molecule, acceptor atom, score
      L1  H     4    49       P1  7948  0.78
      L1  H     7    33       P1  7957  0.96
      P1  H  7989  7998       L1     7  0.08
      P1  H  7997  8008       L1    13  0.41
      P1  H 10752 10765       L1    12  0.25

> <Gold.Chemscore.Hbond.Weighted>
-10.5386

> <Gold.Chemscore.Metal.Weighted>
-0.0000

> <Gold.Chemscore.Lipo.Weighted>
-10.0209

> <Gold.Chemscore.Internal_Hbond.Weighted>
0.0000

> <Gold.Chemscore.DEClash.Weighted>
0.4318

> <Gold.Chemscore.DEInternal.Weighted>
1.3327

> <Gold.Chemscore.Rot.Weighted>
7.5803

> <Gold.Chemscore.Internal.Correction.Weighted>
   9.000000E+99

> <Gold.Protein.RotatedTorsions>
[ 6907 6896 6895 6894 ] final  146.96 input  -60.11 | X-H torsion
[ 7974 7965 7964 7962 ] final  140.90 input  175.53 | X-H torsion
[ 8008 7997 7996 7995 ] final  -68.46 input   59.86 | X-H torsion
[ 10167 10162 10161 10158 ] final   -6.81 input  -65.29 | X-H torsion
[ 10718 10713 10712 10709 ] final  148.38 input   66.30 | X-H torsion
[ 10763 10752 10751 10750 ] final -162.99 input  -60.55 | X-H torsion
[ 11005 11000 10999 10996 ] final  105.82 input  -57.11 | X-H torsion

> <Gold.Protein.ActiveResidues>
 VAL166  LYS551  ARG553  GLY616  TRP617  ASP618  TYR619  PRO620  LYS621  CYS622 
 ASP623  PHE694  ASN695  SER759  ASP760  ASP761  ALA762  ILE779  LEU786  VAL792 
 PHE793  MET794  SER795  GLU796  ALA797  LYS798  CYS799  TRP800  GLU811  SER814 

> <Gold.Protein.RotatedAtoms>
  152.1610  133.4582  159.4860 H   0  0  0  0  0  0  0  0  0  0  0  0  # atno 6907 bound_to 6896
  150.6907  134.2071  159.4354 H   0  0  0  0  0  0  0  0  0  0  0  0  # atno 6908 bound_to 6896
  151.9973  134.9947  160.0614 H   0  0  0  0  0  0  0  0  0  0  0  0  # atno 6909 bound_to 6896
  144.9144  139.5250  143.5693 H   0  0  0  0  0  0  0  0  0  0  0  0  # atno 7974 bound_to 7965
  154.4869  140.0872  156.7507 H   0  0  0  0  0  0  0  0  0  0  0  0  # atno 8008 bound_to 7997
  155.4327  140.3450  155.4263 H   0  0  0  0  0  0  0  0  0  0  0  0  # atno 8009 bound_to 7997
  156.1275  140.1491  156.9103 H   0  0  0  0  0  0  0  0  0  0  0  0  # atno 8010 bound_to 7997
  140.7009  143.6151  150.8666 H   0  0  0  0  0  0  0  0  0  0  0  0  # atno 10167 bound_to 10162
  157.3093  131.0885  151.1329 H   0  0  0  0  0  0  0  0  0  0  0  0  # atno 10718 bound_to 10713
  154.7164  135.3016  154.9117 H   0  0  0  0  0  0  0  0  0  0  0  0  # atno 10763 bound_to 10752
  154.0002  135.6708  153.4763 H   0  0  0  0  0  0  0  0  0  0  0  0  # atno 10764 bound_to 10752
  153.0797  135.5015  154.8393 H   0  0  0  0  0  0  0  0  0  0  0  0  # atno 10765 bound_to 10752
  139.8806  134.9349  156.5573 H   0  0  0  0  0  0  0  0  0  0  0  0  # atno 11005 bound_to 11000
  146.3174  139.7976  142.8972 LP  0  0  0  0  0  0  0  0  0  0  0  0  # atno 17320 bound_to 7965
  145.3400  141.0285  143.3398 LP  0  0  0  0  0  0  0  0  0  0  0  0  # atno 17321 bound_to 7965
  139.9873  143.5885  152.2922 LP  0  0  0  0  0  0  0  0  0  0  0  0  # atno 17342 bound_to 10162
  139.6528  144.7661  151.2115 LP  0  0  0  0  0  0  0  0  0  0  0  0  # atno 17343 bound_to 10162
  157.2657  130.6680  149.5995 LP  0  0  0  0  0  0  0  0  0  0  0  0  # atno 17370 bound_to 10713
  155.9676  130.4495  150.5660 LP  0  0  0  0  0  0  0  0  0  0  0  0  # atno 17371 bound_to 10713
  140.8196  133.8364  155.8883 LP  0  0  0  0  0  0  0  0  0  0  0  0  # atno 17394 bound_to 11000
  140.9431  134.1875  157.4783 LP  0  0  0  0  0  0  0  0  0  0  0  0  # atno 17395 bound_to 11000

$$$$
