AV-unprocessed.smi:216|AV-procd|sdf|1659|dock9
  -GOLD-   2262020 53D 1   1.00000     0.00000
 Structure written by MMmdl.
 65 69  0  0  0  0  0  0  0  0  1 V2000
  142.9999  134.2006  162.8654 C   0  0  0  0  0  0  0  0  0  0  0  0
  143.5013  134.5308  161.4427 C   0  0  1  0  0  0  0  0  0  0  0  0
  142.4332  135.3611  160.7027 C   0  0  0  0  0  0  0  0  0  0  0  0
  142.8315  135.6206  159.2475 C   0  0  0  0  0  0  0  0  0  0  0  0
  144.1566  136.2291  159.1789 N   0  0  0  0  0  0  0  0  0  0  0  0
  144.5210  136.7820  157.9931 C   0  0  0  0  0  0  0  0  0  0  0  0
  145.1767  137.9740  157.9718 N   0  0  0  0  0  0  0  0  0  0  0  0
  145.5354  138.5288  156.8107 C   0  0  0  0  0  0  0  0  0  0  0  0
  145.3466  138.0685  155.5733 N   0  0  0  0  0  0  0  0  0  0  0  0
  144.6963  136.8700  155.5852 C   0  0  0  0  0  0  0  0  0  0  0  0
  144.2469  136.1666  156.7388 C   0  0  0  0  0  0  0  0  0  0  0  0
  143.6271  134.9840  156.3560 N   0  0  0  0  0  0  0  0  0  0  0  0
  143.6943  134.9932  155.0532 C   0  0  0  0  0  0  0  0  0  0  0  0
  144.3403  136.0789  154.5061 N   0  0  0  0  0  0  0  0  0  0  0  0
  144.5694  136.3376  153.0916 C   0  0  0  0  0  0  0  0  0  0  0  0
  145.0443  135.1009  152.2708 C   0  0  0  0  0  0  0  0  0  0  0  0
  145.5897  135.5356  150.8798 C   0  0  0  0  0  0  0  0  0  0  0  0
  144.5640  135.9905  150.0197 O   0  0  0  0  0  0  0  0  0  0  0  0
  146.1265  134.3552  153.0914 C   0  0  0  0  0  0  0  0  0  0  0  0
  146.4642  132.9662  152.5196 C   0  0  0  0  0  0  0  0  0  0  0  0
  145.2848  132.1774  152.4323 O   0  0  0  0  0  0  0  0  0  0  0  0
  144.3119  132.7349  151.5588 C   0  0  0  0  0  0  0  0  0  0  0  0
  143.8651  134.1142  152.0769 C   0  0  0  0  0  0  0  0  0  0  0  0
  145.2134  135.4629  159.8402 C   0  0  0  0  0  0  0  0  0  0  0  0
  144.9194  135.1973  161.3477 C   0  0  0  0  0  0  0  0  0  0  0  0
  144.9985  136.5222  162.1653 C   0  0  0  0  0  0  0  0  0  0  0  0
  146.4150  137.1226  162.2481 C   0  0  0  0  0  0  0  0  0  0  0  0
  147.4280  136.1062  162.7893 C   0  0  0  0  0  0  0  0  0  0  0  0
  147.4137  134.8202  161.9536 C   0  0  0  0  0  0  0  0  0  0  0  0
  145.9984  134.2176  161.8929 C   0  0  0  0  0  0  0  0  0  0  0  0
  142.8460  135.0966  163.4656 H   0  0  0  0  0  0  0  0  0  0  0  0
  143.6744  133.5402  163.4071 H   0  0  0  0  0  0  0  0  0  0  0  0
  142.0397  133.6860  162.8186 H   0  0  0  0  0  0  0  0  0  0  0  0
  143.5666  133.5759  160.9185 H   0  0  0  0  0  0  0  0  0  0  0  0
  141.4750  134.8405  160.7207 H   0  0  0  0  0  0  0  0  0  0  0  0
  142.2707  136.3102  161.2139 H   0  0  0  0  0  0  0  0  0  0  0  0
  142.8340  134.6822  158.6910 H   0  0  0  0  0  0  0  0  0  0  0  0
  142.0925  136.2731  158.7802 H   0  0  0  0  0  0  0  0  0  0  0  0
  146.0472  139.4770  156.8838 H   0  0  0  0  0  0  0  0  0  0  0  0
  143.2823  134.1957  154.4520 H   0  0  0  0  0  0  0  0  0  0  0  0
  143.6485  136.7439  152.6711 H   0  0  0  0  0  0  0  0  0  0  0  0
  145.3023  137.1422  153.0161 H   0  0  0  0  0  0  0  0  0  0  0  0
  146.3216  136.3367  150.9658 H   0  0  0  0  0  0  0  0  0  0  0  0
  146.1099  134.7118  150.3911 H   0  0  0  0  0  0  0  0  0  0  0  0
  144.4580  136.9213  150.1452 H   0  0  0  0  0  0  0  0  0  0  0  0
  147.0339  134.9545  153.1698 H   0  0  0  0  0  0  0  0  0  0  0  0
  145.7734  134.2178  154.1144 H   0  0  0  0  0  0  0  0  0  0  0  0
  146.9456  133.0379  151.5439 H   0  0  0  0  0  0  0  0  0  0  0  0
  147.1707  132.4587  153.1766 H   0  0  0  0  0  0  0  0  0  0  0  0
  144.7056  132.7939  150.5436 H   0  0  0  0  0  0  0  0  0  0  0  0
  143.4559  132.0610  151.5195 H   0  0  0  0  0  0  0  0  0  0  0  0
  143.3571  133.9655  153.0306 H   0  0  0  0  0  0  0  0  0  0  0  0
  143.1204  134.5314  151.3982 H   0  0  0  0  0  0  0  0  0  0  0  0
  145.3050  134.5110  159.3149 H   0  0  0  0  0  0  0  0  0  0  0  0
  146.1742  135.9581  159.7155 H   0  0  0  0  0  0  0  0  0  0  0  0
  144.3215  137.2711  161.7546 H   0  0  0  0  0  0  0  0  0  0  0  0
  144.6655  136.3482  163.1874 H   0  0  0  0  0  0  0  0  0  0  0  0
  146.7382  137.4716  161.2694 H   0  0  0  0  0  0  0  0  0  0  0  0
  146.4017  138.0037  162.8900 H   0  0  0  0  0  0  0  0  0  0  0  0
  148.4283  136.5401  162.7911 H   0  0  0  0  0  0  0  0  0  0  0  0
  147.1899  135.8714  163.8276 H   0  0  0  0  0  0  0  0  0  0  0  0
  147.7871  135.0233  160.9497 H   0  0  0  0  0  0  0  0  0  0  0  0
  148.1015  134.0947  162.3886 H   0  0  0  0  0  0  0  0  0  0  0  0
  145.7471  133.9022  162.9039 H   0  0  0  0  0  0  0  0  0  0  0  0
  146.0167  133.3067  161.2934 H   0  0  0  0  0  0  0  0  0  0  0  0
  1  2  1  0  0  0  0
  1 31  1  0  0  0  0
  1 32  1  0  0  0  0
  1 33  1  0  0  0  0
  2 25  1  0  0  0  0
  2  3  1  0  0  0  0
  2 34  1  0  0  0  0
  3  4  1  0  0  0  0
  3 35  1  0  0  0  0
  3 36  1  0  0  0  0
  4  5  1  0  0  0  0
  4 37  1  0  0  0  0
  4 38  1  0  0  0  0
  5  6  1  0  0  0  0
  5 24  1  0  0  0  0
  6 11  1  0  0  0  0
  6  7  2  0  0  0  0
  7  8  1  0  0  0  0
  8  9  2  0  0  0  0
  8 39  1  0  0  0  0
  9 10  1  0  0  0  0
 10 14  1  0  0  0  0
 10 11  2  0  0  0  0
 11 12  1  0  0  0  0
 12 13  2  0  0  0  0
 13 14  1  0  0  0  0
 13 40  1  0  0  0  0
 14 15  1  0  0  0  0
 15 16  1  0  0  0  0
 15 41  1  0  0  0  0
 15 42  1  0  0  0  0
 16 23  1  0  0  0  0
 16 17  1  0  0  0  0
 16 19  1  0  0  0  0
 17 18  1  0  0  0  0
 17 43  1  0  0  0  0
 17 44  1  0  0  0  0
 18 45  1  0  0  0  0
 19 20  1  0  0  0  0
 19 46  1  0  0  0  0
 19 47  1  0  0  0  0
 20 21  1  0  0  0  0
 20 48  1  0  0  0  0
 20 49  1  0  0  0  0
 21 22  1  0  0  0  0
 22 23  1  0  0  0  0
 22 50  1  0  0  0  0
 22 51  1  0  0  0  0
 23 52  1  0  0  0  0
 23 53  1  0  0  0  0
 24 25  1  0  0  0  0
 24 54  1  0  0  0  0
 24 55  1  0  0  0  0
 25 30  1  0  0  0  0
 25 26  1  0  0  0  0
 26 27  1  0  0  0  0
 26 56  1  0  0  0  0
 26 57  1  0  0  0  0
 27 28  1  0  0  0  0
 27 58  1  0  0  0  0
 27 59  1  0  0  0  0
 28 29  1  0  0  0  0
 28 60  1  0  0  0  0
 28 61  1  0  0  0  0
 29 30  1  0  0  0  0
 29 62  1  0  0  0  0
 29 63  1  0  0  0  0
 30 64  1  0  0  0  0
 30 65  1  0  0  0  0
M  END
> <s_m_source_file>
AV-unprocessed.smi

> <i_m_source_file_index>
216

> <i_lp_mmshare_version>
43012

> <i_f3d_flags>
0

> <s_epik_input>
W0NIMl0xW0NIMl1bQ0gyXVtDSDJdW0NIMl1DMTJbQ0BIXShbQ0gzXSlbQ0gyXVtDSDJdTihbQ0gyXTIpYyhuW2NIXW4zKWMoYzM0KW5bY0hdbjRbQ0gyXUM1KFtDSDJdW09IXSlbQ0gyXVtDSDJdT1tDSDJdW0NIMl01

> <s_epik_cmdline>
J2VwaWtfcHl0aG9uJywgJy1waCcsICc3LjAnLCAnLXRuJywgJzgnLCAnLW1hJywgJzIwMCcsICctbWV0YWxfYmluZGluZycsICctaW1hZScsICc8aW5maWxlLm1hZT4nLCAnLW9tYWUnLCAnPG91dGZpbGUubWFlPic=

> <r_lp_tautomer_probability>
1

> <r_epik_Ionization_Penalty>
0.00291566

> <r_epik_Ionization_Penalty_Charging>
0

> <r_epik_Ionization_Penalty_Neutral>
0.00291566

> <r_epik_State_Penalty>
0.00199166

> <r_epik_Charging_Adjusted_Penalty>
0.00199166

> <i_epik_Tot_Q>
0

> <i_epik_Tot_abs_Q>
0

> <r_epik_Metal_State_Penalty>
-0

> <b_epik_Metal_Only>
0

> <s_lp_Force_Field>
OPLS_2005

> <r_lp_Energy>
50.0726

> <b_lp_Chiralities_Consistent>
1

> <s_lp_Variant>
AV-unprocessed.smi:216-2

> <Gold.Version>
5.8.1

> <Gold.Id.Protein>
6NUR|6NUR_protein|mol2

> <Gold.PLP.Fitness>
40.5489

> <Gold.PLP.PLP>
-36.2985

> <Gold.PLP.part.hbond>
-1.8555

> <Gold.PLP.part.metal>
0.0000

> <Gold.PLP.part.buried>
-6.8770

> <Gold.PLP.part.nonpolar>
-27.7456

> <Gold.PLP.part.repulsive>
0.2605

> <Gold.PLP.ligand.clash>
0.0000

> <Gold.PLP.ligand.torsion>
1.0367

> <Gold.PLP.Chemscore.Hbond>
1.0000

> <Gold.PLP.Chemscore.CHOScore>
1.0000

> <Gold.PLP.Chemscore.Metal>
0.0000

> <Gold.Chemscore.Hbonds>
donor molecule, donor type, donor heavy atom, donor atom, acceptor molecule, acceptor atom, score
      L1  H    18    45       P1 10171  1.00
      L1  C    13    40       P1 10957  1.00

> <Gold.PLP.Chemscore.Internal.Correction>
0.3239

> <Gold.Rescore>
     Score         DG    S(hbond)    S(metal)    S(lipo)     H(rot)  DE(clash)    DE(int)     intcor
     13.45     -14.49       0.99        0.00      96.91       2.20       0.01       1.03       ----

> <Gold.Chemscore.Fitness>
13.4539

> <Gold.Chemscore.DG>
-14.4924

> <Gold.Chemscore.ZeroCoef>
-5.4800

> <Gold.Chemscore.Hbond>
0.9912

> <Gold.Chemscore.Metal>
0.0000

> <Gold.Chemscore.Lipo>
96.9133

> <Gold.Chemscore.Internal_Hbond>
0.0000

> <Gold.Chemscore.DEClash>
0.0126

> <Gold.Chemscore.DEInternal>
1.0260

> <Gold.Chemscore.Rot>
2.2019

> <Gold.Chemscore.Internal.Correction>
   9.000000E+99

> <Gold.Chemscore.Hbonds>
donor molecule, donor type, donor heavy atom, donor atom, acceptor molecule, acceptor atom, score
      L1  H    18    45       P1 10171  0.99

> <Gold.Chemscore.Hbond.Weighted>
-3.3106

> <Gold.Chemscore.Metal.Weighted>
-0.0000

> <Gold.Chemscore.Lipo.Weighted>
-11.3389

> <Gold.Chemscore.Internal_Hbond.Weighted>
0.0000

> <Gold.Chemscore.DEClash.Weighted>
0.0126

> <Gold.Chemscore.DEInternal.Weighted>
1.0260

> <Gold.Chemscore.Rot.Weighted>
5.6370

> <Gold.Chemscore.Internal.Correction.Weighted>
   9.000000E+99

> <Gold.Protein.RotatedTorsions>
[ 6907 6896 6895 6894 ] final  105.63 input  -60.11 | X-H torsion
[ 7974 7965 7964 7962 ] final   26.85 input  175.53 | X-H torsion
[ 8008 7997 7996 7995 ] final  175.41 input   59.86 | X-H torsion
[ 10167 10162 10161 10158 ] final    8.00 input  -65.29 | X-H torsion
[ 10718 10713 10712 10709 ] final  -17.96 input   66.30 | X-H torsion
[ 10763 10752 10751 10750 ] final   81.32 input  -60.55 | X-H torsion
[ 11005 11000 10999 10996 ] final -128.30 input  -57.11 | X-H torsion

> <Gold.Protein.ActiveResidues>
 VAL166  LYS551  ARG553  GLY616  TRP617  ASP618  TYR619  PRO620  LYS621  CYS622 
 ASP623  PHE694  ASN695  SER759  ASP760  ASP761  ALA762  ILE779  LEU786  VAL792 
 PHE793  MET794  SER795  GLU796  ALA797  LYS798  CYS799  TRP800  GLU811  SER814 

> <Gold.Protein.RotatedAtoms>
  152.5223  133.9500  159.7666 H   0  0  0  0  0  0  0  0  0  0  0  0  # atno 6907 bound_to 6896
  150.9812  133.6235  159.2729 H   0  0  0  0  0  0  0  0  0  0  0  0  # atno 6908 bound_to 6896
  151.3412  135.0870  159.9425 H   0  0  0  0  0  0  0  0  0  0  0  0  # atno 6909 bound_to 6896
  146.1815  139.7271  142.8897 H   0  0  0  0  0  0  0  0  0  0  0  0  # atno 7974 bound_to 7965
  156.0873  140.1409  156.9637 H   0  0  0  0  0  0  0  0  0  0  0  0  # atno 8008 bound_to 7997
  154.4620  140.0939  156.6968 H   0  0  0  0  0  0  0  0  0  0  0  0  # atno 8009 bound_to 7997
  155.4977  140.3450  155.4368 H   0  0  0  0  0  0  0  0  0  0  0  0  # atno 8010 bound_to 7997
  140.6339  143.7930  150.7333 H   0  0  0  0  0  0  0  0  0  0  0  0  # atno 10167 bound_to 10162
  156.5663  130.4738  149.6383 H   0  0  0  0  0  0  0  0  0  0  0  0  # atno 10718 bound_to 10713
  153.1107  135.4770  154.9030 H   0  0  0  0  0  0  0  0  0  0  0  0  # atno 10763 bound_to 10752
  154.7477  135.3098  154.8616 H   0  0  0  0  0  0  0  0  0  0  0  0  # atno 10764 bound_to 10752
  153.9206  135.6855  153.4801 H   0  0  0  0  0  0  0  0  0  0  0  0  # atno 10765 bound_to 10752
  140.9528  134.1043  157.4046 H   0  0  0  0  0  0  0  0  0  0  0  0  # atno 11005 bound_to 11000
  145.4061  141.0391  143.3043 LP  0  0  0  0  0  0  0  0  0  0  0  0  # atno 17320 bound_to 7965
  144.8324  139.5607  143.6938 LP  0  0  0  0  0  0  0  0  0  0  0  0  # atno 17321 bound_to 7965
  140.1547  143.4327  152.2107 LP  0  0  0  0  0  0  0  0  0  0  0  0  # atno 17342 bound_to 10162
  139.5551  144.7367  151.4318 LP  0  0  0  0  0  0  0  0  0  0  0  0  # atno 17343 bound_to 10162
  156.2754  130.7041  151.1850 LP  0  0  0  0  0  0  0  0  0  0  0  0  # atno 17370 bound_to 10713
  157.7358  131.0569  150.5450 LP  0  0  0  0  0  0  0  0  0  0  0  0  # atno 17371 bound_to 10713
  139.8852  135.0071  156.6423 LP  0  0  0  0  0  0  0  0  0  0  0  0  # atno 17394 bound_to 11000
  140.7579  133.8842  155.8396 LP  0  0  0  0  0  0  0  0  0  0  0  0  # atno 17395 bound_to 11000

$$$$
