AV-unprocessed.smi:62|AV-procd|sdf|601|dock4
  -GOLD-   2262016493D 1   1.00000     0.00000
 Structure written by MMmdl.
 31 32  0  0  0  0  0  0  0  0  3 V2000
  152.2350  144.9227  159.2727 C   0  0  0  0  0  0  0  0  0  0  0  0
  151.6443  143.7235  158.7187 N   0  0  0  0  0  0  0  0  0  0  0  0
  150.3747  143.5390  158.2213 C   0  0  0  0  0  0  0  0  0  0  0  0
  150.2692  142.2407  157.8044 C   0  0  0  0  0  0  0  0  0  0  0  0
  149.0482  141.6008  157.1866 C   0  0  0  0  0  0  0  0  0  0  0  0
  148.8328  142.0744  155.7998 N   0  3  1  0  0  0  0  0  0  0  0  0
  149.8739  141.6850  154.8174 C   0  0  0  0  0  0  0  0  0  0  0  0
  149.1379  141.2233  153.5527 C   0  0  0  0  0  0  0  0  0  0  0  0
  147.7246  141.7761  153.7191 C   0  0  1  0  0  0  0  0  0  0  0  0
  146.7675  141.0103  153.0180 O   0  0  0  0  0  0  0  0  0  0  0  0
  147.5183  141.7188  155.2303 C   0  0  0  0  0  0  0  0  0  0  0  0
  151.5657  141.6981  158.1016 C   0  0  0  0  0  0  0  0  0  0  0  0
  151.9236  140.2617  157.8234 C   0  0  0  0  0  0  0  0  0  0  0  0
  153.0948  139.8622  158.0058 O   0  0  0  0  0  0  0  0  0  0  0  0
  151.0221  139.5056  157.4008 O   0  5  0  0  0  0  0  0  0  0  0  0
  152.3754  142.5960  158.6465 N   0  0  0  0  0  0  0  0  0  0  0  0
  151.5079  145.7351  159.2676 H   0  0  0  0  0  0  0  0  0  0  0  0
  153.0997  145.2168  158.6769 H   0  0  0  0  0  0  0  0  0  0  0  0
  152.5533  144.7374  160.2991 H   0  0  0  0  0  0  0  0  0  0  0  0
  149.6530  144.3424  158.2023 H   0  0  0  0  0  0  0  0  0  0  0  0
  149.1365  140.5134  157.1776 H   0  0  0  0  0  0  0  0  0  0  0  0
  148.1581  141.8187  157.7779 H   0  0  0  0  0  0  0  0  0  0  0  0
  150.4992  142.5547  154.6131 H   0  0  0  0  0  0  0  0  0  0  0  0
  150.5218  140.8917  155.1930 H   0  0  0  0  0  0  0  0  0  0  0  0
  149.6196  141.5619  152.6349 H   0  0  0  0  0  0  0  0  0  0  0  0
  149.1138  140.1324  153.5319 H   0  0  0  0  0  0  0  0  0  0  0  0
  147.6873  142.8121  153.3790 H   0  0  0  0  0  0  0  0  0  0  0  0
  146.0276  141.5628  152.8154 H   0  0  0  0  0  0  0  0  0  0  0  0
  147.2534  140.7042  155.5346 H   0  0  0  0  0  0  0  0  0  0  0  0
  146.7337  142.3927  155.5760 H   0  0  0  0  0  0  0  0  0  0  0  0
  148.8478  143.0847  155.8395 H   0  0  0  0  0  0  0  0  0  0  0  0
  1  2  1  0  0  0  0
  1 17  1  0  0  0  0
  1 18  1  0  0  0  0
  1 19  1  0  0  0  0
  2 16  1  0  0  0  0
  2  3  1  0  0  0  0
  3  4  2  0  0  0  0
  3 20  1  0  0  0  0
  4  5  1  0  0  0  0
  4 12  1  0  0  0  0
  5  6  1  0  0  0  0
  5 21  1  0  0  0  0
  5 22  1  0  0  0  0
  6 11  1  0  0  0  0
  6  7  1  0  0  0  0
  6 31  1  0  0  0  0
  7  8  1  0  0  0  0
  7 23  1  0  0  0  0
  7 24  1  0  0  0  0
  8  9  1  0  0  0  0
  8 25  1  0  0  0  0
  8 26  1  0  0  0  0
  9 10  1  0  0  0  0
  9 11  1  0  0  0  0
  9 27  1  0  0  0  0
 10 28  1  0  0  0  0
 11 29  1  0  0  0  0
 11 30  1  0  0  0  0
 12 13  1  0  0  0  0
 12 16  2  0  0  0  0
 13 14  2  0  0  0  0
 13 15  1  0  0  0  0
M  CHG  1   6   1
M  CHG  1  15  -1
M  END
> <s_m_source_file>
AV-unprocessed.smi

> <i_m_source_file_index>
62

> <i_lp_mmshare_version>
43012

> <i_f3d_flags>
0

> <s_epik_input>
W0NIM11uMVtjSF1jKGMobjEpQyg9TylbT0hdKVtDSDJdTjJbQ0gyXVtDSDJdW0NAQEhdKFtPSF0pW0NIMl0y

> <s_epik_cmdline>
J2VwaWtfcHl0aG9uJywgJy1waCcsICc3LjAnLCAnLXRuJywgJzgnLCAnLW1hJywgJzIwMCcsICctbWV0YWxfYmluZGluZycsICctaW1hZScsICc8aW5maWxlLm1hZT4nLCAnLW9tYWUnLCAnPG91dGZpbGUubWFlPic=

> <r_epik_Ionization_Penalty>
0.0522993

> <r_epik_Ionization_Penalty_Charging>
0.0522915

> <r_epik_Ionization_Penalty_Neutral>
7.84975e-06

> <r_epik_State_Penalty>
0.0448084

> <r_epik_Charging_Adjusted_Penalty>
0.0970998

> <i_epik_Tot_Q>
0

> <i_epik_Tot_abs_Q>
2

> <r_epik_Metal_State_Penalty>
0.0448097

> <b_epik_Metal_Only>
0

> <s_lp_Force_Field>
OPLS_2005

> <r_lp_Energy>
17.2463

> <b_lp_Chiralities_Consistent>
1

> <s_lp_Variant>
AV-unprocessed.smi:62-1

> <Gold.Version>
5.8.1

> <Gold.Id.Protein>
6NUR|6NUR_protein|mol2

> <Gold.PLP.Fitness>
45.1802

> <Gold.PLP.PLP>
-29.6398

> <Gold.PLP.part.hbond>
-3.0000

> <Gold.PLP.part.metal>
0.0000

> <Gold.PLP.part.buried>
-2.7221

> <Gold.PLP.part.nonpolar>
-24.4433

> <Gold.PLP.part.repulsive>
0.0428

> <Gold.PLP.ligand.clash>
0.0000

> <Gold.PLP.ligand.torsion>
0.2056

> <Gold.PLP.Chemscore.Hbond>
4.2941

> <Gold.PLP.Chemscore.CHOScore>
1.0193

> <Gold.PLP.Chemscore.Metal>
0.0000

> <Gold.Chemscore.Hbonds>
donor molecule, donor type, donor heavy atom, donor atom, acceptor molecule, acceptor atom, score
      L1  H     6    31       P1  8028  2.00
      P1  H  7997  8009       L1    14  2.00
      L1  C     3    20       P1  8028  0.22
      L1  C     3    20       P1  8029  0.74

> <Gold.PLP.Chemscore.Internal.Correction>
0.0116

> <Gold.Rescore>
     Score         DG    S(hbond)    S(metal)    S(lipo)     H(rot)  DE(clash)    DE(int)     intcor
     13.51     -15.18       1.99        0.00      65.71       1.81       0.12       1.55       ----

> <Gold.Chemscore.Fitness>
13.5116

> <Gold.Chemscore.DG>
-15.1826

> <Gold.Chemscore.ZeroCoef>
-5.4800

> <Gold.Chemscore.Hbond>
1.9899

> <Gold.Chemscore.Metal>
0.0000

> <Gold.Chemscore.Lipo>
65.7070

> <Gold.Chemscore.Internal_Hbond>
0.0000

> <Gold.Chemscore.DEClash>
0.1177

> <Gold.Chemscore.DEInternal>
1.5533

> <Gold.Chemscore.Rot>
1.8091

> <Gold.Chemscore.Internal.Correction>
   9.000000E+99

> <Gold.Chemscore.Hbonds>
donor molecule, donor type, donor heavy atom, donor atom, acceptor molecule, acceptor atom, score
      L1  H     6    31       P1  8028  1.00
      P1  H  7997  8009       L1    14  0.99

> <Gold.Chemscore.Hbond.Weighted>
-6.6463

> <Gold.Chemscore.Metal.Weighted>
-0.0000

> <Gold.Chemscore.Lipo.Weighted>
-7.6877

> <Gold.Chemscore.Internal_Hbond.Weighted>
0.0000

> <Gold.Chemscore.DEClash.Weighted>
0.1177

> <Gold.Chemscore.DEInternal.Weighted>
1.5533

> <Gold.Chemscore.Rot.Weighted>
4.6314

> <Gold.Chemscore.Internal.Correction.Weighted>
   9.000000E+99

> <Gold.Protein.RotatedTorsions>
[ 6907 6896 6895 6894 ] final   75.48 input  -60.11 | X-H torsion
[ 7974 7965 7964 7962 ] final  -27.19 input  175.53 | X-H torsion
[ 8008 7997 7996 7995 ] final  156.76 input   59.86 | X-H torsion
[ 10167 10162 10161 10158 ] final  -83.85 input  -65.29 | X-H torsion
[ 10718 10713 10712 10709 ] final  -93.85 input   66.30 | X-H torsion
[ 10763 10752 10751 10750 ] final  -20.16 input  -60.55 | X-H torsion
[ 11005 11000 10999 10996 ] final   43.06 input  -57.11 | X-H torsion

> <Gold.Protein.ActiveResidues>
 VAL166  LYS551  ARG553  GLY616  TRP617  ASP618  TYR619  PRO620  LYS621  CYS622 
 ASP623  PHE694  ASN695  SER759  ASP760  ASP761  ALA762  ILE779  LEU786  VAL792 
 PHE793  MET794  SER795  GLU796  ALA797  LYS798  CYS799  TRP800  GLU811  SER814 

> <Gold.Protein.RotatedAtoms>
  152.5028  134.4113  159.9449 H   0  0  0  0  0  0  0  0  0  0  0  0  # atno 6907 bound_to 6896
  151.4081  133.3730  159.2748 H   0  0  0  0  0  0  0  0  0  0  0  0  # atno 6908 bound_to 6896
  150.9311  134.8748  159.7611 H   0  0  0  0  0  0  0  0  0  0  0  0  # atno 6909 bound_to 6896
  146.1375  140.5119  142.8666 H   0  0  0  0  0  0  0  0  0  0  0  0  # atno 7974 bound_to 7965
  156.2404  140.1903  156.7005 H   0  0  0  0  0  0  0  0  0  0  0  0  # atno 8008 bound_to 7997
  154.6186  140.0612  156.9612 H   0  0  0  0  0  0  0  0  0  0  0  0  # atno 8009 bound_to 7997
  155.1899  140.3283  155.4363 H   0  0  0  0  0  0  0  0  0  0  0  0  # atno 8010 bound_to 7997
  140.4187  143.2593  151.8919 H   0  0  0  0  0  0  0  0  0  0  0  0  # atno 10167 bound_to 10162
  156.0019  130.5044  150.5838 H   0  0  0  0  0  0  0  0  0  0  0  0  # atno 10718 bound_to 10713
  153.6161  135.6994  153.5328 H   0  0  0  0  0  0  0  0  0  0  0  0  # atno 10763 bound_to 10752
  153.2976  135.4138  155.1223 H   0  0  0  0  0  0  0  0  0  0  0  0  # atno 10764 bound_to 10752
  154.8553  135.3641  154.5701 H   0  0  0  0  0  0  0  0  0  0  0  0  # atno 10765 bound_to 10752
  140.1680  134.4258  155.8275 H   0  0  0  0  0  0  0  0  0  0  0  0  # atno 11005 bound_to 11000
  144.7755  140.5731  143.6641 LP  0  0  0  0  0  0  0  0  0  0  0  0  # atno 17320 bound_to 7965
  145.5123  139.1479  143.3598 LP  0  0  0  0  0  0  0  0  0  0  0  0  # atno 17321 bound_to 7965
  139.4782  144.5460  151.8457 LP  0  0  0  0  0  0  0  0  0  0  0  0  # atno 17342 bound_to 10162
  140.4557  144.1792  150.5901 LP  0  0  0  0  0  0  0  0  0  0  0  0  # atno 17343 bound_to 10162
  157.3714  131.0766  151.1554 LP  0  0  0  0  0  0  0  0  0  0  0  0  # atno 17370 bound_to 10713
  157.2307  130.6523  149.5848 LP  0  0  0  0  0  0  0  0  0  0  0  0  # atno 17371 bound_to 10713
  141.2215  133.6943  156.7712 LP  0  0  0  0  0  0  0  0  0  0  0  0  # atno 17394 bound_to 11000
  140.2411  134.8613  157.3574 LP  0  0  0  0  0  0  0  0  0  0  0  0  # atno 17395 bound_to 11000

$$$$
