AV-unprocessed.smi:1064|AV-procd|sdf|4665|dock9
  -GOLD-   22720 3173D 1   1.00000     0.00000
 Structure written by MMmdl.
 36 37  0  0  0  0  0  0  0  0  2 V2000
  152.1996  140.7222  158.2007 O   0  0  0  0  0  0  0  0  0  0  0  0
  151.7828  141.8587  157.9715 C   0  0  0  0  0  0  0  0  0  0  0  0
  150.7056  142.0784  157.1978 N   0  0  0  0  0  0  0  0  0  0  0  0
  149.9038  141.0427  156.5574 C   0  0  0  0  0  0  0  0  0  0  0  0
  150.0296  141.0976  155.0240 C   0  0  0  0  0  0  0  0  0  0  0  0
  148.7471  141.4135  154.3128 C   0  0  0  0  0  0  0  0  0  0  0  0
  148.0583  142.5590  154.3968 N   0  3  0  0  0  0  0  0  0  0  0  0
  146.9273  142.4958  153.6304 C   0  0  0  0  0  0  0  0  0  0  0  0
  146.9161  141.2500  153.0608 C   0  0  0  0  0  0  0  0  0  0  0  0
  148.0399  140.6022  153.5068 N   0  0  0  0  0  0  0  0  0  0  0  0
  148.4479  139.2375  153.1577 C   0  0  0  0  0  0  0  0  0  0  0  0
  148.4926  138.4750  154.2498 F   0  0  0  0  0  0  0  0  0  0  0  0
  147.6132  138.7139  152.2596 F   0  0  0  0  0  0  0  0  0  0  0  0
  152.3767  142.9803  158.4530 N   0  0  0  0  0  0  0  0  0  0  0  0
  152.0616  144.3636  158.0586 C   0  0  0  0  0  0  0  0  0  0  0  0
  151.0885  144.9703  159.0832 C   0  0  0  0  0  0  0  0  0  0  0  0
  151.8500  145.0533  160.7342 S   0  0  0  0  0  0  0  0  0  0  0  0
  152.4668  143.3464  160.8746 C   0  0  0  0  0  0  0  0  0  0  0  0
  153.2627  142.9403  159.6225 C   0  0  0  0  0  0  0  0  0  0  0  0
  150.4217  143.0356  157.0471 H   0  0  0  0  0  0  0  0  0  0  0  0
  150.1982  140.0627  156.9369 H   0  0  0  0  0  0  0  0  0  0  0  0
  148.8647  141.1939  156.8514 H   0  0  0  0  0  0  0  0  0  0  0  0
  150.7546  141.8582  154.7344 H   0  0  0  0  0  0  0  0  0  0  0  0
  150.3742  140.1429  154.6254 H   0  0  0  0  0  0  0  0  0  0  0  0
  146.2327  143.3194  153.5516 H   0  0  0  0  0  0  0  0  0  0  0  0
  146.2064  140.7867  152.3909 H   0  0  0  0  0  0  0  0  0  0  0  0
  149.4456  139.2567  152.7179 H   0  0  0  0  0  0  0  0  0  0  0  0
  152.9768  144.9561  158.0214 H   0  0  0  0  0  0  0  0  0  0  0  0
  151.6410  144.4387  157.0558 H   0  0  0  0  0  0  0  0  0  0  0  0
  150.7980  145.9771  158.7824 H   0  0  0  0  0  0  0  0  0  0  0  0
  150.1751  144.3770  159.1404 H   0  0  0  0  0  0  0  0  0  0  0  0
  153.0926  143.2727  161.7640 H   0  0  0  0  0  0  0  0  0  0  0  0
  151.6214  142.6733  161.0224 H   0  0  0  0  0  0  0  0  0  0  0  0
  153.7036  141.9529  159.7667 H   0  0  0  0  0  0  0  0  0  0  0  0
  154.1082  143.6143  159.4778 H   0  0  0  0  0  0  0  0  0  0  0  0
  148.3392  143.3590  154.9498 H   0  0  0  0  0  0  0  0  0  0  0  0
  1  2  2  0  0  0  0
  2  3  1  0  0  0  0
  2 14  1  0  0  0  0
  3  4  1  0  0  0  0
  3 20  1  0  0  0  0
  4  5  1  0  0  0  0
  4 21  1  0  0  0  0
  4 22  1  0  0  0  0
  5  6  1  0  0  0  0
  5 23  1  0  0  0  0
  5 24  1  0  0  0  0
  6 10  1  0  0  0  0
  6  7  2  0  0  0  0
  7  8  1  0  0  0  0
  7 36  1  0  0  0  0
  8  9  2  0  0  0  0
  8 25  1  0  0  0  0
  9 10  1  0  0  0  0
  9 26  1  0  0  0  0
 10 11  1  0  0  0  0
 11 12  1  0  0  0  0
 11 13  1  0  0  0  0
 11 27  1  0  0  0  0
 14 19  1  0  0  0  0
 14 15  1  0  0  0  0
 15 16  1  0  0  0  0
 15 28  1  0  0  0  0
 15 29  1  0  0  0  0
 16 17  1  0  0  0  0
 16 30  1  0  0  0  0
 16 31  1  0  0  0  0
 17 18  1  0  0  0  0
 18 19  1  0  0  0  0
 18 32  1  0  0  0  0
 18 33  1  0  0  0  0
 19 34  1  0  0  0  0
 19 35  1  0  0  0  0
M  CHG  1   7   1
M  END
> <s_m_source_file>
AV-unprocessed.smi

> <i_m_source_file_index>
1064

> <i_lp_mmshare_version>
43012

> <i_f3d_flags>
0

> <s_epik_input>
W0NIMl0xW0NIMl1TW0NIMl1bQ0gyXU4xQyg9TylbTkhdW0NIMl1bQ0gyXWMybltjSF1bY0hdbjJbQ0hdKEYpRg==

> <s_epik_cmdline>
J2VwaWtfcHl0aG9uJywgJy1waCcsICc3LjAnLCAnLXRuJywgJzgnLCAnLW1hJywgJzIwMCcsICctbWV0YWxfYmluZGluZycsICctaW1hZScsICc8aW5maWxlLm1hZT4nLCAnLW9tYWUnLCAnPG91dGZpbGUubWFlPic=

> <r_lp_tautomer_probability>
1

> <r_epik_Ionization_Penalty>
1.10071

> <r_epik_Ionization_Penalty_Charging>
0

> <r_epik_Ionization_Penalty_Neutral>
1.10071

> <r_epik_State_Penalty>
1.15778

> <r_epik_Charging_Adjusted_Penalty>
1.15778

> <i_epik_Tot_Q>
1

> <i_epik_Tot_abs_Q>
1

> <r_epik_Metal_State_Penalty>
1.24497

> <b_epik_Metal_Only>
0

> <s_lp_Force_Field>
OPLS_2005

> <r_lp_Energy>
29.6346

> <b_lp_Chiralities_Consistent>
1

> <s_lp_Variant>
AV-unprocessed.smi:1064-2

> <Gold.Version>
5.8.1

> <Gold.Id.Protein>
6NUR|6NUR_protein|mol2

> <Gold.PLP.Fitness>
51.4466

> <Gold.PLP.PLP>
-43.5291

> <Gold.PLP.part.hbond>
-1.0000

> <Gold.PLP.part.metal>
0.0000

> <Gold.PLP.part.buried>
-2.7609

> <Gold.PLP.part.nonpolar>
-40.8974

> <Gold.PLP.part.repulsive>
0.2041

> <Gold.PLP.ligand.clash>
0.0201

> <Gold.PLP.ligand.torsion>
0.5643

> <Gold.PLP.Chemscore.Hbond>
2.0000

> <Gold.PLP.Chemscore.CHOScore>
1.0000

> <Gold.PLP.Chemscore.Metal>
0.0000

> <Gold.Chemscore.Hbonds>
donor molecule, donor type, donor heavy atom, donor atom, acceptor molecule, acceptor atom, score
      L1  H     7    36       P1  8028  2.00
      L1  C     9    26       P1 10175  0.91

> <Gold.PLP.Chemscore.Internal.Correction>
0.0661

> <Gold.Rescore>
     Score         DG    S(hbond)    S(metal)    S(lipo)     H(rot)  DE(clash)    DE(int)     intcor
     14.76     -16.19       1.27        0.00      91.55       1.65       0.89       0.54       ----

> <Gold.Chemscore.Fitness>
14.7584

> <Gold.Chemscore.DG>
-16.1861

> <Gold.Chemscore.ZeroCoef>
-5.4800

> <Gold.Chemscore.Hbond>
1.2651

> <Gold.Chemscore.Metal>
0.0000

> <Gold.Chemscore.Lipo>
91.5477

> <Gold.Chemscore.Internal_Hbond>
0.0000

> <Gold.Chemscore.DEClash>
0.8862

> <Gold.Chemscore.DEInternal>
0.5416

> <Gold.Chemscore.Rot>
1.6525

> <Gold.Chemscore.Internal.Correction>
   9.000000E+99

> <Gold.Chemscore.Hbonds>
donor molecule, donor type, donor heavy atom, donor atom, acceptor molecule, acceptor atom, score
      L1  H     7    36       P1  8028  0.98

> <Gold.Chemscore.Hbond.Weighted>
-4.2255

> <Gold.Chemscore.Metal.Weighted>
-0.0000

> <Gold.Chemscore.Lipo.Weighted>
-10.7111

> <Gold.Chemscore.Internal_Hbond.Weighted>
0.0000

> <Gold.Chemscore.DEClash.Weighted>
0.8862

> <Gold.Chemscore.DEInternal.Weighted>
0.5416

> <Gold.Chemscore.Rot.Weighted>
4.2304

> <Gold.Chemscore.Internal.Correction.Weighted>
   9.000000E+99

> <Gold.Protein.RotatedTorsions>
[ 6907 6896 6895 6894 ] final  109.97 input  -60.11 | X-H torsion
[ 7974 7965 7964 7962 ] final   95.87 input  175.53 | X-H torsion
[ 8008 7997 7996 7995 ] final   12.99 input   59.86 | X-H torsion
[ 10167 10162 10161 10158 ] final   39.49 input  -65.29 | X-H torsion
[ 10718 10713 10712 10709 ] final   56.96 input   66.30 | X-H torsion
[ 10763 10752 10751 10750 ] final  -86.24 input  -60.55 | X-H torsion
[ 11005 11000 10999 10996 ] final  166.93 input  -57.11 | X-H torsion

> <Gold.Protein.ActiveResidues>
 VAL166  LYS551  ARG553  GLY616  TRP617  ASP618  TYR619  PRO620  LYS621  CYS622 
 ASP623  PHE694  ASN695  SER759  ASP760  ASP761  ALA762  ILE779  LEU786  VAL792 
 PHE793  MET794  SER795  GLU796  ALA797  LYS798  CYS799  TRP800  GLU811  SER814 

> <Gold.Protein.RotatedAtoms>
  152.5042  133.8867  159.7373 H   0  0  0  0  0  0  0  0  0  0  0  0  # atno 6907 bound_to 6896
  150.9316  133.6751  159.2816 H   0  0  0  0  0  0  0  0  0  0  0  0  # atno 6908 bound_to 6896
  151.4094  135.0987  159.9633 H   0  0  0  0  0  0  0  0  0  0  0  0  # atno 6909 bound_to 6896
  145.4465  139.2297  143.3063 H   0  0  0  0  0  0  0  0  0  0  0  0  # atno 7974 bound_to 7965
  154.8283  140.2895  155.5740 H   0  0  0  0  0  0  0  0  0  0  0  0  # atno 8008 bound_to 7997
  156.3003  140.2537  156.3134 H   0  0  0  0  0  0  0  0  0  0  0  0  # atno 8009 bound_to 7997
  154.9260  140.0384  157.2012 H   0  0  0  0  0  0  0  0  0  0  0  0  # atno 8010 bound_to 7997
  140.3835  144.1948  150.6130 H   0  0  0  0  0  0  0  0  0  0  0  0  # atno 10167 bound_to 10162
  157.5475  130.8741  149.8913 H   0  0  0  0  0  0  0  0  0  0  0  0  # atno 10718 bound_to 10713
  154.6202  135.5456  153.7567 H   0  0  0  0  0  0  0  0  0  0  0  0  # atno 10763 bound_to 10752
  153.0235  135.6411  154.1451 H   0  0  0  0  0  0  0  0  0  0  0  0  # atno 10764 bound_to 10752
  154.1386  135.2910  155.3147 H   0  0  0  0  0  0  0  0  0  0  0  0  # atno 10765 bound_to 10752
  140.2716  134.7822  157.3680 H   0  0  0  0  0  0  0  0  0  0  0  0  # atno 11005 bound_to 11000
  146.2528  140.5219  142.8886 LP  0  0  0  0  0  0  0  0  0  0  0  0  # atno 17320 bound_to 7965
  144.8089  140.6349  143.6429 LP  0  0  0  0  0  0  0  0  0  0  0  0  # atno 17321 bound_to 7965
  140.4913  143.2346  151.8814 LP  0  0  0  0  0  0  0  0  0  0  0  0  # atno 17342 bound_to 10162
  139.4793  144.5162  151.8864 LP  0  0  0  0  0  0  0  0  0  0  0  0  # atno 17343 bound_to 10162
  156.0548  130.3710  150.1116 LP  0  0  0  0  0  0  0  0  0  0  0  0  # atno 17370 bound_to 10713
  156.9292  130.9708  151.3536 LP  0  0  0  0  0  0  0  0  0  0  0  0  # atno 17371 bound_to 10713
  140.1368  134.5023  155.8062 LP  0  0  0  0  0  0  0  0  0  0  0  0  # atno 17394 bound_to 11000
  141.2176  133.6810  156.7139 LP  0  0  0  0  0  0  0  0  0  0  0  0  # atno 17395 bound_to 11000

$$$$
