AV-unprocessed.smi:240|AV-procd|sdf|1828|dock3
  -GOLD-   2262020433D 1   1.00000     0.00000
 Structure written by MMmdl.
 55 59  0  0  0  0  0  0  0  0  1 V2000
  146.2589  131.6107  159.9323 O   0  0  0  0  0  0  0  0  0  0  0  0
  145.5282  132.7180  159.4474 C   0  0  2  0  0  0  0  0  0  0  0  0
  145.0851  132.4850  158.0042 C   0  0  0  0  0  0  0  0  0  0  0  0
  144.7865  133.8906  157.4882 C   0  0  0  0  0  0  0  0  0  0  0  0
  145.7957  134.8080  158.1922 C   0  0  0  0  0  0  0  0  0  0  0  0
  146.3736  134.0072  159.3796 C   0  0  1  0  0  0  0  0  0  0  0  0
  146.5180  134.8280  160.7017 C   0  0  1  0  0  0  0  0  0  0  0  0
  146.6553  133.9342  161.9627 C   0  0  0  0  0  0  0  0  0  0  0  0
  146.7495  134.7401  163.1300 O   0  0  0  0  0  0  0  0  0  0  0  0
  147.9134  135.5544  163.1066 C   0  0  0  0  0  0  0  0  0  0  0  0
  147.8181  136.5216  161.9200 C   0  0  0  0  0  0  0  0  0  0  0  0
  147.6291  135.7930  160.6689 N   0  0  0  0  0  0  0  0  0  0  0  0
  147.6747  136.6620  159.6310 C   0  0  0  0  0  0  0  0  0  0  0  0
  146.8723  137.7599  159.6171 N   0  0  0  0  0  0  0  0  0  0  0  0
  146.9251  138.6129  158.5898 C   0  0  0  0  0  0  0  0  0  0  0  0
  147.6960  138.5620  157.5010 N   0  0  0  0  0  0  0  0  0  0  0  0
  148.5148  137.4709  157.5229 C   0  0  0  0  0  0  0  0  0  0  0  0
  148.5707  136.4827  158.5444 C   0  0  0  0  0  0  0  0  0  0  0  0
  149.5217  135.5217  158.2282 N   0  0  0  0  0  0  0  0  0  0  0  0
  149.9957  135.9141  157.0772 C   0  0  0  0  0  0  0  0  0  0  0  0
  149.4523  137.0794  156.5827 N   0  0  0  0  0  0  0  0  0  0  0  0
  149.7884  137.7353  155.3279 C   0  0  0  0  0  0  0  0  0  0  0  0
  150.8063  138.8891  155.4842 C   0  0  1  0  0  0  0  0  0  0  0  0
  150.5731  139.8466  154.4654 O   0  0  0  0  0  0  0  0  0  0  0  0
  150.7058  139.5911  156.8323 C   0  0  0  0  0  0  0  0  0  0  0  0
  152.1224  140.1059  157.0481 C   0  0  0  0  0  0  0  0  0  0  0  0
  152.9247  139.0438  156.5607 O   0  0  0  0  0  0  0  0  0  0  0  0
  152.2882  138.4632  155.4258 C   0  0  0  0  0  0  0  0  0  0  0  0
  146.9786  131.9305  160.4545 H   0  0  0  0  0  0  0  0  0  0  0  0
  144.6405  132.8516  160.0629 H   0  0  0  0  0  0  0  0  0  0  0  0
  145.8990  132.0500  157.4220 H   0  0  0  0  0  0  0  0  0  0  0  0
  144.2260  131.8177  157.9289 H   0  0  0  0  0  0  0  0  0  0  0  0
  144.8478  133.9569  156.4016 H   0  0  0  0  0  0  0  0  0  0  0  0
  143.7742  134.1749  157.7788 H   0  0  0  0  0  0  0  0  0  0  0  0
  146.5998  135.0818  157.5080 H   0  0  0  0  0  0  0  0  0  0  0  0
  145.3176  135.7396  158.4910 H   0  0  0  0  0  0  0  0  0  0  0  0
  147.3663  133.7088  159.0417 H   0  0  0  0  0  0  0  0  0  0  0  0
  145.6013  135.4068  160.8246 H   0  0  0  0  0  0  0  0  0  0  0  0
  145.7925  133.2808  162.0805 H   0  0  0  0  0  0  0  0  0  0  0  0
  147.5319  133.2889  161.9146 H   0  0  0  0  0  0  0  0  0  0  0  0
  147.9773  136.1117  164.0411 H   0  0  0  0  0  0  0  0  0  0  0  0
  148.8110  134.9370  163.0398 H   0  0  0  0  0  0  0  0  0  0  0  0
  146.9830  137.2078  162.0705 H   0  0  0  0  0  0  0  0  0  0  0  0
  148.7253  137.1259  161.8702 H   0  0  0  0  0  0  0  0  0  0  0  0
  146.2527  139.4560  158.6482 H   0  0  0  0  0  0  0  0  0  0  0  0
  150.7624  135.3610  156.5543 H   0  0  0  0  0  0  0  0  0  0  0  0
  150.1746  136.9812  154.6409 H   0  0  0  0  0  0  0  0  0  0  0  0
  148.8656  138.1085  154.8820 H   0  0  0  0  0  0  0  0  0  0  0  0
  149.7388  139.6580  154.0636 H   0  0  0  0  0  0  0  0  0  0  0  0
  149.9522  140.3793  156.8639 H   0  0  0  0  0  0  0  0  0  0  0  0
  150.4668  138.8721  157.6171 H   0  0  0  0  0  0  0  0  0  0  0  0
  152.3067  141.0056  156.4593 H   0  0  0  0  0  0  0  0  0  0  0  0
  152.3380  140.3268  158.0935 H   0  0  0  0  0  0  0  0  0  0  0  0
  152.4113  137.3827  155.4912 H   0  0  0  0  0  0  0  0  0  0  0  0
  152.7787  138.7922  154.5082 H   0  0  0  0  0  0  0  0  0  0  0  0
  1  2  1  0  0  0  0
  1 29  1  0  0  0  0
  2  6  1  0  0  0  0
  2  3  1  0  0  0  0
  2 30  1  0  0  0  0
  3  4  1  0  0  0  0
  3 31  1  0  0  0  0
  3 32  1  0  0  0  0
  4  5  1  0  0  0  0
  4 33  1  0  0  0  0
  4 34  1  0  0  0  0
  5  6  1  0  0  0  0
  5 35  1  0  0  0  0
  5 36  1  0  0  0  0
  6  7  1  0  0  0  0
  6 37  1  0  0  0  0
  7 12  1  0  0  0  0
  7  8  1  0  0  0  0
  7 38  1  0  0  0  0
  8  9  1  0  0  0  0
  8 39  1  0  0  0  0
  8 40  1  0  0  0  0
  9 10  1  0  0  0  0
 10 11  1  0  0  0  0
 10 41  1  0  0  0  0
 10 42  1  0  0  0  0
 11 12  1  0  0  0  0
 11 43  1  0  0  0  0
 11 44  1  0  0  0  0
 12 13  1  0  0  0  0
 13 18  1  0  0  0  0
 13 14  2  0  0  0  0
 14 15  1  0  0  0  0
 15 16  2  0  0  0  0
 15 45  1  0  0  0  0
 16 17  1  0  0  0  0
 17 21  1  0  0  0  0
 17 18  2  0  0  0  0
 18 19  1  0  0  0  0
 19 20  2  0  0  0  0
 20 21  1  0  0  0  0
 20 46  1  0  0  0  0
 21 22  1  0  0  0  0
 22 23  1  0  0  0  0
 22 47  1  0  0  0  0
 22 48  1  0  0  0  0
 23 28  1  0  0  0  0
 23 24  1  0  0  0  0
 23 25  1  0  0  0  0
 24 49  1  0  0  0  0
 25 26  1  0  0  0  0
 25 50  1  0  0  0  0
 25 51  1  0  0  0  0
 26 27  1  0  0  0  0
 26 52  1  0  0  0  0
 26 53  1  0  0  0  0
 27 28  1  0  0  0  0
 28 54  1  0  0  0  0
 28 55  1  0  0  0  0
M  END
> <s_m_source_file>
AV-unprocessed.smi

> <i_m_source_file_index>
240

> <i_lp_mmshare_version>
43012

> <i_f3d_flags>
0

> <s_epik_input>
W09IXVtDQEBIXTFbQ0gyXVtDSDJdW0NIMl1bQ0BIXTFbQ0BASF0yW0NIMl1PW0NIMl1bQ0gyXU4yYyhuW2NIXW4zKWMoYzM0KW5bY0hdbjRbQ0gyXVtDQEBdNShbT0hdKVtDSDJdW0NIMl1PW0NIMl01

> <s_epik_cmdline>
J2VwaWtfcHl0aG9uJywgJy1waCcsICc3LjAnLCAnLXRuJywgJzgnLCAnLW1hJywgJzIwMCcsICctbWV0YWxfYmluZGluZycsICctaW1hZScsICc8aW5maWxlLm1hZT4nLCAnLW9tYWUnLCAnPG91dGZpbGUubWFlPic=

> <r_lp_tautomer_probability>
1

> <r_epik_Ionization_Penalty>
0.000130618

> <r_epik_Ionization_Penalty_Charging>
0

> <r_epik_Ionization_Penalty_Neutral>
0.000130618

> <r_epik_State_Penalty>
-0

> <r_epik_Charging_Adjusted_Penalty>
0

> <i_epik_Tot_Q>
0

> <i_epik_Tot_abs_Q>
0

> <r_epik_Metal_State_Penalty>
-0

> <b_epik_Metal_Only>
0

> <s_lp_Force_Field>
OPLS_2005

> <r_lp_Energy>
59.9569

> <b_lp_Chiralities_Consistent>
1

> <s_lp_Variant>
AV-unprocessed.smi:240-5

> <Gold.Version>
5.8.1

> <Gold.Id.Protein>
6NUR|6NUR_protein|mol2

> <Gold.PLP.Fitness>
38.8786

> <Gold.PLP.PLP>
-30.7955

> <Gold.PLP.part.hbond>
-4.6406

> <Gold.PLP.part.metal>
0.0000

> <Gold.PLP.part.buried>
-5.6106

> <Gold.PLP.part.nonpolar>
-21.0988

> <Gold.PLP.part.repulsive>
0.0000

> <Gold.PLP.ligand.clash>
0.0000

> <Gold.PLP.ligand.torsion>
1.4358

> <Gold.PLP.Chemscore.Hbond>
3.5842

> <Gold.PLP.Chemscore.CHOScore>
0.0000

> <Gold.PLP.Chemscore.Metal>
0.0000

> <Gold.Chemscore.Hbonds>
donor molecule, donor type, donor heavy atom, donor atom, acceptor molecule, acceptor atom, score
      P1  H  6896  6907       L1    19  1.00
      P1  H  6934  6947       L1    14  0.65
      P1  H  7989  7998       L1    24  1.00
      P1  H  7997  8008       L1    27  0.52

> <Gold.PLP.Chemscore.Internal.Correction>
0.2023

> <Gold.Rescore>
     Score         DG    S(hbond)    S(metal)    S(lipo)     H(rot)  DE(clash)    DE(int)     intcor
     13.94     -15.76       2.91        0.00      70.39       3.00       0.05       1.78       ----

> <Gold.Chemscore.Fitness>
13.9393

> <Gold.Chemscore.DG>
-15.7609

> <Gold.Chemscore.ZeroCoef>
-5.4800

> <Gold.Chemscore.Hbond>
2.9146

> <Gold.Chemscore.Metal>
0.0000

> <Gold.Chemscore.Lipo>
70.3948

> <Gold.Chemscore.Internal_Hbond>
0.0000

> <Gold.Chemscore.DEClash>
0.0458

> <Gold.Chemscore.DEInternal>
1.7758

> <Gold.Chemscore.Rot>
3.0039

> <Gold.Chemscore.Internal.Correction>
   9.000000E+99

> <Gold.Chemscore.Hbonds>
donor molecule, donor type, donor heavy atom, donor atom, acceptor molecule, acceptor atom, score
      P1  H  6896  6907       L1    19  0.90
      P1  H  6934  6947       L1    14  0.08
      P1  H  7989  7998       L1    24  0.88
      P1  H  7997  8008       L1    27  0.03

> <Gold.Chemscore.Hbond.Weighted>
-9.7346

> <Gold.Chemscore.Metal.Weighted>
-0.0000

> <Gold.Chemscore.Lipo.Weighted>
-8.2362

> <Gold.Chemscore.Internal_Hbond.Weighted>
0.0000

> <Gold.Chemscore.DEClash.Weighted>
0.0458

> <Gold.Chemscore.DEInternal.Weighted>
1.7758

> <Gold.Chemscore.Rot.Weighted>
7.6899

> <Gold.Chemscore.Internal.Correction.Weighted>
   9.000000E+99

> <Gold.Protein.RotatedTorsions>
[ 6907 6896 6895 6894 ] final  -59.57 input  -60.11 | X-H torsion
[ 7974 7965 7964 7962 ] final    3.45 input  175.53 | X-H torsion
[ 8008 7997 7996 7995 ] final  -74.39 input   59.86 | X-H torsion
[ 10167 10162 10161 10158 ] final  -33.21 input  -65.29 | X-H torsion
[ 10718 10713 10712 10709 ] final -107.87 input   66.30 | X-H torsion
[ 10763 10752 10751 10750 ] final -158.88 input  -60.55 | X-H torsion
[ 11005 11000 10999 10996 ] final  165.93 input  -57.11 | X-H torsion

> <Gold.Protein.ActiveResidues>
 VAL166  LYS551  ARG553  GLY616  TRP617  ASP618  TYR619  PRO620  LYS621  CYS622 
 ASP623  PHE694  ASN695  SER759  ASP760  ASP761  ALA762  ILE779  LEU786  VAL792 
 PHE793  MET794  SER795  GLU796  ALA797  LYS798  CYS799  TRP800  GLU811  SER814 

> <Gold.Protein.RotatedAtoms>
  150.7921  134.6951  159.6518 H   0  0  0  0  0  0  0  0  0  0  0  0  # atno 6907 bound_to 6896
  152.4027  134.6255  160.0072 H   0  0  0  0  0  0  0  0  0  0  0  0  # atno 6908 bound_to 6896
  151.6522  133.3283  159.3190 H   0  0  0  0  0  0  0  0  0  0  0  0  # atno 6909 bound_to 6896
  146.2445  140.0683  142.8364 H   0  0  0  0  0  0  0  0  0  0  0  0  # atno 7974 bound_to 7965
  154.5327  140.0762  156.8372 H   0  0  0  0  0  0  0  0  0  0  0  0  # atno 8008 bound_to 7997
  155.3342  140.3403  155.4221 H   0  0  0  0  0  0  0  0  0  0  0  0  # atno 8009 bound_to 7997
  156.1797  140.1648  156.8284 H   0  0  0  0  0  0  0  0  0  0  0  0  # atno 8010 bound_to 7997
  140.7208  143.3637  151.1912 H   0  0  0  0  0  0  0  0  0  0  0  0  # atno 10167 bound_to 10162
  156.0457  130.5684  150.7882 H   0  0  0  0  0  0  0  0  0  0  0  0  # atno 10718 bound_to 10713
  154.7520  135.3095  154.8539 H   0  0  0  0  0  0  0  0  0  0  0  0  # atno 10763 bound_to 10752
  153.9323  135.6784  153.4749 H   0  0  0  0  0  0  0  0  0  0  0  0  # atno 10764 bound_to 10752
  153.1117  135.4863  154.8974 H   0  0  0  0  0  0  0  0  0  0  0  0  # atno 10765 bound_to 10752
  140.2612  134.7900  157.3592 H   0  0  0  0  0  0  0  0  0  0  0  0  # atno 11005 bound_to 11000
  145.0839  140.9239  143.4809 LP  0  0  0  0  0  0  0  0  0  0  0  0  # atno 17320 bound_to 7965
  145.0841  139.2938  143.5768 LP  0  0  0  0  0  0  0  0  0  0  0  0  # atno 17321 bound_to 7965
  139.7195  143.9247  152.2980 LP  0  0  0  0  0  0  0  0  0  0  0  0  # atno 17342 bound_to 10162
  139.8999  144.6918  150.8677 LP  0  0  0  0  0  0  0  0  0  0  0  0  # atno 17343 bound_to 10162
  157.5330  131.0937  150.9929 LP  0  0  0  0  0  0  0  0  0  0  0  0  # atno 17370 bound_to 10713
  157.0231  130.5682  149.5334 LP  0  0  0  0  0  0  0  0  0  0  0  0  # atno 17371 bound_to 10713
  140.1462  134.4908  155.7994 LP  0  0  0  0  0  0  0  0  0  0  0  0  # atno 17394 bound_to 11000
  141.2190  133.6844  156.7299 LP  0  0  0  0  0  0  0  0  0  0  0  0  # atno 17395 bound_to 11000

$$$$
