AV-unprocessed.smi:3161|AV-procd|sdf|12060|dock3
  -GOLD-   2272017483D 1   1.00000     0.00000
 Structure written by MMmdl.
 40 41  0  0  0  0  0  0  0  0  1 V2000
  155.2720  140.5433  160.2939 C   0  0  0  0  0  0  0  0  0  0  0  0
  153.9466  141.2301  160.1330 C   0  0  0  0  0  0  0  0  0  0  0  0
  152.6653  140.6317  159.9693 C   0  0  0  0  0  0  0  0  0  0  0  0
  151.6928  141.5214  159.8573 N   0  0  0  0  0  0  0  0  0  0  0  0
  152.3170  142.7170  159.9260 N   0  0  0  0  0  0  0  0  0  0  0  0
  151.5450  143.9477  159.8643 C   0  0  0  0  0  0  0  0  0  0  0  0
  151.2531  144.4465  158.4258 C   0  0  1  0  0  0  0  0  0  0  0  0
  152.5666  144.6882  157.6681 C   0  0  0  0  0  0  0  0  0  0  0  0
  150.4294  143.5137  157.6463 N   0  0  0  0  0  0  0  0  0  0  0  0
  151.0618  142.2477  157.2790 C   0  0  0  0  0  0  0  0  0  0  0  0
  150.4856  141.6958  155.9669 C   0  0  2  0  0  0  0  0  0  0  0  0
  148.9447  141.7584  155.9211 C   0  0  0  0  0  0  0  0  0  0  0  0
  148.4170  141.1084  154.6371 C   0  0  0  0  0  0  0  0  0  0  0  0
  148.9902  139.6941  154.5008 C   0  0  0  0  0  0  0  0  0  0  0  0
  150.5215  139.7249  154.6263 C   0  0  0  0  0  0  0  0  0  0  0  0
  150.8960  140.3344  155.8581 O   0  0  0  0  0  0  0  0  0  0  0  0
  153.6758  142.5690  160.1119 C   0  0  0  0  0  0  0  0  0  0  0  0
  155.1544  139.5017  160.5940 H   0  0  0  0  0  0  0  0  0  0  0  0
  155.8881  141.0276  161.0517 H   0  0  0  0  0  0  0  0  0  0  0  0
  155.8414  140.5477  159.3643 H   0  0  0  0  0  0  0  0  0  0  0  0
  152.4144  139.5819  159.9340 H   0  0  0  0  0  0  0  0  0  0  0  0
  150.6068  143.7522  160.3852 H   0  0  0  0  0  0  0  0  0  0  0  0
  152.0553  144.7198  160.4418 H   0  0  0  0  0  0  0  0  0  0  0  0
  150.7448  145.4100  158.4772 H   0  0  0  0  0  0  0  0  0  0  0  0
  153.1827  145.4300  158.1768 H   0  0  0  0  0  0  0  0  0  0  0  0
  152.3785  145.0591  156.6600 H   0  0  0  0  0  0  0  0  0  0  0  0
  153.1518  143.7716  157.5830 H   0  0  0  0  0  0  0  0  0  0  0  0
  149.5714  143.3229  158.1538 H   0  0  0  0  0  0  0  0  0  0  0  0
  152.1310  142.3985  157.1427 H   0  0  0  0  0  0  0  0  0  0  0  0
  150.9440  141.5121  158.0757 H   0  0  0  0  0  0  0  0  0  0  0  0
  150.9093  142.2539  155.1294 H   0  0  0  0  0  0  0  0  0  0  0  0
  148.5285  141.2433  156.7880 H   0  0  0  0  0  0  0  0  0  0  0  0
  148.6024  142.7920  155.9781 H   0  0  0  0  0  0  0  0  0  0  0  0
  147.3271  141.0797  154.6440 H   0  0  0  0  0  0  0  0  0  0  0  0
  148.7109  141.7084  153.7749 H   0  0  0  0  0  0  0  0  0  0  0  0
  148.5742  139.0529  155.2788 H   0  0  0  0  0  0  0  0  0  0  0  0
  148.6970  139.2582  153.5453 H   0  0  0  0  0  0  0  0  0  0  0  0
  150.9199  138.7107  154.6001 H   0  0  0  0  0  0  0  0  0  0  0  0
  150.9696  140.2640  153.7904 H   0  0  0  0  0  0  0  0  0  0  0  0
  154.3323  143.4216  160.2059 H   0  0  0  0  0  0  0  0  0  0  0  0
  1  2  1  0  0  0  0
  1 18  1  0  0  0  0
  1 19  1  0  0  0  0
  1 20  1  0  0  0  0
  2 17  2  0  0  0  0
  2  3  1  0  0  0  0
  3  4  2  0  0  0  0
  3 21  1  0  0  0  0
  4  5  1  0  0  0  0
  5  6  1  0  0  0  0
  5 17  1  0  0  0  0
  6  7  1  0  0  0  0
  6 22  1  0  0  0  0
  6 23  1  0  0  0  0
  7  8  1  0  0  0  0
  7  9  1  0  0  0  0
  7 24  1  0  0  0  0
  8 25  1  0  0  0  0
  8 26  1  0  0  0  0
  8 27  1  0  0  0  0
  9 10  1  0  0  0  0
  9 28  1  0  0  0  0
 10 11  1  0  0  0  0
 10 29  1  0  0  0  0
 10 30  1  0  0  0  0
 11 16  1  0  0  0  0
 11 12  1  0  0  0  0
 11 31  1  0  0  0  0
 12 13  1  0  0  0  0
 12 32  1  0  0  0  0
 12 33  1  0  0  0  0
 13 14  1  0  0  0  0
 13 34  1  0  0  0  0
 13 35  1  0  0  0  0
 14 15  1  0  0  0  0
 14 36  1  0  0  0  0
 14 37  1  0  0  0  0
 15 16  1  0  0  0  0
 15 38  1  0  0  0  0
 15 39  1  0  0  0  0
 17 40  1  0  0  0  0
M  END
> <s_m_source_file>
AV-unprocessed.smi

> <i_m_source_file_index>
3161

> <i_lp_mmshare_version>
43012

> <i_f3d_flags>
0

> <s_epik_input>
W0NIM11jMVtjSF1ubihbY0hdMSlbQ0gyXVtDQEhdKFtDSDNdKVtOSF1bQ0gyXVtDQEBIXTJbQ0gyXVtDSDJdW0NIMl1bQ0gyXU8y

> <s_epik_cmdline>
J2VwaWtfcHl0aG9uJywgJy1waCcsICc3LjAnLCAnLXRuJywgJzgnLCAnLW1hJywgJzIwMCcsICctbWV0YWxfYmluZGluZycsICctaW1hZScsICc8aW5maWxlLm1hZT4nLCAnLW9tYWUnLCAnPG91dGZpbGUubWFlPic=

> <r_lp_tautomer_probability>
1

> <r_epik_Ionization_Penalty>
2.51986

> <r_epik_Ionization_Penalty_Charging>
0

> <r_epik_Ionization_Penalty_Neutral>
2.51986

> <r_epik_State_Penalty>
2.68614

> <r_epik_Charging_Adjusted_Penalty>
2.68614

> <i_epik_Tot_Q>
0

> <i_epik_Tot_abs_Q>
0

> <r_epik_Metal_State_Penalty>
2.68606

> <b_epik_Metal_Only>
0

> <s_lp_Force_Field>
OPLS_2005

> <r_lp_Energy>
14.6841

> <b_lp_Chiralities_Consistent>
1

> <s_lp_Variant>
AV-unprocessed.smi:3161-6

> <Gold.Version>
5.8.1

> <Gold.Id.Protein>
6NUR|6NUR_protein|mol2

> <Gold.PLP.Fitness>
39.2328

> <Gold.PLP.PLP>
-40.4653

> <Gold.PLP.part.hbond>
-1.3312

> <Gold.PLP.part.metal>
0.0000

> <Gold.PLP.part.buried>
-1.7027

> <Gold.PLP.part.nonpolar>
-36.2528

> <Gold.PLP.part.repulsive>
0.0066

> <Gold.PLP.ligand.clash>
0.0000

> <Gold.PLP.ligand.torsion>
0.6449

> <Gold.PLP.Chemscore.Hbond>
0.0000

> <Gold.PLP.Chemscore.CHOScore>
0.0000

> <Gold.PLP.Chemscore.Metal>
0.0000

> <Gold.PLP.Chemscore.Internal.Correction>
0.0573

> <Gold.Rescore>
     Score         DG    S(hbond)    S(metal)    S(lipo)     H(rot)  DE(clash)    DE(int)     intcor
     13.96     -15.09       0.00        0.00     115.00       1.50       0.25       0.87       ----

> <Gold.Chemscore.Fitness>
13.9584

> <Gold.Chemscore.DG>
-15.0872

> <Gold.Chemscore.ZeroCoef>
-5.4800

> <Gold.Chemscore.Hbond>
0.0000

> <Gold.Chemscore.Metal>
0.0000

> <Gold.Chemscore.Lipo>
114.9996

> <Gold.Chemscore.Internal_Hbond>
0.0000

> <Gold.Chemscore.DEClash>
0.2539

> <Gold.Chemscore.DEInternal>
0.8749

> <Gold.Chemscore.Rot>
1.5030

> <Gold.Chemscore.Internal.Correction>
   9.000000E+99

> <Gold.Chemscore.Hbond.Weighted>
-0.0000

> <Gold.Chemscore.Metal.Weighted>
-0.0000

> <Gold.Chemscore.Lipo.Weighted>
-13.4550

> <Gold.Chemscore.Internal_Hbond.Weighted>
0.0000

> <Gold.Chemscore.DEClash.Weighted>
0.2539

> <Gold.Chemscore.DEInternal.Weighted>
0.8749

> <Gold.Chemscore.Rot.Weighted>
3.8477

> <Gold.Chemscore.Internal.Correction.Weighted>
   9.000000E+99

> <Gold.Protein.RotatedTorsions>
[ 6907 6896 6895 6894 ] final   52.61 input  -60.11 | X-H torsion
[ 7974 7965 7964 7962 ] final -113.74 input  175.53 | X-H torsion
[ 8008 7997 7996 7995 ] final  146.57 input   59.86 | X-H torsion
[ 10167 10162 10161 10158 ] final   -7.25 input  -65.29 | X-H torsion
[ 10718 10713 10712 10709 ] final  154.77 input   66.30 | X-H torsion
[ 10763 10752 10751 10750 ] final -121.90 input  -60.55 | X-H torsion
[ 11005 11000 10999 10996 ] final  128.50 input  -57.11 | X-H torsion

> <Gold.Protein.ActiveResidues>
 VAL166  LYS551  ARG553  GLY616  TRP617  ASP618  TYR619  PRO620  LYS621  CYS622 
 ASP623  PHE694  ASN695  SER759  ASP760  ASP761  ALA762  ILE779  LEU786  VAL792 
 PHE793  MET794  SER795  GLU796  ALA797  LYS798  CYS799  TRP800  GLU811  SER814 

> <Gold.Protein.RotatedAtoms>
  152.3251  134.7331  160.0303 H   0  0  0  0  0  0  0  0  0  0  0  0  # atno 6907 bound_to 6896
  151.7766  133.3340  159.3467 H   0  0  0  0  0  0  0  0  0  0  0  0  # atno 6908 bound_to 6896
  150.7391  134.5901  159.6027 H   0  0  0  0  0  0  0  0  0  0  0  0  # atno 6909 bound_to 6896
  145.1284  140.8710  143.3772 H   0  0  0  0  0  0  0  0  0  0  0  0  # atno 7974 bound_to 7965
  156.2851  140.2179  156.5398 H   0  0  0  0  0  0  0  0  0  0  0  0  # atno 8008 bound_to 7997
  154.7379  140.0490  157.0807 H   0  0  0  0  0  0  0  0  0  0  0  0  # atno 8009 bound_to 7997
  155.0268  140.3130  155.4776 H   0  0  0  0  0  0  0  0  0  0  0  0  # atno 8010 bound_to 7997
  140.7023  143.6102  150.8711 H   0  0  0  0  0  0  0  0  0  0  0  0  # atno 10167 bound_to 10162
  157.2271  131.0731  151.1876 H   0  0  0  0  0  0  0  0  0  0  0  0  # atno 10718 bound_to 10713
  154.8678  135.4151  154.2695 H   0  0  0  0  0  0  0  0  0  0  0  0  # atno 10763 bound_to 10752
  153.3608  135.7003  153.6719 H   0  0  0  0  0  0  0  0  0  0  0  0  # atno 10764 bound_to 10752
  153.5621  135.3608  155.2776 H   0  0  0  0  0  0  0  0  0  0  0  0  # atno 10765 bound_to 10752
  139.9564  134.9612  156.9010 H   0  0  0  0  0  0  0  0  0  0  0  0  # atno 11005 bound_to 11000
  145.0662  139.3066  143.5855 LP  0  0  0  0  0  0  0  0  0  0  0  0  # atno 17320 bound_to 7965
  146.3516  140.0121  142.8666 LP  0  0  0  0  0  0  0  0  0  0  0  0  # atno 17321 bound_to 7965
  139.9825  143.5935  152.2938 LP  0  0  0  0  0  0  0  0  0  0  0  0  # atno 17342 bound_to 10162
  139.6562  144.7662  151.2052 LP  0  0  0  0  0  0  0  0  0  0  0  0  # atno 17343 bound_to 10162
  157.3516  130.7085  149.6444 LP  0  0  0  0  0  0  0  0  0  0  0  0  # atno 17370 bound_to 10713
  155.9678  130.4251  150.4638 LP  0  0  0  0  0  0  0  0  0  0  0  0  # atno 17371 bound_to 10713
  140.5600  134.0544  155.7396 LP  0  0  0  0  0  0  0  0  0  0  0  0  # atno 17394 bound_to 11000
  141.1236  133.9421  157.2681 LP  0  0  0  0  0  0  0  0  0  0  0  0  # atno 17395 bound_to 11000

$$$$
