AV-unprocessed.smi:215|AV-procd|sdf|1650|dock5
  -GOLD-   2262020 33D 1   1.00000     0.00000
 Structure written by MMmdl.
 59 62  0  0  0  0  0  0  0  0  2 V2000
  146.4514  134.7930  151.8211 C   0  0  0  0  0  0  0  0  0  0  0  0
  146.7900  133.2917  151.7029 C   0  0  2  0  0  0  0  0  0  0  0  0
  145.8539  132.4097  150.8402 C   0  0  2  0  0  0  0  0  0  0  0  0
  144.5426  133.0323  150.4821 N   0  3  2  0  0  0  0  0  0  0  0  0
  143.7167  133.4642  151.6409 C   0  0  0  0  0  0  0  0  0  0  0  0
  143.7767  132.2289  149.4918 C   0  0  0  0  0  0  0  0  0  0  0  0
  144.0014  132.6876  148.0402 C   0  0  0  0  0  0  0  0  0  0  0  0
  143.5875  134.0285  147.8848 O   0  0  0  0  0  0  0  0  0  0  0  0
  145.7654  131.0631  151.5889 C   0  0  0  0  0  0  0  0  0  0  0  0
  146.8611  131.1696  152.6483 C   0  0  0  0  0  0  0  0  0  0  0  0
  146.9217  132.5876  152.9741 N   0  0  0  0  0  0  0  0  0  0  0  0
  147.9425  132.9892  153.7674 C   0  0  0  0  0  0  0  0  0  0  0  0
  149.0356  132.1998  153.9381 N   0  0  0  0  0  0  0  0  0  0  0  0
  150.0463  132.6160  154.7075 C   0  0  0  0  0  0  0  0  0  0  0  0
  150.1645  133.7615  155.3828 N   0  0  0  0  0  0  0  0  0  0  0  0
  149.0666  134.5540  155.2161 C   0  0  0  0  0  0  0  0  0  0  0  0
  147.9244  134.2472  154.4258 C   0  0  0  0  0  0  0  0  0  0  0  0
  147.0157  135.2953  154.4724 N   0  0  0  0  0  0  0  0  0  0  0  0
  147.5931  136.1785  155.2405 C   0  0  0  0  0  0  0  0  0  0  0  0
  148.8142  135.8028  155.7598 N   0  0  0  0  0  0  0  0  0  0  0  0
  149.6831  136.5811  156.6024 C   0  0  0  0  0  0  0  0  0  0  0  0
  149.3761  138.0597  156.8700 C   0  0  0  0  0  0  0  0  0  0  0  0
  150.4670  138.4775  155.8616 C   0  0  0  0  0  0  0  0  0  0  0  0
  149.9649  138.7363  154.4265 C   0  0  0  0  0  0  0  0  0  0  0  0
  149.5566  140.0787  154.2554 O   0  0  0  0  0  0  0  0  0  0  0  0
  151.3558  139.6522  156.3034 C   0  0  0  0  0  0  0  0  0  0  0  0
  152.3547  139.9304  155.3427 O   0  0  0  0  0  0  0  0  0  0  0  0
  151.0522  137.0705  156.1111 C   0  0  0  0  0  0  0  0  0  0  0  0
  147.7743  133.2441  151.2324 H   0  0  0  0  0  0  0  0  0  0  0  0
  146.4006  132.2431  149.9108 H   0  0  0  0  0  0  0  0  0  0  0  0
  146.3079  135.2393  150.8368 H   0  0  0  0  0  0  0  0  0  0  0  0
  147.2633  135.3395  152.3013 H   0  0  0  0  0  0  0  0  0  0  0  0
  145.5524  134.9743  152.4080 H   0  0  0  0  0  0  0  0  0  0  0  0
  143.1104  132.6448  152.0283 H   0  0  0  0  0  0  0  0  0  0  0  0
  143.0416  134.2680  151.3482 H   0  0  0  0  0  0  0  0  0  0  0  0
  144.3260  133.8402  152.4621 H   0  0  0  0  0  0  0  0  0  0  0  0
  144.0615  131.1783  149.5618 H   0  0  0  0  0  0  0  0  0  0  0  0
  142.7149  132.2744  149.7379 H   0  0  0  0  0  0  0  0  0  0  0  0
  145.0626  132.6291  147.7970 H   0  0  0  0  0  0  0  0  0  0  0  0
  143.4827  132.0526  147.3227 H   0  0  0  0  0  0  0  0  0  0  0  0
  144.3284  134.5424  147.5995 H   0  0  0  0  0  0  0  0  0  0  0  0
  144.8100  130.9183  152.0897 H   0  0  0  0  0  0  0  0  0  0  0  0
  145.9143  130.2087  150.9282 H   0  0  0  0  0  0  0  0  0  0  0  0
  146.6330  130.5669  153.5281 H   0  0  0  0  0  0  0  0  0  0  0  0
  147.8092  130.8235  152.2340 H   0  0  0  0  0  0  0  0  0  0  0  0
  150.8792  131.9342  154.7952 H   0  0  0  0  0  0  0  0  0  0  0  0
  147.1297  137.1312  155.4494 H   0  0  0  0  0  0  0  0  0  0  0  0
  149.7733  136.0192  157.5329 H   0  0  0  0  0  0  0  0  0  0  0  0
  148.3713  138.3850  156.5994 H   0  0  0  0  0  0  0  0  0  0  0  0
  149.6119  138.3503  157.8954 H   0  0  0  0  0  0  0  0  0  0  0  0
  150.7432  138.5305  153.6921 H   0  0  0  0  0  0  0  0  0  0  0  0
  149.1320  138.0810  154.1704 H   0  0  0  0  0  0  0  0  0  0  0  0
  149.1183  140.1547  153.4216 H   0  0  0  0  0  0  0  0  0  0  0  0
  150.7630  140.5576  156.4366 H   0  0  0  0  0  0  0  0  0  0  0  0
  151.8323  139.4562  157.2642 H   0  0  0  0  0  0  0  0  0  0  0  0
  152.1331  139.4819  154.5410 H   0  0  0  0  0  0  0  0  0  0  0  0
  151.7983  137.0584  156.9079 H   0  0  0  0  0  0  0  0  0  0  0  0
  151.4437  136.5788  155.2215 H   0  0  0  0  0  0  0  0  0  0  0  0
  144.7932  133.8789  149.9909 H   0  0  0  0  0  0  0  0  0  0  0  0
  1  2  1  0  0  0  0
  1 31  1  0  0  0  0
  1 32  1  0  0  0  0
  1 33  1  0  0  0  0
  2 29  1  0  0  0  0
  2 11  1  0  0  0  0
  2  3  1  0  0  0  0
  3 30  1  0  0  0  0
  3  4  1  0  0  0  0
  3  9  1  0  0  0  0
  4  5  1  0  0  0  0
  4  6  1  0  0  0  0
  4 59  1  0  0  0  0
  5 34  1  0  0  0  0
  5 35  1  0  0  0  0
  5 36  1  0  0  0  0
  6  7  1  0  0  0  0
  6 37  1  0  0  0  0
  6 38  1  0  0  0  0
  7  8  1  0  0  0  0
  7 39  1  0  0  0  0
  7 40  1  0  0  0  0
  8 41  1  0  0  0  0
  9 10  1  0  0  0  0
  9 42  1  0  0  0  0
  9 43  1  0  0  0  0
 10 11  1  0  0  0  0
 10 44  1  0  0  0  0
 10 45  1  0  0  0  0
 11 12  1  0  0  0  0
 12 17  1  0  0  0  0
 12 13  2  0  0  0  0
 13 14  1  0  0  0  0
 14 15  2  0  0  0  0
 14 46  1  0  0  0  0
 15 16  1  0  0  0  0
 16 20  1  0  0  0  0
 16 17  2  0  0  0  0
 17 18  1  0  0  0  0
 18 19  2  0  0  0  0
 19 20  1  0  0  0  0
 19 47  1  0  0  0  0
 20 21  1  0  0  0  0
 21 28  1  0  0  0  0
 21 22  1  0  0  0  0
 21 48  1  0  0  0  0
 22 23  1  0  0  0  0
 22 49  1  0  0  0  0
 22 50  1  0  0  0  0
 23 24  1  0  0  0  0
 23 26  1  0  0  0  0
 23 28  1  0  0  0  0
 24 25  1  0  0  0  0
 24 51  1  0  0  0  0
 24 52  1  0  0  0  0
 25 53  1  0  0  0  0
 26 27  1  0  0  0  0
 26 54  1  0  0  0  0
 26 55  1  0  0  0  0
 27 56  1  0  0  0  0
 28 57  1  0  0  0  0
 28 58  1  0  0  0  0
M  CHG  1   4   1
M  END
> <s_m_source_file>
AV-unprocessed.smi

> <i_m_source_file_index>
215

> <i_lp_mmshare_version>
43012

> <i_f3d_flags>
0

> <s_epik_input>
W09IXVtDSDJdW0NIMl1OKFtDSDNdKVtDQEBIXShbQ0BIXTFbQ0gzXSlbQ0gyXVtDSDJdTjFjKG5bY0hdbjIpYyhjMjMpbltjSF1uM1tDSF0oW0NIMl00KVtDSDJdQzQoW0NIMl1bT0hdKVtDSDJdW09IXQ==

> <s_epik_cmdline>
J2VwaWtfcHl0aG9uJywgJy1waCcsICc3LjAnLCAnLXRuJywgJzgnLCAnLW1hJywgJzIwMCcsICctbWV0YWxfYmluZGluZycsICctaW1hZScsICc8aW5maWxlLm1hZT4nLCAnLW9tYWUnLCAnPG91dGZpbGUubWFlPic=

> <r_lp_tautomer_probability>
1

> <r_epik_Ionization_Penalty>
0.0036237

> <r_epik_Ionization_Penalty_Charging>
0.0032725

> <r_epik_Ionization_Penalty_Neutral>
0.000351196

> <r_epik_State_Penalty>
-0

> <r_epik_Charging_Adjusted_Penalty>
0.0032725

> <i_epik_Tot_Q>
1

> <i_epik_Tot_abs_Q>
1

> <r_epik_Metal_State_Penalty>
-0

> <b_epik_Metal_Only>
0

> <s_lp_Force_Field>
OPLS_2005

> <r_lp_Energy>
76.3744

> <b_lp_Chiralities_Consistent>
1

> <s_lp_Variant>
AV-unprocessed.smi:215-1

> <Gold.Version>
5.8.1

> <Gold.Id.Protein>
6NUR|6NUR_protein|mol2

> <Gold.PLP.Fitness>
59.1592

> <Gold.PLP.PLP>
-46.5836

> <Gold.PLP.part.hbond>
-7.9781

> <Gold.PLP.part.metal>
0.0000

> <Gold.PLP.part.buried>
-4.7585

> <Gold.PLP.part.nonpolar>
-34.5611

> <Gold.PLP.part.repulsive>
0.3746

> <Gold.PLP.ligand.clash>
0.0000

> <Gold.PLP.ligand.torsion>
1.4507

> <Gold.PLP.Chemscore.Hbond>
4.8960

> <Gold.PLP.Chemscore.CHOScore>
0.0000

> <Gold.PLP.Chemscore.Metal>
0.0000

> <Gold.Chemscore.Hbonds>
donor molecule, donor type, donor heavy atom, donor atom, acceptor molecule, acceptor atom, score
      L1  H     8    41       P1  7921  0.99
      L1  H    25    53       P1  7957  0.22
      P1  H  7989  7998       L1    25  0.13
      P1  H  7997  8009       L1    27  0.37
      P1  H 10192 10197       L1     8  0.91

> <Gold.PLP.Chemscore.Internal.Correction>
0.7891

> <Gold.Rescore>
     Score         DG    S(hbond)    S(metal)    S(lipo)     H(rot)  DE(clash)    DE(int)     intcor
     11.97     -16.47       3.39        0.00     102.53       4.81       1.41       3.09       ----

> <Gold.Chemscore.Fitness>
11.9702

> <Gold.Chemscore.DG>
-16.4709

> <Gold.Chemscore.ZeroCoef>
-5.4800

> <Gold.Chemscore.Hbond>
3.3856

> <Gold.Chemscore.Metal>
0.0000

> <Gold.Chemscore.Lipo>
102.5298

> <Gold.Chemscore.Internal_Hbond>
0.0000

> <Gold.Chemscore.DEClash>
1.4114

> <Gold.Chemscore.DEInternal>
3.0893

> <Gold.Chemscore.Rot>
4.8098

> <Gold.Chemscore.Internal.Correction>
   9.000000E+99

> <Gold.Chemscore.Hbonds>
donor molecule, donor type, donor heavy atom, donor atom, acceptor molecule, acceptor atom, score
      L1  H     8    41       P1  7921  0.93
      L1  H    25    53       P1  7957  0.22
      P1  H  7997  8009       L1    27  0.34
      P1  H 10192 10197       L1     8  0.26

> <Gold.Chemscore.Hbond.Weighted>
-11.3079

> <Gold.Chemscore.Metal.Weighted>
-0.0000

> <Gold.Chemscore.Lipo.Weighted>
-11.9960

> <Gold.Chemscore.Internal_Hbond.Weighted>
0.0000

> <Gold.Chemscore.DEClash.Weighted>
1.4114

> <Gold.Chemscore.DEInternal.Weighted>
3.0893

> <Gold.Chemscore.Rot.Weighted>
12.3130

> <Gold.Chemscore.Internal.Correction.Weighted>
   9.000000E+99

> <Gold.Protein.RotatedTorsions>
[ 6907 6896 6895 6894 ] final   26.07 input  -60.11 | X-H torsion
[ 7974 7965 7964 7962 ] final -135.16 input  175.53 | X-H torsion
[ 8008 7997 7996 7995 ] final -122.33 input   59.86 | X-H torsion
[ 10167 10162 10161 10158 ] final   -9.17 input  -65.29 | X-H torsion
[ 10718 10713 10712 10709 ] final   92.76 input   66.30 | X-H torsion
[ 10763 10752 10751 10750 ] final  -40.49 input  -60.55 | X-H torsion
[ 11005 11000 10999 10996 ] final  -78.09 input  -57.11 | X-H torsion

> <Gold.Protein.ActiveResidues>
 VAL166  LYS551  ARG553  GLY616  TRP617  ASP618  TYR619  PRO620  LYS621  CYS622 
 ASP623  PHE694  ASN695  SER759  ASP760  ASP761  ALA762  ILE779  LEU786  VAL792 
 PHE793  MET794  SER795  GLU796  ALA797  LYS798  CYS799  TRP800  GLU811  SER814 

> <Gold.Protein.RotatedAtoms>
  151.9820  135.0024  160.0557 H   0  0  0  0  0  0  0  0  0  0  0  0  # atno 6907 bound_to 6896
  152.1687  133.4625  159.4906 H   0  0  0  0  0  0  0  0  0  0  0  0  # atno 6908 bound_to 6896
  150.6898  134.1897  159.4323 H   0  0  0  0  0  0  0  0  0  0  0  0  # atno 6909 bound_to 6896
  144.9039  140.6807  143.5068 H   0  0  0  0  0  0  0  0  0  0  0  0  # atno 7974 bound_to 7965
  155.1625  140.0406  157.2845 H   0  0  0  0  0  0  0  0  0  0  0  0  # atno 8008 bound_to 7997
  154.6326  140.2528  155.7389 H   0  0  0  0  0  0  0  0  0  0  0  0  # atno 8009 bound_to 7997
  156.2492  140.2872  156.0685 H   0  0  0  0  0  0  0  0  0  0  0  0  # atno 8010 bound_to 7997
  140.7080  143.5888  150.8915 H   0  0  0  0  0  0  0  0  0  0  0  0  # atno 10167 bound_to 10162
  157.6957  131.0454  150.3931 H   0  0  0  0  0  0  0  0  0  0  0  0  # atno 10718 bound_to 10713
  153.9468  135.6755  153.4744 H   0  0  0  0  0  0  0  0  0  0  0  0  # atno 10763 bound_to 10752
  153.0904  135.4877  154.8675 H   0  0  0  0  0  0  0  0  0  0  0  0  # atno 10764 bound_to 10752
  154.7347  135.3146  154.8790 H   0  0  0  0  0  0  0  0  0  0  0  0  # atno 10765 bound_to 10752
  141.1663  133.7049  156.7918 H   0  0  0  0  0  0  0  0  0  0  0  0  # atno 11005 bound_to 11000
  145.3569  139.1691  143.4404 LP  0  0  0  0  0  0  0  0  0  0  0  0  # atno 17320 bound_to 7965
  146.3123  140.3627  142.8666 LP  0  0  0  0  0  0  0  0  0  0  0  0  # atno 17321 bound_to 7965
  139.9613  143.6160  152.3001 LP  0  0  0  0  0  0  0  0  0  0  0  0  # atno 17342 bound_to 10162
  139.6714  144.7660  151.1776 LP  0  0  0  0  0  0  0  0  0  0  0  0  # atno 17343 bound_to 10162
  156.4332  130.3976  149.6746 LP  0  0  0  0  0  0  0  0  0  0  0  0  # atno 17370 bound_to 10713
  156.3956  130.7649  151.2653 LP  0  0  0  0  0  0  0  0  0  0  0  0  # atno 17371 bound_to 10713
  140.2319  134.8679  157.3486 LP  0  0  0  0  0  0  0  0  0  0  0  0  # atno 17394 bound_to 11000
  140.1882  134.4405  155.7731 LP  0  0  0  0  0  0  0  0  0  0  0  0  # atno 17395 bound_to 11000

$$$$
