AV-unprocessed.smi:235|AV-procd|sdf|1804|dock9
  -GOLD-   2262020383D 1   1.00000     0.00000
 Structure written by MMmdl.
 54 58  0  0  0  0  0  0  0  0  1 V2000
  152.1692  141.3720  158.3193 O   0  0  0  0  0  0  0  0  0  0  0  0
  151.2972  142.0463  157.7689 C   0  0  0  0  0  0  0  0  0  0  0  0
  151.2481  143.3848  157.8315 N   0  0  0  0  0  0  0  0  0  0  0  0
  152.1712  144.2159  158.5333 C   0  0  0  0  0  0  0  0  0  0  0  0
  152.2625  144.0526  160.0351 C   0  0  0  0  0  0  0  0  0  0  0  0
  151.6028  145.2732  159.4550 C   0  0  0  0  0  0  0  0  0  0  0  0
  150.1891  141.3663  156.9490 C   0  0  1  0  0  0  0  0  0  0  0  0
  150.0407  142.0079  155.5595 C   0  0  0  0  0  0  0  0  0  0  0  0
  149.5128  140.8717  154.6892 C   0  0  0  0  0  0  0  0  0  0  0  0
  150.2100  139.6387  155.2614 C   0  0  0  0  0  0  0  0  0  0  0  0
  150.4988  139.9647  156.6524 N   0  0  0  0  0  0  0  0  0  0  0  0
  150.4520  138.9882  157.5982 C   0  0  0  0  0  0  0  0  0  0  0  0
  151.5770  138.6846  158.2994 N   0  0  0  0  0  0  0  0  0  0  0  0
  151.5591  137.7292  159.2326 C   0  0  0  0  0  0  0  0  0  0  0  0
  150.5403  136.9606  159.6189 N   0  0  0  0  0  0  0  0  0  0  0  0
  149.4088  137.2528  158.9164 C   0  0  0  0  0  0  0  0  0  0  0  0
  149.2764  138.2403  157.8986 C   0  0  0  0  0  0  0  0  0  0  0  0
  147.9764  138.2326  157.4048 N   0  0  0  0  0  0  0  0  0  0  0  0
  147.3762  137.3004  158.0926 C   0  0  0  0  0  0  0  0  0  0  0  0
  148.1610  136.6656  159.0280 N   0  0  0  0  0  0  0  0  0  0  0  0
  147.7547  135.5967  159.9264 C   0  0  0  0  0  0  0  0  0  0  0  0
  147.8955  135.9531  161.4229 C   0  0  1  0  0  0  0  0  0  0  0  0
  147.6888  137.3418  161.5913 O   0  0  0  0  0  0  0  0  0  0  0  0
  146.9128  135.1982  162.3409 C   0  0  2  0  0  0  0  0  0  0  0  0
  146.9244  133.6777  162.1713 C   0  0  0  0  0  0  0  0  0  0  0  0
  145.5246  133.2543  162.5922 C   0  0  0  0  0  0  0  0  0  0  0  0
  144.7393  134.5669  162.6558 C   0  0  0  0  0  0  0  0  0  0  0  0
  145.5706  135.5199  162.0109 O   0  0  0  0  0  0  0  0  0  0  0  0
  150.4933  143.8508  157.3493 H   0  0  0  0  0  0  0  0  0  0  0  0
  153.0976  144.4772  158.0234 H   0  0  0  0  0  0  0  0  0  0  0  0
  151.6204  143.3107  160.5062 H   0  0  0  0  0  0  0  0  0  0  0  0
  153.2405  144.1804  160.4944 H   0  0  0  0  0  0  0  0  0  0  0  0
  152.1397  146.2170  159.5267 H   0  0  0  0  0  0  0  0  0  0  0  0
  150.5201  145.3463  159.5403 H   0  0  0  0  0  0  0  0  0  0  0  0
  149.2321  141.4220  157.4720 H   0  0  0  0  0  0  0  0  0  0  0  0
  149.3724  142.8694  155.5669 H   0  0  0  0  0  0  0  0  0  0  0  0
  151.0055  142.3393  155.1708 H   0  0  0  0  0  0  0  0  0  0  0  0
  148.4340  140.7807  154.8227 H   0  0  0  0  0  0  0  0  0  0  0  0
  149.7101  141.0178  153.6269 H   0  0  0  0  0  0  0  0  0  0  0  0
  149.5823  138.7526  155.1548 H   0  0  0  0  0  0  0  0  0  0  0  0
  151.1519  139.4550  154.7433 H   0  0  0  0  0  0  0  0  0  0  0  0
  152.4958  137.5552  159.7412 H   0  0  0  0  0  0  0  0  0  0  0  0
  146.3358  137.0520  157.9400 H   0  0  0  0  0  0  0  0  0  0  0  0
  146.7184  135.3413  159.7018 H   0  0  0  0  0  0  0  0  0  0  0  0
  148.3411  134.7068  159.6942 H   0  0  0  0  0  0  0  0  0  0  0  0
  148.9179  135.7314  161.7312 H   0  0  0  0  0  0  0  0  0  0  0  0
  147.1921  137.6635  160.8546 H   0  0  0  0  0  0  0  0  0  0  0  0
  147.0872  135.4490  163.3892 H   0  0  0  0  0  0  0  0  0  0  0  0
  147.0840  133.4132  161.1252 H   0  0  0  0  0  0  0  0  0  0  0  0
  147.7068  133.1986  162.7608 H   0  0  0  0  0  0  0  0  0  0  0  0
  145.0954  132.5673  161.8618 H   0  0  0  0  0  0  0  0  0  0  0  0
  145.5266  132.7559  163.5623 H   0  0  0  0  0  0  0  0  0  0  0  0
  143.7656  134.4988  162.1704 H   0  0  0  0  0  0  0  0  0  0  0  0
  144.5835  134.8711  163.6918 H   0  0  0  0  0  0  0  0  0  0  0  0
  1  2  2  0  0  0  0
  2  3  1  0  0  0  0
  2  7  1  0  0  0  0
  3  4  1  0  0  0  0
  3 29  1  0  0  0  0
  4  6  1  0  0  0  0
  4  5  1  0  0  0  0
  4 30  1  0  0  0  0
  5  6  1  0  0  0  0
  5 31  1  0  0  0  0
  5 32  1  0  0  0  0
  6 33  1  0  0  0  0
  6 34  1  0  0  0  0
  7 11  1  0  0  0  0
  7  8  1  0  0  0  0
  7 35  1  0  0  0  0
  8  9  1  0  0  0  0
  8 36  1  0  0  0  0
  8 37  1  0  0  0  0
  9 10  1  0  0  0  0
  9 38  1  0  0  0  0
  9 39  1  0  0  0  0
 10 11  1  0  0  0  0
 10 40  1  0  0  0  0
 10 41  1  0  0  0  0
 11 12  1  0  0  0  0
 12 17  1  0  0  0  0
 12 13  2  0  0  0  0
 13 14  1  0  0  0  0
 14 15  2  0  0  0  0
 14 42  1  0  0  0  0
 15 16  1  0  0  0  0
 16 20  1  0  0  0  0
 16 17  2  0  0  0  0
 17 18  1  0  0  0  0
 18 19  2  0  0  0  0
 19 20  1  0  0  0  0
 19 43  1  0  0  0  0
 20 21  1  0  0  0  0
 21 22  1  0  0  0  0
 21 44  1  0  0  0  0
 21 45  1  0  0  0  0
 22 23  1  0  0  0  0
 22 24  1  0  0  0  0
 22 46  1  0  0  0  0
 23 47  1  0  0  0  0
 24 28  1  0  0  0  0
 24 25  1  0  0  0  0
 24 48  1  0  0  0  0
 25 26  1  0  0  0  0
 25 49  1  0  0  0  0
 25 50  1  0  0  0  0
 26 27  1  0  0  0  0
 26 51  1  0  0  0  0
 26 52  1  0  0  0  0
 27 28  1  0  0  0  0
 27 53  1  0  0  0  0
 27 54  1  0  0  0  0
M  END
> <s_m_source_file>
AV-unprocessed.smi

> <i_m_source_file_index>
235

> <i_lp_mmshare_version>
43012

> <i_f3d_flags>
0

> <s_epik_input>
W0NIMl0xW0NIMl1bQ0hdMVtOSF1DKD1PKVtDQEBIXTJbQ0gyXVtDSDJdW0NIMl1OMmMobltjSF1uMyljKGMzNCluW2NIXW40W0NIMl1bQ0BIXShbT0hdKVtDQEBIXTVbQ0gyXVtDSDJdW0NIMl1PNQ==

> <s_epik_cmdline>
J2VwaWtfcHl0aG9uJywgJy1waCcsICc3LjAnLCAnLXRuJywgJzgnLCAnLW1hJywgJzIwMCcsICctbWV0YWxfYmluZGluZycsICctaW1hZScsICc8aW5maWxlLm1hZT4nLCAnLW9tYWUnLCAnPG91dGZpbGUubWFlPic=

> <r_lp_tautomer_probability>
1

> <r_epik_Ionization_Penalty>
0.000526714

> <r_epik_Ionization_Penalty_Charging>
0

> <r_epik_Ionization_Penalty_Neutral>
0.000526714

> <r_epik_State_Penalty>
0.000272704

> <r_epik_Charging_Adjusted_Penalty>
0.000272704

> <i_epik_Tot_Q>
0

> <i_epik_Tot_abs_Q>
0

> <r_epik_Metal_State_Penalty>
-0

> <b_epik_Metal_Only>
0

> <s_lp_Force_Field>
OPLS_2005

> <r_lp_Energy>
57.0845

> <b_lp_Chiralities_Consistent>
1

> <s_lp_Variant>
AV-unprocessed.smi:235-4

> <Gold.Version>
5.8.1

> <Gold.Id.Protein>
6NUR|6NUR_protein|mol2

> <Gold.PLP.Fitness>
54.2488

> <Gold.PLP.PLP>
-51.9610

> <Gold.PLP.part.hbond>
-3.0000

> <Gold.PLP.part.metal>
0.0000

> <Gold.PLP.part.buried>
-4.5485

> <Gold.PLP.part.nonpolar>
-43.5069

> <Gold.PLP.part.repulsive>
0.0074

> <Gold.PLP.ligand.clash>
0.0000

> <Gold.PLP.ligand.torsion>
2.0099

> <Gold.PLP.Chemscore.Hbond>
1.9920

> <Gold.PLP.Chemscore.CHOScore>
0.0000

> <Gold.PLP.Chemscore.Metal>
0.0000

> <Gold.Chemscore.Hbonds>
donor molecule, donor type, donor heavy atom, donor atom, acceptor molecule, acceptor atom, score
      P1  H  6896  6907       L1    15  0.91
      P1  H  6931  6943       L1    23  0.93

> <Gold.PLP.Chemscore.Internal.Correction>
0.3315

> <Gold.Rescore>
     Score         DG    S(hbond)    S(metal)    S(lipo)     H(rot)  DE(clash)    DE(int)     intcor
     12.78     -16.19       1.46        0.00     108.33       2.68       0.37       3.04       ----

> <Gold.Chemscore.Fitness>
12.7838

> <Gold.Chemscore.DG>
-16.1928

> <Gold.Chemscore.ZeroCoef>
-5.4800

> <Gold.Chemscore.Hbond>
1.4639

> <Gold.Chemscore.Metal>
0.0000

> <Gold.Chemscore.Lipo>
108.3258

> <Gold.Chemscore.Internal_Hbond>
0.0000

> <Gold.Chemscore.DEClash>
0.3675

> <Gold.Chemscore.DEInternal>
3.0415

> <Gold.Chemscore.Rot>
2.6760

> <Gold.Chemscore.Internal.Correction>
   9.000000E+99

> <Gold.Chemscore.Hbonds>
donor molecule, donor type, donor heavy atom, donor atom, acceptor molecule, acceptor atom, score
      L1  H     3    29       P1  8028  0.03
      P1  H  6896  6907       L1    15  0.67
      P1  H  6931  6943       L1    23  0.73

> <Gold.Chemscore.Hbond.Weighted>
-4.8893

> <Gold.Chemscore.Metal.Weighted>
-0.0000

> <Gold.Chemscore.Lipo.Weighted>
-12.6741

> <Gold.Chemscore.Internal_Hbond.Weighted>
0.0000

> <Gold.Chemscore.DEClash.Weighted>
0.3675

> <Gold.Chemscore.DEInternal.Weighted>
3.0415

> <Gold.Chemscore.Rot.Weighted>
6.8506

> <Gold.Chemscore.Internal.Correction.Weighted>
   9.000000E+99

> <Gold.Protein.RotatedTorsions>
[ 6907 6896 6895 6894 ] final  -45.34 input  -60.11 | X-H torsion
[ 7974 7965 7964 7962 ] final  148.52 input  175.53 | X-H torsion
[ 8008 7997 7996 7995 ] final -179.18 input   59.86 | X-H torsion
[ 10167 10162 10161 10158 ] final -105.64 input  -65.29 | X-H torsion
[ 10718 10713 10712 10709 ] final   23.90 input   66.30 | X-H torsion
[ 10763 10752 10751 10750 ] final   49.72 input  -60.55 | X-H torsion
[ 11005 11000 10999 10996 ] final   92.25 input  -57.11 | X-H torsion

> <Gold.Protein.ActiveResidues>
 VAL166  LYS551  ARG553  GLY616  TRP617  ASP618  TYR619  PRO620  LYS621  CYS622 
 ASP623  PHE694  ASN695  SER759  ASP760  ASP761  ALA762  ILE779  LEU786  VAL792 
 PHE793  MET794  SER795  GLU796  ALA797  LYS798  CYS799  TRP800  GLU811  SER814 

> <Gold.Protein.RotatedAtoms>
  150.9229  134.8647  159.7500 H   0  0  0  0  0  0  0  0  0  0  0  0  # atno 6907 bound_to 6896
  152.5001  134.4191  159.9484 H   0  0  0  0  0  0  0  0  0  0  0  0  # atno 6908 bound_to 6896
  151.4224  133.3655  159.2793 H   0  0  0  0  0  0  0  0  0  0  0  0  # atno 6909 bound_to 6896
  144.8507  139.6165  143.5975 H   0  0  0  0  0  0  0  0  0  0  0  0  # atno 7974 bound_to 7965
  156.0275  140.1274  157.0293 H   0  0  0  0  0  0  0  0  0  0  0  0  # atno 8008 bound_to 7997
  154.4336  140.1056  156.6122 H   0  0  0  0  0  0  0  0  0  0  0  0  # atno 8009 bound_to 7997
  155.5856  140.3468  155.4554 H   0  0  0  0  0  0  0  0  0  0  0  0  # atno 8010 bound_to 7997
  140.1963  143.3853  152.1165 H   0  0  0  0  0  0  0  0  0  0  0  0  # atno 10167 bound_to 10162
  157.1725  130.6766  149.6083 H   0  0  0  0  0  0  0  0  0  0  0  0  # atno 10718 bound_to 10713
  152.9786  135.5902  154.4134 H   0  0  0  0  0  0  0  0  0  0  0  0  # atno 10763 bound_to 10752
  154.3767  135.2767  155.2237 H   0  0  0  0  0  0  0  0  0  0  0  0  # atno 10764 bound_to 10752
  154.4169  135.6068  153.6040 H   0  0  0  0  0  0  0  0  0  0  0  0  # atno 10765 bound_to 10752
  139.8826  134.8722  156.3546 H   0  0  0  0  0  0  0  0  0  0  0  0  # atno 11005 bound_to 11000
  146.2782  139.6808  142.9248 LP  0  0  0  0  0  0  0  0  0  0  0  0  # atno 17320 bound_to 7965
  145.4505  141.0428  143.2807 LP  0  0  0  0  0  0  0  0  0  0  0  0  # atno 17321 bound_to 7965
  139.5235  144.7072  151.5317 LP  0  0  0  0  0  0  0  0  0  0  0  0  # atno 17342 bound_to 10162
  140.6421  143.8868  150.6702 LP  0  0  0  0  0  0  0  0  0  0  0  0  # atno 17343 bound_to 10162
  155.9736  130.4674  150.6324 LP  0  0  0  0  0  0  0  0  0  0  0  0  # atno 17370 bound_to 10713
  157.4030  131.0812  151.1291 LP  0  0  0  0  0  0  0  0  0  0  0  0  # atno 17371 bound_to 10713
  140.9571  133.7413  156.0350 LP  0  0  0  0  0  0  0  0  0  0  0  0  # atno 17394 bound_to 11000
  140.8035  134.3481  157.5433 LP  0  0  0  0  0  0  0  0  0  0  0  0  # atno 17395 bound_to 11000

$$$$
