AV-unprocessed.smi:2864|AV-procd|sdf|11013|dock8
  -GOLD-   2272015473D 1   1.00000     0.00000
 Structure written by MMmdl.
 37 38  0  0  0  0  0  0  0  0  1 V2000
  153.3946  139.2582  160.0770 C   0  0  0  0  0  0  0  0  0  0  0  0
  153.0353  140.6643  159.6431 C   0  0  0  0  0  0  0  0  0  0  0  0
  153.7371  141.7663  160.1662 C   0  0  0  0  0  0  0  0  0  0  0  0
  153.4085  143.0698  159.7524 C   0  0  0  0  0  0  0  0  0  0  0  0
  152.3757  143.2878  158.8156 C   0  0  0  0  0  0  0  0  0  0  0  0
  152.0719  144.7138  158.3868 C   0  0  0  0  0  0  0  0  0  0  0  0
  151.6543  142.1818  158.2928 C   0  0  0  0  0  0  0  0  0  0  0  0
  150.5349  142.3749  157.2693 C   0  0  2  0  0  0  0  0  0  0  0  0
  149.5259  143.2428  157.7509 O   0  0  0  0  0  0  0  0  0  0  0  0
  149.8885  141.0216  156.9002 C   0  0  0  0  0  0  0  0  0  0  0  0
  148.9442  141.1515  155.7837 N   0  0  0  0  0  0  0  0  0  0  0  0
  147.7661  141.8000  156.1139 N   0  0  0  0  0  0  0  0  0  0  0  0
  146.8278  141.9777  155.2409 C   0  0  0  0  0  0  0  0  0  0  0  0
  145.5789  142.6897  155.6995 C   0  0  0  0  0  0  0  0  0  0  0  0
  144.5516  141.8401  155.7269 F   0  0  0  0  0  0  0  0  0  0  0  0
  145.7387  143.2015  156.9204 F   0  0  0  0  0  0  0  0  0  0  0  0
  145.2837  143.6825  154.8595 F   0  0  0  0  0  0  0  0  0  0  0  0
  147.0227  141.4879  153.8864 C   0  0  0  0  0  0  0  0  0  0  0  0
  148.1706  140.8520  153.5682 C   0  0  0  0  0  0  0  0  0  0  0  0
  149.2303  140.6406  154.5513 C   0  0  0  0  0  0  0  0  0  0  0  0
  150.2799  140.0515  154.2956 O   0  0  0  0  0  0  0  0  0  0  0  0
  152.0026  140.8751  158.7084 C   0  0  0  0  0  0  0  0  0  0  0  0
  153.7655  139.2506  161.1023 H   0  0  0  0  0  0  0  0  0  0  0  0
  154.1700  138.8515  159.4277 H   0  0  0  0  0  0  0  0  0  0  0  0
  152.5253  138.6017  160.0276 H   0  0  0  0  0  0  0  0  0  0  0  0
  154.5323  141.6157  160.8817 H   0  0  0  0  0  0  0  0  0  0  0  0
  153.9601  143.9057  160.1574 H   0  0  0  0  0  0  0  0  0  0  0  0
  152.0818  144.8019  157.3004 H   0  0  0  0  0  0  0  0  0  0  0  0
  152.8107  145.4126  158.7799 H   0  0  0  0  0  0  0  0  0  0  0  0
  151.0926  145.0218  158.7534 H   0  0  0  0  0  0  0  0  0  0  0  0
  150.9426  142.8511  156.3784 H   0  0  0  0  0  0  0  0  0  0  0  0
  149.0919  143.6391  157.0107 H   0  0  0  0  0  0  0  0  0  0  0  0
  150.6709  140.3312  156.5781 H   0  0  0  0  0  0  0  0  0  0  0  0
  149.4422  140.5418  157.7735 H   0  0  0  0  0  0  0  0  0  0  0  0
  146.2529  141.6324  153.1430 H   0  0  0  0  0  0  0  0  0  0  0  0
  148.3114  140.4886  152.5605 H   0  0  0  0  0  0  0  0  0  0  0  0
  151.4772  140.0214  158.3058 H   0  0  0  0  0  0  0  0  0  0  0  0
  1  2  1  0  0  0  0
  1 23  1  0  0  0  0
  1 24  1  0  0  0  0
  1 25  1  0  0  0  0
  2 22  1  0  0  0  0
  2  3  2  0  0  0  0
  3  4  1  0  0  0  0
  3 26  1  0  0  0  0
  4  5  2  0  0  0  0
  4 27  1  0  0  0  0
  5  6  1  0  0  0  0
  5  7  1  0  0  0  0
  6 28  1  0  0  0  0
  6 29  1  0  0  0  0
  6 30  1  0  0  0  0
  7  8  1  0  0  0  0
  7 22  2  0  0  0  0
  8  9  1  0  0  0  0
  8 10  1  0  0  0  0
  8 31  1  0  0  0  0
  9 32  1  0  0  0  0
 10 11  1  0  0  0  0
 10 33  1  0  0  0  0
 10 34  1  0  0  0  0
 11 20  1  0  0  0  0
 11 12  1  0  0  0  0
 12 13  2  0  0  0  0
 13 14  1  0  0  0  0
 13 18  1  0  0  0  0
 14 15  1  0  0  0  0
 14 16  1  0  0  0  0
 14 17  1  0  0  0  0
 18 19  2  0  0  0  0
 18 35  1  0  0  0  0
 19 20  1  0  0  0  0
 19 36  1  0  0  0  0
 20 21  2  0  0  0  0
 22 37  1  0  0  0  0
M  END
> <s_m_source_file>
AV-unprocessed.smi

> <i_m_source_file_index>
2864

> <i_lp_mmshare_version>
43012

> <i_f3d_flags>
0

> <s_epik_input>
W0NIM11jMVtjSF1bY0hdYyhbQ0gzXSljKFtjSF0xKVtDQEhdKFtPSF0pW0NIMl1uMm5jKEMoRikoRilGKVtjSF1bY0hdYzI9Tw==

> <s_epik_cmdline>
J2VwaWtfcHl0aG9uJywgJy1waCcsICc3LjAnLCAnLXRuJywgJzgnLCAnLW1hJywgJzIwMCcsICctbWV0YWxfYmluZGluZycsICctaW1hZScsICc8aW5maWxlLm1hZT4nLCAnLW9tYWUnLCAnPG91dGZpbGUubWFlPic=

> <r_lp_tautomer_probability>
1

> <r_epik_Ionization_Penalty>
5.25156e-08

> <r_epik_Ionization_Penalty_Charging>
3.92872e-09

> <r_epik_Ionization_Penalty_Neutral>
4.85868e-08

> <r_epik_State_Penalty>
-0

> <r_epik_Charging_Adjusted_Penalty>
3.92872e-09

> <i_epik_Tot_Q>
0

> <i_epik_Tot_abs_Q>
0

> <r_epik_Metal_State_Penalty>
-0

> <b_epik_Metal_Only>
0

> <s_lp_Force_Field>
OPLS_2005

> <r_lp_Energy>
30.6225

> <b_lp_Chiralities_Consistent>
1

> <s_lp_Variant>
AV-unprocessed.smi:2864-1

> <Gold.Version>
5.8.1

> <Gold.Id.Protein>
6NUR|6NUR_protein|mol2

> <Gold.PLP.Fitness>
51.9669

> <Gold.PLP.PLP>
-46.7537

> <Gold.PLP.part.hbond>
-2.3916

> <Gold.PLP.part.metal>
0.0000

> <Gold.PLP.part.buried>
-4.0419

> <Gold.PLP.part.nonpolar>
-41.7791

> <Gold.PLP.part.repulsive>
0.2560

> <Gold.PLP.ligand.clash>
0.0000

> <Gold.PLP.ligand.torsion>
0.3983

> <Gold.PLP.Chemscore.Hbond>
2.0000

> <Gold.PLP.Chemscore.CHOScore>
0.0000

> <Gold.PLP.Chemscore.Metal>
0.0000

> <Gold.Chemscore.Hbonds>
donor molecule, donor type, donor heavy atom, donor atom, acceptor molecule, acceptor atom, score
      L1  H     9    32       P1  8028  1.00
      P1  H  7989  7998       L1    21  1.00

> <Gold.PLP.Chemscore.Internal.Correction>
0.0099

> <Gold.Rescore>
     Score         DG    S(hbond)    S(metal)    S(lipo)     H(rot)  DE(clash)    DE(int)     intcor
     18.19     -19.86       1.93        0.00     112.79       2.05       0.04       1.63       ----

> <Gold.Chemscore.Fitness>
18.1925

> <Gold.Chemscore.DG>
-19.8639

> <Gold.Chemscore.ZeroCoef>
-5.4800

> <Gold.Chemscore.Hbond>
1.9280

> <Gold.Chemscore.Metal>
0.0000

> <Gold.Chemscore.Lipo>
112.7911

> <Gold.Chemscore.Internal_Hbond>
0.0000

> <Gold.Chemscore.DEClash>
0.0428

> <Gold.Chemscore.DEInternal>
1.6286

> <Gold.Chemscore.Rot>
2.0517

> <Gold.Chemscore.Internal.Correction>
   9.000000E+99

> <Gold.Chemscore.Hbonds>
donor molecule, donor type, donor heavy atom, donor atom, acceptor molecule, acceptor atom, score
      L1  H     9    32       P1  8028  0.60
      P1  H  7989  7998       L1    21  0.97

> <Gold.Chemscore.Hbond.Weighted>
-6.4397

> <Gold.Chemscore.Metal.Weighted>
-0.0000

> <Gold.Chemscore.Lipo.Weighted>
-13.1966

> <Gold.Chemscore.Internal_Hbond.Weighted>
0.0000

> <Gold.Chemscore.DEClash.Weighted>
0.0428

> <Gold.Chemscore.DEInternal.Weighted>
1.6286

> <Gold.Chemscore.Rot.Weighted>
5.2524

> <Gold.Chemscore.Internal.Correction.Weighted>
   9.000000E+99

> <Gold.Protein.RotatedTorsions>
[ 6907 6896 6895 6894 ] final   -7.03 input  -60.11 | X-H torsion
[ 7974 7965 7964 7962 ] final  121.16 input  175.53 | X-H torsion
[ 8008 7997 7996 7995 ] final  139.38 input   59.86 | X-H torsion
[ 10167 10162 10161 10158 ] final  176.63 input  -65.29 | X-H torsion
[ 10718 10713 10712 10709 ] final   65.42 input   66.30 | X-H torsion
[ 10763 10752 10751 10750 ] final   88.17 input  -60.55 | X-H torsion
[ 11005 11000 10999 10996 ] final    8.80 input  -57.11 | X-H torsion

> <Gold.Protein.ActiveResidues>
 VAL166  LYS551  ARG553  GLY616  TRP617  ASP618  TYR619  PRO620  LYS621  CYS622 
 ASP623  PHE694  ASN695  SER759  ASP760  ASP761  ALA762  ILE779  LEU786  VAL792 
 PHE793  MET794  SER795  GLU796  ALA797  LYS798  CYS799  TRP800  GLU811  SER814 

> <Gold.Protein.RotatedAtoms>
  151.4561  135.1034  159.9711 H   0  0  0  0  0  0  0  0  0  0  0  0  # atno 6907 bound_to 6896
  152.4870  133.8395  159.7156 H   0  0  0  0  0  0  0  0  0  0  0  0  # atno 6908 bound_to 6896
  150.8989  133.7085  159.2911 H   0  0  0  0  0  0  0  0  0  0  0  0  # atno 6909 bound_to 6896
  145.1226  139.3379  143.4706 H   0  0  0  0  0  0  0  0  0  0  0  0  # atno 7974 bound_to 7965
  156.2990  140.2369  156.4228 H   0  0  0  0  0  0  0  0  0  0  0  0  # atno 8008 bound_to 7997
  154.8340  140.0431  157.1516 H   0  0  0  0  0  0  0  0  0  0  0  0  # atno 8009 bound_to 7997
  154.9177  140.2999  155.5236 H   0  0  0  0  0  0  0  0  0  0  0  0  # atno 8010 bound_to 7997
  139.5221  144.2893  152.0478 H   0  0  0  0  0  0  0  0  0  0  0  0  # atno 10167 bound_to 10162
  157.6104  130.9213  149.9974 H   0  0  0  0  0  0  0  0  0  0  0  0  # atno 10718 bound_to 10713
  153.1742  135.4516  154.9942 H   0  0  0  0  0  0  0  0  0  0  0  0  # atno 10763 bound_to 10752
  154.7986  135.3247  154.7607 H   0  0  0  0  0  0  0  0  0  0  0  0  # atno 10764 bound_to 10752
  153.8080  135.6957  153.4900 H   0  0  0  0  0  0  0  0  0  0  0  0  # atno 10765 bound_to 10752
  140.5329  134.0449  155.7879 H   0  0  0  0  0  0  0  0  0  0  0  0  # atno 11005 bound_to 11000
  146.3520  140.1192  142.8601 LP  0  0  0  0  0  0  0  0  0  0  0  0  # atno 17320 bound_to 7965
  145.0723  140.9164  143.4874 LP  0  0  0  0  0  0  0  0  0  0  0  0  # atno 17321 bound_to 7965
  140.2345  144.4334  150.6286 LP  0  0  0  0  0  0  0  0  0  0  0  0  # atno 17342 bound_to 10162
  140.6333  143.2191  151.6450 LP  0  0  0  0  0  0  0  0  0  0  0  0  # atno 17343 bound_to 10162
  156.1205  130.3646  149.9895 LP  0  0  0  0  0  0  0  0  0  0  0  0  # atno 17370 bound_to 10713
  156.7977  130.9279  151.3646 LP  0  0  0  0  0  0  0  0  0  0  0  0  # atno 17371 bound_to 10713
  141.1271  133.9364  157.2612 LP  0  0  0  0  0  0  0  0  0  0  0  0  # atno 17394 bound_to 11000
  139.9545  135.0168  156.9088 LP  0  0  0  0  0  0  0  0  0  0  0  0  # atno 17395 bound_to 11000

$$$$
