AV-unprocessed.smi:1552|AV-procd|sdf|6236|dock3
  -GOLD-   22720 6413D 1   1.00000     0.00000
 Structure written by MMmdl.
 49 50  0  0  0  0  0  0  0  0  3 V2000
  147.2310  133.3823  151.6449 C   0  0  0  0  0  0  0  0  0  0  0  0
  146.9589  134.6198  152.4131 N   0  3  0  0  0  0  0  0  0  0  0  0
  145.7315  135.3052  151.9421 C   0  0  0  0  0  0  0  0  0  0  0  0
  147.0921  134.4543  153.8955 C   0  0  2  0  0  0  0  0  0  0  0  0
  146.6896  135.7299  154.6865 C   0  0  0  0  0  0  0  0  0  0  0  0
  147.3871  136.9273  154.2229 N   0  0  0  0  0  0  0  0  0  0  0  0
  147.1622  138.2070  154.5639 C   0  0  0  0  0  0  0  0  0  0  0  0
  146.2532  138.4905  155.3414 O   0  0  0  0  0  0  0  0  0  0  0  0
  148.0110  139.3421  153.9628 C   0  0  0  0  0  0  0  0  0  0  0  0
  149.3738  139.3510  154.5172 N   0  0  0  0  0  0  0  0  0  0  0  0
  150.1609  138.1982  154.3445 C   0  0  0  0  0  0  0  0  0  0  0  0
  151.4231  138.1231  154.8081 C   0  0  0  0  0  0  0  0  0  0  0  0
  151.9724  139.2794  155.5051 C   0  0  0  0  0  0  0  0  0  0  0  0
  153.1227  139.2293  155.9360 O   0  0  0  0  0  0  0  0  0  0  0  0
  151.1705  140.3753  155.6455 N   0  5  0  0  0  0  0  0  0  0  0  0
  149.8890  140.4371  155.1691 C   0  0  0  0  0  0  0  0  0  0  0  0
  149.1853  141.4382  155.3072 O   0  0  0  0  0  0  0  0  0  0  0  0
  148.4739  133.8496  154.2897 C   0  0  0  0  0  0  0  0  0  0  0  0
  148.4283  132.3024  154.3527 C   0  0  0  0  0  0  0  0  0  0  0  0
  149.7843  131.6958  154.7483 C   0  0  0  0  0  0  0  0  0  0  0  0
  150.2760  132.2583  156.0881 C   0  0  0  0  0  0  0  0  0  0  0  0
  150.3409  133.7903  156.0427 C   0  0  0  0  0  0  0  0  0  0  0  0
  148.9848  134.3955  155.6459 C   0  0  0  0  0  0  0  0  0  0  0  0
  146.4524  132.6343  151.7919 H   0  0  0  0  0  0  0  0  0  0  0  0
  148.1872  132.9439  151.9315 H   0  0  0  0  0  0  0  0  0  0  0  0
  147.2811  133.6035  150.5784 H   0  0  0  0  0  0  0  0  0  0  0  0
  144.8494  134.6774  152.0624 H   0  0  0  0  0  0  0  0  0  0  0  0
  145.8198  135.5451  150.8823 H   0  0  0  0  0  0  0  0  0  0  0  0
  145.5647  136.2418  152.4724 H   0  0  0  0  0  0  0  0  0  0  0  0
  146.3583  133.6941  154.1684 H   0  0  0  0  0  0  0  0  0  0  0  0
  145.6104  135.8531  154.6424 H   0  0  0  0  0  0  0  0  0  0  0  0
  146.9272  135.5995  155.7425 H   0  0  0  0  0  0  0  0  0  0  0  0
  148.1075  136.7726  153.5324 H   0  0  0  0  0  0  0  0  0  0  0  0
  148.0439  139.3291  152.8748 H   0  0  0  0  0  0  0  0  0  0  0  0
  147.5083  140.2807  154.1992 H   0  0  0  0  0  0  0  0  0  0  0  0
  149.6832  137.3891  153.8115 H   0  0  0  0  0  0  0  0  0  0  0  0
  152.0150  137.2312  154.6645 H   0  0  0  0  0  0  0  0  0  0  0  0
  149.2086  134.1250  153.5327 H   0  0  0  0  0  0  0  0  0  0  0  0
  147.6679  131.9847  155.0677 H   0  0  0  0  0  0  0  0  0  0  0  0
  148.1358  131.8855  153.3889 H   0  0  0  0  0  0  0  0  0  0  0  0
  149.7016  130.6103  154.8105 H   0  0  0  0  0  0  0  0  0  0  0  0
  150.5202  131.9056  153.9712 H   0  0  0  0  0  0  0  0  0  0  0  0
  149.6051  131.9423  156.8882 H   0  0  0  0  0  0  0  0  0  0  0  0
  151.2583  131.8495  156.3269 H   0  0  0  0  0  0  0  0  0  0  0  0
  150.6500  134.1770  157.0141 H   0  0  0  0  0  0  0  0  0  0  0  0
  151.1040  134.1037  155.3289 H   0  0  0  0  0  0  0  0  0  0  0  0
  149.0952  135.4789  155.6098 H   0  0  0  0  0  0  0  0  0  0  0  0
  148.2521  134.1873  156.4266 H   0  0  0  0  0  0  0  0  0  0  0  0
  147.7160  135.2402  152.1647 H   0  0  0  0  0  0  0  0  0  0  0  0
  1  2  1  0  0  0  0
  1 24  1  0  0  0  0
  1 25  1  0  0  0  0
  1 26  1  0  0  0  0
  2  3  1  0  0  0  0
  2  4  1  0  0  0  0
  2 49  1  0  0  0  0
  3 27  1  0  0  0  0
  3 28  1  0  0  0  0
  3 29  1  0  0  0  0
  4  5  1  0  0  0  0
  4 18  1  0  0  0  0
  4 30  1  0  0  0  0
  5  6  1  0  0  0  0
  5 31  1  0  0  0  0
  5 32  1  0  0  0  0
  6  7  1  0  0  0  0
  6 33  1  0  0  0  0
  7  8  2  0  0  0  0
  7  9  1  0  0  0  0
  9 10  1  0  0  0  0
  9 34  1  0  0  0  0
  9 35  1  0  0  0  0
 10 16  1  0  0  0  0
 10 11  1  0  0  0  0
 11 12  2  0  0  0  0
 11 36  1  0  0  0  0
 12 13  1  0  0  0  0
 12 37  1  0  0  0  0
 13 14  2  0  0  0  0
 13 15  1  0  0  0  0
 15 16  1  0  0  0  0
 16 17  2  0  0  0  0
 18 23  1  0  0  0  0
 18 19  1  0  0  0  0
 18 38  1  0  0  0  0
 19 20  1  0  0  0  0
 19 39  1  0  0  0  0
 19 40  1  0  0  0  0
 20 21  1  0  0  0  0
 20 41  1  0  0  0  0
 20 42  1  0  0  0  0
 21 22  1  0  0  0  0
 21 43  1  0  0  0  0
 21 44  1  0  0  0  0
 22 23  1  0  0  0  0
 22 45  1  0  0  0  0
 22 46  1  0  0  0  0
 23 47  1  0  0  0  0
 23 48  1  0  0  0  0
M  CHG  1   2   1
M  CHG  1  15  -1
M  END
> <s_m_source_file>
AV-unprocessed.smi

> <i_m_source_file_index>
1552

> <i_lp_mmshare_version>
43012

> <i_f3d_flags>
0

> <s_epik_input>
W0NIMl0xW0NIMl1bQ0gyXVtDSDJdW0NIMl1bQ0hdMVtDQEhdKE4oW0NIM10pW0NIM10pW0NIMl1bTkhdQyg9TylbQ0gyXW4yW2NIXVtjSF1jKD1PKVtuSF1jMj1P

> <s_epik_cmdline>
J2VwaWtfcHl0aG9uJywgJy1waCcsICc3LjAnLCAnLXRuJywgJzgnLCAnLW1hJywgJzIwMCcsICctbWV0YWxfYmluZGluZycsICctaW1hZScsICc8aW5maWxlLm1hZT4nLCAnLW9tYWUnLCAnPG91dGZpbGUubWFlPic=

> <r_lp_tautomer_probability>
1

> <r_epik_Ionization_Penalty>
2.93575

> <r_epik_Ionization_Penalty_Charging>
0.00331645

> <r_epik_Ionization_Penalty_Neutral>
2.93244

> <r_epik_State_Penalty>
2.92822

> <r_epik_Charging_Adjusted_Penalty>
2.93154

> <i_epik_Tot_Q>
0

> <i_epik_Tot_abs_Q>
2

> <r_epik_Metal_State_Penalty>
0.448509

> <b_epik_Metal_Only>
1

> <s_lp_Force_Field>
OPLS_2005

> <r_lp_Energy>
39.5493

> <b_lp_Chiralities_Consistent>
1

> <s_lp_Variant>
AV-unprocessed.smi:1552-3

> <Gold.Version>
5.8.1

> <Gold.Id.Protein>
6NUR|6NUR_protein|mol2

> <Gold.PLP.Fitness>
50.8570

> <Gold.PLP.PLP>
-37.8631

> <Gold.PLP.part.hbond>
-4.0000

> <Gold.PLP.part.metal>
0.0000

> <Gold.PLP.part.buried>
-4.1272

> <Gold.PLP.part.nonpolar>
-30.4515

> <Gold.PLP.part.repulsive>
0.1722

> <Gold.PLP.ligand.clash>
0.0000

> <Gold.PLP.ligand.torsion>
1.3605

> <Gold.PLP.Chemscore.Hbond>
4.0645

> <Gold.PLP.Chemscore.CHOScore>
1.0000

> <Gold.PLP.Chemscore.Metal>
0.0000

> <Gold.Chemscore.Hbonds>
donor molecule, donor type, donor heavy atom, donor atom, acceptor molecule, acceptor atom, score
      L1  H     2    49       P1  7948  2.00
      L1  H     6    33       P1  7948  1.00
      P1  H  7989  7998       L1    15  0.02
      P1  H  7997  8008       L1    14  1.00
      L1  C    11    36       P1  7948  1.00

> <Gold.PLP.Chemscore.Internal.Correction>
0.5215

> <Gold.Rescore>
     Score         DG    S(hbond)    S(metal)    S(lipo)     H(rot)  DE(clash)    DE(int)     intcor
     15.41     -16.99       2.96        0.00      67.06       2.43       0.12       1.46       ----

> <Gold.Chemscore.Fitness>
15.4057

> <Gold.Chemscore.DG>
-16.9865

> <Gold.Chemscore.ZeroCoef>
-5.4800

> <Gold.Chemscore.Hbond>
2.9588

> <Gold.Chemscore.Metal>
0.0000

> <Gold.Chemscore.Lipo>
67.0615

> <Gold.Chemscore.Internal_Hbond>
0.0000

> <Gold.Chemscore.DEClash>
0.1162

> <Gold.Chemscore.DEInternal>
1.4646

> <Gold.Chemscore.Rot>
2.4305

> <Gold.Chemscore.Internal.Correction>
   9.000000E+99

> <Gold.Chemscore.Hbonds>
donor molecule, donor type, donor heavy atom, donor atom, acceptor molecule, acceptor atom, score
      L1  H     2    49       P1  7948  0.95
      L1  H     6    33       P1  7948  0.98
      P1  H  7997  8008       L1    14  0.95

> <Gold.Chemscore.Hbond.Weighted>
-9.8824

> <Gold.Chemscore.Metal.Weighted>
-0.0000

> <Gold.Chemscore.Lipo.Weighted>
-7.8462

> <Gold.Chemscore.Internal_Hbond.Weighted>
0.0000

> <Gold.Chemscore.DEClash.Weighted>
0.1162

> <Gold.Chemscore.DEInternal.Weighted>
1.4646

> <Gold.Chemscore.Rot.Weighted>
6.2220

> <Gold.Chemscore.Internal.Correction.Weighted>
   9.000000E+99

> <Gold.Protein.RotatedTorsions>
[ 6907 6896 6895 6894 ] final  -25.02 input  -60.11 | X-H torsion
[ 7974 7965 7964 7962 ] final -155.60 input  175.53 | X-H torsion
[ 8008 7997 7996 7995 ] final  -30.54 input   59.86 | X-H torsion
[ 10167 10162 10161 10158 ] final  -22.37 input  -65.29 | X-H torsion
[ 10718 10713 10712 10709 ] final  132.80 input   66.30 | X-H torsion
[ 10763 10752 10751 10750 ] final   31.44 input  -60.55 | X-H torsion
[ 11005 11000 10999 10996 ] final   64.75 input  -57.11 | X-H torsion

> <Gold.Protein.ActiveResidues>
 VAL166  LYS551  ARG553  GLY616  TRP617  ASP618  TYR619  PRO620  LYS621  CYS622 
 ASP623  PHE694  ASN695  SER759  ASP760  ASP761  ALA762  ILE779  LEU786  VAL792 
 PHE793  MET794  SER795  GLU796  ALA797  LYS798  CYS799  TRP800  GLU811  SER814 

> <Gold.Protein.RotatedAtoms>
  151.1811  135.0361  159.8792 H   0  0  0  0  0  0  0  0  0  0  0  0  # atno 6907 bound_to 6896
  152.5444  134.1062  159.8349 H   0  0  0  0  0  0  0  0  0  0  0  0  # atno 6908 bound_to 6896
  151.1179  133.5078  159.2635 H   0  0  0  0  0  0  0  0  0  0  0  0  # atno 6909 bound_to 6896
  144.7632  140.4227  143.5961 H   0  0  0  0  0  0  0  0  0  0  0  0  # atno 7974 bound_to 7965
  154.4247  140.1788  156.1423 H   0  0  0  0  0  0  0  0  0  0  0  0  # atno 8008 bound_to 7997
  155.9982  140.3362  155.6794 H   0  0  0  0  0  0  0  0  0  0  0  0  # atno 8009 bound_to 7997
  155.6280  140.0667  157.2648 H   0  0  0  0  0  0  0  0  0  0  0  0  # atno 8010 bound_to 7997
  140.7285  143.4541  151.0474 H   0  0  0  0  0  0  0  0  0  0  0  0  # atno 10167 bound_to 10162
  157.4836  131.1087  150.9649 H   0  0  0  0  0  0  0  0  0  0  0  0  # atno 10718 bound_to 10713
  153.0315  135.6439  154.1200 H   0  0  0  0  0  0  0  0  0  0  0  0  # atno 10763 bound_to 10752
  154.0921  135.2865  155.3271 H   0  0  0  0  0  0  0  0  0  0  0  0  # atno 10764 bound_to 10752
  154.6457  135.5444  153.7905 H   0  0  0  0  0  0  0  0  0  0  0  0  # atno 10765 bound_to 10752
  139.9938  134.6549  156.0045 H   0  0  0  0  0  0  0  0  0  0  0  0  # atno 11005 bound_to 11000
  145.6551  139.1571  143.2840 LP  0  0  0  0  0  0  0  0  0  0  0  0  # atno 17320 bound_to 7965
  146.1716  140.6637  142.9230 LP  0  0  0  0  0  0  0  0  0  0  0  0  # atno 17321 bound_to 7965
  139.8220  143.7807  152.3177 LP  0  0  0  0  0  0  0  0  0  0  0  0  # atno 17342 bound_to 10162
  139.7893  144.7416  150.9977 LP  0  0  0  0  0  0  0  0  0  0  0  0  # atno 17343 bound_to 10162
  157.0374  130.5735  149.5351 LP  0  0  0  0  0  0  0  0  0  0  0  0  # atno 17370 bound_to 10713
  156.0135  130.5228  150.8062 LP  0  0  0  0  0  0  0  0  0  0  0  0  # atno 17371 bound_to 10713
  141.1588  133.6540  156.4249 LP  0  0  0  0  0  0  0  0  0  0  0  0  # atno 17394 bound_to 11000
  140.4857  134.6623  157.5190 LP  0  0  0  0  0  0  0  0  0  0  0  0  # atno 17395 bound_to 11000

$$$$
