AV-unprocessed.smi:72|AV-procd|sdf|743|dock5
  -GOLD-   2262017 73D 1   1.00000     0.00000
 Structure written by MMmdl.
 29 30  0  0  0  0  0  0  0  0  1 V2000
  148.1846  134.5478  158.5578 N   0  0  0  0  0  0  0  0  0  0  0  0
  148.6724  135.7550  158.1031 C   0  0  0  0  0  0  0  0  0  0  0  0
  148.0091  136.3211  157.0055 N   0  0  0  0  0  0  0  0  0  0  0  0
  148.4548  137.4622  156.5849 C   0  0  0  0  0  0  0  0  0  0  0  0
  149.5791  138.1168  157.2287 N   0  0  0  0  0  0  0  0  0  0  0  0
  150.0966  139.4480  156.7321 C   0  0  2  0  0  0  0  0  0  0  0  0
  149.0886  140.4053  156.8750 O   0  0  0  0  0  0  0  0  0  0  0  0
  148.9973  141.1923  155.6922 C   0  0  2  0  0  0  0  0  0  0  0  0
  147.5763  141.7602  155.5599 C   0  0  0  0  0  0  0  0  0  0  0  0
  147.5088  142.6384  154.4572 O   0  0  0  0  0  0  0  0  0  0  0  0
  149.3602  140.1868  154.5980 C   0  0  1  0  0  0  0  0  0  0  0  0
  149.7480  140.8028  153.3840 O   0  0  0  0  0  0  0  0  0  0  0  0
  150.4724  139.3659  155.2439 C   0  0  1  0  0  0  0  0  0  0  0  0
  151.7574  139.9155  155.0180 O   0  0  0  0  0  0  0  0  0  0  0  0
  150.2250  137.4716  158.3187 C   0  0  0  0  0  0  0  0  0  0  0  0
  151.2086  137.9850  158.8518 O   0  0  0  0  0  0  0  0  0  0  0  0
  149.6987  136.2438  158.7387 N   0  0  0  0  0  0  0  0  0  0  0  0
  150.9274  139.7282  157.3812 H   0  0  0  0  0  0  0  0  0  0  0  0
  149.7451  141.9872  155.7258 H   0  0  0  0  0  0  0  0  0  0  0  0
  148.5064  139.5361  154.4041 H   0  0  0  0  0  0  0  0  0  0  0  0
  150.4701  138.3336  154.8908 H   0  0  0  0  0  0  0  0  0  0  0  0
  148.5824  134.0478  159.3394 H   0  0  0  0  0  0  0  0  0  0  0  0
  147.3994  134.0703  158.1391 H   0  0  0  0  0  0  0  0  0  0  0  0
  148.0260  137.9947  155.7348 H   0  0  0  0  0  0  0  0  0  0  0  0
  146.8642  140.9542  155.3808 H   0  0  0  0  0  0  0  0  0  0  0  0
  147.2662  142.2708  156.4722 H   0  0  0  0  0  0  0  0  0  0  0  0
  148.1041  143.3564  154.6104 H   0  0  0  0  0  0  0  0  0  0  0  0
  149.5531  140.2123  152.6726 H   0  0  0  0  0  0  0  0  0  0  0  0
  152.1400  140.1392  155.8526 H   0  0  0  0  0  0  0  0  0  0  0  0
  1  2  1  0  0  0  0
  1 22  1  0  0  0  0
  1 23  1  0  0  0  0
  2 17  2  0  0  0  0
  2  3  1  0  0  0  0
  3  4  2  0  0  0  0
  4  5  1  0  0  0  0
  4 24  1  0  0  0  0
  5  6  1  0  0  0  0
  5 15  1  0  0  0  0
  6 18  1  0  0  0  0
  6 13  1  0  0  0  0
  6  7  1  0  0  0  0
  7  8  1  0  0  0  0
  8 19  1  0  0  0  0
  8  9  1  0  0  0  0
  8 11  1  0  0  0  0
  9 10  1  0  0  0  0
  9 25  1  0  0  0  0
  9 26  1  0  0  0  0
 10 27  1  0  0  0  0
 11 20  1  0  0  0  0
 11 12  1  0  0  0  0
 11 13  1  0  0  0  0
 12 28  1  0  0  0  0
 13 21  1  0  0  0  0
 13 14  1  0  0  0  0
 14 29  1  0  0  0  0
 15 16  2  0  0  0  0
 15 17  1  0  0  0  0
M  END
> <s_m_source_file>
AV-unprocessed.smi

> <i_m_source_file_index>
72

> <i_lp_mmshare_version>
43012

> <i_f3d_flags>
0

> <s_epik_input>
W05IMl1jMW5bY0hdbihjKD1PKW4xKVtDQEBIXTJPW0NASF0oW0NIMl1bT0hdKVtDQEBIXShbT0hdKVtDQEhdMltPSF0=

> <s_epik_cmdline>
J2VwaWtfcHl0aG9uJywgJy1waCcsICc3LjAnLCAnLXRuJywgJzgnLCAnLW1hJywgJzIwMCcsICctbWV0YWxfYmluZGluZycsICctaW1hZScsICc8aW5maWxlLm1hZT4nLCAnLW9tYWUnLCAnPG91dGZpbGUubWFlPic=

> <r_lp_tautomer_probability>
4.77166e-05

> <r_epik_Ionization_Penalty>
1.3546

> <r_epik_Ionization_Penalty_Charging>
1.46833e-10

> <r_epik_Ionization_Penalty_Neutral>
1.3546

> <r_epik_State_Penalty>
3.51908

> <r_epik_Charging_Adjusted_Penalty>
3.51908

> <i_epik_Tot_Q>
0

> <i_epik_Tot_abs_Q>
0

> <r_epik_Metal_State_Penalty>
3.44088

> <b_epik_Metal_Only>
1

> <s_epik_Chemistry_Notes>
This compound contains an acetal/aminal-like group ( X-CH(R)-Y where X, Y are N, S, or O) that may be acid/base labile, releasing an aldehyde.

> <s_lp_Force_Field>
OPLS_2005

> <r_lp_Energy>
30.18

> <b_lp_Chiralities_Consistent>
1

> <s_lp_Variant>
AV-unprocessed.smi:72-81

> <Gold.Version>
5.8.1

> <Gold.Id.Protein>
6NUR|6NUR_protein|mol2

> <Gold.PLP.Fitness>
32.9288

> <Gold.PLP.PLP>
-18.8447

> <Gold.PLP.part.hbond>
-5.1701

> <Gold.PLP.part.metal>
0.0000

> <Gold.PLP.part.buried>
-3.8588

> <Gold.PLP.part.nonpolar>
-9.5414

> <Gold.PLP.part.repulsive>
0.1197

> <Gold.PLP.ligand.clash>
0.0000

> <Gold.PLP.ligand.torsion>
0.0543

> <Gold.PLP.Chemscore.Hbond>
4.7260

> <Gold.PLP.Chemscore.CHOScore>
0.0000

> <Gold.PLP.Chemscore.Metal>
0.0000

> <Gold.Chemscore.Hbonds>
donor molecule, donor type, donor heavy atom, donor atom, acceptor molecule, acceptor atom, score
      L1  H    10    27       P1  8028  1.00
      L1  H    12    28       P1  7957  0.86
      P1  H  6896  6908       L1    17  0.96
      P1  H  7989  7998       L1    14  0.99
      P1  H  8011  8017       L1    12  0.80

> <Gold.PLP.Chemscore.Internal.Correction>
0.0148

> <Gold.Rescore>
     Score         DG    S(hbond)    S(metal)    S(lipo)     H(rot)  DE(clash)    DE(int)     intcor
     10.01     -10.10       3.68        0.00      23.25       4.06       0.02       0.06       ----

> <Gold.Chemscore.Fitness>
10.0130

> <Gold.Chemscore.DG>
-10.0976

> <Gold.Chemscore.ZeroCoef>
-5.4800

> <Gold.Chemscore.Hbond>
3.6798

> <Gold.Chemscore.Metal>
0.0000

> <Gold.Chemscore.Lipo>
23.2540

> <Gold.Chemscore.Internal_Hbond>
0.0000

> <Gold.Chemscore.DEClash>
0.0224

> <Gold.Chemscore.DEInternal>
0.0622

> <Gold.Chemscore.Rot>
4.0600

> <Gold.Chemscore.Internal.Correction>
   9.000000E+99

> <Gold.Chemscore.Hbonds>
donor molecule, donor type, donor heavy atom, donor atom, acceptor molecule, acceptor atom, score
      L1  H    10    27       P1  8028  0.90
      L1  H    12    28       P1  7957  0.80
      P1  H  6896  6908       L1    17  0.83
      P1  H  7989  7998       L1    14  0.57
      P1  H  8011  8017       L1    12  0.12

> <Gold.Chemscore.Hbond.Weighted>
-12.2905

> <Gold.Chemscore.Metal.Weighted>
-0.0000

> <Gold.Chemscore.Lipo.Weighted>
-2.7207

> <Gold.Chemscore.Internal_Hbond.Weighted>
0.0000

> <Gold.Chemscore.DEClash.Weighted>
0.0224

> <Gold.Chemscore.DEInternal.Weighted>
0.0622

> <Gold.Chemscore.Rot.Weighted>
10.3936

> <Gold.Chemscore.Internal.Correction.Weighted>
   9.000000E+99

> <Gold.Protein.RotatedTorsions>
[ 6907 6896 6895 6894 ] final -161.55 input  -60.11 | X-H torsion
[ 7974 7965 7964 7962 ] final   94.27 input  175.53 | X-H torsion
[ 8008 7997 7996 7995 ] final -130.59 input   59.86 | X-H torsion
[ 10167 10162 10161 10158 ] final   70.99 input  -65.29 | X-H torsion
[ 10718 10713 10712 10709 ] final  -33.75 input   66.30 | X-H torsion
[ 10763 10752 10751 10750 ] final   99.03 input  -60.55 | X-H torsion
[ 11005 11000 10999 10996 ] final  179.84 input  -57.11 | X-H torsion

> <Gold.Protein.ActiveResidues>
 VAL166  LYS551  ARG553  GLY616  TRP617  ASP618  TYR619  PRO620  LYS621  CYS622 
 ASP623  PHE694  ASN695  SER759  ASP760  ASP761  ALA762  ILE779  LEU786  VAL792 
 PHE793  MET794  SER795  GLU796  ALA797  LYS798  CYS799  TRP800  GLU811  SER814 

> <Gold.Protein.RotatedAtoms>
  151.3664  133.3870  159.2694 H   0  0  0  0  0  0  0  0  0  0  0  0  # atno 6907 bound_to 6896
  150.9685  134.9063  159.7784 H   0  0  0  0  0  0  0  0  0  0  0  0  # atno 6908 bound_to 6896
  152.5176  134.3625  159.9342 H   0  0  0  0  0  0  0  0  0  0  0  0  # atno 6909 bound_to 6896
  145.4678  139.2283  143.2951 H   0  0  0  0  0  0  0  0  0  0  0  0  # atno 7974 bound_to 7965
  155.2984  140.0451  157.3028 H   0  0  0  0  0  0  0  0  0  0  0  0  # atno 8008 bound_to 7997
  154.5501  140.2314  155.8466 H   0  0  0  0  0  0  0  0  0  0  0  0  # atno 8009 bound_to 7997
  156.1959  140.3038  155.9433 H   0  0  0  0  0  0  0  0  0  0  0  0  # atno 8010 bound_to 7997
  140.0509  144.5312  150.7364 H   0  0  0  0  0  0  0  0  0  0  0  0  # atno 10167 bound_to 10162
  156.3588  130.4320  149.7641 H   0  0  0  0  0  0  0  0  0  0  0  0  # atno 10718 bound_to 10713
  153.2963  135.4128  155.1212 H   0  0  0  0  0  0  0  0  0  0  0  0  # atno 10763 bound_to 10752
  154.8536  135.3530  154.5912 H   0  0  0  0  0  0  0  0  0  0  0  0  # atno 10764 bound_to 10752
  153.6336  135.7060  153.5324 H   0  0  0  0  0  0  0  0  0  0  0  0  # atno 10765 bound_to 10752
  140.4106  134.6695  157.4612 H   0  0  0  0  0  0  0  0  0  0  0  0  # atno 11005 bound_to 11000
  146.2414  140.5454  142.8932 LP  0  0  0  0  0  0  0  0  0  0  0  0  # atno 17320 bound_to 7965
  144.7963  140.6129  143.6508 LP  0  0  0  0  0  0  0  0  0  0  0  0  # atno 17321 bound_to 7965
  140.7217  143.2595  151.4257 LP  0  0  0  0  0  0  0  0  0  0  0  0  # atno 17342 bound_to 10162
  139.5953  144.1410  152.2137 LP  0  0  0  0  0  0  0  0  0  0  0  0  # atno 17343 bound_to 10162
  156.4813  130.8042  151.3056 LP  0  0  0  0  0  0  0  0  0  0  0  0  # atno 17370 bound_to 10713
  157.7471  131.0005  150.2928 LP  0  0  0  0  0  0  0  0  0  0  0  0  # atno 17371 bound_to 10713
  140.0270  134.6462  155.9159 LP  0  0  0  0  0  0  0  0  0  0  0  0  # atno 17394 bound_to 11000
  141.1822  133.6548  156.5068 LP  0  0  0  0  0  0  0  0  0  0  0  0  # atno 17395 bound_to 11000

$$$$
