AV-unprocessed.smi:1699|AV-procd|sdf|6818|dock2
  -GOLD-   22720 7593D 1   1.00000     0.00000
 Structure written by MMmdl.
 37 38  0  0  0  0  0  0  0  0  1 V2000
  147.6954  132.8996  152.4363 C   0  0  0  0  0  0  0  0  0  0  0  0
  146.3305  132.8654  151.7677 C   0  0  0  0  0  0  0  0  0  0  0  0
  145.7706  131.6220  151.4052 C   0  0  0  0  0  0  0  0  0  0  0  0
  144.5090  131.5916  150.7870 C   0  0  0  0  0  0  0  0  0  0  0  0
  143.8555  132.8144  150.5574 C   0  0  0  0  0  0  0  0  0  0  0  0
  144.3830  134.0069  150.9007 N   0  0  0  0  0  0  0  0  0  0  0  0
  145.6006  134.0542  151.4976 C   0  0  0  0  0  0  0  0  0  0  0  0
  146.2193  135.2765  151.8848 N   0  0  0  0  0  0  0  0  0  0  0  0
  145.6382  136.4072  152.3229 C   0  0  0  0  0  0  0  0  0  0  0  0
  144.4283  136.5717  152.4809 O   0  0  0  0  0  0  0  0  0  0  0  0
  146.5543  137.3563  152.5682 N   0  0  0  0  0  0  0  0  0  0  0  0
  146.2802  138.7070  153.0569 C   0  0  1  0  0  0  0  0  0  0  0  0
  145.6333  138.6057  154.4461 C   0  0  0  0  0  0  0  0  0  0  0  0
  147.5744  139.5472  153.0873 C   0  0  1  0  0  0  0  0  0  0  0  0
  147.4290  140.9433  153.6977 C   0  0  0  0  0  0  0  0  0  0  0  0
  148.8465  141.2392  154.1280 C   0  0  0  0  0  0  0  0  0  0  0  0
  149.3065  139.8755  154.6331 C   0  0  0  0  0  0  0  0  0  0  0  0
  148.5669  138.9098  153.8895 O   0  0  0  0  0  0  0  0  0  0  0  0
  148.1017  131.8954  152.5612 H   0  0  0  0  0  0  0  0  0  0  0  0
  147.6253  133.3580  153.4231 H   0  0  0  0  0  0  0  0  0  0  0  0
  148.4015  133.4738  151.8357 H   0  0  0  0  0  0  0  0  0  0  0  0
  146.2996  130.7001  151.5972 H   0  0  0  0  0  0  0  0  0  0  0  0
  144.0539  130.6560  150.4971 H   0  0  0  0  0  0  0  0  0  0  0  0
  142.8839  132.8365  150.0866 H   0  0  0  0  0  0  0  0  0  0  0  0
  147.2257  135.2915  151.8135 H   0  0  0  0  0  0  0  0  0  0  0  0
  147.5239  137.1278  152.4056 H   0  0  0  0  0  0  0  0  0  0  0  0
  145.5638  139.2007  152.3977 H   0  0  0  0  0  0  0  0  0  0  0  0
  145.3775  139.5918  154.8346 H   0  0  0  0  0  0  0  0  0  0  0  0
  146.3026  138.1294  155.1633 H   0  0  0  0  0  0  0  0  0  0  0  0
  144.7134  138.0211  154.4090 H   0  0  0  0  0  0  0  0  0  0  0  0
  147.9803  139.6454  152.0789 H   0  0  0  0  0  0  0  0  0  0  0  0
  147.0339  141.6778  152.9952 H   0  0  0  0  0  0  0  0  0  0  0  0
  146.7744  140.9167  154.5702 H   0  0  0  0  0  0  0  0  0  0  0  0
  149.4431  141.5441  153.2673 H   0  0  0  0  0  0  0  0  0  0  0  0
  148.9126  142.0199  154.8863 H   0  0  0  0  0  0  0  0  0  0  0  0
  150.3807  139.7312  154.5165 H   0  0  0  0  0  0  0  0  0  0  0  0
  149.0618  139.7581  155.6893 H   0  0  0  0  0  0  0  0  0  0  0  0
  1  2  1  0  0  0  0
  1 19  1  0  0  0  0
  1 20  1  0  0  0  0
  1 21  1  0  0  0  0
  2  7  1  0  0  0  0
  2  3  2  0  0  0  0
  3  4  1  0  0  0  0
  3 22  1  0  0  0  0
  4  5  2  0  0  0  0
  4 23  1  0  0  0  0
  5  6  1  0  0  0  0
  5 24  1  0  0  0  0
  6  7  2  0  0  0  0
  7  8  1  0  0  0  0
  8  9  1  0  0  0  0
  8 25  1  0  0  0  0
  9 10  2  0  0  0  0
  9 11  1  0  0  0  0
 11 12  1  0  0  0  0
 11 26  1  0  0  0  0
 12 13  1  0  0  0  0
 12 14  1  0  0  0  0
 12 27  1  0  0  0  0
 13 28  1  0  0  0  0
 13 29  1  0  0  0  0
 13 30  1  0  0  0  0
 14 18  1  0  0  0  0
 14 15  1  0  0  0  0
 14 31  1  0  0  0  0
 15 16  1  0  0  0  0
 15 32  1  0  0  0  0
 15 33  1  0  0  0  0
 16 17  1  0  0  0  0
 16 34  1  0  0  0  0
 16 35  1  0  0  0  0
 17 18  1  0  0  0  0
 17 36  1  0  0  0  0
 17 37  1  0  0  0  0
M  END
> <s_m_source_file>
AV-unprocessed.smi

> <i_m_source_file_index>
1699

> <i_lp_mmshare_version>
43012

> <i_f3d_flags>
0

> <s_epik_input>
W0NIM11jMVtjSF1bY0hdW2NIXW5jMVtOSF1DKD1PKVtOSF1bQ0BIXShbQ0gzXSlbQ0BASF0yW0NIMl1bQ0gyXVtDSDJdTzI=

> <s_epik_cmdline>
J2VwaWtfcHl0aG9uJywgJy1waCcsICc3LjAnLCAnLXRuJywgJzgnLCAnLW1hJywgJzIwMCcsICctbWV0YWxfYmluZGluZycsICctaW1hZScsICc8aW5maWxlLm1hZT4nLCAnLW9tYWUnLCAnPG91dGZpbGUubWFlPic=

> <r_lp_tautomer_probability>
1

> <r_epik_Ionization_Penalty>
5.52788e-05

> <r_epik_Ionization_Penalty_Charging>
0

> <r_epik_Ionization_Penalty_Neutral>
5.52788e-05

> <r_epik_State_Penalty>
-0

> <r_epik_Charging_Adjusted_Penalty>
0

> <i_epik_Tot_Q>
0

> <i_epik_Tot_abs_Q>
0

> <r_epik_Metal_State_Penalty>
-0

> <b_epik_Metal_Only>
0

> <s_lp_Force_Field>
OPLS_2005

> <r_lp_Energy>
20.3495

> <b_lp_Chiralities_Consistent>
1

> <s_lp_Variant>
AV-unprocessed.smi:1699-4

> <Gold.Version>
5.8.1

> <Gold.Id.Protein>
6NUR|6NUR_protein|mol2

> <Gold.PLP.Fitness>
38.7514

> <Gold.PLP.PLP>
-30.2684

> <Gold.PLP.part.hbond>
-2.0000

> <Gold.PLP.part.metal>
0.0000

> <Gold.PLP.part.buried>
-1.5283

> <Gold.PLP.part.nonpolar>
-28.0580

> <Gold.PLP.part.repulsive>
0.7520

> <Gold.PLP.ligand.clash>
0.0000

> <Gold.PLP.ligand.torsion>
0.2649

> <Gold.PLP.Chemscore.Hbond>
2.0000

> <Gold.PLP.Chemscore.CHOScore>
1.0000

> <Gold.PLP.Chemscore.Metal>
0.0000

> <Gold.Chemscore.Hbonds>
donor molecule, donor type, donor heavy atom, donor atom, acceptor molecule, acceptor atom, score
      L1  H     8    25       P1  7948  1.00
      L1  H    11    26       P1  7948  1.00
      L1  C     5    24       P1 10186  1.00

> <Gold.PLP.Chemscore.Internal.Correction>
0.0127

> <Gold.Rescore>
     Score         DG    S(hbond)    S(metal)    S(lipo)     H(rot)  DE(clash)    DE(int)     intcor
     16.50     -17.73       1.96        0.00      75.60       1.22       0.04       1.19       ----

> <Gold.Chemscore.Fitness>
16.5024

> <Gold.Chemscore.DG>
-17.7313

> <Gold.Chemscore.ZeroCoef>
-5.4800

> <Gold.Chemscore.Hbond>
1.9550

> <Gold.Chemscore.Metal>
0.0000

> <Gold.Chemscore.Lipo>
75.5950

> <Gold.Chemscore.Internal_Hbond>
0.0000

> <Gold.Chemscore.DEClash>
0.0364

> <Gold.Chemscore.DEInternal>
1.1925

> <Gold.Chemscore.Rot>
1.2200

> <Gold.Chemscore.Internal.Correction>
   9.000000E+99

> <Gold.Chemscore.Hbonds>
donor molecule, donor type, donor heavy atom, donor atom, acceptor molecule, acceptor atom, score
      L1  H     8    25       P1  7948  0.95
      L1  H    11    26       P1  7948  1.00

> <Gold.Chemscore.Hbond.Weighted>
-6.5298

> <Gold.Chemscore.Metal.Weighted>
-0.0000

> <Gold.Chemscore.Lipo.Weighted>
-8.8446

> <Gold.Chemscore.Internal_Hbond.Weighted>
0.0000

> <Gold.Chemscore.DEClash.Weighted>
0.0364

> <Gold.Chemscore.DEInternal.Weighted>
1.1925

> <Gold.Chemscore.Rot.Weighted>
3.1232

> <Gold.Chemscore.Internal.Correction.Weighted>
   9.000000E+99

> <Gold.Protein.RotatedTorsions>
[ 6907 6896 6895 6894 ] final -135.03 input  -60.11 | X-H torsion
[ 7974 7965 7964 7962 ] final   90.89 input  175.53 | X-H torsion
[ 8008 7997 7996 7995 ] final  -90.49 input   59.86 | X-H torsion
[ 10167 10162 10161 10158 ] final   20.11 input  -65.29 | X-H torsion
[ 10718 10713 10712 10709 ] final   -1.18 input   66.30 | X-H torsion
[ 10763 10752 10751 10750 ] final   21.02 input  -60.55 | X-H torsion
[ 11005 11000 10999 10996 ] final  -62.59 input  -57.11 | X-H torsion

> <Gold.Protein.ActiveResidues>
 VAL166  LYS551  ARG553  GLY616  TRP617  ASP618  TYR619  PRO620  LYS621  CYS622 
 ASP623  PHE694  ASN695  SER759  ASP760  ASP761  ALA762  ILE779  LEU786  VAL792 
 PHE793  MET794  SER795  GLU796  ALA797  LYS798  CYS799  TRP800  GLU811  SER814 

> <Gold.Protein.RotatedAtoms>
  150.9930  133.6131  159.2705 H   0  0  0  0  0  0  0  0  0  0  0  0  # atno 6907 bound_to 6896
  151.3345  135.0848  159.9359 H   0  0  0  0  0  0  0  0  0  0  0  0  # atno 6908 bound_to 6896
  152.5251  133.9553  159.7746 H   0  0  0  0  0  0  0  0  0  0  0  0  # atno 6909 bound_to 6896
  145.5130  139.2277  143.2714 H   0  0  0  0  0  0  0  0  0  0  0  0  # atno 7974 bound_to 7965
  154.6992  140.0530  157.0441 H   0  0  0  0  0  0  0  0  0  0  0  0  # atno 8008 bound_to 7997
  155.0709  140.3199  155.4612 H   0  0  0  0  0  0  0  0  0  0  0  0  # atno 8009 bound_to 7997
  156.2754  140.2082  156.5836 H   0  0  0  0  0  0  0  0  0  0  0  0  # atno 8010 bound_to 7997
  140.5528  143.9478  150.6589 H   0  0  0  0  0  0  0  0  0  0  0  0  # atno 10167 bound_to 10162
  156.8094  130.5419  149.5711 H   0  0  0  0  0  0  0  0  0  0  0  0  # atno 10718 bound_to 10713
  153.1029  135.6677  153.9639 H   0  0  0  0  0  0  0  0  0  0  0  0  # atno 10763 bound_to 10752
  153.9205  135.3015  155.3449 H   0  0  0  0  0  0  0  0  0  0  0  0  # atno 10764 bound_to 10752
  154.7450  135.5062  153.9264 H   0  0  0  0  0  0  0  0  0  0  0  0  # atno 10765 bound_to 10752
  141.1365  133.6642  156.5551 H   0  0  0  0  0  0  0  0  0  0  0  0  # atno 11005 bound_to 11000
  146.2154  140.5938  142.9041 LP  0  0  0  0  0  0  0  0  0  0  0  0  # atno 17320 bound_to 7965
  144.7717  140.5652  143.6665 LP  0  0  0  0  0  0  0  0  0  0  0  0  # atno 17321 bound_to 7965
  140.2908  143.3325  152.1064 LP  0  0  0  0  0  0  0  0  0  0  0  0  # atno 17342 bound_to 10162
  139.5035  144.6756  151.6136 LP  0  0  0  0  0  0  0  0  0  0  0  0  # atno 17343 bound_to 10162
  156.1054  130.6000  150.9962 LP  0  0  0  0  0  0  0  0  0  0  0  0  # atno 17370 bound_to 10713
  157.6514  131.0896  150.8043 LP  0  0  0  0  0  0  0  0  0  0  0  0  # atno 17371 bound_to 10713
  140.4032  134.7338  157.4792 LP  0  0  0  0  0  0  0  0  0  0  0  0  # atno 17394 bound_to 11000
  140.0480  134.6171  155.8896 LP  0  0  0  0  0  0  0  0  0  0  0  0  # atno 17395 bound_to 11000

$$$$
