AV-unprocessed.smi:1726|AV-procd|sdf|6958|dock3
  -GOLD-   22720 8173D 1   1.00000     0.00000
 Structure written by MMmdl.
 43 44  0  0  0  0  0  0  0  0  2 V2000
  145.2370  132.8158  150.3026 C   0  0  0  0  0  0  0  0  0  0  0  0
  144.5441  132.1505  151.5008 C   0  0  0  0  0  0  0  0  0  0  0  0
  143.9626  133.1433  152.4381 N   0  3  2  0  0  0  0  0  0  0  0  0
  142.8640  133.9317  151.8215 C   0  0  0  0  0  0  0  0  0  0  0  0
  142.1809  134.8410  152.8584 C   0  0  0  0  0  0  0  0  0  0  0  0
  143.2000  135.7460  153.5713 C   0  0  0  0  0  0  0  0  0  0  0  0
  144.3553  134.9165  154.1598 C   0  0  1  0  0  0  0  0  0  0  0  0
  143.8695  134.1144  155.2834 N   0  0  0  0  0  0  0  0  0  0  0  0
  144.2055  134.2936  156.5687 C   0  0  0  0  0  0  0  0  0  0  0  0
  144.9819  135.1709  156.9452 O   0  0  0  0  0  0  0  0  0  0  0  0
  143.6067  133.3792  157.3531 N   0  0  0  0  0  0  0  0  0  0  0  0
  143.6865  133.2150  158.7462 C   0  0  0  0  0  0  0  0  0  0  0  0
  144.3882  134.0214  159.5850 C   0  0  0  0  0  0  0  0  0  0  0  0
  144.4178  133.8009  161.0213 C   0  0  0  0  0  0  0  0  0  0  0  0
  145.2740  134.6580  161.9405 C   0  0  0  0  0  0  0  0  0  0  0  0
  145.7970  135.6960  161.2862 F   0  0  0  0  0  0  0  0  0  0  0  0
  144.5575  135.1254  162.9632 F   0  0  0  0  0  0  0  0  0  0  0  0
  146.2756  133.9308  162.4339 F   0  0  0  0  0  0  0  0  0  0  0  0
  143.7163  132.7486  161.4816 C   0  0  0  0  0  0  0  0  0  0  0  0
  142.9742  131.9286  160.6287 N   0  0  0  0  0  0  0  0  0  0  0  0
  142.9089  132.0883  159.2879 C   0  0  0  0  0  0  0  0  0  0  0  0
  142.2354  131.3200  158.6019 O   0  0  0  0  0  0  0  0  0  0  0  0
  144.9800  134.0355  153.0550 C   0  0  0  0  0  0  0  0  0  0  0  0
  142.4622  131.1686  161.0532 H   0  0  0  0  0  0  0  0  0  0  0  0
  145.7335  132.0681  149.6839 H   0  0  0  0  0  0  0  0  0  0  0  0
  145.9954  133.5271  150.6317 H   0  0  0  0  0  0  0  0  0  0  0  0
  144.5333  133.3472  149.6627 H   0  0  0  0  0  0  0  0  0  0  0  0
  143.7744  131.4533  151.1664 H   0  0  0  0  0  0  0  0  0  0  0  0
  145.2922  131.5553  152.0260 H   0  0  0  0  0  0  0  0  0  0  0  0
  143.2614  134.5293  150.9993 H   0  0  0  0  0  0  0  0  0  0  0  0
  142.1200  133.2591  151.3933 H   0  0  0  0  0  0  0  0  0  0  0  0
  141.4196  135.4519  152.3722 H   0  0  0  0  0  0  0  0  0  0  0  0
  141.6560  134.2271  153.5915 H   0  0  0  0  0  0  0  0  0  0  0  0
  143.6008  136.4672  152.8576 H   0  0  0  0  0  0  0  0  0  0  0  0
  142.7091  136.3289  154.3517 H   0  0  0  0  0  0  0  0  0  0  0  0
  145.1135  135.6047  154.5378 H   0  0  0  0  0  0  0  0  0  0  0  0
  143.2192  133.3735  155.0645 H   0  0  0  0  0  0  0  0  0  0  0  0
  143.0487  132.6808  156.8838 H   0  0  0  0  0  0  0  0  0  0  0  0
  144.9326  134.8730  159.2109 H   0  0  0  0  0  0  0  0  0  0  0  0
  143.6738  132.4531  162.5197 H   0  0  0  0  0  0  0  0  0  0  0  0
  145.7988  133.4504  153.4715 H   0  0  0  0  0  0  0  0  0  0  0  0
  145.4223  134.6662  152.2822 H   0  0  0  0  0  0  0  0  0  0  0  0
  143.5426  132.6128  153.1879 H   0  0  0  0  0  0  0  0  0  0  0  0
  1  2  1  0  0  0  0
  1 25  1  0  0  0  0
  1 26  1  0  0  0  0
  1 27  1  0  0  0  0
  2  3  1  0  0  0  0
  2 28  1  0  0  0  0
  2 29  1  0  0  0  0
  3 23  1  0  0  0  0
  3  4  1  0  0  0  0
  3 43  1  0  0  0  0
  4  5  1  0  0  0  0
  4 30  1  0  0  0  0
  4 31  1  0  0  0  0
  5  6  1  0  0  0  0
  5 32  1  0  0  0  0
  5 33  1  0  0  0  0
  6  7  1  0  0  0  0
  6 34  1  0  0  0  0
  6 35  1  0  0  0  0
  7  8  1  0  0  0  0
  7 23  1  0  0  0  0
  7 36  1  0  0  0  0
  8  9  1  0  0  0  0
  8 37  1  0  0  0  0
  9 10  2  0  0  0  0
  9 11  1  0  0  0  0
 11 12  1  0  0  0  0
 11 38  1  0  0  0  0
 12 21  1  0  0  0  0
 12 13  2  0  0  0  0
 13 14  1  0  0  0  0
 13 39  1  0  0  0  0
 14 15  1  0  0  0  0
 14 19  2  0  0  0  0
 15 16  1  0  0  0  0
 15 17  1  0  0  0  0
 15 18  1  0  0  0  0
 19 20  1  0  0  0  0
 19 40  1  0  0  0  0
 20 24  1  0  0  0  0
 20 21  1  0  0  0  0
 21 22  2  0  0  0  0
 23 41  1  0  0  0  0
 23 42  1  0  0  0  0
M  CHG  1   3   1
M  END
> <s_m_source_file>
AV-unprocessed.smi

> <i_m_source_file_index>
1726

> <i_lp_mmshare_version>
43012

> <i_f3d_flags>
0

> <s_epik_input>
W0NIM11bQ0gyXU4xW0NIMl1bQ0gyXVtDSDJdW0NASF0oW0NIMl0xKVtOSF1DKD1PKVtOSF1jMltjSF1jKEMoRikoRilGKVtjSF1bbkhdYzI9Tw==

> <s_epik_cmdline>
J2VwaWtfcHl0aG9uJywgJy1waCcsICc3LjAnLCAnLXRuJywgJzgnLCAnLW1hJywgJzIwMCcsICctbWV0YWxfYmluZGluZycsICctaW1hZScsICc8aW5maWxlLm1hZT4nLCAnLW9tYWUnLCAnPG91dGZpbGUubWFlPic=

> <r_lp_tautomer_probability>
1

> <r_epik_Ionization_Penalty>
0.00745721

> <r_epik_Ionization_Penalty_Charging>
0.00743804

> <r_epik_Ionization_Penalty_Neutral>
1.91703e-05

> <r_epik_State_Penalty>
-0

> <r_epik_Charging_Adjusted_Penalty>
0.00743804

> <i_epik_Tot_Q>
1

> <i_epik_Tot_abs_Q>
1

> <r_epik_Metal_State_Penalty>
0.37929

> <b_epik_Metal_Only>
0

> <s_lp_Force_Field>
OPLS_2005

> <r_lp_Energy>
34.544

> <b_lp_Chiralities_Consistent>
1

> <s_lp_Variant>
AV-unprocessed.smi:1726-2

> <Gold.Version>
5.8.1

> <Gold.Id.Protein>
6NUR|6NUR_protein|mol2

> <Gold.PLP.Fitness>
39.4116

> <Gold.PLP.PLP>
-29.6258

> <Gold.PLP.part.hbond>
-3.6705

> <Gold.PLP.part.metal>
0.0000

> <Gold.PLP.part.buried>
-6.3682

> <Gold.PLP.part.nonpolar>
-20.6585

> <Gold.PLP.part.repulsive>
0.2332

> <Gold.PLP.ligand.clash>
0.0000

> <Gold.PLP.ligand.torsion>
0.2111

> <Gold.PLP.Chemscore.Hbond>
3.3861

> <Gold.PLP.Chemscore.CHOScore>
0.0000

> <Gold.PLP.Chemscore.Metal>
0.0000

> <Gold.Chemscore.Hbonds>
donor molecule, donor type, donor heavy atom, donor atom, acceptor molecule, acceptor atom, score
      L1  H     3    43       P1 10957  2.00
      L1  H     8    37       P1 10957  1.00
      L1  H    11    38       P1 10957  0.35

> <Gold.PLP.Chemscore.Internal.Correction>
0.0497

> <Gold.Rescore>
     Score         DG    S(hbond)    S(metal)    S(lipo)     H(rot)  DE(clash)    DE(int)     intcor
     13.91     -15.39       2.03        0.00      55.06       1.29       0.03       1.45       ----

> <Gold.Chemscore.Fitness>
13.9085

> <Gold.Chemscore.DG>
-15.3921

> <Gold.Chemscore.ZeroCoef>
-5.4800

> <Gold.Chemscore.Hbond>
2.0266

> <Gold.Chemscore.Metal>
0.0000

> <Gold.Chemscore.Lipo>
55.0560

> <Gold.Chemscore.Internal_Hbond>
0.0000

> <Gold.Chemscore.DEClash>
0.0310

> <Gold.Chemscore.DEInternal>
1.4527

> <Gold.Chemscore.Rot>
1.2884

> <Gold.Chemscore.Internal.Correction>
   9.000000E+99

> <Gold.Chemscore.Hbonds>
donor molecule, donor type, donor heavy atom, donor atom, acceptor molecule, acceptor atom, score
      L1  H     3    43       P1 10957  0.25
      L1  H     8    37       P1 10957  0.99
      L1  H    11    38       P1 10957  0.35

> <Gold.Chemscore.Hbond.Weighted>
-6.7689

> <Gold.Chemscore.Metal.Weighted>
-0.0000

> <Gold.Chemscore.Lipo.Weighted>
-6.4415

> <Gold.Chemscore.Internal_Hbond.Weighted>
0.0000

> <Gold.Chemscore.DEClash.Weighted>
0.0310

> <Gold.Chemscore.DEInternal.Weighted>
1.4527

> <Gold.Chemscore.Rot.Weighted>
3.2983

> <Gold.Chemscore.Internal.Correction.Weighted>
   9.000000E+99

> <Gold.Protein.RotatedTorsions>
[ 6907 6896 6895 6894 ] final -138.51 input  -60.11 | X-H torsion
[ 7974 7965 7964 7962 ] final -145.63 input  175.53 | X-H torsion
[ 8008 7997 7996 7995 ] final   15.27 input   59.86 | X-H torsion
[ 10167 10162 10161 10158 ] final  -50.17 input  -65.29 | X-H torsion
[ 10718 10713 10712 10709 ] final -140.72 input   66.30 | X-H torsion
[ 10763 10752 10751 10750 ] final  -78.70 input  -60.55 | X-H torsion
[ 11005 11000 10999 10996 ] final  -90.31 input  -57.11 | X-H torsion

> <Gold.Protein.ActiveResidues>
 VAL166  LYS551  ARG553  GLY616  TRP617  ASP618  TYR619  PRO620  LYS621  CYS622 
 ASP623  PHE694  ASN695  SER759  ASP760  ASP761  ALA762  ILE779  LEU786  VAL792 
 PHE793  MET794  SER795  GLU796  ALA797  LYS798  CYS799  TRP800  GLU811  SER814 

> <Gold.Protein.RotatedAtoms>
  151.0359  133.5749  159.2655 H   0  0  0  0  0  0  0  0  0  0  0  0  # atno 6907 bound_to 6896
  151.2813  135.0714  159.9180 H   0  0  0  0  0  0  0  0  0  0  0  0  # atno 6908 bound_to 6896
  152.5354  134.0073  159.7976 H   0  0  0  0  0  0  0  0  0  0  0  0  # atno 6909 bound_to 6896
  144.8214  140.5559  143.5576 H   0  0  0  0  0  0  0  0  0  0  0  0  # atno 7974 bound_to 7965
  154.8603  140.2943  155.5543 H   0  0  0  0  0  0  0  0  0  0  0  0  # atno 8008 bound_to 7997
  156.3019  140.2479  156.3509 H   0  0  0  0  0  0  0  0  0  0  0  0  # atno 8009 bound_to 7997
  154.8925  140.0394  157.1836 H   0  0  0  0  0  0  0  0  0  0  0  0  # atno 8010 bound_to 7997
  140.6650  143.2668  151.4320 H   0  0  0  0  0  0  0  0  0  0  0  0  # atno 10167 bound_to 10162
  156.3257  130.7558  151.1666 H   0  0  0  0  0  0  0  0  0  0  0  0  # atno 10718 bound_to 10713
  154.5292  135.5721  153.6745 H   0  0  0  0  0  0  0  0  0  0  0  0  # atno 10763 bound_to 10752
  152.9935  135.6200  154.2651 H   0  0  0  0  0  0  0  0  0  0  0  0  # atno 10764 bound_to 10752
  154.2577  135.2857  155.2770 H   0  0  0  0  0  0  0  0  0  0  0  0  # atno 10765 bound_to 10752
  141.1568  133.7684  156.9719 H   0  0  0  0  0  0  0  0  0  0  0  0  # atno 11005 bound_to 11000
  145.5096  139.1480  143.3612 LP  0  0  0  0  0  0  0  0  0  0  0  0  # atno 17320 bound_to 7965
  146.2519  140.5237  142.8889 LP  0  0  0  0  0  0  0  0  0  0  0  0  # atno 17321 bound_to 7965
  139.5896  144.1528  152.2072 LP  0  0  0  0  0  0  0  0  0  0  0  0  # atno 17342 bound_to 10162
  140.0878  144.5646  150.7076 LP  0  0  0  0  0  0  0  0  0  0  0  0  # atno 17343 bound_to 10162
  157.7420  131.0495  150.5052 LP  0  0  0  0  0  0  0  0  0  0  0  0  # atno 17370 bound_to 10713
  156.5210  130.4162  149.6250 LP  0  0  0  0  0  0  0  0  0  0  0  0  # atno 17371 bound_to 10713
  140.1124  134.9469  157.2084 LP  0  0  0  0  0  0  0  0  0  0  0  0  # atno 17394 bound_to 11000
  140.3177  134.2951  155.7253 LP  0  0  0  0  0  0  0  0  0  0  0  0  # atno 17395 bound_to 11000

$$$$
