AV-unprocessed.smi:3216|AV-procd|sdf|12287|dock3
  -GOLD-   2272018123D 1   1.00000     0.00000
 Structure written by MMmdl.
 37 37  0  0  0  0  0  0  0  0  2 V2000
  143.6893  133.2647  151.2832 C   0  0  0  0  0  0  0  0  0  0  0  0
  144.3884  134.5528  150.8150 C   0  0  0  0  0  0  0  0  0  0  0  0
  145.9142  134.3805  150.8384 C   0  0  0  0  0  0  0  0  0  0  0  0
  143.9655  135.7847  151.6435 C   0  0  0  0  0  0  0  0  0  0  0  0
  144.8405  136.9333  151.4278 N   0  0  0  0  0  0  0  0  0  0  0  0
  145.8653  137.2806  152.2206 C   0  0  0  0  0  0  0  0  0  0  0  0
  146.1812  136.6510  153.2311 O   0  0  0  0  0  0  0  0  0  0  0  0
  146.6539  138.5203  151.7950 C   0  0  0  0  0  0  0  0  0  0  0  0
  147.9591  138.6148  152.4805 N   0  3  0  0  0  0  0  0  0  0  0  0
  147.8617  138.9103  153.9225 C   0  0  0  0  0  0  0  0  0  0  0  0
  148.9175  139.9418  154.3464 C   0  0  0  0  0  0  0  0  0  0  0  0
  150.2248  139.3369  154.5151 N   0  0  0  0  0  0  0  0  0  0  0  0
  150.5971  138.0250  154.3099 C   0  0  0  0  0  0  0  0  0  0  0  0
  151.9273  137.9301  154.6037 C   0  0  0  0  0  0  0  0  0  0  0  0
  152.2840  139.2525  154.9896 C   0  0  0  0  0  0  0  0  0  0  0  0
  151.2619  140.0919  154.9374 N   0  0  0  0  0  0  0  0  0  0  0  0
  143.9271  133.0418  152.3238 H   0  0  0  0  0  0  0  0  0  0  0  0
  144.0006  132.4099  150.6820 H   0  0  0  0  0  0  0  0  0  0  0  0
  142.6052  133.3412  151.1977 H   0  0  0  0  0  0  0  0  0  0  0  0
  144.1012  134.7255  149.7769 H   0  0  0  0  0  0  0  0  0  0  0  0
  146.2795  134.2153  151.8526 H   0  0  0  0  0  0  0  0  0  0  0  0
  146.4157  135.2648  150.4438 H   0  0  0  0  0  0  0  0  0  0  0  0
  146.2240  133.5302  150.2301 H   0  0  0  0  0  0  0  0  0  0  0  0
  142.9500  136.0798  151.3771 H   0  0  0  0  0  0  0  0  0  0  0  0
  143.9404  135.5376  152.7064 H   0  0  0  0  0  0  0  0  0  0  0  0
  144.6511  137.5010  150.6140 H   0  0  0  0  0  0  0  0  0  0  0  0
  146.8109  138.4840  150.7162 H   0  0  0  0  0  0  0  0  0  0  0  0
  146.0666  139.4138  152.0116 H   0  0  0  0  0  0  0  0  0  0  0  0
  148.4443  137.7370  152.3615 H   0  0  0  0  0  0  0  0  0  0  0  0
  146.8620  139.2858  154.1462 H   0  0  0  0  0  0  0  0  0  0  0  0
  147.9926  137.9840  154.4839 H   0  0  0  0  0  0  0  0  0  0  0  0
  148.9979  140.7368  153.6033 H   0  0  0  0  0  0  0  0  0  0  0  0
  148.6305  140.4142  155.2869 H   0  0  0  0  0  0  0  0  0  0  0  0
  149.8941  137.2764  153.9754 H   0  0  0  0  0  0  0  0  0  0  0  0
  152.5507  137.0496  154.5534 H   0  0  0  0  0  0  0  0  0  0  0  0
  153.2479  139.6245  155.3044 H   0  0  0  0  0  0  0  0  0  0  0  0
  148.5000  139.3424  152.0346 H   0  0  0  0  0  0  0  0  0  0  0  0
  1  2  1  0  0  0  0
  1 17  1  0  0  0  0
  1 18  1  0  0  0  0
  1 19  1  0  0  0  0
  2  3  1  0  0  0  0
  2  4  1  0  0  0  0
  2 20  1  0  0  0  0
  3 21  1  0  0  0  0
  3 22  1  0  0  0  0
  3 23  1  0  0  0  0
  4  5  1  0  0  0  0
  4 24  1  0  0  0  0
  4 25  1  0  0  0  0
  5  6  1  0  0  0  0
  5 26  1  0  0  0  0
  6  7  2  0  0  0  0
  6  8  1  0  0  0  0
  8  9  1  0  0  0  0
  8 27  1  0  0  0  0
  8 28  1  0  0  0  0
  9 10  1  0  0  0  0
  9 29  1  0  0  0  0
  9 37  1  0  0  0  0
 10 11  1  0  0  0  0
 10 30  1  0  0  0  0
 10 31  1  0  0  0  0
 11 12  1  0  0  0  0
 11 32  1  0  0  0  0
 11 33  1  0  0  0  0
 12 16  1  0  0  0  0
 12 13  1  0  0  0  0
 13 14  2  0  0  0  0
 13 34  1  0  0  0  0
 14 15  1  0  0  0  0
 14 35  1  0  0  0  0
 15 16  2  0  0  0  0
 15 36  1  0  0  0  0
M  CHG  1   9   1
M  END
> <s_m_source_file>
AV-unprocessed.smi

> <i_m_source_file_index>
3216

> <i_lp_mmshare_version>
43012

> <i_f3d_flags>
0

> <s_epik_input>
W0NIM11bQ0hdKFtDSDNdKVtDSDJdW05IXUMoPU8pW0NIMl1bTkhdW0NIMl1bQ0gyXW4xW2NIXVtjSF1bY0hdbjE=

> <s_epik_cmdline>
J2VwaWtfcHl0aG9uJywgJy1waCcsICc3LjAnLCAnLXRuJywgJzgnLCAnLW1hJywgJzIwMCcsICctbWV0YWxfYmluZGluZycsICctaW1hZScsICc8aW5maWxlLm1hZT4nLCAnLW9tYWUnLCAnPG91dGZpbGUubWFlPic=

> <r_lp_tautomer_probability>
1

> <r_epik_Ionization_Penalty>
0.20724

> <r_epik_Ionization_Penalty_Charging>
0.207237

> <r_epik_Ionization_Penalty_Neutral>
3.19342e-06

> <r_epik_State_Penalty>
0.197611

> <r_epik_Charging_Adjusted_Penalty>
0.404848

> <i_epik_Tot_Q>
1

> <i_epik_Tot_abs_Q>
1

> <r_epik_Metal_State_Penalty>
0.197786

> <b_epik_Metal_Only>
0

> <s_lp_Force_Field>
OPLS_2005

> <r_lp_Energy>
2.0828

> <b_lp_Chiralities_Consistent>
1

> <s_lp_Variant>
AV-unprocessed.smi:3216-1

> <Gold.Version>
5.8.1

> <Gold.Id.Protein>
6NUR|6NUR_protein|mol2

> <Gold.PLP.Fitness>
51.9305

> <Gold.PLP.PLP>
-35.6385

> <Gold.PLP.part.hbond>
-3.8931

> <Gold.PLP.part.metal>
0.0000

> <Gold.PLP.part.buried>
-3.6262

> <Gold.PLP.part.nonpolar>
-30.2761

> <Gold.PLP.part.repulsive>
0.3725

> <Gold.PLP.ligand.clash>
0.0000

> <Gold.PLP.ligand.torsion>
0.8975

> <Gold.PLP.Chemscore.Hbond>
5.0000

> <Gold.PLP.Chemscore.CHOScore>
1.0000

> <Gold.PLP.Chemscore.Metal>
0.0000

> <Gold.Chemscore.Hbonds>
donor molecule, donor type, donor heavy atom, donor atom, acceptor molecule, acceptor atom, score
      L1  H     5    26       P1 10171  1.00
      L1  H     9    29       P1  7948  2.00
      L1  H     9    37       P1  7957  1.00
      P1  H  7989  7998       L1    16  0.95
      L1  C    13    34       P1  7948  1.00

> <Gold.PLP.Chemscore.Internal.Correction>
0.0870

> <Gold.Rescore>
     Score         DG    S(hbond)    S(metal)    S(lipo)     H(rot)  DE(clash)    DE(int)     intcor
     18.34     -20.04       3.75        0.00      68.06       2.32       0.24       1.46       ----

> <Gold.Chemscore.Fitness>
18.3425

> <Gold.Chemscore.DG>
-20.0415

> <Gold.Chemscore.ZeroCoef>
-5.4800

> <Gold.Chemscore.Hbond>
3.7530

> <Gold.Chemscore.Metal>
0.0000

> <Gold.Chemscore.Lipo>
68.0581

> <Gold.Chemscore.Internal_Hbond>
0.0000

> <Gold.Chemscore.DEClash>
0.2401

> <Gold.Chemscore.DEInternal>
1.4589

> <Gold.Chemscore.Rot>
2.3189

> <Gold.Chemscore.Internal.Correction>
   9.000000E+99

> <Gold.Chemscore.Hbonds>
donor molecule, donor type, donor heavy atom, donor atom, acceptor molecule, acceptor atom, score
      L1  H     5    26       P1 10171  0.94
      L1  H     9    29       P1  7948  0.99
      L1  H     9    37       P1  7957  0.95
      P1  H  7989  7998       L1    16  0.05

> <Gold.Chemscore.Hbond.Weighted>
-12.5350

> <Gold.Chemscore.Metal.Weighted>
-0.0000

> <Gold.Chemscore.Lipo.Weighted>
-7.9628

> <Gold.Chemscore.Internal_Hbond.Weighted>
0.0000

> <Gold.Chemscore.DEClash.Weighted>
0.2401

> <Gold.Chemscore.DEInternal.Weighted>
1.4589

> <Gold.Chemscore.Rot.Weighted>
5.9363

> <Gold.Chemscore.Internal.Correction.Weighted>
   9.000000E+99

> <Gold.Protein.RotatedTorsions>
[ 6907 6896 6895 6894 ] final -177.14 input  -60.11 | X-H torsion
[ 7974 7965 7964 7962 ] final -129.42 input  175.53 | X-H torsion
[ 8008 7997 7996 7995 ] final  -88.87 input   59.86 | X-H torsion
[ 10167 10162 10161 10158 ] final  -12.58 input  -65.29 | X-H torsion
[ 10718 10713 10712 10709 ] final -173.09 input   66.30 | X-H torsion
[ 10763 10752 10751 10750 ] final  108.77 input  -60.55 | X-H torsion
[ 11005 11000 10999 10996 ] final   50.18 input  -57.11 | X-H torsion

> <Gold.Protein.ActiveResidues>
 VAL166  LYS551  ARG553  GLY616  TRP617  ASP618  TYR619  PRO620  LYS621  CYS622 
 ASP623  PHE694  ASN695  SER759  ASP760  ASP761  ALA762  ILE779  LEU786  VAL792 
 PHE793  MET794  SER795  GLU796  ALA797  LYS798  CYS799  TRP800  GLU811  SER814 

> <Gold.Protein.RotatedAtoms>
  151.6162  133.3343  159.3077 H   0  0  0  0  0  0  0  0  0  0  0  0  # atno 6907 bound_to 6896
  150.8130  134.7299  159.6716 H   0  0  0  0  0  0  0  0  0  0  0  0  # atno 6908 bound_to 6896
  152.4226  134.5931  160.0031 H   0  0  0  0  0  0  0  0  0  0  0  0  # atno 6909 bound_to 6896
  144.9573  140.7409  143.4751 H   0  0  0  0  0  0  0  0  0  0  0  0  # atno 7974 bound_to 7965
  154.6798  140.0548  157.0254 H   0  0  0  0  0  0  0  0  0  0  0  0  # atno 8008 bound_to 7997
  155.0967  140.3225  155.4539 H   0  0  0  0  0  0  0  0  0  0  0  0  # atno 8009 bound_to 7997
  156.2690  140.2038  156.6094 H   0  0  0  0  0  0  0  0  0  0  0  0  # atno 8010 bound_to 7997
  140.7164  143.5517  150.9293 H   0  0  0  0  0  0  0  0  0  0  0  0  # atno 10167 bound_to 10162
  156.7652  130.9428  151.3119 H   0  0  0  0  0  0  0  0  0  0  0  0  # atno 10718 bound_to 10713
  153.4254  135.3801  155.2137 H   0  0  0  0  0  0  0  0  0  0  0  0  # atno 10763 bound_to 10752
  154.8747  135.3827  154.4333 H   0  0  0  0  0  0  0  0  0  0  0  0  # atno 10764 bound_to 10752
  153.4858  135.7088  153.5974 H   0  0  0  0  0  0  0  0  0  0  0  0  # atno 10765 bound_to 10752
  140.1039  134.5044  155.8737 H   0  0  0  0  0  0  0  0  0  0  0  0  # atno 11005 bound_to 11000
  145.2753  139.1939  143.4820 LP  0  0  0  0  0  0  0  0  0  0  0  0  # atno 17320 bound_to 7965
  146.3341  140.2706  142.8605 LP  0  0  0  0  0  0  0  0  0  0  0  0  # atno 17321 bound_to 7965
  139.9242  143.6570  152.3090 LP  0  0  0  0  0  0  0  0  0  0  0  0  # atno 17342 bound_to 10162
  139.6998  144.7636  151.1294 LP  0  0  0  0  0  0  0  0  0  0  0  0  # atno 17343 bound_to 10162
  157.6716  130.9056  150.0054 LP  0  0  0  0  0  0  0  0  0  0  0  0  # atno 17370 bound_to 10713
  156.1313  130.3643  149.9727 LP  0  0  0  0  0  0  0  0  0  0  0  0  # atno 17371 bound_to 10713
  141.2113  133.6705  156.6573 LP  0  0  0  0  0  0  0  0  0  0  0  0  # atno 17394 bound_to 11000
  140.3182  134.8030  157.4231 LP  0  0  0  0  0  0  0  0  0  0  0  0  # atno 17395 bound_to 11000

$$$$
