AV-unprocessed.smi:2911|AV-procd|sdf|11178|dock9
  -GOLD-   2272016 73D 1   1.00000     0.00000
 Structure written by MMmdl.
 41 42  0  0  0  0  0  0  0  0  1 V2000
  146.6933  133.8011  162.2524 C   0  0  0  0  0  0  0  0  0  0  0  0
  147.1235  135.0757  161.6106 C   0  0  0  0  0  0  0  0  0  0  0  0
  147.0311  136.2353  162.2502 N   0  0  0  0  0  0  0  0  0  0  0  0
  147.5179  137.1597  161.3147 O   0  0  0  0  0  0  0  0  0  0  0  0
  147.8612  136.4349  160.2230 C   0  0  0  0  0  0  0  0  0  0  0  0
  148.3763  137.1477  159.0178 C   0  0  0  0  0  0  0  0  0  0  0  0
  149.9122  137.1835  158.9700 C   0  0  0  0  0  0  0  0  0  0  0  0
  150.4114  138.5329  158.7305 N   0  0  0  0  0  0  0  0  0  0  0  0
  151.6551  138.9631  159.0040 C   0  0  0  0  0  0  0  0  0  0  0  0
  152.5099  138.2126  159.4778 O   0  0  0  0  0  0  0  0  0  0  0  0
  151.9029  140.2556  158.6615 N   0  0  0  0  0  0  0  0  0  0  0  0
  153.1431  140.9949  158.9846 C   0  0  0  0  0  0  0  0  0  0  0  0
  152.8207  142.3269  159.6764 C   0  0  0  0  0  0  0  0  0  0  0  0
  151.9061  143.1924  158.7967 C   0  0  2  0  0  0  0  0  0  0  0  0
  151.5496  144.5181  159.4832 C   0  0  0  0  0  0  0  0  0  0  0  0
  150.6476  142.3959  158.4124 C   0  0  0  0  0  0  0  0  0  0  0  0
  150.9622  141.0108  157.8051 C   0  0  1  0  0  0  0  0  0  0  0  0
  151.4364  141.0587  156.3412 C   0  0  0  0  0  0  0  0  0  0  0  0
  147.6189  135.1320  160.3440 N   0  0  0  0  0  0  0  0  0  0  0  0
  146.7533  133.8755  163.3388 H   0  0  0  0  0  0  0  0  0  0  0  0
  147.3315  132.9781  161.9298 H   0  0  0  0  0  0  0  0  0  0  0  0
  145.6642  133.5709  161.9763 H   0  0  0  0  0  0  0  0  0  0  0  0
  147.9836  136.6534  158.1286 H   0  0  0  0  0  0  0  0  0  0  0  0
  147.9720  138.1607  159.0172 H   0  0  0  0  0  0  0  0  0  0  0  0
  150.3340  136.7849  159.8944 H   0  0  0  0  0  0  0  0  0  0  0  0
  150.2726  136.5441  158.1637 H   0  0  0  0  0  0  0  0  0  0  0  0
  149.7656  139.1912  158.3194 H   0  0  0  0  0  0  0  0  0  0  0  0
  153.8414  140.4424  159.6125 H   0  0  0  0  0  0  0  0  0  0  0  0
  153.6913  141.1831  158.0615 H   0  0  0  0  0  0  0  0  0  0  0  0
  152.3435  142.1331  160.6382 H   0  0  0  0  0  0  0  0  0  0  0  0
  153.7458  142.8627  159.8910 H   0  0  0  0  0  0  0  0  0  0  0  0
  152.4480  143.4334  157.8813 H   0  0  0  0  0  0  0  0  0  0  0  0
  151.0041  144.3499  160.4122 H   0  0  0  0  0  0  0  0  0  0  0  0
  150.9266  145.1386  158.8385 H   0  0  0  0  0  0  0  0  0  0  0  0
  152.4470  145.0890  159.7229 H   0  0  0  0  0  0  0  0  0  0  0  0
  150.0389  142.2507  159.3063 H   0  0  0  0  0  0  0  0  0  0  0  0
  150.0323  142.9741  157.7219 H   0  0  0  0  0  0  0  0  0  0  0  0
  149.9977  140.5011  157.7806 H   0  0  0  0  0  0  0  0  0  0  0  0
  150.6879  141.5341  155.7069 H   0  0  0  0  0  0  0  0  0  0  0  0
  151.6043  140.0544  155.9510 H   0  0  0  0  0  0  0  0  0  0  0  0
  152.3631  141.6200  156.2262 H   0  0  0  0  0  0  0  0  0  0  0  0
  1  2  1  0  0  0  0
  1 20  1  0  0  0  0
  1 21  1  0  0  0  0
  1 22  1  0  0  0  0
  2 19  1  0  0  0  0
  2  3  2  0  0  0  0
  3  4  1  0  0  0  0
  4  5  1  0  0  0  0
  5  6  1  0  0  0  0
  5 19  2  0  0  0  0
  6  7  1  0  0  0  0
  6 23  1  0  0  0  0
  6 24  1  0  0  0  0
  7  8  1  0  0  0  0
  7 25  1  0  0  0  0
  7 26  1  0  0  0  0
  8  9  1  0  0  0  0
  8 27  1  0  0  0  0
  9 10  2  0  0  0  0
  9 11  1  0  0  0  0
 11 17  1  0  0  0  0
 11 12  1  0  0  0  0
 12 13  1  0  0  0  0
 12 28  1  0  0  0  0
 12 29  1  0  0  0  0
 13 14  1  0  0  0  0
 13 30  1  0  0  0  0
 13 31  1  0  0  0  0
 14 15  1  0  0  0  0
 14 16  1  0  0  0  0
 14 32  1  0  0  0  0
 15 33  1  0  0  0  0
 15 34  1  0  0  0  0
 15 35  1  0  0  0  0
 16 17  1  0  0  0  0
 16 36  1  0  0  0  0
 16 37  1  0  0  0  0
 17 18  1  0  0  0  0
 17 38  1  0  0  0  0
 18 39  1  0  0  0  0
 18 40  1  0  0  0  0
 18 41  1  0  0  0  0
M  END
> <s_m_source_file>
AV-unprocessed.smi

> <i_m_source_file_index>
2911

> <i_lp_mmshare_version>
43012

> <i_f3d_flags>
0

> <s_epik_input>
W0NIM11jMW5vYyhuMSlbQ0gyXVtDSDJdW05IXUMoPU8pTjJbQ0gyXVtDSDJdW0NAQEhdKFtDSDNdKVtDSDJdW0NASF0yW0NIM10=

> <s_epik_cmdline>
J2VwaWtfcHl0aG9uJywgJy1waCcsICc3LjAnLCAnLXRuJywgJzgnLCAnLW1hJywgJzIwMCcsICctbWV0YWxfYmluZGluZycsICctaW1hZScsICc8aW5maWxlLm1hZT4nLCAnLW9tYWUnLCAnPG91dGZpbGUubWFlPic=

> <r_lp_tautomer_probability>
1

> <r_epik_Ionization_Penalty>
6.61671e-05

> <r_epik_Ionization_Penalty_Charging>
0

> <r_epik_Ionization_Penalty_Neutral>
6.61671e-05

> <r_epik_State_Penalty>
-0

> <r_epik_Charging_Adjusted_Penalty>
0

> <i_epik_Tot_Q>
0

> <i_epik_Tot_abs_Q>
0

> <r_epik_Metal_State_Penalty>
-0

> <b_epik_Metal_Only>
0

> <s_lp_Force_Field>
OPLS_2005

> <r_lp_Energy>
30.9139

> <b_lp_Chiralities_Consistent>
1

> <s_lp_Variant>
AV-unprocessed.smi:2911-2

> <Gold.Version>
5.8.1

> <Gold.Id.Protein>
6NUR|6NUR_protein|mol2

> <Gold.PLP.Fitness>
40.0632

> <Gold.PLP.PLP>
-38.2588

> <Gold.PLP.part.hbond>
-2.0000

> <Gold.PLP.part.metal>
0.0000

> <Gold.PLP.part.buried>
-5.7676

> <Gold.PLP.part.nonpolar>
-29.6516

> <Gold.PLP.part.repulsive>
0.1923

> <Gold.PLP.ligand.clash>
1.7383

> <Gold.PLP.ligand.torsion>
0.9035

> <Gold.PLP.Chemscore.Hbond>
1.7760

> <Gold.PLP.Chemscore.CHOScore>
0.0000

> <Gold.PLP.Chemscore.Metal>
0.0000

> <Gold.Chemscore.Hbonds>
donor molecule, donor type, donor heavy atom, donor atom, acceptor molecule, acceptor atom, score
      P1  H  6931  6943       L1     4  0.94
      P1  H  6934  6947       L1     4  0.91

> <Gold.PLP.Chemscore.Internal.Correction>
0.0217

> <Gold.Rescore>
     Score         DG    S(hbond)    S(metal)    S(lipo)     H(rot)  DE(clash)    DE(int)     intcor
     13.41     -13.93       1.02        0.00      78.20       1.61       0.04       0.47       ----

> <Gold.Chemscore.Fitness>
13.4139

> <Gold.Chemscore.DG>
-13.9285

> <Gold.Chemscore.ZeroCoef>
-5.4800

> <Gold.Chemscore.Hbond>
1.0234

> <Gold.Chemscore.Metal>
0.0000

> <Gold.Chemscore.Lipo>
78.1952

> <Gold.Chemscore.Internal_Hbond>
0.0000

> <Gold.Chemscore.DEClash>
0.0431

> <Gold.Chemscore.DEInternal>
0.4715

> <Gold.Chemscore.Rot>
1.6088

> <Gold.Chemscore.Internal.Correction>
   9.000000E+99

> <Gold.Chemscore.Hbonds>
donor molecule, donor type, donor heavy atom, donor atom, acceptor molecule, acceptor atom, score
      P1  H  6931  6943       L1     4  0.65
      P1  H  6934  6947       L1     4  0.79

> <Gold.Chemscore.Hbond.Weighted>
-3.4183

> <Gold.Chemscore.Metal.Weighted>
-0.0000

> <Gold.Chemscore.Lipo.Weighted>
-9.1488

> <Gold.Chemscore.Internal_Hbond.Weighted>
0.0000

> <Gold.Chemscore.DEClash.Weighted>
0.0431

> <Gold.Chemscore.DEInternal.Weighted>
0.4715

> <Gold.Chemscore.Rot.Weighted>
4.1186

> <Gold.Chemscore.Internal.Correction.Weighted>
   9.000000E+99

> <Gold.Protein.RotatedTorsions>
[ 6907 6896 6895 6894 ] final  -83.12 input  -60.11 | X-H torsion
[ 7974 7965 7964 7962 ] final  121.19 input  175.53 | X-H torsion
[ 8008 7997 7996 7995 ] final  158.89 input   59.86 | X-H torsion
[ 10167 10162 10161 10158 ] final  -39.97 input  -65.29 | X-H torsion
[ 10718 10713 10712 10709 ] final  104.76 input   66.30 | X-H torsion
[ 10763 10752 10751 10750 ] final   66.37 input  -60.55 | X-H torsion
[ 11005 11000 10999 10996 ] final  -27.03 input  -57.11 | X-H torsion

> <Gold.Protein.ActiveResidues>
 VAL166  LYS551  ARG553  GLY616  TRP617  ASP618  TYR619  PRO620  LYS621  CYS622 
 ASP623  PHE694  ASN695  SER759  ASP760  ASP761  ALA762  ILE779  LEU786  VAL792 
 PHE793  MET794  SER795  GLU796  ALA797  LYS798  CYS799  TRP800  GLU811  SER814 

> <Gold.Protein.RotatedAtoms>
  150.6889  134.3560  159.4929 H   0  0  0  0  0  0  0  0  0  0  0  0  # atno 6907 bound_to 6896
  152.1395  134.9071  160.0564 H   0  0  0  0  0  0  0  0  0  0  0  0  # atno 6908 bound_to 6896
  152.0210  133.3864  159.4295 H   0  0  0  0  0  0  0  0  0  0  0  0  # atno 6909 bound_to 6896
  145.1223  139.3381  143.4708 H   0  0  0  0  0  0  0  0  0  0  0  0  # atno 7974 bound_to 7965
  156.2274  140.1846  156.7329 H   0  0  0  0  0  0  0  0  0  0  0  0  # atno 8008 bound_to 7997
  154.5964  140.0642  156.9337 H   0  0  0  0  0  0  0  0  0  0  0  0  # atno 8009 bound_to 7997
  155.2248  140.3310  155.4313 H   0  0  0  0  0  0  0  0  0  0  0  0  # atno 8010 bound_to 7997
  140.7048  143.3182  151.2857 H   0  0  0  0  0  0  0  0  0  0  0  0  # atno 10167 bound_to 10162
  157.6729  131.0811  150.5755 H   0  0  0  0  0  0  0  0  0  0  0  0  # atno 10718 bound_to 10713
  153.0137  135.5323  154.6812 H   0  0  0  0  0  0  0  0  0  0  0  0  # atno 10763 bound_to 10752
  154.5972  135.2864  155.0576 H   0  0  0  0  0  0  0  0  0  0  0  0  # atno 10764 bound_to 10752
  154.1647  135.6542  153.5047 H   0  0  0  0  0  0  0  0  0  0  0  0  # atno 10765 bound_to 10752
  140.9083  133.7478  156.0635 H   0  0  0  0  0  0  0  0  0  0  0  0  # atno 11005 bound_to 11000
  146.3520  140.1187  142.8601 LP  0  0  0  0  0  0  0  0  0  0  0  0  # atno 17320 bound_to 7965
  145.0727  140.9166  143.4872 LP  0  0  0  0  0  0  0  0  0  0  0  0  # atno 17321 bound_to 7965
  139.6627  144.0160  152.2703 LP  0  0  0  0  0  0  0  0  0  0  0  0  # atno 17342 bound_to 10162
  139.9732  144.6479  150.7969 LP  0  0  0  0  0  0  0  0  0  0  0  0  # atno 17343 bound_to 10162
  156.6056  130.4366  149.5879 LP  0  0  0  0  0  0  0  0  0  0  0  0  # atno 17370 bound_to 10713
  156.2471  130.6885  151.1610 LP  0  0  0  0  0  0  0  0  0  0  0  0  # atno 17371 bound_to 10713
  140.8143  134.3363  157.5402 LP  0  0  0  0  0  0  0  0  0  0  0  0  # atno 17394 bound_to 11000
  139.8753  134.9272  156.3420 LP  0  0  0  0  0  0  0  0  0  0  0  0  # atno 17395 bound_to 11000

$$$$
