AV-unprocessed.smi:3292|AV-procd|sdf|12628|dock3
  -GOLD-   2272018563D 1   1.00000     0.00000
 Structure written by MMmdl.
 38 39  0  0  0  0  0  0  0  0  1 V2000
  144.4209  136.2213  152.6926 C   0  0  0  0  0  0  0  0  0  0  0  0
  145.5657  135.1996  152.5949 C   0  0  1  0  0  0  0  0  0  0  0  0
  145.8207  134.7073  151.1537 C   0  0  0  0  0  0  0  0  0  0  0  0
  145.2426  133.4023  150.8963 N   0  0  0  0  0  0  0  0  0  0  0  0
  143.8923  133.0859  150.8276 C   0  0  0  0  0  0  0  0  0  0  0  0
  143.8176  131.7359  150.5688 C   0  0  0  0  0  0  0  0  0  0  0  0
  145.1021  131.2042  150.4788 N   0  0  0  0  0  0  0  0  0  0  0  0
  145.8927  132.2493  150.6864 C   0  0  0  0  0  0  0  0  0  0  0  0
  146.7838  135.7883  153.1447 N   0  0  0  0  0  0  0  0  0  0  0  0
  146.9435  136.1845  154.4155 C   0  0  0  0  0  0  0  0  0  0  0  0
  146.0658  136.1118  155.2757 O   0  0  0  0  0  0  0  0  0  0  0  0
  148.1779  136.6576  154.6379 N   0  0  0  0  0  0  0  0  0  0  0  0
  148.6765  137.1477  155.9195 C   0  0  0  0  0  0  0  0  0  0  0  0
  149.9649  137.9764  155.7568 C   0  0  1  0  0  0  0  0  0  0  0  0
  151.0150  137.3107  154.8913 C   0  0  0  0  0  0  0  0  0  0  0  0
  151.9252  138.4836  154.5388 C   0  0  0  0  0  0  0  0  0  0  0  0
  151.0861  139.6347  154.5129 O   0  0  0  0  0  0  0  0  0  0  0  0
  149.7981  139.3112  155.0271 C   0  0  0  0  0  0  0  0  0  0  0  0
  143.4710  135.7889  152.3770 H   0  0  0  0  0  0  0  0  0  0  0  0
  144.6139  137.0941  152.0682 H   0  0  0  0  0  0  0  0  0  0  0  0
  144.2916  136.5675  153.7186 H   0  0  0  0  0  0  0  0  0  0  0  0
  145.2872  134.3421  153.2105 H   0  0  0  0  0  0  0  0  0  0  0  0
  145.4125  135.4169  150.4323 H   0  0  0  0  0  0  0  0  0  0  0  0
  146.8914  134.6437  150.9554 H   0  0  0  0  0  0  0  0  0  0  0  0
  143.1186  133.8275  150.9634 H   0  0  0  0  0  0  0  0  0  0  0  0
  142.9456  131.1113  150.4433 H   0  0  0  0  0  0  0  0  0  0  0  0
  146.9702  132.1747  150.6814 H   0  0  0  0  0  0  0  0  0  0  0  0
  147.5644  135.8902  152.5126 H   0  0  0  0  0  0  0  0  0  0  0  0
  148.8259  136.6744  153.8641 H   0  0  0  0  0  0  0  0  0  0  0  0
  147.8978  137.7720  156.3585 H   0  0  0  0  0  0  0  0  0  0  0  0
  148.8327  136.3225  156.6164 H   0  0  0  0  0  0  0  0  0  0  0  0
  150.4002  138.1662  156.7395 H   0  0  0  0  0  0  0  0  0  0  0  0
  151.5423  136.5029  155.3995 H   0  0  0  0  0  0  0  0  0  0  0  0
  150.5611  136.9059  153.9852 H   0  0  0  0  0  0  0  0  0  0  0  0
  152.6806  138.6243  155.3127 H   0  0  0  0  0  0  0  0  0  0  0  0
  152.4373  138.3411  153.5870 H   0  0  0  0  0  0  0  0  0  0  0  0
  149.1105  139.2090  154.1864 H   0  0  0  0  0  0  0  0  0  0  0  0
  149.4212  140.1008  155.6776 H   0  0  0  0  0  0  0  0  0  0  0  0
  1  2  1  0  0  0  0
  1 19  1  0  0  0  0
  1 20  1  0  0  0  0
  1 21  1  0  0  0  0
  2  3  1  0  0  0  0
  2  9  1  0  0  0  0
  2 22  1  0  0  0  0
  3  4  1  0  0  0  0
  3 23  1  0  0  0  0
  3 24  1  0  0  0  0
  4  8  1  0  0  0  0
  4  5  1  0  0  0  0
  5  6  2  0  0  0  0
  5 25  1  0  0  0  0
  6  7  1  0  0  0  0
  6 26  1  0  0  0  0
  7  8  2  0  0  0  0
  8 27  1  0  0  0  0
  9 10  1  0  0  0  0
  9 28  1  0  0  0  0
 10 11  2  0  0  0  0
 10 12  1  0  0  0  0
 12 13  1  0  0  0  0
 12 29  1  0  0  0  0
 13 14  1  0  0  0  0
 13 30  1  0  0  0  0
 13 31  1  0  0  0  0
 14 18  1  0  0  0  0
 14 15  1  0  0  0  0
 14 32  1  0  0  0  0
 15 16  1  0  0  0  0
 15 33  1  0  0  0  0
 15 34  1  0  0  0  0
 16 17  1  0  0  0  0
 16 35  1  0  0  0  0
 16 36  1  0  0  0  0
 17 18  1  0  0  0  0
 18 37  1  0  0  0  0
 18 38  1  0  0  0  0
M  END
> <s_m_source_file>
AV-unprocessed.smi

> <i_m_source_file_index>
3292

> <i_lp_mmshare_version>
43012

> <i_f3d_flags>
0

> <s_epik_input>
W2NIXTFuW2NIXVtjSF1uMVtDSDJdW0NAQEhdKFtDSDNdKVtOSF1DKD1PKVtOSF1bQ0gyXVtDQEBIXTJbQ0gyXVtDSDJdT1tDSDJdMg==

> <s_epik_cmdline>
J2VwaWtfcHl0aG9uJywgJy1waCcsICc3LjAnLCAnLXRuJywgJzgnLCAnLW1hJywgJzIwMCcsICctbWV0YWxfYmluZGluZycsICctaW1hZScsICc8aW5maWxlLm1hZT4nLCAnLW9tYWUnLCAnPG91dGZpbGUubWFlPic=

> <r_lp_tautomer_probability>
1

> <r_epik_Ionization_Penalty>
0.621291

> <r_epik_Ionization_Penalty_Charging>
0.621234

> <r_epik_Ionization_Penalty_Neutral>
5.72199e-05

> <r_epik_State_Penalty>
0.637278

> <r_epik_Charging_Adjusted_Penalty>
1.25851

> <i_epik_Tot_Q>
0

> <i_epik_Tot_abs_Q>
0

> <r_epik_Metal_State_Penalty>
0.306757

> <b_epik_Metal_Only>
0

> <s_lp_Force_Field>
OPLS_2005

> <r_lp_Energy>
18.205

> <b_lp_Chiralities_Consistent>
1

> <s_lp_Variant>
AV-unprocessed.smi:3292-8

> <Gold.Version>
5.8.1

> <Gold.Id.Protein>
6NUR|6NUR_protein|mol2

> <Gold.PLP.Fitness>
44.1540

> <Gold.PLP.PLP>
-28.2189

> <Gold.PLP.part.hbond>
-3.0371

> <Gold.PLP.part.metal>
0.0000

> <Gold.PLP.part.buried>
-4.5328

> <Gold.PLP.part.nonpolar>
-21.2569

> <Gold.PLP.part.repulsive>
0.2514

> <Gold.PLP.ligand.clash>
0.0000

> <Gold.PLP.ligand.torsion>
0.8480

> <Gold.PLP.Chemscore.Hbond>
2.8480

> <Gold.PLP.Chemscore.CHOScore>
3.0000

> <Gold.PLP.Chemscore.Metal>
0.0000

> <Gold.Chemscore.Hbonds>
donor molecule, donor type, donor heavy atom, donor atom, acceptor molecule, acceptor atom, score
      L1  H     9    28       P1  7948  1.00
      L1  H    12    29       P1  7948  0.83
      P1  H  7989  7998       L1    17  1.00
      L1  C     5    25       P1 10186  0.82
      L1  C     6    26       P1 10952  1.00
      L1  C     8    27       P1 10747  1.00

> <Gold.PLP.Chemscore.Internal.Correction>
0.0871

> <Gold.Rescore>
     Score         DG    S(hbond)    S(metal)    S(lipo)     H(rot)  DE(clash)    DE(int)     intcor
     15.22     -16.04       2.81        0.00      57.14       2.16       0.04       0.78       ----

> <Gold.Chemscore.Fitness>
15.2177

> <Gold.Chemscore.DG>
-16.0432

> <Gold.Chemscore.ZeroCoef>
-5.4800

> <Gold.Chemscore.Hbond>
2.8148

> <Gold.Chemscore.Metal>
0.0000

> <Gold.Chemscore.Lipo>
57.1393

> <Gold.Chemscore.Internal_Hbond>
0.0000

> <Gold.Chemscore.DEClash>
0.0434

> <Gold.Chemscore.DEInternal>
0.7820

> <Gold.Chemscore.Rot>
2.1577

> <Gold.Chemscore.Internal.Correction>
   9.000000E+99

> <Gold.Chemscore.Hbonds>
donor molecule, donor type, donor heavy atom, donor atom, acceptor molecule, acceptor atom, score
      L1  H     9    28       P1  7948  0.96
      L1  H    12    29       P1  7948  0.77
      P1  H  7989  7998       L1    17  0.88

> <Gold.Chemscore.Hbond.Weighted>
-9.4016

> <Gold.Chemscore.Metal.Weighted>
-0.0000

> <Gold.Chemscore.Lipo.Weighted>
-6.6853

> <Gold.Chemscore.Internal_Hbond.Weighted>
0.0000

> <Gold.Chemscore.DEClash.Weighted>
0.0434

> <Gold.Chemscore.DEInternal.Weighted>
0.7820

> <Gold.Chemscore.Rot.Weighted>
5.5237

> <Gold.Chemscore.Internal.Correction.Weighted>
   9.000000E+99

> <Gold.Protein.RotatedTorsions>
[ 6907 6896 6895 6894 ] final  -90.22 input  -60.11 | X-H torsion
[ 7974 7965 7964 7962 ] final  -52.38 input  175.53 | X-H torsion
[ 8008 7997 7996 7995 ] final   74.00 input   59.86 | X-H torsion
[ 10167 10162 10161 10158 ] final   67.33 input  -65.29 | X-H torsion
[ 10718 10713 10712 10709 ] final  154.30 input   66.30 | X-H torsion
[ 10763 10752 10751 10750 ] final  110.76 input  -60.55 | X-H torsion
[ 11005 11000 10999 10996 ] final  124.00 input  -57.11 | X-H torsion

> <Gold.Protein.ActiveResidues>
 VAL166  LYS551  ARG553  GLY616  TRP617  ASP618  TYR619  PRO620  LYS621  CYS622 
 ASP623  PHE694  ASN695  SER759  ASP760  ASP761  ALA762  ILE779  LEU786  VAL792 
 PHE793  MET794  SER795  GLU796  ALA797  LYS798  CYS799  TRP800  GLU811  SER814 

> <Gold.Protein.RotatedAtoms>
  150.6880  134.2466  159.4493 H   0  0  0  0  0  0  0  0  0  0  0  0  # atno 6907 bound_to 6896
  152.0407  134.9711  160.0583 H   0  0  0  0  0  0  0  0  0  0  0  0  # atno 6908 bound_to 6896
  152.1214  133.4320  159.4714 H   0  0  0  0  0  0  0  0  0  0  0  0  # atno 6909 bound_to 6896
  145.9086  140.7934  142.9707 H   0  0  0  0  0  0  0  0  0  0  0  0  # atno 7974 bound_to 7965
  155.7919  140.3479  155.5354 H   0  0  0  0  0  0  0  0  0  0  0  0  # atno 8008 bound_to 7997
  155.8625  140.0973  157.1624 H   0  0  0  0  0  0  0  0  0  0  0  0  # atno 8009 bound_to 7997
  154.4012  140.1356  156.3966 H   0  0  0  0  0  0  0  0  0  0  0  0  # atno 8010 bound_to 7997
  140.0907  144.4990  150.7100 H   0  0  0  0  0  0  0  0  0  0  0  0  # atno 10167 bound_to 10162
  157.2334  131.0744  151.1838 H   0  0  0  0  0  0  0  0  0  0  0  0  # atno 10718 bound_to 10713
  153.4536  135.3738  155.2298 H   0  0  0  0  0  0  0  0  0  0  0  0  # atno 10763 bound_to 10752
  154.8756  135.3891  154.4009 H   0  0  0  0  0  0  0  0  0  0  0  0  # atno 10764 bound_to 10752
  153.4572  135.7086  153.6136 H   0  0  0  0  0  0  0  0  0  0  0  0  # atno 10765 bound_to 10752
  139.9338  134.9640  156.8344 H   0  0  0  0  0  0  0  0  0  0  0  0  # atno 11005 bound_to 11000
  144.6741  140.1789  143.7407 LP  0  0  0  0  0  0  0  0  0  0  0  0  # atno 17320 bound_to 7965
  145.8701  139.2267  143.1666 LP  0  0  0  0  0  0  0  0  0  0  0  0  # atno 17321 bound_to 7965
  140.7030  143.2448  151.4810 LP  0  0  0  0  0  0  0  0  0  0  0  0  # atno 17342 bound_to 10162
  139.5726  144.1893  152.1858 LP  0  0  0  0  0  0  0  0  0  0  0  0  # atno 17343 bound_to 10162
  157.3454  130.7055  149.6407 LP  0  0  0  0  0  0  0  0  0  0  0  0  # atno 17370 bound_to 10713
  155.9674  130.4268  150.4714 LP  0  0  0  0  0  0  0  0  0  0  0  0  # atno 17371 bound_to 10713
  140.6129  134.0065  155.7585 LP  0  0  0  0  0  0  0  0  0  0  0  0  # atno 17394 bound_to 11000
  141.0942  133.9870  157.3188 LP  0  0  0  0  0  0  0  0  0  0  0  0  # atno 17395 bound_to 11000

$$$$
