AV-unprocessed.smi:2424|AV-procd|sdf|9574|dock2
  -GOLD-   2272013203D 1   1.00000     0.00000
 Structure written by MMmdl.
 49 50  0  0  0  0  0  0  0  0  2 V2000
  150.4716  128.7186  154.4124 C   0  0  0  0  0  0  0  0  0  0  0  0
  149.0327  129.1062  154.0287 C   0  0  0  0  0  0  0  0  0  0  0  0
  148.5806  130.5198  154.4729 C   0  0  0  0  0  0  0  0  0  0  0  0
  147.0497  130.6350  154.2517 C   0  0  0  0  0  0  0  0  0  0  0  0
  146.5958  130.5500  152.7845 C   0  0  0  0  0  0  0  0  0  0  0  0
  149.1257  130.9381  155.8703 C   0  0  2  0  0  0  0  0  0  0  0  0
  148.2743  131.9091  156.5621 N   0  0  0  0  0  0  0  0  0  0  0  0
  148.6237  132.6171  157.6433 C   0  0  0  0  0  0  0  0  0  0  0  0
  149.7291  132.5351  158.1773 O   0  0  0  0  0  0  0  0  0  0  0  0
  147.6089  133.4042  158.0409 N   0  0  0  0  0  0  0  0  0  0  0  0
  147.5509  134.2742  159.1370 C   0  0  0  0  0  0  0  0  0  0  0  0
  147.6920  135.6348  158.9526 C   0  0  0  0  0  0  0  0  0  0  0  0
  147.6596  136.6229  159.8727 N   0  5  0  0  0  0  0  0  0  0  0  0
  147.4605  136.2792  161.1772 C   0  0  0  0  0  0  0  0  0  0  0  0
  147.4189  137.1250  162.0700 O   0  0  0  0  0  0  0  0  0  0  0  0
  147.2909  134.8527  161.5204 C   0  0  0  0  0  0  0  0  0  0  0  0
  147.0658  134.4746  162.9743 C   0  0  0  0  0  0  0  0  0  0  0  0
  147.3375  133.9166  160.5393 C   0  0  0  0  0  0  0  0  0  0  0  0
  150.3221  131.6157  155.1809 C   0  0  2  0  0  0  0  0  0  0  0  0
  150.9588  132.8873  155.7392 C   0  0  0  0  0  0  0  0  0  0  0  0
  149.4681  131.6659  153.9033 C   0  0  2  0  0  0  0  0  0  0  0  0
  148.8016  132.9185  153.7917 O   0  0  0  0  0  0  0  0  0  0  0  0
  148.2367  133.1331  152.5094 C   0  0  0  0  0  0  0  0  0  0  0  0
  150.6538  127.6673  154.1896 H   0  0  0  0  0  0  0  0  0  0  0  0
  150.6610  128.8640  155.4756 H   0  0  0  0  0  0  0  0  0  0  0  0
  151.2113  129.2928  153.8557 H   0  0  0  0  0  0  0  0  0  0  0  0
  148.9030  128.9788  152.9545 H   0  0  0  0  0  0  0  0  0  0  0  0
  148.3741  128.3554  154.4653 H   0  0  0  0  0  0  0  0  0  0  0  0
  146.5313  129.8432  154.7922 H   0  0  0  0  0  0  0  0  0  0  0  0
  146.6586  131.5516  154.6901 H   0  0  0  0  0  0  0  0  0  0  0  0
  145.5080  130.5136  152.7233 H   0  0  0  0  0  0  0  0  0  0  0  0
  146.9810  129.6552  152.2958 H   0  0  0  0  0  0  0  0  0  0  0  0
  146.9197  131.4152  152.2073 H   0  0  0  0  0  0  0  0  0  0  0  0
  149.4165  130.0841  156.4846 H   0  0  0  0  0  0  0  0  0  0  0  0
  147.3476  132.0454  156.1861 H   0  0  0  0  0  0  0  0  0  0  0  0
  146.7663  133.3661  157.4861 H   0  0  0  0  0  0  0  0  0  0  0  0
  147.8535  135.9814  157.9090 H   0  0  0  0  0  0  0  0  0  0  0  0
  146.9615  133.3960  163.0940 H   0  0  0  0  0  0  0  0  0  0  0  0
  146.1581  134.9447  163.3537 H   0  0  0  0  0  0  0  0  0  0  0  0
  147.9061  134.8016  163.5875 H   0  0  0  0  0  0  0  0  0  0  0  0
  147.2071  132.8863  160.8270 H   0  0  0  0  0  0  0  0  0  0  0  0
  151.0994  130.8627  155.0419 H   0  0  0  0  0  0  0  0  0  0  0  0
  150.2341  133.6932  155.8566 H   0  0  0  0  0  0  0  0  0  0  0  0
  151.7464  133.2523  155.0799 H   0  0  0  0  0  0  0  0  0  0  0  0
  151.4059  132.7045  156.7165 H   0  0  0  0  0  0  0  0  0  0  0  0
  150.0519  131.4099  153.0176 H   0  0  0  0  0  0  0  0  0  0  0  0
  147.7019  134.0826  152.5001 H   0  0  0  0  0  0  0  0  0  0  0  0
  147.5318  132.3458  152.2423 H   0  0  0  0  0  0  0  0  0  0  0  0
  149.0124  133.1776  151.7440 H   0  0  0  0  0  0  0  0  0  0  0  0
  1  2  1  0  0  0  0
  1 24  1  0  0  0  0
  1 25  1  0  0  0  0
  1 26  1  0  0  0  0
  2  3  1  0  0  0  0
  2 27  1  0  0  0  0
  2 28  1  0  0  0  0
  3 21  1  0  0  0  0
  3  4  1  0  0  0  0
  3  6  1  0  0  0  0
  4  5  1  0  0  0  0
  4 29  1  0  0  0  0
  4 30  1  0  0  0  0
  5 31  1  0  0  0  0
  5 32  1  0  0  0  0
  5 33  1  0  0  0  0
  6  7  1  0  0  0  0
  6 19  1  0  0  0  0
  6 34  1  0  0  0  0
  7  8  1  0  0  0  0
  7 35  1  0  0  0  0
  8  9  2  0  0  0  0
  8 10  1  0  0  0  0
 10 11  1  0  0  0  0
 10 36  1  0  0  0  0
 11 18  1  0  0  0  0
 11 12  2  0  0  0  0
 12 13  1  0  0  0  0
 12 37  1  0  0  0  0
 13 14  1  0  0  0  0
 14 15  2  0  0  0  0
 14 16  1  0  0  0  0
 16 17  1  0  0  0  0
 16 18  2  0  0  0  0
 17 38  1  0  0  0  0
 17 39  1  0  0  0  0
 17 40  1  0  0  0  0
 18 41  1  0  0  0  0
 19 20  1  0  0  0  0
 19 21  1  0  0  0  0
 19 42  1  0  0  0  0
 20 43  1  0  0  0  0
 20 44  1  0  0  0  0
 20 45  1  0  0  0  0
 21 22  1  0  0  0  0
 21 46  1  0  0  0  0
 22 23  1  0  0  0  0
 23 47  1  0  0  0  0
 23 48  1  0  0  0  0
 23 49  1  0  0  0  0
M  CHG  1  13  -1
M  END
> <s_m_source_file>
AV-unprocessed.smi

> <i_m_source_file_index>
2424

> <i_lp_mmshare_version>
43012

> <i_f3d_flags>
0

> <s_epik_input>
W0NIM11PW0NAQEhdMVtDQEhdKFtDSDNdKVtDQEBIXShDMShbQ0gyXVtDSDNdKVtDSDJdW0NIM10pW05IXUMoPU8pW05IXWMyW2NIXVtuSF1jKD1PKWMoW0NIM10pW2NIXTI=

> <s_epik_cmdline>
J2VwaWtfcHl0aG9uJywgJy1waCcsICc3LjAnLCAnLXRuJywgJzgnLCAnLW1hJywgJzIwMCcsICctbWV0YWxfYmluZGluZycsICctaW1hZScsICc8aW5maWxlLm1hZT4nLCAnLW9tYWUnLCAnPG91dGZpbGUubWFlPic=

> <r_lp_tautomer_probability>
1

> <r_epik_Ionization_Penalty>
7.6122

> <r_epik_Ionization_Penalty_Charging>
1.53843

> <r_epik_Ionization_Penalty_Neutral>
6.07377

> <r_epik_State_Penalty>
6.07371

> <r_epik_Charging_Adjusted_Penalty>
7.61214

> <i_epik_Tot_Q>
-1

> <i_epik_Tot_abs_Q>
1

> <r_epik_Metal_State_Penalty>
2.02136

> <b_epik_Metal_Only>
1

> <s_lp_Force_Field>
OPLS_2005

> <r_lp_Energy>
42.0535

> <b_lp_Chiralities_Consistent>
1

> <s_lp_Variant>
AV-unprocessed.smi:2424-16

> <Gold.Version>
5.8.1

> <Gold.Id.Protein>
6NUR|6NUR_protein|mol2

> <Gold.PLP.Fitness>
38.3152

> <Gold.PLP.PLP>
-32.4177

> <Gold.PLP.part.hbond>
-3.0000

> <Gold.PLP.part.metal>
0.0000

> <Gold.PLP.part.buried>
-3.4136

> <Gold.PLP.part.nonpolar>
-26.2121

> <Gold.PLP.part.repulsive>
0.1664

> <Gold.PLP.ligand.clash>
0.0000

> <Gold.PLP.ligand.torsion>
1.2956

> <Gold.PLP.Chemscore.Hbond>
2.5780

> <Gold.PLP.Chemscore.CHOScore>
0.0000

> <Gold.PLP.Chemscore.Metal>
0.0000

> <Gold.Chemscore.Hbonds>
donor molecule, donor type, donor heavy atom, donor atom, acceptor molecule, acceptor atom, score
      P1  H  6896  6907       L1     9  1.00
      P1  H  6931  6943       L1    15  0.93
      P1  H  6934  6947       L1    15  0.38

> <Gold.PLP.Chemscore.Internal.Correction>
0.7548

> <Gold.Rescore>
     Score         DG    S(hbond)    S(metal)    S(lipo)     H(rot)  DE(clash)    DE(int)     intcor
     13.28     -18.51       2.41        0.00      75.70       1.52       0.30       4.93       ----

> <Gold.Chemscore.Fitness>
13.2780

> <Gold.Chemscore.DG>
-18.5104

> <Gold.Chemscore.ZeroCoef>
-5.4800

> <Gold.Chemscore.Hbond>
2.4149

> <Gold.Chemscore.Metal>
0.0000

> <Gold.Chemscore.Lipo>
75.6986

> <Gold.Chemscore.Internal_Hbond>
0.0000

> <Gold.Chemscore.DEClash>
0.3035

> <Gold.Chemscore.DEInternal>
4.9289

> <Gold.Chemscore.Rot>
1.5204

> <Gold.Chemscore.Internal.Correction>
   9.000000E+99

> <Gold.Chemscore.Hbonds>
donor molecule, donor type, donor heavy atom, donor atom, acceptor molecule, acceptor atom, score
      P1  H  6896  6907       L1     9  0.94
      P1  H  6931  6943       L1    15  0.62
      P1  H  6934  6947       L1    15  0.17

> <Gold.Chemscore.Hbond.Weighted>
-8.0659

> <Gold.Chemscore.Metal.Weighted>
-0.0000

> <Gold.Chemscore.Lipo.Weighted>
-8.8567

> <Gold.Chemscore.Internal_Hbond.Weighted>
0.0000

> <Gold.Chemscore.DEClash.Weighted>
0.3035

> <Gold.Chemscore.DEInternal.Weighted>
4.9289

> <Gold.Chemscore.Rot.Weighted>
3.8922

> <Gold.Chemscore.Internal.Correction.Weighted>
   9.000000E+99

> <Gold.Protein.RotatedTorsions>
[ 6907 6896 6895 6894 ] final -151.51 input  -60.11 | X-H torsion
[ 7974 7965 7964 7962 ] final   89.36 input  175.53 | X-H torsion
[ 8008 7997 7996 7995 ] final   76.69 input   59.86 | X-H torsion
[ 10167 10162 10161 10158 ] final  168.21 input  -65.29 | X-H torsion
[ 10718 10713 10712 10709 ] final  135.66 input   66.30 | X-H torsion
[ 10763 10752 10751 10750 ] final  -69.53 input  -60.55 | X-H torsion
[ 11005 11000 10999 10996 ] final -106.40 input  -57.11 | X-H torsion

> <Gold.Protein.ActiveResidues>
 VAL166  LYS551  ARG553  GLY616  TRP617  ASP618  TYR619  PRO620  LYS621  CYS622 
 ASP623  PHE694  ASN695  SER759  ASP760  ASP761  ALA762  ILE779  LEU786  VAL792 
 PHE793  MET794  SER795  GLU796  ALA797  LYS798  CYS799  TRP800  GLU811  SER814 

> <Gold.Protein.RotatedAtoms>
  151.2142  133.4539  159.2598 H   0  0  0  0  0  0  0  0  0  0  0  0  # atno 6907 bound_to 6896
  151.0947  134.9937  159.8430 H   0  0  0  0  0  0  0  0  0  0  0  0  # atno 6908 bound_to 6896
  152.5438  134.2073  159.8789 H   0  0  0  0  0  0  0  0  0  0  0  0  # atno 6909 bound_to 6896
  145.5334  139.2284  143.2606 H   0  0  0  0  0  0  0  0  0  0  0  0  # atno 7974 bound_to 7965
  155.8309  140.3466  155.5572 H   0  0  0  0  0  0  0  0  0  0  0  0  # atno 8008 bound_to 7997
  155.8243  140.0917  157.1850 H   0  0  0  0  0  0  0  0  0  0  0  0  # atno 8009 bound_to 7997
  154.4004  140.1424  156.3524 H   0  0  0  0  0  0  0  0  0  0  0  0  # atno 8010 bound_to 7997
  139.4962  144.3839  151.9592 H   0  0  0  0  0  0  0  0  0  0  0  0  # atno 10167 bound_to 10162
  157.4548  131.1069  150.9991 H   0  0  0  0  0  0  0  0  0  0  0  0  # atno 10718 bound_to 10713
  154.4047  135.6023  153.5917 H   0  0  0  0  0  0  0  0  0  0  0  0  # atno 10763 bound_to 10752
  152.9789  135.5915  154.4142 H   0  0  0  0  0  0  0  0  0  0  0  0  # atno 10764 bound_to 10752
  154.3945  135.2842  155.2112 H   0  0  0  0  0  0  0  0  0  0  0  0  # atno 10765 bound_to 10752
  141.1006  133.8891  157.1852 H   0  0  0  0  0  0  0  0  0  0  0  0  # atno 11005 bound_to 11000
  146.2029  140.6151  142.9094 LP  0  0  0  0  0  0  0  0  0  0  0  0  # atno 17320 bound_to 7965
  144.7614  140.5430  143.6733 LP  0  0  0  0  0  0  0  0  0  0  0  0  # atno 17321 bound_to 7965
  140.3276  144.3355  150.5995 LP  0  0  0  0  0  0  0  0  0  0  0  0  # atno 17342 bound_to 10162
  140.5672  143.2185  151.7663 LP  0  0  0  0  0  0  0  0  0  0  0  0  # atno 17343 bound_to 10162
  157.0808  130.5902  149.5420 LP  0  0  0  0  0  0  0  0  0  0  0  0  # atno 17370 bound_to 10713
  156.0002  130.5080  150.7636 LP  0  0  0  0  0  0  0  0  0  0  0  0  # atno 17371 bound_to 10713
  139.9856  135.0083  156.9855 LP  0  0  0  0  0  0  0  0  0  0  0  0  # atno 17394 bound_to 11000
  140.5031  134.1077  155.7254 LP  0  0  0  0  0  0  0  0  0  0  0  0  # atno 17395 bound_to 11000

$$$$
