AV-unprocessed.smi:3223|AV-procd|sdf|12308|dock4
  -GOLD-   2272018153D 1   1.00000     0.00000
 Structure written by MMmdl.
 43 43  0  0  0  0  0  0  0  0  2 V2000
  153.3586  142.5316  162.9726 C   0  0  0  0  0  0  0  0  0  0  0  0
  153.1694  142.2545  161.5092 C   0  0  0  0  0  0  0  0  0  0  0  0
  153.7666  141.2223  160.7312 C   0  0  0  0  0  0  0  0  0  0  0  0
  153.3874  141.2494  159.4636 N   0  0  0  0  0  0  0  0  0  0  0  0
  152.5383  142.2962  159.3887 N   0  0  0  0  0  0  0  0  0  0  0  0
  151.9061  142.6237  158.1241 C   0  0  0  0  0  0  0  0  0  0  0  0
  150.3929  142.3205  158.1141 C   0  0  1  0  0  0  0  0  0  0  0  0
  149.6088  143.4521  158.7916 C   0  0  0  0  0  0  0  0  0  0  0  0
  149.8916  142.1369  156.7327 N   0  3  0  0  0  0  0  0  0  0  0  0
  148.6489  141.3457  156.6171 C   0  0  0  0  0  0  0  0  0  0  0  0
  148.5691  140.6488  155.2494 C   0  0  0  0  0  0  0  0  0  0  0  0
  149.8455  139.8745  154.9117 C   0  0  0  0  0  0  0  0  0  0  0  0
  150.9242  140.4626  154.8345 O   0  0  0  0  0  0  0  0  0  0  0  0
  149.7062  138.5552  154.7058 N   0  0  0  0  0  0  0  0  0  0  0  0
  150.7863  137.6301  154.3739 C   0  0  0  0  0  0  0  0  0  0  0  0
  150.3284  136.1778  154.5788 C   0  0  0  0  0  0  0  0  0  0  0  0
  152.0205  137.9604  155.2236 C   0  0  0  0  0  0  0  0  0  0  0  0
  152.3898  142.9222  160.6077 C   0  0  0  0  0  0  0  0  0  0  0  0
  154.3364  142.2008  163.3237 H   0  0  0  0  0  0  0  0  0  0  0  0
  152.6100  142.0197  163.5774 H   0  0  0  0  0  0  0  0  0  0  0  0
  153.2809  143.5957  163.1965 H   0  0  0  0  0  0  0  0  0  0  0  0
  154.4598  140.4576  161.0496 H   0  0  0  0  0  0  0  0  0  0  0  0
  152.0744  143.6848  157.9351 H   0  0  0  0  0  0  0  0  0  0  0  0
  152.4126  142.0839  157.3219 H   0  0  0  0  0  0  0  0  0  0  0  0
  150.2092  141.4111  158.6891 H   0  0  0  0  0  0  0  0  0  0  0  0
  149.9325  143.5910  159.8236 H   0  0  0  0  0  0  0  0  0  0  0  0
  148.5405  143.2334  158.8108 H   0  0  0  0  0  0  0  0  0  0  0  0
  149.7459  144.4000  158.2697 H   0  0  0  0  0  0  0  0  0  0  0  0
  149.7085  143.0501  156.3424 H   0  0  0  0  0  0  0  0  0  0  0  0
  148.6112  140.6100  157.4208 H   0  0  0  0  0  0  0  0  0  0  0  0
  147.7922  142.0081  156.7497 H   0  0  0  0  0  0  0  0  0  0  0  0
  147.7116  139.9739  155.2282 H   0  0  0  0  0  0  0  0  0  0  0  0
  148.4057  141.3881  154.4641 H   0  0  0  0  0  0  0  0  0  0  0  0
  148.7809  138.1587  154.7850 H   0  0  0  0  0  0  0  0  0  0  0  0
  151.0621  137.7624  153.3263 H   0  0  0  0  0  0  0  0  0  0  0  0
  151.1235  135.4772  154.3224 H   0  0  0  0  0  0  0  0  0  0  0  0
  149.4689  135.9408  153.9509 H   0  0  0  0  0  0  0  0  0  0  0  0
  150.0449  135.9931  155.6156 H   0  0  0  0  0  0  0  0  0  0  0  0
  152.8542  137.3035  154.9738 H   0  0  0  0  0  0  0  0  0  0  0  0
  151.8139  137.8452  156.2882 H   0  0  0  0  0  0  0  0  0  0  0  0
  152.3500  138.9865  155.0563 H   0  0  0  0  0  0  0  0  0  0  0  0
  151.7455  143.7802  160.7329 H   0  0  0  0  0  0  0  0  0  0  0  0
  150.6166  141.6939  156.1859 H   0  0  0  0  0  0  0  0  0  0  0  0
  1  2  1  0  0  0  0
  1 19  1  0  0  0  0
  1 20  1  0  0  0  0
  1 21  1  0  0  0  0
  2 18  2  0  0  0  0
  2  3  1  0  0  0  0
  3  4  2  0  0  0  0
  3 22  1  0  0  0  0
  4  5  1  0  0  0  0
  5  6  1  0  0  0  0
  5 18  1  0  0  0  0
  6  7  1  0  0  0  0
  6 23  1  0  0  0  0
  6 24  1  0  0  0  0
  7  8  1  0  0  0  0
  7  9  1  0  0  0  0
  7 25  1  0  0  0  0
  8 26  1  0  0  0  0
  8 27  1  0  0  0  0
  8 28  1  0  0  0  0
  9 10  1  0  0  0  0
  9 29  1  0  0  0  0
  9 43  1  0  0  0  0
 10 11  1  0  0  0  0
 10 30  1  0  0  0  0
 10 31  1  0  0  0  0
 11 12  1  0  0  0  0
 11 32  1  0  0  0  0
 11 33  1  0  0  0  0
 12 13  2  0  0  0  0
 12 14  1  0  0  0  0
 14 15  1  0  0  0  0
 14 34  1  0  0  0  0
 15 16  1  0  0  0  0
 15 17  1  0  0  0  0
 15 35  1  0  0  0  0
 16 36  1  0  0  0  0
 16 37  1  0  0  0  0
 16 38  1  0  0  0  0
 17 39  1  0  0  0  0
 17 40  1  0  0  0  0
 17 41  1  0  0  0  0
 18 42  1  0  0  0  0
M  CHG  1   9   1
M  END
> <s_m_source_file>
AV-unprocessed.smi

> <i_m_source_file_index>
3223

> <i_lp_mmshare_version>
43012

> <i_f3d_flags>
0

> <s_epik_input>
W0NIM11jMVtjSF1ubihbY0hdMSlbQ0gyXVtDQEhdKFtDSDNdKVtOSF1bQ0gyXVtDSDJdQyg9TylbTkhdW0NIXShbQ0gzXSlbQ0gzXQ==

> <s_epik_cmdline>
J2VwaWtfcHl0aG9uJywgJy1waCcsICc3LjAnLCAnLXRuJywgJzgnLCAnLW1hJywgJzIwMCcsICctbWV0YWxfYmluZGluZycsICctaW1hZScsICc8aW5maWxlLm1hZT4nLCAnLW9tYWUnLCAnPG91dGZpbGUubWFlPic=

> <r_lp_tautomer_probability>
1

> <r_epik_Ionization_Penalty>
0.0057861

> <r_epik_Ionization_Penalty_Charging>
0.00577767

> <r_epik_Ionization_Penalty_Neutral>
8.4224e-06

> <r_epik_State_Penalty>
0.00424195

> <r_epik_Charging_Adjusted_Penalty>
0.0100196

> <i_epik_Tot_Q>
1

> <i_epik_Tot_abs_Q>
1

> <r_epik_Metal_State_Penalty>
-0

> <b_epik_Metal_Only>
0

> <s_lp_Force_Field>
OPLS_2005

> <r_lp_Energy>
5.87618

> <b_lp_Chiralities_Consistent>
1

> <s_lp_Variant>
AV-unprocessed.smi:3223-2

> <Gold.Version>
5.8.1

> <Gold.Id.Protein>
6NUR|6NUR_protein|mol2

> <Gold.PLP.Fitness>
46.2096

> <Gold.PLP.PLP>
-38.9066

> <Gold.PLP.part.hbond>
-1.8059

> <Gold.PLP.part.metal>
0.0000

> <Gold.PLP.part.buried>
-4.4071

> <Gold.PLP.part.nonpolar>
-32.5338

> <Gold.PLP.part.repulsive>
0.1534

> <Gold.PLP.ligand.clash>
0.0000

> <Gold.PLP.ligand.torsion>
0.9360

> <Gold.PLP.Chemscore.Hbond>
3.0000

> <Gold.PLP.Chemscore.CHOScore>
0.0000

> <Gold.PLP.Chemscore.Metal>
0.0000

> <Gold.Chemscore.Hbonds>
donor molecule, donor type, donor heavy atom, donor atom, acceptor molecule, acceptor atom, score
      L1  H     9    29       P1  8028  2.00
      P1  H  7989  7998       L1    13  1.00

> <Gold.PLP.Chemscore.Internal.Correction>
0.1750

> <Gold.Rescore>
     Score         DG    S(hbond)    S(metal)    S(lipo)     H(rot)  DE(clash)    DE(int)     intcor
     14.26     -17.64       1.98        0.00      95.28       2.19       0.19       3.19       ----

> <Gold.Chemscore.Fitness>
14.2614

> <Gold.Chemscore.DG>
-17.6400

> <Gold.Chemscore.ZeroCoef>
-5.4800

> <Gold.Chemscore.Hbond>
1.9776

> <Gold.Chemscore.Metal>
0.0000

> <Gold.Chemscore.Lipo>
95.2841

> <Gold.Chemscore.Internal_Hbond>
0.0000

> <Gold.Chemscore.DEClash>
0.1866

> <Gold.Chemscore.DEInternal>
3.1919

> <Gold.Chemscore.Rot>
2.1850

> <Gold.Chemscore.Internal.Correction>
   9.000000E+99

> <Gold.Chemscore.Hbonds>
donor molecule, donor type, donor heavy atom, donor atom, acceptor molecule, acceptor atom, score
      L1  H     9    29       P1  8028  0.97
      P1  H  7989  7998       L1    13  0.93

> <Gold.Chemscore.Hbond.Weighted>
-6.6053

> <Gold.Chemscore.Metal.Weighted>
-0.0000

> <Gold.Chemscore.Lipo.Weighted>
-11.1482

> <Gold.Chemscore.Internal_Hbond.Weighted>
0.0000

> <Gold.Chemscore.DEClash.Weighted>
0.1866

> <Gold.Chemscore.DEInternal.Weighted>
3.1919

> <Gold.Chemscore.Rot.Weighted>
5.5936

> <Gold.Chemscore.Internal.Correction.Weighted>
   9.000000E+99

> <Gold.Protein.RotatedTorsions>
[ 6907 6896 6895 6894 ] final    4.41 input  -60.11 | X-H torsion
[ 7974 7965 7964 7962 ] final -129.09 input  175.53 | X-H torsion
[ 8008 7997 7996 7995 ] final  -52.83 input   59.86 | X-H torsion
[ 10167 10162 10161 10158 ] final   42.50 input  -65.29 | X-H torsion
[ 10718 10713 10712 10709 ] final -130.24 input   66.30 | X-H torsion
[ 10763 10752 10751 10750 ] final   99.33 input  -60.55 | X-H torsion
[ 11005 11000 10999 10996 ] final   14.13 input  -57.11 | X-H torsion

> <Gold.Protein.ActiveResidues>
 VAL166  LYS551  ARG553  GLY616  TRP617  ASP618  TYR619  PRO620  LYS621  CYS622 
 ASP623  PHE694  ASN695  SER759  ASP760  ASP761  ALA762  ILE779  LEU786  VAL792 
 PHE793  MET794  SER795  GLU796  ALA797  LYS798  CYS799  TRP800  GLU811  SER814 

> <Gold.Protein.RotatedAtoms>
  151.6408  135.1013  160.0140 H   0  0  0  0  0  0  0  0  0  0  0  0  # atno 6907 bound_to 6896
  152.4055  133.6878  159.6361 H   0  0  0  0  0  0  0  0  0  0  0  0  # atno 6908 bound_to 6896
  150.7950  133.8633  159.3279 H   0  0  0  0  0  0  0  0  0  0  0  0  # atno 6909 bound_to 6896
  144.9606  140.7443  143.4731 H   0  0  0  0  0  0  0  0  0  0  0  0  # atno 7974 bound_to 7965
  154.4117  140.1214  156.5056 H   0  0  0  0  0  0  0  0  0  0  0  0  # atno 8008 bound_to 7997
  155.6851  140.3496  155.4851 H   0  0  0  0  0  0  0  0  0  0  0  0  # atno 8009 bound_to 7997
  155.9518  140.1106  157.0960 H   0  0  0  0  0  0  0  0  0  0  0  0  # atno 8010 bound_to 7997
  140.3537  144.2317  150.6143 H   0  0  0  0  0  0  0  0  0  0  0  0  # atno 10167 bound_to 10162
  156.2125  130.6927  151.0666 H   0  0  0  0  0  0  0  0  0  0  0  0  # atno 10718 bound_to 10713
  153.3001  135.4117  155.1245 H   0  0  0  0  0  0  0  0  0  0  0  0  # atno 10763 bound_to 10752
  154.8547  135.3539  154.5863 H   0  0  0  0  0  0  0  0  0  0  0  0  # atno 10764 bound_to 10752
  153.6288  135.7061  153.5341 H   0  0  0  0  0  0  0  0  0  0  0  0  # atno 10765 bound_to 10752
  140.4730  134.1012  155.7736 H   0  0  0  0  0  0  0  0  0  0  0  0  # atno 11005 bound_to 11000
  145.2706  139.1956  143.4844 LP  0  0  0  0  0  0  0  0  0  0  0  0  # atno 17320 bound_to 7965
  146.3352  140.2651  142.8603 LP  0  0  0  0  0  0  0  0  0  0  0  0  # atno 17321 bound_to 7965
  140.5194  143.2269  151.8412 LP  0  0  0  0  0  0  0  0  0  0  0  0  # atno 17342 bound_to 10162
  139.4823  144.4855  151.9252 LP  0  0  0  0  0  0  0  0  0  0  0  0  # atno 17343 bound_to 10162
  157.7046  131.0762  150.6709 LP  0  0  0  0  0  0  0  0  0  0  0  0  # atno 17370 bound_to 10713
  156.6769  130.4556  149.5640 LP  0  0  0  0  0  0  0  0  0  0  0  0  # atno 17371 bound_to 10713
  141.1568  133.8868  157.1956 LP  0  0  0  0  0  0  0  0  0  0  0  0  # atno 17394 bound_to 11000
  139.9873  135.0077  156.9893 LP  0  0  0  0  0  0  0  0  0  0  0  0  # atno 17395 bound_to 11000

$$$$
