AV-unprocessed.smi:1697|AV-procd|sdf|6804|dock6
  -GOLD-   22720 7573D 1   1.00000     0.00000
 Structure written by MMmdl.
 54 56  0  0  0  0  0  0  0  0  2 V2000
  144.2038  133.1012  149.8233 C   0  0  0  0  0  0  0  0  0  0  0  0
  144.4181  134.5160  150.3789 C   0  0  0  0  0  0  0  0  0  0  0  0
  145.0939  134.5054  151.6304 O   0  0  0  0  0  0  0  0  0  0  0  0
  145.2524  135.7766  152.2482 C   0  0  2  0  0  0  0  0  0  0  0  0
  145.9490  136.7169  151.2548 C   0  0  0  0  0  0  0  0  0  0  0  0
  146.2753  138.0692  151.9112 C   0  0  0  0  0  0  0  0  0  0  0  0
  147.1088  137.8879  153.1279 N   0  3  1  0  0  0  0  0  0  0  0  0
  147.5552  139.1808  153.7076 C   0  0  0  0  0  0  0  0  0  0  0  0
  148.8003  139.0224  154.6015 C   0  0  1  0  0  0  0  0  0  0  0  0
  149.6315  138.0166  154.0536 O   0  0  0  0  0  0  0  0  0  0  0  0
  149.5992  140.3344  154.7185 C   0  0  0  0  0  0  0  0  0  0  0  0
  150.6329  140.2586  155.7349 N   0  0  0  0  0  0  0  0  0  0  0  0
  151.6609  139.3902  155.7935 C   0  0  0  0  0  0  0  0  0  0  0  0
  152.4913  139.4995  156.8266 N   0  0  0  0  0  0  0  0  0  0  0  0
  151.9395  140.5646  157.5177 C   0  0  0  0  0  0  0  0  0  0  0  0
  152.3438  141.1887  158.7180 C   0  0  0  0  0  0  0  0  0  0  0  0
  151.6164  142.2776  159.2495 C   0  0  0  0  0  0  0  0  0  0  0  0
  152.0851  142.9170  160.5446 C   0  0  0  0  0  0  0  0  0  0  0  0
  150.4648  142.7597  158.5764 C   0  0  0  0  0  0  0  0  0  0  0  0
  149.6675  143.9279  159.1289 C   0  0  0  0  0  0  0  0  0  0  0  0
  150.0475  142.1483  157.3758 C   0  0  0  0  0  0  0  0  0  0  0  0
  150.7782  141.0640  156.8589 C   0  0  0  0  0  0  0  0  0  0  0  0
  146.4441  136.9982  154.1183 C   0  0  0  0  0  0  0  0  0  0  0  0
  146.1264  135.6261  153.5029 C   0  0  0  0  0  0  0  0  0  0  0  0
  143.7667  133.1414  148.8255 H   0  0  0  0  0  0  0  0  0  0  0  0
  143.5296  132.5188  150.4509 H   0  0  0  0  0  0  0  0  0  0  0  0
  145.1486  132.5620  149.7508 H   0  0  0  0  0  0  0  0  0  0  0  0
  145.0349  135.0803  149.6793 H   0  0  0  0  0  0  0  0  0  0  0  0
  143.4720  135.0532  150.4587 H   0  0  0  0  0  0  0  0  0  0  0  0
  144.2900  136.2130  152.5233 H   0  0  0  0  0  0  0  0  0  0  0  0
  146.8694  136.2562  150.8930 H   0  0  0  0  0  0  0  0  0  0  0  0
  145.3153  136.8698  150.3805 H   0  0  0  0  0  0  0  0  0  0  0  0
  146.8049  138.6947  151.1916 H   0  0  0  0  0  0  0  0  0  0  0  0
  145.3551  138.5941  152.1732 H   0  0  0  0  0  0  0  0  0  0  0  0
  147.7890  139.8887  152.9104 H   0  0  0  0  0  0  0  0  0  0  0  0
  146.7313  139.6224  154.2704 H   0  0  0  0  0  0  0  0  0  0  0  0
  148.5072  138.7070  155.6022 H   0  0  0  0  0  0  0  0  0  0  0  0
  149.1222  137.4957  153.4513 H   0  0  0  0  0  0  0  0  0  0  0  0
  150.0595  140.5936  153.7639 H   0  0  0  0  0  0  0  0  0  0  0  0
  148.9332  141.1583  154.9782 H   0  0  0  0  0  0  0  0  0  0  0  0
  151.8053  138.6311  155.0384 H   0  0  0  0  0  0  0  0  0  0  0  0
  153.2206  140.8213  159.2308 H   0  0  0  0  0  0  0  0  0  0  0  0
  151.3189  142.8244  161.3146 H   0  0  0  0  0  0  0  0  0  0  0  0
  152.2997  143.9751  160.3939 H   0  0  0  0  0  0  0  0  0  0  0  0
  152.9932  142.4426  160.9176 H   0  0  0  0  0  0  0  0  0  0  0  0
  148.8140  144.1632  158.4927 H   0  0  0  0  0  0  0  0  0  0  0  0
  150.2913  144.8195  159.1944 H   0  0  0  0  0  0  0  0  0  0  0  0
  149.2890  143.6957  160.1243 H   0  0  0  0  0  0  0  0  0  0  0  0
  149.1727  142.5052  156.8529 H   0  0  0  0  0  0  0  0  0  0  0  0
  147.0808  136.8525  154.9900 H   0  0  0  0  0  0  0  0  0  0  0  0
  145.5267  137.4688  154.4752 H   0  0  0  0  0  0  0  0  0  0  0  0
  145.6267  134.9975  154.2398 H   0  0  0  0  0  0  0  0  0  0  0  0
  147.0570  135.1181  153.2461 H   0  0  0  0  0  0  0  0  0  0  0  0
  147.9479  137.4143  152.8231 H   0  0  0  0  0  0  0  0  0  0  0  0
  1  2  1  0  0  0  0
  1 25  1  0  0  0  0
  1 26  1  0  0  0  0
  1 27  1  0  0  0  0
  2  3  1  0  0  0  0
  2 28  1  0  0  0  0
  2 29  1  0  0  0  0
  3  4  1  0  0  0  0
  4 24  1  0  0  0  0
  4  5  1  0  0  0  0
  4 30  1  0  0  0  0
  5  6  1  0  0  0  0
  5 31  1  0  0  0  0
  5 32  1  0  0  0  0
  6  7  1  0  0  0  0
  6 33  1  0  0  0  0
  6 34  1  0  0  0  0
  7  8  1  0  0  0  0
  7 23  1  0  0  0  0
  7 54  1  0  0  0  0
  8  9  1  0  0  0  0
  8 35  1  0  0  0  0
  8 36  1  0  0  0  0
  9 10  1  0  0  0  0
  9 11  1  0  0  0  0
  9 37  1  0  0  0  0
 10 38  1  0  0  0  0
 11 12  1  0  0  0  0
 11 39  1  0  0  0  0
 11 40  1  0  0  0  0
 12 22  1  0  0  0  0
 12 13  1  0  0  0  0
 13 14  2  0  0  0  0
 13 41  1  0  0  0  0
 14 15  1  0  0  0  0
 15 22  2  0  0  0  0
 15 16  1  0  0  0  0
 16 17  2  0  0  0  0
 16 42  1  0  0  0  0
 17 18  1  0  0  0  0
 17 19  1  0  0  0  0
 18 43  1  0  0  0  0
 18 44  1  0  0  0  0
 18 45  1  0  0  0  0
 19 20  1  0  0  0  0
 19 21  2  0  0  0  0
 20 46  1  0  0  0  0
 20 47  1  0  0  0  0
 20 48  1  0  0  0  0
 21 22  1  0  0  0  0
 21 49  1  0  0  0  0
 23 24  1  0  0  0  0
 23 50  1  0  0  0  0
 23 51  1  0  0  0  0
 24 52  1  0  0  0  0
 24 53  1  0  0  0  0
M  CHG  1   7   1
M  END
> <s_m_source_file>
AV-unprocessed.smi

> <i_m_source_file_index>
1697

> <i_lp_mmshare_version>
43012

> <i_f3d_flags>
0

> <s_epik_input>
W0NIM11bQ0gyXU9bQ0hdMVtDSDJdW0NIMl1OKFtDSDJdW0NIMl0xKVtDSDJdW0NASF0oW09IXSlbQ0gyXW4oW2NIXW4yKWMoYzIzKVtjSF1jKFtDSDNdKWMoW2NIXTMpW0NIM10=

> <s_epik_cmdline>
J2VwaWtfcHl0aG9uJywgJy1waCcsICc3LjAnLCAnLXRuJywgJzgnLCAnLW1hJywgJzIwMCcsICctbWV0YWxfYmluZGluZycsICctaW1hZScsICc8aW5maWxlLm1hZT4nLCAnLW9tYWUnLCAnPG91dGZpbGUubWFlPic=

> <r_epik_Ionization_Penalty>
0.112476

> <r_epik_Ionization_Penalty_Charging>
0.0244612

> <r_epik_Ionization_Penalty_Neutral>
0.0880147

> <r_epik_State_Penalty>
0.0961447

> <r_epik_Charging_Adjusted_Penalty>
0.120606

> <i_epik_Tot_Q>
1

> <i_epik_Tot_abs_Q>
1

> <r_epik_Metal_State_Penalty>
0.0206204

> <b_epik_Metal_Only>
0

> <s_lp_Force_Field>
OPLS_2005

> <r_lp_Energy>
24.3812

> <b_lp_Chiralities_Consistent>
1

> <s_lp_Variant>
AV-unprocessed.smi:1697-2

> <Gold.Version>
5.8.1

> <Gold.Id.Protein>
6NUR|6NUR_protein|mol2

> <Gold.PLP.Fitness>
54.7059

> <Gold.PLP.PLP>
-43.4273

> <Gold.PLP.part.hbond>
-3.0000

> <Gold.PLP.part.metal>
0.0000

> <Gold.PLP.part.buried>
-2.6569

> <Gold.PLP.part.nonpolar>
-38.7434

> <Gold.PLP.part.repulsive>
0.1563

> <Gold.PLP.ligand.clash>
0.0000

> <Gold.PLP.ligand.torsion>
0.4867

> <Gold.PLP.Chemscore.Hbond>
4.0000

> <Gold.PLP.Chemscore.CHOScore>
0.0000

> <Gold.PLP.Chemscore.Metal>
0.0000

> <Gold.Chemscore.Hbonds>
donor molecule, donor type, donor heavy atom, donor atom, acceptor molecule, acceptor atom, score
      L1  H     7    54       P1  7948  2.00
      L1  H    10    38       P1  7948  1.00
      P1  H  7997  8008       L1    14  1.00

> <Gold.PLP.Chemscore.Internal.Correction>
0.2520

> <Gold.Rescore>
     Score         DG    S(hbond)    S(metal)    S(lipo)     H(rot)  DE(clash)    DE(int)     intcor
     21.41     -22.00       2.84        0.00     109.82       2.27       0.07       0.52       ----

> <Gold.Chemscore.Fitness>
21.4133

> <Gold.Chemscore.DG>
-22.0012

> <Gold.Chemscore.ZeroCoef>
-5.4800

> <Gold.Chemscore.Hbond>
2.8401

> <Gold.Chemscore.Metal>
0.0000

> <Gold.Chemscore.Lipo>
109.8198

> <Gold.Chemscore.Internal_Hbond>
0.0000

> <Gold.Chemscore.DEClash>
0.0669

> <Gold.Chemscore.DEInternal>
0.5210

> <Gold.Chemscore.Rot>
2.2710

> <Gold.Chemscore.Internal.Correction>
   9.000000E+99

> <Gold.Chemscore.Hbonds>
donor molecule, donor type, donor heavy atom, donor atom, acceptor molecule, acceptor atom, score
      L1  H     7    54       P1  7948  0.99
      L1  H    10    38       P1  7948  0.90
      P1  H  7997  8008       L1    14  0.33

> <Gold.Chemscore.Hbond.Weighted>
-9.4860

> <Gold.Chemscore.Metal.Weighted>
-0.0000

> <Gold.Chemscore.Lipo.Weighted>
-12.8489

> <Gold.Chemscore.Internal_Hbond.Weighted>
0.0000

> <Gold.Chemscore.DEClash.Weighted>
0.0669

> <Gold.Chemscore.DEInternal.Weighted>
0.5210

> <Gold.Chemscore.Rot.Weighted>
5.8137

> <Gold.Chemscore.Internal.Correction.Weighted>
   9.000000E+99

> <Gold.Protein.RotatedTorsions>
[ 6907 6896 6895 6894 ] final   34.95 input  -60.11 | X-H torsion
[ 7974 7965 7964 7962 ] final   37.25 input  175.53 | X-H torsion
[ 8008 7997 7996 7995 ] final  -55.12 input   59.86 | X-H torsion
[ 10167 10162 10161 10158 ] final  -86.24 input  -65.29 | X-H torsion
[ 10718 10713 10712 10709 ] final -150.88 input   66.30 | X-H torsion
[ 10763 10752 10751 10750 ] final  -13.05 input  -60.55 | X-H torsion
[ 11005 11000 10999 10996 ] final  -86.60 input  -57.11 | X-H torsion

> <Gold.Protein.ActiveResidues>
 VAL166  LYS551  ARG553  GLY616  TRP617  ASP618  TYR619  PRO620  LYS621  CYS622 
 ASP623  PHE694  ASN695  SER759  ASP760  ASP761  ALA762  ILE779  LEU786  VAL792 
 PHE793  MET794  SER795  GLU796  ALA797  LYS798  CYS799  TRP800  GLU811  SER814 

> <Gold.Protein.RotatedAtoms>
  152.1094  134.9285  160.0566 H   0  0  0  0  0  0  0  0  0  0  0  0  # atno 6907 bound_to 6896
  152.0468  133.3996  159.4368 H   0  0  0  0  0  0  0  0  0  0  0  0  # atno 6908 bound_to 6896
  150.6843  134.3273  159.4856 H   0  0  0  0  0  0  0  0  0  0  0  0  # atno 6909 bound_to 6896
  146.1151  139.5917  142.9326 H   0  0  0  0  0  0  0  0  0  0  0  0  # atno 7974 bound_to 7965
  154.4184  140.1160  156.5425 H   0  0  0  0  0  0  0  0  0  0  0  0  # atno 8008 bound_to 7997
  155.6493  140.3496  155.4723 H   0  0  0  0  0  0  0  0  0  0  0  0  # atno 8009 bound_to 7997
  155.9806  140.1159  157.0720 H   0  0  0  0  0  0  0  0  0  0  0  0  # atno 8010 bound_to 7997
  140.3960  143.2683  151.9203 H   0  0  0  0  0  0  0  0  0  0  0  0  # atno 10167 bound_to 10162
  156.4519  130.8172  151.2402 H   0  0  0  0  0  0  0  0  0  0  0  0  # atno 10718 bound_to 10713
  153.5075  135.7016  153.5798 H   0  0  0  0  0  0  0  0  0  0  0  0  # atno 10763 bound_to 10752
  153.3903  135.3897  155.1918 H   0  0  0  0  0  0  0  0  0  0  0  0  # atno 10764 bound_to 10752
  154.8706  135.3856  154.4552 H   0  0  0  0  0  0  0  0  0  0  0  0  # atno 10765 bound_to 10752
  141.1628  133.7464  156.9185 H   0  0  0  0  0  0  0  0  0  0  0  0  # atno 11005 bound_to 11000
  145.5582  141.0407  143.2240 LP  0  0  0  0  0  0  0  0  0  0  0  0  # atno 17320 bound_to 7965
  144.7546  139.7107  143.7259 LP  0  0  0  0  0  0  0  0  0  0  0  0  # atno 17321 bound_to 7965
  139.4786  144.5680  151.8133 LP  0  0  0  0  0  0  0  0  0  0  0  0  # atno 17342 bound_to 10162
  140.4790  144.1478  150.5929 LP  0  0  0  0  0  0  0  0  0  0  0  0  # atno 17343 bound_to 10162
  157.7502  131.0135  150.3427 LP  0  0  0  0  0  0  0  0  0  0  0  0  # atno 17370 bound_to 10713
  156.3807  130.3880  149.7103 LP  0  0  0  0  0  0  0  0  0  0  0  0  # atno 17371 bound_to 10713
  140.1467  134.9257  157.2539 LP  0  0  0  0  0  0  0  0  0  0  0  0  # atno 17394 bound_to 11000
  140.2771  134.3393  155.7355 LP  0  0  0  0  0  0  0  0  0  0  0  0  # atno 17395 bound_to 11000

$$$$
