AV-unprocessed.smi:3003|AV-procd|sdf|11438|dock3
  -GOLD-   2272016363D 1   1.00000     0.00000
 Structure written by MMmdl.
 41 42  0  0  0  0  0  0  0  0  1 V2000
  147.1845  134.4239  162.1512 C   0  0  0  0  0  0  0  0  0  0  0  0
  147.8585  133.4690  160.7645 S   0  0  0  0  0  0  0  0  0  0  0  0
  147.7046  134.6735  159.4118 C   0  0  1  0  0  0  0  0  0  0  0  0
  148.0836  136.0788  159.9049 C   0  0  0  0  0  0  0  0  0  0  0  0
  148.5465  134.2777  158.1931 C   0  0  0  0  0  0  0  0  0  0  0  0
  149.2960  133.3019  158.2459 O   0  0  0  0  0  0  0  0  0  0  0  0
  148.4149  135.0436  157.0986 N   0  0  0  0  0  0  0  0  0  0  0  0
  149.1512  134.8506  155.8535 C   0  0  0  0  0  0  0  0  0  0  0  0
  148.2904  134.3661  154.6959 C   0  0  0  0  0  0  0  0  0  0  0  0
  148.6356  133.2275  153.9385 C   0  0  0  0  0  0  0  0  0  0  0  0
  147.7940  132.8274  152.8833 C   0  0  0  0  0  0  0  0  0  0  0  0
  146.6261  133.5780  152.6080 C   0  0  0  0  0  0  0  0  0  0  0  0
  145.7623  133.1885  151.5611 N   0  0  0  0  0  0  0  0  0  0  0  0
  146.3072  132.2075  150.6255 C   0  0  0  0  0  0  0  0  0  0  0  0
  145.4076  132.0933  149.3826 C   0  0  0  0  0  0  0  0  0  0  0  0
  144.0723  131.7972  149.7782 O   0  0  0  0  0  0  0  0  0  0  0  0
  143.5241  132.8244  150.5970 C   0  0  0  0  0  0  0  0  0  0  0  0
  144.3550  132.9598  151.8840 C   0  0  0  0  0  0  0  0  0  0  0  0
  146.3081  134.6826  153.3277 N   0  0  0  0  0  0  0  0  0  0  0  0
  147.1172  135.0608  154.3396 C   0  0  0  0  0  0  0  0  0  0  0  0
  147.2399  133.8384  163.0688 H   0  0  0  0  0  0  0  0  0  0  0  0
  146.1409  134.6818  161.9723 H   0  0  0  0  0  0  0  0  0  0  0  0
  147.7531  135.3429  162.2937 H   0  0  0  0  0  0  0  0  0  0  0  0
  146.6532  134.6989  159.1204 H   0  0  0  0  0  0  0  0  0  0  0  0
  148.0077  136.8145  159.1032 H   0  0  0  0  0  0  0  0  0  0  0  0
  149.1038  136.1086  160.2899 H   0  0  0  0  0  0  0  0  0  0  0  0
  147.4192  136.4009  160.7071 H   0  0  0  0  0  0  0  0  0  0  0  0
  147.7725  135.8218  157.1356 H   0  0  0  0  0  0  0  0  0  0  0  0
  149.6584  135.7776  155.5800 H   0  0  0  0  0  0  0  0  0  0  0  0
  149.9330  134.1119  156.0308 H   0  0  0  0  0  0  0  0  0  0  0  0
  149.5312  132.6650  154.1573 H   0  0  0  0  0  0  0  0  0  0  0  0
  148.0598  131.9628  152.2936 H   0  0  0  0  0  0  0  0  0  0  0  0
  147.3159  132.4677  150.3083 H   0  0  0  0  0  0  0  0  0  0  0  0
  146.3722  131.2414  151.1279 H   0  0  0  0  0  0  0  0  0  0  0  0
  145.4299  133.0165  148.8012 H   0  0  0  0  0  0  0  0  0  0  0  0
  145.7688  131.2982  148.7303 H   0  0  0  0  0  0  0  0  0  0  0  0
  143.4992  133.7676  150.0488 H   0  0  0  0  0  0  0  0  0  0  0  0
  142.4925  132.5712  150.8416 H   0  0  0  0  0  0  0  0  0  0  0  0
  144.2639  132.0531  152.4835 H   0  0  0  0  0  0  0  0  0  0  0  0
  143.9652  133.7862  152.4793 H   0  0  0  0  0  0  0  0  0  0  0  0
  146.8134  135.9429  154.8838 H   0  0  0  0  0  0  0  0  0  0  0  0
  1  2  1  0  0  0  0
  1 21  1  0  0  0  0
  1 22  1  0  0  0  0
  1 23  1  0  0  0  0
  2  3  1  0  0  0  0
  3  4  1  0  0  0  0
  3  5  1  0  0  0  0
  3 24  1  0  0  0  0
  4 25  1  0  0  0  0
  4 26  1  0  0  0  0
  4 27  1  0  0  0  0
  5  6  2  0  0  0  0
  5  7  1  0  0  0  0
  7  8  1  0  0  0  0
  7 28  1  0  0  0  0
  8  9  1  0  0  0  0
  8 29  1  0  0  0  0
  8 30  1  0  0  0  0
  9 20  1  0  0  0  0
  9 10  2  0  0  0  0
 10 11  1  0  0  0  0
 10 31  1  0  0  0  0
 11 12  2  0  0  0  0
 11 32  1  0  0  0  0
 12 13  1  0  0  0  0
 12 19  1  0  0  0  0
 13 18  1  0  0  0  0
 13 14  1  0  0  0  0
 14 15  1  0  0  0  0
 14 33  1  0  0  0  0
 14 34  1  0  0  0  0
 15 16  1  0  0  0  0
 15 35  1  0  0  0  0
 15 36  1  0  0  0  0
 16 17  1  0  0  0  0
 17 18  1  0  0  0  0
 17 37  1  0  0  0  0
 17 38  1  0  0  0  0
 18 39  1  0  0  0  0
 18 40  1  0  0  0  0
 19 20  2  0  0  0  0
 20 41  1  0  0  0  0
M  END
> <s_m_source_file>
AV-unprocessed.smi

> <i_m_source_file_index>
3003

> <i_lp_mmshare_version>
43012

> <i_f3d_flags>
0

> <s_epik_input>
W0NIM11TW0NASF0oW0NIM10pQyg9TylbTkhdW0NIMl1jMVtjSF1bY0hdYyhuW2NIXTEpTjJbQ0gyXVtDSDJdT1tDSDJdW0NIMl0y

> <s_epik_cmdline>
J2VwaWtfcHl0aG9uJywgJy1waCcsICc3LjAnLCAnLXRuJywgJzgnLCAnLW1hJywgJzIwMCcsICctbWV0YWxfYmluZGluZycsICctaW1hZScsICc8aW5maWxlLm1hZT4nLCAnLW9tYWUnLCAnPG91dGZpbGUubWFlPic=

> <r_lp_tautomer_probability>
1

> <r_epik_Ionization_Penalty>
0.00417642

> <r_epik_Ionization_Penalty_Charging>
0

> <r_epik_Ionization_Penalty_Neutral>
0.00417642

> <r_epik_State_Penalty>
0.00299889

> <r_epik_Charging_Adjusted_Penalty>
0.00299889

> <i_epik_Tot_Q>
0

> <i_epik_Tot_abs_Q>
0

> <r_epik_Metal_State_Penalty>
-0

> <b_epik_Metal_Only>
0

> <s_lp_Force_Field>
OPLS_2005

> <r_lp_Energy>
16.8537

> <b_lp_Chiralities_Consistent>
1

> <s_lp_Variant>
AV-unprocessed.smi:3003-2

> <Gold.Version>
5.8.1

> <Gold.Id.Protein>
6NUR|6NUR_protein|mol2

> <Gold.PLP.Fitness>
35.0799

> <Gold.PLP.PLP>
-30.9583

> <Gold.PLP.part.hbond>
-2.0000

> <Gold.PLP.part.metal>
0.0000

> <Gold.PLP.part.buried>
-2.7664

> <Gold.PLP.part.nonpolar>
-27.1342

> <Gold.PLP.part.repulsive>
0.4078

> <Gold.PLP.ligand.clash>
0.0000

> <Gold.PLP.ligand.torsion>
0.4655

> <Gold.PLP.Chemscore.Hbond>
1.5499

> <Gold.PLP.Chemscore.CHOScore>
0.0000

> <Gold.PLP.Chemscore.Metal>
0.0000

> <Gold.Chemscore.Hbonds>
donor molecule, donor type, donor heavy atom, donor atom, acceptor molecule, acceptor atom, score
      P1  H  6896  6908       L1     6  1.00
      P1  H 10785 10796       L1    16  0.54

> <Gold.PLP.Chemscore.Internal.Correction>
0.4029

> <Gold.Rescore>
     Score         DG    S(hbond)    S(metal)    S(lipo)     H(rot)  DE(clash)    DE(int)     intcor
     15.50     -16.03       1.63        0.00      80.02       1.67       0.18       0.34       ----

> <Gold.Chemscore.Fitness>
15.5049

> <Gold.Chemscore.DG>
-16.0294

> <Gold.Chemscore.ZeroCoef>
-5.4800

> <Gold.Chemscore.Hbond>
1.6339

> <Gold.Chemscore.Metal>
0.0000

> <Gold.Chemscore.Lipo>
80.0246

> <Gold.Chemscore.Internal_Hbond>
0.0000

> <Gold.Chemscore.DEClash>
0.1830

> <Gold.Chemscore.DEInternal>
0.3414

> <Gold.Chemscore.Rot>
1.6682

> <Gold.Chemscore.Internal.Correction>
   9.000000E+99

> <Gold.Chemscore.Hbonds>
donor molecule, donor type, donor heavy atom, donor atom, acceptor molecule, acceptor atom, score
      P1  H  6896  6908       L1     6  0.60
      P1  H 10785 10796       L1    16  0.46

> <Gold.Chemscore.Hbond.Weighted>
-5.4572

> <Gold.Chemscore.Metal.Weighted>
-0.0000

> <Gold.Chemscore.Lipo.Weighted>
-9.3629

> <Gold.Chemscore.Internal_Hbond.Weighted>
0.0000

> <Gold.Chemscore.DEClash.Weighted>
0.1830

> <Gold.Chemscore.DEInternal.Weighted>
0.3414

> <Gold.Chemscore.Rot.Weighted>
4.2707

> <Gold.Chemscore.Internal.Correction.Weighted>
   9.000000E+99

> <Gold.Protein.RotatedTorsions>
[ 6907 6896 6895 6894 ] final  120.65 input  -60.11 | X-H torsion
[ 7974 7965 7964 7962 ] final   83.38 input  175.53 | X-H torsion
[ 8008 7997 7996 7995 ] final   92.84 input   59.86 | X-H torsion
[ 10167 10162 10161 10158 ] final -133.10 input  -65.29 | X-H torsion
[ 10718 10713 10712 10709 ] final -155.19 input   66.30 | X-H torsion
[ 10763 10752 10751 10750 ] final   42.60 input  -60.55 | X-H torsion
[ 11005 11000 10999 10996 ] final   83.70 input  -57.11 | X-H torsion

> <Gold.Protein.ActiveResidues>
 VAL166  LYS551  ARG553  GLY616  TRP617  ASP618  TYR619  PRO620  LYS621  CYS622 
 ASP623  PHE694  ASN695  SER759  ASP760  ASP761  ALA762  ILE779  LEU786  VAL792 
 PHE793  MET794  SER795  GLU796  ALA797  LYS798  CYS799  TRP800  GLU811  SER814 

> <Gold.Protein.RotatedAtoms>
  152.4382  133.7399  159.6634 H   0  0  0  0  0  0  0  0  0  0  0  0  # atno 6907 bound_to 6896
  150.8269  133.8147  159.3121 H   0  0  0  0  0  0  0  0  0  0  0  0  # atno 6908 bound_to 6896
  151.5812  135.1060  160.0069 H   0  0  0  0  0  0  0  0  0  0  0  0  # atno 6909 bound_to 6896
  145.6126  139.2371  143.2183 H   0  0  0  0  0  0  0  0  0  0  0  0  # atno 7974 bound_to 7965
  156.0400  140.3320  155.7233 H   0  0  0  0  0  0  0  0  0  0  0  0  # atno 8008 bound_to 7997
  155.5759  140.0632  157.2813 H   0  0  0  0  0  0  0  0  0  0  0  0  # atno 8009 bound_to 7997
  154.4389  140.1852  156.0915 H   0  0  0  0  0  0  0  0  0  0  0  0  # atno 8010 bound_to 7997
  139.9018  143.6599  152.2593 H   0  0  0  0  0  0  0  0  0  0  0  0  # atno 10167 bound_to 10162
  156.5095  130.8428  151.2641 H   0  0  0  0  0  0  0  0  0  0  0  0  # atno 10718 bound_to 10713
  152.9879  135.6127  154.2976 H   0  0  0  0  0  0  0  0  0  0  0  0  # atno 10763 bound_to 10752
  154.2698  135.2780  155.2744 H   0  0  0  0  0  0  0  0  0  0  0  0  # atno 10764 bound_to 10752
  154.5132  135.5835  153.6678 H   0  0  0  0  0  0  0  0  0  0  0  0  # atno 10765 bound_to 10752
  139.9023  134.8163  156.2344 H   0  0  0  0  0  0  0  0  0  0  0  0  # atno 11005 bound_to 11000
  146.1492  140.6949  142.9330 LP  0  0  0  0  0  0  0  0  0  0  0  0  # atno 17320 bound_to 7965
  144.7263  140.4536  143.6970 LP  0  0  0  0  0  0  0  0  0  0  0  0  # atno 17321 bound_to 7965
  139.7019  144.7634  151.1259 LP  0  0  0  0  0  0  0  0  0  0  0  0  # atno 17342 bound_to 10162
  140.7705  143.5447  150.9273 LP  0  0  0  0  0  0  0  0  0  0  0  0  # atno 17343 bound_to 10162
  157.7452  130.9954  150.2744 LP  0  0  0  0  0  0  0  0  0  0  0  0  # atno 17370 bound_to 10713
  156.3255  130.3792  149.7537 LP  0  0  0  0  0  0  0  0  0  0  0  0  # atno 17371 bound_to 10713
  141.0325  133.6981  156.1454 LP  0  0  0  0  0  0  0  0  0  0  0  0  # atno 17394 bound_to 11000
  140.7076  134.4496  157.5583 LP  0  0  0  0  0  0  0  0  0  0  0  0  # atno 17395 bound_to 11000

$$$$
