AV-unprocessed.smi:2414|AV-procd|sdf|9538|dock3
  -GOLD-   2272013173D 1   1.00000     0.00000
 Structure written by MMmdl.
 43 44  0  0  0  0  0  0  0  0  1 V2000
  151.5113  142.3616  158.5646 C   0  0  0  0  0  0  0  0  0  0  0  0
  151.0337  141.5605  157.4014 C   0  0  0  0  0  0  0  0  0  0  0  0
  150.7444  142.0064  156.1356 C   0  0  0  0  0  0  0  0  0  0  0  0
  150.3077  141.0017  155.2691 N   0  0  0  0  0  0  0  0  0  0  0  0
  150.2648  139.8029  155.8576 C   0  0  0  0  0  0  0  0  0  0  0  0
  149.8062  138.5514  155.1719 C   0  0  2  0  0  0  0  0  0  0  0  0
  150.8216  138.0535  154.1340 C   0  0  0  0  0  0  0  0  0  0  0  0
  148.3709  138.6561  154.6085 C   0  0  0  0  0  0  0  0  0  0  0  0
  147.9613  137.4627  153.8738 N   0  0  0  0  0  0  0  0  0  0  0  0
  146.8324  136.7751  154.0898 C   0  0  0  0  0  0  0  0  0  0  0  0
  146.0229  137.0389  154.9789 O   0  0  0  0  0  0  0  0  0  0  0  0
  146.6828  135.7844  153.2011 N   0  0  0  0  0  0  0  0  0  0  0  0
  145.5458  134.8713  153.1206 C   0  0  0  0  0  0  0  0  0  0  0  0
  145.2077  134.4665  151.6670 C   0  0  1  0  0  0  0  0  0  0  0  0
  145.0961  135.7198  150.7816 C   0  0  0  0  0  0  0  0  0  0  0  0
  146.1826  133.4447  151.0478 C   0  0  0  0  0  0  0  0  0  0  0  0
  145.2684  132.5355  150.2563 C   0  0  0  0  0  0  0  0  0  0  0  0
  144.0358  132.5052  151.1477 C   0  0  0  0  0  0  0  0  0  0  0  0
  143.9246  133.8347  151.6421 O   0  0  0  0  0  0  0  0  0  0  0  0
  150.7749  139.8420  157.5415 S   0  0  0  0  0  0  0  0  0  0  0  0
  151.6549  143.4067  158.2896 H   0  0  0  0  0  0  0  0  0  0  0  0
  152.4616  141.9770  158.9349 H   0  0  0  0  0  0  0  0  0  0  0  0
  150.7902  142.3255  159.3809 H   0  0  0  0  0  0  0  0  0  0  0  0
  150.8165  143.0189  155.7668 H   0  0  0  0  0  0  0  0  0  0  0  0
  149.7764  137.7840  155.9464 H   0  0  0  0  0  0  0  0  0  0  0  0
  151.7991  137.8906  154.5888 H   0  0  0  0  0  0  0  0  0  0  0  0
  150.9459  138.7735  153.3246 H   0  0  0  0  0  0  0  0  0  0  0  0
  150.5007  137.1095  153.6932 H   0  0  0  0  0  0  0  0  0  0  0  0
  147.6663  138.7819  155.4311 H   0  0  0  0  0  0  0  0  0  0  0  0
  148.2682  139.5405  153.9776 H   0  0  0  0  0  0  0  0  0  0  0  0
  148.5623  137.1657  153.1192 H   0  0  0  0  0  0  0  0  0  0  0  0
  147.4036  135.6625  152.5049 H   0  0  0  0  0  0  0  0  0  0  0  0
  145.8105  133.9831  153.6948 H   0  0  0  0  0  0  0  0  0  0  0  0
  144.6647  135.2925  153.6078 H   0  0  0  0  0  0  0  0  0  0  0  0
  146.0427  136.2595  150.7402 H   0  0  0  0  0  0  0  0  0  0  0  0
  144.3404  136.4065  151.1642 H   0  0  0  0  0  0  0  0  0  0  0  0
  144.8161  135.4629  149.7595 H   0  0  0  0  0  0  0  0  0  0  0  0
  146.9560  133.9041  150.4317 H   0  0  0  0  0  0  0  0  0  0  0  0
  146.6888  132.8561  151.8112 H   0  0  0  0  0  0  0  0  0  0  0  0
  145.0272  132.9842  149.2921 H   0  0  0  0  0  0  0  0  0  0  0  0
  145.6940  131.5480  150.0778 H   0  0  0  0  0  0  0  0  0  0  0  0
  143.1360  132.1976  150.6153 H   0  0  0  0  0  0  0  0  0  0  0  0
  144.1872  131.8246  151.9868 H   0  0  0  0  0  0  0  0  0  0  0  0
  1  2  1  0  0  0  0
  1 21  1  0  0  0  0
  1 22  1  0  0  0  0
  1 23  1  0  0  0  0
  2 20  1  0  0  0  0
  2  3  2  0  0  0  0
  3  4  1  0  0  0  0
  3 24  1  0  0  0  0
  4  5  2  0  0  0  0
  5  6  1  0  0  0  0
  5 20  1  0  0  0  0
  6  7  1  0  0  0  0
  6  8  1  0  0  0  0
  6 25  1  0  0  0  0
  7 26  1  0  0  0  0
  7 27  1  0  0  0  0
  7 28  1  0  0  0  0
  8  9  1  0  0  0  0
  8 29  1  0  0  0  0
  8 30  1  0  0  0  0
  9 10  1  0  0  0  0
  9 31  1  0  0  0  0
 10 11  2  0  0  0  0
 10 12  1  0  0  0  0
 12 13  1  0  0  0  0
 12 32  1  0  0  0  0
 13 14  1  0  0  0  0
 13 33  1  0  0  0  0
 13 34  1  0  0  0  0
 14 19  1  0  0  0  0
 14 15  1  0  0  0  0
 14 16  1  0  0  0  0
 15 35  1  0  0  0  0
 15 36  1  0  0  0  0
 15 37  1  0  0  0  0
 16 17  1  0  0  0  0
 16 38  1  0  0  0  0
 16 39  1  0  0  0  0
 17 18  1  0  0  0  0
 17 40  1  0  0  0  0
 17 41  1  0  0  0  0
 18 19  1  0  0  0  0
 18 42  1  0  0  0  0
 18 43  1  0  0  0  0
M  END
> <s_m_source_file>
AV-unprocessed.smi

> <i_m_source_file_index>
2414

> <i_lp_mmshare_version>
43012

> <i_f3d_flags>
0

> <s_epik_input>
W0NIM11jMVtjSF1uYyhzMSlbQ0BIXShbQ0gzXSlbQ0gyXVtOSF1DKD1PKVtOSF1bQ0gyXVtDQEBdMihbQ0gzXSlbQ0gyXVtDSDJdW0NIMl1PMg==

> <s_epik_cmdline>
J2VwaWtfcHl0aG9uJywgJy1waCcsICc3LjAnLCAnLXRuJywgJzgnLCAnLW1hJywgJzIwMCcsICctbWV0YWxfYmluZGluZycsICctaW1hZScsICc8aW5maWxlLm1hZT4nLCAnLW9tYWUnLCAnPG91dGZpbGUubWFlPic=

> <r_epik_Ionization_Penalty>
0.000646956

> <r_epik_Ionization_Penalty_Charging>
0

> <r_epik_Ionization_Penalty_Neutral>
0.000646956

> <r_epik_State_Penalty>
0.000375727

> <r_epik_Charging_Adjusted_Penalty>
0.000375727

> <i_epik_Tot_Q>
0

> <i_epik_Tot_abs_Q>
0

> <r_epik_Metal_State_Penalty>
-0

> <b_epik_Metal_Only>
0

> <s_lp_Force_Field>
OPLS_2005

> <r_lp_Energy>
5.80605

> <b_lp_Chiralities_Consistent>
1

> <s_lp_Variant>
AV-unprocessed.smi:2414-1

> <Gold.Version>
5.8.1

> <Gold.Id.Protein>
6NUR|6NUR_protein|mol2

> <Gold.PLP.Fitness>
40.8771

> <Gold.PLP.PLP>
-31.7874

> <Gold.PLP.part.hbond>
-3.0000

> <Gold.PLP.part.metal>
0.0000

> <Gold.PLP.part.buried>
-5.1178

> <Gold.PLP.part.nonpolar>
-24.2310

> <Gold.PLP.part.repulsive>
0.2661

> <Gold.PLP.ligand.clash>
0.0000

> <Gold.PLP.ligand.torsion>
0.4932

> <Gold.PLP.Chemscore.Hbond>
2.3578

> <Gold.PLP.Chemscore.CHOScore>
0.9586

> <Gold.PLP.Chemscore.Metal>
0.0000

> <Gold.Chemscore.Hbonds>
donor molecule, donor type, donor heavy atom, donor atom, acceptor molecule, acceptor atom, score
      L1  H     9    31       P1  7948  1.00
      L1  H    12    32       P1  7948  0.96
      P1  H  7989  7998       L1     4  0.41
      L1  C     3    24       P1  8028  0.85

> <Gold.PLP.Chemscore.Internal.Correction>
0.1272

> <Gold.Rescore>
     Score         DG    S(hbond)    S(metal)    S(lipo)     H(rot)  DE(clash)    DE(int)     intcor
     18.85     -19.34       2.47        0.00      83.99       1.65       0.00       0.49       ----

> <Gold.Chemscore.Fitness>
18.8461

> <Gold.Chemscore.DG>
-19.3436

> <Gold.Chemscore.ZeroCoef>
-5.4800

> <Gold.Chemscore.Hbond>
2.4750

> <Gold.Chemscore.Metal>
0.0000

> <Gold.Chemscore.Lipo>
83.9885

> <Gold.Chemscore.Internal_Hbond>
0.0000

> <Gold.Chemscore.DEClash>
0.0038

> <Gold.Chemscore.DEInternal>
0.4937

> <Gold.Chemscore.Rot>
1.6522

> <Gold.Chemscore.Internal.Correction>
   9.000000E+99

> <Gold.Chemscore.Hbonds>
donor molecule, donor type, donor heavy atom, donor atom, acceptor molecule, acceptor atom, score
      L1  H     9    31       P1  7948  0.97
      L1  H    12    32       P1  7948  0.92
      P1  H  7989  7998       L1     4  0.21

> <Gold.Chemscore.Hbond.Weighted>
-8.2665

> <Gold.Chemscore.Metal.Weighted>
-0.0000

> <Gold.Chemscore.Lipo.Weighted>
-9.8267

> <Gold.Chemscore.Internal_Hbond.Weighted>
0.0000

> <Gold.Chemscore.DEClash.Weighted>
0.0038

> <Gold.Chemscore.DEInternal.Weighted>
0.4937

> <Gold.Chemscore.Rot.Weighted>
4.2295

> <Gold.Chemscore.Internal.Correction.Weighted>
   9.000000E+99

> <Gold.Protein.RotatedTorsions>
[ 6907 6896 6895 6894 ] final   53.89 input  -60.11 | X-H torsion
[ 7974 7965 7964 7962 ] final   23.58 input  175.53 | X-H torsion
[ 8008 7997 7996 7995 ] final -178.44 input   59.86 | X-H torsion
[ 10167 10162 10161 10158 ] final   36.68 input  -65.29 | X-H torsion
[ 10718 10713 10712 10709 ] final -146.95 input   66.30 | X-H torsion
[ 10763 10752 10751 10750 ] final   44.29 input  -60.55 | X-H torsion
[ 11005 11000 10999 10996 ] final  154.08 input  -57.11 | X-H torsion

> <Gold.Protein.ActiveResidues>
 VAL166  LYS551  ARG553  GLY616  TRP617  ASP618  TYR619  PRO620  LYS621  CYS622 
 ASP623  PHE694  ASN695  SER759  ASP760  ASP761  ALA762  ILE779  LEU786  VAL792 
 PHE793  MET794  SER795  GLU796  ALA797  LYS798  CYS799  TRP800  GLU811  SER814 

> <Gold.Protein.RotatedAtoms>
  152.3383  134.7168  160.0270 H   0  0  0  0  0  0  0  0  0  0  0  0  # atno 6907 bound_to 6896
  151.7562  133.3325  159.3413 H   0  0  0  0  0  0  0  0  0  0  0  0  # atno 6908 bound_to 6896
  150.7464  134.6080  159.6115 H   0  0  0  0  0  0  0  0  0  0  0  0  # atno 6909 bound_to 6896
  146.1978  139.7725  142.8784 H   0  0  0  0  0  0  0  0  0  0  0  0  # atno 7974 bound_to 7965
  156.0188  140.1256  157.0378 H   0  0  0  0  0  0  0  0  0  0  0  0  # atno 8008 bound_to 7997
  154.4303  140.1073  156.6004 H   0  0  0  0  0  0  0  0  0  0  0  0  # atno 8009 bound_to 7997
  155.5974  140.3470  155.4586 H   0  0  0  0  0  0  0  0  0  0  0  0  # atno 8010 bound_to 7997
  140.4105  144.1599  150.6139 H   0  0  0  0  0  0  0  0  0  0  0  0  # atno 10167 bound_to 10162
  156.4014  130.7935  151.2146 H   0  0  0  0  0  0  0  0  0  0  0  0  # atno 10718 bound_to 10713
  152.9844  135.6075  154.3250 H   0  0  0  0  0  0  0  0  0  0  0  0  # atno 10763 bound_to 10752
  154.2957  135.2774  155.2636 H   0  0  0  0  0  0  0  0  0  0  0  0  # atno 10764 bound_to 10752
  154.4911  135.5892  153.6516 H   0  0  0  0  0  0  0  0  0  0  0  0  # atno 10765 bound_to 10752
  140.1456  134.8709  157.2388 H   0  0  0  0  0  0  0  0  0  0  0  0  # atno 11005 bound_to 11000
  145.3586  141.0321  143.3297 LP  0  0  0  0  0  0  0  0  0  0  0  0  # atno 17320 bound_to 7965
  144.8617  139.5168  143.6809 LP  0  0  0  0  0  0  0  0  0  0  0  0  # atno 17321 bound_to 7965
  140.4643  143.2437  151.9177 LP  0  0  0  0  0  0  0  0  0  0  0  0  # atno 17342 bound_to 10162
  139.4782  144.5435  151.8492 LP  0  0  0  0  0  0  0  0  0  0  0  0  # atno 17343 bound_to 10162
  157.7504  131.0285  150.4054 LP  0  0  0  0  0  0  0  0  0  0  0  0  # atno 17370 bound_to 10713
  156.4335  130.3977  149.6745 LP  0  0  0  0  0  0  0  0  0  0  0  0  # atno 17371 bound_to 10713
  140.2668  134.3507  155.7387 LP  0  0  0  0  0  0  0  0  0  0  0  0  # atno 17394 bound_to 11000
  141.2192  133.7400  156.9162 LP  0  0  0  0  0  0  0  0  0  0  0  0  # atno 17395 bound_to 11000

$$$$
