AV-unprocessed.smi:632|AV-procd|sdf|3126|dock3
  -GOLD-   22720 0 43D 1   1.00000     0.00000
 Structure written by MMmdl.
 42 43  0  0  0  0  0  0  0  0  1 V2000
  154.6031  133.1703  160.4225 C   0  0  0  0  0  0  0  0  0  0  0  0
  155.2189  134.0332  161.5412 C   0  0  0  0  0  0  0  0  0  0  0  0
  154.5242  133.6440  162.8646 C   0  0  0  0  0  0  0  0  0  0  0  0
  156.7206  133.7254  161.6992 C   0  0  0  0  0  0  0  0  0  0  0  0
  155.0261  135.4985  161.2246 C   0  0  0  0  0  0  0  0  0  0  0  0
  155.5050  136.0486  160.0984 N   0  0  0  0  0  0  0  0  0  0  0  0
  155.2201  137.4020  159.9964 N   0  0  0  0  0  0  0  0  0  0  0  0
  154.5301  137.8490  161.0529 C   0  0  0  0  0  0  0  0  0  0  0  0
  154.1049  139.1956  161.2055 N   0  0  0  0  0  0  0  0  0  0  0  0
  153.8139  140.0903  160.2444 C   0  0  0  0  0  0  0  0  0  0  0  0
  153.8874  139.8826  159.0331 O   0  0  0  0  0  0  0  0  0  0  0  0
  153.4299  141.2625  160.7711 N   0  0  0  0  0  0  0  0  0  0  0  0
  153.0471  142.4438  160.0030 C   0  0  2  0  0  0  0  0  0  0  0  0
  152.5224  143.5549  160.9368 C   0  0  0  0  0  0  0  0  0  0  0  0
  152.0483  144.7809  160.1394 C   0  0  0  0  0  0  0  0  0  0  0  0
  150.9879  144.3889  159.0962 C   0  0  1  0  0  0  0  0  0  0  0  0
  150.6322  145.5245  158.3364 O   0  0  0  0  0  0  0  0  0  0  0  0
  151.5149  143.2882  158.1595 C   0  0  0  0  0  0  0  0  0  0  0  0
  151.9830  142.0607  158.9576 C   0  0  0  0  0  0  0  0  0  0  0  0
  154.1679  136.6387  162.2688 S   0  0  0  0  0  0  0  0  0  0  0  0
  154.7161  132.1062  160.6323 H   0  0  0  0  0  0  0  0  0  0  0  0
  155.0802  133.3619  159.4606 H   0  0  0  0  0  0  0  0  0  0  0  0
  153.5375  133.3720  160.3061 H   0  0  0  0  0  0  0  0  0  0  0  0
  153.4488  133.8209  162.8230 H   0  0  0  0  0  0  0  0  0  0  0  0
  154.9228  134.2067  163.7096 H   0  0  0  0  0  0  0  0  0  0  0  0
  154.6657  132.5862  163.0895 H   0  0  0  0  0  0  0  0  0  0  0  0
  156.8882  132.6761  161.9446 H   0  0  0  0  0  0  0  0  0  0  0  0
  157.1671  134.3251  162.4932 H   0  0  0  0  0  0  0  0  0  0  0  0
  157.2710  133.9346  160.7811 H   0  0  0  0  0  0  0  0  0  0  0  0
  154.0090  139.5137  162.1584 H   0  0  0  0  0  0  0  0  0  0  0  0
  153.3966  141.3447  161.7766 H   0  0  0  0  0  0  0  0  0  0  0  0
  153.9226  142.8182  159.4684 H   0  0  0  0  0  0  0  0  0  0  0  0
  151.6962  143.1730  161.5383 H   0  0  0  0  0  0  0  0  0  0  0  0
  153.3005  143.8571  161.6388 H   0  0  0  0  0  0  0  0  0  0  0  0
  151.6452  145.5308  160.8209 H   0  0  0  0  0  0  0  0  0  0  0  0
  152.9042  145.2411  159.6434 H   0  0  0  0  0  0  0  0  0  0  0  0
  150.0928  144.0326  159.6076 H   0  0  0  0  0  0  0  0  0  0  0  0
  149.7024  145.4959  158.1699 H   0  0  0  0  0  0  0  0  0  0  0  0
  150.7392  142.9933  157.4520 H   0  0  0  0  0  0  0  0  0  0  0  0
  152.3466  143.6718  157.5662 H   0  0  0  0  0  0  0  0  0  0  0  0
  152.3824  141.3104  158.2741 H   0  0  0  0  0  0  0  0  0  0  0  0
  151.1247  141.6033  159.4522 H   0  0  0  0  0  0  0  0  0  0  0  0
  1  2  1  0  0  0  0
  1 21  1  0  0  0  0
  1 22  1  0  0  0  0
  1 23  1  0  0  0  0
  2  3  1  0  0  0  0
  2  4  1  0  0  0  0
  2  5  1  0  0  0  0
  3 24  1  0  0  0  0
  3 25  1  0  0  0  0
  3 26  1  0  0  0  0
  4 27  1  0  0  0  0
  4 28  1  0  0  0  0
  4 29  1  0  0  0  0
  5 20  1  0  0  0  0
  5  6  2  0  0  0  0
  6  7  1  0  0  0  0
  7  8  2  0  0  0  0
  8  9  1  0  0  0  0
  8 20  1  0  0  0  0
  9 10  1  0  0  0  0
  9 30  1  0  0  0  0
 10 11  2  0  0  0  0
 10 12  1  0  0  0  0
 12 13  1  0  0  0  0
 12 31  1  0  0  0  0
 13 19  1  0  0  0  0
 13 14  1  0  0  0  0
 13 32  1  0  0  0  0
 14 15  1  0  0  0  0
 14 33  1  0  0  0  0
 14 34  1  0  0  0  0
 15 16  1  0  0  0  0
 15 35  1  0  0  0  0
 15 36  1  0  0  0  0
 16 17  1  0  0  0  0
 16 18  1  0  0  0  0
 16 37  1  0  0  0  0
 17 38  1  0  0  0  0
 18 19  1  0  0  0  0
 18 39  1  0  0  0  0
 18 40  1  0  0  0  0
 19 41  1  0  0  0  0
 19 42  1  0  0  0  0
M  END
> <s_m_source_file>
AV-unprocessed.smi

> <i_m_source_file_index>
632

> <i_lp_mmshare_version>
43012

> <i_f3d_flags>
0

> <s_epik_input>
W0NIM11DKFtDSDNdKShbQ0gzXSljMW5uYyhzMSlbTkhdQyg9TylbTkhdW0NAQEhdMltDSDJdW0NIMl1bQ0BASF0oW09IXSlbQ0gyXVtDSDJdMg==

> <s_epik_cmdline>
J2VwaWtfcHl0aG9uJywgJy1waCcsICc3LjAnLCAnLXRuJywgJzgnLCAnLW1hJywgJzIwMCcsICctbWV0YWxfYmluZGluZycsICctaW1hZScsICc8aW5maWxlLm1hZT4nLCAnLW9tYWUnLCAnPG91dGZpbGUubWFlPic=

> <r_lp_tautomer_probability>
1

> <r_epik_Ionization_Penalty>
0.000349475

> <r_epik_Ionization_Penalty_Charging>
0

> <r_epik_Ionization_Penalty_Neutral>
0.000349475

> <r_epik_State_Penalty>
-0

> <r_epik_Charging_Adjusted_Penalty>
0

> <i_epik_Tot_Q>
0

> <i_epik_Tot_abs_Q>
0

> <r_epik_Metal_State_Penalty>
0.179207

> <b_epik_Metal_Only>
0

> <s_lp_Force_Field>
OPLS_2005

> <r_lp_Energy>
2.50478

> <b_lp_Chiralities_Consistent>
1

> <s_lp_Variant>
AV-unprocessed.smi:632-1

> <Gold.Version>
5.8.1

> <Gold.Id.Protein>
6NUR|6NUR_protein|mol2

> <Gold.PLP.Fitness>
38.4345

> <Gold.PLP.PLP>
-32.9162

> <Gold.PLP.part.hbond>
-3.3525

> <Gold.PLP.part.metal>
0.0000

> <Gold.PLP.part.buried>
-2.6628

> <Gold.PLP.part.nonpolar>
-27.0947

> <Gold.PLP.part.repulsive>
0.0665

> <Gold.PLP.ligand.clash>
0.0000

> <Gold.PLP.ligand.torsion>
0.2453

> <Gold.PLP.Chemscore.Hbond>
2.0000

> <Gold.PLP.Chemscore.CHOScore>
0.0000

> <Gold.PLP.Chemscore.Metal>
0.0000

> <Gold.Chemscore.Hbonds>
donor molecule, donor type, donor heavy atom, donor atom, acceptor molecule, acceptor atom, score
      L1  H    17    38       P1  8029  0.96
      P1  H  7997  8009       L1    11  0.98

> <Gold.PLP.Chemscore.Internal.Correction>
0.0089

> <Gold.Rescore>
     Score         DG    S(hbond)    S(metal)    S(lipo)     H(rot)  DE(clash)    DE(int)     intcor
     14.01     -16.42       1.61        0.00      84.64       1.70       0.02       2.40       ----

> <Gold.Chemscore.Fitness>
14.0093

> <Gold.Chemscore.DG>
-16.4230

> <Gold.Chemscore.ZeroCoef>
-5.4800

> <Gold.Chemscore.Hbond>
1.6119

> <Gold.Chemscore.Metal>
0.0000

> <Gold.Chemscore.Lipo>
84.6405

> <Gold.Chemscore.Internal_Hbond>
0.0000

> <Gold.Chemscore.DEClash>
0.0176

> <Gold.Chemscore.DEInternal>
2.3961

> <Gold.Chemscore.Rot>
1.6968

> <Gold.Chemscore.Internal.Correction>
   9.000000E+99

> <Gold.Chemscore.Hbonds>
donor molecule, donor type, donor heavy atom, donor atom, acceptor molecule, acceptor atom, score
      L1  H    17    38       P1  8029  0.40
      P1  H  7997  8009       L1    11  0.89

> <Gold.Chemscore.Hbond.Weighted>
-5.3839

> <Gold.Chemscore.Metal.Weighted>
-0.0000

> <Gold.Chemscore.Lipo.Weighted>
-9.9029

> <Gold.Chemscore.Internal_Hbond.Weighted>
0.0000

> <Gold.Chemscore.DEClash.Weighted>
0.0176

> <Gold.Chemscore.DEInternal.Weighted>
2.3961

> <Gold.Chemscore.Rot.Weighted>
4.3438

> <Gold.Chemscore.Internal.Correction.Weighted>
   9.000000E+99

> <Gold.Protein.RotatedTorsions>
[ 6907 6896 6895 6894 ] final -175.18 input  -60.11 | X-H torsion
[ 7974 7965 7964 7962 ] final   21.81 input  175.53 | X-H torsion
[ 8008 7997 7996 7995 ] final  132.26 input   59.86 | X-H torsion
[ 10167 10162 10161 10158 ] final  125.77 input  -65.29 | X-H torsion
[ 10718 10713 10712 10709 ] final   46.47 input   66.30 | X-H torsion
[ 10763 10752 10751 10750 ] final -171.98 input  -60.55 | X-H torsion
[ 11005 11000 10999 10996 ] final  -85.12 input  -57.11 | X-H torsion

> <Gold.Protein.ActiveResidues>
 VAL166  LYS551  ARG553  GLY616  TRP617  ASP618  TYR619  PRO620  LYS621  CYS622 
 ASP623  PHE694  ASN695  SER759  ASP760  ASP761  ALA762  ILE779  LEU786  VAL792 
 PHE793  MET794  SER795  GLU796  ALA797  LYS798  CYS799  TRP800  GLU811  SER814 

> <Gold.Protein.RotatedAtoms>
  151.5844  133.3374  159.3014 H   0  0  0  0  0  0  0  0  0  0  0  0  # atno 6907 bound_to 6896
  150.8295  134.7545  159.6853 H   0  0  0  0  0  0  0  0  0  0  0  0  # atno 6908 bound_to 6896
  152.4380  134.5653  159.9957 H   0  0  0  0  0  0  0  0  0  0  0  0  # atno 6909 bound_to 6896
  146.2055  139.7974  142.8729 H   0  0  0  0  0  0  0  0  0  0  0  0  # atno 7974 bound_to 7965
  156.2980  140.2551  156.3061 H   0  0  0  0  0  0  0  0  0  0  0  0  # atno 8008 bound_to 7997
  154.9371  140.0397  157.2097 H   0  0  0  0  0  0  0  0  0  0  0  0  # atno 8009 bound_to 7997
  154.8162  140.2852  155.5823 H   0  0  0  0  0  0  0  0  0  0  0  0  # atno 8010 bound_to 7997
  139.5667  144.6915  151.3890 H   0  0  0  0  0  0  0  0  0  0  0  0  # atno 10167 bound_to 10162
  157.4484  130.8123  149.7764 H   0  0  0  0  0  0  0  0  0  0  0  0  # atno 10718 bound_to 10713
  154.6244  135.2879  155.0288 H   0  0  0  0  0  0  0  0  0  0  0  0  # atno 10763 bound_to 10752
  154.1472  135.6509  153.4959 H   0  0  0  0  0  0  0  0  0  0  0  0  # atno 10764 bound_to 10752
  153.0251  135.5347  154.7047 H   0  0  0  0  0  0  0  0  0  0  0  0  # atno 10765 bound_to 10752
  141.1644  133.7382  156.8969 H   0  0  0  0  0  0  0  0  0  0  0  0  # atno 11005 bound_to 11000
  145.3333  141.0271  143.3434 LP  0  0  0  0  0  0  0  0  0  0  0  0  # atno 17320 bound_to 7965
  144.8783  139.4939  143.6735 LP  0  0  0  0  0  0  0  0  0  0  0  0  # atno 17321 bound_to 7965
  140.6951  143.7768  150.7314 LP  0  0  0  0  0  0  0  0  0  0  0  0  # atno 17342 bound_to 10162
  140.1262  143.4567  152.2282 LP  0  0  0  0  0  0  0  0  0  0  0  0  # atno 17343 bound_to 10162
  155.9977  130.3898  150.2730 LP  0  0  0  0  0  0  0  0  0  0  0  0  # atno 17370 bound_to 10713
  157.0900  131.0167  151.3125 LP  0  0  0  0  0  0  0  0  0  0  0  0  # atno 17371 bound_to 10713
  140.1610  134.9166  157.2714 LP  0  0  0  0  0  0  0  0  0  0  0  0  # atno 17394 bound_to 11000
  140.2612  134.3569  155.7406 LP  0  0  0  0  0  0  0  0  0  0  0  0  # atno 17395 bound_to 11000

$$$$
