AV-unprocessed.smi:2345|AV-procd|sdf|9362|dock1
  -GOLD-   2272012583D 1   1.00000     0.00000
 Structure written by MMmdl.
 37 38  0  0  0  0  0  0  0  0  1 V2000
  151.9132  139.2645  155.3608 C   0  0  0  0  0  0  0  0  0  0  0  0
  150.4390  139.6719  155.4163 C   0  0  0  0  0  0  0  0  0  0  0  0
  149.3801  138.4371  154.6127 S   0  0  0  0  0  0  0  0  0  0  0  0
  147.7286  139.1553  154.9233 C   0  0  1  0  0  0  0  0  0  0  0  0
  147.8269  140.6818  154.9638 C   0  0  0  0  0  0  0  0  0  0  0  0
  147.7342  141.1121  153.5011 C   0  0  0  0  0  0  0  0  0  0  0  0
  146.7833  140.1051  152.8458 C   0  0  0  0  0  0  0  0  0  0  0  0
  146.7048  138.8902  153.7915 C   0  0  1  0  0  0  0  0  0  0  0  0
  146.9231  137.6393  153.0666 N   0  0  0  0  0  0  0  0  0  0  0  0
  145.9754  136.7366  152.7783 C   0  0  0  0  0  0  0  0  0  0  0  0
  144.7922  136.8725  153.0888 O   0  0  0  0  0  0  0  0  0  0  0  0
  146.4983  135.6725  152.1460 N   0  0  0  0  0  0  0  0  0  0  0  0
  145.8423  134.4942  151.6966 C   0  0  0  0  0  0  0  0  0  0  0  0
  144.5271  134.4685  151.1723 C   0  0  0  0  0  0  0  0  0  0  0  0
  143.9956  133.2353  150.7437 C   0  0  0  0  0  0  0  0  0  0  0  0
  144.6776  132.0717  150.7979 N   0  0  0  0  0  0  0  0  0  0  0  0
  145.9361  132.1025  151.2850 C   0  0  0  0  0  0  0  0  0  0  0  0
  146.5615  133.2808  151.7398 C   0  0  0  0  0  0  0  0  0  0  0  0
  147.8303  133.2422  152.2141 F   0  0  0  0  0  0  0  0  0  0  0  0
  152.5412  140.0115  155.8466 H   0  0  0  0  0  0  0  0  0  0  0  0
  152.2547  139.1594  154.3307 H   0  0  0  0  0  0  0  0  0  0  0  0
  152.0751  138.3128  155.8680 H   0  0  0  0  0  0  0  0  0  0  0  0
  150.1320  139.7932  156.4542 H   0  0  0  0  0  0  0  0  0  0  0  0
  150.2929  140.6345  154.9256 H   0  0  0  0  0  0  0  0  0  0  0  0
  147.3657  138.7765  155.8794 H   0  0  0  0  0  0  0  0  0  0  0  0
  146.9767  141.0861  155.5148 H   0  0  0  0  0  0  0  0  0  0  0  0
  148.7332  141.0416  155.4521 H   0  0  0  0  0  0  0  0  0  0  0  0
  147.3930  142.1417  153.3906 H   0  0  0  0  0  0  0  0  0  0  0  0
  148.7189  141.0410  153.0371 H   0  0  0  0  0  0  0  0  0  0  0  0
  145.7920  140.5425  152.7215 H   0  0  0  0  0  0  0  0  0  0  0  0
  147.1413  139.8388  151.8503 H   0  0  0  0  0  0  0  0  0  0  0  0
  145.7053  138.8876  154.2310 H   0  0  0  0  0  0  0  0  0  0  0  0
  147.8722  137.4396  152.7862 H   0  0  0  0  0  0  0  0  0  0  0  0
  147.5019  135.6724  152.0364 H   0  0  0  0  0  0  0  0  0  0  0  0
  143.9260  135.3598  151.0793 H   0  0  0  0  0  0  0  0  0  0  0  0
  142.9952  133.1839  150.3398 H   0  0  0  0  0  0  0  0  0  0  0  0
  146.4619  131.1595  151.3120 H   0  0  0  0  0  0  0  0  0  0  0  0
  1  2  1  0  0  0  0
  1 20  1  0  0  0  0
  1 21  1  0  0  0  0
  1 22  1  0  0  0  0
  2  3  1  0  0  0  0
  2 23  1  0  0  0  0
  2 24  1  0  0  0  0
  3  4  1  0  0  0  0
  4  8  1  0  0  0  0
  4  5  1  0  0  0  0
  4 25  1  0  0  0  0
  5  6  1  0  0  0  0
  5 26  1  0  0  0  0
  5 27  1  0  0  0  0
  6  7  1  0  0  0  0
  6 28  1  0  0  0  0
  6 29  1  0  0  0  0
  7  8  1  0  0  0  0
  7 30  1  0  0  0  0
  7 31  1  0  0  0  0
  8  9  1  0  0  0  0
  8 32  1  0  0  0  0
  9 10  1  0  0  0  0
  9 33  1  0  0  0  0
 10 11  2  0  0  0  0
 10 12  1  0  0  0  0
 12 13  1  0  0  0  0
 12 34  1  0  0  0  0
 13 18  1  0  0  0  0
 13 14  2  0  0  0  0
 14 15  1  0  0  0  0
 14 35  1  0  0  0  0
 15 16  2  0  0  0  0
 15 36  1  0  0  0  0
 16 17  1  0  0  0  0
 17 18  2  0  0  0  0
 17 37  1  0  0  0  0
 18 19  1  0  0  0  0
M  END
> <s_m_source_file>
AV-unprocessed.smi

> <i_m_source_file_index>
2345

> <i_lp_mmshare_version>
43012

> <i_f3d_flags>
0

> <s_epik_input>
W0NIM11bQ0gyXVNbQ0BASF0xW0NIMl1bQ0gyXVtDSDJdW0NASF0xW05IXUMoPU8pW05IXWMyW2NIXVtjSF1uW2NIXWMyRg==

> <s_epik_cmdline>
J2VwaWtfcHl0aG9uJywgJy1waCcsICc3LjAnLCAnLXRuJywgJzgnLCAnLW1hJywgJzIwMCcsICctbWV0YWxfYmluZGluZycsICctaW1hZScsICc8aW5maWxlLm1hZT4nLCAnLW9tYWUnLCAnPG91dGZpbGUubWFlPic=

> <r_epik_Ionization_Penalty>
0.00333745

> <r_epik_Ionization_Penalty_Charging>
0

> <r_epik_Ionization_Penalty_Neutral>
0.00333745

> <r_epik_State_Penalty>
0.00233401

> <r_epik_Charging_Adjusted_Penalty>
0.00233401

> <i_epik_Tot_Q>
0

> <i_epik_Tot_abs_Q>
0

> <r_epik_Metal_State_Penalty>
-0

> <b_epik_Metal_Only>
0

> <s_lp_Force_Field>
OPLS_2005

> <r_lp_Energy>
24.8038

> <b_lp_Chiralities_Consistent>
1

> <s_lp_Variant>
AV-unprocessed.smi:2345-2

> <Gold.Version>
5.8.1

> <Gold.Id.Protein>
6NUR|6NUR_protein|mol2

> <Gold.PLP.Fitness>
38.8787

> <Gold.PLP.PLP>
-30.2679

> <Gold.PLP.part.hbond>
-1.9223

> <Gold.PLP.part.metal>
0.0000

> <Gold.PLP.part.buried>
-2.0449

> <Gold.PLP.part.nonpolar>
-26.4141

> <Gold.PLP.part.repulsive>
0.3533

> <Gold.PLP.ligand.clash>
0.0000

> <Gold.PLP.ligand.torsion>
0.7830

> <Gold.PLP.Chemscore.Hbond>
1.8960

> <Gold.PLP.Chemscore.CHOScore>
1.4724

> <Gold.PLP.Chemscore.Metal>
0.0000

> <Gold.Chemscore.Hbonds>
donor molecule, donor type, donor heavy atom, donor atom, acceptor molecule, acceptor atom, score
      L1  H     9    33       P1  7948  0.90
      L1  H    12    34       P1  7948  1.00
      L1  C    15    36       P1 10186  1.00
      L1  C    17    37       P1 10747  0.42

> <Gold.PLP.Chemscore.Internal.Correction>
0.0715

> <Gold.Rescore>
     Score         DG    S(hbond)    S(metal)    S(lipo)     H(rot)  DE(clash)    DE(int)     intcor
     16.70     -17.62       1.93        0.00      78.05       1.35       0.04       0.88       ----

> <Gold.Chemscore.Fitness>
16.7018

> <Gold.Chemscore.DG>
-17.6245

> <Gold.Chemscore.ZeroCoef>
-5.4800

> <Gold.Chemscore.Hbond>
1.9349

> <Gold.Chemscore.Metal>
0.0000

> <Gold.Chemscore.Lipo>
78.0467

> <Gold.Chemscore.Internal_Hbond>
0.0000

> <Gold.Chemscore.DEClash>
0.0417

> <Gold.Chemscore.DEInternal>
0.8810

> <Gold.Chemscore.Rot>
1.3475

> <Gold.Chemscore.Internal.Correction>
   9.000000E+99

> <Gold.Chemscore.Hbonds>
donor molecule, donor type, donor heavy atom, donor atom, acceptor molecule, acceptor atom, score
      L1  H     9    33       P1  7948  0.88
      L1  H    12    34       P1  7948  0.93

> <Gold.Chemscore.Hbond.Weighted>
-6.4627

> <Gold.Chemscore.Metal.Weighted>
-0.0000

> <Gold.Chemscore.Lipo.Weighted>
-9.1315

> <Gold.Chemscore.Internal_Hbond.Weighted>
0.0000

> <Gold.Chemscore.DEClash.Weighted>
0.0417

> <Gold.Chemscore.DEInternal.Weighted>
0.8810

> <Gold.Chemscore.Rot.Weighted>
3.4496

> <Gold.Chemscore.Internal.Correction.Weighted>
   9.000000E+99

> <Gold.Protein.RotatedTorsions>
[ 6907 6896 6895 6894 ] final -176.46 input  -60.11 | X-H torsion
[ 7974 7965 7964 7962 ] final  -41.30 input  175.53 | X-H torsion
[ 8008 7997 7996 7995 ] final  164.62 input   59.86 | X-H torsion
[ 10167 10162 10161 10158 ] final  -27.63 input  -65.29 | X-H torsion
[ 10718 10713 10712 10709 ] final  -65.76 input   66.30 | X-H torsion
[ 10763 10752 10751 10750 ] final  -79.14 input  -60.55 | X-H torsion
[ 11005 11000 10999 10996 ] final   17.08 input  -57.11 | X-H torsion

> <Gold.Protein.ActiveResidues>
 VAL166  LYS551  ARG553  GLY616  TRP617  ASP618  TYR619  PRO620  LYS621  CYS622 
 ASP623  PHE694  ASN695  SER759  ASP760  ASP761  ALA762  ILE779  LEU786  VAL792 
 PHE793  MET794  SER795  GLU796  ALA797  LYS798  CYS799  TRP800  GLU811  SER814 

> <Gold.Protein.RotatedAtoms>
  151.6052  133.3352  159.3055 H   0  0  0  0  0  0  0  0  0  0  0  0  # atno 6907 bound_to 6896
  150.8186  134.7385  159.6764 H   0  0  0  0  0  0  0  0  0  0  0  0  # atno 6908 bound_to 6896
  152.4281  134.5836  160.0006 H   0  0  0  0  0  0  0  0  0  0  0  0  # atno 6909 bound_to 6896
  146.0223  140.6834  142.9172 H   0  0  0  0  0  0  0  0  0  0  0  0  # atno 7974 bound_to 7965
  156.1865  140.1692  156.8175 H   0  0  0  0  0  0  0  0  0  0  0  0  # atno 8008 bound_to 7997
  154.5420  140.0734  156.8559 H   0  0  0  0  0  0  0  0  0  0  0  0  # atno 8009 bound_to 7997
  155.3195  140.3372  155.4244 H   0  0  0  0  0  0  0  0  0  0  0  0  # atno 8010 bound_to 7997
  140.7276  143.4077  151.1157 H   0  0  0  0  0  0  0  0  0  0  0  0  # atno 10167 bound_to 10162
  156.0651  130.4252  150.1611 H   0  0  0  0  0  0  0  0  0  0  0  0  # atno 10718 bound_to 10713
  154.5349  135.5705  153.6790 H   0  0  0  0  0  0  0  0  0  0  0  0  # atno 10763 bound_to 10752
  152.9948  135.6213  154.2579 H   0  0  0  0  0  0  0  0  0  0  0  0  # atno 10764 bound_to 10752
  154.2508  135.2859  155.2797 H   0  0  0  0  0  0  0  0  0  0  0  0  # atno 10765 bound_to 10752
  140.4400  134.1332  155.7689 H   0  0  0  0  0  0  0  0  0  0  0  0  # atno 11005 bound_to 11000
  144.6995  140.3588  143.7168 LP  0  0  0  0  0  0  0  0  0  0  0  0  # atno 17320 bound_to 7965
  145.7173  139.1700  143.2505 LP  0  0  0  0  0  0  0  0  0  0  0  0  # atno 17321 bound_to 7965
  139.7706  143.8499  152.3119 LP  0  0  0  0  0  0  0  0  0  0  0  0  # atno 17342 bound_to 10162
  139.8417  144.7207  150.9323 LP  0  0  0  0  0  0  0  0  0  0  0  0  # atno 17343 bound_to 10162
  156.9672  130.9823  151.3466 LP  0  0  0  0  0  0  0  0  0  0  0  0  # atno 17370 bound_to 10713
  157.5686  130.8295  149.8361 LP  0  0  0  0  0  0  0  0  0  0  0  0  # atno 17371 bound_to 10713
  141.1710  133.8609  157.1571 LP  0  0  0  0  0  0  0  0  0  0  0  0  # atno 17394 bound_to 11000
  140.0076  135.0001  157.0327 LP  0  0  0  0  0  0  0  0  0  0  0  0  # atno 17395 bound_to 11000

$$$$
