AV-unprocessed.smi:109|AV-procd|sdf|1047|dock1
  -GOLD-   2262018 93D 1   1.00000     0.00000
 Structure written by MMmdl.
 58 61  0  0  0  0  0  0  0  0  1 V2000
  150.4704  137.6107  159.5577 O   0  0  0  0  0  0  0  0  0  0  0  0
  150.0679  137.7158  158.2090 C   0  0  0  0  0  0  0  0  0  0  0  0
  148.5769  137.3601  158.0794 C   0  0  0  0  0  0  0  0  0  0  0  0
  148.2417  135.8951  158.4519 C   0  0  2  0  0  0  0  0  0  0  0  0
  146.9430  135.5327  157.8805 N   0  0  0  0  0  0  0  0  0  0  0  0
  146.7232  135.5267  156.5466 C   0  0  0  0  0  0  0  0  0  0  0  0
  147.7414  135.6521  155.6560 N   0  0  0  0  0  0  0  0  0  0  0  0
  147.4889  135.6422  154.3436 C   0  0  0  0  0  0  0  0  0  0  0  0
  146.3145  135.5190  153.7203 N   0  0  0  0  0  0  0  0  0  0  0  0
  145.2890  135.3964  154.6121 C   0  0  0  0  0  0  0  0  0  0  0  0
  145.4097  135.3915  156.0291 C   0  0  0  0  0  0  0  0  0  0  0  0
  144.1560  135.2415  156.6071 N   0  0  0  0  0  0  0  0  0  0  0  0
  143.3460  135.1566  155.5861 C   0  0  0  0  0  0  0  0  0  0  0  0
  143.9458  135.2400  154.3472 N   0  0  0  0  0  0  0  0  0  0  0  0
  143.3216  135.1707  152.9861 C   0  0  2  0  0  0  0  0  0  0  0  0
  143.8726  134.0665  152.3337 O   0  0  0  0  0  0  0  0  0  0  0  0
  144.6232  134.4720  151.1919 C   0  0  2  0  0  0  0  0  0  0  0  0
  145.8791  133.5950  151.0573 C   0  0  0  0  0  0  0  0  0  0  0  0
  146.6002  133.9346  149.8926 O   0  0  0  0  0  0  0  0  0  0  0  0
  144.8944  135.9679  151.3918 C   0  0  1  0  0  0  0  0  0  0  0  0
  144.9810  136.6353  150.1487 O   0  0  0  0  0  0  0  0  0  0  0  0
  143.6548  136.4188  152.1461 C   0  0  2  0  0  0  0  0  0  0  0  0
  143.9222  137.5821  152.9091 O   0  0  0  0  0  0  0  0  0  0  0  0
  148.2197  135.6313  159.9852 C   0  0  0  0  0  0  0  0  0  0  0  0
  148.1234  134.1272  160.3443 C   0  0  0  0  0  0  0  0  0  0  0  0
  148.0638  133.8881  161.8620 C   0  0  0  0  0  0  0  0  0  0  0  0
  146.9022  134.6541  162.5064 C   0  0  0  0  0  0  0  0  0  0  0  0
  146.9997  136.1498  162.1849 C   0  0  0  0  0  0  0  0  0  0  0  0
  147.0508  136.3887  160.6681 C   0  0  0  0  0  0  0  0  0  0  0  0
  142.2559  135.0334  153.1721 H   0  0  0  0  0  0  0  0  0  0  0  0
  143.9679  134.3235  150.3316 H   0  0  0  0  0  0  0  0  0  0  0  0
  145.7969  136.1252  151.9847 H   0  0  0  0  0  0  0  0  0  0  0  0
  142.8228  136.5933  151.4620 H   0  0  0  0  0  0  0  0  0  0  0  0
  151.1797  138.2169  159.7072 H   0  0  0  0  0  0  0  0  0  0  0  0
  150.2643  138.7322  157.8678 H   0  0  0  0  0  0  0  0  0  0  0  0
  150.6771  137.0433  157.6046 H   0  0  0  0  0  0  0  0  0  0  0  0
  148.0349  138.0419  158.7325 H   0  0  0  0  0  0  0  0  0  0  0  0
  148.2349  137.5685  157.0645 H   0  0  0  0  0  0  0  0  0  0  0  0
  149.0301  135.2634  158.0428 H   0  0  0  0  0  0  0  0  0  0  0  0
  146.2811  135.1417  158.5354 H   0  0  0  0  0  0  0  0  0  0  0  0
  148.3514  135.7461  153.7020 H   0  0  0  0  0  0  0  0  0  0  0  0
  142.2824  135.0272  155.7145 H   0  0  0  0  0  0  0  0  0  0  0  0
  146.5264  133.6908  151.9287 H   0  0  0  0  0  0  0  0  0  0  0  0
  145.5941  132.5454  150.9823 H   0  0  0  0  0  0  0  0  0  0  0  0
  146.0869  134.5472  149.3884 H   0  0  0  0  0  0  0  0  0  0  0  0
  144.2059  137.1653  150.0410 H   0  0  0  0  0  0  0  0  0  0  0  0
  143.2539  138.2235  152.7210 H   0  0  0  0  0  0  0  0  0  0  0  0
  149.1533  136.0104  160.4045 H   0  0  0  0  0  0  0  0  0  0  0  0
  147.2423  133.6917  159.8712 H   0  0  0  0  0  0  0  0  0  0  0  0
  148.9840  133.5801  159.9631 H   0  0  0  0  0  0  0  0  0  0  0  0
  147.9623  132.8217  162.0656 H   0  0  0  0  0  0  0  0  0  0  0  0
  149.0046  134.2008  162.3172 H   0  0  0  0  0  0  0  0  0  0  0  0
  145.9532  134.2599  162.1408 H   0  0  0  0  0  0  0  0  0  0  0  0
  146.9068  134.5025  163.5862 H   0  0  0  0  0  0  0  0  0  0  0  0
  146.1481  136.6777  162.6152 H   0  0  0  0  0  0  0  0  0  0  0  0
  147.8916  136.5690  162.6522 H   0  0  0  0  0  0  0  0  0  0  0  0
  147.1313  137.4623  160.4971 H   0  0  0  0  0  0  0  0  0  0  0  0
  146.1049  136.0801  160.2211 H   0  0  0  0  0  0  0  0  0  0  0  0
  1  2  1  0  0  0  0
  1 34  1  0  0  0  0
  2  3  1  0  0  0  0
  2 35  1  0  0  0  0
  2 36  1  0  0  0  0
  3  4  1  0  0  0  0
  3 37  1  0  0  0  0
  3 38  1  0  0  0  0
  4  5  1  0  0  0  0
  4 24  1  0  0  0  0
  4 39  1  0  0  0  0
  5  6  1  0  0  0  0
  5 40  1  0  0  0  0
  6 11  1  0  0  0  0
  6  7  2  0  0  0  0
  7  8  1  0  0  0  0
  8  9  2  0  0  0  0
  8 41  1  0  0  0  0
  9 10  1  0  0  0  0
 10 14  1  0  0  0  0
 10 11  2  0  0  0  0
 11 12  1  0  0  0  0
 12 13  2  0  0  0  0
 13 14  1  0  0  0  0
 13 42  1  0  0  0  0
 14 15  1  0  0  0  0
 15 30  1  0  0  0  0
 15 22  1  0  0  0  0
 15 16  1  0  0  0  0
 16 17  1  0  0  0  0
 17 31  1  0  0  0  0
 17 18  1  0  0  0  0
 17 20  1  0  0  0  0
 18 19  1  0  0  0  0
 18 43  1  0  0  0  0
 18 44  1  0  0  0  0
 19 45  1  0  0  0  0
 20 32  1  0  0  0  0
 20 21  1  0  0  0  0
 20 22  1  0  0  0  0
 21 46  1  0  0  0  0
 22 33  1  0  0  0  0
 22 23  1  0  0  0  0
 23 47  1  0  0  0  0
 24 29  1  0  0  0  0
 24 25  1  0  0  0  0
 24 48  1  0  0  0  0
 25 26  1  0  0  0  0
 25 49  1  0  0  0  0
 25 50  1  0  0  0  0
 26 27  1  0  0  0  0
 26 51  1  0  0  0  0
 26 52  1  0  0  0  0
 27 28  1  0  0  0  0
 27 53  1  0  0  0  0
 27 54  1  0  0  0  0
 28 29  1  0  0  0  0
 28 55  1  0  0  0  0
 28 56  1  0  0  0  0
 29 57  1  0  0  0  0
 29 58  1  0  0  0  0
M  END
> <s_m_source_file>
AV-unprocessed.smi

> <i_m_source_file_index>
109

> <i_lp_mmshare_version>
43012

> <i_f3d_flags>
0

> <s_epik_input>
W0NIMl0xW0NIMl1bQ0gyXVtDSDJdW0NIMl1bQ0hdMVtDQEhdKFtDSDJdW0NIMl1bT0hdKVtOSF1jKG5bY0hdbjIpYyhjMjMpbltjSF1uM1tDQEBIXTRPW0NASF0oW0NIMl1bT0hdKVtDQEBIXShbT0hdKVtDQEhdNFtPSF0=

> <s_epik_cmdline>
J2VwaWtfcHl0aG9uJywgJy1waCcsICc3LjAnLCAnLXRuJywgJzgnLCAnLW1hJywgJzIwMCcsICctbWV0YWxfYmluZGluZycsICctaW1hZScsICc8aW5maWxlLm1hZT4nLCAnLW9tYWUnLCAnPG91dGZpbGUubWFlPic=

> <r_lp_tautomer_probability>
1

> <r_epik_Ionization_Penalty>
0.000793976

> <r_epik_Ionization_Penalty_Charging>
0

> <r_epik_Ionization_Penalty_Neutral>
0.000793976

> <r_epik_State_Penalty>
-0

> <r_epik_Charging_Adjusted_Penalty>
0

> <i_epik_Tot_Q>
0

> <i_epik_Tot_abs_Q>
0

> <r_epik_Metal_State_Penalty>
-0

> <b_epik_Metal_Only>
0

> <s_epik_Chemistry_Notes>
This compound contains an acetal/aminal-like group ( X-CH(R)-Y where X, Y are N, S, or O) that may be acid/base labile, releasing an aldehyde.

> <s_lp_Force_Field>
OPLS_2005

> <r_lp_Energy>
53.0649

> <b_lp_Chiralities_Consistent>
1

> <s_lp_Variant>
AV-unprocessed.smi:109-17

> <Gold.Version>
5.8.1

> <Gold.Id.Protein>
6NUR|6NUR_protein|mol2

> <Gold.PLP.Fitness>
50.6218

> <Gold.PLP.PLP>
-36.8020

> <Gold.PLP.part.hbond>
-5.9239

> <Gold.PLP.part.metal>
0.0000

> <Gold.PLP.part.buried>
-4.4409

> <Gold.PLP.part.nonpolar>
-25.9167

> <Gold.PLP.part.repulsive>
0.2917

> <Gold.PLP.ligand.clash>
0.0000

> <Gold.PLP.ligand.torsion>
0.2831

> <Gold.PLP.Chemscore.Hbond>
3.6497

> <Gold.PLP.Chemscore.CHOScore>
0.9793

> <Gold.PLP.Chemscore.Metal>
0.0000

> <Gold.Chemscore.Hbonds>
donor molecule, donor type, donor heavy atom, donor atom, acceptor molecule, acceptor atom, score
      L1  H    19    45       P1  7921  0.54
      L1  H    21    46       P1 10171  0.65
      L1  H    23    47       P1 10175  0.22
      L1  C     8    41       P1  7948  0.89

> <Gold.PLP.Chemscore.Internal.Correction>
0.4987

> <Gold.Rescore>
     Score         DG    S(hbond)    S(metal)    S(lipo)     H(rot)  DE(clash)    DE(int)     intcor
      7.12     -10.39       3.05        0.00      74.57       5.47       0.38       2.89       ----

> <Gold.Chemscore.Fitness>
7.1227

> <Gold.Chemscore.DG>
-10.3950

> <Gold.Chemscore.ZeroCoef>
-5.4800

> <Gold.Chemscore.Hbond>
3.0490

> <Gold.Chemscore.Metal>
0.0000

> <Gold.Chemscore.Lipo>
74.5719

> <Gold.Chemscore.Internal_Hbond>
0.0000

> <Gold.Chemscore.DEClash>
0.3797

> <Gold.Chemscore.DEInternal>
2.8926

> <Gold.Chemscore.Rot>
5.4662

> <Gold.Chemscore.Internal.Correction>
   9.000000E+99

> <Gold.Chemscore.Hbonds>
donor molecule, donor type, donor heavy atom, donor atom, acceptor molecule, acceptor atom, score
      L1  H    19    45       P1  7921  0.24
      L1  H    21    46       P1 10171  0.62
      L1  H    23    47       P1 10175  0.22

> <Gold.Chemscore.Hbond.Weighted>
-10.1836

> <Gold.Chemscore.Metal.Weighted>
-0.0000

> <Gold.Chemscore.Lipo.Weighted>
-8.7249

> <Gold.Chemscore.Internal_Hbond.Weighted>
0.0000

> <Gold.Chemscore.DEClash.Weighted>
0.3797

> <Gold.Chemscore.DEInternal.Weighted>
2.8926

> <Gold.Chemscore.Rot.Weighted>
13.9935

> <Gold.Chemscore.Internal.Correction.Weighted>
   9.000000E+99

> <Gold.Protein.RotatedTorsions>
[ 6907 6896 6895 6894 ] final   84.07 input  -60.11 | X-H torsion
[ 7974 7965 7964 7962 ] final    8.39 input  175.53 | X-H torsion
[ 8008 7997 7996 7995 ] final  144.27 input   59.86 | X-H torsion
[ 10167 10162 10161 10158 ] final   37.03 input  -65.29 | X-H torsion
[ 10718 10713 10712 10709 ] final  -35.91 input   66.30 | X-H torsion
[ 10763 10752 10751 10750 ] final  175.08 input  -60.55 | X-H torsion
[ 11005 11000 10999 10996 ] final   10.03 input  -57.11 | X-H torsion

> <Gold.Protein.ActiveResidues>
 VAL166  LYS551  ARG553  GLY616  TRP617  ASP618  TYR619  PRO620  LYS621  CYS622 
 ASP623  PHE694  ASN695  SER759  ASP760  ASP761  ALA762  ILE779  LEU786  VAL792 
 PHE793  MET794  SER795  GLU796  ALA797  LYS798  CYS799  TRP800  GLU811  SER814 

> <Gold.Protein.RotatedAtoms>
  152.5343  134.2798  159.9002 H   0  0  0  0  0  0  0  0  0  0  0  0  # atno 6907 bound_to 6896
  151.2753  133.4229  159.2631 H   0  0  0  0  0  0  0  0  0  0  0  0  # atno 6908 bound_to 6896
  151.0332  134.9569  159.8179 H   0  0  0  0  0  0  0  0  0  0  0  0  # atno 6909 bound_to 6896
  146.2417  139.9941  142.8422 H   0  0  0  0  0  0  0  0  0  0  0  0  # atno 7974 bound_to 7965
  156.2912  140.2240  156.5027 H   0  0  0  0  0  0  0  0  0  0  0  0  # atno 8008 bound_to 7997
  154.7676  140.0469  157.1046 H   0  0  0  0  0  0  0  0  0  0  0  0  # atno 8009 bound_to 7997
  154.9913  140.3090  155.4908 H   0  0  0  0  0  0  0  0  0  0  0  0  # atno 8010 bound_to 7997
  140.4072  144.1643  150.6137 H   0  0  0  0  0  0  0  0  0  0  0  0  # atno 10167 bound_to 10162
  156.3331  130.4282  149.7855 H   0  0  0  0  0  0  0  0  0  0  0  0  # atno 10718 bound_to 10713
  154.4627  135.2768  155.1701 H   0  0  0  0  0  0  0  0  0  0  0  0  # atno 10763 bound_to 10752
  154.3483  135.6155  153.5633 H   0  0  0  0  0  0  0  0  0  0  0  0  # atno 10764 bound_to 10752
  152.9856  135.5805  154.4992 H   0  0  0  0  0  0  0  0  0  0  0  0  # atno 10765 bound_to 10752
  140.5191  134.0577  155.7839 H   0  0  0  0  0  0  0  0  0  0  0  0  # atno 11005 bound_to 11000
  145.1476  140.9605  143.4452 LP  0  0  0  0  0  0  0  0  0  0  0  0  # atno 17320 bound_to 7965
  145.0236  139.3402  143.6060 LP  0  0  0  0  0  0  0  0  0  0  0  0  # atno 17321 bound_to 7965
  140.4677  143.2424  151.9132 LP  0  0  0  0  0  0  0  0  0  0  0  0  # atno 17342 bound_to 10162
  139.4783  144.5402  151.8539 LP  0  0  0  0  0  0  0  0  0  0  0  0  # atno 17343 bound_to 10162
  156.5120  130.8176  151.3172 LP  0  0  0  0  0  0  0  0  0  0  0  0  # atno 17370 bound_to 10713
  157.7434  130.9911  150.2588 LP  0  0  0  0  0  0  0  0  0  0  0  0  # atno 17371 bound_to 10713
  141.1344  133.9247  157.2466 LP  0  0  0  0  0  0  0  0  0  0  0  0  # atno 17394 bound_to 11000
  139.9616  135.0153  156.9275 LP  0  0  0  0  0  0  0  0  0  0  0  0  # atno 17395 bound_to 11000

$$$$
