AV-unprocessed.smi:2046|AV-procd|sdf|8313|dock1
  -GOLD-   2272010583D 1   1.00000     0.00000
 Structure written by MMmdl.
 29 30  0  0  0  0  0  0  0  0  2 V2000
  153.7040  139.6552  158.2226 O   0  0  0  0  0  0  0  0  0  0  0  0
  152.5529  139.2489  158.3993 C   0  0  0  0  0  0  0  0  0  0  0  0
  152.0615  138.0456  158.0249 N   0  5  0  0  0  0  0  0  0  0  0  0
  151.8921  137.7647  156.7224 C   0  0  0  0  0  0  0  0  0  0  0  0
  151.7694  136.5070  156.2687 N   0  0  0  0  0  0  0  0  0  0  0  0
  151.5956  136.4372  154.8929 N   0  0  0  0  0  0  0  0  0  0  0  0
  151.5820  137.6512  154.3428 C   0  0  0  0  0  0  0  0  0  0  0  0
  151.7793  138.9891  155.4547 S   0  0  0  0  0  0  0  0  0  0  0  0
  151.6537  140.0308  159.0165 N   0  0  0  0  0  0  0  0  0  0  0  0
  151.8837  141.3860  159.5221 C   0  0  2  0  0  0  0  0  0  0  0  0
  152.1281  142.3155  158.3066 C   0  0  0  0  0  0  0  0  0  0  0  0
  152.7768  143.6855  158.6070 C   0  0  0  0  0  0  0  0  0  0  0  0
  152.2014  144.4305  159.8290 C   0  0  0  0  0  0  0  0  0  0  0  0
  152.3232  143.7175  161.2008 C   0  0  0  0  0  0  0  0  0  0  0  0
  153.2318  142.5709  161.2195 N   0  0  0  0  0  0  0  0  0  0  0  0
  153.0893  141.4531  160.4870 C   0  0  0  0  0  0  0  0  0  0  0  0
  153.9028  140.5326  160.5593 O   0  0  0  0  0  0  0  0  0  0  0  0
  151.4525  137.7598  153.2764 H   0  0  0  0  0  0  0  0  0  0  0  0
  150.7234  139.6571  159.1321 H   0  0  0  0  0  0  0  0  0  0  0  0
  150.9828  141.7083  160.0456 H   0  0  0  0  0  0  0  0  0  0  0  0
  152.7522  141.8067  157.5702 H   0  0  0  0  0  0  0  0  0  0  0  0
  151.1705  142.4828  157.8119 H   0  0  0  0  0  0  0  0  0  0  0  0
  153.8525  143.5598  158.7383 H   0  0  0  0  0  0  0  0  0  0  0  0
  152.6738  144.3185  157.7251 H   0  0  0  0  0  0  0  0  0  0  0  0
  152.7115  145.3919  159.8993 H   0  0  0  0  0  0  0  0  0  0  0  0
  151.1543  144.6727  159.6450 H   0  0  0  0  0  0  0  0  0  0  0  0
  152.6625  144.4313  161.9517 H   0  0  0  0  0  0  0  0  0  0  0  0
  151.3395  143.3896  161.5396 H   0  0  0  0  0  0  0  0  0  0  0  0
  154.0236  142.6249  161.8435 H   0  0  0  0  0  0  0  0  0  0  0  0
  1  2  2  0  0  0  0
  2  3  1  0  0  0  0
  2  9  1  0  0  0  0
  3  4  1  0  0  0  0
  4  8  1  0  0  0  0
  4  5  2  0  0  0  0
  5  6  1  0  0  0  0
  6  7  2  0  0  0  0
  7  8  1  0  0  0  0
  7 18  1  0  0  0  0
  9 10  1  0  0  0  0
  9 19  1  0  0  0  0
 10 16  1  0  0  0  0
 10 11  1  0  0  0  0
 10 20  1  0  0  0  0
 11 12  1  0  0  0  0
 11 21  1  0  0  0  0
 11 22  1  0  0  0  0
 12 13  1  0  0  0  0
 12 23  1  0  0  0  0
 12 24  1  0  0  0  0
 13 14  1  0  0  0  0
 13 25  1  0  0  0  0
 13 26  1  0  0  0  0
 14 15  1  0  0  0  0
 14 27  1  0  0  0  0
 14 28  1  0  0  0  0
 15 16  1  0  0  0  0
 15 29  1  0  0  0  0
 16 17  2  0  0  0  0
M  CHG  1   3  -1
M  END
> <s_m_source_file>
AV-unprocessed.smi

> <i_m_source_file_index>
2046

> <i_lp_mmshare_version>
43012

> <i_f3d_flags>
0

> <s_epik_input>
czFbY0hdbm5jMVtOSF1DKD1PKVtOSF1bQ0BASF0yW0NIMl1bQ0gyXVtDSDJdW0NIMl1bTkhdQzI9Tw==

> <s_epik_cmdline>
J2VwaWtfcHl0aG9uJywgJy1waCcsICc3LjAnLCAnLXRuJywgJzgnLCAnLW1hJywgJzIwMCcsICctbWV0YWxfYmluZGluZycsICctaW1hZScsICc8aW5maWxlLm1hZT4nLCAnLW9tYWUnLCAnPG91dGZpbGUubWFlPic=

> <r_lp_tautomer_probability>
1

> <r_epik_Ionization_Penalty>
4.05949

> <r_epik_Ionization_Penalty_Charging>
4.01916

> <r_epik_Ionization_Penalty_Neutral>
0.0403285

> <r_epik_State_Penalty>
4.01849

> <r_epik_Charging_Adjusted_Penalty>
8.03765

> <i_epik_Tot_Q>
-1

> <i_epik_Tot_abs_Q>
1

> <r_epik_Metal_State_Penalty>
0.626741

> <b_epik_Metal_Only>
1

> <s_lp_Force_Field>
OPLS_2005

> <r_lp_Energy>
13.487

> <b_lp_Chiralities_Consistent>
1

> <s_lp_Variant>
AV-unprocessed.smi:2046-3

> <Gold.Version>
5.8.1

> <Gold.Id.Protein>
6NUR|6NUR_protein|mol2

> <Gold.PLP.Fitness>
38.2425

> <Gold.PLP.PLP>
-31.1992

> <Gold.PLP.part.hbond>
-2.7293

> <Gold.PLP.part.metal>
0.0000

> <Gold.PLP.part.buried>
-4.7676

> <Gold.PLP.part.nonpolar>
-24.3464

> <Gold.PLP.part.repulsive>
0.3451

> <Gold.PLP.ligand.clash>
0.0000

> <Gold.PLP.ligand.torsion>
0.7789

> <Gold.PLP.Chemscore.Hbond>
1.8640

> <Gold.PLP.Chemscore.CHOScore>
1.0000

> <Gold.PLP.Chemscore.Metal>
0.0000

> <Gold.Chemscore.Hbonds>
donor molecule, donor type, donor heavy atom, donor atom, acceptor molecule, acceptor atom, score
      P1  H  7997  8009       L1     1  0.86
      P1  H 10752 10765       L1     6  1.00
      L1  C     7    18       P1  7949  1.00

> <Gold.PLP.Chemscore.Internal.Correction>
0.0091

> <Gold.Rescore>
     Score         DG    S(hbond)    S(metal)    S(lipo)     H(rot)  DE(clash)    DE(int)     intcor
     11.61     -17.03       1.65        0.00      73.47       1.00       0.01       5.41       ----

> <Gold.Chemscore.Fitness>
11.6088

> <Gold.Chemscore.DG>
-17.0272

> <Gold.Chemscore.ZeroCoef>
-5.4800

> <Gold.Chemscore.Hbond>
1.6501

> <Gold.Chemscore.Metal>
0.0000

> <Gold.Chemscore.Lipo>
73.4678

> <Gold.Chemscore.Internal_Hbond>
0.0000

> <Gold.Chemscore.DEClash>
0.0089

> <Gold.Chemscore.DEInternal>
5.4095

> <Gold.Chemscore.Rot>
1.0000

> <Gold.Chemscore.Internal.Correction>
   9.000000E+99

> <Gold.Chemscore.Hbonds>
donor molecule, donor type, donor heavy atom, donor atom, acceptor molecule, acceptor atom, score
      P1  H  7997  8009       L1     1  0.84
      P1  H 10752 10765       L1     6  0.33

> <Gold.Chemscore.Hbond.Weighted>
-5.5114

> <Gold.Chemscore.Metal.Weighted>
-0.0000

> <Gold.Chemscore.Lipo.Weighted>
-8.5957

> <Gold.Chemscore.Internal_Hbond.Weighted>
0.0000

> <Gold.Chemscore.DEClash.Weighted>
0.0089

> <Gold.Chemscore.DEInternal.Weighted>
5.4095

> <Gold.Chemscore.Rot.Weighted>
2.5600

> <Gold.Chemscore.Internal.Correction.Weighted>
   9.000000E+99

> <Gold.Protein.RotatedTorsions>
[ 6907 6896 6895 6894 ] final  112.79 input  -60.11 | X-H torsion
[ 7974 7965 7964 7962 ] final -149.75 input  175.53 | X-H torsion
[ 8008 7997 7996 7995 ] final  124.61 input   59.86 | X-H torsion
[ 10167 10162 10161 10158 ] final   25.23 input  -65.29 | X-H torsion
[ 10718 10713 10712 10709 ] final  -23.75 input   66.30 | X-H torsion
[ 10763 10752 10751 10750 ] final  161.89 input  -60.55 | X-H torsion
[ 11005 11000 10999 10996 ] final  -16.49 input  -57.11 | X-H torsion

> <Gold.Protein.ActiveResidues>
 VAL166  LYS551  ARG553  GLY616  TRP617  ASP618  TYR619  PRO620  LYS621  CYS622 
 ASP623  PHE694  ASN695  SER759  ASP760  ASP761  ALA762  ILE779  LEU786  VAL792 
 PHE793  MET794  SER795  GLU796  ALA797  LYS798  CYS799  TRP800  GLU811  SER814 

> <Gold.Protein.RotatedAtoms>
  152.4897  133.8466  159.7179 H   0  0  0  0  0  0  0  0  0  0  0  0  # atno 6907 bound_to 6896
  150.9014  133.7104  159.2884 H   0  0  0  0  0  0  0  0  0  0  0  0  # atno 6908 bound_to 6896
  151.4543  135.1037  159.9759 H   0  0  0  0  0  0  0  0  0  0  0  0  # atno 6909 bound_to 6896
  144.7949  140.5024  143.5747 H   0  0  0  0  0  0  0  0  0  0  0  0  # atno 7974 bound_to 7965
  156.2807  140.2735  156.1816 H   0  0  0  0  0  0  0  0  0  0  0  0  # atno 8008 bound_to 7997
  155.0551  140.0386  157.2575 H   0  0  0  0  0  0  0  0  0  0  0  0  # atno 8009 bound_to 7997
  154.7163  140.2679  155.6587 H   0  0  0  0  0  0  0  0  0  0  0  0  # atno 8010 bound_to 7997
  140.5123  144.0139  150.6378 H   0  0  0  0  0  0  0  0  0  0  0  0  # atno 10167 bound_to 10162
  156.4868  130.4557  149.6779 H   0  0  0  0  0  0  0  0  0  0  0  0  # atno 10718 bound_to 10713
  154.2699  135.2766  155.2742 H   0  0  0  0  0  0  0  0  0  0  0  0  # atno 10763 bound_to 10752
  154.5310  135.5729  153.6762 H   0  0  0  0  0  0  0  0  0  0  0  0  # atno 10764 bound_to 10752
  152.9947  135.6228  154.2854 H   0  0  0  0  0  0  0  0  0  0  0  0  # atno 10765 bound_to 10752
  140.8073  133.8168  155.9528 H   0  0  0  0  0  0  0  0  0  0  0  0  # atno 11005 bound_to 11000
  145.5699  139.1483  143.3294 LP  0  0  0  0  0  0  0  0  0  0  0  0  # atno 17320 bound_to 7965
  146.2213  140.5833  142.9016 LP  0  0  0  0  0  0  0  0  0  0  0  0  # atno 17321 bound_to 7965
  140.3465  143.2988  152.0533 LP  0  0  0  0  0  0  0  0  0  0  0  0  # atno 17342 bound_to 10162
  139.4899  144.6405  151.6887 LP  0  0  0  0  0  0  0  0  0  0  0  0  # atno 17343 bound_to 10162
  156.3466  130.7410  151.2363 LP  0  0  0  0  0  0  0  0  0  0  0  0  # atno 17370 bound_to 10713
  157.7478  131.0389  150.4523 LP  0  0  0  0  0  0  0  0  0  0  0  0  # atno 17371 bound_to 10713
  140.9234  134.2113  157.4912 LP  0  0  0  0  0  0  0  0  0  0  0  0  # atno 17394 bound_to 11000
  139.8717  134.9802  156.5066 LP  0  0  0  0  0  0  0  0  0  0  0  0  # atno 17395 bound_to 11000

$$$$
