AV-unprocessed.smi:2043|AV-procd|sdf|8297|dock5
  -GOLD-   2272010563D 1   1.00000     0.00000
 Structure written by MMmdl.
 28 29  0  0  0  0  0  0  0  0  2 V2000
  148.7713  141.2232  154.6299 C   0  0  0  0  0  0  0  0  0  0  0  0
  150.0148  140.6037  155.1693 C   0  0  0  0  0  0  0  0  0  0  0  0
  150.7891  139.7923  154.4450 N   0  0  0  0  0  0  0  0  0  0  0  0
  151.8881  139.3410  155.1620 N   0  0  0  0  0  0  0  0  0  0  0  0
  151.9357  139.8249  156.4113 C   0  0  0  0  0  0  0  0  0  0  0  0
  152.9185  139.5085  157.2709 N   0  5  0  0  0  0  0  0  0  0  0  0
  152.8079  139.8445  158.5765 C   0  0  0  0  0  0  0  0  0  0  0  0
  152.4726  139.0961  159.4977 O   0  0  0  0  0  0  0  0  0  0  0  0
  153.1070  141.1249  158.8332 N   0  0  0  0  0  0  0  0  0  0  0  0
  153.0773  141.7465  160.1506 C   0  0  0  0  0  0  0  0  0  0  0  0
  152.1073  142.9218  160.1640 C   0  0  0  0  0  0  0  0  0  0  0  0
  152.3304  144.1008  159.2054 C   0  0  0  0  0  0  0  0  0  0  0  0
  151.7857  145.0295  160.2940 C   0  0  0  0  0  0  0  0  0  0  0  0
  152.1564  143.9452  161.3093 C   0  0  0  0  0  0  0  0  0  0  0  0
  150.5810  140.8822  156.8075 S   0  0  0  0  0  0  0  0  0  0  0  0
  149.0212  141.9446  153.8517 H   0  0  0  0  0  0  0  0  0  0  0  0
  148.2285  141.7378  155.4229 H   0  0  0  0  0  0  0  0  0  0  0  0
  148.1235  140.4561  154.2050 H   0  0  0  0  0  0  0  0  0  0  0  0
  153.3747  141.7089  158.0545 H   0  0  0  0  0  0  0  0  0  0  0  0
  152.7872  140.9986  160.8899 H   0  0  0  0  0  0  0  0  0  0  0  0
  154.0796  142.0848  160.4175 H   0  0  0  0  0  0  0  0  0  0  0  0
  151.0783  142.5734  160.0494 H   0  0  0  0  0  0  0  0  0  0  0  0
  153.3854  144.2784  158.9899 H   0  0  0  0  0  0  0  0  0  0  0  0
  151.7344  144.0654  158.2930 H   0  0  0  0  0  0  0  0  0  0  0  0
  152.3278  145.9684  160.4084 H   0  0  0  0  0  0  0  0  0  0  0  0
  150.7088  145.1874  160.2169 H   0  0  0  0  0  0  0  0  0  0  0  0
  151.4198  143.7838  162.0967 H   0  0  0  0  0  0  0  0  0  0  0  0
  153.1596  144.0759  161.7183 H   0  0  0  0  0  0  0  0  0  0  0  0
  1  2  1  0  0  0  0
  1 16  1  0  0  0  0
  1 17  1  0  0  0  0
  1 18  1  0  0  0  0
  2 15  1  0  0  0  0
  2  3  2  0  0  0  0
  3  4  1  0  0  0  0
  4  5  2  0  0  0  0
  5  6  1  0  0  0  0
  5 15  1  0  0  0  0
  6  7  1  0  0  0  0
  7  8  2  0  0  0  0
  7  9  1  0  0  0  0
  9 10  1  0  0  0  0
  9 19  1  0  0  0  0
 10 11  1  0  0  0  0
 10 20  1  0  0  0  0
 10 21  1  0  0  0  0
 11 14  1  0  0  0  0
 11 12  1  0  0  0  0
 11 22  1  0  0  0  0
 12 13  1  0  0  0  0
 12 23  1  0  0  0  0
 12 24  1  0  0  0  0
 13 14  1  0  0  0  0
 13 25  1  0  0  0  0
 13 26  1  0  0  0  0
 14 27  1  0  0  0  0
 14 28  1  0  0  0  0
M  CHG  1   6  -1
M  END
> <s_m_source_file>
AV-unprocessed.smi

> <i_m_source_file_index>
2043

> <i_lp_mmshare_version>
43012

> <i_f3d_flags>
0

> <s_epik_input>
W0NIM11jMW5uYyhzMSlbTkhdQyg9TylbTkhdW0NIMl1bQ0hdMltDSDJdW0NIMl1bQ0gyXTI=

> <s_epik_cmdline>
J2VwaWtfcHl0aG9uJywgJy1waCcsICc3LjAnLCAnLXRuJywgJzgnLCAnLW1hJywgJzIwMCcsICctbWV0YWxfYmluZGluZycsICctaW1hZScsICc8aW5maWxlLm1hZT4nLCAnLW9tYWUnLCAnPG91dGZpbGUubWFlPic=

> <r_lp_tautomer_probability>
1

> <r_epik_Ionization_Penalty>
4.53283

> <r_epik_Ionization_Penalty_Charging>
4.38642

> <r_epik_Ionization_Penalty_Neutral>
0.146407

> <r_epik_State_Penalty>
4.38606

> <r_epik_Charging_Adjusted_Penalty>
8.77248

> <i_epik_Tot_Q>
-1

> <i_epik_Tot_abs_Q>
1

> <r_epik_Metal_State_Penalty>
0.765318

> <b_epik_Metal_Only>
1

> <s_lp_Force_Field>
OPLS_2005

> <r_lp_Energy>
10.5339

> <b_lp_Chiralities_Consistent>
1

> <s_lp_Variant>
AV-unprocessed.smi:2043-2

> <Gold.Version>
5.8.1

> <Gold.Id.Protein>
6NUR|6NUR_protein|mol2

> <Gold.PLP.Fitness>
43.0233

> <Gold.PLP.PLP>
-35.5673

> <Gold.PLP.part.hbond>
-2.6882

> <Gold.PLP.part.metal>
0.0000

> <Gold.PLP.part.buried>
-3.1752

> <Gold.PLP.part.nonpolar>
-29.7207

> <Gold.PLP.part.repulsive>
0.2172

> <Gold.PLP.ligand.clash>
0.0000

> <Gold.PLP.ligand.torsion>
0.8074

> <Gold.PLP.Chemscore.Hbond>
3.0000

> <Gold.PLP.Chemscore.CHOScore>
0.0000

> <Gold.PLP.Chemscore.Metal>
0.0000

> <Gold.Chemscore.Hbonds>
donor molecule, donor type, donor heavy atom, donor atom, acceptor molecule, acceptor atom, score
      P1  H  7989  7998       L1     3  0.80
      P1  H  7997  8010       L1     6  2.00

> <Gold.PLP.Chemscore.Internal.Correction>
0.0707

> <Gold.Rescore>
     Score         DG    S(hbond)    S(metal)    S(lipo)     H(rot)  DE(clash)    DE(int)     intcor
     12.93     -13.78       0.77        0.00      76.60       1.26       0.05       0.81       ----

> <Gold.Chemscore.Fitness>
12.9261

> <Gold.Chemscore.DG>
-13.7832

> <Gold.Chemscore.ZeroCoef>
-5.4800

> <Gold.Chemscore.Hbond>
0.7688

> <Gold.Chemscore.Metal>
0.0000

> <Gold.Chemscore.Lipo>
76.6016

> <Gold.Chemscore.Internal_Hbond>
0.0000

> <Gold.Chemscore.DEClash>
0.0456

> <Gold.Chemscore.DEInternal>
0.8115

> <Gold.Chemscore.Rot>
1.2605

> <Gold.Chemscore.Internal.Correction>
   9.000000E+99

> <Gold.Chemscore.Hbonds>
donor molecule, donor type, donor heavy atom, donor atom, acceptor molecule, acceptor atom, score
      P1  H  7989  7998       L1     3  0.04
      P1  H  7997  8010       L1     6  0.51

> <Gold.Chemscore.Hbond.Weighted>
-2.5677

> <Gold.Chemscore.Metal.Weighted>
-0.0000

> <Gold.Chemscore.Lipo.Weighted>
-8.9624

> <Gold.Chemscore.Internal_Hbond.Weighted>
0.0000

> <Gold.Chemscore.DEClash.Weighted>
0.0456

> <Gold.Chemscore.DEInternal.Weighted>
0.8115

> <Gold.Chemscore.Rot.Weighted>
3.2269

> <Gold.Chemscore.Internal.Correction.Weighted>
   9.000000E+99

> <Gold.Protein.RotatedTorsions>
[ 6907 6896 6895 6894 ] final -102.94 input  -60.11 | X-H torsion
[ 7974 7965 7964 7962 ] final  136.89 input  175.53 | X-H torsion
[ 8008 7997 7996 7995 ] final   61.95 input   59.86 | X-H torsion
[ 10167 10162 10161 10158 ] final   18.99 input  -65.29 | X-H torsion
[ 10718 10713 10712 10709 ] final  148.78 input   66.30 | X-H torsion
[ 10763 10752 10751 10750 ] final  107.47 input  -60.55 | X-H torsion
[ 11005 11000 10999 10996 ] final -154.32 input  -57.11 | X-H torsion

> <Gold.Protein.ActiveResidues>
 VAL166  LYS551  ARG553  GLY616  TRP617  ASP618  TYR619  PRO620  LYS621  CYS622 
 ASP623  PHE694  ASN695  SER759  ASP760  ASP761  ALA762  ILE779  LEU786  VAL792 
 PHE793  MET794  SER795  GLU796  ALA797  LYS798  CYS799  TRP800  GLU811  SER814 

> <Gold.Protein.RotatedAtoms>
  150.7218  134.0505  159.3796 H   0  0  0  0  0  0  0  0  0  0  0  0  # atno 6907 bound_to 6896
  151.8481  135.0565  160.0465 H   0  0  0  0  0  0  0  0  0  0  0  0  # atno 6908 bound_to 6896
  152.2811  133.5435  159.5535 H   0  0  0  0  0  0  0  0  0  0  0  0  # atno 6909 bound_to 6896
  144.9521  139.4807  143.5521 H   0  0  0  0  0  0  0  0  0  0  0  0  # atno 7974 bound_to 7965
  155.6066  140.3494  155.4610 H   0  0  0  0  0  0  0  0  0  0  0  0  # atno 8008 bound_to 7997
  156.0187  140.1249  157.0404 H   0  0  0  0  0  0  0  0  0  0  0  0  # atno 8009 bound_to 7997
  154.4307  140.1067  156.5918 H   0  0  0  0  0  0  0  0  0  0  0  0  # atno 8010 bound_to 7997
  140.5612  143.9333  150.6644 H   0  0  0  0  0  0  0  0  0  0  0  0  # atno 10167 bound_to 10162
  157.3043  131.0876  151.1365 H   0  0  0  0  0  0  0  0  0  0  0  0  # atno 10718 bound_to 10713
  153.4072  135.3843  155.2026 H   0  0  0  0  0  0  0  0  0  0  0  0  # atno 10763 bound_to 10752
  154.8734  135.3785  154.4546 H   0  0  0  0  0  0  0  0  0  0  0  0  # atno 10764 bound_to 10752
  153.5050  135.7088  153.5873 H   0  0  0  0  0  0  0  0  0  0  0  0  # atno 10765 bound_to 10752
  140.6987  134.3962  157.5212 H   0  0  0  0  0  0  0  0  0  0  0  0  # atno 11005 bound_to 11000
  146.3324  139.8613  142.8856 LP  0  0  0  0  0  0  0  0  0  0  0  0  # atno 17320 bound_to 7965
  145.2829  141.0144  143.3707 LP  0  0  0  0  0  0  0  0  0  0  0  0  # atno 17321 bound_to 7965
  140.2785  143.3406  152.1173 LP  0  0  0  0  0  0  0  0  0  0  0  0  # atno 17342 bound_to 10162
  139.5071  144.6826  151.5970 LP  0  0  0  0  0  0  0  0  0  0  0  0  # atno 17343 bound_to 10162
  157.2712  130.6705  149.6020 LP  0  0  0  0  0  0  0  0  0  0  0  0  # atno 17370 bound_to 10713
  155.9673  130.4478  150.5596 LP  0  0  0  0  0  0  0  0  0  0  0  0  # atno 17371 bound_to 10713
  139.8903  134.8808  156.2377 LP  0  0  0  0  0  0  0  0  0  0  0  0  # atno 17394 bound_to 11000
  141.0182  133.7056  156.1224 LP  0  0  0  0  0  0  0  0  0  0  0  0  # atno 17395 bound_to 11000

$$$$
