AV-unprocessed.smi:707|AV-procd|sdf|3455|dock2
  -GOLD-   22720 0443D 1   1.00000     0.00000
 Structure written by MMmdl.
 44 45  0  0  0  0  0  0  0  0  1 V2000
  151.2163  136.3956  156.0998 C   0  0  0  0  0  0  0  0  0  0  0  0
  152.1150  137.4939  155.6320 C   0  0  0  0  0  0  0  0  0  0  0  0
  153.2781  137.8034  156.2170 N   0  0  0  0  0  0  0  0  0  0  0  0
  153.7909  138.8585  155.4879 N   0  0  0  0  0  0  0  0  0  0  0  0
  152.8852  139.0800  154.5361 C   0  0  0  0  0  0  0  0  0  0  0  0
  151.8174  138.2682  154.5688 N   0  0  0  0  0  0  0  0  0  0  0  0
  150.6685  138.2493  153.6825 C   0  0  0  0  0  0  0  0  0  0  0  0
  149.3594  138.4765  154.4503 C   0  0  0  0  0  0  0  0  0  0  0  0
  149.4913  139.6029  155.3629 N   0  0  0  0  0  0  0  0  0  0  0  0
  149.6136  140.8815  154.9776 C   0  0  0  0  0  0  0  0  0  0  0  0
  149.6213  141.2347  153.7987 O   0  0  0  0  0  0  0  0  0  0  0  0
  149.7280  141.9232  156.0890 C   0  0  0  0  0  0  0  0  0  0  0  0
  150.9919  141.7844  156.7250 O   0  0  0  0  0  0  0  0  0  0  0  0
  151.0889  142.4319  157.9871 C   0  0  2  0  0  0  0  0  0  0  0  0
  151.3011  143.9499  157.8147 C   0  0  0  0  0  0  0  0  0  0  0  0
  151.5381  144.6355  159.1691 C   0  0  0  0  0  0  0  0  0  0  0  0
  152.7156  143.9965  159.9221 C   0  0  0  0  0  0  0  0  0  0  0  0
  152.5138  142.4797  160.1022 C   0  0  2  0  0  0  0  0  0  0  0  0
  153.6935  141.8411  160.8490 C   0  0  0  0  0  0  0  0  0  0  0  0
  152.2774  141.8043  158.7369 C   0  0  0  0  0  0  0  0  0  0  0  0
  151.6719  135.8587  156.9323 H   0  0  0  0  0  0  0  0  0  0  0  0
  151.0327  135.6868  155.2923 H   0  0  0  0  0  0  0  0  0  0  0  0
  150.2632  136.8064  156.4330 H   0  0  0  0  0  0  0  0  0  0  0  0
  153.0044  139.8555  153.7937 H   0  0  0  0  0  0  0  0  0  0  0  0
  150.8031  139.0126  152.9152 H   0  0  0  0  0  0  0  0  0  0  0  0
  150.6454  137.2870  153.1689 H   0  0  0  0  0  0  0  0  0  0  0  0
  148.5430  138.6737  153.7537 H   0  0  0  0  0  0  0  0  0  0  0  0
  149.0939  137.5798  155.0125 H   0  0  0  0  0  0  0  0  0  0  0  0
  149.4966  139.4006  156.3523 H   0  0  0  0  0  0  0  0  0  0  0  0
  149.6082  142.9197  155.6634 H   0  0  0  0  0  0  0  0  0  0  0  0
  148.9202  141.7666  156.8054 H   0  0  0  0  0  0  0  0  0  0  0  0
  150.1833  142.2485  158.5684 H   0  0  0  0  0  0  0  0  0  0  0  0
  152.1560  144.1286  157.1611 H   0  0  0  0  0  0  0  0  0  0  0  0
  150.4402  144.4084  157.3290 H   0  0  0  0  0  0  0  0  0  0  0  0
  151.7272  145.6989  159.0188 H   0  0  0  0  0  0  0  0  0  0  0  0
  150.6348  144.5650  159.7763 H   0  0  0  0  0  0  0  0  0  0  0  0
  153.6405  144.1839  159.3749 H   0  0  0  0  0  0  0  0  0  0  0  0
  152.8300  144.4763  160.8947 H   0  0  0  0  0  0  0  0  0  0  0  0
  151.6207  142.3290  160.7106 H   0  0  0  0  0  0  0  0  0  0  0  0
  154.6237  141.9528  160.2911 H   0  0  0  0  0  0  0  0  0  0  0  0
  153.5263  140.7755  161.0083 H   0  0  0  0  0  0  0  0  0  0  0  0
  153.8347  142.3016  161.8273 H   0  0  0  0  0  0  0  0  0  0  0  0
  152.0968  140.7380  158.8772 H   0  0  0  0  0  0  0  0  0  0  0  0
  153.1783  141.8862  158.1267 H   0  0  0  0  0  0  0  0  0  0  0  0
  1  2  1  0  0  0  0
  1 21  1  0  0  0  0
  1 22  1  0  0  0  0
  1 23  1  0  0  0  0
  2  6  1  0  0  0  0
  2  3  2  0  0  0  0
  3  4  1  0  0  0  0
  4  5  2  0  0  0  0
  5  6  1  0  0  0  0
  5 24  1  0  0  0  0
  6  7  1  0  0  0  0
  7  8  1  0  0  0  0
  7 25  1  0  0  0  0
  7 26  1  0  0  0  0
  8  9  1  0  0  0  0
  8 27  1  0  0  0  0
  8 28  1  0  0  0  0
  9 10  1  0  0  0  0
  9 29  1  0  0  0  0
 10 11  2  0  0  0  0
 10 12  1  0  0  0  0
 12 13  1  0  0  0  0
 12 30  1  0  0  0  0
 12 31  1  0  0  0  0
 13 14  1  0  0  0  0
 14 20  1  0  0  0  0
 14 15  1  0  0  0  0
 14 32  1  0  0  0  0
 15 16  1  0  0  0  0
 15 33  1  0  0  0  0
 15 34  1  0  0  0  0
 16 17  1  0  0  0  0
 16 35  1  0  0  0  0
 16 36  1  0  0  0  0
 17 18  1  0  0  0  0
 17 37  1  0  0  0  0
 17 38  1  0  0  0  0
 18 19  1  0  0  0  0
 18 20  1  0  0  0  0
 18 39  1  0  0  0  0
 19 40  1  0  0  0  0
 19 41  1  0  0  0  0
 19 42  1  0  0  0  0
 20 43  1  0  0  0  0
 20 44  1  0  0  0  0
M  END
> <s_m_source_file>
AV-unprocessed.smi

> <i_m_source_file_index>
707

> <i_lp_mmshare_version>
43012

> <i_f3d_flags>
0

> <s_epik_input>
W0NIM11jMW5uW2NIXW4xW0NIMl1bQ0gyXVtOSF1DKD1PKVtDSDJdT1tDQEBIXTJbQ0gyXVtDSDJdW0NIMl1bQ0BASF0oW0NIM10pW0NIMl0y

> <s_epik_cmdline>
J2VwaWtfcHl0aG9uJywgJy1waCcsICc3LjAnLCAnLXRuJywgJzgnLCAnLW1hJywgJzIwMCcsICctbWV0YWxfYmluZGluZycsICctaW1hZScsICc8aW5maWxlLm1hZT4nLCAnLW9tYWUnLCAnPG91dGZpbGUubWFlPic=

> <r_lp_tautomer_probability>
1

> <r_epik_Ionization_Penalty>
0.000271783

> <r_epik_Ionization_Penalty_Charging>
0

> <r_epik_Ionization_Penalty_Neutral>
0.000271783

> <r_epik_State_Penalty>
-0

> <r_epik_Charging_Adjusted_Penalty>
0

> <i_epik_Tot_Q>
0

> <i_epik_Tot_abs_Q>
0

> <r_epik_Metal_State_Penalty>
-0

> <b_epik_Metal_Only>
0

> <s_lp_Force_Field>
OPLS_2005

> <r_lp_Energy>
13.3138

> <b_lp_Chiralities_Consistent>
1

> <s_lp_Variant>
AV-unprocessed.smi:707-3

> <Gold.Version>
5.8.1

> <Gold.Id.Protein>
6NUR|6NUR_protein|mol2

> <Gold.PLP.Fitness>
45.6448

> <Gold.PLP.PLP>
-40.3632

> <Gold.PLP.part.hbond>
-3.1034

> <Gold.PLP.part.metal>
0.0000

> <Gold.PLP.part.buried>
-1.6568

> <Gold.PLP.part.nonpolar>
-37.3079

> <Gold.PLP.part.repulsive>
1.8608

> <Gold.PLP.ligand.clash>
0.0000

> <Gold.PLP.ligand.torsion>
0.4011

> <Gold.PLP.Chemscore.Hbond>
1.9967

> <Gold.PLP.Chemscore.CHOScore>
0.0000

> <Gold.PLP.Chemscore.Metal>
0.0000

> <Gold.Chemscore.Hbonds>
donor molecule, donor type, donor heavy atom, donor atom, acceptor molecule, acceptor atom, score
      P1  H  7989  7998       L1    11  0.23
      P1  H  7997  8009       L1     4  0.72
      P1  H  8011  8017       L1    11  0.85

> <Gold.PLP.Chemscore.Internal.Correction>
0.0937

> <Gold.Rescore>
     Score         DG    S(hbond)    S(metal)    S(lipo)     H(rot)  DE(clash)    DE(int)     intcor
     15.63     -16.87       1.77        0.00      99.84       2.42       0.79       0.46       ----

> <Gold.Chemscore.Fitness>
15.6257

> <Gold.Chemscore.DG>
-16.8717

> <Gold.Chemscore.ZeroCoef>
-5.4800

> <Gold.Chemscore.Hbond>
1.7676

> <Gold.Chemscore.Metal>
0.0000

> <Gold.Chemscore.Lipo>
99.8372

> <Gold.Chemscore.Internal_Hbond>
0.0000

> <Gold.Chemscore.DEClash>
0.7865

> <Gold.Chemscore.DEInternal>
0.4595

> <Gold.Chemscore.Rot>
2.4191

> <Gold.Chemscore.Internal.Correction>
   9.000000E+99

> <Gold.Chemscore.Hbonds>
donor molecule, donor type, donor heavy atom, donor atom, acceptor molecule, acceptor atom, score
      P1  H  7989  7998       L1    11  0.04
      P1  H  7997  8009       L1     4  0.64
      P1  H  8011  8017       L1    11  0.85

> <Gold.Chemscore.Hbond.Weighted>
-5.9036

> <Gold.Chemscore.Metal.Weighted>
-0.0000

> <Gold.Chemscore.Lipo.Weighted>
-11.6810

> <Gold.Chemscore.Internal_Hbond.Weighted>
0.0000

> <Gold.Chemscore.DEClash.Weighted>
0.7865

> <Gold.Chemscore.DEInternal.Weighted>
0.4595

> <Gold.Chemscore.Rot.Weighted>
6.1929

> <Gold.Chemscore.Internal.Correction.Weighted>
   9.000000E+99

> <Gold.Protein.RotatedTorsions>
[ 6907 6896 6895 6894 ] final  -97.32 input  -60.11 | X-H torsion
[ 7974 7965 7964 7962 ] final  -50.28 input  175.53 | X-H torsion
[ 8008 7997 7996 7995 ] final -154.98 input   59.86 | X-H torsion
[ 10167 10162 10161 10158 ] final   93.99 input  -65.29 | X-H torsion
[ 10718 10713 10712 10709 ] final  -22.86 input   66.30 | X-H torsion
[ 10763 10752 10751 10750 ] final  -40.87 input  -60.55 | X-H torsion
[ 11005 11000 10999 10996 ] final   63.12 input  -57.11 | X-H torsion

> <Gold.Protein.ActiveResidues>
 VAL166  LYS551  ARG553  GLY616  TRP617  ASP618  TYR619  PRO620  LYS621  CYS622 
 ASP623  PHE694  ASN695  SER759  ASP760  ASP761  ALA762  ILE779  LEU786  VAL792 
 PHE793  MET794  SER795  GLU796  ALA797  LYS798  CYS799  TRP800  GLU811  SER814 

> <Gold.Protein.RotatedAtoms>
  150.7013  134.1367  159.4089 H   0  0  0  0  0  0  0  0  0  0  0  0  # atno 6907 bound_to 6896
  151.9352  135.0236  160.0541 H   0  0  0  0  0  0  0  0  0  0  0  0  # atno 6908 bound_to 6896
  152.2141  133.4898  159.5163 H   0  0  0  0  0  0  0  0  0  0  0  0  # atno 6909 bound_to 6896
  145.9315  140.7745  142.9597 H   0  0  0  0  0  0  0  0  0  0  0  0  # atno 7974 bound_to 7965
  155.6947  140.0759  157.2434 H   0  0  0  0  0  0  0  0  0  0  0  0  # atno 8008 bound_to 7997
  154.4083  140.1658  156.2178 H   0  0  0  0  0  0  0  0  0  0  0  0  # atno 8009 bound_to 7997
  155.9420  140.3383  155.6339 H   0  0  0  0  0  0  0  0  0  0  0  0  # atno 8010 bound_to 7997
  139.8126  144.6766  150.9620 H   0  0  0  0  0  0  0  0  0  0  0  0  # atno 10167 bound_to 10162
  156.4989  130.4583  149.6712 H   0  0  0  0  0  0  0  0  0  0  0  0  # atno 10718 bound_to 10713
  153.9532  135.6748  153.4744 H   0  0  0  0  0  0  0  0  0  0  0  0  # atno 10763 bound_to 10752
  153.0874  135.4892  154.8621 H   0  0  0  0  0  0  0  0  0  0  0  0  # atno 10764 bound_to 10752
  154.7314  135.3139  154.8844 H   0  0  0  0  0  0  0  0  0  0  0  0  # atno 10765 bound_to 10752
  140.0046  134.6390  155.9876 H   0  0  0  0  0  0  0  0  0  0  0  0  # atno 11005 bound_to 11000
  144.6765  140.2135  143.7374 LP  0  0  0  0  0  0  0  0  0  0  0  0  # atno 17320 bound_to 7965
  145.8419  139.2134  143.1822 LP  0  0  0  0  0  0  0  0  0  0  0  0  # atno 17321 bound_to 7965
  140.7817  143.4170  151.0902 LP  0  0  0  0  0  0  0  0  0  0  0  0  # atno 17342 bound_to 10162
  139.7835  143.8321  152.3141 LP  0  0  0  0  0  0  0  0  0  0  0  0  # atno 17343 bound_to 10162
  156.3352  130.7353  151.2289 LP  0  0  0  0  0  0  0  0  0  0  0  0  # atno 17370 bound_to 10713
  157.7465  131.0419  150.4667 LP  0  0  0  0  0  0  0  0  0  0  0  0  # atno 17371 bound_to 10713
  141.1667  133.6537  156.4505 LP  0  0  0  0  0  0  0  0  0  0  0  0  # atno 17394 bound_to 11000
  140.4665  134.6793  157.5110 LP  0  0  0  0  0  0  0  0  0  0  0  0  # atno 17395 bound_to 11000

$$$$
