AV-unprocessed.smi:3278|AV-procd|sdf|12546|dock3
  -GOLD-   2272018463D 1   1.00000     0.00000
 Structure written by MMmdl.
 38 39  0  0  0  0  0  0  0  0  1 V2000
  145.2398  144.2867  153.6392 C   0  0  0  0  0  0  0  0  0  0  0  0
  146.0274  143.2254  154.2284 N   0  0  0  0  0  0  0  0  0  0  0  0
  147.2104  142.6802  153.7786 C   0  0  0  0  0  0  0  0  0  0  0  0
  147.5812  141.7061  154.6645 C   0  0  0  0  0  0  0  0  0  0  0  0
  148.7980  140.8049  154.6439 C   0  0  1  0  0  0  0  0  0  0  0  0
  148.3569  139.3455  154.4413 C   0  0  0  0  0  0  0  0  0  0  0  0
  149.6618  141.0944  153.5599 O   0  0  0  0  0  0  0  0  0  0  0  0
  149.6303  140.9299  155.9397 C   0  0  0  0  0  0  0  0  0  0  0  0
  149.9893  142.3207  156.2329 N   0  0  0  0  0  0  0  0  0  0  0  0
  151.1820  142.5156  157.0623 C   0  0  1  0  0  0  0  0  0  0  0  0
  151.4529  144.0124  157.3436 C   0  0  0  0  0  0  0  0  0  0  0  0
  152.7228  144.2445  158.1793 C   0  0  0  0  0  0  0  0  0  0  0  0
  152.6557  143.5729  159.5565 C   0  0  0  0  0  0  0  0  0  0  0  0
  152.5047  141.7754  159.3944 S   0  0  0  0  0  0  0  0  0  0  0  0
  151.0063  141.7295  158.3747 C   0  0  0  0  0  0  0  0  0  0  0  0
  146.5366  141.7377  155.6344 C   0  0  0  0  0  0  0  0  0  0  0  0
  145.6110  142.6455  155.3720 N   0  0  0  0  0  0  0  0  0  0  0  0
  145.6453  144.5553  152.6634 H   0  0  0  0  0  0  0  0  0  0  0  0
  145.2611  145.1638  154.2867 H   0  0  0  0  0  0  0  0  0  0  0  0
  144.2077  143.9575  153.5146 H   0  0  0  0  0  0  0  0  0  0  0  0
  147.6885  143.0274  152.8745 H   0  0  0  0  0  0  0  0  0  0  0  0
  147.7076  139.0114  155.2513 H   0  0  0  0  0  0  0  0  0  0  0  0
  149.2121  138.6695  154.4096 H   0  0  0  0  0  0  0  0  0  0  0  0
  147.8053  139.2237  153.5082 H   0  0  0  0  0  0  0  0  0  0  0  0
  149.7448  140.3181  153.0276 H   0  0  0  0  0  0  0  0  0  0  0  0
  149.0550  140.5284  156.7750 H   0  0  0  0  0  0  0  0  0  0  0  0
  150.5200  140.3071  155.8522 H   0  0  0  0  0  0  0  0  0  0  0  0
  150.0825  142.8369  155.3638 H   0  0  0  0  0  0  0  0  0  0  0  0
  152.0428  142.1009  156.5361 H   0  0  0  0  0  0  0  0  0  0  0  0
  151.5730  144.5609  156.4104 H   0  0  0  0  0  0  0  0  0  0  0  0
  150.5951  144.4560  157.8509 H   0  0  0  0  0  0  0  0  0  0  0  0
  153.5940  143.8797  157.6343 H   0  0  0  0  0  0  0  0  0  0  0  0
  152.8733  145.3161  158.3112 H   0  0  0  0  0  0  0  0  0  0  0  0
  153.5543  143.7978  160.1314 H   0  0  0  0  0  0  0  0  0  0  0  0
  151.8069  143.9531  160.1255 H   0  0  0  0  0  0  0  0  0  0  0  0
  150.1726  142.1284  158.9543 H   0  0  0  0  0  0  0  0  0  0  0  0
  150.7752  140.6851  158.1630 H   0  0  0  0  0  0  0  0  0  0  0  0
  146.4269  141.1288  156.5198 H   0  0  0  0  0  0  0  0  0  0  0  0
  1  2  1  0  0  0  0
  1 18  1  0  0  0  0
  1 19  1  0  0  0  0
  1 20  1  0  0  0  0
  2 17  1  0  0  0  0
  2  3  1  0  0  0  0
  3  4  2  0  0  0  0
  3 21  1  0  0  0  0
  4  5  1  0  0  0  0
  4 16  1  0  0  0  0
  5  6  1  0  0  0  0
  5  7  1  0  0  0  0
  5  8  1  0  0  0  0
  6 22  1  0  0  0  0
  6 23  1  0  0  0  0
  6 24  1  0  0  0  0
  7 25  1  0  0  0  0
  8  9  1  0  0  0  0
  8 26  1  0  0  0  0
  8 27  1  0  0  0  0
  9 10  1  0  0  0  0
  9 28  1  0  0  0  0
 10 15  1  0  0  0  0
 10 11  1  0  0  0  0
 10 29  1  0  0  0  0
 11 12  1  0  0  0  0
 11 30  1  0  0  0  0
 11 31  1  0  0  0  0
 12 13  1  0  0  0  0
 12 32  1  0  0  0  0
 12 33  1  0  0  0  0
 13 14  1  0  0  0  0
 13 34  1  0  0  0  0
 13 35  1  0  0  0  0
 14 15  1  0  0  0  0
 15 36  1  0  0  0  0
 15 37  1  0  0  0  0
 16 17  2  0  0  0  0
 16 38  1  0  0  0  0
M  END
> <s_m_source_file>
AV-unprocessed.smi

> <i_m_source_file_index>
3278

> <i_lp_mmshare_version>
43012

> <i_f3d_flags>
0

> <s_epik_input>
W0NIM11uMVtjSF1jKFtjSF1uMSlbQ0BAXShbQ0gzXSkoW09IXSlbQ0gyXVtOSF1bQ0BASF0yW0NIMl1bQ0gyXVtDSDJdU1tDSDJdMg==

> <s_epik_cmdline>
J2VwaWtfcHl0aG9uJywgJy1waCcsICc3LjAnLCAnLXRuJywgJzgnLCAnLW1hJywgJzIwMCcsICctbWV0YWxfYmluZGluZycsICctaW1hZScsICc8aW5maWxlLm1hZT4nLCAnLW9tYWUnLCAnPG91dGZpbGUubWFlPic=

> <r_lp_tautomer_probability>
1

> <r_epik_Ionization_Penalty>
2.06123

> <r_epik_Ionization_Penalty_Charging>
0

> <r_epik_Ionization_Penalty_Neutral>
2.06123

> <r_epik_State_Penalty>
2.1944

> <r_epik_Charging_Adjusted_Penalty>
2.1944

> <i_epik_Tot_Q>
0

> <i_epik_Tot_abs_Q>
0

> <r_epik_Metal_State_Penalty>
2.19434

> <b_epik_Metal_Only>
0

> <s_lp_Force_Field>
OPLS_2005

> <r_lp_Energy>
12.2085

> <b_lp_Chiralities_Consistent>
1

> <s_lp_Variant>
AV-unprocessed.smi:3278-7

> <Gold.Version>
5.8.1

> <Gold.Id.Protein>
6NUR|6NUR_protein|mol2

> <Gold.PLP.Fitness>
45.8489

> <Gold.PLP.PLP>
-40.9112

> <Gold.PLP.part.hbond>
-4.0000

> <Gold.PLP.part.metal>
0.0000

> <Gold.PLP.part.buried>
-2.9857

> <Gold.PLP.part.nonpolar>
-35.2319

> <Gold.PLP.part.repulsive>
0.1606

> <Gold.PLP.ligand.clash>
0.0000

> <Gold.PLP.ligand.torsion>
0.2323

> <Gold.PLP.Chemscore.Hbond>
1.7898

> <Gold.PLP.Chemscore.CHOScore>
0.0000

> <Gold.PLP.Chemscore.Metal>
0.0000

> <Gold.Chemscore.Hbonds>
donor molecule, donor type, donor heavy atom, donor atom, acceptor molecule, acceptor atom, score
      L1  H     7    25       P1  7957  0.64
      L1  H     9    28       P1  8028  0.06
      P1  H  8011  8017       L1     7  0.99

> <Gold.PLP.Chemscore.Internal.Correction>
0.0328

> <Gold.Rescore>
     Score         DG    S(hbond)    S(metal)    S(lipo)     H(rot)  DE(clash)    DE(int)     intcor
     16.81     -17.34       1.41        0.00     103.49       1.93       0.02       0.51       ----

> <Gold.Chemscore.Fitness>
16.8145

> <Gold.Chemscore.DG>
-17.3432

> <Gold.Chemscore.ZeroCoef>
-5.4800

> <Gold.Chemscore.Hbond>
1.4081

> <Gold.Chemscore.Metal>
0.0000

> <Gold.Chemscore.Lipo>
103.4902

> <Gold.Chemscore.Internal_Hbond>
0.0000

> <Gold.Chemscore.DEClash>
0.0224

> <Gold.Chemscore.DEInternal>
0.5063

> <Gold.Chemscore.Rot>
1.9329

> <Gold.Chemscore.Internal.Correction>
   9.000000E+99

> <Gold.Chemscore.Hbonds>
donor molecule, donor type, donor heavy atom, donor atom, acceptor molecule, acceptor atom, score
      L1  H     7    25       P1  7957  0.64
      L1  H     9    28       P1  8028  0.06
      P1  H  8011  8017       L1     7  0.33

> <Gold.Chemscore.Hbond.Weighted>
-4.7031

> <Gold.Chemscore.Metal.Weighted>
-0.0000

> <Gold.Chemscore.Lipo.Weighted>
-12.1083

> <Gold.Chemscore.Internal_Hbond.Weighted>
0.0000

> <Gold.Chemscore.DEClash.Weighted>
0.0224

> <Gold.Chemscore.DEInternal.Weighted>
0.5063

> <Gold.Chemscore.Rot.Weighted>
4.9483

> <Gold.Chemscore.Internal.Correction.Weighted>
   9.000000E+99

> <Gold.Protein.RotatedTorsions>
[ 6907 6896 6895 6894 ] final  -81.23 input  -60.11 | X-H torsion
[ 7974 7965 7964 7962 ] final   21.71 input  175.53 | X-H torsion
[ 8008 7997 7996 7995 ] final   86.90 input   59.86 | X-H torsion
[ 10167 10162 10161 10158 ] final -128.22 input  -65.29 | X-H torsion
[ 10718 10713 10712 10709 ] final   44.59 input   66.30 | X-H torsion
[ 10763 10752 10751 10750 ] final -143.85 input  -60.55 | X-H torsion
[ 11005 11000 10999 10996 ] final -118.96 input  -57.11 | X-H torsion

> <Gold.Protein.ActiveResidues>
 VAL166  LYS551  ARG553  GLY616  TRP617  ASP618  TYR619  PRO620  LYS621  CYS622 
 ASP623  PHE694  ASN695  SER759  ASP760  ASP761  ALA762  ILE779  LEU786  VAL792 
 PHE793  MET794  SER795  GLU796  ALA797  LYS798  CYS799  TRP800  GLU811  SER814 

> <Gold.Protein.RotatedAtoms>
  150.6915  134.3848  159.5049 H   0  0  0  0  0  0  0  0  0  0  0  0  # atno 6907 bound_to 6896
  152.1645  134.8882  160.0548 H   0  0  0  0  0  0  0  0  0  0  0  0  # atno 6908 bound_to 6896
  151.9931  133.3763  159.4189 H   0  0  0  0  0  0  0  0  0  0  0  0  # atno 6909 bound_to 6896
  146.2060  139.7988  142.8726 H   0  0  0  0  0  0  0  0  0  0  0  0  # atno 7974 bound_to 7965
  155.9687  140.3387  155.6556 H   0  0  0  0  0  0  0  0  0  0  0  0  # atno 8008 bound_to 7997
  155.6703  140.0726  157.2540 H   0  0  0  0  0  0  0  0  0  0  0  0  # atno 8009 bound_to 7997
  154.4161  140.1692  156.1860 H   0  0  0  0  0  0  0  0  0  0  0  0  # atno 8010 bound_to 7997
  139.9526  143.6039  152.2470 H   0  0  0  0  0  0  0  0  0  0  0  0  # atno 10167 bound_to 10162
  157.4284  130.8010  149.7580 H   0  0  0  0  0  0  0  0  0  0  0  0  # atno 10718 bound_to 10713
  154.8453  135.3456  154.6253 H   0  0  0  0  0  0  0  0  0  0  0  0  # atno 10763 bound_to 10752
  153.6862  135.6977  153.5108 H   0  0  0  0  0  0  0  0  0  0  0  0  # atno 10764 bound_to 10752
  153.2630  135.4317  155.0868 H   0  0  0  0  0  0  0  0  0  0  0  0  # atno 10765 bound_to 10752
  141.0249  134.0068  157.3229 H   0  0  0  0  0  0  0  0  0  0  0  0  # atno 11005 bound_to 11000
  145.3318  141.0268  143.3442 LP  0  0  0  0  0  0  0  0  0  0  0  0  # atno 17320 bound_to 7965
  144.8793  139.4926  143.6730 LP  0  0  0  0  0  0  0  0  0  0  0  0  # atno 17321 bound_to 7965
  139.6616  144.7662  151.1951 LP  0  0  0  0  0  0  0  0  0  0  0  0  # atno 17342 bound_to 10162
  140.7578  143.6001  150.8708 LP  0  0  0  0  0  0  0  0  0  0  0  0  # atno 17343 bound_to 10162
  155.9905  130.3944  150.3027 LP  0  0  0  0  0  0  0  0  0  0  0  0  # atno 17370 bound_to 10713
  157.1182  131.0239  151.3020 LP  0  0  0  0  0  0  0  0  0  0  0  0  # atno 17371 bound_to 10713
  139.9169  135.0197  156.7918 LP  0  0  0  0  0  0  0  0  0  0  0  0  # atno 17394 bound_to 11000
  140.6508  133.9733  155.7754 LP  0  0  0  0  0  0  0  0  0  0  0  0  # atno 17395 bound_to 11000

$$$$
