AV-unprocessed.smi:2721|AV-procd|sdf|10502|dock1
  -GOLD-   2272014543D 1   1.00000     0.00000
 Structure written by MMmdl.
 29 30  0  0  0  0  0  0  0  0  2 V2000
  152.1674  138.9319  154.8811 C   0  0  0  0  0  0  0  0  0  0  0  0
  152.0367  139.7648  156.0572 N   0  0  0  0  0  0  0  0  0  0  0  0
  151.2635  140.8912  156.2328 C   0  0  0  0  0  0  0  0  0  0  0  0
  151.4627  141.3394  157.5115 C   0  0  0  0  0  0  0  0  0  0  0  0
  150.8662  142.5163  158.2606 C   0  0  1  0  0  0  0  0  0  0  0  0
  151.0049  142.4114  159.6798 O   0  0  0  0  0  0  0  0  0  0  0  0
  152.3105  142.6477  160.2041 C   0  0  0  0  0  0  0  0  0  0  0  0
  152.8033  144.0502  159.8168 C   0  0  0  0  0  0  0  0  0  0  0  0
  152.7587  144.2430  158.2979 C   0  0  0  0  0  0  0  0  0  0  0  0
  151.3532  143.9067  157.7791 C   0  0  1  0  0  0  0  0  0  0  0  0
  151.2675  144.0455  156.3132 N   0  3  0  0  0  0  0  0  0  0  0  0
  152.3920  140.3953  158.0373 C   0  0  0  0  0  0  0  0  0  0  0  0
  152.7302  139.4565  157.1700 N   0  0  0  0  0  0  0  0  0  0  0  0
  149.7881  142.4981  158.0949 H   0  0  0  0  0  0  0  0  0  0  0  0
  150.6740  144.6510  158.1971 H   0  0  0  0  0  0  0  0  0  0  0  0
  151.5914  139.3541  154.0572 H   0  0  0  0  0  0  0  0  0  0  0  0
  151.7962  137.9295  155.0966 H   0  0  0  0  0  0  0  0  0  0  0  0
  153.2153  138.8704  154.5854 H   0  0  0  0  0  0  0  0  0  0  0  0
  150.6432  141.2693  155.4343 H   0  0  0  0  0  0  0  0  0  0  0  0
  152.2642  142.5614  161.2898 H   0  0  0  0  0  0  0  0  0  0  0  0
  153.0081  141.8819  159.8694 H   0  0  0  0  0  0  0  0  0  0  0  0
  152.1737  144.8000  160.2978 H   0  0  0  0  0  0  0  0  0  0  0  0
  153.8162  144.2098  160.1876 H   0  0  0  0  0  0  0  0  0  0  0  0
  153.0180  145.2728  158.0495 H   0  0  0  0  0  0  0  0  0  0  0  0
  153.5100  143.6158  157.8197 H   0  0  0  0  0  0  0  0  0  0  0  0
  151.3441  143.1345  155.8834 H   0  0  0  0  0  0  0  0  0  0  0  0
  152.0170  144.6376  155.9848 H   0  0  0  0  0  0  0  0  0  0  0  0
  152.8256  140.3628  159.0260 H   0  0  0  0  0  0  0  0  0  0  0  0
  150.3798  144.4584  156.0651 H   0  0  0  0  0  0  0  0  0  0  0  0
  1  2  1  0  0  0  0
  1 16  1  0  0  0  0
  1 17  1  0  0  0  0
  1 18  1  0  0  0  0
  2 13  1  0  0  0  0
  2  3  1  0  0  0  0
  3  4  2  0  0  0  0
  3 19  1  0  0  0  0
  4  5  1  0  0  0  0
  4 12  1  0  0  0  0
  5 14  1  0  0  0  0
  5 10  1  0  0  0  0
  5  6  1  0  0  0  0
  6  7  1  0  0  0  0
  7  8  1  0  0  0  0
  7 20  1  0  0  0  0
  7 21  1  0  0  0  0
  8  9  1  0  0  0  0
  8 22  1  0  0  0  0
  8 23  1  0  0  0  0
  9 10  1  0  0  0  0
  9 24  1  0  0  0  0
  9 25  1  0  0  0  0
 10 15  1  0  0  0  0
 10 11  1  0  0  0  0
 11 26  1  0  0  0  0
 11 27  1  0  0  0  0
 11 29  1  0  0  0  0
 12 13  2  0  0  0  0
 12 28  1  0  0  0  0
M  CHG  1  11   1
M  END
> <s_m_source_file>
AV-unprocessed.smi

> <i_m_source_file_index>
2721

> <i_lp_mmshare_version>
43012

> <i_f3d_flags>
0

> <s_epik_input>
W0NIM11uMVtjSF1jKFtjSF1uMSlbQ0BIXTJPW0NIMl1bQ0gyXVtDSDJdW0NAQEhdMltOSDJd

> <s_epik_cmdline>
J2VwaWtfcHl0aG9uJywgJy1waCcsICc3LjAnLCAnLXRuJywgJzgnLCAnLW1hJywgJzIwMCcsICctbWV0YWxfYmluZGluZycsICctaW1hZScsICc8aW5maWxlLm1hZT4nLCAnLW9tYWUnLCAnPG91dGZpbGUubWFlPic=

> <r_lp_tautomer_probability>
1

> <r_epik_Ionization_Penalty>
0.0061467

> <r_epik_Ionization_Penalty_Charging>
0.00611941

> <r_epik_Ionization_Penalty_Neutral>
2.72888e-05

> <r_epik_State_Penalty>
0.00451057

> <r_epik_Charging_Adjusted_Penalty>
0.01063

> <i_epik_Tot_Q>
1

> <i_epik_Tot_abs_Q>
1

> <r_epik_Metal_State_Penalty>
-0

> <b_epik_Metal_Only>
0

> <s_lp_Force_Field>
OPLS_2005

> <r_lp_Energy>
14.6487

> <b_lp_Chiralities_Consistent>
1

> <s_lp_Variant>
AV-unprocessed.smi:2721-3

> <Gold.Version>
5.8.1

> <Gold.Id.Protein>
6NUR|6NUR_protein|mol2

> <Gold.PLP.Fitness>
40.6629

> <Gold.PLP.PLP>
-32.2650

> <Gold.PLP.part.hbond>
-3.0000

> <Gold.PLP.part.metal>
0.0000

> <Gold.PLP.part.buried>
-1.9223

> <Gold.PLP.part.nonpolar>
-26.5778

> <Gold.PLP.part.repulsive>
0.1157

> <Gold.PLP.ligand.clash>
0.0000

> <Gold.PLP.ligand.torsion>
0.3315

> <Gold.PLP.Chemscore.Hbond>
3.0000

> <Gold.PLP.Chemscore.CHOScore>
0.0000

> <Gold.PLP.Chemscore.Metal>
0.0000

> <Gold.Chemscore.Hbonds>
donor molecule, donor type, donor heavy atom, donor atom, acceptor molecule, acceptor atom, score
      L1  H    11    29       P1  8028  2.00
      P1  H  7997  8008       L1    13  0.90

> <Gold.PLP.Chemscore.Internal.Correction>
0.0610

> <Gold.Rescore>
     Score         DG    S(hbond)    S(metal)    S(lipo)     H(rot)  DE(clash)    DE(int)     intcor
     16.42     -16.76       1.07        0.00      87.63       1.00       0.06       0.28       ----

> <Gold.Chemscore.Fitness>
16.4195

> <Gold.Chemscore.DG>
-16.7579

> <Gold.Chemscore.ZeroCoef>
-5.4800

> <Gold.Chemscore.Hbond>
1.0735

> <Gold.Chemscore.Metal>
0.0000

> <Gold.Chemscore.Lipo>
87.6264

> <Gold.Chemscore.Internal_Hbond>
0.0000

> <Gold.Chemscore.DEClash>
0.0598

> <Gold.Chemscore.DEInternal>
0.2785

> <Gold.Chemscore.Rot>
1.0000

> <Gold.Chemscore.Internal.Correction>
   9.000000E+99

> <Gold.Chemscore.Hbonds>
donor molecule, donor type, donor heavy atom, donor atom, acceptor molecule, acceptor atom, score
      L1  H    11    29       P1  8028  0.93
      P1  H  7997  8008       L1    13  0.05

> <Gold.Chemscore.Hbond.Weighted>
-3.5856

> <Gold.Chemscore.Metal.Weighted>
-0.0000

> <Gold.Chemscore.Lipo.Weighted>
-10.2523

> <Gold.Chemscore.Internal_Hbond.Weighted>
0.0000

> <Gold.Chemscore.DEClash.Weighted>
0.0598

> <Gold.Chemscore.DEInternal.Weighted>
0.2785

> <Gold.Chemscore.Rot.Weighted>
2.5600

> <Gold.Chemscore.Internal.Correction.Weighted>
   9.000000E+99

> <Gold.Protein.RotatedTorsions>
[ 6907 6896 6895 6894 ] final  175.30 input  -60.11 | X-H torsion
[ 7974 7965 7964 7962 ] final  135.61 input  175.53 | X-H torsion
[ 8008 7997 7996 7995 ] final  -58.79 input   59.86 | X-H torsion
[ 10167 10162 10161 10158 ] final  -87.97 input  -65.29 | X-H torsion
[ 10718 10713 10712 10709 ] final   19.50 input   66.30 | X-H torsion
[ 10763 10752 10751 10750 ] final    1.99 input  -60.55 | X-H torsion
[ 11005 11000 10999 10996 ] final   -2.67 input  -57.11 | X-H torsion

> <Gold.Protein.ActiveResidues>
 VAL166  LYS551  ARG553  GLY616  TRP617  ASP618  TYR619  PRO620  LYS621  CYS622 
 ASP623  PHE694  ASN695  SER759  ASP760  ASP761  ALA762  ILE779  LEU786  VAL792 
 PHE793  MET794  SER795  GLU796  ALA797  LYS798  CYS799  TRP800  GLU811  SER814 

> <Gold.Protein.RotatedAtoms>
  151.7384  133.3321  159.3358 H   0  0  0  0  0  0  0  0  0  0  0  0  # atno 6907 bound_to 6896
  150.7584  134.6300  159.6191 H   0  0  0  0  0  0  0  0  0  0  0  0  # atno 6908 bound_to 6896
  152.3547  134.6959  160.0277 H   0  0  0  0  0  0  0  0  0  0  0  0  # atno 6909 bound_to 6896
  144.9646  139.4672  143.5462 H   0  0  0  0  0  0  0  0  0  0  0  0  # atno 7974 bound_to 7965
  154.4324  140.1076  156.6012 H   0  0  0  0  0  0  0  0  0  0  0  0  # atno 8008 bound_to 7997
  155.5909  140.3492  155.4547 H   0  0  0  0  0  0  0  0  0  0  0  0  # atno 8009 bound_to 7997
  156.0247  140.1247  157.0310 H   0  0  0  0  0  0  0  0  0  0  0  0  # atno 8010 bound_to 7997
  140.3792  143.2757  151.9405 H   0  0  0  0  0  0  0  0  0  0  0  0  # atno 10167 bound_to 10162
  157.1113  130.6510  149.5898 H   0  0  0  0  0  0  0  0  0  0  0  0  # atno 10718 bound_to 10713
  153.3011  135.6956  153.7202 H   0  0  0  0  0  0  0  0  0  0  0  0  # atno 10763 bound_to 10752
  153.6116  135.3443  155.2981 H   0  0  0  0  0  0  0  0  0  0  0  0  # atno 10764 bound_to 10752
  154.8551  135.4365  154.2122 H   0  0  0  0  0  0  0  0  0  0  0  0  # atno 10765 bound_to 10752
  140.6610  133.9320  155.8436 H   0  0  0  0  0  0  0  0  0  0  0  0  # atno 11005 bound_to 11000
  146.3364  139.8819  142.8823 LP  0  0  0  0  0  0  0  0  0  0  0  0  # atno 17320 bound_to 7965
  145.2648  141.0089  143.3805 LP  0  0  0  0  0  0  0  0  0  0  0  0  # atno 17321 bound_to 7965
  139.4797  144.5834  151.7894 LP  0  0  0  0  0  0  0  0  0  0  0  0  # atno 17342 bound_to 10162
  140.4955  144.1247  150.5959 LP  0  0  0  0  0  0  0  0  0  0  0  0  # atno 17343 bound_to 10162
  155.9850  130.4877  150.7009 LP  0  0  0  0  0  0  0  0  0  0  0  0  # atno 17370 bound_to 10713
  157.4557  131.0877  151.0799 LP  0  0  0  0  0  0  0  0  0  0  0  0  # atno 17371 bound_to 10713
  141.0465  134.0546  157.3837 LP  0  0  0  0  0  0  0  0  0  0  0  0  # atno 17394 bound_to 11000
  139.9013  135.0165  156.7282 LP  0  0  0  0  0  0  0  0  0  0  0  0  # atno 17395 bound_to 11000

$$$$
