AV-unprocessed.smi:1766|AV-procd|sdf|7135|dock2
  -GOLD-   22720 8373D 1   1.00000     0.00000
 Structure written by MMmdl.
 39 41  0  0  0  0  0  0  0  0  1 V2000
  151.2790  137.3176  153.9660 N   0  0  0  0  0  0  0  0  0  0  0  0
  151.8865  137.6315  155.1138 C   0  0  0  0  0  0  0  0  0  0  0  0
  152.2541  136.7762  155.9163 O   0  0  0  0  0  0  0  0  0  0  0  0
  152.1284  139.1174  155.3968 C   0  0  0  0  0  0  0  0  0  0  0  0
  150.8202  139.8504  155.2871 C   0  0  0  0  0  0  0  0  0  0  0  0
  150.0242  139.7051  154.2252 N   0  0  0  0  0  0  0  0  0  0  0  0
  148.9639  140.5389  154.5202 C   0  0  0  0  0  0  0  0  0  0  0  0
  147.7884  140.8244  153.7892 C   0  0  0  0  0  0  0  0  0  0  0  0
  146.8319  141.7264  154.2997 C   0  0  0  0  0  0  0  0  0  0  0  0
  147.0364  142.3542  155.5456 C   0  0  0  0  0  0  0  0  0  0  0  0
  148.2008  142.0834  156.2899 C   0  0  0  0  0  0  0  0  0  0  0  0
  149.1521  141.1822  155.7757 C   0  0  0  0  0  0  0  0  0  0  0  0
  150.3749  140.7097  156.2411 N   0  0  0  0  0  0  0  0  0  0  0  0
  151.0075  141.0874  157.4985 C   0  0  0  0  0  0  0  0  0  0  0  0
  150.7467  142.5594  157.8751 C   0  0  2  0  0  0  0  0  0  0  0  0
  151.2593  143.4160  156.8727 O   0  0  0  0  0  0  0  0  0  0  0  0
  151.3107  142.8860  159.2488 C   0  0  0  0  0  0  0  0  0  0  0  0
  152.0463  141.9142  159.9605 C   0  0  0  0  0  0  0  0  0  0  0  0
  152.5749  142.2136  161.2314 C   0  0  0  0  0  0  0  0  0  0  0  0
  152.3736  143.4875  161.7966 C   0  0  0  0  0  0  0  0  0  0  0  0
  152.8816  143.7745  163.0185 F   0  0  0  0  0  0  0  0  0  0  0  0
  151.6449  144.4628  161.0893 C   0  0  0  0  0  0  0  0  0  0  0  0
  151.1156  144.1637  159.8187 C   0  0  0  0  0  0  0  0  0  0  0  0
  151.0916  136.3502  153.7456 H   0  0  0  0  0  0  0  0  0  0  0  0
  151.0003  138.0487  153.3274 H   0  0  0  0  0  0  0  0  0  0  0  0
  152.5710  139.2563  156.3831 H   0  0  0  0  0  0  0  0  0  0  0  0
  152.8373  139.5239  154.6739 H   0  0  0  0  0  0  0  0  0  0  0  0
  147.6228  140.3490  152.8339 H   0  0  0  0  0  0  0  0  0  0  0  0
  145.9375  141.9376  153.7324 H   0  0  0  0  0  0  0  0  0  0  0  0
  146.2990  143.0440  155.9293 H   0  0  0  0  0  0  0  0  0  0  0  0
  148.3615  142.5630  157.2441 H   0  0  0  0  0  0  0  0  0  0  0  0
  150.6174  140.4326  158.2786 H   0  0  0  0  0  0  0  0  0  0  0  0
  152.0766  140.8858  157.4497 H   0  0  0  0  0  0  0  0  0  0  0  0
  149.6690  142.7262  157.9008 H   0  0  0  0  0  0  0  0  0  0  0  0
  150.5483  143.9363  156.5310 H   0  0  0  0  0  0  0  0  0  0  0  0
  152.2093  140.9348  159.5348 H   0  0  0  0  0  0  0  0  0  0  0  0
  153.1360  141.4661  161.7725 H   0  0  0  0  0  0  0  0  0  0  0  0
  151.4928  145.4412  161.5204 H   0  0  0  0  0  0  0  0  0  0  0  0
  150.5607  144.9190  159.2812 H   0  0  0  0  0  0  0  0  0  0  0  0
  1  2  1  0  0  0  0
  1 24  1  0  0  0  0
  1 25  1  0  0  0  0
  2  3  2  0  0  0  0
  2  4  1  0  0  0  0
  4  5  1  0  0  0  0
  4 26  1  0  0  0  0
  4 27  1  0  0  0  0
  5 13  1  0  0  0  0
  5  6  2  0  0  0  0
  6  7  1  0  0  0  0
  7 12  2  0  0  0  0
  7  8  1  0  0  0  0
  8  9  2  0  0  0  0
  8 28  1  0  0  0  0
  9 10  1  0  0  0  0
  9 29  1  0  0  0  0
 10 11  2  0  0  0  0
 10 30  1  0  0  0  0
 11 12  1  0  0  0  0
 11 31  1  0  0  0  0
 12 13  1  0  0  0  0
 13 14  1  0  0  0  0
 14 15  1  0  0  0  0
 14 32  1  0  0  0  0
 14 33  1  0  0  0  0
 15 16  1  0  0  0  0
 15 17  1  0  0  0  0
 15 34  1  0  0  0  0
 16 35  1  0  0  0  0
 17 23  1  0  0  0  0
 17 18  2  0  0  0  0
 18 19  1  0  0  0  0
 18 36  1  0  0  0  0
 19 20  2  0  0  0  0
 19 37  1  0  0  0  0
 20 21  1  0  0  0  0
 20 22  1  0  0  0  0
 22 23  2  0  0  0  0
 22 38  1  0  0  0  0
 23 39  1  0  0  0  0
M  END
> <s_m_source_file>
AV-unprocessed.smi

> <i_m_source_file_index>
1766

> <i_lp_mmshare_version>
43012

> <i_f3d_flags>
0

> <s_epik_input>
W2NIXTFbY0hdW2NIXVtjSF1jKGMxMiluKGMobjIpW0NIMl1DKD1PKVtOSDJdKVtDSDJdW0NASF0oW09IXSljM1tjSF1bY0hdYyhGKVtjSF1bY0hdMw==

> <s_epik_cmdline>
J2VwaWtfcHl0aG9uJywgJy1waCcsICc3LjAnLCAnLXRuJywgJzgnLCAnLW1hJywgJzIwMCcsICctbWV0YWxfYmluZGluZycsICctaW1hZScsICc8aW5maWxlLm1hZT4nLCAnLW9tYWUnLCAnPG91dGZpbGUubWFlPic=

> <r_epik_Ionization_Penalty>
0.0366901

> <r_epik_Ionization_Penalty_Charging>
0

> <r_epik_Ionization_Penalty_Neutral>
0.0366901

> <r_epik_State_Penalty>
0.0306642

> <r_epik_Charging_Adjusted_Penalty>
0.0306642

> <i_epik_Tot_Q>
0

> <i_epik_Tot_abs_Q>
0

> <r_epik_Metal_State_Penalty>
0.028853

> <b_epik_Metal_Only>
0

> <s_lp_Force_Field>
OPLS_2005

> <r_lp_Energy>
12.4574

> <b_lp_Chiralities_Consistent>
1

> <s_lp_Variant>
AV-unprocessed.smi:1766-1

> <Gold.Version>
5.8.1

> <Gold.Id.Protein>
6NUR|6NUR_protein|mol2

> <Gold.PLP.Fitness>
55.3269

> <Gold.PLP.PLP>
-49.5345

> <Gold.PLP.part.hbond>
-4.5291

> <Gold.PLP.part.metal>
0.0000

> <Gold.PLP.part.buried>
-0.7154

> <Gold.PLP.part.nonpolar>
-45.5761

> <Gold.PLP.part.repulsive>
1.3389

> <Gold.PLP.ligand.clash>
0.0000

> <Gold.PLP.ligand.torsion>
0.5040

> <Gold.PLP.Chemscore.Hbond>
2.2285

> <Gold.PLP.Chemscore.CHOScore>
0.0000

> <Gold.PLP.Chemscore.Metal>
0.0000

> <Gold.Chemscore.Hbonds>
donor molecule, donor type, donor heavy atom, donor atom, acceptor molecule, acceptor atom, score
      L1  H     1    24       P1  7949  0.09
      L1  H    16    35       P1  8028  1.00
      P1  H 10752 10764       L1     3  0.93

> <Gold.PLP.Chemscore.Internal.Correction>
0.1148

> <Gold.Rescore>
     Score         DG    S(hbond)    S(metal)    S(lipo)     H(rot)  DE(clash)    DE(int)     intcor
     14.07     -17.78       1.92        0.00     115.57       2.99       0.84       2.87       ----

> <Gold.Chemscore.Fitness>
14.0706

> <Gold.Chemscore.DG>
-17.7790

> <Gold.Chemscore.ZeroCoef>
-5.4800

> <Gold.Chemscore.Hbond>
1.9230

> <Gold.Chemscore.Metal>
0.0000

> <Gold.Chemscore.Lipo>
115.5671

> <Gold.Chemscore.Internal_Hbond>
0.0000

> <Gold.Chemscore.DEClash>
0.8418

> <Gold.Chemscore.DEInternal>
2.8667

> <Gold.Chemscore.Rot>
2.9864

> <Gold.Chemscore.Internal.Correction>
   9.000000E+99

> <Gold.Chemscore.Hbonds>
donor molecule, donor type, donor heavy atom, donor atom, acceptor molecule, acceptor atom, score
      L1  H     1    24       P1  7949  0.03
      L1  H    16    35       P1  8028  0.94
      P1  H 10752 10764       L1     3  0.27

> <Gold.Chemscore.Hbond.Weighted>
-6.4227

> <Gold.Chemscore.Metal.Weighted>
-0.0000

> <Gold.Chemscore.Lipo.Weighted>
-13.5214

> <Gold.Chemscore.Internal_Hbond.Weighted>
0.0000

> <Gold.Chemscore.DEClash.Weighted>
0.8418

> <Gold.Chemscore.DEInternal.Weighted>
2.8667

> <Gold.Chemscore.Rot.Weighted>
7.6451

> <Gold.Chemscore.Internal.Correction.Weighted>
   9.000000E+99

> <Gold.Protein.RotatedTorsions>
[ 6907 6896 6895 6894 ] final   72.66 input  -60.11 | X-H torsion
[ 7974 7965 7964 7962 ] final   20.79 input  175.53 | X-H torsion
[ 8008 7997 7996 7995 ] final   74.66 input   59.86 | X-H torsion
[ 10167 10162 10161 10158 ] final  147.97 input  -65.29 | X-H torsion
[ 10718 10713 10712 10709 ] final -162.85 input   66.30 | X-H torsion
[ 10763 10752 10751 10750 ] final  -48.52 input  -60.55 | X-H torsion
[ 11005 11000 10999 10996 ] final  108.58 input  -57.11 | X-H torsion

> <Gold.Protein.ActiveResidues>
 VAL166  LYS551  ARG553  GLY616  TRP617  ASP618  TYR619  PRO620  LYS621  CYS622 
 ASP623  PHE694  ASN695  SER759  ASP760  ASP761  ALA762  ILE779  LEU786  VAL792 
 PHE793  MET794  SER795  GLU796  ALA797  LYS798  CYS799  TRP800  GLU811  SER814 

> <Gold.Protein.RotatedAtoms>
  152.4880  134.4537  159.9582 H   0  0  0  0  0  0  0  0  0  0  0  0  # atno 6907 bound_to 6896
  151.4530  133.3606  159.2806 H   0  0  0  0  0  0  0  0  0  0  0  0  # atno 6908 bound_to 6896
  150.9008  134.8445  159.7419 H   0  0  0  0  0  0  0  0  0  0  0  0  # atno 6909 bound_to 6896
  146.2097  139.8119  142.8698 H   0  0  0  0  0  0  0  0  0  0  0  0  # atno 7974 bound_to 7965
  155.8017  140.3476  155.5406 H   0  0  0  0  0  0  0  0  0  0  0  0  # atno 8008 bound_to 7997
  155.8531  140.0959  157.1682 H   0  0  0  0  0  0  0  0  0  0  0  0  # atno 8009 bound_to 7997
  154.4008  140.1372  156.3856 H   0  0  0  0  0  0  0  0  0  0  0  0  # atno 8010 bound_to 7997
  139.4882  144.5715  151.7046 H   0  0  0  0  0  0  0  0  0  0  0  0  # atno 10167 bound_to 10162
  156.6163  130.8871  151.2947 H   0  0  0  0  0  0  0  0  0  0  0  0  # atno 10718 bound_to 10713
  154.0792  135.6593  153.4835 H   0  0  0  0  0  0  0  0  0  0  0  0  # atno 10763 bound_to 10752
  153.0362  135.5176  154.7491 H   0  0  0  0  0  0  0  0  0  0  0  0  # atno 10764 bound_to 10752
  154.6580  135.3011  154.9870 H   0  0  0  0  0  0  0  0  0  0  0  0  # atno 10765 bound_to 10752
  139.8846  134.9434  156.5994 H   0  0  0  0  0  0  0  0  0  0  0  0  # atno 11005 bound_to 11000
  145.3187  141.0238  143.3513 LP  0  0  0  0  0  0  0  0  0  0  0  0  # atno 17320 bound_to 7965
  144.8883  139.4810  143.6690 LP  0  0  0  0  0  0  0  0  0  0  0  0  # atno 17321 bound_to 7965
  140.5303  144.0741  150.6051 LP  0  0  0  0  0  0  0  0  0  0  0  0  # atno 17342 bound_to 10162
  140.3729  143.2844  152.0258 LP  0  0  0  0  0  0  0  0  0  0  0  0  # atno 17343 bound_to 10162
  157.7240  130.9597  150.1557 LP  0  0  0  0  0  0  0  0  0  0  0  0  # atno 17370 bound_to 10713
  156.2348  130.3685  149.8403 LP  0  0  0  0  0  0  0  0  0  0  0  0  # atno 17371 bound_to 10713
  140.7895  133.8594  155.8634 LP  0  0  0  0  0  0  0  0  0  0  0  0  # atno 17394 bound_to 11000
  140.9690  134.1556  157.4592 LP  0  0  0  0  0  0  0  0  0  0  0  0  # atno 17395 bound_to 11000

$$$$
