AV-unprocessed.smi:2061|AV-procd|sdf|8395|dock3
  -GOLD-   2272011 83D 1   1.00000     0.00000
 Structure written by MMmdl.
 45 46  0  0  0  0  0  0  0  0  3 V2000
  148.8875  128.2675  153.1924 C   0  0  0  0  0  0  0  0  0  0  0  0
  149.3802  129.3996  154.0268 C   0  0  0  0  0  0  0  0  0  0  0  0
  149.1542  130.7467  153.9939 C   0  0  0  0  0  0  0  0  0  0  0  0
  149.9403  131.2312  155.0732 C   0  0  0  0  0  0  0  0  0  0  0  0
  149.9798  132.6186  155.3733 N   0  0  0  0  0  0  0  0  0  0  0  0
  150.3168  133.2227  156.5273 C   0  0  0  0  0  0  0  0  0  0  0  0
  150.6264  132.5499  157.5178 O   0  0  0  0  0  0  0  0  0  0  0  0
  150.2647  134.5793  156.4305 N   0  5  0  0  0  0  0  0  0  0  0  0
  150.4647  135.3324  155.1927 C   0  0  0  0  0  0  0  0  0  0  0  0
  149.6763  136.6746  155.2399 C   0  0  1  0  0  0  0  0  0  0  0  0
  149.7640  137.3119  156.6572 C   0  0  0  0  0  0  0  0  0  0  0  0
  150.1345  137.5787  154.1248 N   0  3  1  0  0  0  0  0  0  0  0  0
  149.5275  138.9430  154.1355 C   0  0  0  0  0  0  0  0  0  0  0  0
  150.2371  139.8760  155.1397 C   0  0  2  0  0  0  0  0  0  0  0  0
  149.6780  141.3021  155.0922 C   0  0  0  0  0  0  0  0  0  0  0  0
  151.6224  139.9343  154.8211 O   0  0  0  0  0  0  0  0  0  0  0  0
  152.2568  138.6639  154.9070 C   0  0  2  0  0  0  0  0  0  0  0  0
  153.7509  138.8605  154.6295 C   0  0  0  0  0  0  0  0  0  0  0  0
  151.5994  137.7083  153.8882 C   0  0  0  0  0  0  0  0  0  0  0  0
  150.5870  130.2648  155.7082 N   0  0  0  0  0  0  0  0  0  0  0  0
  150.2309  129.0865  155.0414 O   0  0  0  0  0  0  0  0  0  0  0  0
  148.2608  128.6285  152.3768 H   0  0  0  0  0  0  0  0  0  0  0  0
  148.2969  127.5748  153.7920 H   0  0  0  0  0  0  0  0  0  0  0  0
  149.7216  127.7158  152.7586 H   0  0  0  0  0  0  0  0  0  0  0  0
  148.5282  131.2961  153.3067 H   0  0  0  0  0  0  0  0  0  0  0  0
  149.7310  133.2351  154.6142 H   0  0  0  0  0  0  0  0  0  0  0  0
  151.5184  135.5426  155.0063 H   0  0  0  0  0  0  0  0  0  0  0  0
  150.1304  134.7553  154.3299 H   0  0  0  0  0  0  0  0  0  0  0  0
  148.6217  136.4582  155.0660 H   0  0  0  0  0  0  0  0  0  0  0  0
  149.4054  136.6385  157.4386 H   0  0  0  0  0  0  0  0  0  0  0  0
  149.1405  138.1997  156.7453 H   0  0  0  0  0  0  0  0  0  0  0  0
  150.7835  137.5984  156.9234 H   0  0  0  0  0  0  0  0  0  0  0  0
  149.6175  139.3589  153.1310 H   0  0  0  0  0  0  0  0  0  0  0  0
  148.4588  138.9086  154.3471 H   0  0  0  0  0  0  0  0  0  0  0  0
  150.1187  139.4992  156.1565 H   0  0  0  0  0  0  0  0  0  0  0  0
  148.6165  141.3149  155.3409 H   0  0  0  0  0  0  0  0  0  0  0  0
  149.7957  141.7411  154.1012 H   0  0  0  0  0  0  0  0  0  0  0  0
  150.1928  141.9464  155.8054 H   0  0  0  0  0  0  0  0  0  0  0  0
  152.1438  138.2818  155.9220 H   0  0  0  0  0  0  0  0  0  0  0  0
  154.2889  137.9143  154.6920 H   0  0  0  0  0  0  0  0  0  0  0  0
  154.1952  139.5436  155.3539 H   0  0  0  0  0  0  0  0  0  0  0  0
  153.9171  139.2759  153.6351 H   0  0  0  0  0  0  0  0  0  0  0  0
  152.1018  136.7428  153.8553 H   0  0  0  0  0  0  0  0  0  0  0  0
  151.7317  138.1223  152.8874 H   0  0  0  0  0  0  0  0  0  0  0  0
  149.7791  137.1230  153.2961 H   0  0  0  0  0  0  0  0  0  0  0  0
  1  2  1  0  0  0  0
  1 22  1  0  0  0  0
  1 23  1  0  0  0  0
  1 24  1  0  0  0  0
  2 21  1  0  0  0  0
  2  3  2  0  0  0  0
  3  4  1  0  0  0  0
  3 25  1  0  0  0  0
  4  5  1  0  0  0  0
  4 20  2  0  0  0  0
  5  6  1  0  0  0  0
  5 26  1  0  0  0  0
  6  7  2  0  0  0  0
  6  8  1  0  0  0  0
  8  9  1  0  0  0  0
  9 10  1  0  0  0  0
  9 27  1  0  0  0  0
  9 28  1  0  0  0  0
 10 11  1  0  0  0  0
 10 12  1  0  0  0  0
 10 29  1  0  0  0  0
 11 30  1  0  0  0  0
 11 31  1  0  0  0  0
 11 32  1  0  0  0  0
 12 19  1  0  0  0  0
 12 13  1  0  0  0  0
 12 45  1  0  0  0  0
 13 14  1  0  0  0  0
 13 33  1  0  0  0  0
 13 34  1  0  0  0  0
 14 15  1  0  0  0  0
 14 16  1  0  0  0  0
 14 35  1  0  0  0  0
 15 36  1  0  0  0  0
 15 37  1  0  0  0  0
 15 38  1  0  0  0  0
 16 17  1  0  0  0  0
 17 18  1  0  0  0  0
 17 19  1  0  0  0  0
 17 39  1  0  0  0  0
 18 40  1  0  0  0  0
 18 41  1  0  0  0  0
 18 42  1  0  0  0  0
 19 43  1  0  0  0  0
 19 44  1  0  0  0  0
 20 21  1  0  0  0  0
M  CHG  1   8  -1
M  CHG  1  12   1
M  END
> <s_m_source_file>
AV-unprocessed.smi

> <i_m_source_file_index>
2061

> <i_lp_mmshare_version>
43012

> <i_f3d_flags>
0

> <s_epik_input>
W0NIM11jMVtjSF1jKG5vMSlbTkhdQyg9TylbTkhdW0NIMl1bQ0BIXShbQ0gzXSlOMltDSDJdW0NAQEhdKFtDSDNdKU9bQ0BASF0oW0NIM10pW0NIMl0y

> <s_epik_cmdline>
J2VwaWtfcHl0aG9uJywgJy1waCcsICc3LjAnLCAnLXRuJywgJzgnLCAnLW1hJywgJzIwMCcsICctbWV0YWxfYmluZGluZycsICctaW1hZScsICc8aW5maWxlLm1hZT4nLCAnLW9tYWUnLCAnPG91dGZpbGUubWFlPic=

> <r_epik_Ionization_Penalty>
6.8073

> <r_epik_Ionization_Penalty_Charging>
6.80729

> <r_epik_Ionization_Penalty_Neutral>
5.65391e-06

> <r_epik_State_Penalty>
7.47323

> <r_epik_Charging_Adjusted_Penalty>
14.2805

> <i_epik_Tot_Q>
0

> <i_epik_Tot_abs_Q>
2

> <r_epik_Metal_State_Penalty>
3.40035

> <b_epik_Metal_Only>
1

> <s_lp_Force_Field>
OPLS_2005

> <r_lp_Energy>
21.1883

> <b_lp_Chiralities_Consistent>
1

> <s_lp_Variant>
AV-unprocessed.smi:2061-36

> <Gold.Version>
5.8.1

> <Gold.Id.Protein>
6NUR|6NUR_protein|mol2

> <Gold.PLP.Fitness>
42.1789

> <Gold.PLP.PLP>
-31.5355

> <Gold.PLP.part.hbond>
-3.2874

> <Gold.PLP.part.metal>
0.0000

> <Gold.PLP.part.buried>
-0.6371

> <Gold.PLP.part.nonpolar>
-28.1584

> <Gold.PLP.part.repulsive>
0.1812

> <Gold.PLP.ligand.clash>
0.0000

> <Gold.PLP.ligand.torsion>
0.7653

> <Gold.PLP.Chemscore.Hbond>
4.0000

> <Gold.PLP.Chemscore.CHOScore>
0.0000

> <Gold.PLP.Chemscore.Metal>
0.0000

> <Gold.Chemscore.Hbonds>
donor molecule, donor type, donor heavy atom, donor atom, acceptor molecule, acceptor atom, score
      L1  H    12    45       P1  7948  2.00
      P1  H  6896  6908       L1     7  1.00
      P1  H  7989  7998       L1    16  1.00

> <Gold.PLP.Chemscore.Internal.Correction>
0.1740

> <Gold.Rescore>
     Score         DG    S(hbond)    S(metal)    S(lipo)     H(rot)  DE(clash)    DE(int)     intcor
     14.96     -18.98       2.78        0.00      69.91       1.56       0.85       3.17       ----

> <Gold.Chemscore.Fitness>
14.9587

> <Gold.Chemscore.DG>
-18.9778

> <Gold.Chemscore.ZeroCoef>
-5.4800

> <Gold.Chemscore.Hbond>
2.7843

> <Gold.Chemscore.Metal>
0.0000

> <Gold.Chemscore.Lipo>
69.9069

> <Gold.Chemscore.Internal_Hbond>
0.0000

> <Gold.Chemscore.DEClash>
0.8541

> <Gold.Chemscore.DEInternal>
3.1651

> <Gold.Chemscore.Rot>
1.5550

> <Gold.Chemscore.Internal.Correction>
   9.000000E+99

> <Gold.Chemscore.Hbonds>
donor molecule, donor type, donor heavy atom, donor atom, acceptor molecule, acceptor atom, score
      L1  H    12    45       P1  7948  0.50
      P1  H  6896  6908       L1     7  0.96
      P1  H  7989  7998       L1    16  0.38

> <Gold.Chemscore.Hbond.Weighted>
-9.2996

> <Gold.Chemscore.Metal.Weighted>
-0.0000

> <Gold.Chemscore.Lipo.Weighted>
-8.1791

> <Gold.Chemscore.Internal_Hbond.Weighted>
0.0000

> <Gold.Chemscore.DEClash.Weighted>
0.8541

> <Gold.Chemscore.DEInternal.Weighted>
3.1651

> <Gold.Chemscore.Rot.Weighted>
3.9809

> <Gold.Chemscore.Internal.Correction.Weighted>
   9.000000E+99

> <Gold.Protein.RotatedTorsions>
[ 6907 6896 6895 6894 ] final   87.55 input  -60.11 | X-H torsion
[ 7974 7965 7964 7962 ] final  153.96 input  175.53 | X-H torsion
[ 8008 7997 7996 7995 ] final  -47.67 input   59.86 | X-H torsion
[ 10167 10162 10161 10158 ] final  -89.75 input  -65.29 | X-H torsion
[ 10718 10713 10712 10709 ] final -126.03 input   66.30 | X-H torsion
[ 10763 10752 10751 10750 ] final  108.96 input  -60.55 | X-H torsion
[ 11005 11000 10999 10996 ] final -102.10 input  -57.11 | X-H torsion

> <Gold.Protein.ActiveResidues>
 VAL166  LYS551  ARG553  GLY616  TRP617  ASP618  TYR619  PRO620  LYS621  CYS622 
 ASP623  PHE694  ASN695  SER759  ASP760  ASP761  ALA762  ILE779  LEU786  VAL792 
 PHE793  MET794  SER795  GLU796  ALA797  LYS798  CYS799  TRP800  GLU811  SER814 

> <Gold.Protein.RotatedAtoms>
  152.5413  134.2258  159.8805 H   0  0  0  0  0  0  0  0  0  0  0  0  # atno 6907 bound_to 6896
  151.2233  133.4484  159.2609 H   0  0  0  0  0  0  0  0  0  0  0  0  # atno 6908 bound_to 6896
  151.0785  134.9856  159.8400 H   0  0  0  0  0  0  0  0  0  0  0  0  # atno 6909 bound_to 6896
  144.8120  139.6870  143.6137 H   0  0  0  0  0  0  0  0  0  0  0  0  # atno 7974 bound_to 7965
  154.4019  140.1340  156.4213 H   0  0  0  0  0  0  0  0  0  0  0  0  # atno 8008 bound_to 7997
  155.7639  140.3485  155.5192 H   0  0  0  0  0  0  0  0  0  0  0  0  # atno 8009 bound_to 7997
  155.8832  140.0991  157.1461 H   0  0  0  0  0  0  0  0  0  0  0  0  # atno 8010 bound_to 7997
  140.3617  143.2839  151.9607 H   0  0  0  0  0  0  0  0  0  0  0  0  # atno 10167 bound_to 10162
  156.1729  130.6679  151.0203 H   0  0  0  0  0  0  0  0  0  0  0  0  # atno 10718 bound_to 10713
  153.4280  135.3795  155.2153 H   0  0  0  0  0  0  0  0  0  0  0  0  # atno 10763 bound_to 10752
  154.8748  135.3833  154.4303 H   0  0  0  0  0  0  0  0  0  0  0  0  # atno 10764 bound_to 10752
  153.4832  135.7088  153.5989 H   0  0  0  0  0  0  0  0  0  0  0  0  # atno 10765 bound_to 10752
  141.1203  133.8531  157.1317 H   0  0  0  0  0  0  0  0  0  0  0  0  # atno 11005 bound_to 11000
  146.2420  139.6020  142.9485 LP  0  0  0  0  0  0  0  0  0  0  0  0  # atno 17320 bound_to 7965
  145.5302  141.0427  143.2387 LP  0  0  0  0  0  0  0  0  0  0  0  0  # atno 17321 bound_to 7965
  139.4813  144.5987  151.7645 LP  0  0  0  0  0  0  0  0  0  0  0  0  # atno 17342 bound_to 10162
  140.5121  144.1010  150.5998 LP  0  0  0  0  0  0  0  0  0  0  0  0  # atno 17343 bound_to 10162
  157.6815  131.0836  150.7357 LP  0  0  0  0  0  0  0  0  0  0  0  0  # atno 17370 bound_to 10713
  156.7415  130.4740  149.5476 LP  0  0  0  0  0  0  0  0  0  0  0  0  # atno 17371 bound_to 10713
  140.0156  134.9969  157.0485 LP  0  0  0  0  0  0  0  0  0  0  0  0  # atno 17394 bound_to 11000
  140.4526  134.1566  155.7183 LP  0  0  0  0  0  0  0  0  0  0  0  0  # atno 17395 bound_to 11000

$$$$
