AV-unprocessed.smi:197|AV-procd|sdf|1551|dock10
  -GOLD-   2262019423D 1   1.00000     0.00000
 Structure written by MMmdl.
 54 57  0  0  0  0  0  0  0  0  1 V2000
  152.0136  144.4246  158.6762 C   0  0  0  0  0  0  0  0  0  0  0  0
  151.5032  143.1112  158.5054 O   0  0  0  0  0  0  0  0  0  0  0  0
  151.2256  142.7637  157.1558 C   0  0  0  0  0  0  0  0  0  0  0  0
  151.1252  141.2386  156.9675 C   0  0  0  0  0  0  0  0  0  0  0  0
  149.7013  140.7475  156.6073 C   0  0  1  0  0  0  0  0  0  0  0  0
  149.0948  141.4886  155.3954 C   0  0  0  0  0  0  0  0  0  0  0  0
  149.7887  141.1318  154.2037 O   0  0  0  0  0  0  0  0  0  0  0  0
  149.6675  139.7435  153.9132 C   0  0  0  0  0  0  0  0  0  0  0  0
  150.2729  138.9173  155.0591 C   0  0  0  0  0  0  0  0  0  0  0  0
  149.6698  139.3071  156.3332 N   0  0  0  0  0  0  0  0  0  0  0  0
  149.8342  138.4797  157.3998 C   0  0  0  0  0  0  0  0  0  0  0  0
  150.8156  138.7387  158.3055 N   0  0  0  0  0  0  0  0  0  0  0  0
  150.9778  137.9529  159.3735 C   0  0  0  0  0  0  0  0  0  0  0  0
  150.2819  136.8711  159.7256 N   0  0  0  0  0  0  0  0  0  0  0  0
  149.3010  136.5978  158.8189 C   0  0  0  0  0  0  0  0  0  0  0  0
  149.0132  137.3396  157.6375 C   0  0  0  0  0  0  0  0  0  0  0  0
  147.9579  136.7442  156.9558 N   0  0  0  0  0  0  0  0  0  0  0  0
  147.6309  135.7223  157.6982 C   0  0  0  0  0  0  0  0  0  0  0  0
  148.3807  135.5645  158.8413 N   0  0  0  0  0  0  0  0  0  0  0  0
  148.2293  134.5203  159.8431 C   0  0  0  0  0  0  0  0  0  0  0  0
  147.3580  134.9503  161.0524 C   0  0  2  0  0  0  0  0  0  0  0  0
  146.0990  135.3703  160.5520 O   0  0  0  0  0  0  0  0  0  0  0  0
  147.9495  136.1038  161.8561 C   0  0  0  0  0  0  0  0  0  0  0  0
  147.3634  135.8871  163.2427 C   0  0  0  0  0  0  0  0  0  0  0  0
  147.4170  134.4785  163.3838 O   0  0  0  0  0  0  0  0  0  0  0  0
  147.0943  133.8672  162.1364 C   0  0  2  0  0  0  0  0  0  0  0  0
  147.9202  132.5750  162.0350 C   0  0  0  0  0  0  0  0  0  0  0  0
  152.2532  144.5847  159.7273 H   0  0  0  0  0  0  0  0  0  0  0  0
  151.2907  145.1860  158.3849 H   0  0  0  0  0  0  0  0  0  0  0  0
  152.9281  144.5713  158.1002 H   0  0  0  0  0  0  0  0  0  0  0  0
  150.3216  143.2646  156.8055 H   0  0  0  0  0  0  0  0  0  0  0  0
  152.0469  143.1550  156.5570 H   0  0  0  0  0  0  0  0  0  0  0  0
  151.8389  140.9191  156.2076 H   0  0  0  0  0  0  0  0  0  0  0  0
  151.4373  140.7557  157.8924 H   0  0  0  0  0  0  0  0  0  0  0  0
  149.0589  140.9613  157.4592 H   0  0  0  0  0  0  0  0  0  0  0  0
  148.0374  141.2397  155.2898 H   0  0  0  0  0  0  0  0  0  0  0  0
  149.1396  142.5688  155.5254 H   0  0  0  0  0  0  0  0  0  0  0  0
  148.6184  139.4845  153.7616 H   0  0  0  0  0  0  0  0  0  0  0  0
  150.1867  139.5277  152.9794 H   0  0  0  0  0  0  0  0  0  0  0  0
  150.1014  137.8570  154.8681 H   0  0  0  0  0  0  0  0  0  0  0  0
  151.3522  139.0681  155.1017 H   0  0  0  0  0  0  0  0  0  0  0  0
  151.7781  138.2328  160.0425 H   0  0  0  0  0  0  0  0  0  0  0  0
  146.8248  135.0531  157.4340 H   0  0  0  0  0  0  0  0  0  0  0  0
  147.7988  133.6441  159.3567 H   0  0  0  0  0  0  0  0  0  0  0  0
  149.2276  134.2313  160.1725 H   0  0  0  0  0  0  0  0  0  0  0  0
  145.8523  134.7949  159.8440 H   0  0  0  0  0  0  0  0  0  0  0  0
  149.0335  136.0015  161.9157 H   0  0  0  0  0  0  0  0  0  0  0  0
  147.7304  137.0896  161.4436 H   0  0  0  0  0  0  0  0  0  0  0  0
  147.9298  136.3917  164.0255 H   0  0  0  0  0  0  0  0  0  0  0  0
  146.3270  136.2241  163.2907 H   0  0  0  0  0  0  0  0  0  0  0  0
  146.0364  133.5980  162.1584 H   0  0  0  0  0  0  0  0  0  0  0  0
  147.7170  132.0426  161.1057 H   0  0  0  0  0  0  0  0  0  0  0  0
  147.6777  131.8996  162.8558 H   0  0  0  0  0  0  0  0  0  0  0  0
  148.9900  132.7787  162.0864 H   0  0  0  0  0  0  0  0  0  0  0  0
  1  2  1  0  0  0  0
  1 28  1  0  0  0  0
  1 29  1  0  0  0  0
  1 30  1  0  0  0  0
  2  3  1  0  0  0  0
  3  4  1  0  0  0  0
  3 31  1  0  0  0  0
  3 32  1  0  0  0  0
  4  5  1  0  0  0  0
  4 33  1  0  0  0  0
  4 34  1  0  0  0  0
  5 10  1  0  0  0  0
  5  6  1  0  0  0  0
  5 35  1  0  0  0  0
  6  7  1  0  0  0  0
  6 36  1  0  0  0  0
  6 37  1  0  0  0  0
  7  8  1  0  0  0  0
  8  9  1  0  0  0  0
  8 38  1  0  0  0  0
  8 39  1  0  0  0  0
  9 10  1  0  0  0  0
  9 40  1  0  0  0  0
  9 41  1  0  0  0  0
 10 11  1  0  0  0  0
 11 16  1  0  0  0  0
 11 12  2  0  0  0  0
 12 13  1  0  0  0  0
 13 14  2  0  0  0  0
 13 42  1  0  0  0  0
 14 15  1  0  0  0  0
 15 19  1  0  0  0  0
 15 16  2  0  0  0  0
 16 17  1  0  0  0  0
 17 18  2  0  0  0  0
 18 19  1  0  0  0  0
 18 43  1  0  0  0  0
 19 20  1  0  0  0  0
 20 21  1  0  0  0  0
 20 44  1  0  0  0  0
 20 45  1  0  0  0  0
 21 26  1  0  0  0  0
 21 22  1  0  0  0  0
 21 23  1  0  0  0  0
 22 46  1  0  0  0  0
 23 24  1  0  0  0  0
 23 47  1  0  0  0  0
 23 48  1  0  0  0  0
 24 25  1  0  0  0  0
 24 49  1  0  0  0  0
 24 50  1  0  0  0  0
 25 26  1  0  0  0  0
 26 27  1  0  0  0  0
 26 51  1  0  0  0  0
 27 52  1  0  0  0  0
 27 53  1  0  0  0  0
 27 54  1  0  0  0  0
M  END
> <s_m_source_file>
AV-unprocessed.smi

> <i_m_source_file_index>
197

> <i_lp_mmshare_version>
43012

> <i_f3d_flags>
0

> <s_epik_input>
W0NIM11PW0NIMl1bQ0gyXVtDQEBIXTFbQ0gyXU9bQ0gyXVtDSDJdTjFjKG5bY0hdbjIpYyhjMjMpbltjSF1uM1tDSDJdW0NAQF00KFtPSF0pW0NIMl1bQ0gyXU9bQ0BIXTRbQ0gzXQ==

> <s_epik_cmdline>
J2VwaWtfcHl0aG9uJywgJy1waCcsICc3LjAnLCAnLXRuJywgJzgnLCAnLW1hJywgJzIwMCcsICctbWV0YWxfYmluZGluZycsICctaW1hZScsICc8aW5maWxlLm1hZT4nLCAnLW9tYWUnLCAnPG91dGZpbGUubWFlPic=

> <r_lp_tautomer_probability>
1

> <r_epik_Ionization_Penalty>
0.000106218

> <r_epik_Ionization_Penalty_Charging>
0

> <r_epik_Ionization_Penalty_Neutral>
0.000106218

> <r_epik_State_Penalty>
-0

> <r_epik_Charging_Adjusted_Penalty>
0

> <i_epik_Tot_Q>
0

> <i_epik_Tot_abs_Q>
0

> <r_epik_Metal_State_Penalty>
-0

> <b_epik_Metal_Only>
0

> <s_lp_Force_Field>
OPLS_2005

> <r_lp_Energy>
41.9523

> <b_lp_Chiralities_Consistent>
1

> <s_lp_Variant>
AV-unprocessed.smi:197-8

> <Gold.Version>
5.8.1

> <Gold.Id.Protein>
6NUR|6NUR_protein|mol2

> <Gold.PLP.Fitness>
44.4329

> <Gold.PLP.PLP>
-41.1795

> <Gold.PLP.part.hbond>
-4.5247

> <Gold.PLP.part.metal>
0.0000

> <Gold.PLP.part.buried>
-2.1963

> <Gold.PLP.part.nonpolar>
-35.9724

> <Gold.PLP.part.repulsive>
0.9319

> <Gold.PLP.ligand.clash>
0.0000

> <Gold.PLP.ligand.torsion>
1.3181

> <Gold.PLP.Chemscore.Hbond>
1.7868

> <Gold.PLP.Chemscore.CHOScore>
0.0000

> <Gold.PLP.Chemscore.Metal>
0.0000

> <Gold.Chemscore.Hbonds>
donor molecule, donor type, donor heavy atom, donor atom, acceptor molecule, acceptor atom, score
      P1  H  6896  6908       L1    14  0.75
      P1  H  7989  7998       L1     7  0.09
      P1  H  8011  8017       L1     7  0.31

> <Gold.PLP.Chemscore.Internal.Correction>
0.5293

> <Gold.Rescore>
     Score         DG    S(hbond)    S(metal)    S(lipo)     H(rot)  DE(clash)    DE(int)     intcor
     10.60     -15.01       1.56        0.00      98.94       2.84       2.07       2.34       ----

> <Gold.Chemscore.Fitness>
10.6032

> <Gold.Chemscore.DG>
-15.0145

> <Gold.Chemscore.ZeroCoef>
-5.4800

> <Gold.Chemscore.Hbond>
1.5622

> <Gold.Chemscore.Metal>
0.0000

> <Gold.Chemscore.Lipo>
98.9429

> <Gold.Chemscore.Internal_Hbond>
0.0000

> <Gold.Chemscore.DEClash>
2.0679

> <Gold.Chemscore.DEInternal>
2.3434

> <Gold.Chemscore.Rot>
2.8358

> <Gold.Chemscore.Internal.Correction>
   9.000000E+99

> <Gold.Chemscore.Hbonds>
donor molecule, donor type, donor heavy atom, donor atom, acceptor molecule, acceptor atom, score
      P1  H  6896  6908       L1    14  0.09
      P1  H  8011  8017       L1     7  0.26

> <Gold.Chemscore.Hbond.Weighted>
-5.2178

> <Gold.Chemscore.Metal.Weighted>
-0.0000

> <Gold.Chemscore.Lipo.Weighted>
-11.5763

> <Gold.Chemscore.Internal_Hbond.Weighted>
0.0000

> <Gold.Chemscore.DEClash.Weighted>
2.0679

> <Gold.Chemscore.DEInternal.Weighted>
2.3434

> <Gold.Chemscore.Rot.Weighted>
7.2596

> <Gold.Chemscore.Internal.Correction.Weighted>
   9.000000E+99

> <Gold.Protein.RotatedTorsions>
[ 6907 6896 6895 6894 ] final -159.02 input  -60.11 | X-H torsion
[ 7974 7965 7964 7962 ] final   44.95 input  175.53 | X-H torsion
[ 8008 7997 7996 7995 ] final  -16.28 input   59.86 | X-H torsion
[ 10167 10162 10161 10158 ] final -112.47 input  -65.29 | X-H torsion
[ 10718 10713 10712 10709 ] final  133.45 input   66.30 | X-H torsion
[ 10763 10752 10751 10750 ] final  165.33 input  -60.55 | X-H torsion
[ 11005 11000 10999 10996 ] final  -88.32 input  -57.11 | X-H torsion

> <Gold.Protein.ActiveResidues>
 VAL166  LYS551  ARG553  GLY616  TRP617  ASP618  TYR619  PRO620  LYS621  CYS622 
 ASP623  PHE694  ASN695  SER759  ASP760  ASP761  ALA762  ILE779  LEU786  VAL792 
 PHE793  MET794  SER795  GLU796  ALA797  LYS798  CYS799  TRP800  GLU811  SER814 

> <Gold.Protein.RotatedAtoms>
  151.3272  133.4015  159.2659 H   0  0  0  0  0  0  0  0  0  0  0  0  # atno 6907 bound_to 6896
  150.9985  134.9304  159.7951 H   0  0  0  0  0  0  0  0  0  0  0  0  # atno 6908 bound_to 6896
  152.5268  134.3237  159.9210 H   0  0  0  0  0  0  0  0  0  0  0  0  # atno 6909 bound_to 6896
  146.0524  139.5018  142.9710 H   0  0  0  0  0  0  0  0  0  0  0  0  # atno 7974 bound_to 7965
  154.5065  140.2173  155.9241 H   0  0  0  0  0  0  0  0  0  0  0  0  # atno 8008 bound_to 7997
  156.1500  140.3163  155.8598 H   0  0  0  0  0  0  0  0  0  0  0  0  # atno 8009 bound_to 7997
  155.3958  140.0481  157.3029 H   0  0  0  0  0  0  0  0  0  0  0  0  # atno 8010 bound_to 7997
  140.1224  143.4432  152.1682 H   0  0  0  0  0  0  0  0  0  0  0  0  # atno 10167 bound_to 10162
  157.4772  131.1083  150.9728 H   0  0  0  0  0  0  0  0  0  0  0  0  # atno 10718 bound_to 10713
  154.3224  135.2756  155.2513 H   0  0  0  0  0  0  0  0  0  0  0  0  # atno 10763 bound_to 10752
  154.4860  135.5846  153.6428 H   0  0  0  0  0  0  0  0  0  0  0  0  # atno 10764 bound_to 10752
  152.9875  135.6123  154.3410 H   0  0  0  0  0  0  0  0  0  0  0  0  # atno 10765 bound_to 10752
  141.1603  133.7563  156.9434 H   0  0  0  0  0  0  0  0  0  0  0  0  # atno 11005 bound_to 11000
  145.6702  141.0218  143.1661 LP  0  0  0  0  0  0  0  0  0  0  0  0  # atno 17320 bound_to 7965
  144.7129  139.8302  143.7408 LP  0  0  0  0  0  0  0  0  0  0  0  0  # atno 17321 bound_to 7965
  139.5562  144.7374  151.4288 LP  0  0  0  0  0  0  0  0  0  0  0  0  # atno 17342 bound_to 10162
  140.6864  143.7963  150.7192 LP  0  0  0  0  0  0  0  0  0  0  0  0  # atno 17343 bound_to 10162
  157.0474  130.5773  149.5365 LP  0  0  0  0  0  0  0  0  0  0  0  0  # atno 17370 bound_to 10713
  156.0103  130.5193  150.7965 LP  0  0  0  0  0  0  0  0  0  0  0  0  # atno 17371 bound_to 10713
  140.1306  134.9358  157.2332 LP  0  0  0  0  0  0  0  0  0  0  0  0  # atno 17394 bound_to 11000
  140.2958  134.3188  155.7303 LP  0  0  0  0  0  0  0  0  0  0  0  0  # atno 17395 bound_to 11000

$$$$
