AV-unprocessed.smi:1203|AV-procd|sdf|5033|dock7
  -GOLD-   22720 4 53D 1   1.00000     0.00000
 Structure written by MMmdl.
 39 40  0  0  0  0  0  0  0  0  1 V2000
  148.1726  139.0882  157.4362 C   0  0  0  0  0  0  0  0  0  0  0  0
  146.5812  140.0035  157.5373 S   0  0  0  0  0  0  0  0  0  0  0  0
  145.5334  139.1729  156.9249 O   0  0  0  0  0  0  0  0  0  0  0  0
  146.4040  140.5169  158.9042 O   0  0  0  0  0  0  0  0  0  0  0  0
  146.8509  141.3576  156.4934 N   0  0  0  0  0  0  0  0  0  0  0  0
  145.8339  142.4195  156.4437 C   0  0  0  0  0  0  0  0  0  0  0  0
  145.9211  143.0188  155.0413 C   0  0  0  0  0  0  0  0  0  0  0  0
  146.4166  141.8507  154.2004 C   0  0  0  0  0  0  0  0  0  0  0  0
  147.3798  141.1065  155.1418 C   0  0  1  0  0  0  0  0  0  0  0  0
  148.8503  141.5313  154.9974 C   0  0  0  0  0  0  0  0  0  0  0  0
  149.3839  141.6205  153.8908 O   0  0  0  0  0  0  0  0  0  0  0  0
  149.4967  141.7995  156.1404 N   0  0  0  0  0  0  0  0  0  0  0  0
  150.8888  142.2217  156.2287 C   0  0  0  0  0  0  0  0  0  0  0  0
  151.4806  141.9245  157.6167 C   0  0  0  0  0  0  0  0  0  0  0  0
  151.5691  143.1507  158.5091 C   0  0  0  0  0  0  0  0  0  0  0  0
  152.1836  143.0775  159.7761 C   0  0  0  0  0  0  0  0  0  0  0  0
  152.2324  144.2362  160.5747 C   0  0  0  0  0  0  0  0  0  0  0  0
  151.6646  145.4229  160.0696 C   0  0  0  0  0  0  0  0  0  0  0  0
  151.0777  145.5062  158.8564 N   0  0  0  0  0  0  0  0  0  0  0  0
  151.0354  144.3906  158.0968 C   0  0  0  0  0  0  0  0  0  0  0  0
  148.1069  138.1824  158.0384 H   0  0  0  0  0  0  0  0  0  0  0  0
  148.9812  139.7135  157.8136 H   0  0  0  0  0  0  0  0  0  0  0  0
  148.3729  138.8203  156.3990 H   0  0  0  0  0  0  0  0  0  0  0  0
  144.8455  141.9869  156.6024 H   0  0  0  0  0  0  0  0  0  0  0  0
  146.0091  143.1607  157.2239 H   0  0  0  0  0  0  0  0  0  0  0  0
  144.9686  143.4180  154.6923 H   0  0  0  0  0  0  0  0  0  0  0  0
  146.6522  143.8280  155.0254 H   0  0  0  0  0  0  0  0  0  0  0  0
  145.5796  141.1988  153.9464 H   0  0  0  0  0  0  0  0  0  0  0  0
  146.8672  142.1732  153.2608 H   0  0  0  0  0  0  0  0  0  0  0  0
  147.3232  140.0397  154.9189 H   0  0  0  0  0  0  0  0  0  0  0  0
  148.9888  141.7050  157.0086 H   0  0  0  0  0  0  0  0  0  0  0  0
  151.4601  141.6972  155.4615 H   0  0  0  0  0  0  0  0  0  0  0  0
  150.9715  143.2883  156.0139 H   0  0  0  0  0  0  0  0  0  0  0  0
  150.8775  141.1677  158.1193 H   0  0  0  0  0  0  0  0  0  0  0  0
  152.4760  141.4930  157.5032 H   0  0  0  0  0  0  0  0  0  0  0  0
  152.6064  142.1494  160.1320 H   0  0  0  0  0  0  0  0  0  0  0  0
  152.6928  144.2162  161.5513 H   0  0  0  0  0  0  0  0  0  0  0  0
  151.6834  146.3298  160.6556 H   0  0  0  0  0  0  0  0  0  0  0  0
  150.5561  144.4908  157.1339 H   0  0  0  0  0  0  0  0  0  0  0  0
  1  2  1  0  0  0  0
  1 21  1  0  0  0  0
  1 22  1  0  0  0  0
  1 23  1  0  0  0  0
  2  3  2  0  0  0  0
  2  4  2  0  0  0  0
  2  5  1  0  0  0  0
  5  9  1  0  0  0  0
  5  6  1  0  0  0  0
  6  7  1  0  0  0  0
  6 24  1  0  0  0  0
  6 25  1  0  0  0  0
  7  8  1  0  0  0  0
  7 26  1  0  0  0  0
  7 27  1  0  0  0  0
  8  9  1  0  0  0  0
  8 28  1  0  0  0  0
  8 29  1  0  0  0  0
  9 10  1  0  0  0  0
  9 30  1  0  0  0  0
 10 11  2  0  0  0  0
 10 12  1  0  0  0  0
 12 13  1  0  0  0  0
 12 31  1  0  0  0  0
 13 14  1  0  0  0  0
 13 32  1  0  0  0  0
 13 33  1  0  0  0  0
 14 15  1  0  0  0  0
 14 34  1  0  0  0  0
 14 35  1  0  0  0  0
 15 20  1  0  0  0  0
 15 16  2  0  0  0  0
 16 17  1  0  0  0  0
 16 36  1  0  0  0  0
 17 18  2  0  0  0  0
 17 37  1  0  0  0  0
 18 19  1  0  0  0  0
 18 38  1  0  0  0  0
 19 20  2  0  0  0  0
 20 39  1  0  0  0  0
M  END
> <s_m_source_file>
AV-unprocessed.smi

> <i_m_source_file_index>
1203

> <i_lp_mmshare_version>
43012

> <i_f3d_flags>
0

> <s_epik_input>
W0NIM11TKD1PKSg9TylOMVtDSDJdW0NIMl1bQ0gyXVtDQEhdMUMoPU8pW05IXVtDSDJdW0NIMl1jMltjSF1bY0hdW2NIXW5bY0hdMg==

> <s_epik_cmdline>
J2VwaWtfcHl0aG9uJywgJy1waCcsICc3LjAnLCAnLXRuJywgJzgnLCAnLW1hJywgJzIwMCcsICctbWV0YWxfYmluZGluZycsICctaW1hZScsICc8aW5maWxlLm1hZT4nLCAnLW9tYWUnLCAnPG91dGZpbGUubWFlPic=

> <r_epik_Ionization_Penalty>
0.0126915

> <r_epik_Ionization_Penalty_Charging>
0

> <r_epik_Ionization_Penalty_Neutral>
0.0126915

> <r_epik_State_Penalty>
0.0098379

> <r_epik_Charging_Adjusted_Penalty>
0.0098379

> <i_epik_Tot_Q>
0

> <i_epik_Tot_abs_Q>
0

> <r_epik_Metal_State_Penalty>
0.00962905

> <b_epik_Metal_Only>
0

> <s_lp_Force_Field>
OPLS_2005

> <r_lp_Energy>
6.50252

> <b_lp_Chiralities_Consistent>
1

> <s_lp_Variant>
AV-unprocessed.smi:1203-1

> <Gold.Version>
5.8.1

> <Gold.Id.Protein>
6NUR|6NUR_protein|mol2

> <Gold.PLP.Fitness>
43.4660

> <Gold.PLP.PLP>
-37.3343

> <Gold.PLP.part.hbond>
-4.7590

> <Gold.PLP.part.metal>
0.0000

> <Gold.PLP.part.buried>
-3.4138

> <Gold.PLP.part.nonpolar>
-29.9087

> <Gold.PLP.part.repulsive>
0.7076

> <Gold.PLP.ligand.clash>
0.0000

> <Gold.PLP.ligand.torsion>
1.0147

> <Gold.PLP.Chemscore.Hbond>
1.5465

> <Gold.PLP.Chemscore.CHOScore>
1.0000

> <Gold.PLP.Chemscore.Metal>
0.0000

> <Gold.Chemscore.Hbonds>
donor molecule, donor type, donor heavy atom, donor atom, acceptor molecule, acceptor atom, score
      P1  H  6934  6946       L1     4  0.21
      P1  H  7989  7998       L1    11  0.03
      P1  H  8011  8017       L1    11  0.66
      L1  C    20    39       P1  8028  1.00

> <Gold.PLP.Chemscore.Internal.Correction>
0.5215

> <Gold.Rescore>
     Score         DG    S(hbond)    S(metal)    S(lipo)     H(rot)  DE(clash)    DE(int)     intcor
     14.56     -17.38       1.69        0.00      95.06       1.90       1.56       1.26       ----

> <Gold.Chemscore.Fitness>
14.5617

> <Gold.Chemscore.DG>
-17.3771

> <Gold.Chemscore.ZeroCoef>
-5.4800

> <Gold.Chemscore.Hbond>
1.6876

> <Gold.Chemscore.Metal>
0.0000

> <Gold.Chemscore.Lipo>
95.0578

> <Gold.Chemscore.Internal_Hbond>
0.0000

> <Gold.Chemscore.DEClash>
1.5559

> <Gold.Chemscore.DEInternal>
1.2595

> <Gold.Chemscore.Rot>
1.8990

> <Gold.Chemscore.Internal.Correction>
   9.000000E+99

> <Gold.Chemscore.Hbonds>
donor molecule, donor type, donor heavy atom, donor atom, acceptor molecule, acceptor atom, score
      P1  H  6934  6946       L1     4  0.20
      P1  H  7989  7998       L1    11  0.03
      P1  H  8011  8017       L1    11  0.66

> <Gold.Chemscore.Hbond.Weighted>
-5.6367

> <Gold.Chemscore.Metal.Weighted>
-0.0000

> <Gold.Chemscore.Lipo.Weighted>
-11.1218

> <Gold.Chemscore.Internal_Hbond.Weighted>
0.0000

> <Gold.Chemscore.DEClash.Weighted>
1.5559

> <Gold.Chemscore.DEInternal.Weighted>
1.2595

> <Gold.Chemscore.Rot.Weighted>
4.8613

> <Gold.Chemscore.Internal.Correction.Weighted>
   9.000000E+99

> <Gold.Protein.RotatedTorsions>
[ 6907 6896 6895 6894 ] final  120.17 input  -60.11 | X-H torsion
[ 7974 7965 7964 7962 ] final  110.50 input  175.53 | X-H torsion
[ 8008 7997 7996 7995 ] final  -37.38 input   59.86 | X-H torsion
[ 10167 10162 10161 10158 ] final   25.48 input  -65.29 | X-H torsion
[ 10718 10713 10712 10709 ] final   42.16 input   66.30 | X-H torsion
[ 10763 10752 10751 10750 ] final  -45.33 input  -60.55 | X-H torsion
[ 11005 11000 10999 10996 ] final  159.55 input  -57.11 | X-H torsion

> <Gold.Protein.ActiveResidues>
 VAL166  LYS551  ARG553  GLY616  TRP617  ASP618  TYR619  PRO620  LYS621  CYS622 
 ASP623  PHE694  ASN695  SER759  ASP760  ASP761  ALA762  ILE779  LEU786  VAL792 
 PHE793  MET794  SER795  GLU796  ALA797  LYS798  CYS799  TRP800  GLU811  SER814 

> <Gold.Protein.RotatedAtoms>
  152.4418  133.7462  159.6668 H   0  0  0  0  0  0  0  0  0  0  0  0  # atno 6907 bound_to 6896
  150.8310  133.8081  159.3105 H   0  0  0  0  0  0  0  0  0  0  0  0  # atno 6908 bound_to 6896
  151.5735  135.1064  160.0052 H   0  0  0  0  0  0  0  0  0  0  0  0  # atno 6909 bound_to 6896
  145.2542  139.2728  143.4051 H   0  0  0  0  0  0  0  0  0  0  0  0  # atno 7974 bound_to 7965
  154.4054  140.1605  156.2528 H   0  0  0  0  0  0  0  0  0  0  0  0  # atno 8008 bound_to 7997
  155.9104  140.3427  155.6072 H   0  0  0  0  0  0  0  0  0  0  0  0  # atno 8009 bound_to 7997
  155.7342  140.0784  157.2265 H   0  0  0  0  0  0  0  0  0  0  0  0  # atno 8010 bound_to 7997
  140.5102  144.0172  150.6369 H   0  0  0  0  0  0  0  0  0  0  0  0  # atno 10167 bound_to 10162
  157.4017  130.7864  149.7354 H   0  0  0  0  0  0  0  0  0  0  0  0  # atno 10718 bound_to 10713
  154.0268  135.6662  153.4777 H   0  0  0  0  0  0  0  0  0  0  0  0  # atno 10763 bound_to 10752
  153.0557  135.5057  154.7971 H   0  0  0  0  0  0  0  0  0  0  0  0  # atno 10764 bound_to 10752
  154.6903  135.3060  154.9454 H   0  0  0  0  0  0  0  0  0  0  0  0  # atno 10765 bound_to 10752
  140.1972  134.8364  157.2978 H   0  0  0  0  0  0  0  0  0  0  0  0  # atno 11005 bound_to 11000
  146.3294  140.2941  142.8617 LP  0  0  0  0  0  0  0  0  0  0  0  0  # atno 17320 bound_to 7965
  144.9476  140.8145  143.5592 LP  0  0  0  0  0  0  0  0  0  0  0  0  # atno 17321 bound_to 7965
  140.3492  143.2973  152.0505 LP  0  0  0  0  0  0  0  0  0  0  0  0  # atno 17342 bound_to 10162
  139.4894  144.6386  151.6924 LP  0  0  0  0  0  0  0  0  0  0  0  0  # atno 17343 bound_to 10162
  155.9825  130.4009  150.3413 LP  0  0  0  0  0  0  0  0  0  0  0  0  # atno 17370 bound_to 10713
  157.1541  131.0328  151.2871 LP  0  0  0  0  0  0  0  0  0  0  0  0  # atno 17371 bound_to 10713
  140.2094  134.4157  155.7621 LP  0  0  0  0  0  0  0  0  0  0  0  0  # atno 17394 bound_to 11000
  141.2227  133.7111  156.8313 LP  0  0  0  0  0  0  0  0  0  0  0  0  # atno 17395 bound_to 11000

$$$$
