AV-unprocessed.smi:2807|AV-procd|sdf|10818|dock1
  -GOLD-   2272015253D 1   1.00000     0.00000
 Structure written by MMmdl.
 32 33  0  0  0  0  0  0  0  0  1 V2000
  152.3417  139.9519  155.1910 O   0  0  0  0  0  0  0  0  0  0  0  0
  151.4412  139.6754  155.9844 C   0  0  0  0  0  0  0  0  0  0  0  0
  150.1365  139.7760  155.6791 N   0  0  0  0  0  0  0  0  0  0  0  0
  149.5885  140.2182  154.3959 C   0  0  2  0  0  0  0  0  0  0  0  0
  148.8159  141.5417  154.5664 C   0  0  0  0  0  0  0  0  0  0  0  0
  147.4572  141.3380  153.8911 C   0  0  0  0  0  0  0  0  0  0  0  0
  147.1990  139.8391  154.0020 C   0  0  0  0  0  0  0  0  0  0  0  0
  148.5785  139.2143  153.7865 C   0  0  2  0  0  0  0  0  0  0  0  0
  148.6286  137.9036  154.3184 O   0  0  0  0  0  0  0  0  0  0  0  0
  151.7814  139.1922  157.4022 C   0  0  0  0  0  0  0  0  0  0  0  0
  150.6666  138.7606  157.9978 F   0  0  0  0  0  0  0  0  0  0  0  0
  152.6221  138.1587  157.3150 F   0  0  0  0  0  0  0  0  0  0  0  0
  152.4122  140.3220  158.2120 C   0  0  0  0  0  0  0  0  0  0  0  0
  151.7382  141.5511  158.3930 C   0  0  0  0  0  0  0  0  0  0  0  0
  152.3594  142.5562  159.1588 C   0  0  0  0  0  0  0  0  0  0  0  0
  153.6254  142.2990  159.7174 C   0  0  0  0  0  0  0  0  0  0  0  0
  154.2159  141.0415  159.4856 C   0  0  0  0  0  0  0  0  0  0  0  0
  153.6292  140.0710  158.7528 N   0  0  0  0  0  0  0  0  0  0  0  0
  149.4689  139.5353  156.3978 H   0  0  0  0  0  0  0  0  0  0  0  0
  150.3990  140.3754  153.6819 H   0  0  0  0  0  0  0  0  0  0  0  0
  148.6576  141.7625  155.6233 H   0  0  0  0  0  0  0  0  0  0  0  0
  149.3552  142.3889  154.1411 H   0  0  0  0  0  0  0  0  0  0  0  0
  146.6678  141.9358  154.3476 H   0  0  0  0  0  0  0  0  0  0  0  0
  147.5230  141.6207  152.8394 H   0  0  0  0  0  0  0  0  0  0  0  0
  146.8301  139.6090  155.0030 H   0  0  0  0  0  0  0  0  0  0  0  0
  146.4593  139.4844  153.2834 H   0  0  0  0  0  0  0  0  0  0  0  0
  148.7631  139.1470  152.7133 H   0  0  0  0  0  0  0  0  0  0  0  0
  148.7723  137.2974  153.6079 H   0  0  0  0  0  0  0  0  0  0  0  0
  150.7640  141.7228  157.9593 H   0  0  0  0  0  0  0  0  0  0  0  0
  151.8720  143.5072  159.3163 H   0  0  0  0  0  0  0  0  0  0  0  0
  154.1307  143.0466  160.3108 H   0  0  0  0  0  0  0  0  0  0  0  0
  155.1857  140.8083  159.8998 H   0  0  0  0  0  0  0  0  0  0  0  0
  1  2  2  0  0  0  0
  2  3  1  0  0  0  0
  2 10  1  0  0  0  0
  3  4  1  0  0  0  0
  3 19  1  0  0  0  0
  4  8  1  0  0  0  0
  4  5  1  0  0  0  0
  4 20  1  0  0  0  0
  5  6  1  0  0  0  0
  5 21  1  0  0  0  0
  5 22  1  0  0  0  0
  6  7  1  0  0  0  0
  6 23  1  0  0  0  0
  6 24  1  0  0  0  0
  7  8  1  0  0  0  0
  7 25  1  0  0  0  0
  7 26  1  0  0  0  0
  8  9  1  0  0  0  0
  8 27  1  0  0  0  0
  9 28  1  0  0  0  0
 10 11  1  0  0  0  0
 10 12  1  0  0  0  0
 10 13  1  0  0  0  0
 13 18  1  0  0  0  0
 13 14  2  0  0  0  0
 14 15  1  0  0  0  0
 14 29  1  0  0  0  0
 15 16  2  0  0  0  0
 15 30  1  0  0  0  0
 16 17  1  0  0  0  0
 16 31  1  0  0  0  0
 17 18  2  0  0  0  0
 17 32  1  0  0  0  0
M  END
> <s_m_source_file>
AV-unprocessed.smi

> <i_m_source_file_index>
2807

> <i_lp_mmshare_version>
43012

> <i_f3d_flags>
0

> <s_epik_input>
bjFbY0hdW2NIXVtjSF1bY0hdYzFDKEYpKEYpQyg9TylbTkhdW0NAQEhdMltDSDJdW0NIMl1bQ0gyXVtDQEhdMltPSF0=

> <s_epik_cmdline>
J2VwaWtfcHl0aG9uJywgJy1waCcsICc3LjAnLCAnLXRuJywgJzgnLCAnLW1hJywgJzIwMCcsICctbWV0YWxfYmluZGluZycsICctaW1hZScsICc8aW5maWxlLm1hZT4nLCAnLW9tYWUnLCAnPG91dGZpbGUubWFlPic=

> <r_lp_tautomer_probability>
1

> <r_epik_Ionization_Penalty>
4.08325e-05

> <r_epik_Ionization_Penalty_Charging>
0

> <r_epik_Ionization_Penalty_Neutral>
4.08325e-05

> <r_epik_State_Penalty>
-0

> <r_epik_Charging_Adjusted_Penalty>
0

> <i_epik_Tot_Q>
0

> <i_epik_Tot_abs_Q>
0

> <r_epik_Metal_State_Penalty>
0.034564

> <b_epik_Metal_Only>
0

> <s_lp_Force_Field>
OPLS_2005

> <r_lp_Energy>
28.2651

> <b_lp_Chiralities_Consistent>
1

> <s_lp_Variant>
AV-unprocessed.smi:2807-3

> <Gold.Version>
5.8.1

> <Gold.Id.Protein>
6NUR|6NUR_protein|mol2

> <Gold.PLP.Fitness>
39.8267

> <Gold.PLP.PLP>
-32.3737

> <Gold.PLP.part.hbond>
-3.4022

> <Gold.PLP.part.metal>
0.0000

> <Gold.PLP.part.buried>
-0.8931

> <Gold.PLP.part.nonpolar>
-27.5871

> <Gold.PLP.part.repulsive>
0.0694

> <Gold.PLP.ligand.clash>
0.0000

> <Gold.PLP.ligand.torsion>
0.2746

> <Gold.PLP.Chemscore.Hbond>
2.6596

> <Gold.PLP.Chemscore.CHOScore>
0.0000

> <Gold.PLP.Chemscore.Metal>
0.0000

> <Gold.Chemscore.Hbonds>
donor molecule, donor type, donor heavy atom, donor atom, acceptor molecule, acceptor atom, score
      L1  H     9    28       P1  7948  0.98
      P1  H  7989  7998       L1     1  0.67
      P1  H  7997  8008       L1    18  1.00

> <Gold.PLP.Chemscore.Internal.Correction>
0.0233

> <Gold.Rescore>
     Score         DG    S(hbond)    S(metal)    S(lipo)     H(rot)  DE(clash)    DE(int)     intcor
     15.82     -16.79       2.02        0.00      83.60       2.05       0.73       0.24       ----

> <Gold.Chemscore.Fitness>
15.8214

> <Gold.Chemscore.DG>
-16.7872

> <Gold.Chemscore.ZeroCoef>
-5.4800

> <Gold.Chemscore.Hbond>
2.0248

> <Gold.Chemscore.Metal>
0.0000

> <Gold.Chemscore.Lipo>
83.6026

> <Gold.Chemscore.Internal_Hbond>
0.0000

> <Gold.Chemscore.DEClash>
0.7267

> <Gold.Chemscore.DEInternal>
0.2391

> <Gold.Chemscore.Rot>
2.0457

> <Gold.Chemscore.Internal.Correction>
   9.000000E+99

> <Gold.Chemscore.Hbonds>
donor molecule, donor type, donor heavy atom, donor atom, acceptor molecule, acceptor atom, score
      L1  H     9    28       P1  7948  0.91
      P1  H  7989  7998       L1     1  0.56
      P1  H  7997  8008       L1    18  0.10

> <Gold.Chemscore.Hbond.Weighted>
-6.7628

> <Gold.Chemscore.Metal.Weighted>
-0.0000

> <Gold.Chemscore.Lipo.Weighted>
-9.7815

> <Gold.Chemscore.Internal_Hbond.Weighted>
0.0000

> <Gold.Chemscore.DEClash.Weighted>
0.7267

> <Gold.Chemscore.DEInternal.Weighted>
0.2391

> <Gold.Chemscore.Rot.Weighted>
5.2371

> <Gold.Chemscore.Internal.Correction.Weighted>
   9.000000E+99

> <Gold.Protein.RotatedTorsions>
[ 6907 6896 6895 6894 ] final  -56.88 input  -60.11 | X-H torsion
[ 7974 7965 7964 7962 ] final   -2.91 input  175.53 | X-H torsion
[ 8008 7997 7996 7995 ] final -100.95 input   59.86 | X-H torsion
[ 10167 10162 10161 10158 ] final  -64.18 input  -65.29 | X-H torsion
[ 10718 10713 10712 10709 ] final  -74.35 input   66.30 | X-H torsion
[ 10763 10752 10751 10750 ] final  136.82 input  -60.55 | X-H torsion
[ 11005 11000 10999 10996 ] final  -62.38 input  -57.11 | X-H torsion

> <Gold.Protein.ActiveResidues>
 VAL166  LYS551  ARG553  GLY616  TRP617  ASP618  TYR619  PRO620  LYS621  CYS622 
 ASP623  PHE694  ASN695  SER759  ASP760  ASP761  ALA762  ILE779  LEU786  VAL792 
 PHE793  MET794  SER795  GLU796  ALA797  LYS798  CYS799  TRP800  GLU811  SER814 

> <Gold.Protein.RotatedAtoms>
  150.8131  134.7297  159.6705 H   0  0  0  0  0  0  0  0  0  0  0  0  # atno 6907 bound_to 6896
  152.4250  134.5881  159.9976 H   0  0  0  0  0  0  0  0  0  0  0  0  # atno 6908 bound_to 6896
  151.6085  133.3312  159.3098 H   0  0  0  0  0  0  0  0  0  0  0  0  # atno 6909 bound_to 6896
  146.2397  140.1642  142.8332 H   0  0  0  0  0  0  0  0  0  0  0  0  # atno 7974 bound_to 7965
  154.8357  140.0437  157.1508 H   0  0  0  0  0  0  0  0  0  0  0  0  # atno 8008 bound_to 7997
  154.9102  140.3012  155.5250 H   0  0  0  0  0  0  0  0  0  0  0  0  # atno 8009 bound_to 7997
  156.2989  140.2359  156.4140 H   0  0  0  0  0  0  0  0  0  0  0  0  # atno 8010 bound_to 7997
  140.5819  143.2328  151.6324 H   0  0  0  0  0  0  0  0  0  0  0  0  # atno 10167 bound_to 10162
  156.0246  130.4415  150.2879 H   0  0  0  0  0  0  0  0  0  0  0  0  # atno 10718 bound_to 10713
  153.8628  135.3065  155.3438 H   0  0  0  0  0  0  0  0  0  0  0  0  # atno 10763 bound_to 10752
  154.7841  135.4819  153.9910 H   0  0  0  0  0  0  0  0  0  0  0  0  # atno 10764 bound_to 10752
  153.1451  135.6832  153.9061 H   0  0  0  0  0  0  0  0  0  0  0  0  # atno 10765 bound_to 10752
  141.1357  133.6639  156.5519 H   0  0  0  0  0  0  0  0  0  0  0  0  # atno 11005 bound_to 11000
  145.0064  140.8676  143.5250 LP  0  0  0  0  0  0  0  0  0  0  0  0  # atno 17320 bound_to 7965
  145.1669  139.2426  143.5362 LP  0  0  0  0  0  0  0  0  0  0  0  0  # atno 17321 bound_to 7965
  139.5175  144.3314  152.0822 LP  0  0  0  0  0  0  0  0  0  0  0  0  # atno 17342 bound_to 10162
  140.2466  144.4214  150.6238 LP  0  0  0  0  0  0  0  0  0  0  0  0  # atno 17343 bound_to 10162
  157.0982  131.0188  151.3095 LP  0  0  0  0  0  0  0  0  0  0  0  0  # atno 17370 bound_to 10713
  157.4800  130.7759  149.7405 LP  0  0  0  0  0  0  0  0  0  0  0  0  # atno 17371 bound_to 10713
  140.4057  134.7317  157.4806 LP  0  0  0  0  0  0  0  0  0  0  0  0  # atno 17394 bound_to 11000
  140.0463  134.6194  155.8916 LP  0  0  0  0  0  0  0  0  0  0  0  0  # atno 17395 bound_to 11000

$$$$
