AV-unprocessed.smi:1218|AV-procd|sdf|5106|dock3
  -GOLD-   22720 4153D 1   1.00000     0.00000
 Structure written by MMmdl.
 45 46  0  0  0  0  0  0  0  0  2 V2000
  144.7171  135.2764  150.8516 C   0  0  0  0  0  0  0  0  0  0  0  0
  145.8749  134.6939  151.6761 C   0  0  0  0  0  0  0  0  0  0  0  0
  145.6940  133.1777  151.8598 C   0  0  0  0  0  0  0  0  0  0  0  0
  145.9972  135.4256  153.0301 C   0  0  0  0  0  0  0  0  0  0  0  0
  146.6934  136.7340  152.9264 N   0  3  1  0  0  0  0  0  0  0  0  0
  145.9691  137.7272  152.0955 C   0  0  0  0  0  0  0  0  0  0  0  0
  146.7614  139.0414  152.0170 C   0  0  0  0  0  0  0  0  0  0  0  0
  147.0016  139.5278  153.3302 O   0  0  0  0  0  0  0  0  0  0  0  0
  147.7920  138.6326  154.1059 C   0  0  1  0  0  0  0  0  0  0  0  0
  148.0853  139.2775  155.4726 C   0  0  0  0  0  0  0  0  0  0  0  0
  149.4867  139.1322  155.8536 N   0  0  0  0  0  0  0  0  0  0  0  0
  150.5299  139.6154  155.1611 C   0  0  0  0  0  0  0  0  0  0  0  0
  150.4052  140.2407  154.1070 O   0  0  0  0  0  0  0  0  0  0  0  0
  151.9162  139.3370  155.7543 C   0  0  0  0  0  0  0  0  0  0  0  0
  152.0914  139.9363  157.0674 N   0  0  0  0  0  0  0  0  0  0  0  0
  151.2746  140.8418  157.7132 C   0  0  0  0  0  0  0  0  0  0  0  0
  151.8472  141.1160  158.9220 C   0  0  0  0  0  0  0  0  0  0  0  0
  153.0253  140.3177  158.9266 C   0  0  0  0  0  0  0  0  0  0  0  0
  153.1673  139.6110  157.8169 N   0  0  0  0  0  0  0  0  0  0  0  0
  147.0171  137.3080  154.2547 C   0  0  0  0  0  0  0  0  0  0  0  0
  143.7619  135.1483  151.3617 H   0  0  0  0  0  0  0  0  0  0  0  0
  144.6420  134.7895  149.8786 H   0  0  0  0  0  0  0  0  0  0  0  0
  144.8587  136.3429  150.6732 H   0  0  0  0  0  0  0  0  0  0  0  0
  146.7832  134.8560  151.0963 H   0  0  0  0  0  0  0  0  0  0  0  0
  144.7939  132.9523  152.4329 H   0  0  0  0  0  0  0  0  0  0  0  0
  146.5416  132.7343  152.3824 H   0  0  0  0  0  0  0  0  0  0  0  0
  145.6079  132.6733  150.8968 H   0  0  0  0  0  0  0  0  0  0  0  0
  145.0129  135.5792  153.4754 H   0  0  0  0  0  0  0  0  0  0  0  0
  146.5423  134.7785  153.7191 H   0  0  0  0  0  0  0  0  0  0  0  0
  145.8116  137.3436  151.0882 H   0  0  0  0  0  0  0  0  0  0  0  0
  144.9834  137.9151  152.5240 H   0  0  0  0  0  0  0  0  0  0  0  0
  147.7050  138.8998  151.4875 H   0  0  0  0  0  0  0  0  0  0  0  0
  146.1940  139.7892  151.4626 H   0  0  0  0  0  0  0  0  0  0  0  0
  148.7381  138.4454  153.5939 H   0  0  0  0  0  0  0  0  0  0  0  0
  147.7884  140.3278  155.4763 H   0  0  0  0  0  0  0  0  0  0  0  0
  147.4874  138.7893  156.2428 H   0  0  0  0  0  0  0  0  0  0  0  0
  149.6783  138.6295  156.7083 H   0  0  0  0  0  0  0  0  0  0  0  0
  152.0742  138.2616  155.8459 H   0  0  0  0  0  0  0  0  0  0  0  0
  152.6806  139.7180  155.0752 H   0  0  0  0  0  0  0  0  0  0  0  0
  150.3666  141.2135  157.2613 H   0  0  0  0  0  0  0  0  0  0  0  0
  151.4810  141.7852  159.6861 H   0  0  0  0  0  0  0  0  0  0  0  0
  153.7761  140.2307  159.6982 H   0  0  0  0  0  0  0  0  0  0  0  0
  146.0945  137.4714  154.8143 H   0  0  0  0  0  0  0  0  0  0  0  0
  147.6163  136.5958  154.8237 H   0  0  0  0  0  0  0  0  0  0  0  0
  147.5782  136.5548  152.4731 H   0  0  0  0  0  0  0  0  0  0  0  0
  1  2  1  0  0  0  0
  1 21  1  0  0  0  0
  1 22  1  0  0  0  0
  1 23  1  0  0  0  0
  2  3  1  0  0  0  0
  2  4  1  0  0  0  0
  2 24  1  0  0  0  0
  3 25  1  0  0  0  0
  3 26  1  0  0  0  0
  3 27  1  0  0  0  0
  4  5  1  0  0  0  0
  4 28  1  0  0  0  0
  4 29  1  0  0  0  0
  5 20  1  0  0  0  0
  5  6  1  0  0  0  0
  5 45  1  0  0  0  0
  6  7  1  0  0  0  0
  6 30  1  0  0  0  0
  6 31  1  0  0  0  0
  7  8  1  0  0  0  0
  7 32  1  0  0  0  0
  7 33  1  0  0  0  0
  8  9  1  0  0  0  0
  9 10  1  0  0  0  0
  9 20  1  0  0  0  0
  9 34  1  0  0  0  0
 10 11  1  0  0  0  0
 10 35  1  0  0  0  0
 10 36  1  0  0  0  0
 11 12  1  0  0  0  0
 11 37  1  0  0  0  0
 12 13  2  0  0  0  0
 12 14  1  0  0  0  0
 14 15  1  0  0  0  0
 14 38  1  0  0  0  0
 14 39  1  0  0  0  0
 15 19  1  0  0  0  0
 15 16  1  0  0  0  0
 16 17  2  0  0  0  0
 16 40  1  0  0  0  0
 17 18  1  0  0  0  0
 17 41  1  0  0  0  0
 18 19  2  0  0  0  0
 18 42  1  0  0  0  0
 20 43  1  0  0  0  0
 20 44  1  0  0  0  0
M  CHG  1   5   1
M  END
> <s_m_source_file>
AV-unprocessed.smi

> <i_m_source_file_index>
1218

> <i_lp_mmshare_version>
43012

> <i_f3d_flags>
0

> <s_epik_input>
W0NIM11bQ0hdKFtDSDNdKVtDSDJdTjFbQ0gyXVtDSDJdT1tDQEhdKFtDSDJdMSlbQ0gyXVtOSF1DKD1PKVtDSDJdbjJbY0hdW2NIXVtjSF1uMg==

> <s_epik_cmdline>
J2VwaWtfcHl0aG9uJywgJy1waCcsICc3LjAnLCAnLXRuJywgJzgnLCAnLW1hJywgJzIwMCcsICctbWV0YWxfYmluZGluZycsICctaW1hZScsICc8aW5maWxlLm1hZT4nLCAnLW9tYWUnLCAnPG91dGZpbGUubWFlPic=

> <r_lp_tautomer_probability>
1

> <r_epik_Ionization_Penalty>
0.0995066

> <r_epik_Ionization_Penalty_Charging>
0.0994921

> <r_epik_Ionization_Penalty_Neutral>
1.44634e-05

> <r_epik_State_Penalty>
0.0895432

> <r_epik_Charging_Adjusted_Penalty>
0.189035

> <i_epik_Tot_Q>
1

> <i_epik_Tot_abs_Q>
1

> <r_epik_Metal_State_Penalty>
0.0895432

> <b_epik_Metal_Only>
0

> <s_lp_Force_Field>
OPLS_2005

> <r_lp_Energy>
18.9521

> <b_lp_Chiralities_Consistent>
1

> <s_lp_Variant>
AV-unprocessed.smi:1218-1

> <Gold.Version>
5.8.1

> <Gold.Id.Protein>
6NUR|6NUR_protein|mol2

> <Gold.PLP.Fitness>
40.7691

> <Gold.PLP.PLP>
-30.6156

> <Gold.PLP.part.hbond>
-2.7607

> <Gold.PLP.part.metal>
0.0000

> <Gold.PLP.part.buried>
-2.9552

> <Gold.PLP.part.nonpolar>
-26.1387

> <Gold.PLP.part.repulsive>
0.7152

> <Gold.PLP.ligand.clash>
0.0000

> <Gold.PLP.ligand.torsion>
0.9907

> <Gold.PLP.Chemscore.Hbond>
3.9913

> <Gold.PLP.Chemscore.CHOScore>
0.0000

> <Gold.PLP.Chemscore.Metal>
0.0000

> <Gold.Chemscore.Hbonds>
donor molecule, donor type, donor heavy atom, donor atom, acceptor molecule, acceptor atom, score
      L1  H     5    45       P1  7948  2.00
      P1  H  7989  7998       L1    13  0.93
      P1  H  7997  8009       L1    19  1.00

> <Gold.PLP.Chemscore.Internal.Correction>
0.1611

> <Gold.Rescore>
     Score         DG    S(hbond)    S(metal)    S(lipo)     H(rot)  DE(clash)    DE(int)     intcor
     16.48     -17.54       2.80        0.00      66.10       1.96       0.00       1.06       ----

> <Gold.Chemscore.Fitness>
16.4790

> <Gold.Chemscore.DG>
-17.5384

> <Gold.Chemscore.ZeroCoef>
-5.4800

> <Gold.Chemscore.Hbond>
2.7990

> <Gold.Chemscore.Metal>
0.0000

> <Gold.Chemscore.Lipo>
66.0984

> <Gold.Chemscore.Internal_Hbond>
0.0000

> <Gold.Chemscore.DEClash>
0.0024

> <Gold.Chemscore.DEInternal>
1.0571

> <Gold.Chemscore.Rot>
1.9624

> <Gold.Chemscore.Internal.Correction>
   9.000000E+99

> <Gold.Chemscore.Hbonds>
donor molecule, donor type, donor heavy atom, donor atom, acceptor molecule, acceptor atom, score
      L1  H     5    45       P1  7948  0.93
      P1  H  7989  7998       L1    13  0.83
      P1  H  7997  8009       L1    19  0.49

> <Gold.Chemscore.Hbond.Weighted>
-9.3486

> <Gold.Chemscore.Metal.Weighted>
-0.0000

> <Gold.Chemscore.Lipo.Weighted>
-7.7335

> <Gold.Chemscore.Internal_Hbond.Weighted>
0.0000

> <Gold.Chemscore.DEClash.Weighted>
0.0024

> <Gold.Chemscore.DEInternal.Weighted>
1.0571

> <Gold.Chemscore.Rot.Weighted>
5.0237

> <Gold.Chemscore.Internal.Correction.Weighted>
   9.000000E+99

> <Gold.Protein.RotatedTorsions>
[ 6907 6896 6895 6894 ] final   63.96 input  -60.11 | X-H torsion
[ 7974 7965 7964 7962 ] final -110.26 input  175.53 | X-H torsion
[ 8008 7997 7996 7995 ] final  163.44 input   59.86 | X-H torsion
[ 10167 10162 10161 10158 ] final  111.58 input  -65.29 | X-H torsion
[ 10718 10713 10712 10709 ] final  178.38 input   66.30 | X-H torsion
[ 10763 10752 10751 10750 ] final -125.60 input  -60.55 | X-H torsion
[ 11005 11000 10999 10996 ] final  -98.44 input  -57.11 | X-H torsion

> <Gold.Protein.ActiveResidues>
 VAL166  LYS551  ARG553  GLY616  TRP617  ASP618  TYR619  PRO620  LYS621  CYS622 
 ASP623  PHE694  ASN695  SER759  ASP760  ASP761  ALA762  ILE779  LEU786  VAL792 
 PHE793  MET794  SER795  GLU796  ALA797  LYS798  CYS799  TRP800  GLU811  SER814 

> <Gold.Protein.RotatedAtoms>
  152.4294  134.5806  159.9946 H   0  0  0  0  0  0  0  0  0  0  0  0  # atno 6907 bound_to 6896
  151.5934  133.3358  159.3040 H   0  0  0  0  0  0  0  0  0  0  0  0  # atno 6908 bound_to 6896
  150.8186  134.7417  159.6817 H   0  0  0  0  0  0  0  0  0  0  0  0  # atno 6909 bound_to 6896
  145.1705  140.8923  143.3538 H   0  0  0  0  0  0  0  0  0  0  0  0  # atno 7974 bound_to 7965
  156.1956  140.1723  156.8004 H   0  0  0  0  0  0  0  0  0  0  0  0  # atno 8008 bound_to 7997
  154.5526  140.0715  156.8723 H   0  0  0  0  0  0  0  0  0  0  0  0  # atno 8009 bound_to 7997
  155.3000  140.3361  155.4250 H   0  0  0  0  0  0  0  0  0  0  0  0  # atno 8010 bound_to 7997
  139.6601  144.7129  151.1882 H   0  0  0  0  0  0  0  0  0  0  0  0  # atno 10167 bound_to 10162
  156.8915  130.9849  151.3049 H   0  0  0  0  0  0  0  0  0  0  0  0  # atno 10718 bound_to 10713
  154.8737  135.4024  154.3295 H   0  0  0  0  0  0  0  0  0  0  0  0  # atno 10763 bound_to 10752
  153.4111  135.7021  153.6364 H   0  0  0  0  0  0  0  0  0  0  0  0  # atno 10764 bound_to 10752
  153.5066  135.3716  155.2537 H   0  0  0  0  0  0  0  0  0  0  0  0  # atno 10765 bound_to 10752
  141.1344  133.8246  157.0840 H   0  0  0  0  0  0  0  0  0  0  0  0  # atno 11005 bound_to 11000
  145.0238  139.3401  143.6059 LP  0  0  0  0  0  0  0  0  0  0  0  0  # atno 17320 bound_to 7965
  146.3469  139.9549  142.8724 LP  0  0  0  0  0  0  0  0  0  0  0  0  # atno 17321 bound_to 7965
  140.7576  143.6009  150.8701 LP  0  0  0  0  0  0  0  0  0  0  0  0  # atno 17342 bound_to 10162
  139.9665  143.6104  152.2986 LP  0  0  0  0  0  0  0  0  0  0  0  0  # atno 17343 bound_to 10162
  157.6081  130.8562  149.8907 LP  0  0  0  0  0  0  0  0  0  0  0  0  # atno 17370 bound_to 10713
  156.0627  130.3697  150.0947 LP  0  0  0  0  0  0  0  0  0  0  0  0  # atno 17371 bound_to 10713
  140.0434  134.9843  157.1003 LP  0  0  0  0  0  0  0  0  0  0  0  0  # atno 17394 bound_to 11000
  140.4100  134.1991  155.7163 LP  0  0  0  0  0  0  0  0  0  0  0  0  # atno 17395 bound_to 11000

$$$$
