AV-unprocessed.smi:3349|AV-procd|sdf|12936|dock8
  -GOLD-   2272019363D 1   1.00000     0.00000
 Structure written by MMmdl.
 41 42  0  0  0  0  0  0  0  0  2 V2000
  145.4616  135.3739  155.3215 C   0  0  0  0  0  0  0  0  0  0  0  0
  146.5969  135.9422  154.4332 C   0  0  1  0  0  0  0  0  0  0  0  0
  147.9575  135.8438  155.1745 C   0  0  0  0  0  0  0  0  0  0  0  0
  148.8850  136.8970  154.7781 N   0  0  0  0  0  0  0  0  0  0  0  0
  150.1449  137.0131  155.2238 C   0  0  0  0  0  0  0  0  0  0  0  0
  150.6585  136.2066  156.0000 O   0  0  0  0  0  0  0  0  0  0  0  0
  150.9304  138.2327  154.7170 C   0  0  2  0  0  0  0  0  0  0  0  0
  152.3597  138.3086  155.2858 C   0  0  0  0  0  0  0  0  0  0  0  0
  150.1904  139.4560  154.9958 N   0  0  0  0  0  0  0  0  0  0  0  0
  149.4855  140.2562  154.1907 C   0  0  0  0  0  0  0  0  0  0  0  0
  148.9577  141.3056  154.8050 N   0  0  0  0  0  0  0  0  0  0  0  0
  149.4051  141.0752  156.0750 C   0  0  0  0  0  0  0  0  0  0  0  0
  150.1516  139.9836  156.2429 N   0  0  0  0  0  0  0  0  0  0  0  0
  146.6293  135.2728  153.0888 N   0  3  0  0  0  0  0  0  0  0  0  0
  146.6336  133.7844  153.1668 C   0  0  0  0  0  0  0  0  0  0  0  0
  146.6883  133.1448  151.7692 C   0  0  0  0  0  0  0  0  0  0  0  0
  145.5893  133.5964  150.9949 O   0  0  0  0  0  0  0  0  0  0  0  0
  145.6426  135.0003  150.8009 C   0  0  0  0  0  0  0  0  0  0  0  0
  145.5547  135.7201  152.1575 C   0  0  0  0  0  0  0  0  0  0  0  0
  145.4660  135.8020  156.3237 H   0  0  0  0  0  0  0  0  0  0  0  0
  145.5487  134.2924  155.4298 H   0  0  0  0  0  0  0  0  0  0  0  0
  144.4724  135.5962  154.9249 H   0  0  0  0  0  0  0  0  0  0  0  0
  146.3908  137.0008  154.2665 H   0  0  0  0  0  0  0  0  0  0  0  0
  147.7926  135.8771  156.2531 H   0  0  0  0  0  0  0  0  0  0  0  0
  148.4671  134.9076  154.9504 H   0  0  0  0  0  0  0  0  0  0  0  0
  148.5397  137.6011  154.1413 H   0  0  0  0  0  0  0  0  0  0  0  0
  151.0162  138.1294  153.6334 H   0  0  0  0  0  0  0  0  0  0  0  0
  152.9232  137.4019  155.0626 H   0  0  0  0  0  0  0  0  0  0  0  0
  152.3592  138.4424  156.3684 H   0  0  0  0  0  0  0  0  0  0  0  0
  152.9057  139.1464  154.8511 H   0  0  0  0  0  0  0  0  0  0  0  0
  149.3602  140.0694  153.1341 H   0  0  0  0  0  0  0  0  0  0  0  0
  149.1765  141.7337  156.9000 H   0  0  0  0  0  0  0  0  0  0  0  0
  147.4974  133.4213  153.7202 H   0  0  0  0  0  0  0  0  0  0  0  0
  145.7430  133.4434  153.6968 H   0  0  0  0  0  0  0  0  0  0  0  0
  147.6285  133.3803  151.2677 H   0  0  0  0  0  0  0  0  0  0  0  0
  146.6369  132.0590  151.8519 H   0  0  0  0  0  0  0  0  0  0  0  0
  146.5571  135.2750  150.2724 H   0  0  0  0  0  0  0  0  0  0  0  0
  144.8090  135.2989  150.1650 H   0  0  0  0  0  0  0  0  0  0  0  0
  144.5789  135.5435  152.6128 H   0  0  0  0  0  0  0  0  0  0  0  0
  145.6319  136.7863  151.9528 H   0  0  0  0  0  0  0  0  0  0  0  0
  147.5034  135.5393  152.6583 H   0  0  0  0  0  0  0  0  0  0  0  0
  1  2  1  0  0  0  0
  1 20  1  0  0  0  0
  1 21  1  0  0  0  0
  1 22  1  0  0  0  0
  2  3  1  0  0  0  0
  2 14  1  0  0  0  0
  2 23  1  0  0  0  0
  3  4  1  0  0  0  0
  3 24  1  0  0  0  0
  3 25  1  0  0  0  0
  4  5  1  0  0  0  0
  4 26  1  0  0  0  0
  5  6  2  0  0  0  0
  5  7  1  0  0  0  0
  7  8  1  0  0  0  0
  7  9  1  0  0  0  0
  7 27  1  0  0  0  0
  8 28  1  0  0  0  0
  8 29  1  0  0  0  0
  8 30  1  0  0  0  0
  9 13  1  0  0  0  0
  9 10  1  0  0  0  0
 10 11  2  0  0  0  0
 10 31  1  0  0  0  0
 11 12  1  0  0  0  0
 12 13  2  0  0  0  0
 12 32  1  0  0  0  0
 14 19  1  0  0  0  0
 14 15  1  0  0  0  0
 14 41  1  0  0  0  0
 15 16  1  0  0  0  0
 15 33  1  0  0  0  0
 15 34  1  0  0  0  0
 16 17  1  0  0  0  0
 16 35  1  0  0  0  0
 16 36  1  0  0  0  0
 17 18  1  0  0  0  0
 18 19  1  0  0  0  0
 18 37  1  0  0  0  0
 18 38  1  0  0  0  0
 19 39  1  0  0  0  0
 19 40  1  0  0  0  0
M  CHG  1  14   1
M  END
> <s_m_source_file>
AV-unprocessed.smi

> <i_m_source_file_index>
3349

> <i_lp_mmshare_version>
43012

> <i_f3d_flags>
0

> <s_epik_input>
W0NIMl0xW0NIMl1PW0NIMl1bQ0gyXU4xW0NASF0oW0NIM10pW0NIMl1bTkhdQyg9TylbQ0BIXShbQ0gzXSluMltjSF1uW2NIXW4y

> <s_epik_cmdline>
J2VwaWtfcHl0aG9uJywgJy1waCcsICc3LjAnLCAnLXRuJywgJzgnLCAnLW1hJywgJzIwMCcsICctbWV0YWxfYmluZGluZycsICctaW1hZScsICc8aW5maWxlLm1hZT4nLCAnLW9tYWUnLCAnPG91dGZpbGUubWFlPic=

> <r_lp_tautomer_probability>
1

> <r_epik_Ionization_Penalty>
0.71326

> <r_epik_Ionization_Penalty_Charging>
0.713252

> <r_epik_Ionization_Penalty_Neutral>
8.10337e-06

> <r_epik_State_Penalty>
0.737017

> <r_epik_Charging_Adjusted_Penalty>
1.45027

> <i_epik_Tot_Q>
1

> <i_epik_Tot_abs_Q>
1

> <r_epik_Metal_State_Penalty>
0.73702

> <b_epik_Metal_Only>
0

> <s_lp_Force_Field>
OPLS_2005

> <r_lp_Energy>
26.8661

> <b_lp_Chiralities_Consistent>
1

> <s_lp_Variant>
AV-unprocessed.smi:3349-6

> <Gold.Version>
5.8.1

> <Gold.Id.Protein>
6NUR|6NUR_protein|mol2

> <Gold.PLP.Fitness>
39.1959

> <Gold.PLP.PLP>
-28.8076

> <Gold.PLP.part.hbond>
-3.0000

> <Gold.PLP.part.metal>
0.0000

> <Gold.PLP.part.buried>
-2.5834

> <Gold.PLP.part.nonpolar>
-22.4112

> <Gold.PLP.part.repulsive>
0.3646

> <Gold.PLP.ligand.clash>
0.0000

> <Gold.PLP.ligand.torsion>
0.8661

> <Gold.PLP.Chemscore.Hbond>
3.0000

> <Gold.PLP.Chemscore.CHOScore>
1.0000

> <Gold.PLP.Chemscore.Metal>
0.0000

> <Gold.Chemscore.Hbonds>
donor molecule, donor type, donor heavy atom, donor atom, acceptor molecule, acceptor atom, score
      L1  H    14    41       P1  7948  2.00
      L1  C    10    31       P1  7957  0.90

> <Gold.PLP.Chemscore.Internal.Correction>
0.1205

> <Gold.Rescore>
     Score         DG    S(hbond)    S(metal)    S(lipo)     H(rot)  DE(clash)    DE(int)     intcor
      9.36     -10.20       1.99        0.00      40.99       2.63       0.02       0.81       ----

> <Gold.Chemscore.Fitness>
9.3647

> <Gold.Chemscore.DG>
-10.1971

> <Gold.Chemscore.ZeroCoef>
-5.4800

> <Gold.Chemscore.Hbond>
1.9944

> <Gold.Chemscore.Metal>
0.0000

> <Gold.Chemscore.Lipo>
40.9925

> <Gold.Chemscore.Internal_Hbond>
0.0000

> <Gold.Chemscore.DEClash>
0.0174

> <Gold.Chemscore.DEInternal>
0.8150

> <Gold.Chemscore.Rot>
2.6329

> <Gold.Chemscore.Internal.Correction>
   9.000000E+99

> <Gold.Chemscore.Hbonds>
donor molecule, donor type, donor heavy atom, donor atom, acceptor molecule, acceptor atom, score
      L1  H    14    41       P1  7948  1.00

> <Gold.Chemscore.Hbond.Weighted>
-6.6613

> <Gold.Chemscore.Metal.Weighted>
-0.0000

> <Gold.Chemscore.Lipo.Weighted>
-4.7961

> <Gold.Chemscore.Internal_Hbond.Weighted>
0.0000

> <Gold.Chemscore.DEClash.Weighted>
0.0174

> <Gold.Chemscore.DEInternal.Weighted>
0.8150

> <Gold.Chemscore.Rot.Weighted>
6.7403

> <Gold.Chemscore.Internal.Correction.Weighted>
   9.000000E+99

> <Gold.Protein.RotatedTorsions>
[ 6907 6896 6895 6894 ] final  156.59 input  -60.11 | X-H torsion
[ 7974 7965 7964 7962 ] final  134.38 input  175.53 | X-H torsion
[ 8008 7997 7996 7995 ] final  149.96 input   59.86 | X-H torsion
[ 10167 10162 10161 10158 ] final  175.33 input  -65.29 | X-H torsion
[ 10718 10713 10712 10709 ] final  137.18 input   66.30 | X-H torsion
[ 10763 10752 10751 10750 ] final  -40.64 input  -60.55 | X-H torsion
[ 11005 11000 10999 10996 ] final  177.11 input  -57.11 | X-H torsion

> <Gold.Protein.ActiveResidues>
 VAL166  LYS551  ARG553  GLY616  TRP617  ASP618  TYR619  PRO620  LYS621  CYS622 
 ASP623  PHE694  ASN695  SER759  ASP760  ASP761  ALA762  ILE779  LEU786  VAL792 
 PHE793  MET794  SER795  GLU796  ALA797  LYS798  CYS799  TRP800  GLU811  SER814 

> <Gold.Protein.RotatedAtoms>
  152.0275  133.3923  159.4283 H   0  0  0  0  0  0  0  0  0  0  0  0  # atno 6907 bound_to 6896
  150.6885  134.3558  159.4938 H   0  0  0  0  0  0  0  0  0  0  0  0  # atno 6908 bound_to 6896
  152.1339  134.9113  160.0608 H   0  0  0  0  0  0  0  0  0  0  0  0  # atno 6909 bound_to 6896
  144.9769  139.4546  143.5405 H   0  0  0  0  0  0  0  0  0  0  0  0  # atno 7974 bound_to 7965
  156.2735  140.2087  156.5941 H   0  0  0  0  0  0  0  0  0  0  0  0  # atno 8008 bound_to 7997
  154.6959  140.0525  157.0433 H   0  0  0  0  0  0  0  0  0  0  0  0  # atno 8009 bound_to 7997
  155.0802  140.3186  155.4607 H   0  0  0  0  0  0  0  0  0  0  0  0  # atno 8010 bound_to 7997
  139.5173  144.3044  152.0349 H   0  0  0  0  0  0  0  0  0  0  0  0  # atno 10167 bound_to 10162
  157.4388  131.1055  151.0167 H   0  0  0  0  0  0  0  0  0  0  0  0  # atno 10718 bound_to 10713
  153.9493  135.6752  153.4744 H   0  0  0  0  0  0  0  0  0  0  0  0  # atno 10763 bound_to 10752
  153.0892  135.4883  154.8654 H   0  0  0  0  0  0  0  0  0  0  0  0  # atno 10764 bound_to 10752
  154.7334  135.3143  154.8812 H   0  0  0  0  0  0  0  0  0  0  0  0  # atno 10765 bound_to 10752
  140.3805  134.6950  157.4448 H   0  0  0  0  0  0  0  0  0  0  0  0  # atno 11005 bound_to 11000
  146.3397  139.9017  142.8793 LP  0  0  0  0  0  0  0  0  0  0  0  0  # atno 17320 bound_to 7965
  145.2477  141.0032  143.3899 LP  0  0  0  0  0  0  0  0  0  0  0  0  # atno 17321 bound_to 7965
  140.2490  144.4189  150.6229 LP  0  0  0  0  0  0  0  0  0  0  0  0  # atno 17342 bound_to 10162
  140.6238  143.2179  151.6640 LP  0  0  0  0  0  0  0  0  0  0  0  0  # atno 17343 bound_to 10162
  157.1038  130.5993  149.5466 LP  0  0  0  0  0  0  0  0  0  0  0  0  # atno 17370 bound_to 10713
  155.9940  130.5003  150.7405 LP  0  0  0  0  0  0  0  0  0  0  0  0  # atno 17371 bound_to 10713
  140.0482  134.6169  155.8894 LP  0  0  0  0  0  0  0  0  0  0  0  0  # atno 17394 bound_to 11000
  141.1925  133.6575  156.5504 LP  0  0  0  0  0  0  0  0  0  0  0  0  # atno 17395 bound_to 11000

$$$$
