AV-unprocessed.smi:1685|AV-procd|sdf|6757|dock3
  -GOLD-   22720 7513D 1   1.00000     0.00000
 Structure written by MMmdl.
 40 41  0  0  0  0  0  0  0  0  1 V2000
  147.7180  138.4541  153.9089 C   0  0  0  0  0  0  0  0  0  0  0  0
  146.4471  139.2975  154.0567 C   0  0  0  0  0  0  0  0  0  0  0  0
  146.5530  140.3087  155.1542 C   0  0  0  0  0  0  0  0  0  0  0  0
  145.7160  140.4143  156.1784 N   0  0  0  0  0  0  0  0  0  0  0  0
  146.2052  141.4898  156.8954 N   0  0  0  0  0  0  0  0  0  0  0  0
  147.2607  141.9969  156.3269 N   0  0  0  0  0  0  0  0  0  0  0  0
  147.4969  141.2594  155.2131 N   0  0  0  0  0  0  0  0  0  0  0  0
  148.6183  141.5666  154.3397 C   0  0  0  0  0  0  0  0  0  0  0  0
  149.9476  141.5066  155.0948 C   0  0  0  0  0  0  0  0  0  0  0  0
  150.7239  140.5724  154.8975 O   0  0  0  0  0  0  0  0  0  0  0  0
  150.1976  142.5094  155.9513 N   0  0  0  0  0  0  0  0  0  0  0  0
  151.3887  142.6346  156.7841 C   0  0  0  0  0  0  0  0  0  0  0  0
  151.4019  141.5037  157.8350 C   0  0  0  0  0  0  0  0  0  0  0  0
  152.5302  141.7072  158.8613 C   0  0  0  0  0  0  0  0  0  0  0  0
  152.3708  143.0292  159.4793 N   0  0  0  0  0  0  0  0  0  0  0  0
  151.9590  143.2562  160.7499 C   0  0  0  0  0  0  0  0  0  0  0  0
  151.7692  144.6975  161.2287 C   0  0  0  0  0  0  0  0  0  0  0  0
  151.7324  142.3471  161.5484 O   0  0  0  0  0  0  0  0  0  0  0  0
  152.5624  144.1070  158.5023 C   0  0  0  0  0  0  0  0  0  0  0  0
  151.4411  144.0289  157.4504 C   0  0  0  0  0  0  0  0  0  0  0  0
  147.6129  137.7317  153.0995 H   0  0  0  0  0  0  0  0  0  0  0  0
  147.9312  137.9009  154.8239 H   0  0  0  0  0  0  0  0  0  0  0  0
  148.5826  139.0805  153.6866 H   0  0  0  0  0  0  0  0  0  0  0  0
  146.2431  139.8207  153.1220 H   0  0  0  0  0  0  0  0  0  0  0  0
  145.5884  138.6508  154.2376 H   0  0  0  0  0  0  0  0  0  0  0  0
  148.6234  140.8603  153.5088 H   0  0  0  0  0  0  0  0  0  0  0  0
  148.4839  142.5612  153.9118 H   0  0  0  0  0  0  0  0  0  0  0  0
  149.5008  143.2346  156.0443 H   0  0  0  0  0  0  0  0  0  0  0  0
  152.2780  142.5162  156.1621 H   0  0  0  0  0  0  0  0  0  0  0  0
  150.4453  141.4726  158.3594 H   0  0  0  0  0  0  0  0  0  0  0  0
  151.5157  140.5371  157.3429 H   0  0  0  0  0  0  0  0  0  0  0  0
  152.5337  140.8872  159.5778 H   0  0  0  0  0  0  0  0  0  0  0  0
  153.4991  141.6594  158.3623 H   0  0  0  0  0  0  0  0  0  0  0  0
  152.6968  145.2629  161.1337 H   0  0  0  0  0  0  0  0  0  0  0  0
  151.4740  144.7181  162.2784 H   0  0  0  0  0  0  0  0  0  0  0  0
  150.9887  145.1958  160.6533 H   0  0  0  0  0  0  0  0  0  0  0  0
  152.5727  145.0966  158.9610 H   0  0  0  0  0  0  0  0  0  0  0  0
  153.5355  143.9933  158.0224 H   0  0  0  0  0  0  0  0  0  0  0  0
  151.5872  144.8022  156.6955 H   0  0  0  0  0  0  0  0  0  0  0  0
  150.4861  144.2445  157.9322 H   0  0  0  0  0  0  0  0  0  0  0  0
  1  2  1  0  0  0  0
  1 21  1  0  0  0  0
  1 22  1  0  0  0  0
  1 23  1  0  0  0  0
  2  3  1  0  0  0  0
  2 24  1  0  0  0  0
  2 25  1  0  0  0  0
  3  7  1  0  0  0  0
  3  4  2  0  0  0  0
  4  5  1  0  0  0  0
  5  6  2  0  0  0  0
  6  7  1  0  0  0  0
  7  8  1  0  0  0  0
  8  9  1  0  0  0  0
  8 26  1  0  0  0  0
  8 27  1  0  0  0  0
  9 10  2  0  0  0  0
  9 11  1  0  0  0  0
 11 12  1  0  0  0  0
 11 28  1  0  0  0  0
 12 20  1  0  0  0  0
 12 13  1  0  0  0  0
 12 29  1  0  0  0  0
 13 14  1  0  0  0  0
 13 30  1  0  0  0  0
 13 31  1  0  0  0  0
 14 15  1  0  0  0  0
 14 32  1  0  0  0  0
 14 33  1  0  0  0  0
 15 16  1  0  0  0  0
 15 19  1  0  0  0  0
 16 17  1  0  0  0  0
 16 18  2  0  0  0  0
 17 34  1  0  0  0  0
 17 35  1  0  0  0  0
 17 36  1  0  0  0  0
 19 20  1  0  0  0  0
 19 37  1  0  0  0  0
 19 38  1  0  0  0  0
 20 39  1  0  0  0  0
 20 40  1  0  0  0  0
M  END
> <s_m_source_file>
AV-unprocessed.smi

> <i_m_source_file_index>
1685

> <i_lp_mmshare_version>
43012

> <i_f3d_flags>
0

> <s_epik_input>
W0NIM11bQ0gyXWMxbm5ubjFbQ0gyXUMoPU8pW05IXVtDSF0yW0NIMl1bQ0gyXU4oQyg9TylbQ0gzXSlbQ0gyXVtDSDJdMg==

> <s_epik_cmdline>
J2VwaWtfcHl0aG9uJywgJy1waCcsICc3LjAnLCAnLXRuJywgJzgnLCAnLW1hJywgJzIwMCcsICctbWV0YWxfYmluZGluZycsICctaW1hZScsICc8aW5maWxlLm1hZT4nLCAnLW9tYWUnLCAnPG91dGZpbGUubWFlPic=

> <r_lp_tautomer_probability>
1

> <r_epik_Ionization_Penalty>
1.8486e-06

> <r_epik_Ionization_Penalty_Charging>
0

> <r_epik_Ionization_Penalty_Neutral>
1.8486e-06

> <r_epik_State_Penalty>
-0

> <r_epik_Charging_Adjusted_Penalty>
0

> <i_epik_Tot_Q>
0

> <i_epik_Tot_abs_Q>
0

> <r_epik_Metal_State_Penalty>
-0

> <b_epik_Metal_Only>
0

> <s_lp_Force_Field>
OPLS_2005

> <r_lp_Energy>
22.135

> <b_lp_Chiralities_Consistent>
1

> <s_lp_Variant>
AV-unprocessed.smi:1685-1

> <Gold.Version>
5.8.1

> <Gold.Id.Protein>
6NUR|6NUR_protein|mol2

> <Gold.PLP.Fitness>
43.2560

> <Gold.PLP.PLP>
-35.6736

> <Gold.PLP.part.hbond>
-3.0000

> <Gold.PLP.part.metal>
0.0000

> <Gold.PLP.part.buried>
-3.6336

> <Gold.PLP.part.nonpolar>
-30.9856

> <Gold.PLP.part.repulsive>
0.5618

> <Gold.PLP.ligand.clash>
0.0000

> <Gold.PLP.ligand.torsion>
0.2286

> <Gold.PLP.Chemscore.Hbond>
2.6720

> <Gold.PLP.Chemscore.CHOScore>
0.0000

> <Gold.PLP.Chemscore.Metal>
0.0000

> <Gold.Chemscore.Hbonds>
donor molecule, donor type, donor heavy atom, donor atom, acceptor molecule, acceptor atom, score
      L1  H    11    28       P1  8028  1.00
      P1  H  6933  6945       L1    18  0.64
      P1  H  7989  7998       L1    10  0.99

> <Gold.PLP.Chemscore.Internal.Correction>
0.0237

> <Gold.Rescore>
     Score         DG    S(hbond)    S(metal)    S(lipo)     H(rot)  DE(clash)    DE(int)     intcor
     17.43     -18.01       2.35        0.00      80.32       1.85       0.18       0.40       ----

> <Gold.Chemscore.Fitness>
17.4257

> <Gold.Chemscore.DG>
-18.0088

> <Gold.Chemscore.ZeroCoef>
-5.4800

> <Gold.Chemscore.Hbond>
2.3535

> <Gold.Chemscore.Metal>
0.0000

> <Gold.Chemscore.Lipo>
80.3245

> <Gold.Chemscore.Internal_Hbond>
0.0000

> <Gold.Chemscore.DEClash>
0.1808

> <Gold.Chemscore.DEInternal>
0.4023

> <Gold.Chemscore.Rot>
1.8476

> <Gold.Chemscore.Internal.Correction>
   9.000000E+99

> <Gold.Chemscore.Hbonds>
donor molecule, donor type, donor heavy atom, donor atom, acceptor molecule, acceptor atom, score
      L1  H    11    28       P1  8028  0.96
      P1  H  6933  6945       L1    18  0.64
      P1  H  7989  7998       L1    10  0.66

> <Gold.Chemscore.Hbond.Weighted>
-7.8606

> <Gold.Chemscore.Metal.Weighted>
-0.0000

> <Gold.Chemscore.Lipo.Weighted>
-9.3980

> <Gold.Chemscore.Internal_Hbond.Weighted>
0.0000

> <Gold.Chemscore.DEClash.Weighted>
0.1808

> <Gold.Chemscore.DEInternal.Weighted>
0.4023

> <Gold.Chemscore.Rot.Weighted>
4.7298

> <Gold.Chemscore.Internal.Correction.Weighted>
   9.000000E+99

> <Gold.Protein.RotatedTorsions>
[ 6907 6896 6895 6894 ] final -114.32 input  -60.11 | X-H torsion
[ 7974 7965 7964 7962 ] final  125.79 input  175.53 | X-H torsion
[ 8008 7997 7996 7995 ] final   36.66 input   59.86 | X-H torsion
[ 10167 10162 10161 10158 ] final  -84.81 input  -65.29 | X-H torsion
[ 10718 10713 10712 10709 ] final -113.44 input   66.30 | X-H torsion
[ 10763 10752 10751 10750 ] final  -67.95 input  -60.55 | X-H torsion
[ 11005 11000 10999 10996 ] final  -74.39 input  -57.11 | X-H torsion

> <Gold.Protein.ActiveResidues>
 VAL166  LYS551  ARG553  GLY616  TRP617  ASP618  TYR619  PRO620  LYS621  CYS622 
 ASP623  PHE694  ASN695  SER759  ASP760  ASP761  ALA762  ILE779  LEU786  VAL792 
 PHE793  MET794  SER795  GLU796  ALA797  LYS798  CYS799  TRP800  GLU811  SER814 

> <Gold.Protein.RotatedAtoms>
  150.7894  133.8817  159.3287 H   0  0  0  0  0  0  0  0  0  0  0  0  # atno 6907 bound_to 6896
  151.6659  135.0981  160.0198 H   0  0  0  0  0  0  0  0  0  0  0  0  # atno 6908 bound_to 6896
  152.3965  133.6715  159.6315 H   0  0  0  0  0  0  0  0  0  0  0  0  # atno 6909 bound_to 6896
  145.0690  139.3745  143.4967 H   0  0  0  0  0  0  0  0  0  0  0  0  # atno 7974 bound_to 7965
  155.1910  140.3308  155.4358 H   0  0  0  0  0  0  0  0  0  0  0  0  # atno 8008 bound_to 7997
  156.2442  140.1910  156.6953 H   0  0  0  0  0  0  0  0  0  0  0  0  # atno 8009 bound_to 7997
  154.6206  140.0596  156.9596 H   0  0  0  0  0  0  0  0  0  0  0  0  # atno 8010 bound_to 7997
  140.4097  143.2628  151.9034 H   0  0  0  0  0  0  0  0  0  0  0  0  # atno 10167 bound_to 10162
  156.0767  130.5973  150.8642 H   0  0  0  0  0  0  0  0  0  0  0  0  # atno 10718 bound_to 10713
  154.3819  135.6072  153.5795 H   0  0  0  0  0  0  0  0  0  0  0  0  # atno 10763 bound_to 10752
  152.9788  135.5863  154.4400 H   0  0  0  0  0  0  0  0  0  0  0  0  # atno 10764 bound_to 10752
  154.4170  135.2845  155.1978 H   0  0  0  0  0  0  0  0  0  0  0  0  # atno 10765 bound_to 10752
  141.1634  133.6910  156.7358 H   0  0  0  0  0  0  0  0  0  0  0  0  # atno 11005 bound_to 11000
  146.3528  140.0425  142.8642 LP  0  0  0  0  0  0  0  0  0  0  0  0  # atno 17320 bound_to 7965
  145.1316  140.9521  143.4541 LP  0  0  0  0  0  0  0  0  0  0  0  0  # atno 17321 bound_to 7965
  139.4783  144.5549  151.8328 LP  0  0  0  0  0  0  0  0  0  0  0  0  # atno 17342 bound_to 10162
  140.4651  144.1667  150.5911 LP  0  0  0  0  0  0  0  0  0  0  0  0  # atno 17343 bound_to 10162
  157.5865  131.0945  150.9188 LP  0  0  0  0  0  0  0  0  0  0  0  0  # atno 17370 bound_to 10713
  156.9373  130.5371  149.5279 LP  0  0  0  0  0  0  0  0  0  0  0  0  # atno 17371 bound_to 10713
  140.2711  134.8391  157.3848 LP  0  0  0  0  0  0  0  0  0  0  0  0  # atno 17394 bound_to 11000
  140.1520  134.4837  155.7954 LP  0  0  0  0  0  0  0  0  0  0  0  0  # atno 17395 bound_to 11000

$$$$
