AV-unprocessed.smi:415|AV-procd|sdf|2525|dock10
  -GOLD-   2262022483D 1   1.00000     0.00000
 Structure written by MMmdl.
 53 54  0  0  0  0  0  0  0  0  1 V2000
  148.1076  136.0926  159.8493 C   0  0  0  0  0  0  0  0  0  0  0  0
  149.3102  136.3505  159.1468 O   0  0  0  0  0  0  0  0  0  0  0  0
  149.1898  136.1072  157.7551 C   0  0  0  0  0  0  0  0  0  0  0  0
  147.9799  136.8792  157.2025 C   0  0  0  0  0  0  0  0  0  0  0  0
  148.3523  137.9668  156.3169 N   0  0  0  0  0  0  0  0  0  0  0  0
  148.9582  137.7767  155.0777 C   0  0  0  0  0  0  0  0  0  0  0  0
  149.2537  136.4955  154.6480 N   0  0  0  0  0  0  0  0  0  0  0  0
  149.2793  138.8219  154.2833 C   0  0  0  0  0  0  0  0  0  0  0  0
  149.0175  140.1989  154.6789 C   0  0  0  0  0  0  0  0  0  0  0  0
  149.2829  141.1624  153.9595 O   0  0  0  0  0  0  0  0  0  0  0  0
  148.4288  140.3699  155.9527 N   0  0  0  0  0  0  0  0  0  0  0  0
  148.1244  141.7388  156.4247 C   0  0  0  0  0  0  0  0  0  0  0  0
  148.8043  142.0781  157.7591 C   0  0  0  0  0  0  0  0  0  0  0  0
  148.1355  142.3719  158.7508 O   0  0  0  0  0  0  0  0  0  0  0  0
  150.1452  142.0416  157.7603 N   0  0  0  0  0  0  0  0  0  0  0  0
  151.0000  142.3180  158.9131 C   0  0  1  0  0  0  0  0  0  0  0  0
  151.8229  141.0591  159.2605 C   0  0  0  0  0  0  0  0  0  0  0  0
  152.7998  141.3138  160.4165 C   0  0  0  0  0  0  0  0  0  0  0  0
  153.7163  142.5096  160.1147 C   0  0  0  0  0  0  0  0  0  0  0  0
  152.9174  143.7880  159.7888 C   0  0  2  0  0  0  0  0  0  0  0  0
  152.2609  144.3855  161.0505 C   0  0  0  0  0  0  0  0  0  0  0  0
  151.9288  143.5253  158.6210 C   0  0  2  0  0  0  0  0  0  0  0  0
  151.1570  144.7942  158.2079 C   0  0  0  0  0  0  0  0  0  0  0  0
  148.0912  139.2793  156.7863 C   0  0  0  0  0  0  0  0  0  0  0  0
  147.5792  139.4765  157.8924 O   0  0  0  0  0  0  0  0  0  0  0  0
  148.2546  136.2921  160.9106 H   0  0  0  0  0  0  0  0  0  0  0  0
  147.8026  135.0509  159.7413 H   0  0  0  0  0  0  0  0  0  0  0  0
  147.2986  136.7334  159.4956 H   0  0  0  0  0  0  0  0  0  0  0  0
  150.0955  136.4423  157.2478 H   0  0  0  0  0  0  0  0  0  0  0  0
  149.0891  135.0380  157.5622 H   0  0  0  0  0  0  0  0  0  0  0  0
  147.3058  136.2223  156.6542 H   0  0  0  0  0  0  0  0  0  0  0  0
  147.3693  137.3024  158.0020 H   0  0  0  0  0  0  0  0  0  0  0  0
  149.0409  135.6853  155.2120 H   0  0  0  0  0  0  0  0  0  0  0  0
  149.5320  136.3122  153.6945 H   0  0  0  0  0  0  0  0  0  0  0  0
  149.7452  138.6410  153.3250 H   0  0  0  0  0  0  0  0  0  0  0  0
  148.4174  142.4721  155.6707 H   0  0  0  0  0  0  0  0  0  0  0  0
  147.0521  141.8984  156.5434 H   0  0  0  0  0  0  0  0  0  0  0  0
  150.6115  141.7955  156.8994 H   0  0  0  0  0  0  0  0  0  0  0  0
  150.3638  142.5695  159.7632 H   0  0  0  0  0  0  0  0  0  0  0  0
  151.1594  140.2344  159.5234 H   0  0  0  0  0  0  0  0  0  0  0  0
  152.3832  140.7333  158.3828 H   0  0  0  0  0  0  0  0  0  0  0  0
  152.2427  141.4910  161.3369 H   0  0  0  0  0  0  0  0  0  0  0  0
  153.4024  140.4226  160.5927 H   0  0  0  0  0  0  0  0  0  0  0  0
  154.3885  142.6861  160.9548 H   0  0  0  0  0  0  0  0  0  0  0  0
  154.3553  142.2606  159.2664 H   0  0  0  0  0  0  0  0  0  0  0  0
  153.6398  144.5286  159.4428 H   0  0  0  0  0  0  0  0  0  0  0  0
  151.4778  143.7431  161.4518 H   0  0  0  0  0  0  0  0  0  0  0  0
  151.8172  145.3601  160.8480 H   0  0  0  0  0  0  0  0  0  0  0  0
  152.9989  144.5324  161.8393 H   0  0  0  0  0  0  0  0  0  0  0  0
  152.5408  143.2526  157.7594 H   0  0  0  0  0  0  0  0  0  0  0  0
  150.4225  145.0807  158.9605 H   0  0  0  0  0  0  0  0  0  0  0  0
  150.6218  144.6488  157.2694 H   0  0  0  0  0  0  0  0  0  0  0  0
  151.8350  145.6356  158.0631 H   0  0  0  0  0  0  0  0  0  0  0  0
  1  2  1  0  0  0  0
  1 26  1  0  0  0  0
  1 27  1  0  0  0  0
  1 28  1  0  0  0  0
  2  3  1  0  0  0  0
  3  4  1  0  0  0  0
  3 29  1  0  0  0  0
  3 30  1  0  0  0  0
  4  5  1  0  0  0  0
  4 31  1  0  0  0  0
  4 32  1  0  0  0  0
  5 24  1  0  0  0  0
  5  6  1  0  0  0  0
  6  7  1  0  0  0  0
  6  8  2  0  0  0  0
  7 33  1  0  0  0  0
  7 34  1  0  0  0  0
  8  9  1  0  0  0  0
  8 35  1  0  0  0  0
  9 10  2  0  0  0  0
  9 11  1  0  0  0  0
 11 12  1  0  0  0  0
 11 24  1  0  0  0  0
 12 13  1  0  0  0  0
 12 36  1  0  0  0  0
 12 37  1  0  0  0  0
 13 14  2  0  0  0  0
 13 15  1  0  0  0  0
 15 16  1  0  0  0  0
 15 38  1  0  0  0  0
 16 22  1  0  0  0  0
 16 17  1  0  0  0  0
 16 39  1  0  0  0  0
 17 18  1  0  0  0  0
 17 40  1  0  0  0  0
 17 41  1  0  0  0  0
 18 19  1  0  0  0  0
 18 42  1  0  0  0  0
 18 43  1  0  0  0  0
 19 20  1  0  0  0  0
 19 44  1  0  0  0  0
 19 45  1  0  0  0  0
 20 21  1  0  0  0  0
 20 22  1  0  0  0  0
 20 46  1  0  0  0  0
 21 47  1  0  0  0  0
 21 48  1  0  0  0  0
 21 49  1  0  0  0  0
 22 23  1  0  0  0  0
 22 50  1  0  0  0  0
 23 51  1  0  0  0  0
 23 52  1  0  0  0  0
 23 53  1  0  0  0  0
 24 25  2  0  0  0  0
M  END
> <s_m_source_file>
AV-unprocessed.smi

> <i_m_source_file_index>
415

> <i_lp_mmshare_version>
43012

> <i_f3d_flags>
0

> <s_epik_input>
W0NIM11PW0NIMl1bQ0gyXW4xYyhbTkgyXSlbY0hdYyg9TyluKGMxPU8pW0NIMl1DKD1PKVtOSF1bQ0BASF0yW0NIMl1bQ0gyXVtDSDJdW0NAQEhdKFtDSDNdKVtDQEhdMltDSDNd

> <s_epik_cmdline>
J2VwaWtfcHl0aG9uJywgJy1waCcsICc3LjAnLCAnLXRuJywgJzgnLCAnLW1hJywgJzIwMCcsICctbWV0YWxfYmluZGluZycsICctaW1hZScsICc8aW5maWxlLm1hZT4nLCAnLW9tYWUnLCAnPG91dGZpbGUubWFlPic=

> <r_lp_tautomer_probability>
1

> <r_epik_Ionization_Penalty>
8.6647e-06

> <r_epik_Ionization_Penalty_Charging>
1.81162e-08

> <r_epik_Ionization_Penalty_Neutral>
8.64658e-06

> <r_epik_State_Penalty>
-0

> <r_epik_Charging_Adjusted_Penalty>
1.81162e-08

> <i_epik_Tot_Q>
0

> <i_epik_Tot_abs_Q>
0

> <r_epik_Metal_State_Penalty>
-0

> <b_epik_Metal_Only>
0

> <s_lp_Force_Field>
OPLS_2005

> <r_lp_Energy>
23.106

> <b_lp_Chiralities_Consistent>
1

> <s_lp_Variant>
AV-unprocessed.smi:415-8

> <Gold.Version>
5.8.1

> <Gold.Id.Protein>
6NUR|6NUR_protein|mol2

> <Gold.PLP.Fitness>
46.6814

> <Gold.PLP.PLP>
-39.6426

> <Gold.PLP.part.hbond>
-5.3661

> <Gold.PLP.part.metal>
0.0000

> <Gold.PLP.part.buried>
-6.2107

> <Gold.PLP.part.nonpolar>
-28.8450

> <Gold.PLP.part.repulsive>
0.8785

> <Gold.PLP.ligand.clash>
0.0000

> <Gold.PLP.ligand.torsion>
0.4253

> <Gold.PLP.Chemscore.Hbond>
2.6238

> <Gold.PLP.Chemscore.CHOScore>
0.0000

> <Gold.PLP.Chemscore.Metal>
0.0000

> <Gold.Chemscore.Hbonds>
donor molecule, donor type, donor heavy atom, donor atom, acceptor molecule, acceptor atom, score
      L1  H     7    34       P1  7948  0.94
      P1  H  6896  6908       L1     2  0.52
      P1  H  7989  7998       L1    10  0.05
      P1  H  8011  8017       L1    10  0.68

> <Gold.PLP.Chemscore.Internal.Correction>
0.0181

> <Gold.Rescore>
     Score         DG    S(hbond)    S(metal)    S(lipo)     H(rot)  DE(clash)    DE(int)     intcor
     16.14     -18.08       1.98        0.00     100.81       2.26       0.22       1.73       ----

> <Gold.Chemscore.Fitness>
16.1373

> <Gold.Chemscore.DG>
-18.0848

> <Gold.Chemscore.ZeroCoef>
-5.4800

> <Gold.Chemscore.Hbond>
1.9781

> <Gold.Chemscore.Metal>
0.0000

> <Gold.Chemscore.Lipo>
100.8121

> <Gold.Chemscore.Internal_Hbond>
0.0000

> <Gold.Chemscore.DEClash>
0.2186

> <Gold.Chemscore.DEInternal>
1.7289

> <Gold.Chemscore.Rot>
2.2645

> <Gold.Chemscore.Internal.Correction>
   9.000000E+99

> <Gold.Chemscore.Hbonds>
donor molecule, donor type, donor heavy atom, donor atom, acceptor molecule, acceptor atom, score
      L1  H     7    34       P1  7948  0.59
      P1  H  6896  6908       L1     2  0.16
      P1  H  7989  7998       L1    10  0.02
      P1  H  8011  8017       L1    10  0.65

> <Gold.Chemscore.Hbond.Weighted>
-6.6069

> <Gold.Chemscore.Metal.Weighted>
-0.0000

> <Gold.Chemscore.Lipo.Weighted>
-11.7950

> <Gold.Chemscore.Internal_Hbond.Weighted>
0.0000

> <Gold.Chemscore.DEClash.Weighted>
0.2186

> <Gold.Chemscore.DEInternal.Weighted>
1.7289

> <Gold.Chemscore.Rot.Weighted>
5.7972

> <Gold.Chemscore.Internal.Correction.Weighted>
   9.000000E+99

> <Gold.Protein.RotatedTorsions>
[ 6907 6896 6895 6894 ] final -161.33 input  -60.11 | X-H torsion
[ 7974 7965 7964 7962 ] final   59.27 input  175.53 | X-H torsion
[ 8008 7997 7996 7995 ] final  -70.21 input   59.86 | X-H torsion
[ 10167 10162 10161 10158 ] final   50.16 input  -65.29 | X-H torsion
[ 10718 10713 10712 10709 ] final   15.34 input   66.30 | X-H torsion
[ 10763 10752 10751 10750 ] final  168.10 input  -60.55 | X-H torsion
[ 11005 11000 10999 10996 ] final -135.40 input  -57.11 | X-H torsion

> <Gold.Protein.ActiveResidues>
 VAL166  LYS551  ARG553  GLY616  TRP617  ASP618  TYR619  PRO620  LYS621  CYS622 
 ASP623  PHE694  ASN695  SER759  ASP760  ASP761  ALA762  ILE779  LEU786  VAL792 
 PHE793  MET794  SER795  GLU796  ALA797  LYS798  CYS799  TRP800  GLU811  SER814 

> <Gold.Protein.RotatedAtoms>
  151.3630  133.3882  159.2691 H   0  0  0  0  0  0  0  0  0  0  0  0  # atno 6907 bound_to 6896
  150.9710  134.9084  159.7798 H   0  0  0  0  0  0  0  0  0  0  0  0  # atno 6908 bound_to 6896
  152.5184  134.3592  159.9331 H   0  0  0  0  0  0  0  0  0  0  0  0  # atno 6909 bound_to 6896
  145.9090  139.3639  143.0547 H   0  0  0  0  0  0  0  0  0  0  0  0  # atno 7974 bound_to 7965
  154.4995  140.0839  156.7767 H   0  0  0  0  0  0  0  0  0  0  0  0  # atno 8008 bound_to 7997
  155.4037  140.3438  155.4240 H   0  0  0  0  0  0  0  0  0  0  0  0  # atno 8009 bound_to 7997
  156.1438  140.1537  156.8867 H   0  0  0  0  0  0  0  0  0  0  0  0  # atno 8010 bound_to 7997
  140.2754  144.3218  150.6278 H   0  0  0  0  0  0  0  0  0  0  0  0  # atno 10167 bound_to 10162
  157.0522  130.6274  149.5770 H   0  0  0  0  0  0  0  0  0  0  0  0  # atno 10718 bound_to 10713
  154.3635  135.2753  155.2306 H   0  0  0  0  0  0  0  0  0  0  0  0  # atno 10763 bound_to 10752
  154.4484  135.5937  153.6179 H   0  0  0  0  0  0  0  0  0  0  0  0  # atno 10764 bound_to 10752
  152.9842  135.6036  154.3859 H   0  0  0  0  0  0  0  0  0  0  0  0  # atno 10765 bound_to 10752
  140.8902  134.1822  157.4533 H   0  0  0  0  0  0  0  0  0  0  0  0  # atno 11005 bound_to 11000
  145.8696  140.9428  143.0657 LP  0  0  0  0  0  0  0  0  0  0  0  0  # atno 17320 bound_to 7965
  144.6741  140.0637  143.7475 LP  0  0  0  0  0  0  0  0  0  0  0  0  # atno 17321 bound_to 7965
  140.5856  143.2170  151.7349 LP  0  0  0  0  0  0  0  0  0  0  0  0  # atno 17342 bound_to 10162
  139.4977  144.4016  152.0175 LP  0  0  0  0  0  0  0  0  0  0  0  0  # atno 17343 bound_to 10162
  156.0004  130.5082  150.7642 LP  0  0  0  0  0  0  0  0  0  0  0  0  # atno 17370 bound_to 10713
  157.5021  131.0919  151.0301 LP  0  0  0  0  0  0  0  0  0  0  0  0  # atno 17371 bound_to 10713
  139.8729  134.9855  156.5284 LP  0  0  0  0  0  0  0  0  0  0  0  0  # atno 17394 bound_to 11000
  140.8356  133.8244  155.9026 LP  0  0  0  0  0  0  0  0  0  0  0  0  # atno 17395 bound_to 11000

$$$$
