AV-unprocessed.smi:1667|AV-procd|sdf|6680|dock9
  -GOLD-   22720 7393D 1   1.00000     0.00000
 Structure written by MMmdl.
 46 48  0  0  0  0  0  0  0  0  2 V2000
  147.2599  133.1327  151.8065 C   0  0  0  0  0  0  0  0  0  0  0  0
  147.0502  133.4929  153.2728 C   0  0  0  0  0  0  0  0  0  0  0  0
  146.2475  132.8593  153.9551 O   0  0  0  0  0  0  0  0  0  0  0  0
  147.7838  134.5112  153.7472 N   0  0  0  0  0  0  0  0  0  0  0  0
  147.7109  135.0518  155.1036 C   0  0  2  0  0  0  0  0  0  0  0  0
  146.2700  135.4992  155.3877 C   0  0  0  0  0  0  0  0  0  0  0  0
  148.6678  136.1861  155.3468 C   0  0  0  0  0  0  0  0  0  0  0  0
  149.5078  136.7433  154.4265 N   0  3  0  0  0  0  0  0  0  0  0  0
  150.2223  137.7908  155.0057 C   0  0  0  0  0  0  0  0  0  0  0  0
  151.1846  138.6420  154.4717 C   0  0  0  0  0  0  0  0  0  0  0  0
  151.7128  139.6218  155.3378 C   0  0  0  0  0  0  0  0  0  0  0  0
  151.2801  139.7292  156.6755 C   0  0  0  0  0  0  0  0  0  0  0  0
  150.3039  138.8595  157.2049 C   0  0  0  0  0  0  0  0  0  0  0  0
  149.7915  137.8893  156.3436 C   0  0  0  0  0  0  0  0  0  0  0  0
  148.8396  136.8772  156.5129 N   0  0  0  0  0  0  0  0  0  0  0  0
  148.1842  136.7275  157.8228 C   0  0  0  0  0  0  0  0  0  0  0  0
  148.9411  135.7867  158.7834 C   0  0  1  0  0  0  0  0  0  0  0  0
  150.2122  136.3505  159.0285 O   0  0  0  0  0  0  0  0  0  0  0  0
  148.1804  135.5172  160.0733 C   0  0  0  0  0  0  0  0  0  0  0  0
  147.7351  134.2141  160.3873 C   0  0  0  0  0  0  0  0  0  0  0  0
  147.0209  133.9756  161.5775 C   0  0  0  0  0  0  0  0  0  0  0  0
  146.7428  135.0390  162.4573 C   0  0  0  0  0  0  0  0  0  0  0  0
  147.1866  136.3399  162.1507 C   0  0  0  0  0  0  0  0  0  0  0  0
  146.9258  137.3623  162.9992 F   0  0  0  0  0  0  0  0  0  0  0  0
  147.9070  136.5772  160.9641 C   0  0  0  0  0  0  0  0  0  0  0  0
  147.9592  134.2437  155.7924 H   0  0  0  0  0  0  0  0  0  0  0  0
  148.3231  133.0654  151.5738 H   0  0  0  0  0  0  0  0  0  0  0  0
  146.8118  133.8908  151.1638 H   0  0  0  0  0  0  0  0  0  0  0  0
  146.7993  132.1715  151.5746 H   0  0  0  0  0  0  0  0  0  0  0  0
  148.4181  134.9709  153.1100 H   0  0  0  0  0  0  0  0  0  0  0  0
  146.1578  135.8507  156.4135 H   0  0  0  0  0  0  0  0  0  0  0  0
  145.5679  134.6769  155.2462 H   0  0  0  0  0  0  0  0  0  0  0  0
  145.9691  136.3120  154.7257 H   0  0  0  0  0  0  0  0  0  0  0  0
  151.5142  138.5642  153.4460 H   0  0  0  0  0  0  0  0  0  0  0  0
  152.4624  140.3064  154.9678 H   0  0  0  0  0  0  0  0  0  0  0  0
  151.7046  140.4948  157.3084 H   0  0  0  0  0  0  0  0  0  0  0  0
  149.9779  138.9520  158.2305 H   0  0  0  0  0  0  0  0  0  0  0  0
  148.0871  137.7237  158.2576 H   0  0  0  0  0  0  0  0  0  0  0  0
  147.1684  136.3679  157.6595 H   0  0  0  0  0  0  0  0  0  0  0  0
  149.1253  134.8335  158.2877 H   0  0  0  0  0  0  0  0  0  0  0  0
  150.5175  136.7588  158.2326 H   0  0  0  0  0  0  0  0  0  0  0  0
  147.9412  133.3932  159.7158 H   0  0  0  0  0  0  0  0  0  0  0  0
  146.6839  132.9772  161.8146 H   0  0  0  0  0  0  0  0  0  0  0  0
  146.1942  134.8563  163.3696 H   0  0  0  0  0  0  0  0  0  0  0  0
  148.2457  137.5779  160.7393 H   0  0  0  0  0  0  0  0  0  0  0  0
  149.5860  136.4212  153.4706 H   0  0  0  0  0  0  0  0  0  0  0  0
  1  2  1  0  0  0  0
  1 27  1  0  0  0  0
  1 28  1  0  0  0  0
  1 29  1  0  0  0  0
  2  3  2  0  0  0  0
  2  4  1  0  0  0  0
  4  5  1  0  0  0  0
  4 30  1  0  0  0  0
  5 26  1  0  0  0  0
  5  6  1  0  0  0  0
  5  7  1  0  0  0  0
  6 31  1  0  0  0  0
  6 32  1  0  0  0  0
  6 33  1  0  0  0  0
  7 15  1  0  0  0  0
  7  8  2  0  0  0  0
  8  9  1  0  0  0  0
  8 46  1  0  0  0  0
  9 14  2  0  0  0  0
  9 10  1  0  0  0  0
 10 11  2  0  0  0  0
 10 34  1  0  0  0  0
 11 12  1  0  0  0  0
 11 35  1  0  0  0  0
 12 13  2  0  0  0  0
 12 36  1  0  0  0  0
 13 14  1  0  0  0  0
 13 37  1  0  0  0  0
 14 15  1  0  0  0  0
 15 16  1  0  0  0  0
 16 17  1  0  0  0  0
 16 38  1  0  0  0  0
 16 39  1  0  0  0  0
 17 18  1  0  0  0  0
 17 19  1  0  0  0  0
 17 40  1  0  0  0  0
 18 41  1  0  0  0  0
 19 25  1  0  0  0  0
 19 20  2  0  0  0  0
 20 21  1  0  0  0  0
 20 42  1  0  0  0  0
 21 22  2  0  0  0  0
 21 43  1  0  0  0  0
 22 23  1  0  0  0  0
 22 44  1  0  0  0  0
 23 24  1  0  0  0  0
 23 25  2  0  0  0  0
 25 45  1  0  0  0  0
M  CHG  1   8   1
M  END
> <s_m_source_file>
AV-unprocessed.smi

> <i_m_source_file_index>
1667

> <i_lp_mmshare_version>
43012

> <i_f3d_flags>
0

> <s_epik_input>
W0NIM11DKD1PKVtOSF1bQ0BASF0oW0NIM10pYyhuMSluKGMoYzEyKVtjSF1bY0hdW2NIXVtjSF0yKVtDSDJdW0NASF0oW09IXSljM1tjSF1bY0hdW2NIXWMoRilbY0hdMw==

> <s_epik_cmdline>
J2VwaWtfcHl0aG9uJywgJy1waCcsICc3LjAnLCAnLXRuJywgJzgnLCAnLW1hJywgJzIwMCcsICctbWV0YWxfYmluZGluZycsICctaW1hZScsICc8aW5maWxlLm1hZT4nLCAnLW9tYWUnLCAnPG91dGZpbGUubWFlPic=

> <r_epik_Ionization_Penalty>
0.950383

> <r_epik_Ionization_Penalty_Charging>
0.950379

> <r_epik_Ionization_Penalty_Neutral>
3.60962e-06

> <r_epik_State_Penalty>
0.994584

> <r_epik_Charging_Adjusted_Penalty>
1.94496

> <i_epik_Tot_Q>
1

> <i_epik_Tot_abs_Q>
1

> <r_epik_Metal_State_Penalty>
1.10485

> <b_epik_Metal_Only>
0

> <s_lp_Force_Field>
OPLS_2005

> <r_lp_Energy>
10.8153

> <b_lp_Chiralities_Consistent>
1

> <s_lp_Variant>
AV-unprocessed.smi:1667-8

> <Gold.Version>
5.8.1

> <Gold.Id.Protein>
6NUR|6NUR_protein|mol2

> <Gold.PLP.Fitness>
49.2024

> <Gold.PLP.PLP>
-37.9821

> <Gold.PLP.part.hbond>
-3.0000

> <Gold.PLP.part.metal>
0.0000

> <Gold.PLP.part.buried>
-2.8301

> <Gold.PLP.part.nonpolar>
-32.0431

> <Gold.PLP.part.repulsive>
0.1129

> <Gold.PLP.ligand.clash>
0.0000

> <Gold.PLP.ligand.torsion>
0.4120

> <Gold.PLP.Chemscore.Hbond>
4.0000

> <Gold.PLP.Chemscore.CHOScore>
0.0000

> <Gold.PLP.Chemscore.Metal>
0.0000

> <Gold.Chemscore.Hbonds>
donor molecule, donor type, donor heavy atom, donor atom, acceptor molecule, acceptor atom, score
      L1  H     4    30       P1  7948  1.00
      L1  H     8    46       P1  7948  2.00
      P1  H  6896  6909       L1    18  1.00

> <Gold.PLP.Chemscore.Internal.Correction>
0.0442

> <Gold.Rescore>
     Score         DG    S(hbond)    S(metal)    S(lipo)     H(rot)  DE(clash)    DE(int)     intcor
     18.27     -18.73       2.84        0.00      87.64       2.53       0.01       0.45       ----

> <Gold.Chemscore.Fitness>
18.2663

> <Gold.Chemscore.DG>
-18.7270

> <Gold.Chemscore.ZeroCoef>
-5.4800

> <Gold.Chemscore.Hbond>
2.8381

> <Gold.Chemscore.Metal>
0.0000

> <Gold.Chemscore.Lipo>
87.6372

> <Gold.Chemscore.Internal_Hbond>
0.0000

> <Gold.Chemscore.DEClash>
0.0138

> <Gold.Chemscore.DEInternal>
0.4470

> <Gold.Chemscore.Rot>
2.5335

> <Gold.Chemscore.Internal.Correction>
   9.000000E+99

> <Gold.Chemscore.Hbonds>
donor molecule, donor type, donor heavy atom, donor atom, acceptor molecule, acceptor atom, score
      L1  H     4    30       P1  7948  0.78
      L1  H     8    46       P1  7948  0.54
      P1  H  6896  6909       L1    18  0.25

> <Gold.Chemscore.Hbond.Weighted>
-9.4791

> <Gold.Chemscore.Metal.Weighted>
-0.0000

> <Gold.Chemscore.Lipo.Weighted>
-10.2536

> <Gold.Chemscore.Internal_Hbond.Weighted>
0.0000

> <Gold.Chemscore.DEClash.Weighted>
0.0138

> <Gold.Chemscore.DEInternal.Weighted>
0.4470

> <Gold.Chemscore.Rot.Weighted>
6.4856

> <Gold.Chemscore.Internal.Correction.Weighted>
   9.000000E+99

> <Gold.Protein.RotatedTorsions>
[ 6907 6896 6895 6894 ] final   83.78 input  -60.11 | X-H torsion
[ 7974 7965 7964 7962 ] final  -15.47 input  175.53 | X-H torsion
[ 8008 7997 7996 7995 ] final   49.77 input   59.86 | X-H torsion
[ 10167 10162 10161 10158 ] final  -61.29 input  -65.29 | X-H torsion
[ 10718 10713 10712 10709 ] final  177.71 input   66.30 | X-H torsion
[ 10763 10752 10751 10750 ] final  -44.38 input  -60.55 | X-H torsion
[ 11005 11000 10999 10996 ] final -101.53 input  -57.11 | X-H torsion

> <Gold.Protein.ActiveResidues>
 VAL166  LYS551  ARG553  GLY616  TRP617  ASP618  TYR619  PRO620  LYS621  CYS622 
 ASP623  PHE694  ASN695  SER759  ASP760  ASP761  ALA762  ILE779  LEU786  VAL792 
 PHE793  MET794  SER795  GLU796  ALA797  LYS798  CYS799  TRP800  GLU811  SER814 

> <Gold.Protein.RotatedAtoms>
  152.5336  134.2843  159.9018 H   0  0  0  0  0  0  0  0  0  0  0  0  # atno 6907 bound_to 6896
  151.2797  133.4209  159.2634 H   0  0  0  0  0  0  0  0  0  0  0  0  # atno 6908 bound_to 6896
  151.0295  134.9544  159.8160 H   0  0  0  0  0  0  0  0  0  0  0  0  # atno 6909 bound_to 6896
  146.2030  140.3498  142.8416 H   0  0  0  0  0  0  0  0  0  0  0  0  # atno 7974 bound_to 7965
  155.4077  140.3441  155.4261 H   0  0  0  0  0  0  0  0  0  0  0  0  # atno 8008 bound_to 7997
  156.1467  140.1558  156.8867 H   0  0  0  0  0  0  0  0  0  0  0  0  # atno 8009 bound_to 7997
  154.5017  140.0813  156.7792 H   0  0  0  0  0  0  0  0  0  0  0  0  # atno 8010 bound_to 7997
  140.6015  143.2363  151.5917 H   0  0  0  0  0  0  0  0  0  0  0  0  # atno 10167 bound_to 10162
  156.9014  130.9880  151.3035 H   0  0  0  0  0  0  0  0  0  0  0  0  # atno 10718 bound_to 10713
  154.0111  135.6681  153.4765 H   0  0  0  0  0  0  0  0  0  0  0  0  # atno 10763 bound_to 10752
  153.0620  135.5022  154.8112 H   0  0  0  0  0  0  0  0  0  0  0  0  # atno 10764 bound_to 10752
  154.6995  135.3076  154.9326 H   0  0  0  0  0  0  0  0  0  0  0  0  # atno 10765 bound_to 10752
  141.1227  133.8485  157.1243 H   0  0  0  0  0  0  0  0  0  0  0  0  # atno 11005 bound_to 11000
  144.8727  140.7294  143.6036 LP  0  0  0  0  0  0  0  0  0  0  0  0  # atno 17320 bound_to 7965
  145.3417  139.1730  143.4482 LP  0  0  0  0  0  0  0  0  0  0  0  0  # atno 17321 bound_to 7965
  139.5295  144.2959  152.1114 LP  0  0  0  0  0  0  0  0  0  0  0  0  # atno 17342 bound_to 10162
  140.2141  144.4533  150.6372 LP  0  0  0  0  0  0  0  0  0  0  0  0  # atno 17343 bound_to 10162
  157.6024  130.8522  149.8822 LP  0  0  0  0  0  0  0  0  0  0  0  0  # atno 17370 bound_to 10713
  156.0580  130.3705  150.1046 LP  0  0  0  0  0  0  0  0  0  0  0  0  # atno 17371 bound_to 10713
  140.0198  134.9951  157.0568 LP  0  0  0  0  0  0  0  0  0  0  0  0  # atno 17394 bound_to 11000
  140.4459  134.1633  155.7177 LP  0  0  0  0  0  0  0  0  0  0  0  0  # atno 17395 bound_to 11000

$$$$
