AV-unprocessed.smi:2120|AV-procd|sdf|8638|dock2
  -GOLD-   2272011383D 1   1.00000     0.00000
 Structure written by MMmdl.
 45 48  0  0  0  0  0  0  0  0  1 V2000
  153.3967  139.1566  158.3047 O   0  0  0  0  0  0  0  0  0  0  0  0
  152.4051  139.8849  158.3676 C   0  0  0  0  0  0  0  0  0  0  0  0
  152.2538  140.8029  159.3372 N   0  0  0  0  0  0  0  0  0  0  0  0
  153.2039  141.0522  160.4148 C   0  0  0  0  0  0  0  0  0  0  0  0
  153.6980  142.5087  160.4134 C   0  0  0  0  0  0  0  0  0  0  0  0
  152.6394  143.4724  159.9142 C   0  0  0  0  0  0  0  0  0  0  0  0
  152.5451  143.7908  158.5436 C   0  0  0  0  0  0  0  0  0  0  0  0
  151.5485  144.6923  158.1234 C   0  0  0  0  0  0  0  0  0  0  0  0
  150.6845  145.2367  159.0944 C   0  0  0  0  0  0  0  0  0  0  0  0
  150.7647  144.9385  160.4093 N   0  0  0  0  0  0  0  0  0  0  0  0
  151.7243  144.0742  160.8042 C   0  0  0  0  0  0  0  0  0  0  0  0
  151.2929  139.7547  157.3000 C   0  0  0  0  0  0  0  0  0  0  0  0
  151.9210  139.9117  155.8882 C   0  0  0  0  0  0  0  0  0  0  0  0
  150.8426  139.7329  154.7976 C   0  0  1  0  0  0  0  0  0  0  0  0
  150.2223  138.3246  154.9107 C   0  0  0  0  0  0  0  0  0  0  0  0
  149.5747  138.1651  156.3022 C   0  0  2  0  0  0  0  0  0  0  0  0
  148.4705  139.2266  156.4846 C   0  0  0  0  0  0  0  0  0  0  0  0
  149.0934  140.6330  156.3665 C   0  0  2  0  0  0  0  0  0  0  0  0
  149.7415  140.7992  154.9762 C   0  0  0  0  0  0  0  0  0  0  0  0
  150.1659  140.8185  157.4609 C   0  0  0  0  0  0  0  0  0  0  0  0
  150.6504  138.3426  157.3953 C   0  0  0  0  0  0  0  0  0  0  0  0
  151.4157  141.3659  159.3282 H   0  0  0  0  0  0  0  0  0  0  0  0
  152.7079  140.8305  161.3601 H   0  0  0  0  0  0  0  0  0  0  0  0
  154.0433  140.3595  160.3342 H   0  0  0  0  0  0  0  0  0  0  0  0
  153.9901  142.8130  161.4193 H   0  0  0  0  0  0  0  0  0  0  0  0
  154.5912  142.5987  159.7935 H   0  0  0  0  0  0  0  0  0  0  0  0
  153.2256  143.3542  157.8272 H   0  0  0  0  0  0  0  0  0  0  0  0
  151.4482  144.9604  157.0819 H   0  0  0  0  0  0  0  0  0  0  0  0
  149.9086  145.9307  158.8067 H   0  0  0  0  0  0  0  0  0  0  0  0
  151.7614  143.8583  161.8619 H   0  0  0  0  0  0  0  0  0  0  0  0
  152.3867  140.8933  155.7874 H   0  0  0  0  0  0  0  0  0  0  0  0
  152.7169  139.1806  155.7356 H   0  0  0  0  0  0  0  0  0  0  0  0
  151.3003  139.8477  153.8147 H   0  0  0  0  0  0  0  0  0  0  0  0
  149.4780  138.1749  154.1275 H   0  0  0  0  0  0  0  0  0  0  0  0
  150.9867  137.5614  154.7598 H   0  0  0  0  0  0  0  0  0  0  0  0
  149.1368  137.1701  156.3849 H   0  0  0  0  0  0  0  0  0  0  0  0
  147.6912  139.0940  155.7331 H   0  0  0  0  0  0  0  0  0  0  0  0
  147.9873  139.1066  157.4550 H   0  0  0  0  0  0  0  0  0  0  0  0
  148.3133  141.3844  156.4936 H   0  0  0  0  0  0  0  0  0  0  0  0
  150.1629  141.7999  154.8723 H   0  0  0  0  0  0  0  0  0  0  0  0
  148.9880  140.6988  154.1939 H   0  0  0  0  0  0  0  0  0  0  0  0
  149.6989  140.7375  158.4440 H   0  0  0  0  0  0  0  0  0  0  0  0
  150.5744  141.8284  157.3933 H   0  0  0  0  0  0  0  0  0  0  0  0
  151.4061  137.5630  157.2856 H   0  0  0  0  0  0  0  0  0  0  0  0
  150.2034  138.1957  158.3799 H   0  0  0  0  0  0  0  0  0  0  0  0
  1  2  2  0  0  0  0
  2  3  1  0  0  0  0
  2 12  1  0  0  0  0
  3  4  1  0  0  0  0
  3 22  1  0  0  0  0
  4  5  1  0  0  0  0
  4 23  1  0  0  0  0
  4 24  1  0  0  0  0
  5  6  1  0  0  0  0
  5 25  1  0  0  0  0
  5 26  1  0  0  0  0
  6 11  1  0  0  0  0
  6  7  2  0  0  0  0
  7  8  1  0  0  0  0
  7 27  1  0  0  0  0
  8  9  2  0  0  0  0
  8 28  1  0  0  0  0
  9 10  1  0  0  0  0
  9 29  1  0  0  0  0
 10 11  2  0  0  0  0
 11 30  1  0  0  0  0
 12 20  1  0  0  0  0
 12 21  1  0  0  0  0
 12 13  1  0  0  0  0
 13 14  1  0  0  0  0
 13 31  1  0  0  0  0
 13 32  1  0  0  0  0
 14 19  1  0  0  0  0
 14 15  1  0  0  0  0
 14 33  1  0  0  0  0
 15 16  1  0  0  0  0
 15 34  1  0  0  0  0
 15 35  1  0  0  0  0
 16 17  1  0  0  0  0
 16 21  1  0  0  0  0
 16 36  1  0  0  0  0
 17 18  1  0  0  0  0
 17 37  1  0  0  0  0
 17 38  1  0  0  0  0
 18 19  1  0  0  0  0
 18 20  1  0  0  0  0
 18 39  1  0  0  0  0
 19 40  1  0  0  0  0
 19 41  1  0  0  0  0
 20 42  1  0  0  0  0
 20 43  1  0  0  0  0
 21 44  1  0  0  0  0
 21 45  1  0  0  0  0
M  END
> <s_m_source_file>
AV-unprocessed.smi

> <i_m_source_file_index>
2120

> <i_lp_mmshare_version>
43012

> <i_f3d_flags>
0

> <s_epik_input>
W0NIMl0xW0NASF0oW0NIMl0yKVtDSDJdW0NASF0oW0NIMl0zKVtDSDJdW0NAQEhdMVtDSDJdQzIzQyg9TylbTkhdW0NIMl1bQ0gyXWM0W2NIXVtjSF1bY0hdbltjSF00

> <s_epik_cmdline>
J2VwaWtfcHl0aG9uJywgJy1waCcsICc3LjAnLCAnLXRuJywgJzgnLCAnLW1hJywgJzIwMCcsICctbWV0YWxfYmluZGluZycsICctaW1hZScsICc8aW5maWxlLm1hZT4nLCAnLW9tYWUnLCAnPG91dGZpbGUubWFlPic=

> <r_epik_Ionization_Penalty>
0.0137322

> <r_epik_Ionization_Penalty_Charging>
0

> <r_epik_Ionization_Penalty_Neutral>
0.0137322

> <r_epik_State_Penalty>
0.0107033

> <r_epik_Charging_Adjusted_Penalty>
0.0107033

> <i_epik_Tot_Q>
0

> <i_epik_Tot_abs_Q>
0

> <r_epik_Metal_State_Penalty>
0.0104605

> <b_epik_Metal_Only>
0

> <s_lp_Force_Field>
OPLS_2005

> <r_lp_Energy>
34.8386

> <b_lp_Chiralities_Consistent>
1

> <s_lp_Variant>
AV-unprocessed.smi:2120-1

> <Gold.Version>
5.8.1

> <Gold.Id.Protein>
6NUR|6NUR_protein|mol2

> <Gold.PLP.Fitness>
46.1311

> <Gold.PLP.PLP>
-41.3284

> <Gold.PLP.part.hbond>
-1.0000

> <Gold.PLP.part.metal>
0.0000

> <Gold.PLP.part.buried>
-3.5465

> <Gold.PLP.part.nonpolar>
-36.6877

> <Gold.PLP.part.repulsive>
0.3318

> <Gold.PLP.ligand.clash>
0.0000

> <Gold.PLP.ligand.torsion>
0.6025

> <Gold.PLP.Chemscore.Hbond>
1.0000

> <Gold.PLP.Chemscore.CHOScore>
1.0000

> <Gold.PLP.Chemscore.Metal>
0.0000

> <Gold.Chemscore.Hbonds>
donor molecule, donor type, donor heavy atom, donor atom, acceptor molecule, acceptor atom, score
      P1  H  7997  8009       L1     1  1.00
      L1  C     9    29       P1  8029  1.00

> <Gold.PLP.Chemscore.Internal.Correction>
0.0076

> <Gold.Rescore>
     Score         DG    S(hbond)    S(metal)    S(lipo)     H(rot)  DE(clash)    DE(int)     intcor
     18.85     -20.07       0.89        0.00     128.26       1.32       0.65       0.57       ----

> <Gold.Chemscore.Fitness>
18.8454

> <Gold.Chemscore.DG>
-20.0722

> <Gold.Chemscore.ZeroCoef>
-5.4800

> <Gold.Chemscore.Hbond>
0.8916

> <Gold.Chemscore.Metal>
0.0000

> <Gold.Chemscore.Lipo>
128.2573

> <Gold.Chemscore.Internal_Hbond>
0.0000

> <Gold.Chemscore.DEClash>
0.6534

> <Gold.Chemscore.DEInternal>
0.5733

> <Gold.Chemscore.Rot>
1.3250

> <Gold.Chemscore.Internal.Correction>
   9.000000E+99

> <Gold.Chemscore.Hbonds>
donor molecule, donor type, donor heavy atom, donor atom, acceptor molecule, acceptor atom, score
      P1  H  7997  8009       L1     1  0.75

> <Gold.Chemscore.Hbond.Weighted>
-2.9780

> <Gold.Chemscore.Metal.Weighted>
-0.0000

> <Gold.Chemscore.Lipo.Weighted>
-15.0061

> <Gold.Chemscore.Internal_Hbond.Weighted>
0.0000

> <Gold.Chemscore.DEClash.Weighted>
0.6534

> <Gold.Chemscore.DEInternal.Weighted>
0.5733

> <Gold.Chemscore.Rot.Weighted>
3.3920

> <Gold.Chemscore.Internal.Correction.Weighted>
   9.000000E+99

> <Gold.Protein.RotatedTorsions>
[ 6907 6896 6895 6894 ] final  170.77 input  -60.11 | X-H torsion
[ 7974 7965 7964 7962 ] final  145.17 input  175.53 | X-H torsion
[ 8008 7997 7996 7995 ] final  131.42 input   59.86 | X-H torsion
[ 10167 10162 10161 10158 ] final -166.91 input  -65.29 | X-H torsion
[ 10718 10713 10712 10709 ] final   76.41 input   66.30 | X-H torsion
[ 10763 10752 10751 10750 ] final   99.39 input  -60.55 | X-H torsion
[ 11005 11000 10999 10996 ] final -158.80 input  -57.11 | X-H torsion

> <Gold.Protein.ActiveResidues>
 VAL166  LYS551  ARG553  GLY616  TRP617  ASP618  TYR619  PRO620  LYS621  CYS622 
 ASP623  PHE694  ASN695  SER759  ASP760  ASP761  ALA762  ILE779  LEU786  VAL792 
 PHE793  MET794  SER795  GLU796  ALA797  LYS798  CYS799  TRP800  GLU811  SER814 

> <Gold.Protein.RotatedAtoms>
  151.8109  133.3381  159.3554 H   0  0  0  0  0  0  0  0  0  0  0  0  # atno 6907 bound_to 6896
  150.7326  134.5665  159.5878 H   0  0  0  0  0  0  0  0  0  0  0  0  # atno 6908 bound_to 6896
  152.3076  134.7538  160.0395 H   0  0  0  0  0  0  0  0  0  0  0  0  # atno 6909 bound_to 6896
  144.8775  139.5750  143.5858 H   0  0  0  0  0  0  0  0  0  0  0  0  # atno 7974 bound_to 7965
  156.2969  140.2572  156.2922 H   0  0  0  0  0  0  0  0  0  0  0  0  # atno 8008 bound_to 7997
  154.9498  140.0394  157.2157 H   0  0  0  0  0  0  0  0  0  0  0  0  # atno 8009 bound_to 7997
  154.8046  140.2834  155.5901 H   0  0  0  0  0  0  0  0  0  0  0  0  # atno 8010 bound_to 7997
  139.6084  144.0866  152.1816 H   0  0  0  0  0  0  0  0  0  0  0  0  # atno 10167 bound_to 10162
  157.6672  130.9773  150.1492 H   0  0  0  0  0  0  0  0  0  0  0  0  # atno 10718 bound_to 10713
  153.3009  135.4115  155.1251 H   0  0  0  0  0  0  0  0  0  0  0  0  # atno 10763 bound_to 10752
  154.8549  135.3541  154.5853 H   0  0  0  0  0  0  0  0  0  0  0  0  # atno 10764 bound_to 10752
  153.6279  135.7062  153.5344 H   0  0  0  0  0  0  0  0  0  0  0  0  # atno 10765 bound_to 10752
  140.6496  134.4465  157.5235 H   0  0  0  0  0  0  0  0  0  0  0  0  # atno 11005 bound_to 11000
  146.2972  139.7315  142.9118 LP  0  0  0  0  0  0  0  0  0  0  0  0  # atno 17320 bound_to 7965
  145.4015  141.0386  143.3067 LP  0  0  0  0  0  0  0  0  0  0  0  0  # atno 17321 bound_to 7965
  140.0478  144.5956  150.7359 LP  0  0  0  0  0  0  0  0  0  0  0  0  # atno 17342 bound_to 10162
  140.7301  143.2680  151.3981 LP  0  0  0  0  0  0  0  0  0  0  0  0  # atno 17343 bound_to 10162
  156.2296  130.3681  149.8461 LP  0  0  0  0  0  0  0  0  0  0  0  0  # atno 17370 bound_to 10713
  156.6291  130.8658  151.3491 LP  0  0  0  0  0  0  0  0  0  0  0  0  # atno 17371 bound_to 10713
  139.9050  134.8468  156.1740 LP  0  0  0  0  0  0  0  0  0  0  0  0  # atno 17394 bound_to 11000
  141.0546  133.6871  156.1837 LP  0  0  0  0  0  0  0  0  0  0  0  0  # atno 17395 bound_to 11000

$$$$
