AV-unprocessed.smi:227|AV-procd|sdf|1738|dock9
  -GOLD-   2262020243D 1   1.00000     0.00000
 Structure written by MMmdl.
 54 58  0  0  0  0  0  0  0  0  1 V2000
  140.6176  140.7611  152.1628 O   0  0  0  0  0  0  0  0  0  0  0  0
  140.2925  139.8877  151.1005 C   0  0  0  0  0  0  0  0  0  0  0  0
  140.0918  138.4375  151.6035 C   0  0  1  0  0  0  0  0  0  0  0  0
  141.2474  138.0754  152.5783 C   0  0  0  0  0  0  0  0  0  0  0  0
  141.8431  136.7691  152.3613 N   0  0  0  0  0  0  0  0  0  0  0  0
  141.1759  135.5759  152.2054 C   0  0  0  0  0  0  0  0  0  0  0  0
  141.9398  134.5331  152.0300 N   0  0  0  0  0  0  0  0  0  0  0  0
  143.2339  135.0388  152.0842 C   0  0  0  0  0  0  0  0  0  0  0  0
  144.5353  134.4680  151.9716 C   0  0  0  0  0  0  0  0  0  0  0  0
  144.7662  133.1456  151.7451 N   0  0  0  0  0  0  0  0  0  0  0  0
  144.2734  132.5129  150.5324 C   0  0  1  0  0  0  0  0  0  0  0  0
  145.2176  133.0308  149.4296 C   0  0  0  0  0  0  0  0  0  0  0  0
  146.5485  133.1224  150.1922 C   0  0  0  0  0  0  0  0  0  0  0  0
  146.1251  132.6395  151.5967 C   0  0  2  0  0  0  0  0  0  0  0  0
  145.9182  131.1092  151.5508 C   0  0  1  0  0  0  0  0  0  0  0  0
  145.8667  130.4531  152.9426 C   0  0  0  0  0  0  0  0  0  0  0  0
  145.1369  129.2456  152.8899 O   0  0  0  0  0  0  0  0  0  0  0  0
  144.5731  131.0287  150.8006 C   0  0  0  0  0  0  0  0  0  0  0  0
  145.5955  135.3049  152.1298 N   0  0  0  0  0  0  0  0  0  0  0  0
  145.4058  136.6084  152.3505 C   0  0  0  0  0  0  0  0  0  0  0  0
  144.2570  137.2770  152.4559 N   0  0  0  0  0  0  0  0  0  0  0  0
  143.1874  136.4436  152.3170 C   0  0  0  0  0  0  0  0  0  0  0  0
  138.6783  138.2375  152.2295 C   0  0  1  0  0  0  0  0  0  0  0  0
  138.4979  136.9519  153.0242 C   0  0  0  0  0  0  0  0  0  0  0  0
  137.2664  137.2570  153.8627 C   0  0  0  0  0  0  0  0  0  0  0  0
  137.4270  138.6157  154.2346 O   0  0  0  0  0  0  0  0  0  0  0  0
  138.2629  139.2754  153.2882 C   0  0  0  0  0  0  0  0  0  0  0  0
  141.5535  140.7436  152.2921 H   0  0  0  0  0  0  0  0  0  0  0  0
  139.3981  140.2511  150.5933 H   0  0  0  0  0  0  0  0  0  0  0  0
  141.1140  139.9561  150.3889 H   0  0  0  0  0  0  0  0  0  0  0  0
  140.1576  137.7882  150.7293 H   0  0  0  0  0  0  0  0  0  0  0  0
  142.0553  138.8033  152.5019 H   0  0  0  0  0  0  0  0  0  0  0  0
  140.8912  138.1256  153.6081 H   0  0  0  0  0  0  0  0  0  0  0  0
  140.0981  135.5035  152.2128 H   0  0  0  0  0  0  0  0  0  0  0  0
  143.2216  132.6773  150.3059 H   0  0  0  0  0  0  0  0  0  0  0  0
  145.2659  132.3626  148.5690 H   0  0  0  0  0  0  0  0  0  0  0  0
  144.9066  134.0157  149.0783 H   0  0  0  0  0  0  0  0  0  0  0  0
  147.3342  132.5075  149.7521 H   0  0  0  0  0  0  0  0  0  0  0  0
  146.9060  134.1524  150.2180 H   0  0  0  0  0  0  0  0  0  0  0  0
  146.8173  132.9489  152.3807 H   0  0  0  0  0  0  0  0  0  0  0  0
  146.7051  130.6286  150.9672 H   0  0  0  0  0  0  0  0  0  0  0  0
  146.8696  130.2531  153.3215 H   0  0  0  0  0  0  0  0  0  0  0  0
  145.3778  131.1175  153.6558 H   0  0  0  0  0  0  0  0  0  0  0  0
  144.3343  129.3585  153.3759 H   0  0  0  0  0  0  0  0  0  0  0  0
  143.7941  130.5916  151.4269 H   0  0  0  0  0  0  0  0  0  0  0  0
  144.6345  130.4404  149.8844 H   0  0  0  0  0  0  0  0  0  0  0  0
  146.3031  137.2000  152.4556 H   0  0  0  0  0  0  0  0  0  0  0  0
  137.9334  138.2384  151.4320 H   0  0  0  0  0  0  0  0  0  0  0  0
  138.3559  136.0720  152.3959 H   0  0  0  0  0  0  0  0  0  0  0  0
  139.3574  136.7778  153.6732 H   0  0  0  0  0  0  0  0  0  0  0  0
  136.3601  137.1567  153.2639 H   0  0  0  0  0  0  0  0  0  0  0  0
  137.1758  136.6086  154.7343 H   0  0  0  0  0  0  0  0  0  0  0  0
  139.1285  139.6674  153.8231 H   0  0  0  0  0  0  0  0  0  0  0  0
  137.7275  140.1162  152.8497 H   0  0  0  0  0  0  0  0  0  0  0  0
  1  2  1  0  0  0  0
  1 28  1  0  0  0  0
  2  3  1  0  0  0  0
  2 29  1  0  0  0  0
  2 30  1  0  0  0  0
  3  4  1  0  0  0  0
  3 23  1  0  0  0  0
  3 31  1  0  0  0  0
  4  5  1  0  0  0  0
  4 32  1  0  0  0  0
  4 33  1  0  0  0  0
  5 22  1  0  0  0  0
  5  6  1  0  0  0  0
  6  7  2  0  0  0  0
  6 34  1  0  0  0  0
  7  8  1  0  0  0  0
  8 22  2  0  0  0  0
  8  9  1  0  0  0  0
  9 10  1  0  0  0  0
  9 19  2  0  0  0  0
 10 14  1  0  0  0  0
 10 11  1  0  0  0  0
 11 18  1  0  0  0  0
 11 12  1  0  0  0  0
 11 35  1  0  0  0  0
 12 13  1  0  0  0  0
 12 36  1  0  0  0  0
 12 37  1  0  0  0  0
 13 14  1  0  0  0  0
 13 38  1  0  0  0  0
 13 39  1  0  0  0  0
 14 15  1  0  0  0  0
 14 40  1  0  0  0  0
 15 16  1  0  0  0  0
 15 18  1  0  0  0  0
 15 41  1  0  0  0  0
 16 17  1  0  0  0  0
 16 42  1  0  0  0  0
 16 43  1  0  0  0  0
 17 44  1  0  0  0  0
 18 45  1  0  0  0  0
 18 46  1  0  0  0  0
 19 20  1  0  0  0  0
 20 21  2  0  0  0  0
 20 47  1  0  0  0  0
 21 22  1  0  0  0  0
 23 27  1  0  0  0  0
 23 24  1  0  0  0  0
 23 48  1  0  0  0  0
 24 25  1  0  0  0  0
 24 49  1  0  0  0  0
 24 50  1  0  0  0  0
 25 26  1  0  0  0  0
 25 51  1  0  0  0  0
 25 52  1  0  0  0  0
 26 27  1  0  0  0  0
 27 53  1  0  0  0  0
 27 54  1  0  0  0  0
M  END
> <s_m_source_file>
AV-unprocessed.smi

> <i_m_source_file_index>
227

> <i_lp_mmshare_version>
43012

> <i_f3d_flags>
0

> <s_epik_input>
W0NIMl0xT1tDSDJdW0NIMl1bQ0BIXTFbQ0BIXShbQ0gyXVtPSF0pW0NIMl1uKFtjSF1uMiljKGMyMyluW2NIXW5jM04oW0NASF00NSlbQ0BASF0oW0NIMl1bQ0gyXTQpW0NASF0oW0NIMl01KVtDSDJdW09IXQ==

> <s_epik_cmdline>
J2VwaWtfcHl0aG9uJywgJy1waCcsICc3LjAnLCAnLXRuJywgJzgnLCAnLW1hJywgJzIwMCcsICctbWV0YWxfYmluZGluZycsICctaW1hZScsICc8aW5maWxlLm1hZT4nLCAnLW9tYWUnLCAnPG91dGZpbGUubWFlPic=

> <r_lp_tautomer_probability>
1

> <r_epik_Ionization_Penalty>
0.0055791

> <r_epik_Ionization_Penalty_Charging>
0

> <r_epik_Ionization_Penalty_Neutral>
0.0055791

> <r_epik_State_Penalty>
0.00401299

> <r_epik_Charging_Adjusted_Penalty>
0.00401299

> <i_epik_Tot_Q>
0

> <i_epik_Tot_abs_Q>
0

> <r_epik_Metal_State_Penalty>
-0

> <b_epik_Metal_Only>
0

> <s_lp_Force_Field>
OPLS_2005

> <r_lp_Energy>
89.2194

> <b_lp_Chiralities_Consistent>
1

> <s_lp_Variant>
AV-unprocessed.smi:227-12

> <Gold.Version>
5.8.1

> <Gold.Id.Protein>
6NUR|6NUR_protein|mol2

> <Gold.PLP.Fitness>
43.8072

> <Gold.PLP.PLP>
-37.9131

> <Gold.PLP.part.hbond>
-4.0000

> <Gold.PLP.part.metal>
0.0000

> <Gold.PLP.part.buried>
2.0873

> <Gold.PLP.part.nonpolar>
-35.9555

> <Gold.PLP.part.repulsive>
0.8541

> <Gold.PLP.ligand.clash>
0.0000

> <Gold.PLP.ligand.torsion>
1.3021

> <Gold.PLP.Chemscore.Hbond>
1.9000

> <Gold.PLP.Chemscore.CHOScore>
0.8795

> <Gold.PLP.Chemscore.Metal>
0.0000

> <Gold.Chemscore.Hbonds>
donor molecule, donor type, donor heavy atom, donor atom, acceptor molecule, acceptor atom, score
      L1  H    17    44       P1 10956  0.95
      L1  C     6    34       P1 10187  0.07
      L1  C    20    47       P1  7948  0.13

> <Gold.PLP.Chemscore.Internal.Correction>
0.1599

> <Gold.Rescore>
     Score         DG    S(hbond)    S(metal)    S(lipo)     H(rot)  DE(clash)    DE(int)     intcor
      7.89     -11.80       0.95        0.00     105.88       3.61       2.57       1.34       ----

> <Gold.Chemscore.Fitness>
7.8857

> <Gold.Chemscore.DG>
-11.8017

> <Gold.Chemscore.ZeroCoef>
-5.4800

> <Gold.Chemscore.Hbond>
0.9484

> <Gold.Chemscore.Metal>
0.0000

> <Gold.Chemscore.Lipo>
105.8821

> <Gold.Chemscore.Internal_Hbond>
0.0000

> <Gold.Chemscore.DEClash>
2.5712

> <Gold.Chemscore.DEInternal>
1.3448

> <Gold.Chemscore.Rot>
3.6071

> <Gold.Chemscore.Internal.Correction>
   9.000000E+99

> <Gold.Chemscore.Hbonds>
donor molecule, donor type, donor heavy atom, donor atom, acceptor molecule, acceptor atom, score
      L1  H    17    44       P1 10956  0.21

> <Gold.Chemscore.Hbond.Weighted>
-3.1677

> <Gold.Chemscore.Metal.Weighted>
-0.0000

> <Gold.Chemscore.Lipo.Weighted>
-12.3882

> <Gold.Chemscore.Internal_Hbond.Weighted>
0.0000

> <Gold.Chemscore.DEClash.Weighted>
2.5712

> <Gold.Chemscore.DEInternal.Weighted>
1.3448

> <Gold.Chemscore.Rot.Weighted>
9.2342

> <Gold.Chemscore.Internal.Correction.Weighted>
   9.000000E+99

> <Gold.Protein.RotatedTorsions>
[ 6907 6896 6895 6894 ] final  142.57 input  -60.11 | X-H torsion
[ 7974 7965 7964 7962 ] final  105.50 input  175.53 | X-H torsion
[ 8008 7997 7996 7995 ] final  -81.45 input   59.86 | X-H torsion
[ 10167 10162 10161 10158 ] final -157.30 input  -65.29 | X-H torsion
[ 10718 10713 10712 10709 ] final   99.73 input   66.30 | X-H torsion
[ 10763 10752 10751 10750 ] final -171.11 input  -60.55 | X-H torsion
[ 11005 11000 10999 10996 ] final  131.50 input  -57.11 | X-H torsion

> <Gold.Protein.ActiveResidues>
 VAL166  LYS551  ARG553  GLY616  TRP617  ASP618  TYR619  PRO620  LYS621  CYS622 
 ASP623  PHE694  ASN695  SER759  ASP760  ASP761  ALA762  ILE779  LEU786  VAL792 
 PHE793  MET794  SER795  GLU796  ALA797  LYS798  CYS799  TRP800  GLU811  SER814 

> <Gold.Protein.RotatedAtoms>
  152.2171  133.4955  159.5141 H   0  0  0  0  0  0  0  0  0  0  0  0  # atno 6907 bound_to 6896
  150.7004  134.1391  159.4107 H   0  0  0  0  0  0  0  0  0  0  0  0  # atno 6908 bound_to 6896
  151.9311  135.0255  160.0580 H   0  0  0  0  0  0  0  0  0  0  0  0  # atno 6909 bound_to 6896
  145.3189  139.2518  143.3722 H   0  0  0  0  0  0  0  0  0  0  0  0  # atno 7974 bound_to 7965
  154.5985  140.0647  156.9336 H   0  0  0  0  0  0  0  0  0  0  0  0  # atno 8008 bound_to 7997
  155.2173  140.3327  155.4302 H   0  0  0  0  0  0  0  0  0  0  0  0  # atno 8009 bound_to 7997
  156.2303  140.1837  156.7244 H   0  0  0  0  0  0  0  0  0  0  0  0  # atno 8010 bound_to 7997
  139.6782  143.9627  152.2322 H   0  0  0  0  0  0  0  0  0  0  0  0  # atno 10167 bound_to 10162
  157.6870  131.0678  150.4993 H   0  0  0  0  0  0  0  0  0  0  0  0  # atno 10718 bound_to 10713
  154.6341  135.2890  155.0181 H   0  0  0  0  0  0  0  0  0  0  0  0  # atno 10763 bound_to 10752
  154.1331  135.6530  153.4930 H   0  0  0  0  0  0  0  0  0  0  0  0  # atno 10764 bound_to 10752
  153.0294  135.5315  154.7181 H   0  0  0  0  0  0  0  0  0  0  0  0  # atno 10765 bound_to 10752
  139.9734  134.9571  156.9448 H   0  0  0  0  0  0  0  0  0  0  0  0  # atno 11005 bound_to 11000
  146.3090  140.3742  142.8677 LP  0  0  0  0  0  0  0  0  0  0  0  0  # atno 17320 bound_to 7965
  144.8955  140.7578  143.5899 LP  0  0  0  0  0  0  0  0  0  0  0  0  # atno 17321 bound_to 7965
  139.9410  144.6682  150.8266 LP  0  0  0  0  0  0  0  0  0  0  0  0  # atno 17342 bound_to 10162
  140.7643  143.3245  151.2548 LP  0  0  0  0  0  0  0  0  0  0  0  0  # atno 17343 bound_to 10162
  156.5315  130.4186  149.6199 LP  0  0  0  0  0  0  0  0  0  0  0  0  # atno 17370 bound_to 10713
  156.3065  130.7205  151.2088 LP  0  0  0  0  0  0  0  0  0  0  0  0  # atno 17371 bound_to 10713
  140.5245  134.0874  155.7300 LP  0  0  0  0  0  0  0  0  0  0  0  0  # atno 17394 bound_to 11000
  141.1413  133.9134  157.2320 LP  0  0  0  0  0  0  0  0  0  0  0  0  # atno 17395 bound_to 11000

$$$$
