AV-unprocessed.smi:2083|AV-procd|sdf|8494|dock9
  -GOLD-   2272011203D 1   1.00000     0.00000
 Structure written by MMmdl.
 45 46  0  0  0  0  0  0  0  0  2 V2000
  138.3461  137.3611  154.7896 C   0  0  0  0  0  0  0  0  0  0  0  0
  139.7292  137.1822  154.2642 C   0  0  0  0  0  0  0  0  0  0  0  0
  140.7033  138.0645  153.8892 C   0  0  0  0  0  0  0  0  0  0  0  0
  141.7687  137.2140  153.4908 C   0  0  0  0  0  0  0  0  0  0  0  0
  142.9975  137.7519  153.0291 N   0  0  0  0  0  0  0  0  0  0  0  0
  144.1931  137.1395  152.9894 C   0  0  0  0  0  0  0  0  0  0  0  0
  144.4085  135.9778  153.3369 O   0  0  0  0  0  0  0  0  0  0  0  0
  145.1493  137.9556  152.5226 N   0  0  0  0  0  0  0  0  0  0  0  0
  146.5526  137.5816  152.3735 C   0  0  0  0  0  0  0  0  0  0  0  0
  147.5266  138.7456  152.6923 C   0  0  2  0  0  0  0  0  0  0  0  0
  147.1890  139.9782  151.8192 C   0  0  0  0  0  0  0  0  0  0  0  0
  148.9417  138.2668  152.5645 N   0  3  1  0  0  0  0  0  0  0  0  0
  149.2979  137.5931  151.2820 C   0  0  0  0  0  0  0  0  0  0  0  0
  150.7215  137.0130  151.3271 C   0  0  0  0  0  0  0  0  0  0  0  0
  151.7556  138.0871  151.6848 C   0  0  0  0  0  0  0  0  0  0  0  0
  151.3651  138.8194  152.9791 C   0  0  2  0  0  0  0  0  0  0  0  0
  151.5903  137.9692  154.2415 C   0  0  0  0  0  0  0  0  0  0  0  0
  149.9204  139.3478  152.8804 C   0  0  0  0  0  0  0  0  0  0  0  0
  141.4711  135.9289  153.6092 N   0  0  0  0  0  0  0  0  0  0  0  0
  140.1623  135.9020  154.1050 O   0  0  0  0  0  0  0  0  0  0  0  0
  138.1833  138.3883  155.1159 H   0  0  0  0  0  0  0  0  0  0  0  0
  138.1666  136.7046  155.6414 H   0  0  0  0  0  0  0  0  0  0  0  0
  137.6087  137.1290  154.0210 H   0  0  0  0  0  0  0  0  0  0  0  0
  140.6579  139.1435  153.9014 H   0  0  0  0  0  0  0  0  0  0  0  0
  142.9628  138.7075  152.7059 H   0  0  0  0  0  0  0  0  0  0  0  0
  144.8924  138.8951  152.2559 H   0  0  0  0  0  0  0  0  0  0  0  0
  146.7438  136.7088  152.9976 H   0  0  0  0  0  0  0  0  0  0  0  0
  146.7028  137.2494  151.3458 H   0  0  0  0  0  0  0  0  0  0  0  0
  147.3819  139.0572  153.7282 H   0  0  0  0  0  0  0  0  0  0  0  0
  146.1498  140.2829  151.9427 H   0  0  0  0  0  0  0  0  0  0  0  0
  147.3422  139.7733  150.7592 H   0  0  0  0  0  0  0  0  0  0  0  0
  147.7865  140.8482  152.0921 H   0  0  0  0  0  0  0  0  0  0  0  0
  148.6252  136.7610  151.0776 H   0  0  0  0  0  0  0  0  0  0  0  0
  149.2016  138.3002  150.4566 H   0  0  0  0  0  0  0  0  0  0  0  0
  150.7636  136.2010  152.0537 H   0  0  0  0  0  0  0  0  0  0  0  0
  150.9703  136.5691  150.3627 H   0  0  0  0  0  0  0  0  0  0  0  0
  152.7476  137.6438  151.7783 H   0  0  0  0  0  0  0  0  0  0  0  0
  151.8188  138.8077  150.8682 H   0  0  0  0  0  0  0  0  0  0  0  0
  152.0230  139.6847  153.0714 H   0  0  0  0  0  0  0  0  0  0  0  0
  150.9556  137.0832  154.2566 H   0  0  0  0  0  0  0  0  0  0  0  0
  151.3734  138.5437  155.1425 H   0  0  0  0  0  0  0  0  0  0  0  0
  152.6265  137.6363  154.3084 H   0  0  0  0  0  0  0  0  0  0  0  0
  149.8649  140.1101  152.1012 H   0  0  0  0  0  0  0  0  0  0  0  0
  149.6632  139.8514  153.8112 H   0  0  0  0  0  0  0  0  0  0  0  0
  149.0534  137.5592  153.2765 H   0  0  0  0  0  0  0  0  0  0  0  0
  1  2  1  0  0  0  0
  1 21  1  0  0  0  0
  1 22  1  0  0  0  0
  1 23  1  0  0  0  0
  2 20  1  0  0  0  0
  2  3  2  0  0  0  0
  3  4  1  0  0  0  0
  3 24  1  0  0  0  0
  4  5  1  0  0  0  0
  4 19  2  0  0  0  0
  5  6  1  0  0  0  0
  5 25  1  0  0  0  0
  6  7  2  0  0  0  0
  6  8  1  0  0  0  0
  8  9  1  0  0  0  0
  8 26  1  0  0  0  0
  9 10  1  0  0  0  0
  9 27  1  0  0  0  0
  9 28  1  0  0  0  0
 10 11  1  0  0  0  0
 10 12  1  0  0  0  0
 10 29  1  0  0  0  0
 11 30  1  0  0  0  0
 11 31  1  0  0  0  0
 11 32  1  0  0  0  0
 12 18  1  0  0  0  0
 12 13  1  0  0  0  0
 12 45  1  0  0  0  0
 13 14  1  0  0  0  0
 13 33  1  0  0  0  0
 13 34  1  0  0  0  0
 14 15  1  0  0  0  0
 14 35  1  0  0  0  0
 14 36  1  0  0  0  0
 15 16  1  0  0  0  0
 15 37  1  0  0  0  0
 15 38  1  0  0  0  0
 16 17  1  0  0  0  0
 16 18  1  0  0  0  0
 16 39  1  0  0  0  0
 17 40  1  0  0  0  0
 17 41  1  0  0  0  0
 17 42  1  0  0  0  0
 18 43  1  0  0  0  0
 18 44  1  0  0  0  0
 19 20  1  0  0  0  0
M  CHG  1  12   1
M  END
> <s_m_source_file>
AV-unprocessed.smi

> <i_m_source_file_index>
2083

> <i_lp_mmshare_version>
43012

> <i_f3d_flags>
0

> <s_epik_input>
W0NIM11jMVtjSF1jKG5vMSlbTkhdQyg9TylbTkhdW0NIMl1bQ0BIXShbQ0gzXSlOMltDSDJdW0NIMl1bQ0gyXVtDQEBIXShbQ0gzXSlbQ0gyXTI=

> <s_epik_cmdline>
J2VwaWtfcHl0aG9uJywgJy1waCcsICc3LjAnLCAnLXRuJywgJzgnLCAnLW1hJywgJzIwMCcsICctbWV0YWxfYmluZGluZycsICctaW1hZScsICc8aW5maWxlLm1hZT4nLCAnLW9tYWUnLCAnPG91dGZpbGUubWFlPic=

> <r_epik_Ionization_Penalty>
0.00216453

> <r_epik_Ionization_Penalty_Charging>
0.00212879

> <r_epik_Ionization_Penalty_Neutral>
3.57418e-05

> <r_epik_State_Penalty>
0.00146033

> <r_epik_Charging_Adjusted_Penalty>
0.00358912

> <i_epik_Tot_Q>
1

> <i_epik_Tot_abs_Q>
1

> <r_epik_Metal_State_Penalty>
0.0215827

> <b_epik_Metal_Only>
0

> <s_lp_Force_Field>
OPLS_2005

> <r_lp_Energy>
21.862

> <b_lp_Chiralities_Consistent>
1

> <s_lp_Variant>
AV-unprocessed.smi:2083-5

> <Gold.Version>
5.8.1

> <Gold.Id.Protein>
6NUR|6NUR_protein|mol2

> <Gold.PLP.Fitness>
40.2466

> <Gold.PLP.PLP>
-32.0234

> <Gold.PLP.part.hbond>
-3.0917

> <Gold.PLP.part.metal>
0.0000

> <Gold.PLP.part.buried>
-1.7954

> <Gold.PLP.part.nonpolar>
-27.3332

> <Gold.PLP.part.repulsive>
0.2062

> <Gold.PLP.ligand.clash>
0.0000

> <Gold.PLP.ligand.torsion>
0.3216

> <Gold.PLP.Chemscore.Hbond>
2.9360

> <Gold.PLP.Chemscore.CHOScore>
0.0000

> <Gold.PLP.Chemscore.Metal>
0.0000

> <Gold.Chemscore.Hbonds>
donor molecule, donor type, donor heavy atom, donor atom, acceptor molecule, acceptor atom, score
      L1  H     5    25       P1 10175  1.00
      L1  H     8    26       P1 10175  0.99
      P1  H 11000 11005       L1    20  0.60

> <Gold.PLP.Chemscore.Internal.Correction>
0.0584

> <Gold.Rescore>
     Score         DG    S(hbond)    S(metal)    S(lipo)     H(rot)  DE(clash)    DE(int)     intcor
     17.48     -18.21       2.70        0.00      65.48       1.55       0.13       0.59       ----

> <Gold.Chemscore.Fitness>
17.4832

> <Gold.Chemscore.DG>
-18.2114

> <Gold.Chemscore.ZeroCoef>
-5.4800

> <Gold.Chemscore.Hbond>
2.7040

> <Gold.Chemscore.Metal>
0.0000

> <Gold.Chemscore.Lipo>
65.4816

> <Gold.Chemscore.Internal_Hbond>
0.0000

> <Gold.Chemscore.DEClash>
0.1334

> <Gold.Chemscore.DEInternal>
0.5947

> <Gold.Chemscore.Rot>
1.5474

> <Gold.Chemscore.Internal.Correction>
   9.000000E+99

> <Gold.Chemscore.Hbonds>
donor molecule, donor type, donor heavy atom, donor atom, acceptor molecule, acceptor atom, score
      L1  H     5    25       P1 10175  0.98
      L1  H     8    26       P1 10175  0.91
      P1  H 11000 11005       L1    20  0.43

> <Gold.Chemscore.Hbond.Weighted>
-9.0313

> <Gold.Chemscore.Metal.Weighted>
-0.0000

> <Gold.Chemscore.Lipo.Weighted>
-7.6614

> <Gold.Chemscore.Internal_Hbond.Weighted>
0.0000

> <Gold.Chemscore.DEClash.Weighted>
0.1334

> <Gold.Chemscore.DEInternal.Weighted>
0.5947

> <Gold.Chemscore.Rot.Weighted>
3.9612

> <Gold.Chemscore.Internal.Correction.Weighted>
   9.000000E+99

> <Gold.Protein.RotatedTorsions>
[ 6907 6896 6895 6894 ] final  114.44 input  -60.11 | X-H torsion
[ 7974 7965 7964 7962 ] final  174.39 input  175.53 | X-H torsion
[ 8008 7997 7996 7995 ] final -156.00 input   59.86 | X-H torsion
[ 10167 10162 10161 10158 ] final  -36.73 input  -65.29 | X-H torsion
[ 10718 10713 10712 10709 ] final   92.01 input   66.30 | X-H torsion
[ 10763 10752 10751 10750 ] final   19.28 input  -60.55 | X-H torsion
[ 11005 11000 10999 10996 ] final   59.43 input  -57.11 | X-H torsion

> <Gold.Protein.ActiveResidues>
 VAL166  LYS551  ARG553  GLY616  TRP617  ASP618  TYR619  PRO620  LYS621  CYS622 
 ASP623  PHE694  ASN695  SER759  ASP760  ASP761  ALA762  ILE779  LEU786  VAL792 
 PHE793  MET794  SER795  GLU796  ALA797  LYS798  CYS799  TRP800  GLU811  SER814 

> <Gold.Protein.RotatedAtoms>
  152.4802  133.8236  159.7066 H   0  0  0  0  0  0  0  0  0  0  0  0  # atno 6907 bound_to 6896
  150.8847  133.7315  159.2928 H   0  0  0  0  0  0  0  0  0  0  0  0  # atno 6908 bound_to 6896
  151.4807  135.1055  159.9829 H   0  0  0  0  0  0  0  0  0  0  0  0  # atno 6909 bound_to 6896
  144.7223  139.9789  143.6438 H   0  0  0  0  0  0  0  0  0  0  0  0  # atno 7974 bound_to 7965
  155.7105  140.0778  157.2373 H   0  0  0  0  0  0  0  0  0  0  0  0  # atno 8008 bound_to 7997
  154.4059  140.1631  156.2345 H   0  0  0  0  0  0  0  0  0  0  0  0  # atno 8009 bound_to 7997
  155.9286  140.3393  155.6234 H   0  0  0  0  0  0  0  0  0  0  0  0  # atno 8010 bound_to 7997
  140.7136  143.3389  151.2401 H   0  0  0  0  0  0  0  0  0  0  0  0  # atno 10167 bound_to 10162
  157.6959  131.0428  150.3817 H   0  0  0  0  0  0  0  0  0  0  0  0  # atno 10718 bound_to 10713
  153.1175  135.6711  153.9392 H   0  0  0  0  0  0  0  0  0  0  0  0  # atno 10763 bound_to 10752
  153.8917  135.3046  155.3449 H   0  0  0  0  0  0  0  0  0  0  0  0  # atno 10764 bound_to 10752
  154.7590  135.4997  153.9508 H   0  0  0  0  0  0  0  0  0  0  0  0  # atno 10765 bound_to 10752
  140.0304  134.6020  155.9514 H   0  0  0  0  0  0  0  0  0  0  0  0  # atno 11005 bound_to 11000
  146.0503  139.3505  143.0643 LP  0  0  0  0  0  0  0  0  0  0  0  0  # atno 17320 bound_to 7965
  145.8223  140.9673  143.0892 LP  0  0  0  0  0  0  0  0  0  0  0  0  # atno 17321 bound_to 7965
  139.6891  143.9722  152.2850 LP  0  0  0  0  0  0  0  0  0  0  0  0  # atno 17342 bound_to 10162
  139.9378  144.6701  150.8297 LP  0  0  0  0  0  0  0  0  0  0  0  0  # atno 17343 bound_to 10162
  156.4230  130.3956  149.6812 LP  0  0  0  0  0  0  0  0  0  0  0  0  # atno 17370 bound_to 10713
  156.4056  130.7696  151.2707 LP  0  0  0  0  0  0  0  0  0  0  0  0  # atno 17371 bound_to 10713
  141.1828  133.6549  156.5090 LP  0  0  0  0  0  0  0  0  0  0  0  0  # atno 17394 bound_to 11000
  140.4235  134.7166  157.4903 LP  0  0  0  0  0  0  0  0  0  0  0  0  # atno 17395 bound_to 11000

$$$$
