AV-unprocessed.smi:2291|AV-procd|sdf|9212|dock2
  -GOLD-   2272012433D 1   1.00000     0.00000
 Structure written by MMmdl.
 44 46  0  0  0  0  0  0  0  0  1 V2000
  149.2085  137.9875  156.6130 O   0  0  0  0  0  0  0  0  0  0  0  0
  148.4030  138.7064  157.2058 C   0  0  0  0  0  0  0  0  0  0  0  0
  147.8235  138.4151  158.3835 N   0  0  0  0  0  0  0  0  0  0  0  0
  147.9782  137.2437  159.1717 C   0  0  0  0  0  0  0  0  0  0  0  0
  148.0780  136.0391  158.4393 C   0  0  0  0  0  0  0  0  0  0  0  0
  148.2386  134.8206  159.1272 C   0  0  0  0  0  0  0  0  0  0  0  0
  148.2937  134.8399  160.5323 C   0  0  0  0  0  0  0  0  0  0  0  0
  148.4908  133.3800  161.4301 Cl  0  0  0  0  0  0  0  0  0  0  0  0
  148.1842  136.0812  161.1861 C   0  0  0  0  0  0  0  0  0  0  0  0
  148.0306  137.2496  160.5276 N   0  0  0  0  0  0  0  0  0  0  0  0
  147.9839  139.8968  156.7416 N   0  0  0  0  0  0  0  0  0  0  0  0
  148.3514  140.5379  155.4713 C   0  0  0  0  0  0  0  0  0  0  0  0
  149.7835  141.1284  155.5886 C   0  0  0  0  0  0  0  0  0  0  0  0
  150.6906  140.6516  154.9046 O   0  0  0  0  0  0  0  0  0  0  0  0
  149.9981  142.1240  156.4639 N   0  0  0  0  0  0  0  0  0  0  0  0
  151.2838  142.7622  156.7110 C   0  0  0  0  0  0  0  0  0  0  0  0
  151.3838  143.5113  158.0260 C   0  0  0  0  0  0  0  0  0  0  0  0
  152.0835  144.8482  158.1140 C   0  0  0  0  0  0  0  0  0  0  0  0
  152.7111  143.6261  158.7389 C   0  0  0  0  0  0  0  0  0  0  0  0
  148.3204  139.4581  154.3480 C   0  0  0  0  0  0  0  0  0  0  0  0
  147.2738  139.8901  153.3149 C   0  0  0  0  0  0  0  0  0  0  0  0
  147.1206  141.3910  153.5163 C   0  0  0  0  0  0  0  0  0  0  0  0
  147.2577  141.5553  155.0263 C   0  0  0  0  0  0  0  0  0  0  0  0
  147.1812  139.1023  158.7491 H   0  0  0  0  0  0  0  0  0  0  0  0
  148.0352  136.0435  157.3597 H   0  0  0  0  0  0  0  0  0  0  0  0
  148.3188  133.8904  158.5846 H   0  0  0  0  0  0  0  0  0  0  0  0
  148.2211  136.1398  162.2638 H   0  0  0  0  0  0  0  0  0  0  0  0
  147.3199  140.4030  157.3084 H   0  0  0  0  0  0  0  0  0  0  0  0
  149.2131  142.4524  157.0078 H   0  0  0  0  0  0  0  0  0  0  0  0
  152.0432  141.9801  156.7075 H   0  0  0  0  0  0  0  0  0  0  0  0
  151.5320  143.4313  155.8851 H   0  0  0  0  0  0  0  0  0  0  0  0
  150.5190  143.3759  158.6731 H   0  0  0  0  0  0  0  0  0  0  0  0
  152.5430  145.2418  157.2092 H   0  0  0  0  0  0  0  0  0  0  0  0
  151.6549  145.5937  158.7804 H   0  0  0  0  0  0  0  0  0  0  0  0
  152.7058  143.5578  159.8248 H   0  0  0  0  0  0  0  0  0  0  0  0
  153.5882  143.2070  158.2493 H   0  0  0  0  0  0  0  0  0  0  0  0
  149.2821  139.3645  153.8404 H   0  0  0  0  0  0  0  0  0  0  0  0
  148.0864  138.4623  154.7279 H   0  0  0  0  0  0  0  0  0  0  0  0
  147.5592  139.6317  152.2947 H   0  0  0  0  0  0  0  0  0  0  0  0
  146.3248  139.3960  153.5276 H   0  0  0  0  0  0  0  0  0  0  0  0
  147.9262  141.9225  153.0078 H   0  0  0  0  0  0  0  0  0  0  0  0
  146.1720  141.7711  153.1360 H   0  0  0  0  0  0  0  0  0  0  0  0
  146.3002  141.2936  155.4804 H   0  0  0  0  0  0  0  0  0  0  0  0
  147.4405  142.5921  155.3078 H   0  0  0  0  0  0  0  0  0  0  0  0
  1  2  2  0  0  0  0
  2  3  1  0  0  0  0
  2 11  1  0  0  0  0
  3  4  1  0  0  0  0
  3 24  1  0  0  0  0
  4 10  1  0  0  0  0
  4  5  2  0  0  0  0
  5  6  1  0  0  0  0
  5 25  1  0  0  0  0
  6  7  2  0  0  0  0
  6 26  1  0  0  0  0
  7  8  1  0  0  0  0
  7  9  1  0  0  0  0
  9 10  2  0  0  0  0
  9 27  1  0  0  0  0
 11 12  1  0  0  0  0
 11 28  1  0  0  0  0
 12 23  1  0  0  0  0
 12 13  1  0  0  0  0
 12 20  1  0  0  0  0
 13 14  2  0  0  0  0
 13 15  1  0  0  0  0
 15 16  1  0  0  0  0
 15 29  1  0  0  0  0
 16 17  1  0  0  0  0
 16 30  1  0  0  0  0
 16 31  1  0  0  0  0
 17 19  1  0  0  0  0
 17 18  1  0  0  0  0
 17 32  1  0  0  0  0
 18 19  1  0  0  0  0
 18 33  1  0  0  0  0
 18 34  1  0  0  0  0
 19 35  1  0  0  0  0
 19 36  1  0  0  0  0
 20 21  1  0  0  0  0
 20 37  1  0  0  0  0
 20 38  1  0  0  0  0
 21 22  1  0  0  0  0
 21 39  1  0  0  0  0
 21 40  1  0  0  0  0
 22 23  1  0  0  0  0
 22 41  1  0  0  0  0
 22 42  1  0  0  0  0
 23 43  1  0  0  0  0
 23 44  1  0  0  0  0
M  END
> <s_m_source_file>
AV-unprocessed.smi

> <i_m_source_file_index>
2291

> <i_lp_mmshare_version>
43012

> <i_f3d_flags>
0

> <s_epik_input>
bjFbY0hdYyhDbClbY0hdW2NIXWMxW05IXUMoPU8pW05IXUMyKFtDSDJdW0NIMl1bQ0gyXVtDSDJdMilDKD1PKVtOSF1bQ0gyXVtDSF0zW0NIMl1bQ0gyXTM=

> <s_epik_cmdline>
J2VwaWtfcHl0aG9uJywgJy1waCcsICc3LjAnLCAnLXRuJywgJzgnLCAnLW1hJywgJzIwMCcsICctbWV0YWxfYmluZGluZycsICctaW1hZScsICc8aW5maWxlLm1hZT4nLCAnLW9tYWUnLCAnPG91dGZpbGUubWFlPic=

> <r_lp_tautomer_probability>
1

> <r_epik_Ionization_Penalty>
3.27384e-05

> <r_epik_Ionization_Penalty_Charging>
0

> <r_epik_Ionization_Penalty_Neutral>
3.27384e-05

> <r_epik_State_Penalty>
-0

> <r_epik_Charging_Adjusted_Penalty>
0

> <i_epik_Tot_Q>
0

> <i_epik_Tot_abs_Q>
0

> <r_epik_Metal_State_Penalty>
-0

> <b_epik_Metal_Only>
0

> <s_lp_Force_Field>
OPLS_2005

> <r_lp_Energy>
31.8647

> <b_lp_Chiralities_Consistent>
1

> <s_lp_Variant>
AV-unprocessed.smi:2291-1

> <Gold.Version>
5.8.1

> <Gold.Id.Protein>
6NUR|6NUR_protein|mol2

> <Gold.PLP.Fitness>
41.6896

> <Gold.PLP.PLP>
-36.8430

> <Gold.PLP.part.hbond>
-3.8930

> <Gold.PLP.part.metal>
0.0000

> <Gold.PLP.part.buried>
-5.7008

> <Gold.PLP.part.nonpolar>
-27.9334

> <Gold.PLP.part.repulsive>
0.6365

> <Gold.PLP.ligand.clash>
0.0000

> <Gold.PLP.ligand.torsion>
1.3317

> <Gold.PLP.Chemscore.Hbond>
2.2878

> <Gold.PLP.Chemscore.CHOScore>
0.0000

> <Gold.PLP.Chemscore.Metal>
0.0000

> <Gold.Chemscore.Hbonds>
donor molecule, donor type, donor heavy atom, donor atom, acceptor molecule, acceptor atom, score
      P1  H  6931  6943       L1    10  0.48
      P1  H  6934  6947       L1    10  0.74
      P1  H  7989  7998       L1    14  0.94

> <Gold.PLP.Chemscore.Internal.Correction>
0.6467

> <Gold.Rescore>
     Score         DG    S(hbond)    S(metal)    S(lipo)     H(rot)  DE(clash)    DE(int)     intcor
     13.40     -18.17       1.55        0.00     101.67       1.71       0.88       3.89       ----

> <Gold.Chemscore.Fitness>
13.4005

> <Gold.Chemscore.DG>
-18.1735

> <Gold.Chemscore.ZeroCoef>
-5.4800

> <Gold.Chemscore.Hbond>
1.5465

> <Gold.Chemscore.Metal>
0.0000

> <Gold.Chemscore.Lipo>
101.6682

> <Gold.Chemscore.Internal_Hbond>
0.0000

> <Gold.Chemscore.DEClash>
0.8830

> <Gold.Chemscore.DEInternal>
3.8900

> <Gold.Chemscore.Rot>
1.7059

> <Gold.Chemscore.Internal.Correction>
   9.000000E+99

> <Gold.Chemscore.Hbonds>
donor molecule, donor type, donor heavy atom, donor atom, acceptor molecule, acceptor atom, score
      P1  H  6931  6943       L1    10  0.04
      P1  H  6934  6947       L1    10  0.21
      P1  H  7989  7998       L1    14  0.91

> <Gold.Chemscore.Hbond.Weighted>
-5.1654

> <Gold.Chemscore.Metal.Weighted>
-0.0000

> <Gold.Chemscore.Lipo.Weighted>
-11.8952

> <Gold.Chemscore.Internal_Hbond.Weighted>
0.0000

> <Gold.Chemscore.DEClash.Weighted>
0.8830

> <Gold.Chemscore.DEInternal.Weighted>
3.8900

> <Gold.Chemscore.Rot.Weighted>
4.3671

> <Gold.Chemscore.Internal.Correction.Weighted>
   9.000000E+99

> <Gold.Protein.RotatedTorsions>
[ 6907 6896 6895 6894 ] final -100.46 input  -60.11 | X-H torsion
[ 7974 7965 7964 7962 ] final -159.26 input  175.53 | X-H torsion
[ 8008 7997 7996 7995 ] final  -15.59 input   59.86 | X-H torsion
[ 10167 10162 10161 10158 ] final   -7.09 input  -65.29 | X-H torsion
[ 10718 10713 10712 10709 ] final  -51.21 input   66.30 | X-H torsion
[ 10763 10752 10751 10750 ] final  -92.40 input  -60.55 | X-H torsion
[ 11005 11000 10999 10996 ] final   55.09 input  -57.11 | X-H torsion

> <Gold.Protein.ActiveResidues>
 VAL166  LYS551  ARG553  GLY616  TRP617  ASP618  TYR619  PRO620  LYS621  CYS622 
 ASP623  PHE694  ASN695  SER759  ASP760  ASP761  ALA762  ILE779  LEU786  VAL792 
 PHE793  MET794  SER795  GLU796  ALA797  LYS798  CYS799  TRP800  GLU811  SER814 

> <Gold.Protein.RotatedAtoms>
  150.7117  134.0884  159.3922 H   0  0  0  0  0  0  0  0  0  0  0  0  # atno 6907 bound_to 6896
  151.8869  135.0429  160.0503 H   0  0  0  0  0  0  0  0  0  0  0  0  # atno 6908 bound_to 6896
  152.2523  133.5190  159.5369 H   0  0  0  0  0  0  0  0  0  0  0  0  # atno 6909 bound_to 6896
  144.7472  140.3711  143.6075 H   0  0  0  0  0  0  0  0  0  0  0  0  # atno 7974 bound_to 7965
  154.5119  140.2192  155.9140 H   0  0  0  0  0  0  0  0  0  0  0  0  # atno 8008 bound_to 7997
  156.1562  140.3151  155.8696 H   0  0  0  0  0  0  0  0  0  0  0  0  # atno 8009 bound_to 7997
  155.3842  140.0474  157.3033 H   0  0  0  0  0  0  0  0  0  0  0  0  # atno 8010 bound_to 7997
  140.7018  143.6120  150.8695 H   0  0  0  0  0  0  0  0  0  0  0  0  # atno 10167 bound_to 10162
  156.1730  130.4149  149.9618 H   0  0  0  0  0  0  0  0  0  0  0  0  # atno 10718 bound_to 10713
  154.6857  135.5232  153.8323 H   0  0  0  0  0  0  0  0  0  0  0  0  # atno 10763 bound_to 10752
  153.0596  135.6563  154.0505 H   0  0  0  0  0  0  0  0  0  0  0  0  # atno 10764 bound_to 10752
  154.0386  135.2979  155.3338 H   0  0  0  0  0  0  0  0  0  0  0  0  # atno 10765 bound_to 10752
  140.0635  134.5570  155.9126 H   0  0  0  0  0  0  0  0  0  0  0  0  # atno 11005 bound_to 11000
  145.7077  139.1677  143.2557 LP  0  0  0  0  0  0  0  0  0  0  0  0  # atno 17320 bound_to 7965
  146.1370  140.7109  142.9385 LP  0  0  0  0  0  0  0  0  0  0  0  0  # atno 17321 bound_to 7965
  139.9842  143.5917  152.2932 LP  0  0  0  0  0  0  0  0  0  0  0  0  # atno 17342 bound_to 10162
  139.6549  144.7662  151.2075 LP  0  0  0  0  0  0  0  0  0  0  0  0  # atno 17343 bound_to 10162
  156.7412  130.9080  151.3632 LP  0  0  0  0  0  0  0  0  0  0  0  0  # atno 17370 bound_to 10713
  157.6816  130.9145  150.0282 LP  0  0  0  0  0  0  0  0  0  0  0  0  # atno 17371 bound_to 10713
  141.1983  133.6600  156.5784 LP  0  0  0  0  0  0  0  0  0  0  0  0  # atno 17394 bound_to 11000
  140.3735  134.7585  157.4614 LP  0  0  0  0  0  0  0  0  0  0  0  0  # atno 17395 bound_to 11000

$$$$
