AV-unprocessed.smi:1942|AV-procd|sdf|7850|dock4
  -GOLD-   22720 9593D 1   1.00000     0.00000
 Structure written by MMmdl.
 36 38  0  0  0  0  0  0  0  0  2 V2000
  148.4811  140.1480  154.0240 O   0  0  0  0  0  0  0  0  0  0  0  0
  147.9100  141.1952  154.3284 C   0  0  0  0  0  0  0  0  0  0  0  0
  146.4472  141.3088  154.3488 C   0  0  0  0  0  0  0  0  0  0  0  0
  145.8326  142.4519  154.7132 C   0  0  0  0  0  0  0  0  0  0  0  0
  146.6089  143.6067  155.0980 C   0  0  0  0  0  0  0  0  0  0  0  0
  147.9475  143.5096  155.0695 C   0  0  0  0  0  0  0  0  0  0  0  0
  148.5993  142.3236  154.6796 N   0  0  0  0  0  0  0  0  0  0  0  0
  150.0687  142.3408  154.6830 C   0  0  0  0  0  0  0  0  0  0  0  0
  150.6687  142.6187  156.0299 C   0  0  0  0  0  0  0  0  0  0  0  0
  150.3862  143.6747  156.8469 N   0  3  0  0  0  0  0  0  0  0  0  0
  151.1375  143.5839  158.0184 C   0  0  0  0  0  0  0  0  0  0  0  0
  151.1926  144.4168  159.1314 C   0  0  0  0  0  0  0  0  0  0  0  0
  152.0712  144.0350  160.1666 C   0  0  0  0  0  0  0  0  0  0  0  0
  152.1919  145.0183  161.5787 Cl  0  0  0  0  0  0  0  0  0  0  0  0
  152.8525  142.8651  160.0683 C   0  0  0  0  0  0  0  0  0  0  0  0
  152.7885  142.0288  158.9344 C   0  0  0  0  0  0  0  0  0  0  0  0
  151.9155  142.4130  157.9168 C   0  0  0  0  0  0  0  0  0  0  0  0
  151.5924  141.8499  156.6759 N   0  0  0  0  0  0  0  0  0  0  0  0
  152.2372  140.5949  156.2565 C   0  0  0  0  0  0  0  0  0  0  0  0
  152.5748  140.5702  154.7562 C   0  0  0  0  0  0  0  0  0  0  0  0
  153.0601  141.8222  154.3193 O   0  0  0  0  0  0  0  0  0  0  0  0
  145.8499  140.4550  154.0639 H   0  0  0  0  0  0  0  0  0  0  0  0
  144.7538  142.5050  154.7168 H   0  0  0  0  0  0  0  0  0  0  0  0
  146.1249  144.5235  155.4016 H   0  0  0  0  0  0  0  0  0  0  0  0
  148.6016  144.3245  155.3450 H   0  0  0  0  0  0  0  0  0  0  0  0
  150.4729  141.3980  154.3113 H   0  0  0  0  0  0  0  0  0  0  0  0
  150.4229  143.0929  153.9771 H   0  0  0  0  0  0  0  0  0  0  0  0
  150.5948  145.3135  159.2058 H   0  0  0  0  0  0  0  0  0  0  0  0
  153.5167  142.6021  160.8789 H   0  0  0  0  0  0  0  0  0  0  0  0
  153.3972  141.1394  158.8691 H   0  0  0  0  0  0  0  0  0  0  0  0
  153.1259  140.4228  156.8635 H   0  0  0  0  0  0  0  0  0  0  0  0
  151.5504  139.7813  156.4923 H   0  0  0  0  0  0  0  0  0  0  0  0
  153.3309  139.8111  154.5547 H   0  0  0  0  0  0  0  0  0  0  0  0
  151.6941  140.3088  154.1689 H   0  0  0  0  0  0  0  0  0  0  0  0
  152.3642  142.2721  153.8645 H   0  0  0  0  0  0  0  0  0  0  0  0
  149.7235  144.4038  156.6161 H   0  0  0  0  0  0  0  0  0  0  0  0
  1  2  2  0  0  0  0
  2  7  1  0  0  0  0
  2  3  1  0  0  0  0
  3  4  2  0  0  0  0
  3 22  1  0  0  0  0
  4  5  1  0  0  0  0
  4 23  1  0  0  0  0
  5  6  2  0  0  0  0
  5 24  1  0  0  0  0
  6  7  1  0  0  0  0
  6 25  1  0  0  0  0
  7  8  1  0  0  0  0
  8  9  1  0  0  0  0
  8 26  1  0  0  0  0
  8 27  1  0  0  0  0
  9 18  1  0  0  0  0
  9 10  2  0  0  0  0
 10 11  1  0  0  0  0
 10 36  1  0  0  0  0
 11 17  2  0  0  0  0
 11 12  1  0  0  0  0
 12 13  2  0  0  0  0
 12 28  1  0  0  0  0
 13 14  1  0  0  0  0
 13 15  1  0  0  0  0
 15 16  2  0  0  0  0
 15 29  1  0  0  0  0
 16 17  1  0  0  0  0
 16 30  1  0  0  0  0
 17 18  1  0  0  0  0
 18 19  1  0  0  0  0
 19 20  1  0  0  0  0
 19 31  1  0  0  0  0
 19 32  1  0  0  0  0
 20 21  1  0  0  0  0
 20 33  1  0  0  0  0
 20 34  1  0  0  0  0
 21 35  1  0  0  0  0
M  CHG  1  10   1
M  END
> <s_m_source_file>
AV-unprocessed.smi

> <i_m_source_file_index>
1942

> <i_lp_mmshare_version>
43012

> <i_f3d_flags>
0

> <s_epik_input>
Tz1jMVtjSF1bY0hdW2NIXVtjSF1uMVtDSDJdYyhuMiluKFtDSDJdW0NIMl1bT0hdKWMoYzIzKVtjSF1bY0hdYyhDbClbY0hdMw==

> <s_epik_cmdline>
J2VwaWtfcHl0aG9uJywgJy1waCcsICc3LjAnLCAnLXRuJywgJzgnLCAnLW1hJywgJzIwMCcsICctbWV0YWxfYmluZGluZycsICctaW1hZScsICc8aW5maWxlLm1hZT4nLCAnLW9tYWUnLCAnPG91dGZpbGUubWFlPic=

> <r_lp_tautomer_probability>
1

> <r_epik_Ionization_Penalty>
1.62531

> <r_epik_Ionization_Penalty_Charging>
1.62531

> <r_epik_Ionization_Penalty_Neutral>
5.76694e-08

> <r_epik_State_Penalty>
1.72539

> <r_epik_Charging_Adjusted_Penalty>
3.3507

> <i_epik_Tot_Q>
1

> <i_epik_Tot_abs_Q>
1

> <r_epik_Metal_State_Penalty>
5.78505

> <b_epik_Metal_Only>
0

> <s_lp_Force_Field>
OPLS_2005

> <r_lp_Energy>
19.9382

> <b_lp_Chiralities_Consistent>
1

> <s_lp_Variant>
AV-unprocessed.smi:1942-2

> <Gold.Version>
5.8.1

> <Gold.Id.Protein>
6NUR|6NUR_protein|mol2

> <Gold.PLP.Fitness>
53.7216

> <Gold.PLP.PLP>
-43.1190

> <Gold.PLP.part.hbond>
-2.8854

> <Gold.PLP.part.metal>
0.0000

> <Gold.PLP.part.buried>
-0.8604

> <Gold.PLP.part.nonpolar>
-40.5036

> <Gold.PLP.part.repulsive>
0.1917

> <Gold.PLP.ligand.clash>
0.0000

> <Gold.PLP.ligand.torsion>
0.4427

> <Gold.PLP.Chemscore.Hbond>
2.8880

> <Gold.PLP.Chemscore.CHOScore>
0.9331

> <Gold.PLP.Chemscore.Metal>
0.0000

> <Gold.Chemscore.Hbonds>
donor molecule, donor type, donor heavy atom, donor atom, acceptor molecule, acceptor atom, score
      L1  H    10    36       P1  8028  0.65

> <Gold.PLP.Chemscore.Internal.Correction>
0.0247

> <Gold.Rescore>
     Score         DG    S(hbond)    S(metal)    S(lipo)     H(rot)  DE(clash)    DE(int)     intcor
     17.55     -19.01       1.86        0.00     113.68       2.33       1.06       0.40       ----

> <Gold.Chemscore.Fitness>
17.5539

> <Gold.Chemscore.DG>
-19.0125

> <Gold.Chemscore.ZeroCoef>
-5.4800

> <Gold.Chemscore.Hbond>
1.8572

> <Gold.Chemscore.Metal>
0.0000

> <Gold.Chemscore.Lipo>
113.6817

> <Gold.Chemscore.Internal_Hbond>
0.0000

> <Gold.Chemscore.DEClash>
1.0630

> <Gold.Chemscore.DEInternal>
0.3956

> <Gold.Chemscore.Rot>
2.3326

> <Gold.Chemscore.Internal.Correction>
   9.000000E+99

> <Gold.Chemscore.Hbonds>
donor molecule, donor type, donor heavy atom, donor atom, acceptor molecule, acceptor atom, score
      L1  H    10    36       P1  8028  0.27

> <Gold.Chemscore.Hbond.Weighted>
-6.2031

> <Gold.Chemscore.Metal.Weighted>
-0.0000

> <Gold.Chemscore.Lipo.Weighted>
-13.3008

> <Gold.Chemscore.Internal_Hbond.Weighted>
0.0000

> <Gold.Chemscore.DEClash.Weighted>
1.0630

> <Gold.Chemscore.DEInternal.Weighted>
0.3956

> <Gold.Chemscore.Rot.Weighted>
5.9714

> <Gold.Chemscore.Internal.Correction.Weighted>
   9.000000E+99

> <Gold.Protein.RotatedTorsions>
[ 6907 6896 6895 6894 ] final   55.40 input  -60.11 | X-H torsion
[ 7974 7965 7964 7962 ] final   96.20 input  175.53 | X-H torsion
[ 8008 7997 7996 7995 ] final -157.83 input   59.86 | X-H torsion
[ 10167 10162 10161 10158 ] final  112.88 input  -65.29 | X-H torsion
[ 10718 10713 10712 10709 ] final  110.48 input   66.30 | X-H torsion
[ 10763 10752 10751 10750 ] final  145.79 input  -60.55 | X-H torsion
[ 11005 11000 10999 10996 ] final   28.43 input  -57.11 | X-H torsion

> <Gold.Protein.ActiveResidues>
 VAL166  LYS551  ARG553  GLY616  TRP617  ASP618  TYR619  PRO620  LYS621  CYS622 
 ASP623  PHE694  ASN695  SER759  ASP760  ASP761  ALA762  ILE779  LEU786  VAL792 
 PHE793  MET794  SER795  GLU796  ALA797  LYS798  CYS799  TRP800  GLU811  SER814 

> <Gold.Protein.RotatedAtoms>
  152.3535  134.6972  160.0228 H   0  0  0  0  0  0  0  0  0  0  0  0  # atno 6907 bound_to 6896
  151.7318  133.3312  159.3350 H   0  0  0  0  0  0  0  0  0  0  0  0  # atno 6908 bound_to 6896
  150.7556  134.6290  159.6220 H   0  0  0  0  0  0  0  0  0  0  0  0  # atno 6909 bound_to 6896
  145.4420  139.2300  143.3086 H   0  0  0  0  0  0  0  0  0  0  0  0  # atno 7974 bound_to 7965
  155.7384  140.0811  157.2257 H   0  0  0  0  0  0  0  0  0  0  0  0  # atno 8008 bound_to 7997
  154.4025  140.1582  156.2643 H   0  0  0  0  0  0  0  0  0  0  0  0  # atno 8009 bound_to 7997
  155.9043  140.3408  155.6053 H   0  0  0  0  0  0  0  0  0  0  0  0  # atno 8010 bound_to 7997
  139.6502  144.7128  151.2062 H   0  0  0  0  0  0  0  0  0  0  0  0  # atno 10167 bound_to 10162
  157.6492  131.0933  150.6608 H   0  0  0  0  0  0  0  0  0  0  0  0  # atno 10718 bound_to 10713
  154.0113  135.2914  155.3392 H   0  0  0  0  0  0  0  0  0  0  0  0  # atno 10763 bound_to 10752
  154.7101  135.5153  153.8657 H   0  0  0  0  0  0  0  0  0  0  0  0  # atno 10764 bound_to 10752
  153.0722  135.6651  154.0344 H   0  0  0  0  0  0  0  0  0  0  0  0  # atno 10765 bound_to 10752
  140.3156  134.2600  155.7726 H   0  0  0  0  0  0  0  0  0  0  0  0  # atno 11005 bound_to 11000
  146.2551  140.5170  142.8877 LP  0  0  0  0  0  0  0  0  0  0  0  0  # atno 17320 bound_to 7965
  144.8115  140.6394  143.6412 LP  0  0  0  0  0  0  0  0  0  0  0  0  # atno 17321 bound_to 7965
  140.7534  143.6162  150.8557 LP  0  0  0  0  0  0  0  0  0  0  0  0  # atno 17342 bound_to 10162
  139.9810  143.5952  152.2943 LP  0  0  0  0  0  0  0  0  0  0  0  0  # atno 17343 bound_to 10162
  156.6921  130.4598  149.5597 LP  0  0  0  0  0  0  0  0  0  0  0  0  # atno 17370 bound_to 10713
  156.1854  130.6526  151.1000 LP  0  0  0  0  0  0  0  0  0  0  0  0  # atno 17371 bound_to 10713
  141.2098  133.7738  156.9972 LP  0  0  0  0  0  0  0  0  0  0  0  0  # atno 17394 bound_to 11000
  140.0986  134.9549  157.1888 LP  0  0  0  0  0  0  0  0  0  0  0  0  # atno 17395 bound_to 11000

$$$$
