AV-unprocessed.smi:1078|AV-procd|sdf|4703|dock7
  -GOLD-   22720 3223D 1   1.00000     0.00000
 Structure written by MMmdl.
 40 41  0  0  0  0  0  0  0  0  2 V2000
  147.3716  142.1879  154.7233 C   0  0  0  0  0  0  0  0  0  0  0  0
  148.4920  141.2333  155.1707 C   0  0  1  0  0  0  0  0  0  0  0  0
  149.0028  140.3355  154.0190 C   0  0  0  0  0  0  0  0  0  0  0  0
  150.0718  139.4396  154.4231 N   0  0  0  0  0  0  0  0  0  0  0  0
  150.0829  138.0603  154.4236 C   0  0  0  0  0  0  0  0  0  0  0  0
  151.3088  137.6646  154.8763 C   0  0  0  0  0  0  0  0  0  0  0  0
  151.9904  138.8893  155.1223 C   0  0  0  0  0  0  0  0  0  0  0  0
  151.2488  139.9500  154.8457 N   0  0  0  0  0  0  0  0  0  0  0  0
  149.5939  142.0237  155.7639 N   0  3  0  0  0  0  0  0  0  0  0  0
  150.1995  141.4573  156.9884 C   0  0  0  0  0  0  0  0  0  0  0  0
  151.3178  142.3646  157.5338 C   0  0  0  0  0  0  0  0  0  0  0  0
  152.0226  141.7074  158.7383 C   0  0  0  0  0  0  0  0  0  0  0  0
  153.1446  142.5976  159.2972 C   0  0  0  0  0  0  0  0  0  0  0  0
  152.6139  143.9873  159.6797 C   0  0  0  0  0  0  0  0  0  0  0  0
  151.9085  144.6553  158.4900 C   0  0  0  0  0  0  0  0  0  0  0  0
  150.7898  143.7612  157.9311 C   0  0  0  0  0  0  0  0  0  0  0  0
  146.4917  141.6438  154.3791 H   0  0  0  0  0  0  0  0  0  0  0  0
  147.7031  142.8338  153.9096 H   0  0  0  0  0  0  0  0  0  0  0  0
  147.0497  142.8274  155.5459 H   0  0  0  0  0  0  0  0  0  0  0  0
  148.0800  140.5986  155.9568 H   0  0  0  0  0  0  0  0  0  0  0  0
  148.1844  139.7324  153.6231 H   0  0  0  0  0  0  0  0  0  0  0  0
  149.3748  140.9385  153.1904 H   0  0  0  0  0  0  0  0  0  0  0  0
  149.2278  137.4805  154.1081 H   0  0  0  0  0  0  0  0  0  0  0  0
  151.6657  136.6537  155.0090 H   0  0  0  0  0  0  0  0  0  0  0  0
  152.9953  139.0377  155.4896 H   0  0  0  0  0  0  0  0  0  0  0  0
  150.3142  142.1587  155.0688 H   0  0  0  0  0  0  0  0  0  0  0  0
  149.4317  141.3097  157.7491 H   0  0  0  0  0  0  0  0  0  0  0  0
  150.6109  140.4750  156.7564 H   0  0  0  0  0  0  0  0  0  0  0  0
  152.0636  142.4911  156.7470 H   0  0  0  0  0  0  0  0  0  0  0  0
  151.2955  141.5038  159.5259 H   0  0  0  0  0  0  0  0  0  0  0  0
  152.4392  140.7422  158.4478 H   0  0  0  0  0  0  0  0  0  0  0  0
  153.5978  142.1214  160.1672 H   0  0  0  0  0  0  0  0  0  0  0  0
  153.9359  142.7003  158.5534 H   0  0  0  0  0  0  0  0  0  0  0  0
  151.9168  143.8958  160.5136 H   0  0  0  0  0  0  0  0  0  0  0  0
  153.4334  144.6162  160.0286 H   0  0  0  0  0  0  0  0  0  0  0  0
  151.4971  145.6175  158.7962 H   0  0  0  0  0  0  0  0  0  0  0  0
  152.6357  144.8661  157.7047 H   0  0  0  0  0  0  0  0  0  0  0  0
  150.3350  144.2547  157.0718 H   0  0  0  0  0  0  0  0  0  0  0  0
  150.0019  143.6587  158.6786 H   0  0  0  0  0  0  0  0  0  0  0  0
  149.2172  142.9277  156.0111 H   0  0  0  0  0  0  0  0  0  0  0  0
  1  2  1  0  0  0  0
  1 17  1  0  0  0  0
  1 18  1  0  0  0  0
  1 19  1  0  0  0  0
  2  3  1  0  0  0  0
  2  9  1  0  0  0  0
  2 20  1  0  0  0  0
  3  4  1  0  0  0  0
  3 21  1  0  0  0  0
  3 22  1  0  0  0  0
  4  8  1  0  0  0  0
  4  5  1  0  0  0  0
  5  6  2  0  0  0  0
  5 23  1  0  0  0  0
  6  7  1  0  0  0  0
  6 24  1  0  0  0  0
  7  8  2  0  0  0  0
  7 25  1  0  0  0  0
  9 10  1  0  0  0  0
  9 26  1  0  0  0  0
  9 40  1  0  0  0  0
 10 11  1  0  0  0  0
 10 27  1  0  0  0  0
 10 28  1  0  0  0  0
 11 16  1  0  0  0  0
 11 12  1  0  0  0  0
 11 29  1  0  0  0  0
 12 13  1  0  0  0  0
 12 30  1  0  0  0  0
 12 31  1  0  0  0  0
 13 14  1  0  0  0  0
 13 32  1  0  0  0  0
 13 33  1  0  0  0  0
 14 15  1  0  0  0  0
 14 34  1  0  0  0  0
 14 35  1  0  0  0  0
 15 16  1  0  0  0  0
 15 36  1  0  0  0  0
 15 37  1  0  0  0  0
 16 38  1  0  0  0  0
 16 39  1  0  0  0  0
M  CHG  1   9   1
M  END
> <s_m_source_file>
AV-unprocessed.smi

> <i_m_source_file_index>
1078

> <i_lp_mmshare_version>
43012

> <i_f3d_flags>
0

> <s_epik_input>
bjFbY0hdW2NIXVtjSF1uMVtDSDJdW0NAQEhdKFtDSDNdKVtOSF1bQ0gyXVtDSF0yW0NIMl1bQ0gyXVtDSDJdW0NIMl1bQ0gyXTI=

> <s_epik_cmdline>
J2VwaWtfcHl0aG9uJywgJy1waCcsICc3LjAnLCAnLXRuJywgJzgnLCAnLW1hJywgJzIwMCcsICctbWV0YWxfYmluZGluZycsICctaW1hZScsICc8aW5maWxlLm1hZT4nLCAnLW9tYWUnLCAnPG91dGZpbGUubWFlPic=

> <r_lp_tautomer_probability>
1

> <r_epik_Ionization_Penalty>
0.00174474

> <r_epik_Ionization_Penalty_Charging>
0.00174052

> <r_epik_Ionization_Penalty_Neutral>
4.21324e-06

> <r_epik_State_Penalty>
0.00117783

> <r_epik_Charging_Adjusted_Penalty>
0.00291835

> <i_epik_Tot_Q>
1

> <i_epik_Tot_abs_Q>
1

> <r_epik_Metal_State_Penalty>
-0

> <b_epik_Metal_Only>
0

> <s_lp_Force_Field>
OPLS_2005

> <r_lp_Energy>
15.419

> <b_lp_Chiralities_Consistent>
1

> <s_lp_Variant>
AV-unprocessed.smi:1078-2

> <Gold.Version>
5.8.1

> <Gold.Id.Protein>
6NUR|6NUR_protein|mol2

> <Gold.PLP.Fitness>
50.2603

> <Gold.PLP.PLP>
-39.5924

> <Gold.PLP.part.hbond>
-2.0000

> <Gold.PLP.part.metal>
0.0000

> <Gold.PLP.part.buried>
-0.3169

> <Gold.PLP.part.nonpolar>
-37.4803

> <Gold.PLP.part.repulsive>
0.2006

> <Gold.PLP.ligand.clash>
0.0000

> <Gold.PLP.ligand.torsion>
0.5677

> <Gold.PLP.Chemscore.Hbond>
2.9340

> <Gold.PLP.Chemscore.CHOScore>
0.9901

> <Gold.PLP.Chemscore.Metal>
0.0000

> <Gold.Chemscore.Hbonds>
donor molecule, donor type, donor heavy atom, donor atom, acceptor molecule, acceptor atom, score
      L1  H     9    40       P1  8028  2.00
      P1  H  7989  7998       L1     8  0.95
      L1  C     5    23       P1  7948  0.83

> <Gold.PLP.Chemscore.Internal.Correction>
0.0311

> <Gold.Rescore>
     Score         DG    S(hbond)    S(metal)    S(lipo)     H(rot)  DE(clash)    DE(int)     intcor
     18.07     -20.08       1.61        0.00     112.39       1.54       0.12       1.89       ----

> <Gold.Chemscore.Fitness>
18.0690

> <Gold.Chemscore.DG>
-20.0818

> <Gold.Chemscore.ZeroCoef>
-5.4800

> <Gold.Chemscore.Hbond>
1.6133

> <Gold.Chemscore.Metal>
0.0000

> <Gold.Chemscore.Lipo>
112.3943

> <Gold.Chemscore.Internal_Hbond>
0.0000

> <Gold.Chemscore.DEClash>
0.1242

> <Gold.Chemscore.DEInternal>
1.8886

> <Gold.Chemscore.Rot>
1.5378

> <Gold.Chemscore.Internal.Correction>
   9.000000E+99

> <Gold.Chemscore.Hbonds>
donor molecule, donor type, donor heavy atom, donor atom, acceptor molecule, acceptor atom, score
      L1  H     9    40       P1  8028  0.96
      P1  H  7989  7998       L1     8  0.21

> <Gold.Chemscore.Hbond.Weighted>
-5.3884

> <Gold.Chemscore.Metal.Weighted>
-0.0000

> <Gold.Chemscore.Lipo.Weighted>
-13.1501

> <Gold.Chemscore.Internal_Hbond.Weighted>
0.0000

> <Gold.Chemscore.DEClash.Weighted>
0.1242

> <Gold.Chemscore.DEInternal.Weighted>
1.8886

> <Gold.Chemscore.Rot.Weighted>
3.9368

> <Gold.Chemscore.Internal.Correction.Weighted>
   9.000000E+99

> <Gold.Protein.RotatedTorsions>
[ 6907 6896 6895 6894 ] final  -76.49 input  -60.11 | X-H torsion
[ 7974 7965 7964 7962 ] final -101.31 input  175.53 | X-H torsion
[ 8008 7997 7996 7995 ] final  102.72 input   59.86 | X-H torsion
[ 10167 10162 10161 10158 ] final   -2.59 input  -65.29 | X-H torsion
[ 10718 10713 10712 10709 ] final   19.84 input   66.30 | X-H torsion
[ 10763 10752 10751 10750 ] final  114.71 input  -60.55 | X-H torsion
[ 11005 11000 10999 10996 ] final  121.48 input  -57.11 | X-H torsion

> <Gold.Protein.ActiveResidues>
 VAL166  LYS551  ARG553  GLY616  TRP617  ASP618  TYR619  PRO620  LYS621  CYS622 
 ASP623  PHE694  ASN695  SER759  ASP760  ASP761  ALA762  ILE779  LEU786  VAL792 
 PHE793  MET794  SER795  GLU796  ALA797  LYS798  CYS799  TRP800  GLU811  SER814 

> <Gold.Protein.RotatedAtoms>
  150.7026  134.4565  159.5360 H   0  0  0  0  0  0  0  0  0  0  0  0  # atno 6907 bound_to 6896
  152.2247  134.8376  160.0490 H   0  0  0  0  0  0  0  0  0  0  0  0  # atno 6908 bound_to 6896
  151.9214  133.3551  159.3935 H   0  0  0  0  0  0  0  0  0  0  0  0  # atno 6909 bound_to 6896
  145.2832  140.9332  143.2920 H   0  0  0  0  0  0  0  0  0  0  0  0  # atno 7974 bound_to 7965
  156.1418  140.3176  155.8508 H   0  0  0  0  0  0  0  0  0  0  0  0  # atno 8008 bound_to 7997
  155.4139  140.0507  157.3047 H   0  0  0  0  0  0  0  0  0  0  0  0  # atno 8009 bound_to 7997
  154.4983  140.2119  155.9413 H   0  0  0  0  0  0  0  0  0  0  0  0  # atno 8010 bound_to 7997
  140.6857  143.6639  150.8242 H   0  0  0  0  0  0  0  0  0  0  0  0  # atno 10167 bound_to 10162
  157.1161  130.6529  149.5911 H   0  0  0  0  0  0  0  0  0  0  0  0  # atno 10718 bound_to 10713
  153.5114  135.3617  155.2588 H   0  0  0  0  0  0  0  0  0  0  0  0  # atno 10763 bound_to 10752
  154.8742  135.4023  154.3365 H   0  0  0  0  0  0  0  0  0  0  0  0  # atno 10764 bound_to 10752
  153.4018  135.7075  153.6487 H   0  0  0  0  0  0  0  0  0  0  0  0  # atno 10765 bound_to 10752
  139.9228  134.9639  156.7965 H   0  0  0  0  0  0  0  0  0  0  0  0  # atno 11005 bound_to 11000
  144.9235  139.4383  143.6529 LP  0  0  0  0  0  0  0  0  0  0  0  0  # atno 17320 bound_to 7965
  146.3209  139.8108  142.8946 LP  0  0  0  0  0  0  0  0  0  0  0  0  # atno 17321 bound_to 7965
  140.0346  143.5408  152.2745 LP  0  0  0  0  0  0  0  0  0  0  0  0  # atno 17342 bound_to 10162
  139.6213  144.7629  151.2733 LP  0  0  0  0  0  0  0  0  0  0  0  0  # atno 17343 bound_to 10162
  155.9839  130.4861  150.6956 LP  0  0  0  0  0  0  0  0  0  0  0  0  # atno 17370 bound_to 10713
  157.4517  131.0873  151.0839 LP  0  0  0  0  0  0  0  0  0  0  0  0  # atno 17371 bound_to 10713
  140.6425  133.9805  155.7714 LP  0  0  0  0  0  0  0  0  0  0  0  0  # atno 17394 bound_to 11000
  141.0762  134.0131  157.3454 LP  0  0  0  0  0  0  0  0  0  0  0  0  # atno 17395 bound_to 11000

$$$$
