AV-unprocessed.smi:21|AV-procd|sdf|135|dock2
  -GOLD-   2262015333D 1   1.00000     0.00000
 Structure written by MMmdl.
 62 65  0  0  0  0  0  0  0  0  2 V2000
  149.3562  132.8946  155.2853 C   0  0  0  0  0  0  0  0  0  0  0  0
  147.9622  133.1508  155.2156 O   0  0  0  0  0  0  0  0  0  0  0  0
  147.3398  132.6041  154.0609 C   0  0  1  0  0  0  0  0  0  0  0  0
  145.9349  133.1950  153.9351 C   0  0  0  0  0  0  0  0  0  0  0  0
  146.1097  134.3641  152.9663 C   0  0  2  0  0  0  0  0  0  0  0  0
  144.8005  134.8839  152.3263 C   0  0  0  0  0  0  0  0  0  0  0  0
  144.0717  135.8059  153.1949 N   0  0  0  0  0  0  0  0  0  0  0  0
  142.7216  135.4307  153.6142 C   0  0  0  0  0  0  0  0  0  0  0  0
  144.6952  136.8520  153.8176 C   0  0  0  0  0  0  0  0  0  0  0  0
  144.4263  137.0580  155.1360 N   0  0  0  0  0  0  0  0  0  0  0  0
  144.9997  138.0558  155.8120 C   0  0  0  0  0  0  0  0  0  0  0  0
  145.8675  138.9652  155.3732 N   0  0  0  0  0  0  0  0  0  0  0  0
  146.1469  138.7818  154.0526 C   0  0  0  0  0  0  0  0  0  0  0  0
  145.6138  137.7646  153.2046 C   0  0  0  0  0  0  0  0  0  0  0  0
  146.1456  137.9178  151.9260 N   0  0  0  0  0  0  0  0  0  0  0  0
  146.9338  138.9527  152.0133 C   0  0  0  0  0  0  0  0  0  0  0  0
  146.9908  139.5355  153.2554 N   0  0  0  0  0  0  0  0  0  0  0  0
  147.7822  140.6956  153.6281 C   0  0  0  0  0  0  0  0  0  0  0  0
  147.6063  141.0997  155.1130 C   0  0  1  0  0  0  0  0  0  0  0  0
  148.9527  141.1711  155.8746 C   0  0  0  0  0  0  0  0  0  0  0  0
  149.7118  142.2945  155.4780 O   0  0  0  0  0  0  0  0  0  0  0  0
  146.7805  142.4034  155.2590 C   0  0  1  0  0  0  0  0  0  0  0  0
  145.4404  142.3940  154.5445 C   0  0  0  0  0  0  0  0  0  0  0  0
  144.7039  143.5371  155.2327 C   0  0  0  0  0  0  0  0  0  0  0  0
  145.1612  143.5263  156.5797 O   0  0  0  0  0  0  0  0  0  0  0  0
  146.3316  142.7215  156.6901 C   0  0  0  0  0  0  0  0  0  0  0  0
  147.1371  133.8974  152.0031 N   0  3  2  0  0  0  0  0  0  0  0  0
  146.6220  133.2090  150.7941 C   0  0  0  0  0  0  0  0  0  0  0  0
  148.0744  133.0521  152.7802 C   0  0  0  0  0  0  0  0  0  0  0  0
  147.2764  131.5170  154.1368 H   0  0  0  0  0  0  0  0  0  0  0  0
  146.5796  135.1786  153.5194 H   0  0  0  0  0  0  0  0  0  0  0  0
  149.7663  133.3546  156.1843 H   0  0  0  0  0  0  0  0  0  0  0  0
  149.8865  133.3067  154.4264 H   0  0  0  0  0  0  0  0  0  0  0  0
  149.5559  131.8238  155.3374 H   0  0  0  0  0  0  0  0  0  0  0  0
  145.2631  132.4527  153.5020 H   0  0  0  0  0  0  0  0  0  0  0  0
  145.5163  133.4977  154.8957 H   0  0  0  0  0  0  0  0  0  0  0  0
  144.9886  135.3567  151.3640 H   0  0  0  0  0  0  0  0  0  0  0  0
  144.1471  134.0421  152.0954 H   0  0  0  0  0  0  0  0  0  0  0  0
  142.0203  136.2445  153.4267 H   0  0  0  0  0  0  0  0  0  0  0  0
  142.6986  135.1901  154.6777 H   0  0  0  0  0  0  0  0  0  0  0  0
  142.3637  134.5565  153.0698 H   0  0  0  0  0  0  0  0  0  0  0  0
  144.7231  138.1365  156.8530 H   0  0  0  0  0  0  0  0  0  0  0  0
  147.4959  139.3252  151.1689 H   0  0  0  0  0  0  0  0  0  0  0  0
  148.8314  140.4904  153.4119 H   0  0  0  0  0  0  0  0  0  0  0  0
  147.4895  141.5140  152.9704 H   0  0  0  0  0  0  0  0  0  0  0  0
  147.0304  140.3039  155.5877 H   0  0  0  0  0  0  0  0  0  0  0  0
  148.7882  141.2254  156.9506 H   0  0  0  0  0  0  0  0  0  0  0  0
  149.5459  140.2717  155.7091 H   0  0  0  0  0  0  0  0  0  0  0  0
  149.2787  143.0752  155.7880 H   0  0  0  0  0  0  0  0  0  0  0  0
  147.3603  143.2478  154.8822 H   0  0  0  0  0  0  0  0  0  0  0  0
  145.5238  142.5437  153.4678 H   0  0  0  0  0  0  0  0  0  0  0  0
  144.9182  141.4525  154.7210 H   0  0  0  0  0  0  0  0  0  0  0  0
  144.9763  144.4917  154.7803 H   0  0  0  0  0  0  0  0  0  0  0  0
  143.6202  143.4315  155.1765 H   0  0  0  0  0  0  0  0  0  0  0  0
  146.0656  141.8091  157.2255 H   0  0  0  0  0  0  0  0  0  0  0  0
  147.1048  143.2340  157.2630 H   0  0  0  0  0  0  0  0  0  0  0  0
  146.0129  132.3440  151.0590 H   0  0  0  0  0  0  0  0  0  0  0  0
  147.4492  132.8635  150.1731 H   0  0  0  0  0  0  0  0  0  0  0  0
  146.0242  133.8801  150.1777 H   0  0  0  0  0  0  0  0  0  0  0  0
  148.9456  133.6594  153.0280 H   0  0  0  0  0  0  0  0  0  0  0  0
  148.4368  132.1980  152.2061 H   0  0  0  0  0  0  0  0  0  0  0  0
  147.6429  134.7077  151.6738 H   0  0  0  0  0  0  0  0  0  0  0  0
  1  2  1  0  0  0  0
  1 32  1  0  0  0  0
  1 33  1  0  0  0  0
  1 34  1  0  0  0  0
  2  3  1  0  0  0  0
  3 30  1  0  0  0  0
  3 29  1  0  0  0  0
  3  4  1  0  0  0  0
  4  5  1  0  0  0  0
  4 35  1  0  0  0  0
  4 36  1  0  0  0  0
  5 31  1  0  0  0  0
  5  6  1  0  0  0  0
  5 27  1  0  0  0  0
  6  7  1  0  0  0  0
  6 37  1  0  0  0  0
  6 38  1  0  0  0  0
  7  8  1  0  0  0  0
  7  9  1  0  0  0  0
  8 39  1  0  0  0  0
  8 40  1  0  0  0  0
  8 41  1  0  0  0  0
  9 14  1  0  0  0  0
  9 10  2  0  0  0  0
 10 11  1  0  0  0  0
 11 12  2  0  0  0  0
 11 42  1  0  0  0  0
 12 13  1  0  0  0  0
 13 17  1  0  0  0  0
 13 14  2  0  0  0  0
 14 15  1  0  0  0  0
 15 16  2  0  0  0  0
 16 17  1  0  0  0  0
 16 43  1  0  0  0  0
 17 18  1  0  0  0  0
 18 19  1  0  0  0  0
 18 44  1  0  0  0  0
 18 45  1  0  0  0  0
 19 20  1  0  0  0  0
 19 22  1  0  0  0  0
 19 46  1  0  0  0  0
 20 21  1  0  0  0  0
 20 47  1  0  0  0  0
 20 48  1  0  0  0  0
 21 49  1  0  0  0  0
 22 26  1  0  0  0  0
 22 23  1  0  0  0  0
 22 50  1  0  0  0  0
 23 24  1  0  0  0  0
 23 51  1  0  0  0  0
 23 52  1  0  0  0  0
 24 25  1  0  0  0  0
 24 53  1  0  0  0  0
 24 54  1  0  0  0  0
 25 26  1  0  0  0  0
 26 55  1  0  0  0  0
 26 56  1  0  0  0  0
 27 28  1  0  0  0  0
 27 29  1  0  0  0  0
 27 62  1  0  0  0  0
 28 57  1  0  0  0  0
 28 58  1  0  0  0  0
 28 59  1  0  0  0  0
 29 60  1  0  0  0  0
 29 61  1  0  0  0  0
M  CHG  1  27   1
M  END
> <s_m_source_file>
AV-unprocessed.smi

> <i_m_source_file_index>
21

> <i_lp_mmshare_version>
43012

> <i_f3d_flags>
0

> <s_epik_input>
W0NIM11PW0NASF0xW0NIMl1bQ0BIXShOKFtDSDNdKVtDSDJdMSlbQ0gyXU4oW0NIM10pYyhuW2NIXW4yKWMoYzIzKW5bY0hdbjNbQ0gyXVtDQEhdKFtDSDJdW09IXSlbQ0BASF00W0NIMl1bQ0gyXU9bQ0gyXTQ=

> <s_epik_cmdline>
J2VwaWtfcHl0aG9uJywgJy1waCcsICc3LjAnLCAnLXRuJywgJzgnLCAnLW1hJywgJzIwMCcsICctbWV0YWxfYmluZGluZycsICctaW1hZScsICc8aW5maWxlLm1hZT4nLCAnLW9tYWUnLCAnPG91dGZpbGUubWFlPic=

> <r_lp_tautomer_probability>
1

> <r_epik_Ionization_Penalty>
0.0157465

> <r_epik_Ionization_Penalty_Charging>
0.015354

> <r_epik_Ionization_Penalty_Neutral>
0.000392529

> <r_epik_State_Penalty>
0.0120612

> <r_epik_Charging_Adjusted_Penalty>
0.0274152

> <i_epik_Tot_Q>
1

> <i_epik_Tot_abs_Q>
1

> <r_epik_Metal_State_Penalty>
0.0121253

> <b_epik_Metal_Only>
0

> <s_lp_Force_Field>
OPLS_2005

> <r_lp_Energy>
62.2742

> <b_lp_Chiralities_Consistent>
1

> <s_lp_Variant>
AV-unprocessed.smi:21-15

> <Gold.Version>
5.8.1

> <Gold.Id.Protein>
6NUR|6NUR_protein|mol2

> <Gold.PLP.Fitness>
45.2486

> <Gold.PLP.PLP>
-36.1806

> <Gold.PLP.part.hbond>
-2.0000

> <Gold.PLP.part.metal>
0.0000

> <Gold.PLP.part.buried>
-3.7933

> <Gold.PLP.part.nonpolar>
-31.8837

> <Gold.PLP.part.repulsive>
0.6898

> <Gold.PLP.ligand.clash>
0.0000

> <Gold.PLP.ligand.torsion>
1.7609

> <Gold.PLP.Chemscore.Hbond>
3.0000

> <Gold.PLP.Chemscore.CHOScore>
0.9299

> <Gold.PLP.Chemscore.Metal>
0.0000

> <Gold.Chemscore.Hbonds>
donor molecule, donor type, donor heavy atom, donor atom, acceptor molecule, acceptor atom, score
      L1  H    21    49       P1  8028  1.00
      L1  H    27    62       P1  7948  2.00
      L1  C    16    43       P1  7957  0.98

> <Gold.PLP.Chemscore.Internal.Correction>
0.8002

> <Gold.Rescore>
     Score         DG    S(hbond)    S(metal)    S(lipo)     H(rot)  DE(clash)    DE(int)     intcor
      8.21     -11.68       1.73        0.00      70.80       3.08       0.24       3.23       ----

> <Gold.Chemscore.Fitness>
8.2081

> <Gold.Chemscore.DG>
-11.6777

> <Gold.Chemscore.ZeroCoef>
-5.4800

> <Gold.Chemscore.Hbond>
1.7329

> <Gold.Chemscore.Metal>
0.0000

> <Gold.Chemscore.Lipo>
70.8041

> <Gold.Chemscore.Internal_Hbond>
0.0000

> <Gold.Chemscore.DEClash>
0.2431

> <Gold.Chemscore.DEInternal>
3.2264

> <Gold.Chemscore.Rot>
3.0758

> <Gold.Chemscore.Internal.Correction>
   9.000000E+99

> <Gold.Chemscore.Hbonds>
donor molecule, donor type, donor heavy atom, donor atom, acceptor molecule, acceptor atom, score
      L1  H    21    49       P1  8028  0.96
      L1  H    27    62       P1  7948  0.34

> <Gold.Chemscore.Hbond.Weighted>
-5.7878

> <Gold.Chemscore.Metal.Weighted>
-0.0000

> <Gold.Chemscore.Lipo.Weighted>
-8.2841

> <Gold.Chemscore.Internal_Hbond.Weighted>
0.0000

> <Gold.Chemscore.DEClash.Weighted>
0.2431

> <Gold.Chemscore.DEInternal.Weighted>
3.2264

> <Gold.Chemscore.Rot.Weighted>
7.8741

> <Gold.Chemscore.Internal.Correction.Weighted>
   9.000000E+99

> <Gold.Protein.RotatedTorsions>
[ 6907 6896 6895 6894 ] final   39.72 input  -60.11 | X-H torsion
[ 7974 7965 7964 7962 ] final  -56.79 input  175.53 | X-H torsion
[ 8008 7997 7996 7995 ] final -116.73 input   59.86 | X-H torsion
[ 10167 10162 10161 10158 ] final   73.62 input  -65.29 | X-H torsion
[ 10718 10713 10712 10709 ] final  129.41 input   66.30 | X-H torsion
[ 10763 10752 10751 10750 ] final    6.91 input  -60.55 | X-H torsion
[ 11005 11000 10999 10996 ] final  109.89 input  -57.11 | X-H torsion

> <Gold.Protein.ActiveResidues>
 VAL166  LYS551  ARG553  GLY616  TRP617  ASP618  TYR619  PRO620  LYS621  CYS622 
 ASP623  PHE694  ASN695  SER759  ASP760  ASP761  ALA762  ILE779  LEU786  VAL792 
 PHE793  MET794  SER795  GLU796  ALA797  LYS798  CYS799  TRP800  GLU811  SER814 

> <Gold.Protein.RotatedAtoms>
  152.1732  134.8817  160.0532 H   0  0  0  0  0  0  0  0  0  0  0  0  # atno 6907 bound_to 6896
  151.9769  133.3739  159.4100 H   0  0  0  0  0  0  0  0  0  0  0  0  # atno 6908 bound_to 6896
  150.6905  134.4003  159.5160 H   0  0  0  0  0  0  0  0  0  0  0  0  # atno 6909 bound_to 6896
  145.8586  140.8301  142.9948 H   0  0  0  0  0  0  0  0  0  0  0  0  # atno 7974 bound_to 7965
  155.0724  140.0393  157.2613 H   0  0  0  0  0  0  0  0  0  0  0  0  # atno 8008 bound_to 7997
  154.6972  140.2665  155.6730 H   0  0  0  0  0  0  0  0  0  0  0  0  # atno 8009 bound_to 7997
  156.2748  140.2748  156.1570 H   0  0  0  0  0  0  0  0  0  0  0  0  # atno 8010 bound_to 7997
  140.0225  144.5529  150.7570 H   0  0  0  0  0  0  0  0  0  0  0  0  # atno 10167 bound_to 10162
  157.5157  131.1097  150.9228 H   0  0  0  0  0  0  0  0  0  0  0  0  # atno 10718 bound_to 10713
  153.2423  135.6905  153.7770 H   0  0  0  0  0  0  0  0  0  0  0  0  # atno 10763 bound_to 10752
  153.6895  135.3315  155.3199 H   0  0  0  0  0  0  0  0  0  0  0  0  # atno 10764 bound_to 10752
  154.8360  135.4541  154.1349 H   0  0  0  0  0  0  0  0  0  0  0  0  # atno 10765 bound_to 10752
  139.8871  134.9470  156.6194 H   0  0  0  0  0  0  0  0  0  0  0  0  # atno 11005 bound_to 11000
  144.6727  140.1062  143.7458 LP  0  0  0  0  0  0  0  0  0  0  0  0  # atno 17320 bound_to 7965
  145.9274  139.2584  143.1345 LP  0  0  0  0  0  0  0  0  0  0  0  0  # atno 17321 bound_to 7965
  140.7336  143.2719  151.3861 LP  0  0  0  0  0  0  0  0  0  0  0  0  # atno 17342 bound_to 10162
  139.6130  144.1060  152.2318 LP  0  0  0  0  0  0  0  0  0  0  0  0  # atno 17343 bound_to 10162
  156.9855  130.5543  149.5299 LP  0  0  0  0  0  0  0  0  0  0  0  0  # atno 17370 bound_to 10713
  156.0318  130.5409  150.8555 LP  0  0  0  0  0  0  0  0  0  0  0  0  # atno 17371 bound_to 10713
  140.7750  133.8706  155.8522 LP  0  0  0  0  0  0  0  0  0  0  0  0  # atno 17394 bound_to 11000
  140.9809  134.1407  157.4495 LP  0  0  0  0  0  0  0  0  0  0  0  0  # atno 17395 bound_to 11000

$$$$
