AV-unprocessed.smi:879|AV-procd|sdf|4033|dock1
  -GOLD-   22720 1523D 1   1.00000     0.00000
 Structure written by MMmdl.
 39 40  0  0  0  0  0  0  0  0  1 V2000
  147.0231  139.1603  152.9598 C   0  0  0  0  0  0  0  0  0  0  0  0
  148.2909  138.5829  153.3798 N   0  0  0  0  0  0  0  0  0  0  0  0
  149.1392  139.1678  154.2379 C   0  0  0  0  0  0  0  0  0  0  0  0
  148.9166  140.2632  154.7566 O   0  0  0  0  0  0  0  0  0  0  0  0
  150.4191  138.3824  154.5539 C   0  0  0  0  0  0  0  0  0  0  0  0
  151.2049  138.9935  155.6727 C   0  0  0  0  0  0  0  0  0  0  0  0
  152.5290  138.8977  155.7185 N   0  0  0  0  0  0  0  0  0  0  0  0
  152.8623  139.5775  156.8984 O   0  0  0  0  0  0  0  0  0  0  0  0
  151.6891  140.0087  157.4214 C   0  0  0  0  0  0  0  0  0  0  0  0
  151.7016  140.7480  158.7204 C   0  0  0  0  0  0  0  0  0  0  0  0
  152.4846  142.0797  158.6789 C   0  0  0  0  0  0  0  0  0  0  0  0
  153.0267  142.4487  160.0786 C   0  0  0  0  0  0  0  0  0  0  0  0
  152.0615  143.2384  160.9797 C   0  0  0  0  0  0  0  0  0  0  0  0
  152.1751  144.7599  160.7845 C   0  0  0  0  0  0  0  0  0  0  0  0
  151.6007  145.2844  159.4599 C   0  0  0  0  0  0  0  0  0  0  0  0
  152.1900  144.6342  158.1958 C   0  0  0  0  0  0  0  0  0  0  0  0
  151.6837  143.1991  157.9710 C   0  0  0  0  0  0  0  0  0  0  0  0
  150.6214  139.6567  156.7099 N   0  0  0  0  0  0  0  0  0  0  0  0
  146.5047  138.4726  152.2918 H   0  0  0  0  0  0  0  0  0  0  0  0
  147.1830  140.0983  152.4270 H   0  0  0  0  0  0  0  0  0  0  0  0
  146.3784  139.3527  153.8185 H   0  0  0  0  0  0  0  0  0  0  0  0
  148.5389  137.6829  152.9949 H   0  0  0  0  0  0  0  0  0  0  0  0
  150.1518  137.3584  154.8170 H   0  0  0  0  0  0  0  0  0  0  0  0
  151.0453  138.3272  153.6619 H   0  0  0  0  0  0  0  0  0  0  0  0
  150.6700  140.9308  159.0233 H   0  0  0  0  0  0  0  0  0  0  0  0
  152.1277  140.0864  159.4755 H   0  0  0  0  0  0  0  0  0  0  0  0
  153.3679  141.8942  158.0654 H   0  0  0  0  0  0  0  0  0  0  0  0
  153.3227  141.5348  160.5952 H   0  0  0  0  0  0  0  0  0  0  0  0
  153.9540  143.0128  159.9700 H   0  0  0  0  0  0  0  0  0  0  0  0
  151.0331  142.9000  160.8494 H   0  0  0  0  0  0  0  0  0  0  0  0
  152.3165  143.0209  162.0174 H   0  0  0  0  0  0  0  0  0  0  0  0
  151.6512  145.2559  161.6021 H   0  0  0  0  0  0  0  0  0  0  0  0
  153.2179  145.0651  160.8777 H   0  0  0  0  0  0  0  0  0  0  0  0
  150.5161  145.1704  159.4603 H   0  0  0  0  0  0  0  0  0  0  0  0
  151.7819  146.3587  159.4151 H   0  0  0  0  0  0  0  0  0  0  0  0
  151.8758  145.2362  157.3427 H   0  0  0  0  0  0  0  0  0  0  0  0
  153.2799  144.6734  158.2003 H   0  0  0  0  0  0  0  0  0  0  0  0
  151.6975  142.9976  156.8989 H   0  0  0  0  0  0  0  0  0  0  0  0
  150.6330  143.1439  158.2582 H   0  0  0  0  0  0  0  0  0  0  0  0
  1  2  1  0  0  0  0
  1 19  1  0  0  0  0
  1 20  1  0  0  0  0
  1 21  1  0  0  0  0
  2  3  1  0  0  0  0
  2 22  1  0  0  0  0
  3  4  2  0  0  0  0
  3  5  1  0  0  0  0
  5  6  1  0  0  0  0
  5 23  1  0  0  0  0
  5 24  1  0  0  0  0
  6 18  1  0  0  0  0
  6  7  2  0  0  0  0
  7  8  1  0  0  0  0
  8  9  1  0  0  0  0
  9 10  1  0  0  0  0
  9 18  2  0  0  0  0
 10 11  1  0  0  0  0
 10 25  1  0  0  0  0
 10 26  1  0  0  0  0
 11 17  1  0  0  0  0
 11 12  1  0  0  0  0
 11 27  1  0  0  0  0
 12 13  1  0  0  0  0
 12 28  1  0  0  0  0
 12 29  1  0  0  0  0
 13 14  1  0  0  0  0
 13 30  1  0  0  0  0
 13 31  1  0  0  0  0
 14 15  1  0  0  0  0
 14 32  1  0  0  0  0
 14 33  1  0  0  0  0
 15 16  1  0  0  0  0
 15 34  1  0  0  0  0
 15 35  1  0  0  0  0
 16 17  1  0  0  0  0
 16 36  1  0  0  0  0
 16 37  1  0  0  0  0
 17 38  1  0  0  0  0
 17 39  1  0  0  0  0
M  END
> <s_m_source_file>
AV-unprocessed.smi

> <i_m_source_file_index>
879

> <i_lp_mmshare_version>
43012

> <i_f3d_flags>
0

> <s_epik_input>
W0NIM11bTkhdQyg9TylbQ0gyXWMxbm9jKG4xKVtDSDJdW0NIXTJbQ0gyXVtDSDJdW0NIMl1bQ0gyXVtDSDJdW0NIMl0y

> <s_epik_cmdline>
J2VwaWtfcHl0aG9uJywgJy1waCcsICc3LjAnLCAnLXRuJywgJzgnLCAnLW1hJywgJzIwMCcsICctbWV0YWxfYmluZGluZycsICctaW1hZScsICc8aW5maWxlLm1hZT4nLCAnLW9tYWUnLCAnPG91dGZpbGUubWFlPic=

> <r_lp_tautomer_probability>
1

> <r_epik_Ionization_Penalty>
1.02915e-07

> <r_epik_Ionization_Penalty_Charging>
0

> <r_epik_Ionization_Penalty_Neutral>
1.02915e-07

> <r_epik_State_Penalty>
-0

> <r_epik_Charging_Adjusted_Penalty>
0

> <i_epik_Tot_Q>
0

> <i_epik_Tot_abs_Q>
0

> <r_epik_Metal_State_Penalty>
-0

> <b_epik_Metal_Only>
0

> <s_lp_Force_Field>
OPLS_2005

> <r_lp_Energy>
15.7019

> <b_lp_Chiralities_Consistent>
1

> <s_lp_Variant>
AV-unprocessed.smi:879-1

> <Gold.Version>
5.8.1

> <Gold.Id.Protein>
6NUR|6NUR_protein|mol2

> <Gold.PLP.Fitness>
47.0997

> <Gold.PLP.PLP>
-42.3835

> <Gold.PLP.part.hbond>
-3.5090

> <Gold.PLP.part.metal>
0.0000

> <Gold.PLP.part.buried>
-4.0869

> <Gold.PLP.part.nonpolar>
-34.7952

> <Gold.PLP.part.repulsive>
0.1578

> <Gold.PLP.ligand.clash>
0.0000

> <Gold.PLP.ligand.torsion>
0.6700

> <Gold.PLP.Chemscore.Hbond>
2.0000

> <Gold.PLP.Chemscore.CHOScore>
0.0000

> <Gold.PLP.Chemscore.Metal>
0.0000

> <Gold.Chemscore.Hbonds>
donor molecule, donor type, donor heavy atom, donor atom, acceptor molecule, acceptor atom, score
      L1  H     2    22       P1  7948  1.00
      P1  H  7997  8010       L1     8  0.90

> <Gold.PLP.Chemscore.Internal.Correction>
0.0561

> <Gold.Rescore>
     Score         DG    S(hbond)    S(metal)    S(lipo)     H(rot)  DE(clash)    DE(int)     intcor
     16.87     -19.15       1.84        0.00     104.65       1.84       0.11       2.17       ----

> <Gold.Chemscore.Fitness>
16.8718

> <Gold.Chemscore.DG>
-19.1467

> <Gold.Chemscore.ZeroCoef>
-5.4800

> <Gold.Chemscore.Hbond>
1.8363

> <Gold.Chemscore.Metal>
0.0000

> <Gold.Chemscore.Lipo>
104.6466

> <Gold.Chemscore.Internal_Hbond>
0.0000

> <Gold.Chemscore.DEClash>
0.1070

> <Gold.Chemscore.DEInternal>
2.1678

> <Gold.Chemscore.Rot>
1.8399

> <Gold.Chemscore.Internal.Correction>
   9.000000E+99

> <Gold.Chemscore.Hbonds>
donor molecule, donor type, donor heavy atom, donor atom, acceptor molecule, acceptor atom, score
      L1  H     2    22       P1  7948  1.00
      P1  H  7997  8010       L1     8  0.18

> <Gold.Chemscore.Hbond.Weighted>
-6.1331

> <Gold.Chemscore.Metal.Weighted>
-0.0000

> <Gold.Chemscore.Lipo.Weighted>
-12.2437

> <Gold.Chemscore.Internal_Hbond.Weighted>
0.0000

> <Gold.Chemscore.DEClash.Weighted>
0.1070

> <Gold.Chemscore.DEInternal.Weighted>
2.1678

> <Gold.Chemscore.Rot.Weighted>
4.7101

> <Gold.Chemscore.Internal.Correction.Weighted>
   9.000000E+99

> <Gold.Protein.RotatedTorsions>
[ 6907 6896 6895 6894 ] final  -75.39 input  -60.11 | X-H torsion
[ 7974 7965 7964 7962 ] final   99.46 input  175.53 | X-H torsion
[ 8008 7997 7996 7995 ] final   71.66 input   59.86 | X-H torsion
[ 10167 10162 10161 10158 ] final  -55.72 input  -65.29 | X-H torsion
[ 10718 10713 10712 10709 ] final  165.38 input   66.30 | X-H torsion
[ 10763 10752 10751 10750 ] final -131.66 input  -60.55 | X-H torsion
[ 11005 11000 10999 10996 ] final   -8.92 input  -57.11 | X-H torsion

> <Gold.Protein.ActiveResidues>
 VAL166  LYS551  ARG553  GLY616  TRP617  ASP618  TYR619  PRO620  LYS621  CYS622 
 ASP623  PHE694  ASN695  SER759  ASP760  ASP761  ALA762  ILE779  LEU786  VAL792 
 PHE793  MET794  SER795  GLU796  ALA797  LYS798  CYS799  TRP800  GLU811  SER814 

> <Gold.Protein.RotatedAtoms>
  150.7061  134.4728  159.5433 H   0  0  0  0  0  0  0  0  0  0  0  0  # atno 6907 bound_to 6896
  152.2381  134.8253  160.0473 H   0  0  0  0  0  0  0  0  0  0  0  0  # atno 6908 bound_to 6896
  151.9044  133.3511  159.3879 H   0  0  0  0  0  0  0  0  0  0  0  0  # atno 6909 bound_to 6896
  145.3986  139.2351  143.3312 H   0  0  0  0  0  0  0  0  0  0  0  0  # atno 7974 bound_to 7965
  155.7572  140.3487  155.5180 H   0  0  0  0  0  0  0  0  0  0  0  0  # atno 8008 bound_to 7997
  155.8948  140.1024  157.1414 H   0  0  0  0  0  0  0  0  0  0  0  0  # atno 8009 bound_to 7997
  154.4037  140.1297  156.4348 H   0  0  0  0  0  0  0  0  0  0  0  0  # atno 8010 bound_to 7997
  140.6359  143.2482  151.5120 H   0  0  0  0  0  0  0  0  0  0  0  0  # atno 10167 bound_to 10162
  157.0810  131.0392  151.2575 H   0  0  0  0  0  0  0  0  0  0  0  0  # atno 10718 bound_to 10713
  154.8749  135.3823  154.4283 H   0  0  0  0  0  0  0  0  0  0  0  0  # atno 10763 bound_to 10752
  153.4979  135.7030  153.5853 H   0  0  0  0  0  0  0  0  0  0  0  0  # atno 10764 bound_to 10752
  153.4197  135.3904  155.2070 H   0  0  0  0  0  0  0  0  0  0  0  0  # atno 10765 bound_to 10752
  140.7286  133.8768  155.8875 H   0  0  0  0  0  0  0  0  0  0  0  0  # atno 11005 bound_to 11000
  146.2763  140.4680  142.8794 LP  0  0  0  0  0  0  0  0  0  0  0  0  # atno 17320 bound_to 7965
  144.8389  140.6827  143.6242 LP  0  0  0  0  0  0  0  0  0  0  0  0  # atno 17321 bound_to 7965
  139.5569  144.2253  152.1627 LP  0  0  0  0  0  0  0  0  0  0  0  0  # atno 17342 bound_to 10162
  140.1509  144.5115  150.6688 LP  0  0  0  0  0  0  0  0  0  0  0  0  # atno 17343 bound_to 10162
  157.4800  130.7759  149.7405 LP  0  0  0  0  0  0  0  0  0  0  0  0  # atno 17370 bound_to 10713
  155.9923  130.3931  150.2945 LP  0  0  0  0  0  0  0  0  0  0  0  0  # atno 17371 bound_to 10713
  140.9941  134.1239  157.4381 LP  0  0  0  0  0  0  0  0  0  0  0  0  # atno 17394 bound_to 11000
  139.8831  135.0049  156.6279 LP  0  0  0  0  0  0  0  0  0  0  0  0  # atno 17395 bound_to 11000

$$$$
