AV-unprocessed.smi:2528|AV-procd|sdf|9958|dock10
  -GOLD-   2272013593D 1   1.00000     0.00000
 Structure written by MMmdl.
 43 45  0  0  0  0  0  0  0  0  1 V2000
  144.5078  136.7550  152.6758 O   0  0  0  0  0  0  0  0  0  0  0  0
  145.7136  136.5581  152.5220 C   0  0  0  0  0  0  0  0  0  0  0  0
  146.6600  137.4067  152.9480 N   0  0  0  0  0  0  0  0  0  0  0  0
  146.4053  138.6567  153.6557 C   0  0  0  0  0  0  0  0  0  0  0  0
  147.2051  139.8294  153.0478 C   0  0  2  0  0  0  0  0  0  0  0  0
  148.7293  139.6669  153.2025 C   0  0  0  0  0  0  0  0  0  0  0  0
  149.1851  139.8796  154.5711 N   0  0  0  0  0  0  0  0  0  0  0  0
  150.6377  139.7430  154.6676 C   0  0  0  0  0  0  0  0  0  0  0  0
  151.1519  139.9297  156.1035 C   0  0  0  0  0  0  0  0  0  0  0  0
  150.7115  141.2941  156.6517 C   0  0  0  0  0  0  0  0  0  0  0  0
  149.1910  141.4535  156.5029 C   0  0  0  0  0  0  0  0  0  0  0  0
  148.7459  141.1941  155.0480 C   0  0  2  0  0  0  0  0  0  0  0  0
  147.2173  141.3457  154.9190 C   0  0  0  0  0  0  0  0  0  0  0  0
  146.8014  141.0931  153.5795 O   0  0  0  0  0  0  0  0  0  0  0  0
  146.2569  135.4851  151.9207 N   0  0  0  0  0  0  0  0  0  0  0  0
  145.5906  134.3770  151.3322 C   0  0  0  0  0  0  0  0  0  0  0  0
  146.4397  133.3949  150.7732 C   0  0  0  0  0  0  0  0  0  0  0  0
  145.8763  132.2566  150.1645 C   0  0  0  0  0  0  0  0  0  0  0  0
  144.4763  132.1296  150.1291 C   0  0  0  0  0  0  0  0  0  0  0  0
  143.7031  133.1523  150.7083 C   0  0  0  0  0  0  0  0  0  0  0  0
  144.2409  134.2439  151.2923 N   0  0  0  0  0  0  0  0  0  0  0  0
  147.6265  137.1667  152.7840 H   0  0  0  0  0  0  0  0  0  0  0  0
  145.3345  138.8552  153.6262 H   0  0  0  0  0  0  0  0  0  0  0  0
  146.6569  138.5400  154.7113 H   0  0  0  0  0  0  0  0  0  0  0  0
  146.9876  139.8594  151.9795 H   0  0  0  0  0  0  0  0  0  0  0  0
  149.0283  138.6757  152.8596 H   0  0  0  0  0  0  0  0  0  0  0  0
  149.2245  140.3807  152.5422 H   0  0  0  0  0  0  0  0  0  0  0  0
  150.9372  138.7578  154.3082 H   0  0  0  0  0  0  0  0  0  0  0  0
  151.1221  140.4697  154.0135 H   0  0  0  0  0  0  0  0  0  0  0  0
  150.7622  139.1333  156.7389 H   0  0  0  0  0  0  0  0  0  0  0  0
  152.2388  139.8468  156.1281 H   0  0  0  0  0  0  0  0  0  0  0  0
  151.0039  141.3966  157.6970 H   0  0  0  0  0  0  0  0  0  0  0  0
  151.2184  142.0895  156.1041 H   0  0  0  0  0  0  0  0  0  0  0  0
  148.6864  140.7560  157.1731 H   0  0  0  0  0  0  0  0  0  0  0  0
  148.8938  142.4547  156.8162 H   0  0  0  0  0  0  0  0  0  0  0  0
  149.2050  141.9592  154.4194 H   0  0  0  0  0  0  0  0  0  0  0  0
  146.6987  140.6761  155.6056 H   0  0  0  0  0  0  0  0  0  0  0  0
  146.9147  142.3584  155.1864 H   0  0  0  0  0  0  0  0  0  0  0  0
  147.2648  135.4586  151.8779 H   0  0  0  0  0  0  0  0  0  0  0  0
  147.5136  133.5086  150.8091 H   0  0  0  0  0  0  0  0  0  0  0  0
  146.5082  131.4948  149.7323 H   0  0  0  0  0  0  0  0  0  0  0  0
  144.0069  131.2717  149.6704 H   0  0  0  0  0  0  0  0  0  0  0  0
  142.6247  133.0936  150.7025 H   0  0  0  0  0  0  0  0  0  0  0  0
  1  2  2  0  0  0  0
  2  3  1  0  0  0  0
  2 15  1  0  0  0  0
  3  4  1  0  0  0  0
  3 22  1  0  0  0  0
  4  5  1  0  0  0  0
  4 23  1  0  0  0  0
  4 24  1  0  0  0  0
  5 14  1  0  0  0  0
  5  6  1  0  0  0  0
  5 25  1  0  0  0  0
  6  7  1  0  0  0  0
  6 26  1  0  0  0  0
  6 27  1  0  0  0  0
  7 12  1  0  0  0  0
  7  8  1  0  0  0  0
  8  9  1  0  0  0  0
  8 28  1  0  0  0  0
  8 29  1  0  0  0  0
  9 10  1  0  0  0  0
  9 30  1  0  0  0  0
  9 31  1  0  0  0  0
 10 11  1  0  0  0  0
 10 32  1  0  0  0  0
 10 33  1  0  0  0  0
 11 12  1  0  0  0  0
 11 34  1  0  0  0  0
 11 35  1  0  0  0  0
 12 13  1  0  0  0  0
 12 36  1  0  0  0  0
 13 14  1  0  0  0  0
 13 37  1  0  0  0  0
 13 38  1  0  0  0  0
 15 16  1  0  0  0  0
 15 39  1  0  0  0  0
 16 21  1  0  0  0  0
 16 17  2  0  0  0  0
 17 18  1  0  0  0  0
 17 40  1  0  0  0  0
 18 19  2  0  0  0  0
 18 41  1  0  0  0  0
 19 20  1  0  0  0  0
 19 42  1  0  0  0  0
 20 21  2  0  0  0  0
 20 43  1  0  0  0  0
M  END
> <s_m_source_file>
AV-unprocessed.smi

> <i_m_source_file_index>
2528

> <i_lp_mmshare_version>
43012

> <i_f3d_flags>
0

> <s_epik_input>
bjFbY0hdW2NIXVtjSF1bY0hdYzFbTkhdQyg9TylbTkhdW0NIMl1bQ0BIXShbQ0gyXTIpT1tDSDJdW0NAQEhdKE4yMylbQ0gyXVtDSDJdW0NIMl1bQ0gyXTM=

> <s_epik_cmdline>
J2VwaWtfcHl0aG9uJywgJy1waCcsICc3LjAnLCAnLXRuJywgJzgnLCAnLW1hJywgJzIwMCcsICctbWV0YWxfYmluZGluZycsICctaW1hZScsICc8aW5maWxlLm1hZT4nLCAnLW9tYWUnLCAnPG91dGZpbGUubWFlPic=

> <r_epik_Ionization_Penalty>
1.14192

> <r_epik_Ionization_Penalty_Charging>
0

> <r_epik_Ionization_Penalty_Neutral>
1.14192

> <r_epik_State_Penalty>
1.20248

> <r_epik_Charging_Adjusted_Penalty>
1.20248

> <i_epik_Tot_Q>
0

> <i_epik_Tot_abs_Q>
0

> <r_epik_Metal_State_Penalty>
1.20248

> <b_epik_Metal_Only>
0

> <s_lp_Force_Field>
OPLS_2005

> <r_lp_Energy>
38.2617

> <b_lp_Chiralities_Consistent>
1

> <s_lp_Variant>
AV-unprocessed.smi:2528-11

> <Gold.Version>
5.8.1

> <Gold.Id.Protein>
6NUR|6NUR_protein|mol2

> <Gold.PLP.Fitness>
40.2519

> <Gold.PLP.PLP>
-31.4364

> <Gold.PLP.part.hbond>
-2.0000

> <Gold.PLP.part.metal>
0.0000

> <Gold.PLP.part.buried>
2.1600

> <Gold.PLP.part.nonpolar>
-32.7369

> <Gold.PLP.part.repulsive>
0.6711

> <Gold.PLP.ligand.clash>
0.0000

> <Gold.PLP.ligand.torsion>
0.0954

> <Gold.PLP.Chemscore.Hbond>
2.0000

> <Gold.PLP.Chemscore.CHOScore>
1.0000

> <Gold.PLP.Chemscore.Metal>
0.0000

> <Gold.Chemscore.Hbonds>
donor molecule, donor type, donor heavy atom, donor atom, acceptor molecule, acceptor atom, score
      L1  H     3    22       P1  7948  1.00
      L1  H    15    39       P1  7948  1.00
      L1  C    20    43       P1 10186  1.00

> <Gold.PLP.Chemscore.Internal.Correction>
0.0064

> <Gold.Rescore>
     Score         DG    S(hbond)    S(metal)    S(lipo)     H(rot)  DE(clash)    DE(int)     intcor
     16.09     -19.27       1.95        0.00      90.03       1.27       1.77       1.41       ----

> <Gold.Chemscore.Fitness>
16.0942

> <Gold.Chemscore.DG>
-19.2725

> <Gold.Chemscore.ZeroCoef>
-5.4800

> <Gold.Chemscore.Hbond>
1.9489

> <Gold.Chemscore.Metal>
0.0000

> <Gold.Chemscore.Lipo>
90.0282

> <Gold.Chemscore.Internal_Hbond>
0.0000

> <Gold.Chemscore.DEClash>
1.7661

> <Gold.Chemscore.DEInternal>
1.4123

> <Gold.Chemscore.Rot>
1.2696

> <Gold.Chemscore.Internal.Correction>
   9.000000E+99

> <Gold.Chemscore.Hbonds>
donor molecule, donor type, donor heavy atom, donor atom, acceptor molecule, acceptor atom, score
      L1  H     3    22       P1  7948  0.95
      L1  H    15    39       P1  7948  0.98

> <Gold.Chemscore.Hbond.Weighted>
-6.5094

> <Gold.Chemscore.Metal.Weighted>
-0.0000

> <Gold.Chemscore.Lipo.Weighted>
-10.5333

> <Gold.Chemscore.Internal_Hbond.Weighted>
0.0000

> <Gold.Chemscore.DEClash.Weighted>
1.7661

> <Gold.Chemscore.DEInternal.Weighted>
1.4123

> <Gold.Chemscore.Rot.Weighted>
3.2502

> <Gold.Chemscore.Internal.Correction.Weighted>
   9.000000E+99

> <Gold.Protein.RotatedTorsions>
[ 6907 6896 6895 6894 ] final  175.73 input  -60.11 | X-H torsion
[ 7974 7965 7964 7962 ] final -175.68 input  175.53 | X-H torsion
[ 8008 7997 7996 7995 ] final  168.12 input   59.86 | X-H torsion
[ 10167 10162 10161 10158 ] final -101.85 input  -65.29 | X-H torsion
[ 10718 10713 10712 10709 ] final  -31.01 input   66.30 | X-H torsion
[ 10763 10752 10751 10750 ] final  -39.82 input  -60.55 | X-H torsion
[ 11005 11000 10999 10996 ] final  -43.07 input  -57.11 | X-H torsion

> <Gold.Protein.ActiveResidues>
 VAL166  LYS551  ARG553  GLY616  TRP617  ASP618  TYR619  PRO620  LYS621  CYS622 
 ASP623  PHE694  ASN695  SER759  ASP760  ASP761  ALA762  ILE779  LEU786  VAL792 
 PHE793  MET794  SER795  GLU796  ALA797  LYS798  CYS799  TRP800  GLU811  SER814 

> <Gold.Protein.RotatedAtoms>
  151.7315  133.3318  159.3341 H   0  0  0  0  0  0  0  0  0  0  0  0  # atno 6907 bound_to 6896
  150.7611  134.6359  159.6220 H   0  0  0  0  0  0  0  0  0  0  0  0  # atno 6908 bound_to 6896
  152.3589  134.6903  160.0265 H   0  0  0  0  0  0  0  0  0  0  0  0  # atno 6909 bound_to 6896
  144.7127  140.1284  143.6400 H   0  0  0  0  0  0  0  0  0  0  0  0  # atno 7974 bound_to 7965
  156.1575  140.1599  156.8668 H   0  0  0  0  0  0  0  0  0  0  0  0  # atno 8008 bound_to 7997
  154.5128  140.0796  156.8060 H   0  0  0  0  0  0  0  0  0  0  0  0  # atno 8009 bound_to 7997
  155.3774  140.3403  155.4247 H   0  0  0  0  0  0  0  0  0  0  0  0  # atno 8010 bound_to 7997
  140.2369  143.3566  152.0837 H   0  0  0  0  0  0  0  0  0  0  0  0  # atno 10167 bound_to 10162
  156.3926  130.4375  149.7383 H   0  0  0  0  0  0  0  0  0  0  0  0  # atno 10718 bound_to 10713
  153.9357  135.6767  153.4745 H   0  0  0  0  0  0  0  0  0  0  0  0  # atno 10763 bound_to 10752
  153.0957  135.4853  154.8770 H   0  0  0  0  0  0  0  0  0  0  0  0  # atno 10764 bound_to 10752
  154.7404  135.3159  154.8696 H   0  0  0  0  0  0  0  0  0  0  0  0  # atno 10765 bound_to 10752
  141.0358  133.6800  156.2681 H   0  0  0  0  0  0  0  0  0  0  0  0  # atno 11005 bound_to 11000
  145.9309  139.2605  143.1326 LP  0  0  0  0  0  0  0  0  0  0  0  0  # atno 17320 bound_to 7965
  145.9524  140.8898  143.0252 LP  0  0  0  0  0  0  0  0  0  0  0  0  # atno 17321 bound_to 7965
  139.5090  144.6860  151.5885 LP  0  0  0  0  0  0  0  0  0  0  0  0  # atno 17342 bound_to 10162
  140.6143  143.9378  150.6477 LP  0  0  0  0  0  0  0  0  0  0  0  0  # atno 17343 bound_to 10162
  156.4431  130.7870  151.2892 LP  0  0  0  0  0  0  0  0  0  0  0  0  # atno 17370 bound_to 10713
  157.7500  131.0119  150.3362 LP  0  0  0  0  0  0  0  0  0  0  0  0  # atno 17371 bound_to 10713
  140.6324  134.5250  157.5561 LP  0  0  0  0  0  0  0  0  0  0  0  0  # atno 17394 bound_to 11000
  139.9240  134.8092  156.1125 LP  0  0  0  0  0  0  0  0  0  0  0  0  # atno 17395 bound_to 11000

$$$$
