AV-unprocessed.smi:1|AV-procd|sdf|3|dock3
  -GOLD-   2262015 83D 1   1.00000     0.00000
 Structure written by MMmdl.
 57 62  0  0  0  0  0  0  0  0  1 V2000
  152.8557  139.6178  157.6947 O   0  0  0  0  0  0  0  0  0  0  0  0
  152.0257  140.5178  157.5622 C   0  0  0  0  0  0  0  0  0  0  0  0
  150.7967  140.3321  156.8114 N   0  0  0  0  0  0  0  0  0  0  0  0
  150.4091  139.2496  156.0972 C   0  0  0  0  0  0  0  0  0  0  0  0
  151.1097  138.7947  155.0254 N   0  0  0  0  0  0  0  0  0  0  0  0
  150.6836  137.7245  154.3492 C   0  0  0  0  0  0  0  0  0  0  0  0
  149.6006  136.9774  154.5693 N   0  0  0  0  0  0  0  0  0  0  0  0
  148.8860  137.4297  155.6414 C   0  0  0  0  0  0  0  0  0  0  0  0
  149.2245  138.5516  156.4487 C   0  0  0  0  0  0  0  0  0  0  0  0
  148.2725  138.7193  157.4456 N   0  0  0  0  0  0  0  0  0  0  0  0
  147.4178  137.7558  157.2313 C   0  0  0  0  0  0  0  0  0  0  0  0
  147.7039  136.9369  156.1616 N   0  0  0  0  0  0  0  0  0  0  0  0
  146.8959  135.7756  155.6701 C   0  0  2  0  0  0  0  0  0  0  0  0
  145.7007  135.7366  156.3879 O   0  0  0  0  0  0  0  0  0  0  0  0
  145.3774  134.3974  156.7343 C   0  0  2  0  0  0  0  0  0  0  0  0
  144.4865  134.3564  157.9815 C   0  0  0  0  0  0  0  0  0  0  0  0
  143.9128  133.0653  158.1002 O   0  0  0  0  0  0  0  0  0  0  0  0
  142.9010  132.8536  158.9640 C   0  0  0  0  0  0  0  0  0  0  0  0
  142.3186  133.7569  159.5680 O   0  0  0  0  0  0  0  0  0  0  0  0
  142.5597  131.4096  159.1145 C   0  0  0  0  0  0  0  0  0  0  0  0
  141.5775  131.0238  160.0565 C   0  0  0  0  0  0  0  0  0  0  0  0
  141.2348  129.6677  160.2213 C   0  0  0  0  0  0  0  0  0  0  0  0
  141.8706  128.6804  159.4466 C   0  0  0  0  0  0  0  0  0  0  0  0
  142.8488  129.0511  158.5055 C   0  0  0  0  0  0  0  0  0  0  0  0
  143.1925  130.4067  158.3388 C   0  0  0  0  0  0  0  0  0  0  0  0
  146.7349  133.7192  156.9061 C   0  0  2  0  0  0  0  0  0  0  0  0
  147.2875  133.9409  158.1919 O   0  0  0  0  0  0  0  0  0  0  0  0
  148.9350  134.1322  158.0086 S   0  0  0  0  0  0  0  0  0  0  0  0
  149.3729  135.2811  158.8152 O   0  0  0  0  0  0  0  0  0  0  0  0
  149.5627  132.8065  158.1191 O   0  0  0  0  0  0  0  0  0  0  0  0
  148.9404  134.5723  156.3962 O   0  0  0  0  0  0  0  0  0  0  0  0
  147.6231  134.4301  155.8771 C   0  0  2  0  0  0  0  0  0  0  0  0
  152.1828  141.8437  158.2475 C   0  0  0  0  0  0  0  0  0  0  0  0
  153.1856  142.0184  159.2277 C   0  0  0  0  0  0  0  0  0  0  0  0
  153.3493  143.2632  159.8661 C   0  0  0  0  0  0  0  0  0  0  0  0
  152.5173  144.3458  159.5238 C   0  0  0  0  0  0  0  0  0  0  0  0
  151.5242  144.1841  158.5395 C   0  0  0  0  0  0  0  0  0  0  0  0
  151.3590  142.9396  157.9009 C   0  0  0  0  0  0  0  0  0  0  0  0
  150.1544  141.1109  156.8165 H   0  0  0  0  0  0  0  0  0  0  0  0
  151.2960  137.4252  153.5116 H   0  0  0  0  0  0  0  0  0  0  0  0
  146.5402  137.6204  157.8464 H   0  0  0  0  0  0  0  0  0  0  0  0
  146.7059  135.9988  154.6195 H   0  0  0  0  0  0  0  0  0  0  0  0
  144.8645  133.9399  155.8864 H   0  0  0  0  0  0  0  0  0  0  0  0
  145.0816  134.5610  158.8722 H   0  0  0  0  0  0  0  0  0  0  0  0
  143.7102  135.1206  157.9200 H   0  0  0  0  0  0  0  0  0  0  0  0
  141.0764  131.7641  160.6637 H   0  0  0  0  0  0  0  0  0  0  0  0
  140.4832  129.3856  160.9438 H   0  0  0  0  0  0  0  0  0  0  0  0
  141.6085  127.6403  159.5736 H   0  0  0  0  0  0  0  0  0  0  0  0
  143.3372  128.2945  157.9097 H   0  0  0  0  0  0  0  0  0  0  0  0
  143.9472  130.6565  157.6073 H   0  0  0  0  0  0  0  0  0  0  0  0
  146.6803  132.6441  156.7315 H   0  0  0  0  0  0  0  0  0  0  0  0
  147.6345  133.8896  154.9303 H   0  0  0  0  0  0  0  0  0  0  0  0
  153.8326  141.1971  159.5011 H   0  0  0  0  0  0  0  0  0  0  0  0
  154.1142  143.3866  160.6186 H   0  0  0  0  0  0  0  0  0  0  0  0
  152.6434  145.3004  160.0132 H   0  0  0  0  0  0  0  0  0  0  0  0
  150.8898  145.0161  158.2713 H   0  0  0  0  0  0  0  0  0  0  0  0
  150.5964  142.8398  157.1418 H   0  0  0  0  0  0  0  0  0  0  0  0
  1  2  2  0  0  0  0
  2  3  1  0  0  0  0
  2 33  1  0  0  0  0
  3  4  1  0  0  0  0
  3 39  1  0  0  0  0
  4  9  1  0  0  0  0
  4  5  2  0  0  0  0
  5  6  1  0  0  0  0
  6  7  2  0  0  0  0
  6 40  1  0  0  0  0
  7  8  1  0  0  0  0
  8 12  1  0  0  0  0
  8  9  2  0  0  0  0
  9 10  1  0  0  0  0
 10 11  2  0  0  0  0
 11 12  1  0  0  0  0
 11 41  1  0  0  0  0
 12 13  1  0  0  0  0
 13 32  1  0  0  0  0
 13 14  1  0  0  0  0
 13 42  1  0  0  0  0
 14 15  1  0  0  0  0
 15 16  1  0  0  0  0
 15 26  1  0  0  0  0
 15 43  1  0  0  0  0
 16 17  1  0  0  0  0
 16 44  1  0  0  0  0
 16 45  1  0  0  0  0
 17 18  1  0  0  0  0
 18 19  2  0  0  0  0
 18 20  1  0  0  0  0
 20 25  1  0  0  0  0
 20 21  2  0  0  0  0
 21 22  1  0  0  0  0
 21 46  1  0  0  0  0
 22 23  2  0  0  0  0
 22 47  1  0  0  0  0
 23 24  1  0  0  0  0
 23 48  1  0  0  0  0
 24 25  2  0  0  0  0
 24 49  1  0  0  0  0
 25 50  1  0  0  0  0
 26 32  1  0  0  0  0
 26 27  1  0  0  0  0
 26 51  1  0  0  0  0
 27 28  1  0  0  0  0
 28 29  2  0  0  0  0
 28 30  2  0  0  0  0
 28 31  1  0  0  0  0
 31 32  1  0  0  0  0
 32 52  1  0  0  0  0
 33 38  1  0  0  0  0
 33 34  2  0  0  0  0
 34 35  1  0  0  0  0
 34 53  1  0  0  0  0
 35 36  2  0  0  0  0
 35 54  1  0  0  0  0
 36 37  1  0  0  0  0
 36 55  1  0  0  0  0
 37 38  2  0  0  0  0
 37 56  1  0  0  0  0
 38 57  1  0  0  0  0
M  END
> <s_m_source_file>
AV-unprocessed.smi

> <i_m_source_file_index>
1

> <i_lp_mmshare_version>
43012

> <i_f3d_flags>
0

> <s_epik_input>
W2NIXTFbY0hdW2NIXVtjSF1bY0hdYzFDKD1PKVtOSF1jKG5bY0hdbjIpYyhjMjMpbltjSF1uM1tDQEBIXShbQ0BIXShbQ0BIXTQ1KU9TKE81KSg9Tyk9TylPW0NASF00W0NIMl1PQyg9TyljNltjSF1bY0hdW2NIXVtjSF1bY0hdNg==

> <s_epik_cmdline>
J2VwaWtfcHl0aG9uJywgJy1waCcsICc3LjAnLCAnLXRuJywgJzgnLCAnLW1hJywgJzIwMCcsICctbWV0YWxfYmluZGluZycsICctaW1hZScsICc8aW5maWxlLm1hZT4nLCAnLW9tYWUnLCAnPG91dGZpbGUubWFlPic=

> <r_lp_tautomer_probability>
1

> <r_epik_Ionization_Penalty>
0.00195722

> <r_epik_Ionization_Penalty_Charging>
0

> <r_epik_Ionization_Penalty_Neutral>
0.00195722

> <r_epik_State_Penalty>
0.00633741

> <r_epik_Charging_Adjusted_Penalty>
0.00633741

> <i_epik_Tot_Q>
0

> <i_epik_Tot_abs_Q>
0

> <r_epik_Metal_State_Penalty>
0.341185

> <b_epik_Metal_Only>
0

> <s_epik_Chemistry_Notes>
This compound has an ester and may undergo hydrolysis at high or low pH. This compound contains an acetal/aminal-like group ( X-CH(R)-Y where X, Y are N, S, or O) that may be acid/base labile, releasing an aldehyde.

> <s_lp_Force_Field>
OPLS_2005

> <r_lp_Energy>
44.5828

> <b_lp_Chiralities_Consistent>
1

> <s_lp_Variant>
AV-unprocessed.smi:1-3

> <Gold.Version>
5.8.1

> <Gold.Id.Protein>
6NUR|6NUR_protein|mol2

> <Gold.PLP.Fitness>
54.8805

> <Gold.PLP.PLP>
-44.7244

> <Gold.PLP.part.hbond>
-4.0000

> <Gold.PLP.part.metal>
0.0000

> <Gold.PLP.part.buried>
-7.0578

> <Gold.PLP.part.nonpolar>
-36.4171

> <Gold.PLP.part.repulsive>
1.9892

> <Gold.PLP.ligand.clash>
0.0000

> <Gold.PLP.ligand.torsion>
0.9989

> <Gold.PLP.Chemscore.Hbond>
2.9500

> <Gold.PLP.Chemscore.CHOScore>
1.0000

> <Gold.PLP.Chemscore.Metal>
0.0000

> <Gold.Chemscore.Hbonds>
donor molecule, donor type, donor heavy atom, donor atom, acceptor molecule, acceptor atom, score
      P1  H  6896  6907       L1    29  1.00
      P1  H  7997  8009       L1     1  1.00
      L1  C     6    40       P1  7949  1.00

> <Gold.PLP.Chemscore.Internal.Correction>
0.3039

> <Gold.Rescore>
     Score         DG    S(hbond)    S(metal)    S(lipo)     H(rot)  DE(clash)    DE(int)     intcor
     16.53     -20.31       2.56        0.00     100.33       2.13       1.42       2.36       ----

> <Gold.Chemscore.Fitness>
16.5300

> <Gold.Chemscore.DG>
-20.3127

> <Gold.Chemscore.ZeroCoef>
-5.4800

> <Gold.Chemscore.Hbond>
2.5615

> <Gold.Chemscore.Metal>
0.0000

> <Gold.Chemscore.Lipo>
100.3292

> <Gold.Chemscore.Internal_Hbond>
0.0000

> <Gold.Chemscore.DEClash>
1.4237

> <Gold.Chemscore.DEInternal>
2.3590

> <Gold.Chemscore.Rot>
2.1333

> <Gold.Chemscore.Internal.Correction>
   9.000000E+99

> <Gold.Chemscore.Hbonds>
donor molecule, donor type, donor heavy atom, donor atom, acceptor molecule, acceptor atom, score
      P1  H  6896  6907       L1    29  0.26
      P1  H  7997  8009       L1     1  0.74

> <Gold.Chemscore.Hbond.Weighted>
-8.5555

> <Gold.Chemscore.Metal.Weighted>
-0.0000

> <Gold.Chemscore.Lipo.Weighted>
-11.7385

> <Gold.Chemscore.Internal_Hbond.Weighted>
0.0000

> <Gold.Chemscore.DEClash.Weighted>
1.4237

> <Gold.Chemscore.DEInternal.Weighted>
2.3590

> <Gold.Chemscore.Rot.Weighted>
5.4614

> <Gold.Chemscore.Internal.Correction.Weighted>
   9.000000E+99

> <Gold.Protein.RotatedTorsions>
[ 6907 6896 6895 6894 ] final  -66.98 input  -60.11 | X-H torsion
[ 7974 7965 7964 7962 ] final  -28.91 input  175.53 | X-H torsion
[ 8008 7997 7996 7995 ] final  172.14 input   59.86 | X-H torsion
[ 10167 10162 10161 10158 ] final  -34.55 input  -65.29 | X-H torsion
[ 10718 10713 10712 10709 ] final  -34.72 input   66.30 | X-H torsion
[ 10763 10752 10751 10750 ] final   92.47 input  -60.55 | X-H torsion
[ 11005 11000 10999 10996 ] final -141.62 input  -57.11 | X-H torsion

> <Gold.Protein.ActiveResidues>
 VAL166  LYS551  ARG553  GLY616  TRP617  ASP618  TYR619  PRO620  LYS621  CYS622 
 ASP623  PHE694  ASN695  SER759  ASP760  ASP761  ALA762  ILE779  LEU786  VAL792 
 PHE793  MET794  SER795  GLU796  ALA797  LYS798  CYS799  TRP800  GLU811  SER814 

> <Gold.Protein.RotatedAtoms>
  150.7434  134.5944  159.6003 H   0  0  0  0  0  0  0  0  0  0  0  0  # atno 6907 bound_to 6896
  152.3323  134.7240  160.0295 H   0  0  0  0  0  0  0  0  0  0  0  0  # atno 6908 bound_to 6896
  151.7720  133.3306  159.3483 H   0  0  0  0  0  0  0  0  0  0  0  0  # atno 6909 bound_to 6896
  146.1254  140.5344  142.8717 H   0  0  0  0  0  0  0  0  0  0  0  0  # atno 7974 bound_to 7965
  156.1203  140.1493  156.9214 H   0  0  0  0  0  0  0  0  0  0  0  0  # atno 8008 bound_to 7997
  154.4831  140.0873  156.7465 H   0  0  0  0  0  0  0  0  0  0  0  0  # atno 8009 bound_to 7997
  155.4440  140.3432  155.4295 H   0  0  0  0  0  0  0  0  0  0  0  0  # atno 8010 bound_to 7997
  140.7183  143.3540  151.2097 H   0  0  0  0  0  0  0  0  0  0  0  0  # atno 10167 bound_to 10162
  156.3472  130.4302  149.7736 H   0  0  0  0  0  0  0  0  0  0  0  0  # atno 10718 bound_to 10713
  153.2195  135.4360  155.0473 H   0  0  0  0  0  0  0  0  0  0  0  0  # atno 10763 bound_to 10752
  154.8242  135.3353  154.6948 H   0  0  0  0  0  0  0  0  0  0  0  0  # atno 10764 bound_to 10752
  153.7381  135.7006  153.5029 H   0  0  0  0  0  0  0  0  0  0  0  0  # atno 10765 bound_to 10752
  140.8306  134.2521  157.4858 H   0  0  0  0  0  0  0  0  0  0  0  0  # atno 11005 bound_to 11000
  144.7637  140.5482  143.6717 LP  0  0  0  0  0  0  0  0  0  0  0  0  # atno 17320 bound_to 7965
  145.5376  139.1475  143.3465 LP  0  0  0  0  0  0  0  0  0  0  0  0  # atno 17321 bound_to 7965
  139.7077  143.9428  152.2934 LP  0  0  0  0  0  0  0  0  0  0  0  0  # atno 17342 bound_to 10162
  139.9142  144.6838  150.8530 LP  0  0  0  0  0  0  0  0  0  0  0  0  # atno 17343 bound_to 10162
  156.4950  130.8102  151.3110 LP  0  0  0  0  0  0  0  0  0  0  0  0  # atno 17370 bound_to 10713
  157.7456  130.9963  150.2775 LP  0  0  0  0  0  0  0  0  0  0  0  0  # atno 17371 bound_to 10713
  139.8705  134.9584  156.4299 LP  0  0  0  0  0  0  0  0  0  0  0  0  # atno 17394 bound_to 11000
  140.9002  133.7785  155.9671 LP  0  0  0  0  0  0  0  0  0  0  0  0  # atno 17395 bound_to 11000

$$$$
