AV-unprocessed.smi:2772|AV-procd|sdf|10671|dock4
  -GOLD-   2272015123D 1   1.00000     0.00000
 Structure written by MMmdl.
 54 56  0  0  0  0  0  0  0  0  2 V2000
  144.8945  131.9847  150.3855 C   0  0  0  0  0  0  0  0  0  0  0  0
  145.0499  133.3981  150.9061 C   0  0  0  0  0  0  0  0  0  0  0  0
  145.8237  133.6660  152.0539 C   0  0  0  0  0  0  0  0  0  0  0  0
  145.9398  134.9994  152.4914 C   0  0  0  0  0  0  0  0  0  0  0  0
  145.2815  136.0186  151.7618 C   0  0  0  0  0  0  0  0  0  0  0  0
  145.3035  137.3948  152.1155 N   0  0  0  0  0  0  0  0  0  0  0  0
  146.0421  138.0018  153.0604 C   0  0  0  0  0  0  0  0  0  0  0  0
  146.8830  137.4492  153.7688 O   0  0  0  0  0  0  0  0  0  0  0  0
  145.7622  139.3116  153.1250 N   0  0  0  0  0  0  0  0  0  0  0  0
  146.3836  140.2735  154.0321 C   0  0  2  0  0  0  0  0  0  0  0  0
  147.7731  140.6710  153.5011 C   0  0  0  0  0  0  0  0  0  0  0  0
  148.5265  141.5487  154.5187 C   0  0  0  0  0  0  0  0  0  0  0  0
  148.6613  140.8715  155.8401 N   0  3  2  0  0  0  0  0  0  0  0  0
  149.6220  139.7167  155.8767 C   0  0  0  0  0  0  0  0  0  0  0  0
  149.8043  139.1560  157.3076 C   0  0  0  0  0  0  0  0  0  0  0  0
  150.8805  138.0594  157.3726 C   0  0  0  0  0  0  0  0  0  0  0  0
  152.1597  138.5827  156.9025 N   0  0  0  0  0  0  0  0  0  0  0  0
  153.1803  137.5530  157.0388 C   0  0  0  0  0  0  0  0  0  0  0  0
  152.0415  138.9613  155.4975 C   0  0  0  0  0  0  0  0  0  0  0  0
  151.0221  140.1021  155.3412 C   0  0  0  0  0  0  0  0  0  0  0  0
  147.3020  140.5861  156.3826 C   0  0  0  0  0  0  0  0  0  0  0  0
  146.4908  139.6704  155.4453 C   0  0  0  0  0  0  0  0  0  0  0  0
  144.5204  135.6351  150.6373 C   0  0  0  0  0  0  0  0  0  0  0  0
  144.4063  134.3596  150.2096 N   0  0  0  0  0  0  0  0  0  0  0  0
  145.4505  131.2744  150.9982 H   0  0  0  0  0  0  0  0  0  0  0  0
  145.2663  131.9147  149.3627 H   0  0  0  0  0  0  0  0  0  0  0  0
  143.8447  131.6905  150.3921 H   0  0  0  0  0  0  0  0  0  0  0  0
  146.3167  132.8700  152.5925 H   0  0  0  0  0  0  0  0  0  0  0  0
  146.5153  135.2086  153.3798 H   0  0  0  0  0  0  0  0  0  0  0  0
  144.7216  137.9952  151.5496 H   0  0  0  0  0  0  0  0  0  0  0  0
  145.0600  139.6723  152.4955 H   0  0  0  0  0  0  0  0  0  0  0  0
  145.7812  141.1814  154.0993 H   0  0  0  0  0  0  0  0  0  0  0  0
  148.3600  139.7810  153.2717 H   0  0  0  0  0  0  0  0  0  0  0  0
  147.6657  141.2128  152.5606 H   0  0  0  0  0  0  0  0  0  0  0  0
  149.4866  141.8715  154.1218 H   0  0  0  0  0  0  0  0  0  0  0  0
  147.9672  142.4736  154.6679 H   0  0  0  0  0  0  0  0  0  0  0  0
  149.2362  138.9130  155.2495 H   0  0  0  0  0  0  0  0  0  0  0  0
  150.0636  139.9628  157.9948 H   0  0  0  0  0  0  0  0  0  0  0  0
  148.8786  138.7153  157.6743 H   0  0  0  0  0  0  0  0  0  0  0  0
  150.9852  137.7158  158.4027 H   0  0  0  0  0  0  0  0  0  0  0  0
  150.5807  137.1962  156.7760 H   0  0  0  0  0  0  0  0  0  0  0  0
  154.1472  137.9253  156.6986 H   0  0  0  0  0  0  0  0  0  0  0  0
  152.9317  136.6645  156.4564 H   0  0  0  0  0  0  0  0  0  0  0  0
  153.2892  137.2580  158.0830 H   0  0  0  0  0  0  0  0  0  0  0  0
  153.0132  139.2908  155.1269 H   0  0  0  0  0  0  0  0  0  0  0  0
  151.7444  138.1005  154.8957 H   0  0  0  0  0  0  0  0  0  0  0  0
  150.9794  140.3469  154.2809 H   0  0  0  0  0  0  0  0  0  0  0  0
  151.3881  140.9913  155.8566 H   0  0  0  0  0  0  0  0  0  0  0  0
  147.3385  140.1781  157.3904 H   0  0  0  0  0  0  0  0  0  0  0  0
  146.7746  141.5352  156.4901 H   0  0  0  0  0  0  0  0  0  0  0  0
  145.4922  139.5195  155.8571 H   0  0  0  0  0  0  0  0  0  0  0  0
  146.9508  138.6826  155.4016 H   0  0  0  0  0  0  0  0  0  0  0  0
  143.9883  136.3753  150.0575 H   0  0  0  0  0  0  0  0  0  0  0  0
  149.0633  141.5611  156.4595 H   0  0  0  0  0  0  0  0  0  0  0  0
  1  2  1  0  0  0  0
  1 25  1  0  0  0  0
  1 26  1  0  0  0  0
  1 27  1  0  0  0  0
  2 24  1  0  0  0  0
  2  3  2  0  0  0  0
  3  4  1  0  0  0  0
  3 28  1  0  0  0  0
  4  5  2  0  0  0  0
  4 29  1  0  0  0  0
  5  6  1  0  0  0  0
  5 23  1  0  0  0  0
  6  7  1  0  0  0  0
  6 30  1  0  0  0  0
  7  8  2  0  0  0  0
  7  9  1  0  0  0  0
  9 10  1  0  0  0  0
  9 31  1  0  0  0  0
 10 22  1  0  0  0  0
 10 11  1  0  0  0  0
 10 32  1  0  0  0  0
 11 12  1  0  0  0  0
 11 33  1  0  0  0  0
 11 34  1  0  0  0  0
 12 13  1  0  0  0  0
 12 35  1  0  0  0  0
 12 36  1  0  0  0  0
 13 14  1  0  0  0  0
 13 21  1  0  0  0  0
 13 54  1  0  0  0  0
 14 20  1  0  0  0  0
 14 15  1  0  0  0  0
 14 37  1  0  0  0  0
 15 16  1  0  0  0  0
 15 38  1  0  0  0  0
 15 39  1  0  0  0  0
 16 17  1  0  0  0  0
 16 40  1  0  0  0  0
 16 41  1  0  0  0  0
 17 18  1  0  0  0  0
 17 19  1  0  0  0  0
 18 42  1  0  0  0  0
 18 43  1  0  0  0  0
 18 44  1  0  0  0  0
 19 20  1  0  0  0  0
 19 45  1  0  0  0  0
 19 46  1  0  0  0  0
 20 47  1  0  0  0  0
 20 48  1  0  0  0  0
 21 22  1  0  0  0  0
 21 49  1  0  0  0  0
 21 50  1  0  0  0  0
 22 51  1  0  0  0  0
 22 52  1  0  0  0  0
 23 24  2  0  0  0  0
 23 53  1  0  0  0  0
M  CHG  1  13   1
M  END
> <s_m_source_file>
AV-unprocessed.smi

> <i_m_source_file_index>
2772

> <i_lp_mmshare_version>
43012

> <i_f3d_flags>
0

> <s_epik_input>
W0NIM11jMVtjSF1bY0hdYyhbY0hdbjEpW05IXUMoPU8pW05IXVtDSF0yW0NIMl1bQ0gyXU4oW0NIMl1bQ0gyXTIpW0NIXTNbQ0gyXVtDSDJdTihbQ0gzXSlbQ0gyXVtDSDJdMw==

> <s_epik_cmdline>
J2VwaWtfcHl0aG9uJywgJy1waCcsICc3LjAnLCAnLXRuJywgJzgnLCAnLW1hJywgJzIwMCcsICctbWV0YWxfYmluZGluZycsICctaW1hZScsICc8aW5maWxlLm1hZT4nLCAnLW9tYWUnLCAnPG91dGZpbGUubWFlPic=

> <r_epik_Ionization_Penalty>
1.38854

> <r_epik_Ionization_Penalty_Charging>
0.00081195

> <r_epik_Ionization_Penalty_Neutral>
1.38772

> <r_epik_State_Penalty>
1.56122

> <r_epik_Charging_Adjusted_Penalty>
1.56203

> <i_epik_Tot_Q>
1

> <i_epik_Tot_abs_Q>
1

> <r_epik_Metal_State_Penalty>
1.5614

> <b_epik_Metal_Only>
0

> <s_lp_Force_Field>
OPLS_2005

> <r_lp_Energy>
35.2305

> <b_lp_Chiralities_Consistent>
1

> <s_lp_Variant>
AV-unprocessed.smi:2772-8

> <Gold.Version>
5.8.1

> <Gold.Id.Protein>
6NUR|6NUR_protein|mol2

> <Gold.PLP.Fitness>
38.1622

> <Gold.PLP.PLP>
-29.9750

> <Gold.PLP.part.hbond>
-1.8255

> <Gold.PLP.part.metal>
0.0000

> <Gold.PLP.part.buried>
-1.8190

> <Gold.PLP.part.nonpolar>
-28.1426

> <Gold.PLP.part.repulsive>
1.2667

> <Gold.PLP.ligand.clash>
0.0000

> <Gold.PLP.ligand.torsion>
0.2719

> <Gold.PLP.Chemscore.Hbond>
1.8960

> <Gold.PLP.Chemscore.CHOScore>
1.0000

> <Gold.PLP.Chemscore.Metal>
0.0000

> <Gold.Chemscore.Hbonds>
donor molecule, donor type, donor heavy atom, donor atom, acceptor molecule, acceptor atom, score
      L1  H     6    30       P1 10171  1.00
      L1  H     9    31       P1 10175  0.86
      L1  C    23    53       P1 10171  1.00

> <Gold.PLP.Chemscore.Internal.Correction>
0.0430

> <Gold.Rescore>
     Score         DG    S(hbond)    S(metal)    S(lipo)     H(rot)  DE(clash)    DE(int)     intcor
     15.23     -18.45       1.77        0.00      86.49       1.19       0.30       2.92       ----

> <Gold.Chemscore.Fitness>
15.2343

> <Gold.Chemscore.DG>
-18.4544

> <Gold.Chemscore.ZeroCoef>
-5.4800

> <Gold.Chemscore.Hbond>
1.7676

> <Gold.Chemscore.Metal>
0.0000

> <Gold.Chemscore.Lipo>
86.4929

> <Gold.Chemscore.Internal_Hbond>
0.0000

> <Gold.Chemscore.DEClash>
0.3036

> <Gold.Chemscore.DEInternal>
2.9165

> <Gold.Chemscore.Rot>
1.1910

> <Gold.Chemscore.Internal.Correction>
   9.000000E+99

> <Gold.Chemscore.Hbonds>
donor molecule, donor type, donor heavy atom, donor atom, acceptor molecule, acceptor atom, score
      L1  H     6    30       P1 10171  0.92
      L1  H     9    31       P1 10175  0.83

> <Gold.Chemscore.Hbond.Weighted>
-5.9036

> <Gold.Chemscore.Metal.Weighted>
-0.0000

> <Gold.Chemscore.Lipo.Weighted>
-10.1197

> <Gold.Chemscore.Internal_Hbond.Weighted>
0.0000

> <Gold.Chemscore.DEClash.Weighted>
0.3036

> <Gold.Chemscore.DEInternal.Weighted>
2.9165

> <Gold.Chemscore.Rot.Weighted>
3.0489

> <Gold.Chemscore.Internal.Correction.Weighted>
   9.000000E+99

> <Gold.Protein.RotatedTorsions>
[ 6907 6896 6895 6894 ] final  114.09 input  -60.11 | X-H torsion
[ 7974 7965 7964 7962 ] final -114.37 input  175.53 | X-H torsion
[ 8008 7997 7996 7995 ] final   35.43 input   59.86 | X-H torsion
[ 10167 10162 10161 10158 ] final -177.86 input  -65.29 | X-H torsion
[ 10718 10713 10712 10709 ] final  106.55 input   66.30 | X-H torsion
[ 10763 10752 10751 10750 ] final   38.67 input  -60.55 | X-H torsion
[ 11005 11000 10999 10996 ] final -113.25 input  -57.11 | X-H torsion

> <Gold.Protein.ActiveResidues>
 VAL166  LYS551  ARG553  GLY616  TRP617  ASP618  TYR619  PRO620  LYS621  CYS622 
 ASP623  PHE694  ASN695  SER759  ASP760  ASP761  ALA762  ILE779  LEU786  VAL792 
 PHE793  MET794  SER795  GLU796  ALA797  LYS798  CYS799  TRP800  GLU811  SER814 

> <Gold.Protein.RotatedAtoms>
  152.4823  133.8285  159.7090 H   0  0  0  0  0  0  0  0  0  0  0  0  # atno 6907 bound_to 6896
  150.8882  133.7269  159.2919 H   0  0  0  0  0  0  0  0  0  0  0  0  # atno 6908 bound_to 6896
  151.4751  135.1052  159.9814 H   0  0  0  0  0  0  0  0  0  0  0  0  # atno 6909 bound_to 6896
  145.1210  140.8669  143.3814 H   0  0  0  0  0  0  0  0  0  0  0  0  # atno 7974 bound_to 7965
  155.1710  140.3291  155.4393 H   0  0  0  0  0  0  0  0  0  0  0  0  # atno 8008 bound_to 7997
  156.2510  140.1943  156.6763 H   0  0  0  0  0  0  0  0  0  0  0  0  # atno 8009 bound_to 7997
  154.6338  140.0579  156.9750 H   0  0  0  0  0  0  0  0  0  0  0  0  # atno 8010 bound_to 7997
  139.5460  144.2235  152.0988 H   0  0  0  0  0  0  0  0  0  0  0  0  # atno 10167 bound_to 10162
  157.6664  131.0853  150.6023 H   0  0  0  0  0  0  0  0  0  0  0  0  # atno 10718 bound_to 10713
  152.9993  135.6243  154.2341 H   0  0  0  0  0  0  0  0  0  0  0  0  # atno 10763 bound_to 10752
  154.2083  135.2801  155.2969 H   0  0  0  0  0  0  0  0  0  0  0  0  # atno 10764 bound_to 10752
  154.5628  135.5700  153.7081 H   0  0  0  0  0  0  0  0  0  0  0  0  # atno 10765 bound_to 10752
  141.0626  133.9511  157.2639 H   0  0  0  0  0  0  0  0  0  0  0  0  # atno 11005 bound_to 11000
  145.0740  139.3010  143.5817 LP  0  0  0  0  0  0  0  0  0  0  0  0  # atno 17320 bound_to 7965
  146.3521  140.0224  142.8657 LP  0  0  0  0  0  0  0  0  0  0  0  0  # atno 17321 bound_to 7965
  140.1722  144.4925  150.6573 LP  0  0  0  0  0  0  0  0  0  0  0  0  # atno 17342 bound_to 10162
  140.6708  143.2285  151.5630 LP  0  0  0  0  0  0  0  0  0  0  0  0  # atno 17343 bound_to 10162
  156.6324  130.4435  149.5782 LP  0  0  0  0  0  0  0  0  0  0  0  0  # atno 17370 bound_to 10713
  156.2272  130.6772  151.1427 LP  0  0  0  0  0  0  0  0  0  0  0  0  # atno 17371 bound_to 10713
  139.9446  135.0186  156.8814 LP  0  0  0  0  0  0  0  0  0  0  0  0  # atno 17394 bound_to 11000
  140.5838  134.0326  155.7474 LP  0  0  0  0  0  0  0  0  0  0  0  0  # atno 17395 bound_to 11000

$$$$
