AV-unprocessed.smi:2562|AV-procd|sdf|10047|dock2
  -GOLD-   2272014 93D 1   1.00000     0.00000
 Structure written by MMmdl.
 30 31  0  0  0  0  0  0  0  0  1 V2000
  152.8204  142.2720  160.2083 C   0  0  0  0  0  0  0  0  0  0  0  0
  153.0379  143.5924  159.4608 C   0  0  0  0  0  0  0  0  0  0  0  0
  151.8161  144.0060  158.6282 C   0  0  0  0  0  0  0  0  0  0  0  0
  151.3607  142.9294  157.6979 C   0  0  0  0  0  0  0  0  0  0  0  0
  150.4295  143.1388  156.7655 N   0  0  0  0  0  0  0  0  0  0  0  0
  150.2308  142.0002  156.0687 N   0  0  0  0  0  0  0  0  0  0  0  0
  151.0773  141.1586  156.6616 C   0  0  0  0  0  0  0  0  0  0  0  0
  151.2202  139.7485  156.1776 C   0  0  1  0  0  0  0  0  0  0  0  0
  150.2812  139.4405  154.9949 C   0  0  0  0  0  0  0  0  0  0  0  0
  150.5228  138.0869  154.4970 N   0  0  0  0  0  0  0  0  0  0  0  0
  151.9297  137.8963  154.1462 C   0  0  0  0  0  0  0  0  0  0  0  0
  152.8342  138.2513  155.3405 C   0  0  0  0  0  0  0  0  0  0  0  0
  152.5739  139.5867  155.7593 O   0  0  0  0  0  0  0  0  0  0  0  0
  151.8321  141.6877  157.6743 N   0  0  0  0  0  0  0  0  0  0  0  0
  149.9322  143.9969  156.5744 H   0  0  0  0  0  0  0  0  0  0  0  0
  153.7013  142.0067  160.7933 H   0  0  0  0  0  0  0  0  0  0  0  0
  152.6242  141.4544  159.5141 H   0  0  0  0  0  0  0  0  0  0  0  0
  151.9748  142.3418  160.8929 H   0  0  0  0  0  0  0  0  0  0  0  0
  153.2730  144.3777  160.1802 H   0  0  0  0  0  0  0  0  0  0  0  0
  153.9089  143.4971  158.8114 H   0  0  0  0  0  0  0  0  0  0  0  0
  150.9865  144.2661  159.2869 H   0  0  0  0  0  0  0  0  0  0  0  0
  152.0437  144.9013  158.0479 H   0  0  0  0  0  0  0  0  0  0  0  0
  151.0150  139.0705  157.0088 H   0  0  0  0  0  0  0  0  0  0  0  0
  149.2407  139.5465  155.3026 H   0  0  0  0  0  0  0  0  0  0  0  0
  150.4470  140.1629  154.1947 H   0  0  0  0  0  0  0  0  0  0  0  0
  149.9432  137.9165  153.6814 H   0  0  0  0  0  0  0  0  0  0  0  0
  152.1026  136.8648  153.8388 H   0  0  0  0  0  0  0  0  0  0  0  0
  152.1873  138.5253  153.2934 H   0  0  0  0  0  0  0  0  0  0  0  0
  152.6780  137.5586  156.1690 H   0  0  0  0  0  0  0  0  0  0  0  0
  153.8825  138.1719  155.0526 H   0  0  0  0  0  0  0  0  0  0  0  0
  1  2  1  0  0  0  0
  1 16  1  0  0  0  0
  1 17  1  0  0  0  0
  1 18  1  0  0  0  0
  2  3  1  0  0  0  0
  2 19  1  0  0  0  0
  2 20  1  0  0  0  0
  3 21  1  0  0  0  0
  3 22  1  0  0  0  0
  3  4  1  0  0  0  0
  4 14  2  0  0  0  0
  4  5  1  0  0  0  0
  5  6  1  0  0  0  0
  5 15  1  0  0  0  0
  6  7  2  0  0  0  0
  7 14  1  0  0  0  0
  7  8  1  0  0  0  0
  8 13  1  0  0  0  0
  8  9  1  0  0  0  0
  8 23  1  0  0  0  0
  9 10  1  0  0  0  0
  9 24  1  0  0  0  0
  9 25  1  0  0  0  0
 10 11  1  0  0  0  0
 10 26  1  0  0  0  0
 11 12  1  0  0  0  0
 11 27  1  0  0  0  0
 11 28  1  0  0  0  0
 12 13  1  0  0  0  0
 12 29  1  0  0  0  0
 12 30  1  0  0  0  0
M  END
> <s_m_source_file>
AV-unprocessed.smi

> <i_m_source_file_index>
2562

> <i_lp_mmshare_version>
43012

> <i_f3d_flags>
0

> <s_epik_input>
W0NIM11bQ0gyXVtDSDJdYzFuW25IXWMobjEpW0NAQEhdMltDSDJdW05IXVtDSDJdW0NIMl1PMg==

> <s_epik_cmdline>
J2VwaWtfcHl0aG9uJywgJy1waCcsICc3LjAnLCAnLXRuJywgJzgnLCAnLW1hJywgJzIwMCcsICctbWV0YWxfYmluZGluZycsICctaW1hZScsICc8aW5maWxlLm1hZT4nLCAnLW9tYWUnLCAnPG91dGZpbGUubWFlPic=

> <r_epik_Ionization_Penalty>
1.10136

> <r_epik_Ionization_Penalty_Charging>
0

> <r_epik_Ionization_Penalty_Neutral>
1.10136

> <r_epik_State_Penalty>
1.43987

> <r_epik_Charging_Adjusted_Penalty>
1.43987

> <i_epik_Tot_Q>
0

> <i_epik_Tot_abs_Q>
0

> <r_epik_Metal_State_Penalty>
1.55976

> <b_epik_Metal_Only>
0

> <s_lp_Force_Field>
OPLS_2005

> <r_lp_Energy>
12.0534

> <b_lp_Chiralities_Consistent>
1

> <s_lp_Variant>
AV-unprocessed.smi:2562-6

> <Gold.Version>
5.8.1

> <Gold.Id.Protein>
6NUR|6NUR_protein|mol2

> <Gold.PLP.Fitness>
35.1878

> <Gold.PLP.PLP>
-29.4607

> <Gold.PLP.part.hbond>
-1.7680

> <Gold.PLP.part.metal>
0.0000

> <Gold.PLP.part.buried>
-4.3849

> <Gold.PLP.part.nonpolar>
-24.7847

> <Gold.PLP.part.repulsive>
0.6273

> <Gold.PLP.ligand.clash>
0.0000

> <Gold.PLP.ligand.torsion>
0.0827

> <Gold.PLP.Chemscore.Hbond>
1.9600

> <Gold.PLP.Chemscore.CHOScore>
0.0000

> <Gold.PLP.Chemscore.Metal>
0.0000

> <Gold.Chemscore.Hbonds>
donor molecule, donor type, donor heavy atom, donor atom, acceptor molecule, acceptor atom, score
      L1  H     5    15       P1  8028  0.96
      P1  H  7997  8010       L1    13  1.00

> <Gold.PLP.Chemscore.Internal.Correction>
0.0124

> <Gold.Rescore>
     Score         DG    S(hbond)    S(metal)    S(lipo)     H(rot)  DE(clash)    DE(int)     intcor
     13.43     -15.40       1.80        0.00      65.82       1.48       0.53       1.44       ----

> <Gold.Chemscore.Fitness>
13.4297

> <Gold.Chemscore.DG>
-15.3971

> <Gold.Chemscore.ZeroCoef>
-5.4800

> <Gold.Chemscore.Hbond>
1.7954

> <Gold.Chemscore.Metal>
0.0000

> <Gold.Chemscore.Lipo>
65.8227

> <Gold.Chemscore.Internal_Hbond>
0.0000

> <Gold.Chemscore.DEClash>
0.5281

> <Gold.Chemscore.DEInternal>
1.4393

> <Gold.Chemscore.Rot>
1.4769

> <Gold.Chemscore.Internal.Correction>
   9.000000E+99

> <Gold.Chemscore.Hbonds>
donor molecule, donor type, donor heavy atom, donor atom, acceptor molecule, acceptor atom, score
      L1  H     5    15       P1  8028  0.88
      P1  H  7997  8010       L1    13  0.25

> <Gold.Chemscore.Hbond.Weighted>
-5.9967

> <Gold.Chemscore.Metal.Weighted>
-0.0000

> <Gold.Chemscore.Lipo.Weighted>
-7.7013

> <Gold.Chemscore.Internal_Hbond.Weighted>
0.0000

> <Gold.Chemscore.DEClash.Weighted>
0.5281

> <Gold.Chemscore.DEInternal.Weighted>
1.4393

> <Gold.Chemscore.Rot.Weighted>
3.7808

> <Gold.Chemscore.Internal.Correction.Weighted>
   9.000000E+99

> <Gold.Protein.RotatedTorsions>
[ 6907 6896 6895 6894 ] final   41.60 input  -60.11 | X-H torsion
[ 7974 7965 7964 7962 ] final  174.76 input  175.53 | X-H torsion
[ 8008 7997 7996 7995 ] final   78.58 input   59.86 | X-H torsion
[ 10167 10162 10161 10158 ] final  160.81 input  -65.29 | X-H torsion
[ 10718 10713 10712 10709 ] final   29.86 input   66.30 | X-H torsion
[ 10763 10752 10751 10750 ] final   86.49 input  -60.55 | X-H torsion
[ 11005 11000 10999 10996 ] final -176.67 input  -57.11 | X-H torsion

> <Gold.Protein.ActiveResidues>
 VAL166  LYS551  ARG553  GLY616  TRP617  ASP618  TYR619  PRO620  LYS621  CYS622 
 ASP623  PHE694  ASN695  SER759  ASP760  ASP761  ALA762  ILE779  LEU786  VAL792 
 PHE793  MET794  SER795  GLU796  ALA797  LYS798  CYS799  TRP800  GLU811  SER814 

> <Gold.Protein.RotatedAtoms>
  152.1973  134.8619  160.0511 H   0  0  0  0  0  0  0  0  0  0  0  0  # atno 6907 bound_to 6896
  151.9485  133.3654  159.3999 H   0  0  0  0  0  0  0  0  0  0  0  0  # atno 6908 bound_to 6896
  150.6947  134.4289  159.5283 H   0  0  0  0  0  0  0  0  0  0  0  0  # atno 6909 bound_to 6896
  144.7215  139.9844  143.6439 H   0  0  0  0  0  0  0  0  0  0  0  0  # atno 7974 bound_to 7965
  155.8577  140.3455  155.5735 H   0  0  0  0  0  0  0  0  0  0  0  0  # atno 8008 bound_to 7997
  155.7968  140.0879  157.1998 H   0  0  0  0  0  0  0  0  0  0  0  0  # atno 8009 bound_to 7997
  154.4010  140.1473  156.3215 H   0  0  0  0  0  0  0  0  0  0  0  0  # atno 8010 bound_to 7997
  139.4843  144.4598  151.8720 H   0  0  0  0  0  0  0  0  0  0  0  0  # atno 10167 bound_to 10162
  157.2521  130.7120  149.6410 H   0  0  0  0  0  0  0  0  0  0  0  0  # atno 10718 bound_to 10713
  153.1575  135.4578  154.9725 H   0  0  0  0  0  0  0  0  0  0  0  0  # atno 10763 bound_to 10752
  154.7872  135.3208  154.7861 H   0  0  0  0  0  0  0  0  0  0  0  0  # atno 10764 bound_to 10752
  153.8356  135.6934  153.4863 H   0  0  0  0  0  0  0  0  0  0  0  0  # atno 10765 bound_to 10752
  140.4495  134.6356  157.4795 H   0  0  0  0  0  0  0  0  0  0  0  0  # atno 11005 bound_to 11000
  146.0461  139.3467  143.0667 LP  0  0  0  0  0  0  0  0  0  0  0  0  # atno 17320 bound_to 7965
  145.8273  140.9648  143.0867 LP  0  0  0  0  0  0  0  0  0  0  0  0  # atno 17321 bound_to 7965
  140.4059  144.2432  150.5891 LP  0  0  0  0  0  0  0  0  0  0  0  0  # atno 17342 bound_to 10162
  140.5012  143.2317  151.8675 LP  0  0  0  0  0  0  0  0  0  0  0  0  # atno 17343 bound_to 10162
  155.9666  130.4424  150.5381 LP  0  0  0  0  0  0  0  0  0  0  0  0  # atno 17370 bound_to 10713
  157.3267  131.0692  151.1891 LP  0  0  0  0  0  0  0  0  0  0  0  0  # atno 17371 bound_to 10713
  140.0016  134.6828  155.9521 LP  0  0  0  0  0  0  0  0  0  0  0  0  # atno 17394 bound_to 11000
  141.1670  133.6537  156.4515 LP  0  0  0  0  0  0  0  0  0  0  0  0  # atno 17395 bound_to 11000

$$$$
