AV-unprocessed.smi:1942|AV-procd|sdf|7849|dock2
  -GOLD-   22720 9593D 1   1.00000     0.00000
 Structure written by MMmdl.
 35 37  0  0  0  0  0  0  0  0  1 V2000
  149.0057  138.0474  154.5968 O   0  0  0  0  0  0  0  0  0  0  0  0
  148.5909  139.1990  154.4656 C   0  0  0  0  0  0  0  0  0  0  0  0
  147.2267  139.4880  154.0079 C   0  0  0  0  0  0  0  0  0  0  0  0
  146.7791  140.7521  153.8728 C   0  0  0  0  0  0  0  0  0  0  0  0
  147.6426  141.8680  154.1791 C   0  0  0  0  0  0  0  0  0  0  0  0
  148.8921  141.6080  154.5954 C   0  0  0  0  0  0  0  0  0  0  0  0
  149.3701  140.2903  154.7397 N   0  0  0  0  0  0  0  0  0  0  0  0
  150.7585  140.1273  155.2022 C   0  0  0  0  0  0  0  0  0  0  0  0
  151.0660  141.0534  156.3550 C   0  0  0  0  0  0  0  0  0  0  0  0
  150.9237  142.3807  156.2820 N   0  0  0  0  0  0  0  0  0  0  0  0
  151.3135  142.8046  157.5360 C   0  0  0  0  0  0  0  0  0  0  0  0
  151.3766  144.1038  158.0877 C   0  0  0  0  0  0  0  0  0  0  0  0
  151.8173  144.2959  159.4137 C   0  0  0  0  0  0  0  0  0  0  0  0
  151.8874  145.8890  160.0720 Cl  0  0  0  0  0  0  0  0  0  0  0  0
  152.2019  143.1927  160.2037 C   0  0  0  0  0  0  0  0  0  0  0  0
  152.1472  141.8898  159.6721 C   0  0  0  0  0  0  0  0  0  0  0  0
  151.7045  141.7046  158.3485 C   0  0  0  0  0  0  0  0  0  0  0  0
  151.5366  140.5845  157.5404 N   0  0  0  0  0  0  0  0  0  0  0  0
  151.8271  139.2097  157.9266 C   0  0  0  0  0  0  0  0  0  0  0  0
  152.9953  139.1103  158.9217 C   0  0  0  0  0  0  0  0  0  0  0  0
  154.2345  139.3210  158.2788 O   0  0  0  0  0  0  0  0  0  0  0  0
  146.5664  138.6657  153.7745 H   0  0  0  0  0  0  0  0  0  0  0  0
  145.7692  140.9314  153.5345 H   0  0  0  0  0  0  0  0  0  0  0  0
  147.2919  142.8846  154.0786 H   0  0  0  0  0  0  0  0  0  0  0  0
  149.5982  142.3850  154.8503 H   0  0  0  0  0  0  0  0  0  0  0  0
  150.9216  139.0897  155.4939 H   0  0  0  0  0  0  0  0  0  0  0  0
  151.4696  140.3254  154.3992 H   0  0  0  0  0  0  0  0  0  0  0  0
  151.0846  144.9536  157.4885 H   0  0  0  0  0  0  0  0  0  0  0  0
  152.5393  143.3460  161.2183 H   0  0  0  0  0  0  0  0  0  0  0  0
  152.4407  141.0434  160.2748 H   0  0  0  0  0  0  0  0  0  0  0  0
  150.9317  138.7395  158.3325 H   0  0  0  0  0  0  0  0  0  0  0  0
  152.0714  138.6505  157.0229 H   0  0  0  0  0  0  0  0  0  0  0  0
  152.8794  139.8520  159.7122 H   0  0  0  0  0  0  0  0  0  0  0  0
  153.0083  138.1309  159.4007 H   0  0  0  0  0  0  0  0  0  0  0  0
  154.9166  139.3299  158.9331 H   0  0  0  0  0  0  0  0  0  0  0  0
  1  2  2  0  0  0  0
  2  7  1  0  0  0  0
  2  3  1  0  0  0  0
  3  4  2  0  0  0  0
  3 22  1  0  0  0  0
  4  5  1  0  0  0  0
  4 23  1  0  0  0  0
  5  6  2  0  0  0  0
  5 24  1  0  0  0  0
  6  7  1  0  0  0  0
  6 25  1  0  0  0  0
  7  8  1  0  0  0  0
  8  9  1  0  0  0  0
  8 26  1  0  0  0  0
  8 27  1  0  0  0  0
  9 18  1  0  0  0  0
  9 10  2  0  0  0  0
 10 11  1  0  0  0  0
 11 17  2  0  0  0  0
 11 12  1  0  0  0  0
 12 13  2  0  0  0  0
 12 28  1  0  0  0  0
 13 14  1  0  0  0  0
 13 15  1  0  0  0  0
 15 16  2  0  0  0  0
 15 29  1  0  0  0  0
 16 17  1  0  0  0  0
 16 30  1  0  0  0  0
 17 18  1  0  0  0  0
 18 19  1  0  0  0  0
 19 20  1  0  0  0  0
 19 31  1  0  0  0  0
 19 32  1  0  0  0  0
 20 21  1  0  0  0  0
 20 33  1  0  0  0  0
 20 34  1  0  0  0  0
 21 35  1  0  0  0  0
M  END
> <s_m_source_file>
AV-unprocessed.smi

> <i_m_source_file_index>
1942

> <i_lp_mmshare_version>
43012

> <i_f3d_flags>
0

> <s_epik_input>
Tz1jMVtjSF1bY0hdW2NIXVtjSF1uMVtDSDJdYyhuMiluKFtDSDJdW0NIMl1bT0hdKWMoYzIzKVtjSF1bY0hdYyhDbClbY0hdMw==

> <s_epik_cmdline>
J2VwaWtfcHl0aG9uJywgJy1waCcsICc3LjAnLCAnLXRuJywgJzgnLCAnLW1hJywgJzIwMCcsICctbWV0YWxfYmluZGluZycsICctaW1hZScsICc8aW5maWxlLm1hZT4nLCAnLW9tYWUnLCAnPG91dGZpbGUubWFlPic=

> <r_lp_tautomer_probability>
1

> <r_epik_Ionization_Penalty>
0.0394182

> <r_epik_Ionization_Penalty_Charging>
8.17328e-07

> <r_epik_Ionization_Penalty_Neutral>
0.0394174

> <r_epik_State_Penalty>
0.0331163

> <r_epik_Charging_Adjusted_Penalty>
0.0331171

> <i_epik_Tot_Q>
0

> <i_epik_Tot_abs_Q>
0

> <r_epik_Metal_State_Penalty>
3.40583e-05

> <b_epik_Metal_Only>
0

> <s_lp_Force_Field>
OPLS_2005

> <r_lp_Energy>
18.6161

> <b_lp_Chiralities_Consistent>
1

> <s_lp_Variant>
AV-unprocessed.smi:1942-1

> <Gold.Version>
5.8.1

> <Gold.Id.Protein>
6NUR|6NUR_protein|mol2

> <Gold.PLP.Fitness>
50.6945

> <Gold.PLP.PLP>
-46.5196

> <Gold.PLP.part.hbond>
-0.7936

> <Gold.PLP.part.metal>
0.0000

> <Gold.PLP.part.buried>
-0.8643

> <Gold.PLP.part.nonpolar>
-43.8018

> <Gold.PLP.part.repulsive>
0.3037

> <Gold.PLP.ligand.clash>
0.0000

> <Gold.PLP.ligand.torsion>
0.6362

> <Gold.PLP.Chemscore.Hbond>
1.0000

> <Gold.PLP.Chemscore.CHOScore>
0.8127

> <Gold.PLP.Chemscore.Metal>
0.0000

> <Gold.Chemscore.Hbonds>
donor molecule, donor type, donor heavy atom, donor atom, acceptor molecule, acceptor atom, score
      P1  H  7997  8009       L1    21  0.86
      L1  C     6    25       P1  8028  0.79

> <Gold.PLP.Chemscore.Internal.Correction>
0.0092

> <Gold.Rescore>
     Score         DG    S(hbond)    S(metal)    S(lipo)     H(rot)  DE(clash)    DE(int)     intcor
     13.59     -16.36       0.85        0.00     118.34       2.27       0.15       2.62       ----

> <Gold.Chemscore.Fitness>
13.5931

> <Gold.Chemscore.DG>
-16.3570

> <Gold.Chemscore.ZeroCoef>
-5.4800

> <Gold.Chemscore.Hbond>
0.8548

> <Gold.Chemscore.Metal>
0.0000

> <Gold.Chemscore.Lipo>
118.3403

> <Gold.Chemscore.Internal_Hbond>
0.0000

> <Gold.Chemscore.DEClash>
0.1488

> <Gold.Chemscore.DEInternal>
2.6151

> <Gold.Chemscore.Rot>
2.2750

> <Gold.Chemscore.Internal.Correction>
   9.000000E+99

> <Gold.Chemscore.Hbonds>
donor molecule, donor type, donor heavy atom, donor atom, acceptor molecule, acceptor atom, score
      P1  H  7997  8009       L1    21  0.68

> <Gold.Chemscore.Hbond.Weighted>
-2.8551

> <Gold.Chemscore.Metal.Weighted>
-0.0000

> <Gold.Chemscore.Lipo.Weighted>
-13.8458

> <Gold.Chemscore.Internal_Hbond.Weighted>
0.0000

> <Gold.Chemscore.DEClash.Weighted>
0.1488

> <Gold.Chemscore.DEInternal.Weighted>
2.6151

> <Gold.Chemscore.Rot.Weighted>
5.8240

> <Gold.Chemscore.Internal.Correction.Weighted>
   9.000000E+99

> <Gold.Protein.RotatedTorsions>
[ 6907 6896 6895 6894 ] final   99.65 input  -60.11 | X-H torsion
[ 7974 7965 7964 7962 ] final   77.16 input  175.53 | X-H torsion
[ 8008 7997 7996 7995 ] final  155.35 input   59.86 | X-H torsion
[ 10167 10162 10161 10158 ] final -117.47 input  -65.29 | X-H torsion
[ 10718 10713 10712 10709 ] final   26.43 input   66.30 | X-H torsion
[ 10763 10752 10751 10750 ] final  137.64 input  -60.55 | X-H torsion
[ 11005 11000 10999 10996 ] final   81.66 input  -57.11 | X-H torsion

> <Gold.Protein.ActiveResidues>
 VAL166  LYS551  ARG553  GLY616  TRP617  ASP618  TYR619  PRO620  LYS621  CYS622 
 ASP623  PHE694  ASN695  SER759  ASP760  ASP761  ALA762  ILE779  LEU786  VAL792 
 PHE793  MET794  SER795  GLU796  ALA797  LYS798  CYS799  TRP800  GLU811  SER814 

> <Gold.Protein.RotatedAtoms>
  152.5388  134.0396  159.8061 H   0  0  0  0  0  0  0  0  0  0  0  0  # atno 6907 bound_to 6896
  151.0554  133.5581  159.2646 H   0  0  0  0  0  0  0  0  0  0  0  0  # atno 6908 bound_to 6896
  151.2500  135.0626  159.9112 H   0  0  0  0  0  0  0  0  0  0  0  0  # atno 6909 bound_to 6896
  145.6936  139.2560  143.1745 H   0  0  0  0  0  0  0  0  0  0  0  0  # atno 7974 bound_to 7965
  156.2483  140.1942  156.6787 H   0  0  0  0  0  0  0  0  0  0  0  0  # atno 8008 bound_to 7997
  154.6338  140.0592  156.9790 H   0  0  0  0  0  0  0  0  0  0  0  0  # atno 8009 bound_to 7997
  155.1669  140.3265  155.4403 H   0  0  0  0  0  0  0  0  0  0  0  0  # atno 8010 bound_to 7997
  140.0680  143.4904  152.1995 H   0  0  0  0  0  0  0  0  0  0  0  0  # atno 10167 bound_to 10162
  157.2068  130.6915  149.6211 H   0  0  0  0  0  0  0  0  0  0  0  0  # atno 10718 bound_to 10713
  153.8764  135.3049  155.3444 H   0  0  0  0  0  0  0  0  0  0  0  0  # atno 10763 bound_to 10752
  154.7782  135.4850  153.9791 H   0  0  0  0  0  0  0  0  0  0  0  0  # atno 10764 bound_to 10752
  153.1376  135.6817  153.9174 H   0  0  0  0  0  0  0  0  0  0  0  0  # atno 10765 bound_to 10752
  139.9090  134.8013  156.2071 H   0  0  0  0  0  0  0  0  0  0  0  0  # atno 11005 bound_to 11000
  146.0860  140.7710  142.9618 LP  0  0  0  0  0  0  0  0  0  0  0  0  # atno 17320 bound_to 7965
  144.6989  140.3563  143.7172 LP  0  0  0  0  0  0  0  0  0  0  0  0  # atno 17321 bound_to 7965
  139.5853  144.7528  151.3535 LP  0  0  0  0  0  0  0  0  0  0  0  0  # atno 17342 bound_to 10162
  140.7140  143.7317  150.7619 LP  0  0  0  0  0  0  0  0  0  0  0  0  # atno 17343 bound_to 10162
  155.9694  130.4564  150.5925 LP  0  0  0  0  0  0  0  0  0  0  0  0  # atno 17370 bound_to 10713
  157.3712  131.0766  151.1556 LP  0  0  0  0  0  0  0  0  0  0  0  0  # atno 17371 bound_to 10713
  141.0488  133.6899  156.1733 LP  0  0  0  0  0  0  0  0  0  0  0  0  # atno 17394 bound_to 11000
  140.6842  134.4735  157.5589 LP  0  0  0  0  0  0  0  0  0  0  0  0  # atno 17395 bound_to 11000

$$$$
