AV-unprocessed.smi:1982|AV-procd|sdf|8022|dock10
  -GOLD-   2272010213D 1   1.00000     0.00000
 Structure written by MMmdl.
 36 37  0  0  0  0  0  0  0  0  1 V2000
  152.7606  142.5833  161.5183 C   0  0  0  0  0  0  0  0  0  0  0  0
  152.7696  142.8128  159.9956 C   0  0  2  0  0  0  0  0  0  0  0  0
  152.2972  144.2484  159.6888 C   0  0  0  0  0  0  0  0  0  0  0  0
  152.3142  144.5468  158.1857 C   0  0  0  0  0  0  0  0  0  0  0  0
  151.4439  143.5406  157.4271 C   0  0  0  0  0  0  0  0  0  0  0  0
  151.8967  142.0941  157.6979 C   0  0  2  0  0  0  0  0  0  0  0  0
  151.0045  141.1726  156.9997 N   0  0  0  0  0  0  0  0  0  0  0  0
  151.3459  140.3668  155.9820 C   0  0  0  0  0  0  0  0  0  0  0  0
  152.4570  140.3704  155.4537 O   0  0  0  0  0  0  0  0  0  0  0  0
  150.2685  139.3985  155.4902 C   0  0  0  0  0  0  0  0  0  0  0  0
  150.7101  138.0202  155.6115 N   0  0  0  0  0  0  0  0  0  0  0  0
  150.8510  137.0598  154.6954 C   0  0  0  0  0  0  0  0  0  0  0  0
  151.3105  135.9386  155.2295 N   0  0  0  0  0  0  0  0  0  0  0  0
  151.4497  136.2619  156.5687 N   0  0  0  0  0  0  0  0  0  0  0  0
  151.0946  137.4954  156.8016 N   0  0  0  0  0  0  0  0  0  0  0  0
  151.9243  141.7660  159.2155 C   0  0  1  0  0  0  0  0  0  0  0  0
  152.4170  140.3219  159.4606 C   0  0  0  0  0  0  0  0  0  0  0  0
  151.7435  142.5635  161.9110 H   0  0  0  0  0  0  0  0  0  0  0  0
  153.2989  143.3772  162.0369 H   0  0  0  0  0  0  0  0  0  0  0  0
  153.2460  141.6476  161.7927 H   0  0  0  0  0  0  0  0  0  0  0  0
  153.8041  142.7291  159.6588 H   0  0  0  0  0  0  0  0  0  0  0  0
  151.2886  144.3964  160.0772 H   0  0  0  0  0  0  0  0  0  0  0  0
  152.9331  144.9692  160.2042 H   0  0  0  0  0  0  0  0  0  0  0  0
  151.9565  145.5604  158.0029 H   0  0  0  0  0  0  0  0  0  0  0  0
  153.3381  144.5058  157.8120 H   0  0  0  0  0  0  0  0  0  0  0  0
  150.4016  143.6656  157.7245 H   0  0  0  0  0  0  0  0  0  0  0  0
  151.4880  143.7543  156.3583 H   0  0  0  0  0  0  0  0  0  0  0  0
  152.9116  141.9741  157.3130 H   0  0  0  0  0  0  0  0  0  0  0  0
  150.0628  141.1018  157.3581 H   0  0  0  0  0  0  0  0  0  0  0  0
  149.3522  139.5426  156.0648 H   0  0  0  0  0  0  0  0  0  0  0  0
  150.0315  139.5977  154.4444 H   0  0  0  0  0  0  0  0  0  0  0  0
  150.6291  137.1846  153.6458 H   0  0  0  0  0  0  0  0  0  0  0  0
  150.8995  141.8275  159.5860 H   0  0  0  0  0  0  0  0  0  0  0  0
  153.4565  140.2027  159.1538 H   0  0  0  0  0  0  0  0  0  0  0  0
  151.8264  139.5891  158.9107 H   0  0  0  0  0  0  0  0  0  0  0  0
  152.3439  140.0403  160.5102 H   0  0  0  0  0  0  0  0  0  0  0  0
  1  2  1  0  0  0  0
  1 18  1  0  0  0  0
  1 19  1  0  0  0  0
  1 20  1  0  0  0  0
  2 16  1  0  0  0  0
  2  3  1  0  0  0  0
  2 21  1  0  0  0  0
  3  4  1  0  0  0  0
  3 22  1  0  0  0  0
  3 23  1  0  0  0  0
  4  5  1  0  0  0  0
  4 24  1  0  0  0  0
  4 25  1  0  0  0  0
  5  6  1  0  0  0  0
  5 26  1  0  0  0  0
  5 27  1  0  0  0  0
  6  7  1  0  0  0  0
  6 16  1  0  0  0  0
  6 28  1  0  0  0  0
  7  8  1  0  0  0  0
  7 29  1  0  0  0  0
  8  9  2  0  0  0  0
  8 10  1  0  0  0  0
 10 11  1  0  0  0  0
 10 30  1  0  0  0  0
 10 31  1  0  0  0  0
 11 15  1  0  0  0  0
 11 12  1  0  0  0  0
 12 13  2  0  0  0  0
 12 32  1  0  0  0  0
 13 14  1  0  0  0  0
 14 15  2  0  0  0  0
 16 17  1  0  0  0  0
 16 33  1  0  0  0  0
 17 34  1  0  0  0  0
 17 35  1  0  0  0  0
 17 36  1  0  0  0  0
M  END
> <s_m_source_file>
AV-unprocessed.smi

> <i_m_source_file_index>
1982

> <i_lp_mmshare_version>
43012

> <i_f3d_flags>
0

> <s_epik_input>
W0NIM11bQ0BASF0xW0NIMl1bQ0gyXVtDSDJdW0NASF0oW0NASF0xW0NIM10pW05IXUMoPU8pW0NIMl1uMltjSF1ubm4y

> <s_epik_cmdline>
J2VwaWtfcHl0aG9uJywgJy1waCcsICc3LjAnLCAnLXRuJywgJzgnLCAnLW1hJywgJzIwMCcsICctbWV0YWxfYmluZGluZycsICctaW1hZScsICc8aW5maWxlLm1hZT4nLCAnLW9tYWUnLCAnPG91dGZpbGUubWFlPic=

> <r_lp_tautomer_probability>
1

> <r_epik_Ionization_Penalty>
5.03816e-07

> <r_epik_Ionization_Penalty_Charging>
0

> <r_epik_Ionization_Penalty_Neutral>
5.03816e-07

> <r_epik_State_Penalty>
-0

> <r_epik_Charging_Adjusted_Penalty>
0

> <i_epik_Tot_Q>
0

> <i_epik_Tot_abs_Q>
0

> <r_epik_Metal_State_Penalty>
-0

> <b_epik_Metal_Only>
0

> <s_lp_Force_Field>
OPLS_2005

> <r_lp_Energy>
13.7929

> <b_lp_Chiralities_Consistent>
1

> <s_lp_Variant>
AV-unprocessed.smi:1982-3

> <Gold.Version>
5.8.1

> <Gold.Id.Protein>
6NUR|6NUR_protein|mol2

> <Gold.PLP.Fitness>
43.6950

> <Gold.PLP.PLP>
-33.4631

> <Gold.PLP.part.hbond>
-3.0000

> <Gold.PLP.part.metal>
0.0000

> <Gold.PLP.part.buried>
-1.7494

> <Gold.PLP.part.nonpolar>
-29.0852

> <Gold.PLP.part.repulsive>
0.1882

> <Gold.PLP.ligand.clash>
0.0000

> <Gold.PLP.ligand.torsion>
0.0253

> <Gold.PLP.Chemscore.Hbond>
2.2555

> <Gold.PLP.Chemscore.CHOScore>
1.1694

> <Gold.PLP.Chemscore.Metal>
0.0000

> <Gold.Chemscore.Hbonds>
donor molecule, donor type, donor heavy atom, donor atom, acceptor molecule, acceptor atom, score
      P1  H  7989  7998       L1     9  0.25
      P1  H  7997  8010       L1     9  1.00
      P1  H 10752 10764       L1    13  1.00
      L1  C    12    32       P1  7948  0.49
      L1  C    12    32       P1  7949  0.66

> <Gold.PLP.Chemscore.Internal.Correction>
0.0077

> <Gold.Rescore>
     Score         DG    S(hbond)    S(metal)    S(lipo)     H(rot)  DE(clash)    DE(int)     intcor
     15.73     -17.20       1.76        0.00      91.56       1.91       1.39       0.08       ----

> <Gold.Chemscore.Fitness>
15.7320

> <Gold.Chemscore.DG>
-17.1990

> <Gold.Chemscore.ZeroCoef>
-5.4800

> <Gold.Chemscore.Hbond>
1.7619

> <Gold.Chemscore.Metal>
0.0000

> <Gold.Chemscore.Lipo>
91.5635

> <Gold.Chemscore.Internal_Hbond>
0.0000

> <Gold.Chemscore.DEClash>
1.3876

> <Gold.Chemscore.DEInternal>
0.0794

> <Gold.Chemscore.Rot>
1.9058

> <Gold.Chemscore.Internal.Correction>
   9.000000E+99

> <Gold.Chemscore.Hbonds>
donor molecule, donor type, donor heavy atom, donor atom, acceptor molecule, acceptor atom, score
      P1  H  7989  7998       L1     9  0.03
      P1  H  7997  8010       L1     9  0.93
      P1  H 10752 10764       L1    13  0.48

> <Gold.Chemscore.Hbond.Weighted>
-5.8849

> <Gold.Chemscore.Metal.Weighted>
-0.0000

> <Gold.Chemscore.Lipo.Weighted>
-10.7129

> <Gold.Chemscore.Internal_Hbond.Weighted>
0.0000

> <Gold.Chemscore.DEClash.Weighted>
1.3876

> <Gold.Chemscore.DEInternal.Weighted>
0.0794

> <Gold.Chemscore.Rot.Weighted>
4.8788

> <Gold.Chemscore.Internal.Correction.Weighted>
   9.000000E+99

> <Gold.Protein.RotatedTorsions>
[ 6907 6896 6895 6894 ] final  117.13 input  -60.11 | X-H torsion
[ 7974 7965 7964 7962 ] final   97.14 input  175.53 | X-H torsion
[ 8008 7997 7996 7995 ] final   94.26 input   59.86 | X-H torsion
[ 10167 10162 10161 10158 ] final  143.09 input  -65.29 | X-H torsion
[ 10718 10713 10712 10709 ] final  -45.15 input   66.30 | X-H torsion
[ 10763 10752 10751 10750 ] final  -69.90 input  -60.55 | X-H torsion
[ 11005 11000 10999 10996 ] final  -74.98 input  -57.11 | X-H torsion

> <Gold.Protein.ActiveResidues>
 VAL166  LYS551  ARG553  GLY616  TRP617  ASP618  TYR619  PRO620  LYS621  CYS622 
 ASP623  PHE694  ASN695  SER759  ASP760  ASP761  ALA762  ILE779  LEU786  VAL792 
 PHE793  MET794  SER795  GLU796  ALA797  LYS798  CYS799  TRP800  GLU811  SER814 

> <Gold.Protein.RotatedAtoms>
  152.4633  133.7868  159.6879 H   0  0  0  0  0  0  0  0  0  0  0  0  # atno 6907 bound_to 6896
  150.8586  133.7668  159.3006 H   0  0  0  0  0  0  0  0  0  0  0  0  # atno 6908 bound_to 6896
  151.5241  135.1070  159.9938 H   0  0  0  0  0  0  0  0  0  0  0  0  # atno 6909 bound_to 6896
  145.4295  139.2312  143.3152 H   0  0  0  0  0  0  0  0  0  0  0  0  # atno 7974 bound_to 7965
  156.0560  140.3302  155.7406 H   0  0  0  0  0  0  0  0  0  0  0  0  # atno 8008 bound_to 7997
  155.5528  140.0612  157.2863 H   0  0  0  0  0  0  0  0  0  0  0  0  # atno 8009 bound_to 7997
  154.4458  140.1891  156.0692 H   0  0  0  0  0  0  0  0  0  0  0  0  # atno 8010 bound_to 7997
  139.4978  144.6064  151.6369 H   0  0  0  0  0  0  0  0  0  0  0  0  # atno 10167 bound_to 10162
  156.2312  130.4173  149.8872 H   0  0  0  0  0  0  0  0  0  0  0  0  # atno 10718 bound_to 10713
  154.4101  135.6011  153.5947 H   0  0  0  0  0  0  0  0  0  0  0  0  # atno 10763 bound_to 10752
  152.9790  135.5927  154.4081 H   0  0  0  0  0  0  0  0  0  0  0  0  # atno 10764 bound_to 10752
  154.3892  135.2842  155.2143 H   0  0  0  0  0  0  0  0  0  0  0  0  # atno 10765 bound_to 10752
  141.1641  133.6930  156.7447 H   0  0  0  0  0  0  0  0  0  0  0  0  # atno 11005 bound_to 11000
  146.2614  140.5030  142.8852 LP  0  0  0  0  0  0  0  0  0  0  0  0  # atno 17320 bound_to 7965
  144.8192  140.6521  143.6364 LP  0  0  0  0  0  0  0  0  0  0  0  0  # atno 17321 bound_to 7965
  140.5727  144.0082  150.6225 LP  0  0  0  0  0  0  0  0  0  0  0  0  # atno 17342 bound_to 10162
  140.3205  143.3140  152.0789 LP  0  0  0  0  0  0  0  0  0  0  0  0  # atno 17343 bound_to 10162
  156.6486  130.8734  151.3527 LP  0  0  0  0  0  0  0  0  0  0  0  0  # atno 17370 bound_to 10713
  157.7134  130.9467  150.1168 LP  0  0  0  0  0  0  0  0  0  0  0  0  # atno 17371 bound_to 10713
  140.2648  134.8438  157.3793 LP  0  0  0  0  0  0  0  0  0  0  0  0  # atno 17394 bound_to 11000
  140.1576  134.4769  155.7917 LP  0  0  0  0  0  0  0  0  0  0  0  0  # atno 17395 bound_to 11000

$$$$
