AV-unprocessed.smi:2424|AV-procd|sdf|9562|dock3
  -GOLD-   2272013193D 1   1.00000     0.00000
 Structure written by MMmdl.
 50 51  0  0  0  0  0  0  0  0  1 V2000
  147.0522  138.4630  157.6299 C   0  0  0  0  0  0  0  0  0  0  0  0
  147.9836  139.2363  156.6793 C   0  0  0  0  0  0  0  0  0  0  0  0
  148.1775  138.6278  155.2591 C   0  0  0  0  0  0  0  0  0  0  0  0
  148.9996  137.3250  155.4032 C   0  0  0  0  0  0  0  0  0  0  0  0
  148.2785  136.1557  156.0900 C   0  0  0  0  0  0  0  0  0  0  0  0
  146.9149  138.6062  154.3422 C   0  0  2  0  0  0  0  0  0  0  0  0
  146.9737  137.5754  153.3011 N   0  0  0  0  0  0  0  0  0  0  0  0
  145.9452  136.8127  152.9080 C   0  0  0  0  0  0  0  0  0  0  0  0
  144.8158  136.8999  153.3886 O   0  0  0  0  0  0  0  0  0  0  0  0
  146.3266  135.9673  151.9326 N   0  0  0  0  0  0  0  0  0  0  0  0
  145.5768  134.9939  151.2566 C   0  0  0  0  0  0  0  0  0  0  0  0
  144.4544  135.2234  150.5419 C   0  0  0  0  0  0  0  0  0  0  0  0
  143.7743  134.1815  149.9057 N   0  0  0  0  0  0  0  0  0  0  0  0
  144.1566  132.8847  149.9435 C   0  0  0  0  0  0  0  0  0  0  0  0
  143.5026  132.0240  149.3574 O   0  0  0  0  0  0  0  0  0  0  0  0
  145.3768  132.6082  150.7182 C   0  0  0  0  0  0  0  0  0  0  0  0
  145.8662  131.1734  150.7978 C   0  0  0  0  0  0  0  0  0  0  0  0
  146.0331  133.6188  151.3325 C   0  0  0  0  0  0  0  0  0  0  0  0
  147.3203  139.9917  153.8038 C   0  0  2  0  0  0  0  0  0  0  0  0
  147.0005  140.3848  152.3634 C   0  0  0  0  0  0  0  0  0  0  0  0
  148.7546  139.6110  154.2039 C   0  0  1  0  0  0  0  0  0  0  0  0
  149.5403  140.6530  154.7646 O   0  0  0  0  0  0  0  0  0  0  0  0
  150.7538  140.1945  155.3333 C   0  0  0  0  0  0  0  0  0  0  0  0
  142.9441  134.4274  149.3864 H   0  0  0  0  0  0  0  0  0  0  0  0
  147.1314  138.8580  158.6428 H   0  0  0  0  0  0  0  0  0  0  0  0
  147.2828  137.4003  157.6733 H   0  0  0  0  0  0  0  0  0  0  0  0
  146.0083  138.5655  157.3342 H   0  0  0  0  0  0  0  0  0  0  0  0
  147.5830  140.2477  156.6162 H   0  0  0  0  0  0  0  0  0  0  0  0
  148.9483  139.3594  157.1725 H   0  0  0  0  0  0  0  0  0  0  0  0
  149.3200  136.9792  154.4200 H   0  0  0  0  0  0  0  0  0  0  0  0
  149.9317  137.5244  155.9332 H   0  0  0  0  0  0  0  0  0  0  0  0
  148.8634  135.2404  155.9974 H   0  0  0  0  0  0  0  0  0  0  0  0
  147.3005  135.9679  155.6469 H   0  0  0  0  0  0  0  0  0  0  0  0
  148.1441  136.3387  157.1552 H   0  0  0  0  0  0  0  0  0  0  0  0
  145.9648  138.6302  154.8738 H   0  0  0  0  0  0  0  0  0  0  0  0
  147.8667  137.4357  152.8524 H   0  0  0  0  0  0  0  0  0  0  0  0
  147.2885  136.0377  151.6355 H   0  0  0  0  0  0  0  0  0  0  0  0
  143.9790  136.1798  150.3925 H   0  0  0  0  0  0  0  0  0  0  0  0
  146.7673  131.0934  151.4065 H   0  0  0  0  0  0  0  0  0  0  0  0
  146.0979  130.7955  149.8014 H   0  0  0  0  0  0  0  0  0  0  0  0
  145.1022  130.5332  151.2401 H   0  0  0  0  0  0  0  0  0  0  0  0
  146.9282  133.3979  151.8959 H   0  0  0  0  0  0  0  0  0  0  0  0
  146.9405  140.7499  154.4913 H   0  0  0  0  0  0  0  0  0  0  0  0
  147.5361  139.7627  151.6462 H   0  0  0  0  0  0  0  0  0  0  0  0
  147.2729  141.4209  152.1650 H   0  0  0  0  0  0  0  0  0  0  0  0
  145.9349  140.2835  152.1573 H   0  0  0  0  0  0  0  0  0  0  0  0
  149.2826  139.0880  153.4030 H   0  0  0  0  0  0  0  0  0  0  0  0
  151.2839  141.0329  155.7848 H   0  0  0  0  0  0  0  0  0  0  0  0
  151.4060  139.7560  154.5786 H   0  0  0  0  0  0  0  0  0  0  0  0
  150.5705  139.4538  156.1128 H   0  0  0  0  0  0  0  0  0  0  0  0
  1  2  1  0  0  0  0
  1 25  1  0  0  0  0
  1 26  1  0  0  0  0
  1 27  1  0  0  0  0
  2  3  1  0  0  0  0
  2 28  1  0  0  0  0
  2 29  1  0  0  0  0
  3 21  1  0  0  0  0
  3  4  1  0  0  0  0
  3  6  1  0  0  0  0
  4  5  1  0  0  0  0
  4 30  1  0  0  0  0
  4 31  1  0  0  0  0
  5 32  1  0  0  0  0
  5 33  1  0  0  0  0
  5 34  1  0  0  0  0
  6  7  1  0  0  0  0
  6 19  1  0  0  0  0
  6 35  1  0  0  0  0
  7  8  1  0  0  0  0
  7 36  1  0  0  0  0
  8  9  2  0  0  0  0
  8 10  1  0  0  0  0
 10 11  1  0  0  0  0
 10 37  1  0  0  0  0
 11 18  1  0  0  0  0
 11 12  2  0  0  0  0
 12 13  1  0  0  0  0
 12 38  1  0  0  0  0
 13 24  1  0  0  0  0
 13 14  1  0  0  0  0
 14 15  2  0  0  0  0
 14 16  1  0  0  0  0
 16 17  1  0  0  0  0
 16 18  2  0  0  0  0
 17 39  1  0  0  0  0
 17 40  1  0  0  0  0
 17 41  1  0  0  0  0
 18 42  1  0  0  0  0
 19 20  1  0  0  0  0
 19 21  1  0  0  0  0
 19 43  1  0  0  0  0
 20 44  1  0  0  0  0
 20 45  1  0  0  0  0
 20 46  1  0  0  0  0
 21 22  1  0  0  0  0
 21 47  1  0  0  0  0
 22 23  1  0  0  0  0
 23 48  1  0  0  0  0
 23 49  1  0  0  0  0
 23 50  1  0  0  0  0
M  END
> <s_m_source_file>
AV-unprocessed.smi

> <i_m_source_file_index>
2424

> <i_lp_mmshare_version>
43012

> <i_f3d_flags>
0

> <s_epik_input>
W0NIM11PW0NAQEhdMVtDQEhdKFtDSDNdKVtDQEBIXShDMShbQ0gyXVtDSDNdKVtDSDJdW0NIM10pW05IXUMoPU8pW05IXWMyW2NIXVtuSF1jKD1PKWMoW0NIM10pW2NIXTI=

> <s_epik_cmdline>
J2VwaWtfcHl0aG9uJywgJy1waCcsICc3LjAnLCAnLXRuJywgJzgnLCAnLW1hJywgJzIwMCcsICctbWV0YWxfYmluZGluZycsICctaW1hZScsICc8aW5maWxlLm1hZT4nLCAnLW9tYWUnLCAnPG91dGZpbGUubWFlPic=

> <r_lp_tautomer_probability>
1

> <r_epik_Ionization_Penalty>
4.7326e-05

> <r_epik_Ionization_Penalty_Charging>
2.70169e-05

> <r_epik_Ionization_Penalty_Neutral>
2.0309e-05

> <r_epik_State_Penalty>
-0

> <r_epik_Charging_Adjusted_Penalty>
2.70169e-05

> <i_epik_Tot_Q>
0

> <i_epik_Tot_abs_Q>
0

> <r_epik_Metal_State_Penalty>
0.0198736

> <b_epik_Metal_Only>
0

> <s_lp_Force_Field>
OPLS_2005

> <r_lp_Energy>
37.9094

> <b_lp_Chiralities_Consistent>
1

> <s_lp_Variant>
AV-unprocessed.smi:2424-4

> <Gold.Version>
5.8.1

> <Gold.Id.Protein>
6NUR|6NUR_protein|mol2

> <Gold.PLP.Fitness>
44.0721

> <Gold.PLP.PLP>
-31.2309

> <Gold.PLP.part.hbond>
-4.2747

> <Gold.PLP.part.metal>
0.0000

> <Gold.PLP.part.buried>
-3.3862

> <Gold.PLP.part.nonpolar>
-24.6850

> <Gold.PLP.part.repulsive>
0.6300

> <Gold.PLP.ligand.clash>
0.0000

> <Gold.PLP.ligand.torsion>
0.9428

> <Gold.PLP.Chemscore.Hbond>
3.7040

> <Gold.PLP.Chemscore.CHOScore>
1.0000

> <Gold.PLP.Chemscore.Metal>
0.0000

> <Gold.Chemscore.Hbonds>
donor molecule, donor type, donor heavy atom, donor atom, acceptor molecule, acceptor atom, score
      L1  H     7    36       P1  7948  0.93
      L1  H    10    37       P1  7948  1.00
      L1  H    13    24       P1 10186  0.83
      P1  H 10785 10796       L1    15  0.99
      L1  C    12    38       P1 10171  1.00

> <Gold.PLP.Chemscore.Internal.Correction>
0.6147

> <Gold.Rescore>
     Score         DG    S(hbond)    S(metal)    S(lipo)     H(rot)  DE(clash)    DE(int)     intcor
     20.09     -22.57       3.80        0.00      71.42       1.55       1.50       0.98       ----

> <Gold.Chemscore.Fitness>
20.0907

> <Gold.Chemscore.DG>
-22.5651

> <Gold.Chemscore.ZeroCoef>
-5.4800

> <Gold.Chemscore.Hbond>
3.8017

> <Gold.Chemscore.Metal>
0.0000

> <Gold.Chemscore.Lipo>
71.4176

> <Gold.Chemscore.Internal_Hbond>
0.0000

> <Gold.Chemscore.DEClash>
1.4990

> <Gold.Chemscore.DEInternal>
0.9754

> <Gold.Chemscore.Rot>
1.5502

> <Gold.Chemscore.Internal.Correction>
   9.000000E+99

> <Gold.Chemscore.Hbonds>
donor molecule, donor type, donor heavy atom, donor atom, acceptor molecule, acceptor atom, score
      L1  H     7    36       P1  7948  0.89
      L1  H    10    37       P1  7948  0.99
      L1  H    13    24       P1 10186  0.82
      P1  H 10785 10796       L1    15  0.90

> <Gold.Chemscore.Hbond.Weighted>
-12.6977

> <Gold.Chemscore.Metal.Weighted>
-0.0000

> <Gold.Chemscore.Lipo.Weighted>
-8.3559

> <Gold.Chemscore.Internal_Hbond.Weighted>
0.0000

> <Gold.Chemscore.DEClash.Weighted>
1.4990

> <Gold.Chemscore.DEInternal.Weighted>
0.9754

> <Gold.Chemscore.Rot.Weighted>
3.9685

> <Gold.Chemscore.Internal.Correction.Weighted>
   9.000000E+99

> <Gold.Protein.RotatedTorsions>
[ 6907 6896 6895 6894 ] final   72.40 input  -60.11 | X-H torsion
[ 7974 7965 7964 7962 ] final  -94.64 input  175.53 | X-H torsion
[ 8008 7997 7996 7995 ] final  147.16 input   59.86 | X-H torsion
[ 10167 10162 10161 10158 ] final  -50.54 input  -65.29 | X-H torsion
[ 10718 10713 10712 10709 ] final  -92.43 input   66.30 | X-H torsion
[ 10763 10752 10751 10750 ] final  177.62 input  -60.55 | X-H torsion
[ 11005 11000 10999 10996 ] final  131.56 input  -57.11 | X-H torsion

> <Gold.Protein.ActiveResidues>
 VAL166  LYS551  ARG553  GLY616  TRP617  ASP618  TYR619  PRO620  LYS621  CYS622 
 ASP623  PHE694  ASN695  SER759  ASP760  ASP761  ALA762  ILE779  LEU786  VAL792 
 PHE793  MET794  SER795  GLU796  ALA797  LYS798  CYS799  TRP800  GLU811  SER814 

> <Gold.Protein.RotatedAtoms>
  152.4866  134.4577  159.9594 H   0  0  0  0  0  0  0  0  0  0  0  0  # atno 6907 bound_to 6896
  151.4572  133.3596  159.2811 H   0  0  0  0  0  0  0  0  0  0  0  0  # atno 6908 bound_to 6896
  150.8981  134.8416  159.7401 H   0  0  0  0  0  0  0  0  0  0  0  0  # atno 6909 bound_to 6896
  145.3706  140.9505  143.2449 H   0  0  0  0  0  0  0  0  0  0  0  0  # atno 7974 bound_to 7965
  156.2833  140.2163  156.5493 H   0  0  0  0  0  0  0  0  0  0  0  0  # atno 8008 bound_to 7997
  154.7304  140.0496  157.0744 H   0  0  0  0  0  0  0  0  0  0  0  0  # atno 8009 bound_to 7997
  155.0361  140.3140  155.4744 H   0  0  0  0  0  0  0  0  0  0  0  0  # atno 8010 bound_to 7997
  140.6632  143.2654  151.4374 H   0  0  0  0  0  0  0  0  0  0  0  0  # atno 10167 bound_to 10162
  156.0002  130.4987  150.5624 H   0  0  0  0  0  0  0  0  0  0  0  0  # atno 10718 bound_to 10713
  154.4969  135.2781  155.1452 H   0  0  0  0  0  0  0  0  0  0  0  0  # atno 10763 bound_to 10752
  154.3101  135.6231  153.5465 H   0  0  0  0  0  0  0  0  0  0  0  0  # atno 10764 bound_to 10752
  152.9896  135.5717  154.5403 H   0  0  0  0  0  0  0  0  0  0  0  0  # atno 10765 bound_to 10752
  139.9738  134.9570  156.9456 H   0  0  0  0  0  0  0  0  0  0  0  0  # atno 11005 bound_to 11000
  144.8579  139.5222  143.6826 LP  0  0  0  0  0  0  0  0  0  0  0  0  # atno 17320 bound_to 7965
  146.2887  139.7076  142.9177 LP  0  0  0  0  0  0  0  0  0  0  0  0  # atno 17321 bound_to 7965
  139.5873  144.1577  152.2044 LP  0  0  0  0  0  0  0  0  0  0  0  0  # atno 17342 bound_to 10162
  140.0920  144.5612  150.7048 LP  0  0  0  0  0  0  0  0  0  0  0  0  # atno 17343 bound_to 10162
  157.3531  131.0737  151.1697 LP  0  0  0  0  0  0  0  0  0  0  0  0  # atno 17370 bound_to 10713
  157.2506  130.6612  149.5930 LP  0  0  0  0  0  0  0  0  0  0  0  0  # atno 17371 bound_to 10713
  140.5238  134.0881  155.7298 LP  0  0  0  0  0  0  0  0  0  0  0  0  # atno 17394 bound_to 11000
  141.1416  133.9128  157.2313 LP  0  0  0  0  0  0  0  0  0  0  0  0  # atno 17395 bound_to 11000

$$$$
