AV-unprocessed.smi:672|AV-procd|sdf|3292|dock3
  -GOLD-   22720 0253D 1   1.00000     0.00000
 Structure written by MMmdl.
 36 37  0  0  0  0  0  0  0  0  1 V2000
  150.3009  141.8854  157.7242 C   0  0  0  0  0  0  0  0  0  0  0  0
  150.7444  141.9839  156.2608 C   0  0  0  0  0  0  0  0  0  0  0  0
  150.3828  140.7727  155.4674 C   0  0  0  0  0  0  0  0  0  0  0  0
  151.3003  139.9704  154.9131 N   0  0  0  0  0  0  0  0  0  0  0  0
  150.7268  138.8981  154.2445 N   0  0  0  0  0  0  0  0  0  0  0  0
  149.3893  138.9146  154.3274 C   0  0  0  0  0  0  0  0  0  0  0  0
  148.5498  137.9342  153.7350 N   0  0  0  0  0  0  0  0  0  0  0  0
  147.2744  137.6359  154.0389 C   0  0  0  0  0  0  0  0  0  0  0  0
  146.6017  138.1874  154.9104 O   0  0  0  0  0  0  0  0  0  0  0  0
  146.8115  136.6416  153.2674 N   0  0  0  0  0  0  0  0  0  0  0  0
  145.4661  136.0768  153.3448 C   0  0  1  0  0  0  0  0  0  0  0  0
  144.4681  136.9216  152.5297 C   0  0  0  0  0  0  0  0  0  0  0  0
  143.6947  135.9360  151.6517 C   0  0  0  0  0  0  0  0  0  0  0  0
  144.6788  134.7930  151.4094 C   0  0  2  0  0  0  0  0  0  0  0  0
  143.8729  133.2481  150.8975 S   0  0  0  0  0  0  0  0  0  0  0  0
  145.3268  132.2113  150.5897 C   0  0  0  0  0  0  0  0  0  0  0  0
  145.4121  134.6571  152.7458 C   0  0  0  0  0  0  0  0  0  0  0  0
  148.7164  140.2532  155.2419 S   0  0  0  0  0  0  0  0  0  0  0  0
  150.5802  142.7838  158.2749 H   0  0  0  0  0  0  0  0  0  0  0  0
  150.7657  141.0324  158.2197 H   0  0  0  0  0  0  0  0  0  0  0  0
  149.2194  141.7699  157.8007 H   0  0  0  0  0  0  0  0  0  0  0  0
  150.2885  142.8565  155.7925 H   0  0  0  0  0  0  0  0  0  0  0  0
  151.8238  142.1307  156.2085 H   0  0  0  0  0  0  0  0  0  0  0  0
  148.9731  137.3914  152.9971 H   0  0  0  0  0  0  0  0  0  0  0  0
  147.4319  136.2459  152.5766 H   0  0  0  0  0  0  0  0  0  0  0  0
  145.1451  136.0440  154.3878 H   0  0  0  0  0  0  0  0  0  0  0  0
  143.8026  137.5018  153.1695 H   0  0  0  0  0  0  0  0  0  0  0  0
  144.9949  137.6302  151.8885 H   0  0  0  0  0  0  0  0  0  0  0  0
  142.8234  135.5688  152.1957 H   0  0  0  0  0  0  0  0  0  0  0  0
  143.3418  136.3932  150.7270 H   0  0  0  0  0  0  0  0  0  0  0  0
  145.3965  135.0896  150.6431 H   0  0  0  0  0  0  0  0  0  0  0  0
  145.0154  131.2065  150.3041 H   0  0  0  0  0  0  0  0  0  0  0  0
  145.9420  132.1405  151.4868 H   0  0  0  0  0  0  0  0  0  0  0  0
  145.9312  132.6258  149.7830 H   0  0  0  0  0  0  0  0  0  0  0  0
  146.3936  134.1957  152.6275 H   0  0  0  0  0  0  0  0  0  0  0  0
  144.8389  134.0147  153.4161 H   0  0  0  0  0  0  0  0  0  0  0  0
  1  2  1  0  0  0  0
  1 19  1  0  0  0  0
  1 20  1  0  0  0  0
  1 21  1  0  0  0  0
  2  3  1  0  0  0  0
  2 22  1  0  0  0  0
  2 23  1  0  0  0  0
  3 18  1  0  0  0  0
  3  4  2  0  0  0  0
  4  5  1  0  0  0  0
  5  6  2  0  0  0  0
  6  7  1  0  0  0  0
  6 18  1  0  0  0  0
  7  8  1  0  0  0  0
  7 24  1  0  0  0  0
  8  9  2  0  0  0  0
  8 10  1  0  0  0  0
 10 11  1  0  0  0  0
 10 25  1  0  0  0  0
 11 17  1  0  0  0  0
 11 12  1  0  0  0  0
 11 26  1  0  0  0  0
 12 13  1  0  0  0  0
 12 27  1  0  0  0  0
 12 28  1  0  0  0  0
 13 14  1  0  0  0  0
 13 29  1  0  0  0  0
 13 30  1  0  0  0  0
 14 15  1  0  0  0  0
 14 17  1  0  0  0  0
 14 31  1  0  0  0  0
 15 16  1  0  0  0  0
 16 32  1  0  0  0  0
 16 33  1  0  0  0  0
 16 34  1  0  0  0  0
 17 35  1  0  0  0  0
 17 36  1  0  0  0  0
M  END
> <s_m_source_file>
AV-unprocessed.smi

> <i_m_source_file_index>
672

> <i_lp_mmshare_version>
43012

> <i_f3d_flags>
0

> <s_epik_input>
W0NIM11bQ0gyXWMxbm5jKHMxKVtOSF1DKD1PKVtOSF1bQ0BASF0yW0NIMl1bQ0gyXVtDQEhdKFtDSDJdMilTW0NIM10=

> <s_epik_cmdline>
J2VwaWtfcHl0aG9uJywgJy1waCcsICc3LjAnLCAnLXRuJywgJzgnLCAnLW1hJywgJzIwMCcsICctbWV0YWxfYmluZGluZycsICctaW1hZScsICc8aW5maWxlLm1hZT4nLCAnLW9tYWUnLCAnPG91dGZpbGUubWFlPic=

> <r_lp_tautomer_probability>
1

> <r_epik_Ionization_Penalty>
0.000422169

> <r_epik_Ionization_Penalty_Charging>
0

> <r_epik_Ionization_Penalty_Neutral>
0.000422169

> <r_epik_State_Penalty>
-0

> <r_epik_Charging_Adjusted_Penalty>
0

> <i_epik_Tot_Q>
0

> <i_epik_Tot_abs_Q>
0

> <r_epik_Metal_State_Penalty>
0.200061

> <b_epik_Metal_Only>
0

> <s_lp_Force_Field>
OPLS_2005

> <r_lp_Energy>
11.6788

> <b_lp_Chiralities_Consistent>
1

> <s_lp_Variant>
AV-unprocessed.smi:672-4

> <Gold.Version>
5.8.1

> <Gold.Id.Protein>
6NUR|6NUR_protein|mol2

> <Gold.PLP.Fitness>
34.3236

> <Gold.PLP.PLP>
-26.7910

> <Gold.PLP.part.hbond>
-3.2950

> <Gold.PLP.part.metal>
0.0000

> <Gold.PLP.part.buried>
-4.4518

> <Gold.PLP.part.nonpolar>
-20.0513

> <Gold.PLP.part.repulsive>
0.3199

> <Gold.PLP.ligand.clash>
0.0000

> <Gold.PLP.ligand.torsion>
0.4318

> <Gold.PLP.Chemscore.Hbond>
2.7920

> <Gold.PLP.Chemscore.CHOScore>
0.0000

> <Gold.PLP.Chemscore.Metal>
0.0000

> <Gold.Chemscore.Hbonds>
donor molecule, donor type, donor heavy atom, donor atom, acceptor molecule, acceptor atom, score
      L1  H     7    24       P1  7948  1.00
      L1  H    10    25       P1  7948  0.99
      P1  H  7989  7998       L1     4  0.75

> <Gold.PLP.Chemscore.Internal.Correction>
0.0202

> <Gold.Rescore>
     Score         DG    S(hbond)    S(metal)    S(lipo)     H(rot)  DE(clash)    DE(int)     intcor
     14.19     -15.59       1.99        0.00      59.52       1.37       0.00       1.40       ----

> <Gold.Chemscore.Fitness>
14.1910

> <Gold.Chemscore.DG>
-15.5890

> <Gold.Chemscore.ZeroCoef>
-5.4800

> <Gold.Chemscore.Hbond>
1.9894

> <Gold.Chemscore.Metal>
0.0000

> <Gold.Chemscore.Lipo>
59.5186

> <Gold.Chemscore.Internal_Hbond>
0.0000

> <Gold.Chemscore.DEClash>
0.0022

> <Gold.Chemscore.DEInternal>
1.3958

> <Gold.Chemscore.Rot>
1.3669

> <Gold.Chemscore.Internal.Correction>
   9.000000E+99

> <Gold.Chemscore.Hbonds>
donor molecule, donor type, donor heavy atom, donor atom, acceptor molecule, acceptor atom, score
      L1  H     7    24       P1  7948  0.97
      L1  H    10    25       P1  7948  0.93
      P1  H  7989  7998       L1     4  0.02

> <Gold.Chemscore.Hbond.Weighted>
-6.6445

> <Gold.Chemscore.Metal.Weighted>
-0.0000

> <Gold.Chemscore.Lipo.Weighted>
-6.9637

> <Gold.Chemscore.Internal_Hbond.Weighted>
0.0000

> <Gold.Chemscore.DEClash.Weighted>
0.0022

> <Gold.Chemscore.DEInternal.Weighted>
1.3958

> <Gold.Chemscore.Rot.Weighted>
3.4992

> <Gold.Chemscore.Internal.Correction.Weighted>
   9.000000E+99

> <Gold.Protein.RotatedTorsions>
[ 6907 6896 6895 6894 ] final  -80.60 input  -60.11 | X-H torsion
[ 7974 7965 7964 7962 ] final   72.90 input  175.53 | X-H torsion
[ 8008 7997 7996 7995 ] final   97.85 input   59.86 | X-H torsion
[ 10167 10162 10161 10158 ] final   89.59 input  -65.29 | X-H torsion
[ 10718 10713 10712 10709 ] final  -43.57 input   66.30 | X-H torsion
[ 10763 10752 10751 10750 ] final  174.31 input  -60.55 | X-H torsion
[ 11005 11000 10999 10996 ] final   75.01 input  -57.11 | X-H torsion

> <Gold.Protein.ActiveResidues>
 VAL166  LYS551  ARG553  GLY616  TRP617  ASP618  TYR619  PRO620  LYS621  CYS622 
 ASP623  PHE694  ASN695  SER759  ASP760  ASP761  ALA762  ILE779  LEU786  VAL792 
 PHE793  MET794  SER795  GLU796  ALA797  LYS798  CYS799  TRP800  GLU811  SER814 

> <Gold.Protein.RotatedAtoms>
  150.6926  134.3945  159.5090 H   0  0  0  0  0  0  0  0  0  0  0  0  # atno 6907 bound_to 6896
  152.1728  134.8817  160.0542 H   0  0  0  0  0  0  0  0  0  0  0  0  # atno 6908 bound_to 6896
  151.9837  133.3732  159.4154 H   0  0  0  0  0  0  0  0  0  0  0  0  # atno 6909 bound_to 6896
  145.7476  139.2746  143.1450 H   0  0  0  0  0  0  0  0  0  0  0  0  # atno 7974 bound_to 7965
  156.0944  140.3252  155.7858 H   0  0  0  0  0  0  0  0  0  0  0  0  # atno 8008 bound_to 7997
  155.4942  140.0564  157.2966 H   0  0  0  0  0  0  0  0  0  0  0  0  # atno 8009 bound_to 7997
  154.4657  140.1988  156.0139 H   0  0  0  0  0  0  0  0  0  0  0  0  # atno 8010 bound_to 7997
  139.8558  144.6570  150.9116 H   0  0  0  0  0  0  0  0  0  0  0  0  # atno 10167 bound_to 10162
  156.2476  130.4185  149.8687 H   0  0  0  0  0  0  0  0  0  0  0  0  # atno 10718 bound_to 10713
  154.4521  135.2765  155.1774 H   0  0  0  0  0  0  0  0  0  0  0  0  # atno 10763 bound_to 10752
  154.3596  135.6132  153.5688 H   0  0  0  0  0  0  0  0  0  0  0  0  # atno 10764 bound_to 10752
  152.9848  135.5831  154.4867 H   0  0  0  0  0  0  0  0  0  0  0  0  # atno 10765 bound_to 10752
  139.9364  134.7481  156.1218 H   0  0  0  0  0  0  0  0  0  0  0  0  # atno 11005 bound_to 11000
  146.0388  140.8185  142.9839 LP  0  0  0  0  0  0  0  0  0  0  0  0  # atno 17320 bound_to 7965
  144.6857  140.2879  143.7282 LP  0  0  0  0  0  0  0  0  0  0  0  0  # atno 17321 bound_to 7965
  140.7782  143.3787  151.1515 LP  0  0  0  0  0  0  0  0  0  0  0  0  # atno 17342 bound_to 10162
  139.7421  143.8908  152.3053 LP  0  0  0  0  0  0  0  0  0  0  0  0  # atno 17343 bound_to 10162
  156.6246  130.8641  151.3483 LP  0  0  0  0  0  0  0  0  0  0  0  0  # atno 17370 bound_to 10713
  157.7201  130.9548  150.1407 LP  0  0  0  0  0  0  0  0  0  0  0  0  # atno 17371 bound_to 10713
  141.0979  133.6688  156.2687 LP  0  0  0  0  0  0  0  0  0  0  0  0  # atno 17394 bound_to 11000
  140.6066  134.5501  157.5526 LP  0  0  0  0  0  0  0  0  0  0  0  0  # atno 17395 bound_to 11000

$$$$
