AV-unprocessed.smi:2970|AV-procd|sdf|11331|dock9
  -GOLD-   2272016243D 1   1.00000     0.00000
 Structure written by MMmdl.
 38 39  0  0  0  0  0  0  0  0  1 V2000
  146.2038  143.1556  153.7287 C   0  0  0  0  0  0  0  0  0  0  0  0
  146.2551  142.4132  155.0529 C   0  0  0  0  0  0  0  0  0  0  0  0
  145.2972  142.4185  155.9858 C   0  0  0  0  0  0  0  0  0  0  0  0
  145.7222  141.4796  157.3959 S   0  0  0  0  0  0  0  0  0  0  0  0
  147.3091  141.0662  156.6532 C   0  0  0  0  0  0  0  0  0  0  0  0
  148.1456  140.3616  157.2160 O   0  0  0  0  0  0  0  0  0  0  0  0
  147.3891  141.6631  155.3953 N   0  0  0  0  0  0  0  0  0  0  0  0
  148.5567  141.5120  154.5167 C   0  0  0  0  0  0  0  0  0  0  0  0
  149.8866  141.4385  155.2790 C   0  0  0  0  0  0  0  0  0  0  0  0
  150.6838  140.5201  155.0813 O   0  0  0  0  0  0  0  0  0  0  0  0
  150.1044  142.4222  156.1655 N   0  0  0  0  0  0  0  0  0  0  0  0
  151.2916  142.5613  157.0060 C   0  0  0  0  0  0  0  0  0  0  0  0
  151.4312  141.3140  157.9042 C   0  0  0  0  0  0  0  0  0  0  0  0
  152.6225  141.3356  158.8774 C   0  0  0  0  0  0  0  0  0  0  0  0
  152.4006  142.2799  160.0695 C   0  0  0  0  0  0  0  0  0  0  0  0
  152.7952  143.7480  159.8319 C   0  0  0  0  0  0  0  0  0  0  0  0
  152.5247  144.3157  158.4276 C   0  0  0  0  0  0  0  0  0  0  0  0
  151.1943  143.8906  157.7833 C   0  0  0  0  0  0  0  0  0  0  0  0
  145.4293  143.9226  153.7547 H   0  0  0  0  0  0  0  0  0  0  0  0
  145.9711  142.4667  152.9166 H   0  0  0  0  0  0  0  0  0  0  0  0
  147.1478  143.6538  153.5081 H   0  0  0  0  0  0  0  0  0  0  0  0
  144.3522  142.9383  155.9299 H   0  0  0  0  0  0  0  0  0  0  0  0
  148.4509  140.6001  153.9268 H   0  0  0  0  0  0  0  0  0  0  0  0
  148.5997  142.3217  153.7882 H   0  0  0  0  0  0  0  0  0  0  0  0
  149.3945  143.1335  156.2640 H   0  0  0  0  0  0  0  0  0  0  0  0
  152.1643  142.6193  156.3527 H   0  0  0  0  0  0  0  0  0  0  0  0
  150.5083  141.1530  158.4631 H   0  0  0  0  0  0  0  0  0  0  0  0
  151.5399  140.4377  157.2638 H   0  0  0  0  0  0  0  0  0  0  0  0
  152.7433  140.3253  159.2699 H   0  0  0  0  0  0  0  0  0  0  0  0
  153.5538  141.5651  158.3582 H   0  0  0  0  0  0  0  0  0  0  0  0
  151.3568  142.2280  160.3819 H   0  0  0  0  0  0  0  0  0  0  0  0
  152.9719  141.9137  160.9233 H   0  0  0  0  0  0  0  0  0  0  0  0
  152.2804  144.3620  160.5718 H   0  0  0  0  0  0  0  0  0  0  0  0
  153.8583  143.8687  160.0431 H   0  0  0  0  0  0  0  0  0  0  0  0
  152.5494  145.4036  158.4995 H   0  0  0  0  0  0  0  0  0  0  0  0
  153.3494  144.0567  157.7626 H   0  0  0  0  0  0  0  0  0  0  0  0
  150.9101  144.6742  157.0792 H   0  0  0  0  0  0  0  0  0  0  0  0
  150.3967  143.8561  158.5268 H   0  0  0  0  0  0  0  0  0  0  0  0
  1  2  1  0  0  0  0
  1 19  1  0  0  0  0
  1 20  1  0  0  0  0
  1 21  1  0  0  0  0
  2  7  1  0  0  0  0
  2  3  2  0  0  0  0
  3  4  1  0  0  0  0
  3 22  1  0  0  0  0
  4  5  1  0  0  0  0
  5  6  2  0  0  0  0
  5  7  1  0  0  0  0
  7  8  1  0  0  0  0
  8  9  1  0  0  0  0
  8 23  1  0  0  0  0
  8 24  1  0  0  0  0
  9 10  2  0  0  0  0
  9 11  1  0  0  0  0
 11 12  1  0  0  0  0
 11 25  1  0  0  0  0
 12 18  1  0  0  0  0
 12 13  1  0  0  0  0
 12 26  1  0  0  0  0
 13 14  1  0  0  0  0
 13 27  1  0  0  0  0
 13 28  1  0  0  0  0
 14 15  1  0  0  0  0
 14 29  1  0  0  0  0
 14 30  1  0  0  0  0
 15 16  1  0  0  0  0
 15 31  1  0  0  0  0
 15 32  1  0  0  0  0
 16 17  1  0  0  0  0
 16 33  1  0  0  0  0
 16 34  1  0  0  0  0
 17 18  1  0  0  0  0
 17 35  1  0  0  0  0
 17 36  1  0  0  0  0
 18 37  1  0  0  0  0
 18 38  1  0  0  0  0
M  END
> <s_m_source_file>
AV-unprocessed.smi

> <i_m_source_file_index>
2970

> <i_lp_mmshare_version>
43012

> <i_f3d_flags>
0

> <s_epik_input>
W0NIM11jMVtjSF1zYyg9TyluMVtDSDJdQyg9TylbTkhdW0NIXTJbQ0gyXVtDSDJdW0NIMl1bQ0gyXVtDSDJdW0NIMl0y

> <s_epik_cmdline>
J2VwaWtfcHl0aG9uJywgJy1waCcsICc3LjAnLCAnLXRuJywgJzgnLCAnLW1hJywgJzIwMCcsICctbWV0YWxfYmluZGluZycsICctaW1hZScsICc8aW5maWxlLm1hZT4nLCAnLW9tYWUnLCAnPG91dGZpbGUubWFlPic=

> <r_lp_tautomer_probability>
1

> <r_epik_Ionization_Penalty>
1.32564e-06

> <r_epik_Ionization_Penalty_Charging>
1.22505e-06

> <r_epik_Ionization_Penalty_Neutral>
1.00582e-07

> <r_epik_State_Penalty>
-0

> <r_epik_Charging_Adjusted_Penalty>
1.22505e-06

> <i_epik_Tot_Q>
0

> <i_epik_Tot_abs_Q>
0

> <r_epik_Metal_State_Penalty>
-0

> <b_epik_Metal_Only>
0

> <s_lp_Force_Field>
OPLS_2005

> <r_lp_Energy>
18.3304

> <b_lp_Chiralities_Consistent>
1

> <s_lp_Variant>
AV-unprocessed.smi:2970-1

> <Gold.Version>
5.8.1

> <Gold.Id.Protein>
6NUR|6NUR_protein|mol2

> <Gold.PLP.Fitness>
44.7599

> <Gold.PLP.PLP>
-39.9126

> <Gold.PLP.part.hbond>
-2.0000

> <Gold.PLP.part.metal>
0.0000

> <Gold.PLP.part.buried>
-5.4429

> <Gold.PLP.part.nonpolar>
-32.9455

> <Gold.PLP.part.repulsive>
0.1884

> <Gold.PLP.ligand.clash>
0.0000

> <Gold.PLP.ligand.torsion>
0.4285

> <Gold.PLP.Chemscore.Hbond>
1.8960

> <Gold.PLP.Chemscore.CHOScore>
0.0000

> <Gold.PLP.Chemscore.Metal>
0.0000

> <Gold.Chemscore.Hbonds>
donor molecule, donor type, donor heavy atom, donor atom, acceptor molecule, acceptor atom, score
      L1  H    11    25       P1  8028  0.86
      P1  H  7989  7998       L1    10  1.00

> <Gold.PLP.Chemscore.Internal.Correction>
0.0161

> <Gold.Rescore>
     Score         DG    S(hbond)    S(metal)    S(lipo)     H(rot)  DE(clash)    DE(int)     intcor
     15.28     -17.48       1.33        0.00      95.34       1.40       0.47       1.73       ----

> <Gold.Chemscore.Fitness>
15.2839

> <Gold.Chemscore.DG>
-17.4844

> <Gold.Chemscore.ZeroCoef>
-5.4800

> <Gold.Chemscore.Hbond>
1.3250

> <Gold.Chemscore.Metal>
0.0000

> <Gold.Chemscore.Lipo>
95.3406

> <Gold.Chemscore.Internal_Hbond>
0.0000

> <Gold.Chemscore.DEClash>
0.4667

> <Gold.Chemscore.DEInternal>
1.7338

> <Gold.Chemscore.Rot>
1.3969

> <Gold.Chemscore.Internal.Correction>
   9.000000E+99

> <Gold.Chemscore.Hbonds>
donor molecule, donor type, donor heavy atom, donor atom, acceptor molecule, acceptor atom, score
      L1  H    11    25       P1  8028  0.85
      P1  H  7989  7998       L1    10  0.62

> <Gold.Chemscore.Hbond.Weighted>
-4.4256

> <Gold.Chemscore.Metal.Weighted>
-0.0000

> <Gold.Chemscore.Lipo.Weighted>
-11.1549

> <Gold.Chemscore.Internal_Hbond.Weighted>
0.0000

> <Gold.Chemscore.DEClash.Weighted>
0.4667

> <Gold.Chemscore.DEInternal.Weighted>
1.7338

> <Gold.Chemscore.Rot.Weighted>
3.5761

> <Gold.Chemscore.Internal.Correction.Weighted>
   9.000000E+99

> <Gold.Protein.RotatedTorsions>
[ 6907 6896 6895 6894 ] final -104.78 input  -60.11 | X-H torsion
[ 7974 7965 7964 7962 ] final   66.48 input  175.53 | X-H torsion
[ 8008 7997 7996 7995 ] final -166.80 input   59.86 | X-H torsion
[ 10167 10162 10161 10158 ] final -108.54 input  -65.29 | X-H torsion
[ 10718 10713 10712 10709 ] final  -26.24 input   66.30 | X-H torsion
[ 10763 10752 10751 10750 ] final   98.52 input  -60.55 | X-H torsion
[ 11005 11000 10999 10996 ] final -179.40 input  -57.11 | X-H torsion

> <Gold.Protein.ActiveResidues>
 VAL166  LYS551  ARG553  GLY616  TRP617  ASP618  TYR619  PRO620  LYS621  CYS622 
 ASP623  PHE694  ASN695  SER759  ASP760  ASP761  ALA762  ILE779  LEU786  VAL792 
 PHE793  MET794  SER795  GLU796  ALA797  LYS798  CYS799  TRP800  GLU811  SER814 

> <Gold.Protein.RotatedAtoms>
  150.7304  134.0227  159.3706 H   0  0  0  0  0  0  0  0  0  0  0  0  # atno 6907 bound_to 6896
  151.8192  135.0655  160.0432 H   0  0  0  0  0  0  0  0  0  0  0  0  # atno 6908 bound_to 6896
  152.3016  133.5625  159.5658 H   0  0  0  0  0  0  0  0  0  0  0  0  # atno 6909 bound_to 6896
  145.8261  139.3112  143.1014 H   0  0  0  0  0  0  0  0  0  0  0  0  # atno 7974 bound_to 7965
  155.8688  140.0990  157.1564 H   0  0  0  0  0  0  0  0  0  0  0  0  # atno 8008 bound_to 7997
  154.3995  140.1351  156.4115 H   0  0  0  0  0  0  0  0  0  0  0  0  # atno 8009 bound_to 7997
  155.7774  140.3459  155.5281 H   0  0  0  0  0  0  0  0  0  0  0  0  # atno 8010 bound_to 7997
  140.1650  143.4089  152.1397 H   0  0  0  0  0  0  0  0  0  0  0  0  # atno 10167 bound_to 10162
  156.4537  130.4489  149.6973 H   0  0  0  0  0  0  0  0  0  0  0  0  # atno 10718 bound_to 10713
  153.2900  135.4145  155.1158 H   0  0  0  0  0  0  0  0  0  0  0  0  # atno 10763 bound_to 10752
  154.8517  135.3516  154.5994 H   0  0  0  0  0  0  0  0  0  0  0  0  # atno 10764 bound_to 10752
  153.6416  135.7056  153.5297 H   0  0  0  0  0  0  0  0  0  0  0  0  # atno 10765 bound_to 10752
  140.4191  134.6622  157.4654 H   0  0  0  0  0  0  0  0  0  0  0  0  # atno 11005 bound_to 11000
  145.9621  140.8827  143.0205 LP  0  0  0  0  0  0  0  0  0  0  0  0  # atno 17320 bound_to 7965
  144.6743  140.1827  143.7404 LP  0  0  0  0  0  0  0  0  0  0  0  0  # atno 17321 bound_to 7965
  139.5363  144.7213  151.4881 LP  0  0  0  0  0  0  0  0  0  0  0  0  # atno 17342 bound_to 10162
  140.6618  143.8481  150.6897 LP  0  0  0  0  0  0  0  0  0  0  0  0  # atno 17343 bound_to 10162
  156.3789  130.7568  151.2559 LP  0  0  0  0  0  0  0  0  0  0  0  0  # atno 17370 bound_to 10713
  157.7501  131.0301  150.4124 LP  0  0  0  0  0  0  0  0  0  0  0  0  # atno 17371 bound_to 10713
  140.0213  134.6543  155.9236 LP  0  0  0  0  0  0  0  0  0  0  0  0  # atno 17394 bound_to 11000
  141.1791  133.6544  156.4947 LP  0  0  0  0  0  0  0  0  0  0  0  0  # atno 17395 bound_to 11000

$$$$
