AV-unprocessed.smi:102|AV-procd|sdf|955|dock7
  -GOLD-   2262017493D 1   1.00000     0.00000
 Structure written by MMmdl.
 44 45  0  0  0  0  0  0  0  0  1 V2000
  143.1979  138.9177  155.4512 C   0  0  0  0  0  0  0  0  0  0  0  0
  143.8365  137.5482  155.6398 C   0  0  0  0  0  0  0  0  0  0  0  0
  143.4746  136.5725  154.9824 O   0  0  0  0  0  0  0  0  0  0  0  0
  144.7983  137.5589  156.5722 O   0  0  0  0  0  0  0  0  0  0  0  0
  145.4523  136.3512  156.9313 C   0  0  0  0  0  0  0  0  0  0  0  0
  146.3947  136.5864  158.1229 C   0  0  2  0  0  0  0  0  0  0  0  0
  147.3190  137.6250  157.8503 O   0  0  0  0  0  0  0  0  0  0  0  0
  148.3751  137.5211  158.7502 C   0  0  2  0  0  0  0  0  0  0  0  0
  149.6230  138.0335  158.0699 N   0  0  0  0  0  0  0  0  0  0  0  0
  149.5386  138.6654  156.8371 C   0  0  0  0  0  0  0  0  0  0  0  0
  150.6240  139.1091  156.1599 C   0  0  0  0  0  0  0  0  0  0  0  0
  150.4622  139.7171  154.9724 F   0  0  0  0  0  0  0  0  0  0  0  0
  151.9667  138.9272  156.7037 C   0  0  0  0  0  0  0  0  0  0  0  0
  153.0092  139.2984  156.1683 O   0  0  0  0  0  0  0  0  0  0  0  0
  152.0059  138.2638  157.9334 N   0  0  0  0  0  0  0  0  0  0  0  0
  150.8963  137.7955  158.6386 C   0  0  0  0  0  0  0  0  0  0  0  0
  151.0554  137.1997  159.7028 O   0  0  0  0  0  0  0  0  0  0  0  0
  148.4964  136.0465  159.1839 C   0  0  1  0  0  0  0  0  0  0  0  0
  148.5322  135.9529  160.6022 O   0  0  0  0  0  0  0  0  0  0  0  0
  147.5605  136.5197  161.3390 C   0  0  0  0  0  0  0  0  0  0  0  0
  147.7068  136.2183  162.8243 C   0  0  0  0  0  0  0  0  0  0  0  0
  146.6411  137.2179  160.9115 O   0  0  0  0  0  0  0  0  0  0  0  0
  147.2341  135.3970  158.6204 C   0  0  2  0  0  0  0  0  0  0  0  0
  147.6244  134.4805  157.6030 O   0  0  0  0  0  0  0  0  0  0  0  0
  148.5247  133.5130  157.8511 C   0  0  0  0  0  0  0  0  0  0  0  0
  148.7168  132.5843  156.6598 C   0  0  0  0  0  0  0  0  0  0  0  0
  149.1422  133.3454  158.9025 O   0  0  0  0  0  0  0  0  0  0  0  0
  152.9151  138.1015  158.3414 H   0  0  0  0  0  0  0  0  0  0  0  0
  143.9424  139.7061  155.5665 H   0  0  0  0  0  0  0  0  0  0  0  0
  142.4119  139.0720  156.1903 H   0  0  0  0  0  0  0  0  0  0  0  0
  142.7601  139.0002  154.4561 H   0  0  0  0  0  0  0  0  0  0  0  0
  144.6992  135.6072  157.1931 H   0  0  0  0  0  0  0  0  0  0  0  0
  146.0197  135.9567  156.0870 H   0  0  0  0  0  0  0  0  0  0  0  0
  145.7911  136.9276  158.9652 H   0  0  0  0  0  0  0  0  0  0  0  0
  148.1794  138.1892  159.5908 H   0  0  0  0  0  0  0  0  0  0  0  0
  148.5685  138.8206  156.3872 H   0  0  0  0  0  0  0  0  0  0  0  0
  149.3978  135.6072  158.7542 H   0  0  0  0  0  0  0  0  0  0  0  0
  147.8368  135.1480  162.9846 H   0  0  0  0  0  0  0  0  0  0  0  0
  146.8210  136.5439  163.3702 H   0  0  0  0  0  0  0  0  0  0  0  0
  148.5740  136.7387  163.2314 H   0  0  0  0  0  0  0  0  0  0  0  0
  146.6944  134.8743  159.4117 H   0  0  0  0  0  0  0  0  0  0  0  0
  147.7705  132.4248  156.1424 H   0  0  0  0  0  0  0  0  0  0  0  0
  149.0968  131.6165  156.9877 H   0  0  0  0  0  0  0  0  0  0  0  0
  149.4284  133.0167  155.9566 H   0  0  0  0  0  0  0  0  0  0  0  0
  1  2  1  0  0  0  0
  1 29  1  0  0  0  0
  1 30  1  0  0  0  0
  1 31  1  0  0  0  0
  2  3  2  0  0  0  0
  2  4  1  0  0  0  0
  4  5  1  0  0  0  0
  5  6  1  0  0  0  0
  5 32  1  0  0  0  0
  5 33  1  0  0  0  0
  6 23  1  0  0  0  0
  6  7  1  0  0  0  0
  6 34  1  0  0  0  0
  7  8  1  0  0  0  0
  8  9  1  0  0  0  0
  8 18  1  0  0  0  0
  8 35  1  0  0  0  0
  9 16  1  0  0  0  0
  9 10  1  0  0  0  0
 10 11  2  0  0  0  0
 10 36  1  0  0  0  0
 11 12  1  0  0  0  0
 11 13  1  0  0  0  0
 13 14  2  0  0  0  0
 13 15  1  0  0  0  0
 15 28  1  0  0  0  0
 15 16  1  0  0  0  0
 16 17  2  0  0  0  0
 18 19  1  0  0  0  0
 18 23  1  0  0  0  0
 18 37  1  0  0  0  0
 19 20  1  0  0  0  0
 20 21  1  0  0  0  0
 20 22  2  0  0  0  0
 21 38  1  0  0  0  0
 21 39  1  0  0  0  0
 21 40  1  0  0  0  0
 23 24  1  0  0  0  0
 23 41  1  0  0  0  0
 24 25  1  0  0  0  0
 25 26  1  0  0  0  0
 25 27  2  0  0  0  0
 26 42  1  0  0  0  0
 26 43  1  0  0  0  0
 26 44  1  0  0  0  0
M  END
> <s_m_source_file>
AV-unprocessed.smi

> <i_m_source_file_index>
102

> <i_lp_mmshare_version>
43012

> <i_f3d_flags>
0

> <s_epik_input>
W0NIM11DKD1PKU9bQ0gyXVtDQEBIXTFPW0NASF0oW0NAQEhdKE9DKD1PKVtDSDNdKVtDQEhdMU9DKD1PKVtDSDNdKW4yW2NIXWMoRiljKD1PKVtuSF1jMj1P

> <s_epik_cmdline>
J2VwaWtfcHl0aG9uJywgJy1waCcsICc3LjAnLCAnLXRuJywgJzgnLCAnLW1hJywgJzIwMCcsICctbWV0YWxfYmluZGluZycsICctaW1hZScsICc8aW5maWxlLm1hZT4nLCAnLW9tYWUnLCAnPG91dGZpbGUubWFlPic=

> <r_lp_tautomer_probability>
0.999537

> <r_epik_Ionization_Penalty>
0.058267

> <r_epik_Ionization_Penalty_Charging>
0.058267

> <r_epik_Ionization_Penalty_Neutral>
6.57791e-16

> <r_epik_State_Penalty>
0.0503774

> <r_epik_Charging_Adjusted_Penalty>
0.108644

> <i_epik_Tot_Q>
0

> <i_epik_Tot_abs_Q>
0

> <r_epik_Metal_State_Penalty>
2.6644

> <b_epik_Metal_Only>
0

> <s_epik_Chemistry_Notes>
This compound has an ester and may undergo hydrolysis at high or low pH. This compound contains an acetal/aminal-like group ( X-CH(R)-Y where X, Y are N, S, or O) that may be acid/base labile, releasing an aldehyde.

> <s_lp_Force_Field>
OPLS_2005

> <r_lp_Energy>
7.073

> <b_lp_Chiralities_Consistent>
1

> <s_lp_Variant>
AV-unprocessed.smi:102-11

> <Gold.Version>
5.8.1

> <Gold.Id.Protein>
6NUR|6NUR_protein|mol2

> <Gold.PLP.Fitness>
35.1415

> <Gold.PLP.PLP>
-23.7600

> <Gold.PLP.part.hbond>
-4.0000

> <Gold.PLP.part.metal>
0.0000

> <Gold.PLP.part.buried>
-4.2835

> <Gold.PLP.part.nonpolar>
-16.0917

> <Gold.PLP.part.repulsive>
0.0954

> <Gold.PLP.ligand.clash>
0.0000

> <Gold.PLP.ligand.torsion>
0.3339

> <Gold.PLP.Chemscore.Hbond>
3.9913

> <Gold.PLP.Chemscore.CHOScore>
0.0000

> <Gold.PLP.Chemscore.Metal>
0.0000

> <Gold.Chemscore.Hbonds>
donor molecule, donor type, donor heavy atom, donor atom, acceptor molecule, acceptor atom, score
      P1  H  6896  6907       L1    27  0.94
      P1  H  6896  6908       L1    17  0.86
      P1  H  6934  6947       L1    22  1.00
      P1  H  7997  8008       L1    14  1.00

> <Gold.PLP.Chemscore.Internal.Correction>
0.0755

> <Gold.Rescore>
     Score         DG    S(hbond)    S(metal)    S(lipo)     H(rot)  DE(clash)    DE(int)     intcor
      4.70     -11.55       3.98        0.00      27.03       4.05       0.02       6.83       ----

> <Gold.Chemscore.Fitness>
4.7016

> <Gold.Chemscore.DG>
-11.5506

> <Gold.Chemscore.ZeroCoef>
-5.4800

> <Gold.Chemscore.Hbond>
3.9765

> <Gold.Chemscore.Metal>
0.0000

> <Gold.Chemscore.Lipo>
27.0278

> <Gold.Chemscore.Internal_Hbond>
0.0000

> <Gold.Chemscore.DEClash>
0.0178

> <Gold.Chemscore.DEInternal>
6.8312

> <Gold.Chemscore.Rot>
4.0520

> <Gold.Chemscore.Internal.Correction>
   9.000000E+99

> <Gold.Chemscore.Hbonds>
donor molecule, donor type, donor heavy atom, donor atom, acceptor molecule, acceptor atom, score
      P1  H  6896  6907       L1    27  0.91
      P1  H  6896  6908       L1    17  0.84
      P1  H  6934  6947       L1    22  0.74
      P1  H  7997  8008       L1    14  0.97

> <Gold.Chemscore.Hbond.Weighted>
-13.2815

> <Gold.Chemscore.Metal.Weighted>
-0.0000

> <Gold.Chemscore.Lipo.Weighted>
-3.1623

> <Gold.Chemscore.Internal_Hbond.Weighted>
0.0000

> <Gold.Chemscore.DEClash.Weighted>
0.0178

> <Gold.Chemscore.DEInternal.Weighted>
6.8312

> <Gold.Chemscore.Rot.Weighted>
10.3732

> <Gold.Chemscore.Internal.Correction.Weighted>
   9.000000E+99

> <Gold.Protein.RotatedTorsions>
[ 6907 6896 6895 6894 ] final -125.31 input  -60.11 | X-H torsion
[ 7974 7965 7964 7962 ] final  -41.54 input  175.53 | X-H torsion
[ 8008 7997 7996 7995 ] final  -45.40 input   59.86 | X-H torsion
[ 10167 10162 10161 10158 ] final   42.31 input  -65.29 | X-H torsion
[ 10718 10713 10712 10709 ] final -100.88 input   66.30 | X-H torsion
[ 10763 10752 10751 10750 ] final  -91.72 input  -60.55 | X-H torsion
[ 11005 11000 10999 10996 ] final  -29.76 input  -57.11 | X-H torsion

> <Gold.Protein.ActiveResidues>
 VAL166  LYS551  ARG553  GLY616  TRP617  ASP618  TYR619  PRO620  LYS621  CYS622 
 ASP623  PHE694  ASN695  SER759  ASP760  ASP761  ALA762  ILE779  LEU786  VAL792 
 PHE793  MET794  SER795  GLU796  ALA797  LYS798  CYS799  TRP800  GLU811  SER814 

> <Gold.Protein.RotatedAtoms>
  150.8855  133.7314  159.2919 H   0  0  0  0  0  0  0  0  0  0  0  0  # atno 6907 bound_to 6896
  151.4881  135.1054  159.9805 H   0  0  0  0  0  0  0  0  0  0  0  0  # atno 6908 bound_to 6896
  152.4787  133.8155  159.7081 H   0  0  0  0  0  0  0  0  0  0  0  0  # atno 6909 bound_to 6896
  146.0201  140.6860  142.9182 H   0  0  0  0  0  0  0  0  0  0  0  0  # atno 7974 bound_to 7965
  154.4001  140.1398  156.3840 H   0  0  0  0  0  0  0  0  0  0  0  0  # atno 8008 bound_to 7997
  155.7976  140.3477  155.5364 H   0  0  0  0  0  0  0  0  0  0  0  0  # atno 8009 bound_to 7997
  155.8516  140.0942  157.1662 H   0  0  0  0  0  0  0  0  0  0  0  0  # atno 8010 bound_to 7997
  140.3556  144.2294  150.6142 H   0  0  0  0  0  0  0  0  0  0  0  0  # atno 10167 bound_to 10162
  156.0177  130.5348  150.6881 H   0  0  0  0  0  0  0  0  0  0  0  0  # atno 10718 bound_to 10713
  154.6789  135.5257  153.8236 H   0  0  0  0  0  0  0  0  0  0  0  0  # atno 10763 bound_to 10752
  153.0551  135.6547  154.0607 H   0  0  0  0  0  0  0  0  0  0  0  0  # atno 10764 bound_to 10752
  154.0497  135.2970  155.3322 H   0  0  0  0  0  0  0  0  0  0  0  0  # atno 10765 bound_to 10752
  140.9324  133.7329  156.0956 H   0  0  0  0  0  0  0  0  0  0  0  0  # atno 11005 bound_to 11000
  144.6986  140.3550  143.7174 LP  0  0  0  0  0  0  0  0  0  0  0  0  # atno 17320 bound_to 7965
  145.7207  139.1709  143.2486 LP  0  0  0  0  0  0  0  0  0  0  0  0  # atno 17321 bound_to 7965
  140.5177  143.2274  151.8438 LP  0  0  0  0  0  0  0  0  0  0  0  0  # atno 17342 bound_to 10162
  139.4820  144.4875  151.9228 LP  0  0  0  0  0  0  0  0  0  0  0  0  # atno 17343 bound_to 10162
  157.4569  131.0879  151.0787 LP  0  0  0  0  0  0  0  0  0  0  0  0  # atno 17370 bound_to 10713
  157.1286  130.6092  149.5523 LP  0  0  0  0  0  0  0  0  0  0  0  0  # atno 17371 bound_to 10713
  140.7844  134.3689  157.5480 LP  0  0  0  0  0  0  0  0  0  0  0  0  # atno 17394 bound_to 11000
  139.8799  134.9102  156.3007 LP  0  0  0  0  0  0  0  0  0  0  0  0  # atno 17395 bound_to 11000

$$$$
