AV-unprocessed.smi:3199|AV-procd|sdf|12231|dock3
  -GOLD-   2272018 63D 1   1.00000     0.00000
 Structure written by MMmdl.
 35 36  0  0  0  0  0  0  0  0  1 V2000
  153.3842  143.0998  163.4960 C   0  0  0  0  0  0  0  0  0  0  0  0
  152.8723  143.1179  162.0709 C   0  0  0  0  0  0  0  0  0  0  0  0
  152.1793  144.2378  161.5645 C   0  0  0  0  0  0  0  0  0  0  0  0
  151.7278  144.2002  160.2312 C   0  0  0  0  0  0  0  0  0  0  0  0
  151.9838  143.0489  159.4587 C   0  0  0  0  0  0  0  0  0  0  0  0
  151.5262  142.9601  158.0162 C   0  0  0  0  0  0  0  0  0  0  0  0
  150.3602  141.9737  157.8404 C   0  0  0  0  0  0  0  0  0  0  0  0
  149.8226  142.0097  156.4858 N   0  0  0  0  0  0  0  0  0  0  0  0
  149.3952  140.9427  155.7930 C   0  0  0  0  0  0  0  0  0  0  0  0
  149.4066  139.7993  156.2501 O   0  0  0  0  0  0  0  0  0  0  0  0
  148.8739  141.2329  154.3777 C   0  0  2  0  0  0  0  0  0  0  0  0
  147.8604  142.3902  154.2513 C   0  0  0  0  0  0  0  0  0  0  0  0
  146.5751  141.7011  153.8348 C   0  0  0  0  0  0  0  0  0  0  0  0
  147.0964  140.4749  153.1001 C   0  0  0  0  0  0  0  0  0  0  0  0
  148.1935  140.0717  153.9030 O   0  0  0  0  0  0  0  0  0  0  0  0
  152.6849  141.9828  160.0609 C   0  0  0  0  0  0  0  0  0  0  0  0
  153.1223  142.0102  161.3383 N   0  0  0  0  0  0  0  0  0  0  0  0
  153.1795  144.0437  164.0021 H   0  0  0  0  0  0  0  0  0  0  0  0
  154.4617  142.9332  163.5108 H   0  0  0  0  0  0  0  0  0  0  0  0
  152.9044  142.2997  164.0606 H   0  0  0  0  0  0  0  0  0  0  0  0
  151.9978  145.1066  162.1802 H   0  0  0  0  0  0  0  0  0  0  0  0
  151.1968  145.0419  159.8111 H   0  0  0  0  0  0  0  0  0  0  0  0
  151.2346  143.9564  157.6811 H   0  0  0  0  0  0  0  0  0  0  0  0
  152.3687  142.6595  157.3918 H   0  0  0  0  0  0  0  0  0  0  0  0
  150.7014  140.9572  158.0384 H   0  0  0  0  0  0  0  0  0  0  0  0
  149.5686  142.1817  158.5623 H   0  0  0  0  0  0  0  0  0  0  0  0
  149.7811  142.9121  156.0344 H   0  0  0  0  0  0  0  0  0  0  0  0
  149.7267  141.4287  153.7257 H   0  0  0  0  0  0  0  0  0  0  0  0
  147.7219  142.9879  155.1523 H   0  0  0  0  0  0  0  0  0  0  0  0
  148.1856  143.0721  153.4645 H   0  0  0  0  0  0  0  0  0  0  0  0
  146.0111  141.3949  154.7168 H   0  0  0  0  0  0  0  0  0  0  0  0
  145.9330  142.3291  153.2164 H   0  0  0  0  0  0  0  0  0  0  0  0
  146.3504  139.6851  153.0115 H   0  0  0  0  0  0  0  0  0  0  0  0
  147.4482  140.7361  152.1008 H   0  0  0  0  0  0  0  0  0  0  0  0
  152.9041  141.0847  159.5023 H   0  0  0  0  0  0  0  0  0  0  0  0
  1  2  1  0  0  0  0
  1 18  1  0  0  0  0
  1 19  1  0  0  0  0
  1 20  1  0  0  0  0
  2 17  1  0  0  0  0
  2  3  2  0  0  0  0
  3  4  1  0  0  0  0
  3 21  1  0  0  0  0
  4  5  2  0  0  0  0
  4 22  1  0  0  0  0
  5  6  1  0  0  0  0
  5 16  1  0  0  0  0
  6  7  1  0  0  0  0
  6 23  1  0  0  0  0
  6 24  1  0  0  0  0
  7  8  1  0  0  0  0
  7 25  1  0  0  0  0
  7 26  1  0  0  0  0
  8  9  1  0  0  0  0
  8 27  1  0  0  0  0
  9 10  2  0  0  0  0
  9 11  1  0  0  0  0
 11 15  1  0  0  0  0
 11 12  1  0  0  0  0
 11 28  1  0  0  0  0
 12 13  1  0  0  0  0
 12 29  1  0  0  0  0
 12 30  1  0  0  0  0
 13 14  1  0  0  0  0
 13 31  1  0  0  0  0
 13 32  1  0  0  0  0
 14 15  1  0  0  0  0
 14 33  1  0  0  0  0
 14 34  1  0  0  0  0
 16 17  2  0  0  0  0
 16 35  1  0  0  0  0
M  END
> <s_m_source_file>
AV-unprocessed.smi

> <i_m_source_file_index>
3199

> <i_lp_mmshare_version>
43012

> <i_f3d_flags>
0

> <s_epik_input>
W0NIM11jMVtjSF1bY0hdYyhbY0hdbjEpW0NIMl1bQ0gyXVtOSF1DKD1PKVtDQEBIXTJbQ0gyXVtDSDJdW0NIMl1PMg==

> <s_epik_cmdline>
J2VwaWtfcHl0aG9uJywgJy1waCcsICc3LjAnLCAnLXRuJywgJzgnLCAnLW1hJywgJzIwMCcsICctbWV0YWxfYmluZGluZycsICctaW1hZScsICc8aW5maWxlLm1hZT4nLCAnLW9tYWUnLCAnPG91dGZpbGUubWFlPic=

> <r_epik_Ionization_Penalty>
0.0519155

> <r_epik_Ionization_Penalty_Charging>
0

> <r_epik_Ionization_Penalty_Neutral>
0.0519155

> <r_epik_State_Penalty>
0.0445047

> <r_epik_Charging_Adjusted_Penalty>
0.0445047

> <i_epik_Tot_Q>
0

> <i_epik_Tot_abs_Q>
0

> <r_epik_Metal_State_Penalty>
0.0408967

> <b_epik_Metal_Only>
0

> <s_lp_Force_Field>
OPLS_2005

> <r_lp_Energy>
17.3487

> <b_lp_Chiralities_Consistent>
1

> <s_lp_Variant>
AV-unprocessed.smi:3199-1

> <Gold.Version>
5.8.1

> <Gold.Id.Protein>
6NUR|6NUR_protein|mol2

> <Gold.PLP.Fitness>
42.7706

> <Gold.PLP.PLP>
-40.8294

> <Gold.PLP.part.hbond>
-1.0000

> <Gold.PLP.part.metal>
0.0000

> <Gold.PLP.part.buried>
-3.1579

> <Gold.PLP.part.nonpolar>
-36.9592

> <Gold.PLP.part.repulsive>
1.0875

> <Gold.PLP.ligand.clash>
0.0000

> <Gold.PLP.ligand.torsion>
0.5409

> <Gold.PLP.Chemscore.Hbond>
1.0000

> <Gold.PLP.Chemscore.CHOScore>
0.0000

> <Gold.PLP.Chemscore.Metal>
0.0000

> <Gold.Chemscore.Hbonds>
donor molecule, donor type, donor heavy atom, donor atom, acceptor molecule, acceptor atom, score
      L1  H     8    27       P1  8028  0.94

> <Gold.PLP.Chemscore.Internal.Correction>
0.0230

> <Gold.Rescore>
     Score         DG    S(hbond)    S(metal)    S(lipo)     H(rot)  DE(clash)    DE(int)     intcor
     16.65     -18.71       0.99        0.00     117.37       1.49       1.36       0.70       ----

> <Gold.Chemscore.Fitness>
16.6488

> <Gold.Chemscore.DG>
-18.7112

> <Gold.Chemscore.ZeroCoef>
-5.4800

> <Gold.Chemscore.Hbond>
0.9890

> <Gold.Chemscore.Metal>
0.0000

> <Gold.Chemscore.Lipo>
117.3653

> <Gold.Chemscore.Internal_Hbond>
0.0000

> <Gold.Chemscore.DEClash>
1.3580

> <Gold.Chemscore.DEInternal>
0.7044

> <Gold.Chemscore.Rot>
1.4859

> <Gold.Chemscore.Internal.Correction>
   9.000000E+99

> <Gold.Chemscore.Hbonds>
donor molecule, donor type, donor heavy atom, donor atom, acceptor molecule, acceptor atom, score
      L1  H     8    27       P1  8028  0.87

> <Gold.Chemscore.Hbond.Weighted>
-3.3033

> <Gold.Chemscore.Metal.Weighted>
-0.0000

> <Gold.Chemscore.Lipo.Weighted>
-13.7317

> <Gold.Chemscore.Internal_Hbond.Weighted>
0.0000

> <Gold.Chemscore.DEClash.Weighted>
1.3580

> <Gold.Chemscore.DEInternal.Weighted>
0.7044

> <Gold.Chemscore.Rot.Weighted>
3.8039

> <Gold.Chemscore.Internal.Correction.Weighted>
   9.000000E+99

> <Gold.Protein.RotatedTorsions>
[ 6907 6896 6895 6894 ] final  175.18 input  -60.11 | X-H torsion
[ 7974 7965 7964 7962 ] final -157.46 input  175.53 | X-H torsion
[ 8008 7997 7996 7995 ] final  -54.21 input   59.86 | X-H torsion
[ 10167 10162 10161 10158 ] final -162.71 input  -65.29 | X-H torsion
[ 10718 10713 10712 10709 ] final -111.55 input   66.30 | X-H torsion
[ 10763 10752 10751 10750 ] final   64.58 input  -60.55 | X-H torsion
[ 11005 11000 10999 10996 ] final  108.47 input  -57.11 | X-H torsion

> <Gold.Protein.ActiveResidues>
 VAL166  LYS551  ARG553  GLY616  TRP617  ASP618  TYR619  PRO620  LYS621  CYS622 
 ASP623  PHE694  ASN695  SER759  ASP760  ASP761  ALA762  ILE779  LEU786  VAL792 
 PHE793  MET794  SER795  GLU796  ALA797  LYS798  CYS799  TRP800  GLU811  SER814 

> <Gold.Protein.RotatedAtoms>
  151.7404  133.3322  159.3364 H   0  0  0  0  0  0  0  0  0  0  0  0  # atno 6907 bound_to 6896
  150.7575  134.6283  159.6182 H   0  0  0  0  0  0  0  0  0  0  0  0  # atno 6908 bound_to 6896
  152.3534  134.6976  160.0281 H   0  0  0  0  0  0  0  0  0  0  0  0  # atno 6909 bound_to 6896
  144.7547  140.3966  143.6021 H   0  0  0  0  0  0  0  0  0  0  0  0  # atno 7974 bound_to 7965
  154.4156  140.1182  156.5278 H   0  0  0  0  0  0  0  0  0  0  0  0  # atno 8008 bound_to 7997
  155.6637  140.3496  155.4773 H   0  0  0  0  0  0  0  0  0  0  0  0  # atno 8009 bound_to 7997
  155.9692  140.1138  157.0817 H   0  0  0  0  0  0  0  0  0  0  0  0  # atno 8010 bound_to 7997
  139.6373  144.0326  152.2064 H   0  0  0  0  0  0  0  0  0  0  0  0  # atno 10167 bound_to 10162
  156.0653  130.5873  150.8388 H   0  0  0  0  0  0  0  0  0  0  0  0  # atno 10718 bound_to 10713
  153.0061  135.5388  154.6532 H   0  0  0  0  0  0  0  0  0  0  0  0  # atno 10763 bound_to 10752
  154.5759  135.2845  155.0783 H   0  0  0  0  0  0  0  0  0  0  0  0  # atno 10764 bound_to 10752
  154.1931  135.6497  153.5118 H   0  0  0  0  0  0  0  0  0  0  0  0  # atno 10765 bound_to 10752
  139.8845  134.9431  156.5978 H   0  0  0  0  0  0  0  0  0  0  0  0  # atno 11005 bound_to 11000
  145.6820  139.1620  143.2695 LP  0  0  0  0  0  0  0  0  0  0  0  0  # atno 17320 bound_to 7965
  146.1543  140.6881  142.9307 LP  0  0  0  0  0  0  0  0  0  0  0  0  # atno 17321 bound_to 7965
  140.0007  144.6295  150.7732 LP  0  0  0  0  0  0  0  0  0  0  0  0  # atno 17342 bound_to 10162
  140.7472  143.2902  151.3351 LP  0  0  0  0  0  0  0  0  0  0  0  0  # atno 17343 bound_to 10162
  157.5691  131.0946  150.9445 LP  0  0  0  0  0  0  0  0  0  0  0  0  # atno 17370 bound_to 10713
  156.9665  130.5475  149.5288 LP  0  0  0  0  0  0  0  0  0  0  0  0  # atno 17371 bound_to 10713
  140.7907  133.8585  155.8643 LP  0  0  0  0  0  0  0  0  0  0  0  0  # atno 17394 bound_to 11000
  140.9680  134.1569  157.4600 LP  0  0  0  0  0  0  0  0  0  0  0  0  # atno 17395 bound_to 11000

$$$$
