AV-unprocessed.smi:157|AV-procd|sdf|1302|dock1
  -GOLD-   2262018593D 1   1.00000     0.00000
 Structure written by MMmdl.
 35 37  0  0  0  0  0  0  0  0  1 V2000
  155.0741  137.6337  156.2239 O   0  0  0  0  0  0  0  0  0  0  0  0
  155.3735  137.4457  157.5912 C   0  0  0  0  0  0  0  0  0  0  0  0
  154.1061  137.6108  158.4432 C   0  0  2  0  0  0  0  0  0  0  0  0
  153.6647  138.9622  158.3430 O   0  0  0  0  0  0  0  0  0  0  0  0
  153.0755  139.3048  159.5513 C   0  0  2  0  0  0  0  0  0  0  0  0
  153.0637  140.7946  159.6859 N   0  0  0  0  0  0  0  0  0  0  0  0
  153.6058  141.5078  160.6819 C   0  0  0  0  0  0  0  0  0  0  0  0
  153.4559  142.8165  160.5651 N   0  0  0  0  0  0  0  0  0  0  0  0
  152.7354  142.9676  159.3814 C   0  0  0  0  0  0  0  0  0  0  0  0
  152.4721  141.7237  158.8257 C   0  0  0  0  0  0  0  0  0  0  0  0
  151.8194  141.2520  157.7029 N   0  0  0  0  0  0  0  0  0  0  0  0
  150.9919  142.0464  157.1006 C   0  0  0  0  0  0  0  0  0  0  0  0
  150.6965  143.3811  157.3389 N   0  0  0  0  0  0  0  0  0  0  0  0
  151.7117  144.4040  157.5225 C   0  0  0  0  0  0  0  0  0  0  0  0
  152.3989  144.3468  158.8925 C   0  0  1  0  0  0  0  0  0  0  0  0
  151.5569  144.9362  159.8624 O   0  0  0  0  0  0  0  0  0  0  0  0
  153.9589  138.6710  160.6142 C   0  0  0  0  0  0  0  0  0  0  0  0
  154.3216  137.3512  159.9519 C   0  0  1  0  0  0  0  0  0  0  0  0
  153.4556  136.3283  160.4029 O   0  0  0  0  0  0  0  0  0  0  0  0
  153.3083  136.9781  158.0490 H   0  0  0  0  0  0  0  0  0  0  0  0
  152.0351  138.9776  159.5814 H   0  0  0  0  0  0  0  0  0  0  0  0
  153.3033  144.9543  158.8498 H   0  0  0  0  0  0  0  0  0  0  0  0
  155.3487  137.0691  160.1864 H   0  0  0  0  0  0  0  0  0  0  0  0
  154.9048  138.5519  156.0774 H   0  0  0  0  0  0  0  0  0  0  0  0
  155.8189  136.4615  157.7397 H   0  0  0  0  0  0  0  0  0  0  0  0
  156.1197  138.1856  157.8820 H   0  0  0  0  0  0  0  0  0  0  0  0
  154.1270  141.0569  161.5136 H   0  0  0  0  0  0  0  0  0  0  0  0
  150.4161  141.6539  156.2613 H   0  0  0  0  0  0  0  0  0  0  0  0
  149.8588  143.7676  156.9282 H   0  0  0  0  0  0  0  0  0  0  0  0
  152.4640  144.2559  156.7462 H   0  0  0  0  0  0  0  0  0  0  0  0
  151.2816  145.3902  157.3452 H   0  0  0  0  0  0  0  0  0  0  0  0
  151.1438  145.6921  159.4734 H   0  0  0  0  0  0  0  0  0  0  0  0
  154.8526  139.2822  160.7497 H   0  0  0  0  0  0  0  0  0  0  0  0
  153.4380  138.5805  161.5683 H   0  0  0  0  0  0  0  0  0  0  0  0
  153.6793  136.1209  161.2975 H   0  0  0  0  0  0  0  0  0  0  0  0
  1  2  1  0  0  0  0
  1 24  1  0  0  0  0
  2  3  1  0  0  0  0
  2 25  1  0  0  0  0
  2 26  1  0  0  0  0
  3 20  1  0  0  0  0
  3 18  1  0  0  0  0
  3  4  1  0  0  0  0
  4  5  1  0  0  0  0
  5 21  1  0  0  0  0
  5  6  1  0  0  0  0
  5 17  1  0  0  0  0
  6 10  1  0  0  0  0
  6  7  1  0  0  0  0
  7  8  2  0  0  0  0
  7 27  1  0  0  0  0
  8  9  1  0  0  0  0
  9 15  1  0  0  0  0
  9 10  2  0  0  0  0
 10 11  1  0  0  0  0
 11 12  2  0  0  0  0
 12 13  1  0  0  0  0
 12 28  1  0  0  0  0
 13 14  1  0  0  0  0
 13 29  1  0  0  0  0
 14 15  1  0  0  0  0
 14 30  1  0  0  0  0
 14 31  1  0  0  0  0
 15 22  1  0  0  0  0
 15 16  1  0  0  0  0
 16 32  1  0  0  0  0
 17 18  1  0  0  0  0
 17 33  1  0  0  0  0
 17 34  1  0  0  0  0
 18 23  1  0  0  0  0
 18 19  1  0  0  0  0
 19 35  1  0  0  0  0
M  END
> <s_m_source_file>
AV-unprocessed.smi

> <i_m_source_file_index>
157

> <i_lp_mmshare_version>
43012

> <i_f3d_flags>
0

> <s_epik_input>
W09IXVtDSDJdW0NASF0xT1tDQEhdKFtDSDJdW0NAQEhdMVtPSF0pbihbY0hdbjIpYyhjMjMpTj1bQ0hdW05IXVtDSDJdW0NASF0zW09IXQ==

> <s_epik_cmdline>
J2VwaWtfcHl0aG9uJywgJy1waCcsICc3LjAnLCAnLXRuJywgJzgnLCAnLW1hJywgJzIwMCcsICctbWV0YWxfYmluZGluZycsICctaW1hZScsICc8aW5maWxlLm1hZT4nLCAnLW9tYWUnLCAnPG91dGZpbGUubWFlPic=

> <r_lp_tautomer_probability>
1

> <r_epik_Ionization_Penalty>
0.0357149

> <r_epik_Ionization_Penalty_Charging>
0.0355056

> <r_epik_Ionization_Penalty_Neutral>
0.000209255

> <r_epik_State_Penalty>
0.0296046

> <r_epik_Charging_Adjusted_Penalty>
0.0651102

> <i_epik_Tot_Q>
0

> <i_epik_Tot_abs_Q>
0

> <r_epik_Metal_State_Penalty>
3.03559e-05

> <b_epik_Metal_Only>
0

> <s_epik_Chemistry_Notes>
This compound has an imine and may undergo hydrolysis. This compound contains an acetal/aminal-like group ( X-CH(R)-Y where X, Y are N, S, or O) that may be acid/base labile, releasing an aldehyde.

> <s_lp_Force_Field>
OPLS_2005

> <r_lp_Energy>
43.7304

> <b_lp_Chiralities_Consistent>
1

> <s_lp_Variant>
AV-unprocessed.smi:157-12

> <Gold.Version>
5.8.1

> <Gold.Id.Protein>
6NUR|6NUR_protein|mol2

> <Gold.PLP.Fitness>
44.2561

> <Gold.PLP.PLP>
-35.3569

> <Gold.PLP.part.hbond>
-4.0000

> <Gold.PLP.part.metal>
0.0000

> <Gold.PLP.part.buried>
-4.4556

> <Gold.PLP.part.nonpolar>
-25.8442

> <Gold.PLP.part.repulsive>
0.0000

> <Gold.PLP.ligand.clash>
0.0000

> <Gold.PLP.ligand.torsion>
0.0638

> <Gold.PLP.Chemscore.Hbond>
3.0000

> <Gold.PLP.Chemscore.CHOScore>
0.0000

> <Gold.PLP.Chemscore.Metal>
0.0000

> <Gold.Chemscore.Hbonds>
donor molecule, donor type, donor heavy atom, donor atom, acceptor molecule, acceptor atom, score
      L1  H    13    29       P1  8028  1.00
      P1  H  6896  6909       L1    19  1.00
      P1  H  7997  8009       L1     4  0.99

> <Gold.PLP.Chemscore.Internal.Correction>
0.0269

> <Gold.Rescore>
     Score         DG    S(hbond)    S(metal)    S(lipo)     H(rot)  DE(clash)    DE(int)     intcor
     11.13     -11.15       2.46        0.00      57.76       3.64       0.00       0.02       ----

> <Gold.Chemscore.Fitness>
11.1287

> <Gold.Chemscore.DG>
-11.1543

> <Gold.Chemscore.ZeroCoef>
-5.4800

> <Gold.Chemscore.Hbond>
2.4628

> <Gold.Chemscore.Metal>
0.0000

> <Gold.Chemscore.Lipo>
57.7550

> <Gold.Chemscore.Internal_Hbond>
0.0000

> <Gold.Chemscore.DEClash>
0.0015

> <Gold.Chemscore.DEInternal>
0.0242

> <Gold.Chemscore.Rot>
3.6362

> <Gold.Chemscore.Internal.Correction>
   9.000000E+99

> <Gold.Chemscore.Hbonds>
donor molecule, donor type, donor heavy atom, donor atom, acceptor molecule, acceptor atom, score
      L1  H    13    29       P1  8028  0.96
      P1  H  6896  6909       L1    19  0.30
      P1  H  7997  8009       L1     4  0.63

> <Gold.Chemscore.Hbond.Weighted>
-8.2257

> <Gold.Chemscore.Metal.Weighted>
-0.0000

> <Gold.Chemscore.Lipo.Weighted>
-6.7573

> <Gold.Chemscore.Internal_Hbond.Weighted>
0.0000

> <Gold.Chemscore.DEClash.Weighted>
0.0015

> <Gold.Chemscore.DEInternal.Weighted>
0.0242

> <Gold.Chemscore.Rot.Weighted>
9.3087

> <Gold.Chemscore.Internal.Correction.Weighted>
   9.000000E+99

> <Gold.Protein.RotatedTorsions>
[ 6907 6896 6895 6894 ] final  148.51 input  -60.11 | X-H torsion
[ 7974 7965 7964 7962 ] final -122.27 input  175.53 | X-H torsion
[ 8008 7997 7996 7995 ] final  123.53 input   59.86 | X-H torsion
[ 10167 10162 10161 10158 ] final   47.11 input  -65.29 | X-H torsion
[ 10718 10713 10712 10709 ] final   18.91 input   66.30 | X-H torsion
[ 10763 10752 10751 10750 ] final -179.39 input  -60.55 | X-H torsion
[ 11005 11000 10999 10996 ] final  -46.27 input  -57.11 | X-H torsion

> <Gold.Protein.ActiveResidues>
 VAL166  LYS551  ARG553  GLY616  TRP617  ASP618  TYR619  PRO620  LYS621  CYS622 
 ASP623  PHE694  ASN695  SER759  ASP760  ASP761  ALA762  ILE779  LEU786  VAL792 
 PHE793  MET794  SER795  GLU796  ALA797  LYS798  CYS799  TRP800  GLU811  SER814 

> <Gold.Protein.RotatedAtoms>
  152.1405  133.4461  159.4764 H   0  0  0  0  0  0  0  0  0  0  0  0  # atno 6907 bound_to 6896
  150.6885  134.2311  159.4444 H   0  0  0  0  0  0  0  0  0  0  0  0  # atno 6908 bound_to 6896
  152.0201  134.9827  160.0621 H   0  0  0  0  0  0  0  0  0  0  0  0  # atno 6909 bound_to 6896
  145.0313  140.8070  143.4322 H   0  0  0  0  0  0  0  0  0  0  0  0  # atno 7974 bound_to 7965
  156.2769  140.2760  156.1642 H   0  0  0  0  0  0  0  0  0  0  0  0  # atno 8008 bound_to 7997
  155.0721  140.0387  157.2630 H   0  0  0  0  0  0  0  0  0  0  0  0  # atno 8009 bound_to 7997
  154.7031  140.2653  155.6706 H   0  0  0  0  0  0  0  0  0  0  0  0  # atno 8010 bound_to 7997
  140.3070  144.2866  150.6207 H   0  0  0  0  0  0  0  0  0  0  0  0  # atno 10167 bound_to 10162
  157.1030  130.6476  149.5877 H   0  0  0  0  0  0  0  0  0  0  0  0  # atno 10718 bound_to 10713
  154.5356  135.2802  155.1141 H   0  0  0  0  0  0  0  0  0  0  0  0  # atno 10763 bound_to 10752
  154.2644  135.6315  153.5290 H   0  0  0  0  0  0  0  0  0  0  0  0  # atno 10764 bound_to 10752
  152.9967  135.5613  154.5882 H   0  0  0  0  0  0  0  0  0  0  0  0  # atno 10765 bound_to 10752
  141.0568  133.6723  156.3131 H   0  0  0  0  0  0  0  0  0  0  0  0  # atno 11005 bound_to 11000
  145.1767  139.2374  143.5314 LP  0  0  0  0  0  0  0  0  0  0  0  0  # atno 17320 bound_to 7965
  146.3499  140.1531  142.8592 LP  0  0  0  0  0  0  0  0  0  0  0  0  # atno 17321 bound_to 7965
  140.5601  143.2193  151.7779 LP  0  0  0  0  0  0  0  0  0  0  0  0  # atno 17342 bound_to 10162
  139.4902  144.4360  151.9819 LP  0  0  0  0  0  0  0  0  0  0  0  0  # atno 17343 bound_to 10162
  155.9869  130.4905  150.7100 LP  0  0  0  0  0  0  0  0  0  0  0  0  # atno 17370 bound_to 10713
  157.4624  131.0884  151.0731 LP  0  0  0  0  0  0  0  0  0  0  0  0  # atno 17371 bound_to 10713
  140.5948  134.5614  157.5506 LP  0  0  0  0  0  0  0  0  0  0  0  0  # atno 17394 bound_to 11000
  139.9397  134.7809  156.0710 LP  0  0  0  0  0  0  0  0  0  0  0  0  # atno 17395 bound_to 11000

$$$$
