AV-unprocessed.smi:209|AV-procd|sdf|1608|dock6
  -GOLD-   2262019523D 1   1.00000     0.00000
 Structure written by MMmdl.
 48 52  0  0  0  0  0  0  0  0  1 V2000
  150.6087  144.6187  158.8562 O   0  0  0  0  0  0  0  0  0  0  0  0
  150.6680  143.4940  158.3644 C   0  0  0  0  0  0  0  0  0  0  0  0
  150.0833  143.0827  157.2329 N   0  0  0  0  0  0  0  0  0  0  0  0
  150.4334  141.7077  156.8899 C   0  0  0  0  0  0  0  0  0  0  0  0
  151.6951  141.4861  157.7385 C   0  0  1  0  0  0  0  0  0  0  0  0
  151.4127  142.3225  158.9778 C   0  0  1  0  0  0  0  0  0  0  0  0
  152.7136  142.5341  159.7540 C   0  0  0  0  0  0  0  0  0  0  0  0
  153.2255  141.1273  160.1451 C   0  0  0  0  0  0  0  0  0  0  0  0
  153.3032  140.1548  158.9364 C   0  0  0  0  0  0  0  0  0  0  0  0
  152.0630  140.1344  158.1454 N   0  0  0  0  0  0  0  0  0  0  0  0
  152.0808  139.2454  157.1277 C   0  0  0  0  0  0  0  0  0  0  0  0
  152.9518  139.4007  156.0958 N   0  0  0  0  0  0  0  0  0  0  0  0
  152.9523  138.5240  155.0868 C   0  0  0  0  0  0  0  0  0  0  0  0
  152.1799  137.4483  154.9144 N   0  0  0  0  0  0  0  0  0  0  0  0
  151.3027  137.2961  155.9482 C   0  0  0  0  0  0  0  0  0  0  0  0
  151.1877  138.1440  157.0844 C   0  0  0  0  0  0  0  0  0  0  0  0
  150.1848  137.6829  157.9263 N   0  0  0  0  0  0  0  0  0  0  0  0
  149.7339  136.6162  157.3239 C   0  0  0  0  0  0  0  0  0  0  0  0
  150.3423  136.3146  156.1254 N   0  0  0  0  0  0  0  0  0  0  0  0
  150.0410  135.1902  155.2522 C   0  0  0  0  0  0  0  0  0  0  0  0
  150.4126  133.8200  155.8491 C   0  0  0  0  0  0  0  0  0  0  0  0
  150.1302  132.7308  154.7942 C   0  0  0  0  0  0  0  0  0  0  0  0
  150.4308  131.4315  155.2637 O   0  0  0  0  0  0  0  0  0  0  0  0
  151.7865  133.7648  156.5329 C   0  0  0  0  0  0  0  0  0  0  0  0
  151.2233  133.2464  157.7579 O   0  0  0  0  0  0  0  0  0  0  0  0
  149.8957  133.5355  157.2669 C   0  0  0  0  0  0  0  0  0  0  0  0
  152.5423  141.9199  157.2016 H   0  0  0  0  0  0  0  0  0  0  0  0
  150.6940  141.8095  159.6206 H   0  0  0  0  0  0  0  0  0  0  0  0
  149.5238  143.6724  156.6337 H   0  0  0  0  0  0  0  0  0  0  0  0
  149.6210  141.0418  157.1855 H   0  0  0  0  0  0  0  0  0  0  0  0
  150.6216  141.5854  155.8229 H   0  0  0  0  0  0  0  0  0  0  0  0
  153.4504  143.0555  159.1415 H   0  0  0  0  0  0  0  0  0  0  0  0
  152.5430  143.1411  160.6436 H   0  0  0  0  0  0  0  0  0  0  0  0
  154.2018  141.2043  160.6240 H   0  0  0  0  0  0  0  0  0  0  0  0
  152.5535  140.7032  160.8925 H   0  0  0  0  0  0  0  0  0  0  0  0
  154.1361  140.4528  158.2979 H   0  0  0  0  0  0  0  0  0  0  0  0
  153.5254  139.1472  159.2902 H   0  0  0  0  0  0  0  0  0  0  0  0
  153.6743  138.7118  154.3057 H   0  0  0  0  0  0  0  0  0  0  0  0
  148.9392  136.0170  157.7430 H   0  0  0  0  0  0  0  0  0  0  0  0
  148.9801  135.2218  155.0007 H   0  0  0  0  0  0  0  0  0  0  0  0
  150.5700  135.3540  154.3124 H   0  0  0  0  0  0  0  0  0  0  0  0
  149.0808  132.7308  154.4992 H   0  0  0  0  0  0  0  0  0  0  0  0
  150.7133  132.9064  153.8896 H   0  0  0  0  0  0  0  0  0  0  0  0
  149.7395  131.1541  155.8452 H   0  0  0  0  0  0  0  0  0  0  0  0
  152.4940  133.0754  156.0710 H   0  0  0  0  0  0  0  0  0  0  0  0
  152.2465  134.7425  156.6839 H   0  0  0  0  0  0  0  0  0  0  0  0
  149.4660  134.4032  157.7687 H   0  0  0  0  0  0  0  0  0  0  0  0
  149.2262  132.6773  157.3359 H   0  0  0  0  0  0  0  0  0  0  0  0
  1  2  2  0  0  0  0
  2  6  1  0  0  0  0
  2  3  1  0  0  0  0
  3  4  1  0  0  0  0
  3 29  1  0  0  0  0
  4  5  1  0  0  0  0
  4 30  1  0  0  0  0
  4 31  1  0  0  0  0
  5 27  1  0  0  0  0
  5 10  1  0  0  0  0
  5  6  1  0  0  0  0
  6 28  1  0  0  0  0
  6  7  1  0  0  0  0
  7  8  1  0  0  0  0
  7 32  1  0  0  0  0
  7 33  1  0  0  0  0
  8  9  1  0  0  0  0
  8 34  1  0  0  0  0
  8 35  1  0  0  0  0
  9 10  1  0  0  0  0
  9 36  1  0  0  0  0
  9 37  1  0  0  0  0
 10 11  1  0  0  0  0
 11 16  1  0  0  0  0
 11 12  2  0  0  0  0
 12 13  1  0  0  0  0
 13 14  2  0  0  0  0
 13 38  1  0  0  0  0
 14 15  1  0  0  0  0
 15 19  1  0  0  0  0
 15 16  2  0  0  0  0
 16 17  1  0  0  0  0
 17 18  2  0  0  0  0
 18 19  1  0  0  0  0
 18 39  1  0  0  0  0
 19 20  1  0  0  0  0
 20 21  1  0  0  0  0
 20 40  1  0  0  0  0
 20 41  1  0  0  0  0
 21 26  1  0  0  0  0
 21 22  1  0  0  0  0
 21 24  1  0  0  0  0
 22 23  1  0  0  0  0
 22 42  1  0  0  0  0
 22 43  1  0  0  0  0
 23 44  1  0  0  0  0
 24 25  1  0  0  0  0
 24 45  1  0  0  0  0
 24 46  1  0  0  0  0
 25 26  1  0  0  0  0
 26 47  1  0  0  0  0
 26 48  1  0  0  0  0
M  END
> <s_m_source_file>
AV-unprocessed.smi

> <i_m_source_file_index>
209

> <i_lp_mmshare_version>
43012

> <i_f3d_flags>
0

> <s_epik_input>
W0NIMl0xW05IXUMoPU8pW0NAQEhdKFtDQEBIXTEyKVtDSDJdW0NIMl1bQ0gyXU4yYyhuW2NIXW4zKWMoYzM0KW5bY0hdbjRbQ0gyXUM1KFtDSDJdW09IXSlbQ0gyXU9bQ0gyXTU=

> <s_epik_cmdline>
J2VwaWtfcHl0aG9uJywgJy1waCcsICc3LjAnLCAnLXRuJywgJzgnLCAnLW1hJywgJzIwMCcsICctbWV0YWxfYmluZGluZycsICctaW1hZScsICc8aW5maWxlLm1hZT4nLCAnLW9tYWUnLCAnPG91dGZpbGUubWFlPic=

> <r_lp_tautomer_probability>
1

> <r_epik_Ionization_Penalty>
0.00113306

> <r_epik_Ionization_Penalty_Charging>
0

> <r_epik_Ionization_Penalty_Neutral>
0.00113306

> <r_epik_State_Penalty>
0.000624042

> <r_epik_Charging_Adjusted_Penalty>
0.000624042

> <i_epik_Tot_Q>
0

> <i_epik_Tot_abs_Q>
0

> <r_epik_Metal_State_Penalty>
-0

> <b_epik_Metal_Only>
0

> <s_lp_Force_Field>
OPLS_2005

> <r_lp_Energy>
56.9818

> <b_lp_Chiralities_Consistent>
1

> <s_lp_Variant>
AV-unprocessed.smi:209-2

> <Gold.Version>
5.8.1

> <Gold.Id.Protein>
6NUR|6NUR_protein|mol2

> <Gold.PLP.Fitness>
49.5413

> <Gold.PLP.PLP>
-38.3508

> <Gold.PLP.part.hbond>
-3.9409

> <Gold.PLP.part.metal>
0.0000

> <Gold.PLP.part.buried>
-7.8367

> <Gold.PLP.part.nonpolar>
-27.2322

> <Gold.PLP.part.repulsive>
0.2229

> <Gold.PLP.ligand.clash>
0.0000

> <Gold.PLP.ligand.torsion>
0.2551

> <Gold.PLP.Chemscore.Hbond>
3.7680

> <Gold.PLP.Chemscore.CHOScore>
0.0000

> <Gold.PLP.Chemscore.Metal>
0.0000

> <Gold.Chemscore.Hbonds>
donor molecule, donor type, donor heavy atom, donor atom, acceptor molecule, acceptor atom, score
      L1  H     3    29       P1  8028  1.00
      P1  H  6896  6907       L1    25  0.64
      P1  H  7997  8010       L1    12  1.00
      P1  H 10752 10765       L1    14  0.77

> <Gold.PLP.Chemscore.Internal.Correction>
0.3967

> <Gold.Rescore>
     Score         DG    S(hbond)    S(metal)    S(lipo)     H(rot)  DE(clash)    DE(int)     intcor
     19.04     -19.39       3.50        0.00      77.34       2.66       0.02       0.33       ----

> <Gold.Chemscore.Fitness>
19.0385

> <Gold.Chemscore.DG>
-19.3908

> <Gold.Chemscore.ZeroCoef>
-5.4800

> <Gold.Chemscore.Hbond>
3.4960

> <Gold.Chemscore.Metal>
0.0000

> <Gold.Chemscore.Lipo>
77.3422

> <Gold.Chemscore.Internal_Hbond>
0.0000

> <Gold.Chemscore.DEClash>
0.0237

> <Gold.Chemscore.DEInternal>
0.3286

> <Gold.Chemscore.Rot>
2.6620

> <Gold.Chemscore.Internal.Correction>
   9.000000E+99

> <Gold.Chemscore.Hbonds>
donor molecule, donor type, donor heavy atom, donor atom, acceptor molecule, acceptor atom, score
      L1  H     3    29       P1  8028  0.95
      P1  H  6896  6907       L1    25  0.16
      P1  H  7997  8010       L1    12  0.64
      P1  H 10752 10765       L1    14  0.48

> <Gold.Chemscore.Hbond.Weighted>
-11.6766

> <Gold.Chemscore.Metal.Weighted>
-0.0000

> <Gold.Chemscore.Lipo.Weighted>
-9.0490

> <Gold.Chemscore.Internal_Hbond.Weighted>
0.0000

> <Gold.Chemscore.DEClash.Weighted>
0.0237

> <Gold.Chemscore.DEInternal.Weighted>
0.3286

> <Gold.Chemscore.Rot.Weighted>
6.8148

> <Gold.Chemscore.Internal.Correction.Weighted>
   9.000000E+99

> <Gold.Protein.RotatedTorsions>
[ 6907 6896 6895 6894 ] final -138.28 input  -60.11 | X-H torsion
[ 7974 7965 7964 7962 ] final -167.25 input  175.53 | X-H torsion
[ 8008 7997 7996 7995 ] final   91.54 input   59.86 | X-H torsion
[ 10167 10162 10161 10158 ] final  112.43 input  -65.29 | X-H torsion
[ 10718 10713 10712 10709 ] final -138.65 input   66.30 | X-H torsion
[ 10763 10752 10751 10750 ] final  173.63 input  -60.55 | X-H torsion
[ 11005 11000 10999 10996 ] final -126.02 input  -57.11 | X-H torsion

> <Gold.Protein.ActiveResidues>
 VAL166  LYS551  ARG553  GLY616  TRP617  ASP618  TYR619  PRO620  LYS621  CYS622 
 ASP623  PHE694  ASN695  SER759  ASP760  ASP761  ALA762  ILE779  LEU786  VAL792 
 PHE793  MET794  SER795  GLU796  ALA797  LYS798  CYS799  TRP800  GLU811  SER814 

> <Gold.Protein.RotatedAtoms>
  151.0331  133.5773  159.2658 H   0  0  0  0  0  0  0  0  0  0  0  0  # atno 6907 bound_to 6896
  151.2847  135.0723  159.9192 H   0  0  0  0  0  0  0  0  0  0  0  0  # atno 6908 bound_to 6896
  152.5349  134.0039  159.7961 H   0  0  0  0  0  0  0  0  0  0  0  0  # atno 6909 bound_to 6896
  144.7227  140.2546  143.6273 H   0  0  0  0  0  0  0  0  0  0  0  0  # atno 7974 bound_to 7965
  156.0250  140.3336  155.7078 H   0  0  0  0  0  0  0  0  0  0  0  0  # atno 8008 bound_to 7997
  155.5968  140.0651  157.2761 H   0  0  0  0  0  0  0  0  0  0  0  0  # atno 8009 bound_to 7997
  154.4330  140.1817  156.1119 H   0  0  0  0  0  0  0  0  0  0  0  0  # atno 8010 bound_to 7997
  139.6536  144.7129  151.2000 H   0  0  0  0  0  0  0  0  0  0  0  0  # atno 10167 bound_to 10162
  156.3018  130.7433  151.1486 H   0  0  0  0  0  0  0  0  0  0  0  0  # atno 10718 bound_to 10713
  154.4428  135.2762  155.1836 H   0  0  0  0  0  0  0  0  0  0  0  0  # atno 10763 bound_to 10752
  154.3695  135.6111  153.5736 H   0  0  0  0  0  0  0  0  0  0  0  0  # atno 10764 bound_to 10752
  152.9842  135.5854  154.4758 H   0  0  0  0  0  0  0  0  0  0  0  0  # atno 10765 bound_to 10752
  140.9715  134.0799  157.3864 H   0  0  0  0  0  0  0  0  0  0  0  0  # atno 11005 bound_to 11000
  145.8195  139.2037  143.1946 LP  0  0  0  0  0  0  0  0  0  0  0  0  # atno 17320 bound_to 7965
  146.0526  140.8053  142.9774 LP  0  0  0  0  0  0  0  0  0  0  0  0  # atno 17321 bound_to 7965
  140.7549  143.6109  150.8606 LP  0  0  0  0  0  0  0  0  0  0  0  0  # atno 17342 bound_to 10162
  139.9760  143.6004  152.2958 LP  0  0  0  0  0  0  0  0  0  0  0  0  # atno 17343 bound_to 10162
  157.7370  131.0557  150.5382 LP  0  0  0  0  0  0  0  0  0  0  0  0  # atno 17370 bound_to 10713
  156.5511  130.4232  149.6107 LP  0  0  0  0  0  0  0  0  0  0  0  0  # atno 17371 bound_to 10713
  139.8914  135.0118  156.6790 LP  0  0  0  0  0  0  0  0  0  0  0  0  # atno 17394 bound_to 11000
  140.7322  133.9049  155.8219 LP  0  0  0  0  0  0  0  0  0  0  0  0  # atno 17395 bound_to 11000

$$$$
