AV-unprocessed.smi:3271|AV-procd|sdf|12517|dock3
  -GOLD-   2272018423D 1   1.00000     0.00000
 Structure written by MMmdl.
 41 41  0  0  0  0  0  0  0  0  1 V2000
  147.3218  132.5000  153.7413 C   0  0  0  0  0  0  0  0  0  0  0  0
  148.5239  133.2137  153.1024 C   0  0  0  0  0  0  0  0  0  0  0  0
  149.5382  133.7943  154.1151 C   0  0  0  0  0  0  0  0  0  0  0  0
  150.0767  132.6826  155.0445 C   0  0  0  0  0  0  0  0  0  0  0  0
  151.1132  133.1616  156.0734 C   0  0  0  0  0  0  0  0  0  0  0  0
  148.9245  134.9499  154.9240 C   0  0  0  0  0  0  0  0  0  0  0  0
  148.8750  134.8917  156.1529 O   0  0  0  0  0  0  0  0  0  0  0  0
  148.4541  135.9874  154.2163 N   0  0  0  0  0  0  0  0  0  0  0  0
  147.7782  137.1535  154.7788 C   0  0  0  0  0  0  0  0  0  0  0  0
  148.1751  138.4859  154.0908 C   0  0  2  0  0  0  0  0  0  0  0  0
  147.2126  139.6086  154.5152 C   0  0  0  0  0  0  0  0  0  0  0  0
  147.9492  138.3187  152.7038 O   0  0  0  0  0  0  0  0  0  0  0  0
  149.6056  138.8920  154.3834 C   0  0  0  0  0  0  0  0  0  0  0  0
  150.0832  140.1109  154.9492 C   0  0  0  0  0  0  0  0  0  0  0  0
  151.4011  140.1524  155.0561 N   0  0  0  0  0  0  0  0  0  0  0  0
  151.8129  138.9627  154.5744 N   0  0  0  0  0  0  0  0  0  0  0  0
  153.2272  138.6589  154.5366 C   0  0  0  0  0  0  0  0  0  0  0  0
  150.7541  138.1814  154.1666 C   0  0  0  0  0  0  0  0  0  0  0  0
  146.5986  132.2061  152.9806 H   0  0  0  0  0  0  0  0  0  0  0  0
  146.8096  133.1475  154.4538 H   0  0  0  0  0  0  0  0  0  0  0  0
  147.6260  131.5949  154.2666 H   0  0  0  0  0  0  0  0  0  0  0  0
  149.0274  132.5285  152.4186 H   0  0  0  0  0  0  0  0  0  0  0  0
  148.1431  134.0252  152.4815 H   0  0  0  0  0  0  0  0  0  0  0  0
  150.3820  134.1848  153.5433 H   0  0  0  0  0  0  0  0  0  0  0  0
  149.2498  132.1966  155.5645 H   0  0  0  0  0  0  0  0  0  0  0  0
  150.5401  131.9057  154.4356 H   0  0  0  0  0  0  0  0  0  0  0  0
  151.4959  132.3214  156.6532 H   0  0  0  0  0  0  0  0  0  0  0  0
  150.6858  133.8755  156.7779 H   0  0  0  0  0  0  0  0  0  0  0  0
  151.9618  133.6396  155.5835 H   0  0  0  0  0  0  0  0  0  0  0  0
  148.5351  135.9490  153.2108 H   0  0  0  0  0  0  0  0  0  0  0  0
  146.6951  137.0203  154.8105 H   0  0  0  0  0  0  0  0  0  0  0  0
  148.0985  137.1884  155.8207 H   0  0  0  0  0  0  0  0  0  0  0  0
  147.2870  139.8117  155.5841 H   0  0  0  0  0  0  0  0  0  0  0  0
  146.1747  139.3469  154.3043 H   0  0  0  0  0  0  0  0  0  0  0  0
  147.4316  140.5394  153.9902 H   0  0  0  0  0  0  0  0  0  0  0  0
  148.5717  138.8492  152.2306 H   0  0  0  0  0  0  0  0  0  0  0  0
  149.5129  140.9682  155.2754 H   0  0  0  0  0  0  0  0  0  0  0  0
  153.3775  137.6095  154.2810 H   0  0  0  0  0  0  0  0  0  0  0  0
  153.6753  138.8528  155.5120 H   0  0  0  0  0  0  0  0  0  0  0  0
  153.7165  139.2812  153.7867 H   0  0  0  0  0  0  0  0  0  0  0  0
  150.9015  137.1953  153.7514 H   0  0  0  0  0  0  0  0  0  0  0  0
  1  2  1  0  0  0  0
  1 19  1  0  0  0  0
  1 20  1  0  0  0  0
  1 21  1  0  0  0  0
  2  3  1  0  0  0  0
  2 22  1  0  0  0  0
  2 23  1  0  0  0  0
  3  4  1  0  0  0  0
  3  6  1  0  0  0  0
  3 24  1  0  0  0  0
  4  5  1  0  0  0  0
  4 25  1  0  0  0  0
  4 26  1  0  0  0  0
  5 27  1  0  0  0  0
  5 28  1  0  0  0  0
  5 29  1  0  0  0  0
  6  7  2  0  0  0  0
  6  8  1  0  0  0  0
  8  9  1  0  0  0  0
  8 30  1  0  0  0  0
  9 10  1  0  0  0  0
  9 31  1  0  0  0  0
  9 32  1  0  0  0  0
 10 11  1  0  0  0  0
 10 12  1  0  0  0  0
 10 13  1  0  0  0  0
 11 33  1  0  0  0  0
 11 34  1  0  0  0  0
 11 35  1  0  0  0  0
 12 36  1  0  0  0  0
 13 18  2  0  0  0  0
 13 14  1  0  0  0  0
 14 15  2  0  0  0  0
 14 37  1  0  0  0  0
 15 16  1  0  0  0  0
 16 17  1  0  0  0  0
 16 18  1  0  0  0  0
 17 38  1  0  0  0  0
 17 39  1  0  0  0  0
 17 40  1  0  0  0  0
 18 41  1  0  0  0  0
M  END
> <s_m_source_file>
AV-unprocessed.smi

> <i_m_source_file_index>
3271

> <i_lp_mmshare_version>
43012

> <i_f3d_flags>
0

> <s_epik_input>
W0NIM11bQ0gyXVtDSF0oW0NIMl1bQ0gzXSlDKD1PKVtOSF1bQ0gyXVtDQEBdKFtDSDNdKShbT0hdKWMxW2NIXW5uKFtDSDNdKVtjSF0x

> <s_epik_cmdline>
J2VwaWtfcHl0aG9uJywgJy1waCcsICc3LjAnLCAnLXRuJywgJzgnLCAnLW1hJywgJzIwMCcsICctbWV0YWxfYmluZGluZycsICctaW1hZScsICc8aW5maWxlLm1hZT4nLCAnLW9tYWUnLCAnPG91dGZpbGUubWFlPic=

> <r_lp_tautomer_probability>
1

> <r_epik_Ionization_Penalty>
6.03488e-05

> <r_epik_Ionization_Penalty_Charging>
0

> <r_epik_Ionization_Penalty_Neutral>
6.03488e-05

> <r_epik_State_Penalty>
-0

> <r_epik_Charging_Adjusted_Penalty>
0

> <i_epik_Tot_Q>
0

> <i_epik_Tot_abs_Q>
0

> <r_epik_Metal_State_Penalty>
-0

> <b_epik_Metal_Only>
0

> <s_lp_Force_Field>
OPLS_2005

> <r_lp_Energy>
0.383254

> <b_lp_Chiralities_Consistent>
1

> <s_lp_Variant>
AV-unprocessed.smi:3271-2

> <Gold.Version>
5.8.1

> <Gold.Id.Protein>
6NUR|6NUR_protein|mol2

> <Gold.PLP.Fitness>
41.9308

> <Gold.PLP.PLP>
-31.4381

> <Gold.PLP.part.hbond>
-3.8271

> <Gold.PLP.part.metal>
0.0000

> <Gold.PLP.part.buried>
-3.6343

> <Gold.PLP.part.nonpolar>
-24.7384

> <Gold.PLP.part.repulsive>
0.0709

> <Gold.PLP.ligand.clash>
0.0000

> <Gold.PLP.ligand.torsion>
0.2752

> <Gold.PLP.Chemscore.Hbond>
2.6000

> <Gold.PLP.Chemscore.CHOScore>
1.0292

> <Gold.PLP.Chemscore.Metal>
0.0000

> <Gold.Chemscore.Hbonds>
donor molecule, donor type, donor heavy atom, donor atom, acceptor molecule, acceptor atom, score
      L1  H     8    30       P1  7948  0.75
      L1  H    12    36       P1  7957  1.00
      P1  H  7989  7998       L1    15  0.38
      L1  C    18    41       P1  7948  0.08
      L1  C    18    41       P1  7949  0.86

> <Gold.PLP.Chemscore.Internal.Correction>
0.1554

> <Gold.Rescore>
     Score         DG    S(hbond)    S(metal)    S(lipo)     H(rot)  DE(clash)    DE(int)     intcor
     13.39     -13.74       1.96        0.00      65.71       2.33       0.00       0.35       ----

> <Gold.Chemscore.Fitness>
13.3888

> <Gold.Chemscore.DG>
-13.7426

> <Gold.Chemscore.ZeroCoef>
-5.4800

> <Gold.Chemscore.Hbond>
1.9610

> <Gold.Chemscore.Metal>
0.0000

> <Gold.Chemscore.Lipo>
65.7088

> <Gold.Chemscore.Internal_Hbond>
0.0000

> <Gold.Chemscore.DEClash>
0.0021

> <Gold.Chemscore.DEInternal>
0.3517

> <Gold.Chemscore.Rot>
2.3341

> <Gold.Chemscore.Internal.Correction>
   9.000000E+99

> <Gold.Chemscore.Hbonds>
donor molecule, donor type, donor heavy atom, donor atom, acceptor molecule, acceptor atom, score
      L1  H     8    30       P1  7948  0.75
      L1  H    12    36       P1  7957  0.97

> <Gold.Chemscore.Hbond.Weighted>
-6.5499

> <Gold.Chemscore.Metal.Weighted>
-0.0000

> <Gold.Chemscore.Lipo.Weighted>
-7.6879

> <Gold.Chemscore.Internal_Hbond.Weighted>
0.0000

> <Gold.Chemscore.DEClash.Weighted>
0.0021

> <Gold.Chemscore.DEInternal.Weighted>
0.3517

> <Gold.Chemscore.Rot.Weighted>
5.9753

> <Gold.Chemscore.Internal.Correction.Weighted>
   9.000000E+99

> <Gold.Protein.RotatedTorsions>
[ 6907 6896 6895 6894 ] final -177.72 input  -60.11 | X-H torsion
[ 7974 7965 7964 7962 ] final -107.01 input  175.53 | X-H torsion
[ 8008 7997 7996 7995 ] final   84.46 input   59.86 | X-H torsion
[ 10167 10162 10161 10158 ] final  -53.99 input  -65.29 | X-H torsion
[ 10718 10713 10712 10709 ] final  -69.71 input   66.30 | X-H torsion
[ 10763 10752 10751 10750 ] final   53.34 input  -60.55 | X-H torsion
[ 11005 11000 10999 10996 ] final  -32.75 input  -57.11 | X-H torsion

> <Gold.Protein.ActiveResidues>
 VAL166  LYS551  ARG553  GLY616  TRP617  ASP618  TYR619  PRO620  LYS621  CYS622 
 ASP623  PHE694  ASN695  SER759  ASP760  ASP761  ALA762  ILE779  LEU786  VAL792 
 PHE793  MET794  SER795  GLU796  ALA797  LYS798  CYS799  TRP800  GLU811  SER814 

> <Gold.Protein.RotatedAtoms>
  151.6256  133.3336  159.3097 H   0  0  0  0  0  0  0  0  0  0  0  0  # atno 6907 bound_to 6896
  150.8083  134.7225  159.6676 H   0  0  0  0  0  0  0  0  0  0  0  0  # atno 6908 bound_to 6896
  152.4179  134.6013  160.0052 H   0  0  0  0  0  0  0  0  0  0  0  0  # atno 6909 bound_to 6896
  145.2106  140.9094  143.3316 H   0  0  0  0  0  0  0  0  0  0  0  0  # atno 7974 bound_to 7965
  155.9374  140.3410  155.6299 H   0  0  0  0  0  0  0  0  0  0  0  0  # atno 8008 bound_to 7997
  155.7082  140.0768  157.2400 H   0  0  0  0  0  0  0  0  0  0  0  0  # atno 8009 bound_to 7997
  154.4096  140.1627  156.2254 H   0  0  0  0  0  0  0  0  0  0  0  0  # atno 8010 bound_to 7997
  140.6455  143.2532  151.4872 H   0  0  0  0  0  0  0  0  0  0  0  0  # atno 10167 bound_to 10162
  156.0442  130.4317  150.2188 H   0  0  0  0  0  0  0  0  0  0  0  0  # atno 10718 bound_to 10713
  152.9794  135.5782  154.4725 H   0  0  0  0  0  0  0  0  0  0  0  0  # atno 10763 bound_to 10752
  154.4286  135.2773  155.1930 H   0  0  0  0  0  0  0  0  0  0  0  0  # atno 10764 bound_to 10752
  154.3648  135.6181  153.5763 H   0  0  0  0  0  0  0  0  0  0  0  0  # atno 10765 bound_to 10752
  140.9578  133.7182  156.1320 H   0  0  0  0  0  0  0  0  0  0  0  0  # atno 11005 bound_to 11000
  144.9859  139.3737  143.6239 LP  0  0  0  0  0  0  0  0  0  0  0  0  # atno 17320 bound_to 7965
  146.3398  139.9021  142.8793 LP  0  0  0  0  0  0  0  0  0  0  0  0  # atno 17321 bound_to 7965
  139.5665  144.2029  152.1773 LP  0  0  0  0  0  0  0  0  0  0  0  0  # atno 17342 bound_to 10162
  140.1313  144.5286  150.6801 LP  0  0  0  0  0  0  0  0  0  0  0  0  # atno 17343 bound_to 10162
  157.0279  130.9999  151.3321 LP  0  0  0  0  0  0  0  0  0  0  0  0  # atno 17370 bound_to 10713
  157.5298  130.8051  149.7904 LP  0  0  0  0  0  0  0  0  0  0  0  0  # atno 17371 bound_to 10713
  140.7511  134.4043  157.5541 LP  0  0  0  0  0  0  0  0  0  0  0  0  # atno 17394 bound_to 11000
  139.8868  134.8900  156.2566 LP  0  0  0  0  0  0  0  0  0  0  0  0  # atno 17395 bound_to 11000

$$$$
