AV-unprocessed.smi:148|AV-procd|sdf|1230|dock1
  -GOLD-   2262018433D 1   1.00000     0.00000
 Structure written by MMmdl.
 63 67  0  0  0  0  0  0  0  0  1 V2000
  150.9217  140.4863  155.4007 O   0  0  0  0  0  0  0  0  0  0  0  0
  151.7419  139.6234  156.1594 C   0  0  0  0  0  0  0  0  0  0  0  0
  151.5539  139.8400  157.6836 C   0  0  2  0  0  0  0  0  0  0  0  0
  150.0523  139.8532  158.0716 C   0  0  0  0  0  0  0  0  0  0  0  0
  149.5744  138.5861  158.5983 N   0  0  0  0  0  0  0  0  0  0  0  0
  150.3296  137.4669  158.8671 C   0  0  0  0  0  0  0  0  0  0  0  0
  149.6659  136.4508  159.3462 N   0  0  0  0  0  0  0  0  0  0  0  0
  148.3502  136.8966  159.3948 C   0  0  0  0  0  0  0  0  0  0  0  0
  147.1148  136.3174  159.8044 C   0  0  0  0  0  0  0  0  0  0  0  0
  146.9671  135.0654  160.2970 N   0  0  0  0  0  0  0  0  0  0  0  0
  147.4870  135.0177  161.6643 C   0  0  0  0  0  0  0  0  0  0  0  0
  147.1349  133.6958  162.3591 C   0  0  0  0  0  0  0  0  0  0  0  0
  147.6187  132.5080  161.5218 C   0  0  0  0  0  0  0  0  0  0  0  0
  147.0217  132.5928  160.1118 C   0  0  0  0  0  0  0  0  0  0  0  0
  147.3646  133.9433  159.4262 C   0  0  1  0  0  0  0  0  0  0  0  0
  146.8014  134.0516  157.9729 C   0  0  1  0  0  0  0  0  0  0  0  0
  147.2504  132.8980  157.0504 C   0  0  0  0  0  0  0  0  0  0  0  0
  145.9789  132.1424  156.6614 C   0  0  0  0  0  0  0  0  0  0  0  0
  144.9011  133.2208  156.6550 C   0  0  0  0  0  0  0  0  0  0  0  0
  145.2577  134.1030  157.8541 C   0  0  2  0  0  0  0  0  0  0  0  0
  144.7781  135.4179  157.6620 O   0  0  0  0  0  0  0  0  0  0  0  0
  145.9987  137.0838  159.7292 N   0  0  0  0  0  0  0  0  0  0  0  0
  146.0746  138.3322  159.2584 C   0  0  0  0  0  0  0  0  0  0  0  0
  147.1484  138.9997  158.8304 N   0  0  0  0  0  0  0  0  0  0  0  0
  148.2756  138.2375  158.9235 C   0  0  0  0  0  0  0  0  0  0  0  0
  152.2513  141.1365  158.1821 C   0  0  1  0  0  0  0  0  0  0  0  0
  151.5617  142.4302  157.7806 C   0  0  0  0  0  0  0  0  0  0  0  0
  152.1732  143.4413  158.7441 C   0  0  0  0  0  0  0  0  0  0  0  0
  152.4454  142.7181  159.9380 O   0  0  0  0  0  0  0  0  0  0  0  0
  152.2977  141.3215  159.7035 C   0  0  0  0  0  0  0  0  0  0  0  0
  150.1513  140.6935  155.9075 H   0  0  0  0  0  0  0  0  0  0  0  0
  151.5357  138.5881  155.8866 H   0  0  0  0  0  0  0  0  0  0  0  0
  152.7635  139.8325  155.8454 H   0  0  0  0  0  0  0  0  0  0  0  0
  152.0080  138.9914  158.1980 H   0  0  0  0  0  0  0  0  0  0  0  0
  149.8554  140.6089  158.8319 H   0  0  0  0  0  0  0  0  0  0  0  0
  149.4449  140.1191  157.2056 H   0  0  0  0  0  0  0  0  0  0  0  0
  151.3974  137.4312  158.7064 H   0  0  0  0  0  0  0  0  0  0  0  0
  148.5708  135.1434  161.6407 H   0  0  0  0  0  0  0  0  0  0  0  0
  147.0854  135.8481  162.2477 H   0  0  0  0  0  0  0  0  0  0  0  0
  147.5843  133.6642  163.3519 H   0  0  0  0  0  0  0  0  0  0  0  0
  146.0554  133.6313  162.5023 H   0  0  0  0  0  0  0  0  0  0  0  0
  148.7079  132.5111  161.4650 H   0  0  0  0  0  0  0  0  0  0  0  0
  147.3310  131.5699  161.9972 H   0  0  0  0  0  0  0  0  0  0  0  0
  147.3898  131.7518  159.5257 H   0  0  0  0  0  0  0  0  0  0  0  0
  145.9438  132.4586  160.1900 H   0  0  0  0  0  0  0  0  0  0  0  0
  148.4515  133.9762  159.3491 H   0  0  0  0  0  0  0  0  0  0  0  0
  147.2089  134.9512  157.5102 H   0  0  0  0  0  0  0  0  0  0  0  0
  147.7023  133.3166  156.1498 H   0  0  0  0  0  0  0  0  0  0  0  0
  148.0012  132.2453  157.4951 H   0  0  0  0  0  0  0  0  0  0  0  0
  146.0704  131.6332  155.7017 H   0  0  0  0  0  0  0  0  0  0  0  0
  145.7460  131.3922  157.4182 H   0  0  0  0  0  0  0  0  0  0  0  0
  144.9703  133.7913  155.7271 H   0  0  0  0  0  0  0  0  0  0  0  0
  143.8928  132.8107  156.7201 H   0  0  0  0  0  0  0  0  0  0  0  0
  144.7774  133.6980  158.7426 H   0  0  0  0  0  0  0  0  0  0  0  0
  143.8829  135.3693  157.3611 H   0  0  0  0  0  0  0  0  0  0  0  0
  145.1416  138.8751  159.2216 H   0  0  0  0  0  0  0  0  0  0  0  0
  153.2736  141.1637  157.8011 H   0  0  0  0  0  0  0  0  0  0  0  0
  151.7276  142.7051  156.7388 H   0  0  0  0  0  0  0  0  0  0  0  0
  150.4860  142.3565  157.9481 H   0  0  0  0  0  0  0  0  0  0  0  0
  153.1153  143.8225  158.3483 H   0  0  0  0  0  0  0  0  0  0  0  0
  151.5154  144.2902  158.9315 H   0  0  0  0  0  0  0  0  0  0  0  0
  151.3619  140.9981  160.1614 H   0  0  0  0  0  0  0  0  0  0  0  0
  153.1119  140.7651  160.1679 H   0  0  0  0  0  0  0  0  0  0  0  0
  1  2  1  0  0  0  0
  1 31  1  0  0  0  0
  2  3  1  0  0  0  0
  2 32  1  0  0  0  0
  2 33  1  0  0  0  0
  3  4  1  0  0  0  0
  3 26  1  0  0  0  0
  3 34  1  0  0  0  0
  4  5  1  0  0  0  0
  4 35  1  0  0  0  0
  4 36  1  0  0  0  0
  5 25  1  0  0  0  0
  5  6  1  0  0  0  0
  6  7  2  0  0  0  0
  6 37  1  0  0  0  0
  7  8  1  0  0  0  0
  8 25  2  0  0  0  0
  8  9  1  0  0  0  0
  9 10  1  0  0  0  0
  9 22  2  0  0  0  0
 10 15  1  0  0  0  0
 10 11  1  0  0  0  0
 11 12  1  0  0  0  0
 11 38  1  0  0  0  0
 11 39  1  0  0  0  0
 12 13  1  0  0  0  0
 12 40  1  0  0  0  0
 12 41  1  0  0  0  0
 13 14  1  0  0  0  0
 13 42  1  0  0  0  0
 13 43  1  0  0  0  0
 14 15  1  0  0  0  0
 14 44  1  0  0  0  0
 14 45  1  0  0  0  0
 15 16  1  0  0  0  0
 15 46  1  0  0  0  0
 16 20  1  0  0  0  0
 16 17  1  0  0  0  0
 16 47  1  0  0  0  0
 17 18  1  0  0  0  0
 17 48  1  0  0  0  0
 17 49  1  0  0  0  0
 18 19  1  0  0  0  0
 18 50  1  0  0  0  0
 18 51  1  0  0  0  0
 19 20  1  0  0  0  0
 19 52  1  0  0  0  0
 19 53  1  0  0  0  0
 20 21  1  0  0  0  0
 20 54  1  0  0  0  0
 21 55  1  0  0  0  0
 22 23  1  0  0  0  0
 23 24  2  0  0  0  0
 23 56  1  0  0  0  0
 24 25  1  0  0  0  0
 26 30  1  0  0  0  0
 26 27  1  0  0  0  0
 26 57  1  0  0  0  0
 27 28  1  0  0  0  0
 27 58  1  0  0  0  0
 27 59  1  0  0  0  0
 28 29  1  0  0  0  0
 28 60  1  0  0  0  0
 28 61  1  0  0  0  0
 29 30  1  0  0  0  0
 30 62  1  0  0  0  0
 30 63  1  0  0  0  0
M  END
> <s_m_source_file>
AV-unprocessed.smi

> <i_m_source_file_index>
148

> <i_lp_mmshare_version>
43012

> <i_f3d_flags>
0

> <s_epik_input>
W0NIMl0xT1tDSDJdW0NIMl1bQ0BIXTFbQ0BIXShbQ0gyXVtPSF0pW0NIMl1uKFtjSF1uMiljKGMyMyluW2NIXW5jM040W0NIMl1bQ0gyXVtDSDJdW0NIMl1bQ0BIXTRbQ0BASF01W0NIMl1bQ0gyXVtDSDJdW0NASF01W09IXQ==

> <s_epik_cmdline>
J2VwaWtfcHl0aG9uJywgJy1waCcsICc3LjAnLCAnLXRuJywgJzgnLCAnLW1hJywgJzIwMCcsICctbWV0YWxfYmluZGluZycsICctaW1hZScsICc8aW5maWxlLm1hZT4nLCAnLW9tYWUnLCAnPG91dGZpbGUubWFlPic=

> <r_lp_tautomer_probability>
1

> <r_epik_Ionization_Penalty>
0.00556303

> <r_epik_Ionization_Penalty_Charging>
0

> <r_epik_Ionization_Penalty_Neutral>
0.00556303

> <r_epik_State_Penalty>
0.00401767

> <r_epik_Charging_Adjusted_Penalty>
0.00401767

> <i_epik_Tot_Q>
0

> <i_epik_Tot_abs_Q>
0

> <r_epik_Metal_State_Penalty>
-0

> <b_epik_Metal_Only>
0

> <s_lp_Force_Field>
OPLS_2005

> <r_lp_Energy>
68.4818

> <b_lp_Chiralities_Consistent>
1

> <s_lp_Variant>
AV-unprocessed.smi:148-29

> <Gold.Version>
5.8.1

> <Gold.Id.Protein>
6NUR|6NUR_protein|mol2

> <Gold.PLP.Fitness>
43.6934

> <Gold.PLP.PLP>
-38.8455

> <Gold.PLP.part.hbond>
-2.7534

> <Gold.PLP.part.metal>
0.0000

> <Gold.PLP.part.buried>
-7.1723

> <Gold.PLP.part.nonpolar>
-28.9485

> <Gold.PLP.part.repulsive>
0.0052

> <Gold.PLP.ligand.clash>
0.0000

> <Gold.PLP.ligand.torsion>
0.9812

> <Gold.PLP.Chemscore.Hbond>
2.0000

> <Gold.PLP.Chemscore.CHOScore>
0.0000

> <Gold.PLP.Chemscore.Metal>
0.0000

> <Gold.Chemscore.Hbonds>
donor molecule, donor type, donor heavy atom, donor atom, acceptor molecule, acceptor atom, score
      P1  H  6896  6909       L1     7  1.00
      P1  H  7989  7998       L1     1  0.89

> <Gold.PLP.Chemscore.Internal.Correction>
0.8103

> <Gold.Rescore>
     Score         DG    S(hbond)    S(metal)    S(lipo)     H(rot)  DE(clash)    DE(int)     intcor
     13.24     -15.12       1.96        0.00      99.18       3.32       0.01       1.88       ----

> <Gold.Chemscore.Fitness>
13.2367

> <Gold.Chemscore.DG>
-15.1209

> <Gold.Chemscore.ZeroCoef>
-5.4800

> <Gold.Chemscore.Hbond>
1.9571

> <Gold.Chemscore.Metal>
0.0000

> <Gold.Chemscore.Lipo>
99.1805

> <Gold.Chemscore.Internal_Hbond>
0.0000

> <Gold.Chemscore.DEClash>
0.0073

> <Gold.Chemscore.DEInternal>
1.8768

> <Gold.Chemscore.Rot>
3.3203

> <Gold.Chemscore.Internal.Correction>
   9.000000E+99

> <Gold.Chemscore.Hbonds>
donor molecule, donor type, donor heavy atom, donor atom, acceptor molecule, acceptor atom, score
      P1  H  6896  6909       L1     7  0.79
      P1  H  7989  7998       L1     1  0.72

> <Gold.Chemscore.Hbond.Weighted>
-6.5367

> <Gold.Chemscore.Metal.Weighted>
-0.0000

> <Gold.Chemscore.Lipo.Weighted>
-11.6041

> <Gold.Chemscore.Internal_Hbond.Weighted>
0.0000

> <Gold.Chemscore.DEClash.Weighted>
0.0073

> <Gold.Chemscore.DEInternal.Weighted>
1.8768

> <Gold.Chemscore.Rot.Weighted>
8.5000

> <Gold.Chemscore.Internal.Correction.Weighted>
   9.000000E+99

> <Gold.Protein.RotatedTorsions>
[ 6907 6896 6895 6894 ] final   71.30 input  -60.11 | X-H torsion
[ 7974 7965 7964 7962 ] final   10.32 input  175.53 | X-H torsion
[ 8008 7997 7996 7995 ] final  -20.05 input   59.86 | X-H torsion
[ 10167 10162 10161 10158 ] final -144.23 input  -65.29 | X-H torsion
[ 10718 10713 10712 10709 ] final   89.72 input   66.30 | X-H torsion
[ 10763 10752 10751 10750 ] final   81.64 input  -60.55 | X-H torsion
[ 11005 11000 10999 10996 ] final -114.87 input  -57.11 | X-H torsion

> <Gold.Protein.ActiveResidues>
 VAL166  LYS551  ARG553  GLY616  TRP617  ASP618  TYR619  PRO620  LYS621  CYS622 
 ASP623  PHE694  ASN695  SER759  ASP760  ASP761  ALA762  ILE779  LEU786  VAL792 
 PHE793  MET794  SER795  GLU796  ALA797  LYS798  CYS799  TRP800  GLU811  SER814 

> <Gold.Protein.RotatedAtoms>
  152.4802  134.4741  159.9644 H   0  0  0  0  0  0  0  0  0  0  0  0  # atno 6907 bound_to 6896
  151.4748  133.3554  159.2837 H   0  0  0  0  0  0  0  0  0  0  0  0  # atno 6908 bound_to 6896
  150.8868  134.8293  159.7326 H   0  0  0  0  0  0  0  0  0  0  0  0  # atno 6909 bound_to 6896
  146.2390  139.9652  142.8453 H   0  0  0  0  0  0  0  0  0  0  0  0  # atno 7974 bound_to 7965
  154.4795  140.2072  155.9797 H   0  0  0  0  0  0  0  0  0  0  0  0  # atno 8008 bound_to 7997
  156.1143  140.3224  155.8086 H   0  0  0  0  0  0  0  0  0  0  0  0  # atno 8009 bound_to 7997
  155.4580  140.0522  157.2985 H   0  0  0  0  0  0  0  0  0  0  0  0  # atno 8010 bound_to 7997
  139.7919  143.7954  152.2650 H   0  0  0  0  0  0  0  0  0  0  0  0  # atno 10167 bound_to 10162
  157.6956  131.0343  150.3468 H   0  0  0  0  0  0  0  0  0  0  0  0  # atno 10718 bound_to 10713
  153.1134  135.4758  154.9074 H   0  0  0  0  0  0  0  0  0  0  0  0  # atno 10763 bound_to 10752
  154.7504  135.3104  154.8571 H   0  0  0  0  0  0  0  0  0  0  0  0  # atno 10764 bound_to 10752
  153.9154  135.6860  153.4803 H   0  0  0  0  0  0  0  0  0  0  0  0  # atno 10765 bound_to 10752
  141.0524  133.9666  157.2813 H   0  0  0  0  0  0  0  0  0  0  0  0  # atno 11005 bound_to 11000
  145.1733  140.9731  143.4309 LP  0  0  0  0  0  0  0  0  0  0  0  0  # atno 17320 bound_to 7965
  145.0009  139.3600  143.6168 LP  0  0  0  0  0  0  0  0  0  0  0  0  # atno 17321 bound_to 7965
  139.8048  144.7359  150.9776 LP  0  0  0  0  0  0  0  0  0  0  0  0  # atno 17342 bound_to 10162
  140.7820  143.4309  151.0696 LP  0  0  0  0  0  0  0  0  0  0  0  0  # atno 17343 bound_to 10162
  156.3922  130.3900  149.7021 LP  0  0  0  0  0  0  0  0  0  0  0  0  # atno 17370 bound_to 10713
  156.4368  130.7841  151.2862 LP  0  0  0  0  0  0  0  0  0  0  0  0  # atno 17371 bound_to 10713
  139.9361  135.0196  156.8561 LP  0  0  0  0  0  0  0  0  0  0  0  0  # atno 17394 bound_to 11000
  140.6030  134.0154  155.7545 LP  0  0  0  0  0  0  0  0  0  0  0  0  # atno 17395 bound_to 11000

$$$$
