AV-unprocessed.smi:2340|AV-procd|sdf|9349|dock5
  -GOLD-   2272012573D 1   1.00000     0.00000
 Structure written by MMmdl.
 40 41  0  0  0  0  0  0  0  0  1 V2000
  144.0144  133.2224  149.3774 C   0  0  0  0  0  0  0  0  0  0  0  0
  144.7505  133.8525  150.5174 C   0  0  0  0  0  0  0  0  0  0  0  0
  144.7276  135.1740  150.8872 C   0  0  0  0  0  0  0  0  0  0  0  0
  145.7312  135.4760  152.2786 S   0  0  0  0  0  0  0  0  0  0  0  0
  146.1537  133.7659  152.3085 C   0  0  0  0  0  0  0  0  0  0  0  0
  147.0622  133.1529  153.3321 C   0  0  1  0  0  0  0  0  0  0  0  0
  148.4130  132.7463  152.7265 C   0  0  0  0  0  0  0  0  0  0  0  0
  147.2267  134.0304  154.5929 C   0  0  0  0  0  0  0  0  0  0  0  0
  147.9576  135.2674  154.3316 N   0  0  0  0  0  0  0  0  0  0  0  0
  148.0349  136.3064  155.1736 C   0  0  0  0  0  0  0  0  0  0  0  0
  147.5219  136.3270  156.2924 O   0  0  0  0  0  0  0  0  0  0  0  0
  148.7354  137.3192  154.6453 N   0  0  0  0  0  0  0  0  0  0  0  0
  148.9883  138.6054  155.2948 C   0  0  2  0  0  0  0  0  0  0  0  0
  148.1106  139.6953  154.6818 C   0  0  0  0  0  0  0  0  0  0  0  0
  149.0835  140.8275  154.3707 C   0  0  0  0  0  0  0  0  0  0  0  0
  150.2990  140.1495  154.1079 O   0  0  0  0  0  0  0  0  0  0  0  0
  150.4282  139.1305  155.0885 C   0  0  2  0  0  0  0  0  0  0  0  0
  151.5006  138.1166  154.6582 C   0  0  0  0  0  0  0  0  0  0  0  0
  145.5658  133.0649  151.3345 N   0  0  0  0  0  0  0  0  0  0  0  0
  143.4607  133.9641  148.8010 H   0  0  0  0  0  0  0  0  0  0  0  0
  143.2989  132.4807  149.7336 H   0  0  0  0  0  0  0  0  0  0  0  0
  144.7004  132.7208  148.6945 H   0  0  0  0  0  0  0  0  0  0  0  0
  144.1827  135.9856  150.4282 H   0  0  0  0  0  0  0  0  0  0  0  0
  146.5846  132.2264  153.6549 H   0  0  0  0  0  0  0  0  0  0  0  0
  148.2771  132.0566  151.8930 H   0  0  0  0  0  0  0  0  0  0  0  0
  149.0406  132.2496  153.4669 H   0  0  0  0  0  0  0  0  0  0  0  0
  148.9606  133.6129  152.3557 H   0  0  0  0  0  0  0  0  0  0  0  0
  146.2539  134.2552  155.0332 H   0  0  0  0  0  0  0  0  0  0  0  0
  147.7857  133.4807  155.3506 H   0  0  0  0  0  0  0  0  0  0  0  0
  148.4137  135.3464  153.4345 H   0  0  0  0  0  0  0  0  0  0  0  0
  149.1191  137.1982  153.7196 H   0  0  0  0  0  0  0  0  0  0  0  0
  148.7836  138.5356  156.3648 H   0  0  0  0  0  0  0  0  0  0  0  0
  147.6510  139.3522  153.7536 H   0  0  0  0  0  0  0  0  0  0  0  0
  147.3083  140.0132  155.3480 H   0  0  0  0  0  0  0  0  0  0  0  0
  148.7674  141.4337  153.5215 H   0  0  0  0  0  0  0  0  0  0  0  0
  149.2093  141.4822  155.2346 H   0  0  0  0  0  0  0  0  0  0  0  0
  150.7551  139.6105  156.0127 H   0  0  0  0  0  0  0  0  0  0  0  0
  151.6025  137.3170  155.3922 H   0  0  0  0  0  0  0  0  0  0  0  0
  152.4723  138.6008  154.5617 H   0  0  0  0  0  0  0  0  0  0  0  0
  151.2639  137.6649  153.6946 H   0  0  0  0  0  0  0  0  0  0  0  0
  1  2  1  0  0  0  0
  1 20  1  0  0  0  0
  1 21  1  0  0  0  0
  1 22  1  0  0  0  0
  2 19  1  0  0  0  0
  2  3  2  0  0  0  0
  3  4  1  0  0  0  0
  3 23  1  0  0  0  0
  4  5  1  0  0  0  0
  5  6  1  0  0  0  0
  5 19  2  0  0  0  0
  6  7  1  0  0  0  0
  6  8  1  0  0  0  0
  6 24  1  0  0  0  0
  7 25  1  0  0  0  0
  7 26  1  0  0  0  0
  7 27  1  0  0  0  0
  8  9  1  0  0  0  0
  8 28  1  0  0  0  0
  8 29  1  0  0  0  0
  9 10  1  0  0  0  0
  9 30  1  0  0  0  0
 10 11  2  0  0  0  0
 10 12  1  0  0  0  0
 12 13  1  0  0  0  0
 12 31  1  0  0  0  0
 13 17  1  0  0  0  0
 13 14  1  0  0  0  0
 13 32  1  0  0  0  0
 14 15  1  0  0  0  0
 14 33  1  0  0  0  0
 14 34  1  0  0  0  0
 15 16  1  0  0  0  0
 15 35  1  0  0  0  0
 15 36  1  0  0  0  0
 16 17  1  0  0  0  0
 17 18  1  0  0  0  0
 17 37  1  0  0  0  0
 18 38  1  0  0  0  0
 18 39  1  0  0  0  0
 18 40  1  0  0  0  0
M  END
> <s_m_source_file>
AV-unprocessed.smi

> <i_m_source_file_index>
2340

> <i_lp_mmshare_version>
43012

> <i_f3d_flags>
0

> <s_epik_input>
W0NIM11jMVtjSF1zYyhuMSlbQ0BIXShbQ0gzXSlbQ0gyXVtOSF1DKD1PKVtOSF1bQ0BASF0yW0NIMl1bQ0gyXU9bQ0BIXTJbQ0gzXQ==

> <s_epik_cmdline>
J2VwaWtfcHl0aG9uJywgJy1waCcsICc3LjAnLCAnLXRuJywgJzgnLCAnLW1hJywgJzIwMCcsICctbWV0YWxfYmluZGluZycsICctaW1hZScsICc8aW5maWxlLm1hZT4nLCAnLW9tYWUnLCAnPG91dGZpbGUubWFlPic=

> <r_epik_Ionization_Penalty>
0.00156622

> <r_epik_Ionization_Penalty_Charging>
0

> <r_epik_Ionization_Penalty_Neutral>
0.00156622

> <r_epik_State_Penalty>
0.00101902

> <r_epik_Charging_Adjusted_Penalty>
0.00101902

> <i_epik_Tot_Q>
0

> <i_epik_Tot_abs_Q>
0

> <r_epik_Metal_State_Penalty>
-0

> <b_epik_Metal_Only>
0

> <s_lp_Force_Field>
OPLS_2005

> <r_lp_Energy>
5.61614

> <b_lp_Chiralities_Consistent>
1

> <s_lp_Variant>
AV-unprocessed.smi:2340-6

> <Gold.Version>
5.8.1

> <Gold.Id.Protein>
6NUR|6NUR_protein|mol2

> <Gold.PLP.Fitness>
38.0292

> <Gold.PLP.PLP>
-28.4958

> <Gold.PLP.part.hbond>
-2.8675

> <Gold.PLP.part.metal>
0.0000

> <Gold.PLP.part.buried>
-1.6479

> <Gold.PLP.part.nonpolar>
-24.6697

> <Gold.PLP.part.repulsive>
0.8576

> <Gold.PLP.ligand.clash>
0.0000

> <Gold.PLP.ligand.torsion>
0.6910

> <Gold.PLP.Chemscore.Hbond>
2.8445

> <Gold.PLP.Chemscore.CHOScore>
0.7590

> <Gold.PLP.Chemscore.Metal>
0.0000

> <Gold.Chemscore.Hbonds>
donor molecule, donor type, donor heavy atom, donor atom, acceptor molecule, acceptor atom, score
      L1  H     9    30       P1  7948  1.00
      L1  H    12    31       P1  7948  0.84
      P1  H  7989  7998       L1    16  1.00
      L1  C     3    23       P1 10171  0.64

> <Gold.PLP.Chemscore.Internal.Correction>
0.1050

> <Gold.Rescore>
     Score         DG    S(hbond)    S(metal)    S(lipo)     H(rot)  DE(clash)    DE(int)     intcor
     18.43     -19.28       2.71        0.00      74.19       1.53       0.37       0.49       ----

> <Gold.Chemscore.Fitness>
18.4255

> <Gold.Chemscore.DG>
-19.2821

> <Gold.Chemscore.ZeroCoef>
-5.4800

> <Gold.Chemscore.Hbond>
2.7083

> <Gold.Chemscore.Metal>
0.0000

> <Gold.Chemscore.Lipo>
74.1863

> <Gold.Chemscore.Internal_Hbond>
0.0000

> <Gold.Chemscore.DEClash>
0.3656

> <Gold.Chemscore.DEInternal>
0.4910

> <Gold.Chemscore.Rot>
1.5325

> <Gold.Chemscore.Internal.Correction>
   9.000000E+99

> <Gold.Chemscore.Hbonds>
donor molecule, donor type, donor heavy atom, donor atom, acceptor molecule, acceptor atom, score
      L1  H     9    30       P1  7948  0.97
      L1  H    12    31       P1  7948  0.77
      P1  H  7989  7998       L1    16  0.92

> <Gold.Chemscore.Hbond.Weighted>
-9.0457

> <Gold.Chemscore.Metal.Weighted>
-0.0000

> <Gold.Chemscore.Lipo.Weighted>
-8.6798

> <Gold.Chemscore.Internal_Hbond.Weighted>
0.0000

> <Gold.Chemscore.DEClash.Weighted>
0.3656

> <Gold.Chemscore.DEInternal.Weighted>
0.4910

> <Gold.Chemscore.Rot.Weighted>
3.9233

> <Gold.Chemscore.Internal.Correction.Weighted>
   9.000000E+99

> <Gold.Protein.RotatedTorsions>
[ 6907 6896 6895 6894 ] final  101.03 input  -60.11 | X-H torsion
[ 7974 7965 7964 7962 ] final  166.93 input  175.53 | X-H torsion
[ 8008 7997 7996 7995 ] final  135.68 input   59.86 | X-H torsion
[ 10167 10162 10161 10158 ] final   74.60 input  -65.29 | X-H torsion
[ 10718 10713 10712 10709 ] final -178.35 input   66.30 | X-H torsion
[ 10763 10752 10751 10750 ] final  -38.99 input  -60.55 | X-H torsion
[ 11005 11000 10999 10996 ] final   55.26 input  -57.11 | X-H torsion

> <Gold.Protein.ActiveResidues>
 VAL166  LYS551  ARG553  GLY616  TRP617  ASP618  TYR619  PRO620  LYS621  CYS622 
 ASP623  PHE694  ASN695  SER759  ASP760  ASP761  ALA762  ILE779  LEU786  VAL792 
 PHE793  MET794  SER795  GLU796  ALA797  LYS798  CYS799  TRP800  GLU811  SER814 

> <Gold.Protein.RotatedAtoms>
  152.5359  134.0187  159.7971 H   0  0  0  0  0  0  0  0  0  0  0  0  # atno 6907 bound_to 6896
  151.0377  133.5726  159.2661 H   0  0  0  0  0  0  0  0  0  0  0  0  # atno 6908 bound_to 6896
  151.2707  135.0691  159.9187 H   0  0  0  0  0  0  0  0  0  0  0  0  # atno 6909 bound_to 6896
  144.7443  139.8686  143.6387 H   0  0  0  0  0  0  0  0  0  0  0  0  # atno 7974 bound_to 7965
  156.3003  140.2464  156.3620 H   0  0  0  0  0  0  0  0  0  0  0  0  # atno 8008 bound_to 7997
  154.8868  140.0410  157.1834 H   0  0  0  0  0  0  0  0  0  0  0  0  # atno 8009 bound_to 7997
  154.8639  140.2925  155.5526 H   0  0  0  0  0  0  0  0  0  0  0  0  # atno 8010 bound_to 7997
  140.0119  144.5607  150.7651 H   0  0  0  0  0  0  0  0  0  0  0  0  # atno 10167 bound_to 10162
  156.8429  130.9692  151.3098 H   0  0  0  0  0  0  0  0  0  0  0  0  # atno 10718 bound_to 10713
  153.9220  135.6781  153.4747 H   0  0  0  0  0  0  0  0  0  0  0  0  # atno 10763 bound_to 10752
  153.1023  135.4822  154.8887 H   0  0  0  0  0  0  0  0  0  0  0  0  # atno 10764 bound_to 10752
  154.7473  135.3175  154.8578 H   0  0  0  0  0  0  0  0  0  0  0  0  # atno 10765 bound_to 10752
  140.0621  134.5587  155.9140 H   0  0  0  0  0  0  0  0  0  0  0  0  # atno 11005 bound_to 11000
  146.1296  139.4329  143.0177 LP  0  0  0  0  0  0  0  0  0  0  0  0  # atno 17320 bound_to 7965
  145.7183  141.0083  143.1416 LP  0  0  0  0  0  0  0  0  0  0  0  0  # atno 17321 bound_to 7965
  140.7378  143.2770  151.3713 LP  0  0  0  0  0  0  0  0  0  0  0  0  # atno 17342 bound_to 10162
  139.6199  144.0928  152.2381 LP  0  0  0  0  0  0  0  0  0  0  0  0  # atno 17343 bound_to 10162
  157.6345  130.8756  149.9334 LP  0  0  0  0  0  0  0  0  0  0  0  0  # atno 17370 bound_to 10713
  156.0870  130.3667  150.0468 LP  0  0  0  0  0  0  0  0  0  0  0  0  # atno 17371 bound_to 10713
  141.1977  133.6598  156.5757 LP  0  0  0  0  0  0  0  0  0  0  0  0  # atno 17394 bound_to 11000
  140.3754  134.7569  157.4626 LP  0  0  0  0  0  0  0  0  0  0  0  0  # atno 17395 bound_to 11000

$$$$
