AV-unprocessed.smi:2200|AV-procd|sdf|8925|dock2
  -GOLD-   2272012143D 1   1.00000     0.00000
 Structure written by MMmdl.
 31 31  0  0  0  0  0  0  0  0  1 V2000
  152.5525  143.3079  160.5281 C   0  0  0  0  0  0  0  0  0  0  0  0
  151.4634  144.0788  159.7685 C   0  0  0  0  0  0  0  0  0  0  0  0
  150.8767  145.1992  160.6454 C   0  0  0  0  0  0  0  0  0  0  0  0
  150.3796  143.1143  159.2392 C   0  0  0  0  0  0  0  0  0  0  0  0
  150.6703  142.6284  157.8944 N   0  0  0  0  0  0  0  0  0  0  0  0
  149.8795  141.8133  157.1806 C   0  0  0  0  0  0  0  0  0  0  0  0
  148.7830  141.4182  157.5791 O   0  0  0  0  0  0  0  0  0  0  0  0
  150.4048  141.3951  155.8003 C   0  0  0  0  0  0  0  0  0  0  0  0
  149.3910  140.6950  154.9987 N   0  0  0  0  0  0  0  0  0  0  0  0
  148.1227  141.2359  154.8415 C   0  0  0  0  0  0  0  0  0  0  0  0
  147.1399  140.6368  154.1279 C   0  0  0  0  0  0  0  0  0  0  0  0
  147.3786  139.3552  153.4729 C   0  0  0  0  0  0  0  0  0  0  0  0
  146.5539  138.7359  152.8045 O   0  0  0  0  0  0  0  0  0  0  0  0
  148.6656  138.8425  153.6563 N   0  0  0  0  0  0  0  0  0  0  0  0
  149.6827  139.4539  154.3910 C   0  0  0  0  0  0  0  0  0  0  0  0
  150.7834  138.9130  154.4929 O   0  0  0  0  0  0  0  0  0  0  0  0
  148.8766  137.9551  153.2235 H   0  0  0  0  0  0  0  0  0  0  0  0
  152.1458  142.8130  161.4107 H   0  0  0  0  0  0  0  0  0  0  0  0
  153.3494  143.9756  160.8573 H   0  0  0  0  0  0  0  0  0  0  0  0
  153.0060  142.5436  159.8963 H   0  0  0  0  0  0  0  0  0  0  0  0
  151.9453  144.5517  158.9120 H   0  0  0  0  0  0  0  0  0  0  0  0
  150.3562  144.7918  161.5129 H   0  0  0  0  0  0  0  0  0  0  0  0
  150.1690  145.8160  160.0905 H   0  0  0  0  0  0  0  0  0  0  0  0
  151.6621  145.8613  161.0104 H   0  0  0  0  0  0  0  0  0  0  0  0
  150.2613  142.2658  159.9154 H   0  0  0  0  0  0  0  0  0  0  0  0
  149.4137  143.6199  159.2122 H   0  0  0  0  0  0  0  0  0  0  0  0
  151.5500  142.9120  157.4877 H   0  0  0  0  0  0  0  0  0  0  0  0
  150.7479  142.2924  155.2835 H   0  0  0  0  0  0  0  0  0  0  0  0
  151.2923  140.7677  155.9086 H   0  0  0  0  0  0  0  0  0  0  0  0
  147.8984  142.1820  155.3132 H   0  0  0  0  0  0  0  0  0  0  0  0
  146.1711  141.1075  154.0425 H   0  0  0  0  0  0  0  0  0  0  0  0
  1  2  1  0  0  0  0
  1 18  1  0  0  0  0
  1 19  1  0  0  0  0
  1 20  1  0  0  0  0
  2  3  1  0  0  0  0
  2  4  1  0  0  0  0
  2 21  1  0  0  0  0
  3 22  1  0  0  0  0
  3 23  1  0  0  0  0
  3 24  1  0  0  0  0
  4  5  1  0  0  0  0
  4 25  1  0  0  0  0
  4 26  1  0  0  0  0
  5  6  1  0  0  0  0
  5 27  1  0  0  0  0
  6  7  2  0  0  0  0
  6  8  1  0  0  0  0
  8  9  1  0  0  0  0
  8 28  1  0  0  0  0
  8 29  1  0  0  0  0
  9 15  1  0  0  0  0
  9 10  1  0  0  0  0
 10 11  2  0  0  0  0
 10 30  1  0  0  0  0
 11 12  1  0  0  0  0
 11 31  1  0  0  0  0
 12 13  2  0  0  0  0
 12 14  1  0  0  0  0
 14 17  1  0  0  0  0
 14 15  1  0  0  0  0
 15 16  2  0  0  0  0
M  END
> <s_m_source_file>
AV-unprocessed.smi

> <i_m_source_file_index>
2200

> <i_lp_mmshare_version>
43012

> <i_f3d_flags>
0

> <s_epik_input>
W0NIM11bQ0hdKFtDSDNdKVtDSDJdW05IXUMoPU8pW0NIMl1uMVtjSF1bY0hdYyg9TylbbkhdYzE9Tw==

> <s_epik_cmdline>
J2VwaWtfcHl0aG9uJywgJy1waCcsICc3LjAnLCAnLXRuJywgJzgnLCAnLW1hJywgJzIwMCcsICctbWV0YWxfYmluZGluZycsICctaW1hZScsICc8aW5maWxlLm1hZT4nLCAnLW9tYWUnLCAnPG91dGZpbGUubWFlPic=

> <r_lp_tautomer_probability>
0.999537

> <r_epik_Ionization_Penalty>
0.00328917

> <r_epik_Ionization_Penalty_Charging>
0.00328916

> <r_epik_Ionization_Penalty_Neutral>
1.93017e-08

> <r_epik_State_Penalty>
0.00232387

> <r_epik_Charging_Adjusted_Penalty>
0.00561303

> <i_epik_Tot_Q>
0

> <i_epik_Tot_abs_Q>
0

> <r_epik_Metal_State_Penalty>
0.365274

> <b_epik_Metal_Only>
0

> <s_lp_Force_Field>
OPLS_2005

> <r_lp_Energy>
3.18145

> <b_lp_Chiralities_Consistent>
1

> <s_lp_Variant>
AV-unprocessed.smi:2200-1

> <Gold.Version>
5.8.1

> <Gold.Id.Protein>
6NUR|6NUR_protein|mol2

> <Gold.PLP.Fitness>
39.0251

> <Gold.PLP.PLP>
-34.5039

> <Gold.PLP.part.hbond>
-2.0000

> <Gold.PLP.part.metal>
0.0000

> <Gold.PLP.part.buried>
-1.9509

> <Gold.PLP.part.nonpolar>
-30.8646

> <Gold.PLP.part.repulsive>
0.6819

> <Gold.PLP.ligand.clash>
0.0000

> <Gold.PLP.ligand.torsion>
0.6033

> <Gold.PLP.Chemscore.Hbond>
0.9588

> <Gold.PLP.Chemscore.CHOScore>
0.9434

> <Gold.PLP.Chemscore.Metal>
0.0000

> <Gold.Chemscore.Hbonds>
donor molecule, donor type, donor heavy atom, donor atom, acceptor molecule, acceptor atom, score
      L1  H    14    17       P1  7948  0.63
      P1  H  7989  7998       L1    16  0.06
      L1  C    10    30       P1  8028  0.51

> <Gold.PLP.Chemscore.Internal.Correction>
0.0214

> <Gold.Rescore>
     Score         DG    S(hbond)    S(metal)    S(lipo)     H(rot)  DE(clash)    DE(int)     intcor
      8.87     -11.19       0.93        0.00      66.28       2.01       0.19       2.12       ----

> <Gold.Chemscore.Fitness>
8.8739

> <Gold.Chemscore.DG>
-11.1873

> <Gold.Chemscore.ZeroCoef>
-5.4800

> <Gold.Chemscore.Hbond>
0.9314

> <Gold.Chemscore.Metal>
0.0000

> <Gold.Chemscore.Lipo>
66.2798

> <Gold.Chemscore.Internal_Hbond>
0.0000

> <Gold.Chemscore.DEClash>
0.1914

> <Gold.Chemscore.DEInternal>
2.1220

> <Gold.Chemscore.Rot>
2.0150

> <Gold.Chemscore.Internal.Correction>
   9.000000E+99

> <Gold.Chemscore.Hbonds>
donor molecule, donor type, donor heavy atom, donor atom, acceptor molecule, acceptor atom, score
      L1  H    14    17       P1  7948  0.65

> <Gold.Chemscore.Hbond.Weighted>
-3.1109

> <Gold.Chemscore.Metal.Weighted>
-0.0000

> <Gold.Chemscore.Lipo.Weighted>
-7.7547

> <Gold.Chemscore.Internal_Hbond.Weighted>
0.0000

> <Gold.Chemscore.DEClash.Weighted>
0.1914

> <Gold.Chemscore.DEInternal.Weighted>
2.1220

> <Gold.Chemscore.Rot.Weighted>
5.1583

> <Gold.Chemscore.Internal.Correction.Weighted>
   9.000000E+99

> <Gold.Protein.RotatedTorsions>
[ 6907 6896 6895 6894 ] final   36.91 input  -60.11 | X-H torsion
[ 7974 7965 7964 7962 ] final   52.10 input  175.53 | X-H torsion
[ 8008 7997 7996 7995 ] final  -52.38 input   59.86 | X-H torsion
[ 10167 10162 10161 10158 ] final   18.94 input  -65.29 | X-H torsion
[ 10718 10713 10712 10709 ] final  -73.22 input   66.30 | X-H torsion
[ 10763 10752 10751 10750 ] final  -36.05 input  -60.55 | X-H torsion
[ 11005 11000 10999 10996 ] final  114.13 input  -57.11 | X-H torsion

> <Gold.Protein.ActiveResidues>
 VAL166  LYS551  ARG553  GLY616  TRP617  ASP618  TYR619  PRO620  LYS621  CYS622 
 ASP623  PHE694  ASN695  SER759  ASP760  ASP761  ALA762  ILE779  LEU786  VAL792 
 PHE793  MET794  SER795  GLU796  ALA797  LYS798  CYS799  TRP800  GLU811  SER814 

> <Gold.Protein.RotatedAtoms>
  152.1361  134.9098  160.0556 H   0  0  0  0  0  0  0  0  0  0  0  0  # atno 6907 bound_to 6896
  152.0184  133.3884  159.4256 H   0  0  0  0  0  0  0  0  0  0  0  0  # atno 6908 bound_to 6896
  150.6860  134.3575  159.4979 H   0  0  0  0  0  0  0  0  0  0  0  0  # atno 6909 bound_to 6896
  145.9847  139.4278  143.0110 H   0  0  0  0  0  0  0  0  0  0  0  0  # atno 7974 bound_to 7965
  154.4105  140.1225  156.4982 H   0  0  0  0  0  0  0  0  0  0  0  0  # atno 8008 bound_to 7997
  155.6921  140.3495  155.4878 H   0  0  0  0  0  0  0  0  0  0  0  0  # atno 8009 bound_to 7997
  155.9459  140.1096  157.1007 H   0  0  0  0  0  0  0  0  0  0  0  0  # atno 8010 bound_to 7997
  140.5616  143.9327  150.6646 H   0  0  0  0  0  0  0  0  0  0  0  0  # atno 10167 bound_to 10162
  156.0289  130.4389  150.2710 H   0  0  0  0  0  0  0  0  0  0  0  0  # atno 10718 bound_to 10713
  153.8734  135.6829  153.4772 H   0  0  0  0  0  0  0  0  0  0  0  0  # atno 10763 bound_to 10752
  153.1274  135.4713  154.9293 H   0  0  0  0  0  0  0  0  0  0  0  0  # atno 10764 bound_to 10752
  154.7703  135.3237  154.8153 H   0  0  0  0  0  0  0  0  0  0  0  0  # atno 10765 bound_to 10752
  139.8972  134.9562  156.6845 H   0  0  0  0  0  0  0  0  0  0  0  0  # atno 11005 bound_to 11000
  145.7718  140.9893  143.1145 LP  0  0  0  0  0  0  0  0  0  0  0  0  # atno 17320 bound_to 7965
  144.6871  139.9456  143.7476 LP  0  0  0  0  0  0  0  0  0  0  0  0  # atno 17321 bound_to 7965
  140.2779  143.3410  152.1178 LP  0  0  0  0  0  0  0  0  0  0  0  0  # atno 17342 bound_to 10162
  139.5073  144.6829  151.5962 LP  0  0  0  0  0  0  0  0  0  0  0  0  # atno 17343 bound_to 10162
  157.0813  131.0144  151.3155 LP  0  0  0  0  0  0  0  0  0  0  0  0  # atno 17370 bound_to 10713
  157.4925  130.7831  149.7522 LP  0  0  0  0  0  0  0  0  0  0  0  0  # atno 17371 bound_to 10713
  140.7273  133.9089  155.8187 LP  0  0  0  0  0  0  0  0  0  0  0  0  # atno 17394 bound_to 11000
  141.0181  134.0927  157.4150 LP  0  0  0  0  0  0  0  0  0  0  0  0  # atno 17395 bound_to 11000

$$$$
