AV-unprocessed.smi:389|AV-procd|sdf|2477|dock7
  -GOLD-   2262022413D 1   1.00000     0.00000
 Structure written by MMmdl.
 33 33  0  0  0  0  0  0  0  0  2 V2000
  153.3122  143.5269  158.9647 C   0  0  0  0  0  0  0  0  0  0  0  0
  152.4826  143.0510  160.1692 C   0  0  0  0  0  0  0  0  0  0  0  0
  151.9417  144.2554  160.9551 C   0  0  0  0  0  0  0  0  0  0  0  0
  153.2748  142.1058  161.0951 C   0  0  0  0  0  0  0  0  0  0  0  0
  154.1773  141.1066  160.3462 C   0  0  0  0  0  0  0  0  0  0  0  0
  153.6151  139.7614  160.3551 N   0  0  0  0  0  0  0  0  0  0  0  0
  154.0139  138.7533  159.5648 C   0  0  0  0  0  0  0  0  0  0  0  0
  154.9025  138.8713  158.7196 O   0  0  0  0  0  0  0  0  0  0  0  0
  153.2700  137.4228  159.7467 C   0  0  0  0  0  0  0  0  0  0  0  0
  153.6333  136.7197  160.9876 N   0  0  0  0  0  0  0  0  0  0  0  0
  153.4303  137.3953  162.2039 C   0  0  0  0  0  0  0  0  0  0  0  0
  153.7284  136.8299  163.3891 C   0  0  0  0  0  0  0  0  0  0  0  0
  154.2762  135.4791  163.3910 C   0  0  0  0  0  0  0  0  0  0  0  0
  154.5592  134.9491  164.4638 O   0  0  0  0  0  0  0  0  0  0  0  0
  154.4495  134.8628  162.1851 N   0  5  0  0  0  0  0  0  0  0  0  0
  154.1381  135.4490  160.9874 C   0  0  0  0  0  0  0  0  0  0  0  0
  154.2982  134.8731  159.9105 O   0  0  0  0  0  0  0  0  0  0  0  0
  154.2148  144.0472  159.2869 H   0  0  0  0  0  0  0  0  0  0  0  0
  152.7393  144.2142  158.3415 H   0  0  0  0  0  0  0  0  0  0  0  0
  153.6139  142.6957  158.3281 H   0  0  0  0  0  0  0  0  0  0  0  0
  151.6200  142.5034  159.7872 H   0  0  0  0  0  0  0  0  0  0  0  0
  152.7524  144.8556  161.3696 H   0  0  0  0  0  0  0  0  0  0  0  0
  151.3085  143.9344  161.7827 H   0  0  0  0  0  0  0  0  0  0  0  0
  151.3405  144.9036  160.3169 H   0  0  0  0  0  0  0  0  0  0  0  0
  153.8736  142.6914  161.7943 H   0  0  0  0  0  0  0  0  0  0  0  0
  152.5665  141.5440  161.7056 H   0  0  0  0  0  0  0  0  0  0  0  0
  154.3430  141.4337  159.3182 H   0  0  0  0  0  0  0  0  0  0  0  0
  155.1578  141.0517  160.8179 H   0  0  0  0  0  0  0  0  0  0  0  0
  152.8777  139.5781  161.0202 H   0  0  0  0  0  0  0  0  0  0  0  0
  152.1931  137.5994  159.7161 H   0  0  0  0  0  0  0  0  0  0  0  0
  153.4812  136.7945  158.8805 H   0  0  0  0  0  0  0  0  0  0  0  0
  153.0142  138.3880  162.1142 H   0  0  0  0  0  0  0  0  0  0  0  0
  153.5624  137.3610  164.3148 H   0  0  0  0  0  0  0  0  0  0  0  0
  1  2  1  0  0  0  0
  1 18  1  0  0  0  0
  1 19  1  0  0  0  0
  1 20  1  0  0  0  0
  2  3  1  0  0  0  0
  2  4  1  0  0  0  0
  2 21  1  0  0  0  0
  3 22  1  0  0  0  0
  3 23  1  0  0  0  0
  3 24  1  0  0  0  0
  4  5  1  0  0  0  0
  4 25  1  0  0  0  0
  4 26  1  0  0  0  0
  5  6  1  0  0  0  0
  5 27  1  0  0  0  0
  5 28  1  0  0  0  0
  6  7  1  0  0  0  0
  6 29  1  0  0  0  0
  7  8  2  0  0  0  0
  7  9  1  0  0  0  0
  9 10  1  0  0  0  0
  9 30  1  0  0  0  0
  9 31  1  0  0  0  0
 10 16  1  0  0  0  0
 10 11  1  0  0  0  0
 11 12  2  0  0  0  0
 11 32  1  0  0  0  0
 12 13  1  0  0  0  0
 12 33  1  0  0  0  0
 13 14  2  0  0  0  0
 13 15  1  0  0  0  0
 15 16  1  0  0  0  0
 16 17  2  0  0  0  0
M  CHG  1  15  -1
M  END
> <s_m_source_file>
AV-unprocessed.smi

> <i_m_source_file_index>
389

> <i_lp_mmshare_version>
43012

> <i_f3d_flags>
0

> <s_epik_input>
W0NIM11bQ0hdKFtDSDNdKVtDSDJdW0NIMl1bTkhdQyg9TylbQ0gyXW4xW2NIXVtjSF1jKD1PKVtuSF1jMT1P

> <s_epik_cmdline>
J2VwaWtfcHl0aG9uJywgJy1waCcsICc3LjAnLCAnLXRuJywgJzgnLCAnLW1hJywgJzIwMCcsICctbWV0YWxfYmluZGluZycsICctaW1hZScsICc8aW5maWxlLm1hZT4nLCAnLW9tYWUnLCAnPG91dGZpbGUubWFlPic=

> <r_lp_tautomer_probability>
0.999537

> <r_epik_Ionization_Penalty>
3.12283

> <r_epik_Ionization_Penalty_Charging>
2.83566e-08

> <r_epik_Ionization_Penalty_Neutral>
3.12283

> <r_epik_State_Penalty>
3.12192

> <r_epik_Charging_Adjusted_Penalty>
3.12192

> <i_epik_Tot_Q>
-1

> <i_epik_Tot_abs_Q>
1

> <r_epik_Metal_State_Penalty>
0.463748

> <b_epik_Metal_Only>
1

> <s_lp_Force_Field>
OPLS_2005

> <r_lp_Energy>
12.9702

> <b_lp_Chiralities_Consistent>
1

> <s_lp_Variant>
AV-unprocessed.smi:389-2

> <Gold.Version>
5.8.1

> <Gold.Id.Protein>
6NUR|6NUR_protein|mol2

> <Gold.PLP.Fitness>
40.2681

> <Gold.PLP.PLP>
-35.7306

> <Gold.PLP.part.hbond>
-1.9742

> <Gold.PLP.part.metal>
0.0000

> <Gold.PLP.part.buried>
-4.1051

> <Gold.PLP.part.nonpolar>
-30.5093

> <Gold.PLP.part.repulsive>
0.1451

> <Gold.PLP.ligand.clash>
0.0000

> <Gold.PLP.ligand.torsion>
0.7237

> <Gold.PLP.Chemscore.Hbond>
1.9913

> <Gold.PLP.Chemscore.CHOScore>
0.0000

> <Gold.PLP.Chemscore.Metal>
0.0000

> <Gold.Chemscore.Hbonds>
donor molecule, donor type, donor heavy atom, donor atom, acceptor molecule, acceptor atom, score
      P1  H  6896  6908       L1    17  0.50
      P1  H  7997  8009       L1     8  1.00

> <Gold.PLP.Chemscore.Internal.Correction>
0.0110

> <Gold.Rescore>
     Score         DG    S(hbond)    S(metal)    S(lipo)     H(rot)  DE(clash)    DE(int)     intcor
     14.87     -15.77       1.92        0.00      80.85       2.18       0.08       0.82       ----

> <Gold.Chemscore.Fitness>
14.8665

> <Gold.Chemscore.DG>
-15.7744

> <Gold.Chemscore.ZeroCoef>
-5.4800

> <Gold.Chemscore.Hbond>
1.9234

> <Gold.Chemscore.Metal>
0.0000

> <Gold.Chemscore.Lipo>
80.8518

> <Gold.Chemscore.Internal_Hbond>
0.0000

> <Gold.Chemscore.DEClash>
0.0849

> <Gold.Chemscore.DEInternal>
0.8231

> <Gold.Chemscore.Rot>
2.1834

> <Gold.Chemscore.Internal.Correction>
   9.000000E+99

> <Gold.Chemscore.Hbonds>
donor molecule, donor type, donor heavy atom, donor atom, acceptor molecule, acceptor atom, score
      P1  H  6896  6908       L1    17  0.02
      P1  H  7997  8009       L1     8  1.00

> <Gold.Chemscore.Hbond.Weighted>
-6.4242

> <Gold.Chemscore.Metal.Weighted>
-0.0000

> <Gold.Chemscore.Lipo.Weighted>
-9.4597

> <Gold.Chemscore.Internal_Hbond.Weighted>
0.0000

> <Gold.Chemscore.DEClash.Weighted>
0.0849

> <Gold.Chemscore.DEInternal.Weighted>
0.8231

> <Gold.Chemscore.Rot.Weighted>
5.5895

> <Gold.Chemscore.Internal.Correction.Weighted>
   9.000000E+99

> <Gold.Protein.RotatedTorsions>
[ 6907 6896 6895 6894 ] final  -39.72 input  -60.11 | X-H torsion
[ 7974 7965 7964 7962 ] final  -23.37 input  175.53 | X-H torsion
[ 8008 7997 7996 7995 ] final  115.38 input   59.86 | X-H torsion
[ 10167 10162 10161 10158 ] final    1.96 input  -65.29 | X-H torsion
[ 10718 10713 10712 10709 ] final  150.99 input   66.30 | X-H torsion
[ 10763 10752 10751 10750 ] final   73.85 input  -60.55 | X-H torsion
[ 11005 11000 10999 10996 ] final -135.72 input  -57.11 | X-H torsion

> <Gold.Protein.ActiveResidues>
 VAL166  LYS551  ARG553  GLY616  TRP617  ASP618  TYR619  PRO620  LYS621  CYS622 
 ASP623  PHE694  ASN695  SER759  ASP760  ASP761  ALA762  ILE779  LEU786  VAL792 
 PHE793  MET794  SER795  GLU796  ALA797  LYS798  CYS799  TRP800  GLU811  SER814 

> <Gold.Protein.RotatedAtoms>
  150.9870  134.9213  159.7877 H   0  0  0  0  0  0  0  0  0  0  0  0  # atno 6907 bound_to 6896
  152.5239  134.3333  159.9200 H   0  0  0  0  0  0  0  0  0  0  0  0  # atno 6908 bound_to 6896
  151.3339  133.3948  159.2699 H   0  0  0  0  0  0  0  0  0  0  0  0  # atno 6909 bound_to 6896
  146.1620  140.4606  142.8567 H   0  0  0  0  0  0  0  0  0  0  0  0  # atno 7974 bound_to 7965
  156.2378  140.2940  156.0359 H   0  0  0  0  0  0  0  0  0  0  0  0  # atno 8008 bound_to 7997
  155.2041  140.0410  157.2939 H   0  0  0  0  0  0  0  0  0  0  0  0  # atno 8009 bound_to 7997
  154.6110  140.2452  155.7676 H   0  0  0  0  0  0  0  0  0  0  0  0  # atno 8010 bound_to 7997
  140.6658  143.7184  150.7824 H   0  0  0  0  0  0  0  0  0  0  0  0  # atno 10167 bound_to 10162
  157.2764  131.0827  151.1563 H   0  0  0  0  0  0  0  0  0  0  0  0  # atno 10718 bound_to 10713
  153.0548  135.5047  154.7955 H   0  0  0  0  0  0  0  0  0  0  0  0  # atno 10763 bound_to 10752
  154.6789  135.2965  154.9643 H   0  0  0  0  0  0  0  0  0  0  0  0  # atno 10764 bound_to 10752
  154.0436  135.6713  153.4845 H   0  0  0  0  0  0  0  0  0  0  0  0  # atno 10765 bound_to 10752
  140.8872  134.1857  157.4552 H   0  0  0  0  0  0  0  0  0  0  0  0  # atno 11005 bound_to 11000
  144.8040  140.6266  143.6459 LP  0  0  0  0  0  0  0  0  0  0  0  0  # atno 17320 bound_to 7965
  145.4563  139.1518  143.3890 LP  0  0  0  0  0  0  0  0  0  0  0  0  # atno 17321 bound_to 7965
  140.0861  143.4922  152.2504 LP  0  0  0  0  0  0  0  0  0  0  0  0  # atno 17342 bound_to 10162
  139.5906  144.7548  151.3410 LP  0  0  0  0  0  0  0  0  0  0  0  0  # atno 17343 bound_to 10162
  157.3014  130.6844  149.6166 LP  0  0  0  0  0  0  0  0  0  0  0  0  # atno 17370 bound_to 10713
  155.9664  130.4391  150.5244 LP  0  0  0  0  0  0  0  0  0  0  0  0  # atno 17371 bound_to 10713
  139.8725  134.9843  156.5233 LP  0  0  0  0  0  0  0  0  0  0  0  0  # atno 17394 bound_to 11000
  140.8390  133.8219  155.9057 LP  0  0  0  0  0  0  0  0  0  0  0  0  # atno 17395 bound_to 11000

$$$$
