AV-unprocessed.smi:3112|AV-procd|sdf|11850|dock10
  -GOLD-   2272017233D 1   1.00000     0.00000
 Structure written by MMmdl.
 36 36  0  0  0  0  0  0  0  0  1 V2000
  147.2121  139.6843  153.5436 C   0  0  0  0  0  0  0  0  0  0  0  0
  147.1879  141.1477  154.0053 C   0  0  0  0  0  0  0  0  0  0  0  0
  148.5812  141.6891  154.3834 C   0  0  2  0  0  0  0  0  0  0  0  0
  149.5867  141.1033  153.5809 O   0  0  0  0  0  0  0  0  0  0  0  0
  148.9536  141.5071  155.8669 C   0  0  0  0  0  0  0  0  0  0  0  0
  150.1560  142.2591  156.2362 N   0  0  0  0  0  0  0  0  0  0  0  0
  150.7035  141.9425  157.5589 C   0  0  1  0  0  0  0  0  0  0  0  0
  151.2360  140.4975  157.5251 C   0  0  0  0  0  0  0  0  0  0  0  0
  151.7979  142.9649  157.9905 C   0  0  1  0  0  0  0  0  0  0  0  0
  151.3274  144.4310  158.0180 C   0  0  0  0  0  0  0  0  0  0  0  0
  152.3859  142.6190  159.2793 N   0  0  0  0  0  0  0  0  0  0  0  0
  152.4151  143.3735  160.4344 C   0  0  0  0  0  0  0  0  0  0  0  0
  153.0701  142.6429  161.3839 C   0  0  0  0  0  0  0  0  0  0  0  0
  153.4086  141.4377  160.7084 C   0  0  0  0  0  0  0  0  0  0  0  0
  152.9987  141.4253  159.4508 N   0  0  0  0  0  0  0  0  0  0  0  0
  146.2141  139.3531  153.2562 H   0  0  0  0  0  0  0  0  0  0  0  0
  147.5633  139.0229  154.3360 H   0  0  0  0  0  0  0  0  0  0  0  0
  147.8664  139.5529  152.6815 H   0  0  0  0  0  0  0  0  0  0  0  0
  146.7754  141.7569  153.2000 H   0  0  0  0  0  0  0  0  0  0  0  0
  146.5011  141.2478  154.8467 H   0  0  0  0  0  0  0  0  0  0  0  0
  148.6022  142.7592  154.1736 H   0  0  0  0  0  0  0  0  0  0  0  0
  149.1889  140.4406  153.0376 H   0  0  0  0  0  0  0  0  0  0  0  0
  148.1044  141.7766  156.4917 H   0  0  0  0  0  0  0  0  0  0  0  0
  149.1311  140.4468  156.0502 H   0  0  0  0  0  0  0  0  0  0  0  0
  150.8686  142.1068  155.5298 H   0  0  0  0  0  0  0  0  0  0  0  0
  149.8985  141.9597  158.2953 H   0  0  0  0  0  0  0  0  0  0  0  0
  151.5391  140.1525  158.5137 H   0  0  0  0  0  0  0  0  0  0  0  0
  152.0965  140.4064  156.8615 H   0  0  0  0  0  0  0  0  0  0  0  0
  150.4702  139.8060  157.1721 H   0  0  0  0  0  0  0  0  0  0  0  0
  152.6076  142.9053  157.2611 H   0  0  0  0  0  0  0  0  0  0  0  0
  151.1180  144.8003  157.0146 H   0  0  0  0  0  0  0  0  0  0  0  0
  152.0980  145.0808  158.4345 H   0  0  0  0  0  0  0  0  0  0  0  0
  150.4283  144.5528  158.6226 H   0  0  0  0  0  0  0  0  0  0  0  0
  151.9732  144.3577  160.4839 H   0  0  0  0  0  0  0  0  0  0  0  0
  153.2759  142.9264  162.4052 H   0  0  0  0  0  0  0  0  0  0  0  0
  153.9367  140.5772  161.0920 H   0  0  0  0  0  0  0  0  0  0  0  0
  1  2  1  0  0  0  0
  1 16  1  0  0  0  0
  1 17  1  0  0  0  0
  1 18  1  0  0  0  0
  2  3  1  0  0  0  0
  2 19  1  0  0  0  0
  2 20  1  0  0  0  0
  3  4  1  0  0  0  0
  3  5  1  0  0  0  0
  3 21  1  0  0  0  0
  4 22  1  0  0  0  0
  5  6  1  0  0  0  0
  5 23  1  0  0  0  0
  5 24  1  0  0  0  0
  6  7  1  0  0  0  0
  6 25  1  0  0  0  0
  7  8  1  0  0  0  0
  7  9  1  0  0  0  0
  7 26  1  0  0  0  0
  8 27  1  0  0  0  0
  8 28  1  0  0  0  0
  8 29  1  0  0  0  0
  9 10  1  0  0  0  0
  9 11  1  0  0  0  0
  9 30  1  0  0  0  0
 10 31  1  0  0  0  0
 10 32  1  0  0  0  0
 10 33  1  0  0  0  0
 11 15  1  0  0  0  0
 11 12  1  0  0  0  0
 12 13  2  0  0  0  0
 12 34  1  0  0  0  0
 13 14  1  0  0  0  0
 13 35  1  0  0  0  0
 14 15  2  0  0  0  0
 14 36  1  0  0  0  0
M  END
> <s_m_source_file>
AV-unprocessed.smi

> <i_m_source_file_index>
3112

> <i_lp_mmshare_version>
43012

> <i_f3d_flags>
0

> <s_epik_input>
W0NIM11bQ0gyXVtDQEhdKFtPSF0pW0NIMl1bTkhdW0NASF0oW0NIM10pW0NASF0oW0NIM10pbjFbY0hdW2NIXVtjSF1uMQ==

> <s_epik_cmdline>
J2VwaWtfcHl0aG9uJywgJy1waCcsICc3LjAnLCAnLXRuJywgJzgnLCAnLW1hJywgJzIwMCcsICctbWV0YWxfYmluZGluZycsICctaW1hZScsICc8aW5maWxlLm1hZT4nLCAnLW9tYWUnLCAnPG91dGZpbGUubWFlPic=

> <r_lp_tautomer_probability>
1

> <r_epik_Ionization_Penalty>
2.16876

> <r_epik_Ionization_Penalty_Charging>
0

> <r_epik_Ionization_Penalty_Neutral>
2.16876

> <r_epik_State_Penalty>
2.30854

> <r_epik_Charging_Adjusted_Penalty>
2.30854

> <i_epik_Tot_Q>
0

> <i_epik_Tot_abs_Q>
0

> <r_epik_Metal_State_Penalty>
2.3073

> <b_epik_Metal_Only>
0

> <s_lp_Force_Field>
OPLS_2005

> <r_lp_Energy>
23.3331

> <b_lp_Chiralities_Consistent>
1

> <s_lp_Variant>
AV-unprocessed.smi:3112-15

> <Gold.Version>
5.8.1

> <Gold.Id.Protein>
6NUR|6NUR_protein|mol2

> <Gold.PLP.Fitness>
43.3624

> <Gold.PLP.PLP>
-38.9338

> <Gold.PLP.part.hbond>
-4.0000

> <Gold.PLP.part.metal>
0.0000

> <Gold.PLP.part.buried>
-3.4097

> <Gold.PLP.part.nonpolar>
-30.8249

> <Gold.PLP.part.repulsive>
0.0000

> <Gold.PLP.ligand.clash>
0.0000

> <Gold.PLP.ligand.torsion>
0.5211

> <Gold.PLP.Chemscore.Hbond>
1.7818

> <Gold.PLP.Chemscore.CHOScore>
0.0000

> <Gold.PLP.Chemscore.Metal>
0.0000

> <Gold.Chemscore.Hbonds>
donor molecule, donor type, donor heavy atom, donor atom, acceptor molecule, acceptor atom, score
      L1  H     4    22       P1  7957  0.53
      P1  H  7989  7998       L1     4  0.26
      P1  H  8011  8017       L1     4  0.94

> <Gold.PLP.Chemscore.Internal.Correction>
0.1256

> <Gold.Rescore>
     Score         DG    S(hbond)    S(metal)    S(lipo)     H(rot)  DE(clash)    DE(int)     intcor
     12.03     -14.08       1.02        0.00      94.93       2.31       0.10       1.95       ----

> <Gold.Chemscore.Fitness>
12.0291

> <Gold.Chemscore.DG>
-14.0819

> <Gold.Chemscore.ZeroCoef>
-5.4800

> <Gold.Chemscore.Hbond>
1.0213

> <Gold.Chemscore.Metal>
0.0000

> <Gold.Chemscore.Lipo>
94.9259

> <Gold.Chemscore.Internal_Hbond>
0.0000

> <Gold.Chemscore.DEClash>
0.1032

> <Gold.Chemscore.DEInternal>
1.9495

> <Gold.Chemscore.Rot>
2.3108

> <Gold.Chemscore.Internal.Correction>
   9.000000E+99

> <Gold.Chemscore.Hbonds>
donor molecule, donor type, donor heavy atom, donor atom, acceptor molecule, acceptor atom, score
      L1  H     4    22       P1  7957  0.53
      P1  H  7989  7998       L1     4  0.16
      P1  H  8011  8017       L1     4  0.05

> <Gold.Chemscore.Hbond.Weighted>
-3.4112

> <Gold.Chemscore.Metal.Weighted>
-0.0000

> <Gold.Chemscore.Lipo.Weighted>
-11.1063

> <Gold.Chemscore.Internal_Hbond.Weighted>
0.0000

> <Gold.Chemscore.DEClash.Weighted>
0.1032

> <Gold.Chemscore.DEInternal.Weighted>
1.9495

> <Gold.Chemscore.Rot.Weighted>
5.9157

> <Gold.Chemscore.Internal.Correction.Weighted>
   9.000000E+99

> <Gold.Protein.RotatedTorsions>
[ 6907 6896 6895 6894 ] final   38.51 input  -60.11 | X-H torsion
[ 7974 7965 7964 7962 ] final  121.82 input  175.53 | X-H torsion
[ 8008 7997 7996 7995 ] final   28.25 input   59.86 | X-H torsion
[ 10167 10162 10161 10158 ] final  122.76 input  -65.29 | X-H torsion
[ 10718 10713 10712 10709 ] final   41.05 input   66.30 | X-H torsion
[ 10763 10752 10751 10750 ] final  -51.34 input  -60.55 | X-H torsion
[ 11005 11000 10999 10996 ] final -166.48 input  -57.11 | X-H torsion

> <Gold.Protein.ActiveResidues>
 VAL166  LYS551  ARG553  GLY616  TRP617  ASP618  TYR619  PRO620  LYS621  CYS622 
 ASP623  PHE694  ASN695  SER759  ASP760  ASP761  ALA762  ILE779  LEU786  VAL792 
 PHE793  MET794  SER795  GLU796  ALA797  LYS798  CYS799  TRP800  GLU811  SER814 

> <Gold.Protein.RotatedAtoms>
  152.1574  134.8940  160.0543 H   0  0  0  0  0  0  0  0  0  0  0  0  # atno 6907 bound_to 6896
  151.9949  133.3799  159.4167 H   0  0  0  0  0  0  0  0  0  0  0  0  # atno 6908 bound_to 6896
  150.6883  134.3819  159.5082 H   0  0  0  0  0  0  0  0  0  0  0  0  # atno 6909 bound_to 6896
  145.1149  139.3428  143.4744 H   0  0  0  0  0  0  0  0  0  0  0  0  # atno 7974 bound_to 7965
  155.0557  140.3184  155.4677 H   0  0  0  0  0  0  0  0  0  0  0  0  # atno 8008 bound_to 7997
  156.2824  140.2138  156.5627 H   0  0  0  0  0  0  0  0  0  0  0  0  # atno 8009 bound_to 7997
  154.7174  140.0492  157.0595 H   0  0  0  0  0  0  0  0  0  0  0  0  # atno 8010 bound_to 7997
  139.5839  144.6998  151.3458 H   0  0  0  0  0  0  0  0  0  0  0  0  # atno 10167 bound_to 10162
  157.3892  130.7797  149.7255 H   0  0  0  0  0  0  0  0  0  0  0  0  # atno 10718 bound_to 10713
  154.1249  135.6529  153.4910 H   0  0  0  0  0  0  0  0  0  0  0  0  # atno 10763 bound_to 10752
  153.0213  135.5279  154.7059 H   0  0  0  0  0  0  0  0  0  0  0  0  # atno 10764 bound_to 10752
  154.6277  135.2972  155.0223 H   0  0  0  0  0  0  0  0  0  0  0  0  # atno 10765 bound_to 10752
  140.5640  134.5304  157.5149 H   0  0  0  0  0  0  0  0  0  0  0  0  # atno 11005 bound_to 11000
  146.3524  140.1083  142.8605 LP  0  0  0  0  0  0  0  0  0  0  0  0  # atno 17320 bound_to 7965
  145.0806  140.9218  143.4828 LP  0  0  0  0  0  0  0  0  0  0  0  0  # atno 17321 bound_to 7965
  140.7114  143.7381  150.7573 LP  0  0  0  0  0  0  0  0  0  0  0  0  # atno 17342 bound_to 10162
  140.0921  143.4868  152.2473 LP  0  0  0  0  0  0  0  0  0  0  0  0  # atno 17343 bound_to 10162
  155.9794  130.4040  150.3590 LP  0  0  0  0  0  0  0  0  0  0  0  0  # atno 17370 bound_to 10713
  157.1703  131.0367  151.2798 LP  0  0  0  0  0  0  0  0  0  0  0  0  # atno 17371 bound_to 10713
  139.9394  134.7815  156.0718 LP  0  0  0  0  0  0  0  0  0  0  0  0  # atno 17394 bound_to 11000
  141.1097  133.6647  156.2948 LP  0  0  0  0  0  0  0  0  0  0  0  0  # atno 17395 bound_to 11000

$$$$
