AV-unprocessed.smi:157|AV-procd|sdf|1307|dock2
  -GOLD-   2262018593D 1   1.00000     0.00000
 Structure written by MMmdl.
 36 38  0  0  0  0  0  0  0  0  2 V2000
  146.7803  137.3645  151.2538 O   0  0  0  0  0  0  0  0  0  0  0  0
  145.5558  136.6726  151.3744 C   0  0  0  0  0  0  0  0  0  0  0  0
  145.6192  135.3502  150.5945 C   0  0  1  0  0  0  0  0  0  0  0  0
  146.4905  134.4506  151.2719 O   0  0  0  0  0  0  0  0  0  0  0  0
  146.0735  133.1636  150.9790 C   0  0  1  0  0  0  0  0  0  0  0  0
  146.6382  132.2344  152.0037 N   0  0  0  0  0  0  0  0  0  0  0  0
  146.2421  130.9610  152.2050 C   0  0  0  0  0  0  0  0  0  0  0  0
  146.8997  130.3293  153.1625 N   0  3  0  0  0  0  0  0  0  0  0  0
  147.8236  131.2244  153.6588 C   0  0  0  0  0  0  0  0  0  0  0  0
  147.6426  132.4046  152.9325 C   0  0  0  0  0  0  0  0  0  0  0  0
  148.3195  133.6307  153.0338 N   0  0  0  0  0  0  0  0  0  0  0  0
  149.0425  133.9545  154.0559 C   0  0  0  0  0  0  0  0  0  0  0  0
  149.3792  133.1928  155.1623 N   0  0  0  0  0  0  0  0  0  0  0  0
  149.8603  131.8264  155.0621 C   0  0  0  0  0  0  0  0  0  0  0  0
  148.7576  130.8055  154.7514 C   0  0  1  0  0  0  0  0  0  0  0  0
  148.0818  130.4911  155.9516 O   0  0  0  0  0  0  0  0  0  0  0  0
  144.5526  133.2067  151.0360 C   0  0  0  0  0  0  0  0  0  0  0  0
  144.2625  134.6125  150.5271 C   0  0  2  0  0  0  0  0  0  0  0  0
  143.7909  134.5607  149.1951 O   0  0  0  0  0  0  0  0  0  0  0  0
  146.0053  135.5150  149.5861 H   0  0  0  0  0  0  0  0  0  0  0  0
  146.4666  132.8358  150.0149 H   0  0  0  0  0  0  0  0  0  0  0  0
  149.2444  129.8830  154.4331 H   0  0  0  0  0  0  0  0  0  0  0  0
  143.5043  135.0876  151.1513 H   0  0  0  0  0  0  0  0  0  0  0  0
  147.3686  137.0557  151.9257 H   0  0  0  0  0  0  0  0  0  0  0  0
  145.3143  136.5035  152.4244 H   0  0  0  0  0  0  0  0  0  0  0  0
  144.7780  137.3155  150.9611 H   0  0  0  0  0  0  0  0  0  0  0  0
  145.4574  130.5015  151.6310 H   0  0  0  0  0  0  0  0  0  0  0  0
  149.4781  134.9538  154.0986 H   0  0  0  0  0  0  0  0  0  0  0  0
  149.7600  133.6599  155.9731 H   0  0  0  0  0  0  0  0  0  0  0  0
  150.6007  131.8002  154.2611 H   0  0  0  0  0  0  0  0  0  0  0  0
  150.3938  131.5565  155.9743 H   0  0  0  0  0  0  0  0  0  0  0  0
  148.7200  130.2563  156.6074 H   0  0  0  0  0  0  0  0  0  0  0  0
  144.1130  132.4034  150.4431 H   0  0  0  0  0  0  0  0  0  0  0  0
  144.2155  133.1073  152.0682 H   0  0  0  0  0  0  0  0  0  0  0  0
  144.5191  134.3720  148.6232 H   0  0  0  0  0  0  0  0  0  0  0  0
  146.7558  129.3727  153.4603 H   0  0  0  0  0  0  0  0  0  0  0  0
  1  2  1  0  0  0  0
  1 24  1  0  0  0  0
  2  3  1  0  0  0  0
  2 25  1  0  0  0  0
  2 26  1  0  0  0  0
  3 20  1  0  0  0  0
  3 18  1  0  0  0  0
  3  4  1  0  0  0  0
  4  5  1  0  0  0  0
  5 21  1  0  0  0  0
  5  6  1  0  0  0  0
  5 17  1  0  0  0  0
  6 10  1  0  0  0  0
  6  7  1  0  0  0  0
  7  8  2  0  0  0  0
  7 27  1  0  0  0  0
  8  9  1  0  0  0  0
  8 36  1  0  0  0  0
  9 15  1  0  0  0  0
  9 10  2  0  0  0  0
 10 11  1  0  0  0  0
 11 12  2  0  0  0  0
 12 13  1  0  0  0  0
 12 28  1  0  0  0  0
 13 14  1  0  0  0  0
 13 29  1  0  0  0  0
 14 15  1  0  0  0  0
 14 30  1  0  0  0  0
 14 31  1  0  0  0  0
 15 22  1  0  0  0  0
 15 16  1  0  0  0  0
 16 32  1  0  0  0  0
 17 18  1  0  0  0  0
 17 33  1  0  0  0  0
 17 34  1  0  0  0  0
 18 23  1  0  0  0  0
 18 19  1  0  0  0  0
 19 35  1  0  0  0  0
M  CHG  1   8   1
M  END
> <s_m_source_file>
AV-unprocessed.smi

> <i_m_source_file_index>
157

> <i_lp_mmshare_version>
43012

> <i_f3d_flags>
0

> <s_epik_input>
W09IXVtDSDJdW0NASF0xT1tDQEhdKFtDSDJdW0NAQEhdMVtPSF0pbihbY0hdbjIpYyhjMjMpTj1bQ0hdW05IXVtDSDJdW0NASF0zW09IXQ==

> <s_epik_cmdline>
J2VwaWtfcHl0aG9uJywgJy1waCcsICc3LjAnLCAnLXRuJywgJzgnLCAnLW1hJywgJzIwMCcsICctbWV0YWxfYmluZGluZycsICctaW1hZScsICc8aW5maWxlLm1hZT4nLCAnLW9tYWUnLCAnPG91dGZpbGUubWFlPic=

> <r_epik_Ionization_Penalty>
1.68594

> <r_epik_Ionization_Penalty_Charging>
0

> <r_epik_Ionization_Penalty_Neutral>
1.68594

> <r_epik_State_Penalty>
1.79006

> <r_epik_Charging_Adjusted_Penalty>
1.79006

> <i_epik_Tot_Q>
1

> <i_epik_Tot_abs_Q>
1

> <r_epik_Metal_State_Penalty>
5.85324

> <b_epik_Metal_Only>
0

> <s_epik_Chemistry_Notes>
This compound has an imine and may undergo hydrolysis. This compound contains an acetal/aminal-like group ( X-CH(R)-Y where X, Y are N, S, or O) that may be acid/base labile, releasing an aldehyde.

> <s_lp_Force_Field>
OPLS_2005

> <r_lp_Energy>
53.8219

> <b_lp_Chiralities_Consistent>
1

> <s_lp_Variant>
AV-unprocessed.smi:157-17

> <Gold.Version>
5.8.1

> <Gold.Id.Protein>
6NUR|6NUR_protein|mol2

> <Gold.PLP.Fitness>
37.9339

> <Gold.PLP.PLP>
-29.7091

> <Gold.PLP.part.hbond>
-3.7243

> <Gold.PLP.part.metal>
0.0000

> <Gold.PLP.part.buried>
-1.5377

> <Gold.PLP.part.nonpolar>
-24.9506

> <Gold.PLP.part.repulsive>
1.9909

> <Gold.PLP.ligand.clash>
0.0000

> <Gold.PLP.ligand.torsion>
0.3188

> <Gold.PLP.Chemscore.Hbond>
2.5920

> <Gold.PLP.Chemscore.CHOScore>
0.3550

> <Gold.PLP.Chemscore.Metal>
0.0000

> <Gold.Chemscore.Hbonds>
donor molecule, donor type, donor heavy atom, donor atom, acceptor molecule, acceptor atom, score
      L1  H     1    24       P1  7948  0.62
      L1  H    19    35       P1  7921  1.00
      P1  H  7954  7966       L1     1  0.90
      L1  C    12    28       P1  7948  0.44

> <Gold.PLP.Chemscore.Internal.Correction>
0.0214

> <Gold.Rescore>
     Score         DG    S(hbond)    S(metal)    S(lipo)     H(rot)  DE(clash)    DE(int)     intcor
      5.91      -7.72       2.20        0.00      36.62       3.67       0.11       1.70       ----

> <Gold.Chemscore.Fitness>
5.9117

> <Gold.Chemscore.DG>
-7.7230

> <Gold.Chemscore.ZeroCoef>
-5.4800

> <Gold.Chemscore.Hbond>
2.1985

> <Gold.Chemscore.Metal>
0.0000

> <Gold.Chemscore.Lipo>
36.6222

> <Gold.Chemscore.Internal_Hbond>
0.0000

> <Gold.Chemscore.DEClash>
0.1084

> <Gold.Chemscore.DEInternal>
1.7029

> <Gold.Chemscore.Rot>
3.6659

> <Gold.Chemscore.Internal.Correction>
   9.000000E+99

> <Gold.Chemscore.Hbonds>
donor molecule, donor type, donor heavy atom, donor atom, acceptor molecule, acceptor atom, score
      L1  H     1    24       P1  7948  0.62
      L1  H    19    35       P1  7921  0.97
      P1  H  7954  7966       L1     1  0.17

> <Gold.Chemscore.Hbond.Weighted>
-7.3430

> <Gold.Chemscore.Metal.Weighted>
-0.0000

> <Gold.Chemscore.Lipo.Weighted>
-4.2848

> <Gold.Chemscore.Internal_Hbond.Weighted>
0.0000

> <Gold.Chemscore.DEClash.Weighted>
0.1084

> <Gold.Chemscore.DEInternal.Weighted>
1.7029

> <Gold.Chemscore.Rot.Weighted>
9.3848

> <Gold.Chemscore.Internal.Correction.Weighted>
   9.000000E+99

> <Gold.Protein.RotatedTorsions>
[ 6907 6896 6895 6894 ] final  -10.23 input  -60.11 | X-H torsion
[ 7974 7965 7964 7962 ] final -179.45 input  175.53 | X-H torsion
[ 8008 7997 7996 7995 ] final   12.79 input   59.86 | X-H torsion
[ 10167 10162 10161 10158 ] final  -44.15 input  -65.29 | X-H torsion
[ 10718 10713 10712 10709 ] final   94.84 input   66.30 | X-H torsion
[ 10763 10752 10751 10750 ] final -108.43 input  -60.55 | X-H torsion
[ 11005 11000 10999 10996 ] final  136.74 input  -57.11 | X-H torsion

> <Gold.Protein.ActiveResidues>
 VAL166  LYS551  ARG553  GLY616  TRP617  ASP618  TYR619  PRO620  LYS621  CYS622 
 ASP623  PHE694  ASN695  SER759  ASP760  ASP761  ALA762  ILE779  LEU786  VAL792 
 PHE793  MET794  SER795  GLU796  ALA797  LYS798  CYS799  TRP800  GLU811  SER814 

> <Gold.Protein.RotatedAtoms>
  151.4053  135.0977  159.9568 H   0  0  0  0  0  0  0  0  0  0  0  0  # atno 6907 bound_to 6896
  152.5037  133.8849  159.7375 H   0  0  0  0  0  0  0  0  0  0  0  0  # atno 6908 bound_to 6896
  150.9332  133.6685  159.2834 H   0  0  0  0  0  0  0  0  0  0  0  0  # atno 6909 bound_to 6896
  144.7137  140.0716  143.6429 H   0  0  0  0  0  0  0  0  0  0  0  0  # atno 7974 bound_to 7965
  154.8254  140.2891  155.5758 H   0  0  0  0  0  0  0  0  0  0  0  0  # atno 8008 bound_to 7997
  156.3001  140.2542  156.3100 H   0  0  0  0  0  0  0  0  0  0  0  0  # atno 8009 bound_to 7997
  154.9291  140.0384  157.2028 H   0  0  0  0  0  0  0  0  0  0  0  0  # atno 8010 bound_to 7997
  140.6907  143.2945  151.3454 H   0  0  0  0  0  0  0  0  0  0  0  0  # atno 10167 bound_to 10162
  157.6944  131.0526  150.4248 H   0  0  0  0  0  0  0  0  0  0  0  0  # atno 10718 bound_to 10713
  154.8135  135.4638  154.0579 H   0  0  0  0  0  0  0  0  0  0  0  0  # atno 10763 bound_to 10752
  153.1991  135.6866  153.8260 H   0  0  0  0  0  0  0  0  0  0  0  0  # atno 10764 bound_to 10752
  153.7751  135.3264  155.3335 H   0  0  0  0  0  0  0  0  0  0  0  0  # atno 10765 bound_to 10752
  140.0066  134.9456  157.0189 H   0  0  0  0  0  0  0  0  0  0  0  0  # atno 11005 bound_to 11000
  145.9779  139.2918  143.1060 LP  0  0  0  0  0  0  0  0  0  0  0  0  # atno 17320 bound_to 7965
  145.9044  140.9222  143.0486 LP  0  0  0  0  0  0  0  0  0  0  0  0  # atno 17321 bound_to 7965
  139.6308  144.0725  152.2474 LP  0  0  0  0  0  0  0  0  0  0  0  0  # atno 17342 bound_to 10162
  140.0199  144.6161  150.7576 LP  0  0  0  0  0  0  0  0  0  0  0  0  # atno 17343 bound_to 10162
  156.4620  130.4034  149.6570 LP  0  0  0  0  0  0  0  0  0  0  0  0  # atno 17370 bound_to 10713
  156.3682  130.7517  151.2497 LP  0  0  0  0  0  0  0  0  0  0  0  0  # atno 17371 bound_to 10713
  140.4629  134.1465  155.7193 LP  0  0  0  0  0  0  0  0  0  0  0  0  # atno 17394 bound_to 11000
  141.1681  133.8662  157.1653 LP  0  0  0  0  0  0  0  0  0  0  0  0  # atno 17395 bound_to 11000

$$$$
