AV-unprocessed.smi:697|AV-procd|sdf|3395|dock3
  -GOLD-   22720 0373D 1   1.00000     0.00000
 Structure written by MMmdl.
 43 44  0  0  0  0  0  0  0  0  2 V2000
  149.7928  141.2986  157.0849 C   0  0  0  0  0  0  0  0  0  0  0  0
  148.7621  140.4842  156.5392 O   0  0  0  0  0  0  0  0  0  0  0  0
  148.8494  140.1600  155.1450 C   0  0  1  0  0  0  0  0  0  0  0  0
  148.8962  141.4370  154.2963 C   0  0  0  0  0  0  0  0  0  0  0  0
  149.9112  139.0662  154.9215 C   0  0  0  0  0  0  0  0  0  0  0  0
  148.8344  138.0479  155.2911 C   0  0  2  0  0  0  0  0  0  0  0  0
  148.9137  136.8304  154.4908 N   0  0  0  0  0  0  0  0  0  0  0  0
  149.0746  135.5998  154.9952 C   0  0  0  0  0  0  0  0  0  0  0  0
  149.1959  135.3791  156.2000 O   0  0  0  0  0  0  0  0  0  0  0  0
  149.0847  134.6799  154.0135 N   0  0  0  0  0  0  0  0  0  0  0  0
  149.1852  133.2796  154.0928 C   0  0  0  0  0  0  0  0  0  0  0  0
  150.1359  132.6019  154.7946 C   0  0  0  0  0  0  0  0  0  0  0  0
  150.1768  131.1460  154.8490 C   0  0  0  0  0  0  0  0  0  0  0  0
  151.2768  130.3607  155.5411 C   0  0  0  0  0  0  0  0  0  0  0  0
  151.9179  129.5697  154.6806 F   0  0  0  0  0  0  0  0  0  0  0  0
  152.1660  131.1792  156.1033 F   0  0  0  0  0  0  0  0  0  0  0  0
  150.7542  129.5956  156.4981 F   0  0  0  0  0  0  0  0  0  0  0  0
  149.1642  130.5649  154.1106 C   0  0  0  0  0  0  0  0  0  0  0  0
  148.1722  131.1593  153.4124 N   0  5  0  0  0  0  0  0  0  0  0  0
  148.1430  132.5214  153.3694 C   0  0  0  0  0  0  0  0  0  0  0  0
  147.2704  133.1265  152.7454 O   0  0  0  0  0  0  0  0  0  0  0  0
  147.7718  139.0741  154.8194 C   0  0  0  0  0  0  0  0  0  0  0  0
  146.4781  139.1236  155.6402 C   0  0  0  0  0  0  0  0  0  0  0  0
  147.3287  138.9831  153.3466 C   0  0  0  0  0  0  0  0  0  0  0  0
  149.6902  141.3213  158.1695 H   0  0  0  0  0  0  0  0  0  0  0  0
  149.7188  142.3276  156.7335 H   0  0  0  0  0  0  0  0  0  0  0  0
  150.7883  140.9207  156.8548 H   0  0  0  0  0  0  0  0  0  0  0  0
  148.8582  141.2168  153.2302 H   0  0  0  0  0  0  0  0  0  0  0  0
  149.8168  141.9978  154.4548 H   0  0  0  0  0  0  0  0  0  0  0  0
  148.0577  142.0953  154.5243 H   0  0  0  0  0  0  0  0  0  0  0  0
  150.2380  139.0006  153.8823 H   0  0  0  0  0  0  0  0  0  0  0  0
  150.7645  139.0782  155.5987 H   0  0  0  0  0  0  0  0  0  0  0  0
  148.8031  137.8676  156.3681 H   0  0  0  0  0  0  0  0  0  0  0  0
  148.8270  136.9303  153.4900 H   0  0  0  0  0  0  0  0  0  0  0  0
  149.0252  135.0343  153.0700 H   0  0  0  0  0  0  0  0  0  0  0  0
  150.8912  133.1247  155.3566 H   0  0  0  0  0  0  0  0  0  0  0  0
  149.1509  129.4546  154.0725 H   0  0  0  0  0  0  0  0  0  0  0  0
  145.8234  138.2831  155.4075 H   0  0  0  0  0  0  0  0  0  0  0  0
  145.9196  140.0405  155.4503 H   0  0  0  0  0  0  0  0  0  0  0  0
  146.6725  139.0781  156.7120 H   0  0  0  0  0  0  0  0  0  0  0  0
  146.7139  138.1010  153.1644 H   0  0  0  0  0  0  0  0  0  0  0  0
  148.1763  138.9248  152.6635 H   0  0  0  0  0  0  0  0  0  0  0  0
  146.7384  139.8514  153.0529 H   0  0  0  0  0  0  0  0  0  0  0  0
  1  2  1  0  0  0  0
  1 25  1  0  0  0  0
  1 26  1  0  0  0  0
  1 27  1  0  0  0  0
  2  3  1  0  0  0  0
  3 22  1  0  0  0  0
  3  4  1  0  0  0  0
  3  5  1  0  0  0  0
  4 28  1  0  0  0  0
  4 29  1  0  0  0  0
  4 30  1  0  0  0  0
  5  6  1  0  0  0  0
  5 31  1  0  0  0  0
  5 32  1  0  0  0  0
  6  7  1  0  0  0  0
  6 22  1  0  0  0  0
  6 33  1  0  0  0  0
  7  8  1  0  0  0  0
  7 34  1  0  0  0  0
  8  9  2  0  0  0  0
  8 10  1  0  0  0  0
 10 11  1  0  0  0  0
 10 35  1  0  0  0  0
 11 20  1  0  0  0  0
 11 12  2  0  0  0  0
 12 13  1  0  0  0  0
 12 36  1  0  0  0  0
 13 14  1  0  0  0  0
 13 18  2  0  0  0  0
 14 15  1  0  0  0  0
 14 16  1  0  0  0  0
 14 17  1  0  0  0  0
 18 19  1  0  0  0  0
 18 37  1  0  0  0  0
 19 20  1  0  0  0  0
 20 21  2  0  0  0  0
 22 23  1  0  0  0  0
 22 24  1  0  0  0  0
 23 38  1  0  0  0  0
 23 39  1  0  0  0  0
 23 40  1  0  0  0  0
 24 41  1  0  0  0  0
 24 42  1  0  0  0  0
 24 43  1  0  0  0  0
M  CHG  1  19  -1
M  END
> <s_m_source_file>
AV-unprocessed.smi

> <i_m_source_file_index>
697

> <i_lp_mmshare_version>
43012

> <i_f3d_flags>
0

> <s_epik_input>
W0NIM11PW0NAQF0xKFtDSDNdKVtDSDJdW0NASF0oQzEoW0NIM10pW0NIM10pW05IXUMoPU8pW05IXWMyW2NIXWMoQyhGKShGKUYpW2NIXVtuSF1jMj1P

> <s_epik_cmdline>
J2VwaWtfcHl0aG9uJywgJy1waCcsICc3LjAnLCAnLXRuJywgJzgnLCAnLW1hJywgJzIwMCcsICctbWV0YWxfYmluZGluZycsICctaW1hZScsICc8aW5maWxlLm1hZT4nLCAnLW9tYWUnLCAnPG91dGZpbGUubWFlPic=

> <r_lp_tautomer_probability>
1

> <r_epik_Ionization_Penalty>
3.20094

> <r_epik_Ionization_Penalty_Charging>
0.180017

> <r_epik_Ionization_Penalty_Neutral>
3.02092

> <r_epik_State_Penalty>
3.01726

> <r_epik_Charging_Adjusted_Penalty>
3.19727

> <i_epik_Tot_Q>
-1

> <i_epik_Tot_abs_Q>
1

> <r_epik_Metal_State_Penalty>
0.455096

> <b_epik_Metal_Only>
1

> <s_lp_Force_Field>
OPLS_2005

> <r_lp_Energy>
36.256

> <b_lp_Chiralities_Consistent>
1

> <s_lp_Variant>
AV-unprocessed.smi:697-7

> <Gold.Version>
5.8.1

> <Gold.Id.Protein>
6NUR|6NUR_protein|mol2

> <Gold.PLP.Fitness>
36.8042

> <Gold.PLP.PLP>
-32.1003

> <Gold.PLP.part.hbond>
-2.0000

> <Gold.PLP.part.metal>
0.0000

> <Gold.PLP.part.buried>
-2.7798

> <Gold.PLP.part.nonpolar>
-27.6299

> <Gold.PLP.part.repulsive>
0.3001

> <Gold.PLP.ligand.clash>
0.0000

> <Gold.PLP.ligand.torsion>
0.7190

> <Gold.PLP.Chemscore.Hbond>
1.8920

> <Gold.PLP.Chemscore.CHOScore>
0.0000

> <Gold.PLP.Chemscore.Metal>
0.0000

> <Gold.Chemscore.Hbonds>
donor molecule, donor type, donor heavy atom, donor atom, acceptor molecule, acceptor atom, score
      L1  H     7    34       P1  7948  0.99
      L1  H    10    35       P1  7948  0.85

> <Gold.PLP.Chemscore.Internal.Correction>
0.4660

> <Gold.Rescore>
     Score         DG    S(hbond)    S(metal)    S(lipo)     H(rot)  DE(clash)    DE(int)     intcor
     13.91     -14.64       1.56        0.00      62.00       1.30       0.07       0.65       ----

> <Gold.Chemscore.Fitness>
13.9120

> <Gold.Chemscore.DG>
-14.6389

> <Gold.Chemscore.ZeroCoef>
-5.4800

> <Gold.Chemscore.Hbond>
1.5645

> <Gold.Chemscore.Metal>
0.0000

> <Gold.Chemscore.Lipo>
62.0032

> <Gold.Chemscore.Internal_Hbond>
0.0000

> <Gold.Chemscore.DEClash>
0.0737

> <Gold.Chemscore.DEInternal>
0.6532

> <Gold.Chemscore.Rot>
1.2973

> <Gold.Chemscore.Internal.Correction>
   9.000000E+99

> <Gold.Chemscore.Hbonds>
donor molecule, donor type, donor heavy atom, donor atom, acceptor molecule, acceptor atom, score
      L1  H     7    34       P1  7948  0.94
      L1  H    10    35       P1  7948  0.14

> <Gold.Chemscore.Hbond.Weighted>
-5.2256

> <Gold.Chemscore.Metal.Weighted>
-0.0000

> <Gold.Chemscore.Lipo.Weighted>
-7.2544

> <Gold.Chemscore.Internal_Hbond.Weighted>
0.0000

> <Gold.Chemscore.DEClash.Weighted>
0.0737

> <Gold.Chemscore.DEInternal.Weighted>
0.6532

> <Gold.Chemscore.Rot.Weighted>
3.3210

> <Gold.Chemscore.Internal.Correction.Weighted>
   9.000000E+99

> <Gold.Protein.RotatedTorsions>
[ 6907 6896 6895 6894 ] final   46.70 input  -60.11 | X-H torsion
[ 7974 7965 7964 7962 ] final  121.61 input  175.53 | X-H torsion
[ 8008 7997 7996 7995 ] final -176.32 input   59.86 | X-H torsion
[ 10167 10162 10161 10158 ] final   50.10 input  -65.29 | X-H torsion
[ 10718 10713 10712 10709 ] final  -36.07 input   66.30 | X-H torsion
[ 10763 10752 10751 10750 ] final   83.35 input  -60.55 | X-H torsion
[ 11005 11000 10999 10996 ] final -128.42 input  -57.11 | X-H torsion

> <Gold.Protein.ActiveResidues>
 VAL166  LYS551  ARG553  GLY616  TRP617  ASP618  TYR619  PRO620  LYS621  CYS622 
 ASP623  PHE694  ASN695  SER759  ASP760  ASP761  ALA762  ILE779  LEU786  VAL792 
 PHE793  MET794  SER795  GLU796  ALA797  LYS798  CYS799  TRP800  GLU811  SER814 

> <Gold.Protein.RotatedAtoms>
  152.2595  134.8049  160.0432 H   0  0  0  0  0  0  0  0  0  0  0  0  # atno 6907 bound_to 6896
  151.8700  133.3469  159.3740 H   0  0  0  0  0  0  0  0  0  0  0  0  # atno 6908 bound_to 6896
  150.7111  134.5049  159.5623 H   0  0  0  0  0  0  0  0  0  0  0  0  # atno 6909 bound_to 6896
  145.1173  139.3412  143.4732 H   0  0  0  0  0  0  0  0  0  0  0  0  # atno 7974 bound_to 7965
  155.9934  140.1205  157.0616 H   0  0  0  0  0  0  0  0  0  0  0  0  # atno 8008 bound_to 7997
  154.4219  140.1121  156.5665 H   0  0  0  0  0  0  0  0  0  0  0  0  # atno 8009 bound_to 7997
  155.6311  140.3473  155.4685 H   0  0  0  0  0  0  0  0  0  0  0  0  # atno 8010 bound_to 7997
  140.2760  144.3211  150.6277 H   0  0  0  0  0  0  0  0  0  0  0  0  # atno 10167 bound_to 10162
  156.3311  130.4279  149.7871 H   0  0  0  0  0  0  0  0  0  0  0  0  # atno 10718 bound_to 10713
  153.1283  135.4694  154.9308 H   0  0  0  0  0  0  0  0  0  0  0  0  # atno 10763 bound_to 10752
  154.7641  135.3139  154.8324 H   0  0  0  0  0  0  0  0  0  0  0  0  # atno 10764 bound_to 10752
  153.8872  135.6888  153.4817 H   0  0  0  0  0  0  0  0  0  0  0  0  # atno 10765 bound_to 10752
  140.9517  134.1056  157.4055 H   0  0  0  0  0  0  0  0  0  0  0  0  # atno 11005 bound_to 11000
  146.3523  140.1117  142.8603 LP  0  0  0  0  0  0  0  0  0  0  0  0  # atno 17320 bound_to 7965
  145.0780  140.9201  143.4842 LP  0  0  0  0  0  0  0  0  0  0  0  0  # atno 17321 bound_to 7965
  140.5851  143.2170  151.7357 LP  0  0  0  0  0  0  0  0  0  0  0  0  # atno 17342 bound_to 10162
  139.4975  144.4023  152.0168 LP  0  0  0  0  0  0  0  0  0  0  0  0  # atno 17343 bound_to 10162
  156.5143  130.8186  151.3180 LP  0  0  0  0  0  0  0  0  0  0  0  0  # atno 17370 bound_to 10713
  157.7430  130.9903  150.2563 LP  0  0  0  0  0  0  0  0  0  0  0  0  # atno 17371 bound_to 10713
  139.8850  135.0068  156.6403 LP  0  0  0  0  0  0  0  0  0  0  0  0  # atno 17394 bound_to 11000
  140.7592  133.8831  155.8405 LP  0  0  0  0  0  0  0  0  0  0  0  0  # atno 17395 bound_to 11000

$$$$
