AV-unprocessed.smi:879|AV-procd|sdf|4033|dock2
  -GOLD-   22720 1523D 1   1.00000     0.00000
 Structure written by MMmdl.
 39 40  0  0  0  0  0  0  0  0  1 V2000
  148.8227  134.8622  155.0431 C   0  0  0  0  0  0  0  0  0  0  0  0
  149.5232  136.0067  154.4807 N   0  0  0  0  0  0  0  0  0  0  0  0
  150.6498  136.5265  154.9892 C   0  0  0  0  0  0  0  0  0  0  0  0
  151.2020  136.0732  155.9933 O   0  0  0  0  0  0  0  0  0  0  0  0
  151.2315  137.7299  154.2352 C   0  0  0  0  0  0  0  0  0  0  0  0
  150.6540  139.0311  154.7002 C   0  0  0  0  0  0  0  0  0  0  0  0
  149.3956  139.3620  154.4330 N   0  0  0  0  0  0  0  0  0  0  0  0
  149.2614  140.6271  155.0221 O   0  0  0  0  0  0  0  0  0  0  0  0
  150.4637  140.9042  155.5822 C   0  0  0  0  0  0  0  0  0  0  0  0
  150.6596  142.2181  156.2674 C   0  0  0  0  0  0  0  0  0  0  0  0
  150.8121  142.1111  157.8015 C   0  0  0  0  0  0  0  0  0  0  0  0
  151.0220  143.5044  158.4369 C   0  0  0  0  0  0  0  0  0  0  0  0
  152.4783  143.9973  158.4951 C   0  0  0  0  0  0  0  0  0  0  0  0
  153.2060  143.5545  159.7759 C   0  0  0  0  0  0  0  0  0  0  0  0
  153.5550  142.0598  159.8350 C   0  0  0  0  0  0  0  0  0  0  0  0
  152.3590  141.1080  159.6580 C   0  0  0  0  0  0  0  0  0  0  0  0
  151.8571  141.0432  158.2053 C   0  0  0  0  0  0  0  0  0  0  0  0
  151.3757  139.9536  155.3960 N   0  0  0  0  0  0  0  0  0  0  0  0
  147.9605  134.6134  154.4245 H   0  0  0  0  0  0  0  0  0  0  0  0
  148.4678  135.0828  156.0504 H   0  0  0  0  0  0  0  0  0  0  0  0
  149.4745  133.9885  155.0867 H   0  0  0  0  0  0  0  0  0  0  0  0
  149.1276  136.4298  153.6535 H   0  0  0  0  0  0  0  0  0  0  0  0
  152.3134  137.7452  154.3714 H   0  0  0  0  0  0  0  0  0  0  0  0
  151.0484  137.6160  153.1655 H   0  0  0  0  0  0  0  0  0  0  0  0
  151.5367  142.7037  155.8381 H   0  0  0  0  0  0  0  0  0  0  0  0
  149.8083  142.8530  156.0190 H   0  0  0  0  0  0  0  0  0  0  0  0
  149.8495  141.7621  158.1792 H   0  0  0  0  0  0  0  0  0  0  0  0
  150.4243  144.2355  157.8911 H   0  0  0  0  0  0  0  0  0  0  0  0
  150.6044  143.5088  159.4447 H   0  0  0  0  0  0  0  0  0  0  0  0
  153.0321  143.6995  157.6042 H   0  0  0  0  0  0  0  0  0  0  0  0
  152.4648  145.0876  158.4857 H   0  0  0  0  0  0  0  0  0  0  0  0
  154.1320  144.1234  159.8646 H   0  0  0  0  0  0  0  0  0  0  0  0
  152.6111  143.8263  160.6486 H   0  0  0  0  0  0  0  0  0  0  0  0
  154.3189  141.8323  159.0907 H   0  0  0  0  0  0  0  0  0  0  0  0
  154.0190  141.8593  160.8011 H   0  0  0  0  0  0  0  0  0  0  0  0
  152.6926  140.1090  159.9405 H   0  0  0  0  0  0  0  0  0  0  0  0
  151.5495  141.3551  160.3458 H   0  0  0  0  0  0  0  0  0  0  0  0
  151.4148  140.0595  158.0418 H   0  0  0  0  0  0  0  0  0  0  0  0
  152.7135  141.0867  157.5313 H   0  0  0  0  0  0  0  0  0  0  0  0
  1  2  1  0  0  0  0
  1 19  1  0  0  0  0
  1 20  1  0  0  0  0
  1 21  1  0  0  0  0
  2  3  1  0  0  0  0
  2 22  1  0  0  0  0
  3  4  2  0  0  0  0
  3  5  1  0  0  0  0
  5  6  1  0  0  0  0
  5 23  1  0  0  0  0
  5 24  1  0  0  0  0
  6 18  1  0  0  0  0
  6  7  2  0  0  0  0
  7  8  1  0  0  0  0
  8  9  1  0  0  0  0
  9 10  1  0  0  0  0
  9 18  2  0  0  0  0
 10 11  1  0  0  0  0
 10 25  1  0  0  0  0
 10 26  1  0  0  0  0
 11 17  1  0  0  0  0
 11 12  1  0  0  0  0
 11 27  1  0  0  0  0
 12 13  1  0  0  0  0
 12 28  1  0  0  0  0
 12 29  1  0  0  0  0
 13 14  1  0  0  0  0
 13 30  1  0  0  0  0
 13 31  1  0  0  0  0
 14 15  1  0  0  0  0
 14 32  1  0  0  0  0
 14 33  1  0  0  0  0
 15 16  1  0  0  0  0
 15 34  1  0  0  0  0
 15 35  1  0  0  0  0
 16 17  1  0  0  0  0
 16 36  1  0  0  0  0
 16 37  1  0  0  0  0
 17 38  1  0  0  0  0
 17 39  1  0  0  0  0
M  END
> <s_m_source_file>
AV-unprocessed.smi

> <i_m_source_file_index>
879

> <i_lp_mmshare_version>
43012

> <i_f3d_flags>
0

> <s_epik_input>
W0NIM11bTkhdQyg9TylbQ0gyXWMxbm9jKG4xKVtDSDJdW0NIXTJbQ0gyXVtDSDJdW0NIMl1bQ0gyXVtDSDJdW0NIMl0y

> <s_epik_cmdline>
J2VwaWtfcHl0aG9uJywgJy1waCcsICc3LjAnLCAnLXRuJywgJzgnLCAnLW1hJywgJzIwMCcsICctbWV0YWxfYmluZGluZycsICctaW1hZScsICc8aW5maWxlLm1hZT4nLCAnLW9tYWUnLCAnPG91dGZpbGUubWFlPic=

> <r_lp_tautomer_probability>
1

> <r_epik_Ionization_Penalty>
1.02915e-07

> <r_epik_Ionization_Penalty_Charging>
0

> <r_epik_Ionization_Penalty_Neutral>
1.02915e-07

> <r_epik_State_Penalty>
-0

> <r_epik_Charging_Adjusted_Penalty>
0

> <i_epik_Tot_Q>
0

> <i_epik_Tot_abs_Q>
0

> <r_epik_Metal_State_Penalty>
-0

> <b_epik_Metal_Only>
0

> <s_lp_Force_Field>
OPLS_2005

> <r_lp_Energy>
15.7019

> <b_lp_Chiralities_Consistent>
1

> <s_lp_Variant>
AV-unprocessed.smi:879-1

> <Gold.Version>
5.8.1

> <Gold.Id.Protein>
6NUR|6NUR_protein|mol2

> <Gold.PLP.Fitness>
42.8856

> <Gold.PLP.PLP>
-37.9659

> <Gold.PLP.part.hbond>
-3.4820

> <Gold.PLP.part.metal>
0.0000

> <Gold.PLP.part.buried>
-2.6402

> <Gold.PLP.part.nonpolar>
-32.2217

> <Gold.PLP.part.repulsive>
0.3478

> <Gold.PLP.ligand.clash>
0.0000

> <Gold.PLP.ligand.torsion>
0.5910

> <Gold.PLP.Chemscore.Hbond>
2.0175

> <Gold.PLP.Chemscore.CHOScore>
0.0000

> <Gold.PLP.Chemscore.Metal>
0.0000

> <Gold.Chemscore.Hbonds>
donor molecule, donor type, donor heavy atom, donor atom, acceptor molecule, acceptor atom, score
      L1  H     2    22       P1  7948  0.85
      P1  H  7989  7998       L1    18  0.05
      P1  H 10752 10763       L1     4  0.26

> <Gold.PLP.Chemscore.Internal.Correction>
0.0490

> <Gold.Rescore>
     Score         DG    S(hbond)    S(metal)    S(lipo)     H(rot)  DE(clash)    DE(int)     intcor
     16.05     -17.00       1.56        0.00      94.16       1.84       0.25       0.69       ----

> <Gold.Chemscore.Fitness>
16.0545

> <Gold.Chemscore.DG>
-16.9976

> <Gold.Chemscore.ZeroCoef>
-5.4800

> <Gold.Chemscore.Hbond>
1.5601

> <Gold.Chemscore.Metal>
0.0000

> <Gold.Chemscore.Lipo>
94.1613

> <Gold.Chemscore.Internal_Hbond>
0.0000

> <Gold.Chemscore.DEClash>
0.2488

> <Gold.Chemscore.DEInternal>
0.6944

> <Gold.Chemscore.Rot>
1.8399

> <Gold.Chemscore.Internal.Correction>
   9.000000E+99

> <Gold.Chemscore.Hbonds>
donor molecule, donor type, donor heavy atom, donor atom, acceptor molecule, acceptor atom, score
      L1  H     2    22       P1  7948  0.81
      P1  H 10752 10763       L1     4  0.10

> <Gold.Chemscore.Hbond.Weighted>
-5.2109

> <Gold.Chemscore.Metal.Weighted>
-0.0000

> <Gold.Chemscore.Lipo.Weighted>
-11.0169

> <Gold.Chemscore.Internal_Hbond.Weighted>
0.0000

> <Gold.Chemscore.DEClash.Weighted>
0.2488

> <Gold.Chemscore.DEInternal.Weighted>
0.6944

> <Gold.Chemscore.Rot.Weighted>
4.7101

> <Gold.Chemscore.Internal.Correction.Weighted>
   9.000000E+99

> <Gold.Protein.RotatedTorsions>
[ 6907 6896 6895 6894 ] final   30.45 input  -60.11 | X-H torsion
[ 7974 7965 7964 7962 ] final  -16.35 input  175.53 | X-H torsion
[ 8008 7997 7996 7995 ] final  -83.43 input   59.86 | X-H torsion
[ 10167 10162 10161 10158 ] final  -38.96 input  -65.29 | X-H torsion
[ 10718 10713 10712 10709 ] final -158.87 input   66.30 | X-H torsion
[ 10763 10752 10751 10750 ] final  102.44 input  -60.55 | X-H torsion
[ 11005 11000 10999 10996 ] final  -63.92 input  -57.11 | X-H torsion

> <Gold.Protein.ActiveResidues>
 VAL166  LYS551  ARG553  GLY616  TRP617  ASP618  TYR619  PRO620  LYS621  CYS622 
 ASP623  PHE694  ASN695  SER759  ASP760  ASP761  ALA762  ILE779  LEU786  VAL792 
 PHE793  MET794  SER795  GLU796  ALA797  LYS798  CYS799  TRP800  GLU811  SER814 

> <Gold.Protein.RotatedAtoms>
  152.0461  134.9682  160.0574 H   0  0  0  0  0  0  0  0  0  0  0  0  # atno 6907 bound_to 6896
  152.1102  133.4291  159.4635 H   0  0  0  0  0  0  0  0  0  0  0  0  # atno 6908 bound_to 6896
  150.6843  134.2576  159.4579 H   0  0  0  0  0  0  0  0  0  0  0  0  # atno 6909 bound_to 6896
  146.1992  140.3623  142.8429 H   0  0  0  0  0  0  0  0  0  0  0  0  # atno 7974 bound_to 7965
  154.6191  140.0619  156.9592 H   0  0  0  0  0  0  0  0  0  0  0  0  # atno 8008 bound_to 7997
  155.1847  140.3302  155.4350 H   0  0  0  0  0  0  0  0  0  0  0  0  # atno 8009 bound_to 7997
  156.2421  140.1891  156.6941 H   0  0  0  0  0  0  0  0  0  0  0  0  # atno 8010 bound_to 7997
  140.7078  143.3244  151.2715 H   0  0  0  0  0  0  0  0  0  0  0  0  # atno 10167 bound_to 10162
  156.5601  130.8643  151.2807 H   0  0  0  0  0  0  0  0  0  0  0  0  # atno 10718 bound_to 10713
  153.3396  135.4010  155.1561 H   0  0  0  0  0  0  0  0  0  0  0  0  # atno 10763 bound_to 10752
  154.8641  135.3630  154.5363 H   0  0  0  0  0  0  0  0  0  0  0  0  # atno 10764 bound_to 10752
  153.5807  135.7076  153.5524 H   0  0  0  0  0  0  0  0  0  0  0  0  # atno 10765 bound_to 10752
  141.1408  133.6658  156.5754 H   0  0  0  0  0  0  0  0  0  0  0  0  # atno 11005 bound_to 11000
  144.8645  140.7186  143.6086 LP  0  0  0  0  0  0  0  0  0  0  0  0  # atno 17320 bound_to 7965
  145.3543  139.1698  143.4418 LP  0  0  0  0  0  0  0  0  0  0  0  0  # atno 17321 bound_to 7965
  139.6708  144.0024  152.2751 LP  0  0  0  0  0  0  0  0  0  0  0  0  # atno 17342 bound_to 10162
  139.9621  144.6550  150.8069 LP  0  0  0  0  0  0  0  0  0  0  0  0  # atno 17343 bound_to 10162
  157.7370  130.9788  150.2169 LP  0  0  0  0  0  0  0  0  0  0  0  0  # atno 17370 bound_to 10713
  156.2807  130.3733  149.7939 LP  0  0  0  0  0  0  0  0  0  0  0  0  # atno 17371 bound_to 10713
  140.3880  134.7465  157.4703 LP  0  0  0  0  0  0  0  0  0  0  0  0  # atno 17394 bound_to 11000
  140.0587  134.6026  155.8774 LP  0  0  0  0  0  0  0  0  0  0  0  0  # atno 17395 bound_to 11000

$$$$
