AV-unprocessed.smi:3165|AV-procd|sdf|12085|dock2
  -GOLD-   2272017513D 1   1.00000     0.00000
 Structure written by MMmdl.
 38 39  0  0  0  0  0  0  0  0  2 V2000
  148.0586  142.0228  154.0849 C   0  0  0  0  0  0  0  0  0  0  0  0
  149.3172  141.3763  154.6871 C   0  0  2  0  0  0  0  0  0  0  0  0
  149.2115  139.8349  154.7547 C   0  0  0  0  0  0  0  0  0  0  0  0
  150.4873  139.1916  155.0117 N   0  0  0  0  0  0  0  0  0  0  0  0
  150.7308  137.9500  155.5611 C   0  0  0  0  0  0  0  0  0  0  0  0
  152.0857  137.7884  155.6130 C   0  0  0  0  0  0  0  0  0  0  0  0
  152.5927  139.0025  155.0715 C   0  0  0  0  0  0  0  0  0  0  0  0
  151.6334  139.8415  154.7153 N   0  0  0  0  0  0  0  0  0  0  0  0
  149.5715  141.9534  156.0261 N   0  3  0  0  0  0  0  0  0  0  0  0
  150.9517  141.7921  156.5311 C   0  0  0  0  0  0  0  0  0  0  0  0
  151.1225  142.4675  157.8991 C   0  0  2  0  0  0  0  0  0  0  0  0
  151.5929  143.9286  157.7594 C   0  0  0  0  0  0  0  0  0  0  0  0
  151.8514  144.5478  159.1375 C   0  0  0  0  0  0  0  0  0  0  0  0
  152.8107  143.6555  159.9313 C   0  0  0  0  0  0  0  0  0  0  0  0
  152.2908  142.2098  159.9628 C   0  0  0  0  0  0  0  0  0  0  0  0
  152.1001  141.7327  158.6336 O   0  0  0  0  0  0  0  0  0  0  0  0
  147.8885  141.6929  153.0597 H   0  0  0  0  0  0  0  0  0  0  0  0
  148.1490  143.1094  154.0610 H   0  0  0  0  0  0  0  0  0  0  0  0
  147.1693  141.7754  154.6653 H   0  0  0  0  0  0  0  0  0  0  0  0
  150.1569  141.6461  154.0446 H   0  0  0  0  0  0  0  0  0  0  0  0
  148.5220  139.5229  155.5392 H   0  0  0  0  0  0  0  0  0  0  0  0
  148.8120  139.4440  153.8179 H   0  0  0  0  0  0  0  0  0  0  0  0
  149.9303  137.2913  155.8645 H   0  0  0  0  0  0  0  0  0  0  0  0
  152.6328  136.9341  155.9835 H   0  0  0  0  0  0  0  0  0  0  0  0
  153.6219  139.2981  154.9294 H   0  0  0  0  0  0  0  0  0  0  0  0
  149.3885  142.9452  155.9704 H   0  0  0  0  0  0  0  0  0  0  0  0
  151.2097  140.7358  156.6051 H   0  0  0  0  0  0  0  0  0  0  0  0
  151.6396  142.2417  155.8138 H   0  0  0  0  0  0  0  0  0  0  0  0
  150.1703  142.4435  158.4328 H   0  0  0  0  0  0  0  0  0  0  0  0
  152.5080  143.9662  157.1667 H   0  0  0  0  0  0  0  0  0  0  0  0
  150.8483  144.5168  157.2219 H   0  0  0  0  0  0  0  0  0  0  0  0
  152.2635  145.5520  159.0329 H   0  0  0  0  0  0  0  0  0  0  0  0
  150.9096  144.6486  159.6785 H   0  0  0  0  0  0  0  0  0  0  0  0
  153.7988  143.6769  159.4701 H   0  0  0  0  0  0  0  0  0  0  0  0
  152.9303  144.0374  160.9456 H   0  0  0  0  0  0  0  0  0  0  0  0
  153.0097  141.5651  160.4685 H   0  0  0  0  0  0  0  0  0  0  0  0
  151.3562  142.1442  160.5221 H   0  0  0  0  0  0  0  0  0  0  0  0
  148.9257  141.5471  156.6882 H   0  0  0  0  0  0  0  0  0  0  0  0
  1  2  1  0  0  0  0
  1 17  1  0  0  0  0
  1 18  1  0  0  0  0
  1 19  1  0  0  0  0
  2  3  1  0  0  0  0
  2  9  1  0  0  0  0
  2 20  1  0  0  0  0
  3  4  1  0  0  0  0
  3 21  1  0  0  0  0
  3 22  1  0  0  0  0
  4  8  1  0  0  0  0
  4  5  1  0  0  0  0
  5  6  2  0  0  0  0
  5 23  1  0  0  0  0
  6  7  1  0  0  0  0
  6 24  1  0  0  0  0
  7  8  2  0  0  0  0
  7 25  1  0  0  0  0
  9 10  1  0  0  0  0
  9 26  1  0  0  0  0
  9 38  1  0  0  0  0
 10 11  1  0  0  0  0
 10 27  1  0  0  0  0
 10 28  1  0  0  0  0
 11 16  1  0  0  0  0
 11 12  1  0  0  0  0
 11 29  1  0  0  0  0
 12 13  1  0  0  0  0
 12 30  1  0  0  0  0
 12 31  1  0  0  0  0
 13 14  1  0  0  0  0
 13 32  1  0  0  0  0
 13 33  1  0  0  0  0
 14 15  1  0  0  0  0
 14 34  1  0  0  0  0
 14 35  1  0  0  0  0
 15 16  1  0  0  0  0
 15 36  1  0  0  0  0
 15 37  1  0  0  0  0
M  CHG  1   9   1
M  END
> <s_m_source_file>
AV-unprocessed.smi

> <i_m_source_file_index>
3165

> <i_lp_mmshare_version>
43012

> <i_f3d_flags>
0

> <s_epik_input>
bjFbY0hdW2NIXVtjSF1uMVtDSDJdW0NAQEhdKFtDSDNdKVtOSF1bQ0gyXVtDQEBIXTJbQ0gyXVtDSDJdW0NIMl1bQ0gyXU8y

> <s_epik_cmdline>
J2VwaWtfcHl0aG9uJywgJy1waCcsICc3LjAnLCAnLXRuJywgJzgnLCAnLW1hJywgJzIwMCcsICctbWV0YWxfYmluZGluZycsICctaW1hZScsICc8aW5maWxlLm1hZT4nLCAnLW9tYWUnLCAnPG91dGZpbGUubWFlPic=

> <r_lp_tautomer_probability>
1

> <r_epik_Ionization_Penalty>
0.00849196

> <r_epik_Ionization_Penalty_Charging>
0.00848754

> <r_epik_Ionization_Penalty_Neutral>
4.42049e-06

> <r_epik_State_Penalty>
0.00639836

> <r_epik_Charging_Adjusted_Penalty>
0.0148859

> <i_epik_Tot_Q>
1

> <i_epik_Tot_abs_Q>
1

> <r_epik_Metal_State_Penalty>
0.00639878

> <b_epik_Metal_Only>
0

> <s_lp_Force_Field>
OPLS_2005

> <r_lp_Energy>
12.7964

> <b_lp_Chiralities_Consistent>
1

> <s_lp_Variant>
AV-unprocessed.smi:3165-1

> <Gold.Version>
5.8.1

> <Gold.Id.Protein>
6NUR|6NUR_protein|mol2

> <Gold.PLP.Fitness>
48.0138

> <Gold.PLP.PLP>
-40.8753

> <Gold.PLP.part.hbond>
-1.8861

> <Gold.PLP.part.metal>
0.0000

> <Gold.PLP.part.buried>
-4.2816

> <Gold.PLP.part.nonpolar>
-35.3103

> <Gold.PLP.part.repulsive>
0.1746

> <Gold.PLP.ligand.clash>
0.0000

> <Gold.PLP.ligand.torsion>
0.9560

> <Gold.PLP.Chemscore.Hbond>
3.0000

> <Gold.PLP.Chemscore.CHOScore>
0.0000

> <Gold.PLP.Chemscore.Metal>
0.0000

> <Gold.Chemscore.Hbonds>
donor molecule, donor type, donor heavy atom, donor atom, acceptor molecule, acceptor atom, score
      L1  H     9    26       P1  8028  2.00
      P1  H  7989  7998       L1     8  1.00

> <Gold.PLP.Chemscore.Internal.Correction>
0.0506

> <Gold.Rescore>
     Score         DG    S(hbond)    S(metal)    S(lipo)     H(rot)  DE(clash)    DE(int)     intcor
     19.48     -20.28       1.98        0.00     105.92       1.64       0.06       0.73       ----

> <Gold.Chemscore.Fitness>
19.4841

> <Gold.Chemscore.DG>
-20.2761

> <Gold.Chemscore.ZeroCoef>
-5.4800

> <Gold.Chemscore.Hbond>
1.9801

> <Gold.Chemscore.Metal>
0.0000

> <Gold.Chemscore.Lipo>
105.9159

> <Gold.Chemscore.Internal_Hbond>
0.0000

> <Gold.Chemscore.DEClash>
0.0604

> <Gold.Chemscore.DEInternal>
0.7317

> <Gold.Chemscore.Rot>
1.6444

> <Gold.Chemscore.Internal.Correction>
   9.000000E+99

> <Gold.Chemscore.Hbonds>
donor molecule, donor type, donor heavy atom, donor atom, acceptor molecule, acceptor atom, score
      L1  H     9    26       P1  8028  1.00
      P1  H  7989  7998       L1     8  0.94

> <Gold.Chemscore.Hbond.Weighted>
-6.6136

> <Gold.Chemscore.Metal.Weighted>
-0.0000

> <Gold.Chemscore.Lipo.Weighted>
-12.3922

> <Gold.Chemscore.Internal_Hbond.Weighted>
0.0000

> <Gold.Chemscore.DEClash.Weighted>
0.0604

> <Gold.Chemscore.DEInternal.Weighted>
0.7317

> <Gold.Chemscore.Rot.Weighted>
4.2097

> <Gold.Chemscore.Internal.Correction.Weighted>
   9.000000E+99

> <Gold.Protein.RotatedTorsions>
[ 6907 6896 6895 6894 ] final  -26.56 input  -60.11 | X-H torsion
[ 7974 7965 7964 7962 ] final -112.17 input  175.53 | X-H torsion
[ 8008 7997 7996 7995 ] final  131.02 input   59.86 | X-H torsion
[ 10167 10162 10161 10158 ] final  -39.85 input  -65.29 | X-H torsion
[ 10718 10713 10712 10709 ] final  -81.61 input   66.30 | X-H torsion
[ 10763 10752 10751 10750 ] final  157.76 input  -60.55 | X-H torsion
[ 11005 11000 10999 10996 ] final    2.65 input  -57.11 | X-H torsion

> <Gold.Protein.ActiveResidues>
 VAL166  LYS551  ARG553  GLY616  TRP617  ASP618  TYR619  PRO620  LYS621  CYS622 
 ASP623  PHE694  ASN695  SER759  ASP760  ASP761  ALA762  ILE779  LEU786  VAL792 
 PHE793  MET794  SER795  GLU796  ALA797  LYS798  CYS799  TRP800  GLU811  SER814 

> <Gold.Protein.RotatedAtoms>
  151.1593  135.0265  159.8702 H   0  0  0  0  0  0  0  0  0  0  0  0  # atno 6907 bound_to 6896
  152.5452  134.1298  159.8444 H   0  0  0  0  0  0  0  0  0  0  0  0  # atno 6908 bound_to 6896
  151.1391  133.4937  159.2630 H   0  0  0  0  0  0  0  0  0  0  0  0  # atno 6909 bound_to 6896
  145.1473  140.8810  143.3667 H   0  0  0  0  0  0  0  0  0  0  0  0  # atno 7974 bound_to 7965
  156.2963  140.2582  156.2856 H   0  0  0  0  0  0  0  0  0  0  0  0  # atno 8008 bound_to 7997
  154.9559  140.0393  157.2185 H   0  0  0  0  0  0  0  0  0  0  0  0  # atno 8009 bound_to 7997
  154.7992  140.2825  155.5938 H   0  0  0  0  0  0  0  0  0  0  0  0  # atno 8010 bound_to 7997
  140.7052  143.3189  151.2841 H   0  0  0  0  0  0  0  0  0  0  0  0  # atno 10167 bound_to 10162
  156.0047  130.4609  150.3979 H   0  0  0  0  0  0  0  0  0  0  0  0  # atno 10718 bound_to 10713
  154.2053  135.2788  155.2977 H   0  0  0  0  0  0  0  0  0  0  0  0  # atno 10763 bound_to 10752
  154.5821  135.5586  153.7199 H   0  0  0  0  0  0  0  0  0  0  0  0  # atno 10764 bound_to 10752
  153.0077  135.6347  154.2192 H   0  0  0  0  0  0  0  0  0  0  0  0  # atno 10765 bound_to 10752
  140.6019  133.9828  155.8136 H   0  0  0  0  0  0  0  0  0  0  0  0  # atno 11005 bound_to 11000
  145.0468  139.3214  143.5948 LP  0  0  0  0  0  0  0  0  0  0  0  0  # atno 17320 bound_to 7965
  146.3498  139.9862  142.8690 LP  0  0  0  0  0  0  0  0  0  0  0  0  # atno 17321 bound_to 7965
  139.6637  144.0144  152.2709 LP  0  0  0  0  0  0  0  0  0  0  0  0  # atno 17342 bound_to 10162
  139.9720  144.6487  150.7980 LP  0  0  0  0  0  0  0  0  0  0  0  0  # atno 17343 bound_to 10162
  157.2050  131.0447  151.2630 LP  0  0  0  0  0  0  0  0  0  0  0  0  # atno 17370 bound_to 10713
  157.3941  130.7298  149.6719 LP  0  0  0  0  0  0  0  0  0  0  0  0  # atno 17371 bound_to 10713
  141.0866  133.9980  157.3303 LP  0  0  0  0  0  0  0  0  0  0  0  0  # atno 17394 bound_to 11000
  139.9229  135.0201  156.8129 LP  0  0  0  0  0  0  0  0  0  0  0  0  # atno 17395 bound_to 11000

$$$$
