AV-unprocessed.smi:1241|AV-procd|sdf|5215|dock4
  -GOLD-   22720 4313D 1   1.00000     0.00000
 Structure written by MMmdl.
 38 39  0  0  0  0  0  0  0  0  1 V2000
  151.7219  140.7213  157.4751 C   0  0  0  0  0  0  0  0  0  0  0  0
  151.9423  139.4168  156.1969 S   0  0  0  0  0  0  0  0  0  0  0  0
  151.4031  139.9241  154.9258 O   0  0  0  0  0  0  0  0  0  0  0  0
  153.3327  138.9409  156.2608 O   0  0  0  0  0  0  0  0  0  0  0  0
  150.9110  138.1216  156.7330 N   0  0  0  0  0  0  0  0  0  0  0  0
  149.4430  138.2816  156.6936 C   0  0  0  0  0  0  0  0  0  0  0  0
  148.8203  137.5555  155.4878 C   0  0  0  0  0  0  0  0  0  0  0  0
  149.2452  136.0783  155.4405 C   0  0  0  0  0  0  0  0  0  0  0  0
  148.7075  135.4202  154.2527 N   0  0  0  0  0  0  0  0  0  0  0  0
  148.1315  134.2091  154.2364 C   0  0  0  0  0  0  0  0  0  0  0  0
  147.9882  133.5131  155.2421 O   0  0  0  0  0  0  0  0  0  0  0  0
  147.7359  133.8738  152.9953 N   0  0  0  0  0  0  0  0  0  0  0  0
  147.1244  132.6652  152.5662 C   0  0  0  0  0  0  0  0  0  0  0  0
  146.4656  132.7369  151.3177 C   0  0  0  0  0  0  0  0  0  0  0  0
  145.8332  131.5893  150.8011 C   0  0  0  0  0  0  0  0  0  0  0  0
  145.8770  130.3977  151.5465 C   0  0  0  0  0  0  0  0  0  0  0  0
  146.5538  130.4117  152.7801 C   0  0  0  0  0  0  0  0  0  0  0  0
  147.1596  131.5106  153.2774 N   0  0  0  0  0  0  0  0  0  0  0  0
  150.7782  135.9921  155.4386 C   0  0  0  0  0  0  0  0  0  0  0  0
  151.3810  136.7241  156.6505 C   0  0  0  0  0  0  0  0  0  0  0  0
  152.3537  141.5733  157.2254 H   0  0  0  0  0  0  0  0  0  0  0  0
  152.0149  140.3385  158.4509 H   0  0  0  0  0  0  0  0  0  0  0  0
  150.6833  141.0465  157.4978 H   0  0  0  0  0  0  0  0  0  0  0  0
  149.0285  137.8738  157.6162 H   0  0  0  0  0  0  0  0  0  0  0  0
  149.1753  139.3377  156.6784 H   0  0  0  0  0  0  0  0  0  0  0  0
  147.7338  137.6307  155.5449 H   0  0  0  0  0  0  0  0  0  0  0  0
  149.1093  138.0545  154.5633 H   0  0  0  0  0  0  0  0  0  0  0  0
  148.8746  135.5704  156.3331 H   0  0  0  0  0  0  0  0  0  0  0  0
  148.7823  135.9237  153.3811 H   0  0  0  0  0  0  0  0  0  0  0  0
  147.8998  134.5575  152.2715 H   0  0  0  0  0  0  0  0  0  0  0  0
  146.4426  133.6602  150.7571 H   0  0  0  0  0  0  0  0  0  0  0  0
  145.3247  131.6234  149.8489 H   0  0  0  0  0  0  0  0  0  0  0  0
  145.4050  129.4970  151.1830 H   0  0  0  0  0  0  0  0  0  0  0  0
  146.6121  129.5175  153.3829 H   0  0  0  0  0  0  0  0  0  0  0  0
  151.0919  134.9477  155.4541 H   0  0  0  0  0  0  0  0  0  0  0  0
  151.1735  136.4141  154.5152 H   0  0  0  0  0  0  0  0  0  0  0  0
  152.4693  136.6907  156.6102 H   0  0  0  0  0  0  0  0  0  0  0  0
  151.0918  136.2095  157.5675 H   0  0  0  0  0  0  0  0  0  0  0  0
  1  2  1  0  0  0  0
  1 21  1  0  0  0  0
  1 22  1  0  0  0  0
  1 23  1  0  0  0  0
  2  3  2  0  0  0  0
  2  4  2  0  0  0  0
  2  5  1  0  0  0  0
  5 20  1  0  0  0  0
  5  6  1  0  0  0  0
  6  7  1  0  0  0  0
  6 24  1  0  0  0  0
  6 25  1  0  0  0  0
  7  8  1  0  0  0  0
  7 26  1  0  0  0  0
  7 27  1  0  0  0  0
  8  9  1  0  0  0  0
  8 19  1  0  0  0  0
  8 28  1  0  0  0  0
  9 10  1  0  0  0  0
  9 29  1  0  0  0  0
 10 11  2  0  0  0  0
 10 12  1  0  0  0  0
 12 13  1  0  0  0  0
 12 30  1  0  0  0  0
 13 18  1  0  0  0  0
 13 14  2  0  0  0  0
 14 15  1  0  0  0  0
 14 31  1  0  0  0  0
 15 16  2  0  0  0  0
 15 32  1  0  0  0  0
 16 17  1  0  0  0  0
 16 33  1  0  0  0  0
 17 18  2  0  0  0  0
 17 34  1  0  0  0  0
 19 20  1  0  0  0  0
 19 35  1  0  0  0  0
 19 36  1  0  0  0  0
 20 37  1  0  0  0  0
 20 38  1  0  0  0  0
M  END
> <s_m_source_file>
AV-unprocessed.smi

> <i_m_source_file_index>
1241

> <i_lp_mmshare_version>
43012

> <i_f3d_flags>
0

> <s_epik_input>
W0NIM11TKD1PKSg9TylOMVtDSDJdW0NIMl1bQ0hdKFtDSDJdW0NIMl0xKVtOSF1DKD1PKVtOSF1jMltjSF1bY0hdW2NIXVtjSF1uMg==

> <s_epik_cmdline>
J2VwaWtfcHl0aG9uJywgJy1waCcsICc3LjAnLCAnLXRuJywgJzgnLCAnLW1hJywgJzIwMCcsICctbWV0YWxfYmluZGluZycsICctaW1hZScsICc8aW5maWxlLm1hZT4nLCAnLW9tYWUnLCAnPG91dGZpbGUubWFlPic=

> <r_lp_tautomer_probability>
1

> <r_epik_Ionization_Penalty>
4.62702e-05

> <r_epik_Ionization_Penalty_Charging>
0

> <r_epik_Ionization_Penalty_Neutral>
4.62702e-05

> <r_epik_State_Penalty>
-0

> <r_epik_Charging_Adjusted_Penalty>
0

> <i_epik_Tot_Q>
0

> <i_epik_Tot_abs_Q>
0

> <r_epik_Metal_State_Penalty>
-0

> <b_epik_Metal_Only>
0

> <s_lp_Force_Field>
OPLS_2005

> <r_lp_Energy>
3.28241

> <b_lp_Chiralities_Consistent>
1

> <s_lp_Variant>
AV-unprocessed.smi:1241-1

> <Gold.Version>
5.8.1

> <Gold.Id.Protein>
6NUR|6NUR_protein|mol2

> <Gold.PLP.Fitness>
37.4877

> <Gold.PLP.PLP>
-26.5777

> <Gold.PLP.part.hbond>
-3.8063

> <Gold.PLP.part.metal>
0.0000

> <Gold.PLP.part.buried>
-4.7526

> <Gold.PLP.part.nonpolar>
-18.7637

> <Gold.PLP.part.repulsive>
0.1896

> <Gold.PLP.ligand.clash>
0.0000

> <Gold.PLP.ligand.torsion>
1.3674

> <Gold.PLP.Chemscore.Hbond>
3.8640

> <Gold.PLP.Chemscore.CHOScore>
0.0000

> <Gold.PLP.Chemscore.Metal>
0.0000

> <Gold.Chemscore.Hbonds>
donor molecule, donor type, donor heavy atom, donor atom, acceptor molecule, acceptor atom, score
      L1  H     9    29       P1  7948  1.00
      L1  H    12    30       P1  7948  0.86
      P1  H  7989  7998       L1     3  1.00
      P1  H  7997  8010       L1     4  1.00

> <Gold.PLP.Chemscore.Internal.Correction>
2.0529

> <Gold.Rescore>
     Score         DG    S(hbond)    S(metal)    S(lipo)     H(rot)  DE(clash)    DE(int)     intcor
     18.33     -20.89       3.48        0.00      54.15       1.00       0.00       2.56       ----

> <Gold.Chemscore.Fitness>
18.3340

> <Gold.Chemscore.DG>
-20.8924

> <Gold.Chemscore.ZeroCoef>
-5.4800

> <Gold.Chemscore.Hbond>
3.4841

> <Gold.Chemscore.Metal>
0.0000

> <Gold.Chemscore.Lipo>
54.1505

> <Gold.Chemscore.Internal_Hbond>
0.0000

> <Gold.Chemscore.DEClash>
0.0021

> <Gold.Chemscore.DEInternal>
2.5563

> <Gold.Chemscore.Rot>
1.0000

> <Gold.Chemscore.Internal.Correction>
   9.000000E+99

> <Gold.Chemscore.Hbonds>
donor molecule, donor type, donor heavy atom, donor atom, acceptor molecule, acceptor atom, score
      L1  H     9    29       P1  7948  0.93
      L1  H    12    30       P1  7948  0.37
      P1  H  7989  7998       L1     3  1.00
      P1  H  7997  8010       L1     4  0.81

> <Gold.Chemscore.Hbond.Weighted>
-11.6368

> <Gold.Chemscore.Metal.Weighted>
-0.0000

> <Gold.Chemscore.Lipo.Weighted>
-6.3356

> <Gold.Chemscore.Internal_Hbond.Weighted>
0.0000

> <Gold.Chemscore.DEClash.Weighted>
0.0021

> <Gold.Chemscore.DEInternal.Weighted>
2.5563

> <Gold.Chemscore.Rot.Weighted>
2.5600

> <Gold.Chemscore.Internal.Correction.Weighted>
   9.000000E+99

> <Gold.Protein.RotatedTorsions>
[ 6907 6896 6895 6894 ] final  107.02 input  -60.11 | X-H torsion
[ 7974 7965 7964 7962 ] final  -66.36 input  175.53 | X-H torsion
[ 8008 7997 7996 7995 ] final   66.15 input   59.86 | X-H torsion
[ 10167 10162 10161 10158 ] final  170.87 input  -65.29 | X-H torsion
[ 10718 10713 10712 10709 ] final  -54.84 input   66.30 | X-H torsion
[ 10763 10752 10751 10750 ] final  -15.32 input  -60.55 | X-H torsion
[ 11005 11000 10999 10996 ] final -121.67 input  -57.11 | X-H torsion

> <Gold.Protein.ActiveResidues>
 VAL166  LYS551  ARG553  GLY616  TRP617  ASP618  TYR619  PRO620  LYS621  CYS622 
 ASP623  PHE694  ASN695  SER759  ASP760  ASP761  ALA762  ILE779  LEU786  VAL792 
 PHE793  MET794  SER795  GLU796  ALA797  LYS798  CYS799  TRP800  GLU811  SER814 

> <Gold.Protein.RotatedAtoms>
  152.5171  133.9295  159.7573 H   0  0  0  0  0  0  0  0  0  0  0  0  # atno 6907 bound_to 6896
  150.9649  133.6397  159.2755 H   0  0  0  0  0  0  0  0  0  0  0  0  # atno 6908 bound_to 6896
  151.3629  135.0913  159.9493 H   0  0  0  0  0  0  0  0  0  0  0  0  # atno 6909 bound_to 6896
  145.7427  140.8946  143.0521 H   0  0  0  0  0  0  0  0  0  0  0  0  # atno 7974 bound_to 7965
  155.6729  140.3497  155.4825 H   0  0  0  0  0  0  0  0  0  0  0  0  # atno 8008 bound_to 7997
  155.9673  140.1149  157.0866 H   0  0  0  0  0  0  0  0  0  0  0  0  # atno 8009 bound_to 7997
  154.4157  140.1164  156.5245 H   0  0  0  0  0  0  0  0  0  0  0  0  # atno 8010 bound_to 7997
  139.5030  144.3549  151.9885 H   0  0  0  0  0  0  0  0  0  0  0  0  # atno 10167 bound_to 10162
  156.1417  130.4154  150.0091 H   0  0  0  0  0  0  0  0  0  0  0  0  # atno 10718 bound_to 10713
  153.5416  135.7013  153.5634 H   0  0  0  0  0  0  0  0  0  0  0  0  # atno 10763 bound_to 10752
  153.3597  135.3973  155.1709 H   0  0  0  0  0  0  0  0  0  0  0  0  # atno 10764 bound_to 10752
  154.8673  135.3785  154.4921 H   0  0  0  0  0  0  0  0  0  0  0  0  # atno 10765 bound_to 10752
  141.0052  134.0344  157.3486 H   0  0  0  0  0  0  0  0  0  0  0  0  # atno 11005 bound_to 11000
  144.6867  139.9482  143.7477 LP  0  0  0  0  0  0  0  0  0  0  0  0  # atno 17320 bound_to 7965
  146.0432  139.3441  143.0684 LP  0  0  0  0  0  0  0  0  0  0  0  0  # atno 17321 bound_to 7965
  140.2985  144.3673  150.6067 LP  0  0  0  0  0  0  0  0  0  0  0  0  # atno 17342 bound_to 10162
  140.5892  143.2168  151.7285 LP  0  0  0  0  0  0  0  0  0  0  0  0  # atno 17343 bound_to 10162
  156.7975  130.9278  151.3646 LP  0  0  0  0  0  0  0  0  0  0  0  0  # atno 17370 bound_to 10713
  157.6582  130.8942  149.9773 LP  0  0  0  0  0  0  0  0  0  0  0  0  # atno 17371 bound_to 10713
  139.9060  135.0179  156.7486 LP  0  0  0  0  0  0  0  0  0  0  0  0  # atno 17394 bound_to 11000
  140.6824  133.9463  155.7918 LP  0  0  0  0  0  0  0  0  0  0  0  0  # atno 17395 bound_to 11000

$$$$
