AV-unprocessed.smi:3270|AV-procd|sdf|12512|dock3
  -GOLD-   2272018423D 1   1.00000     0.00000
 Structure written by MMmdl.
 38 39  0  0  0  0  0  0  0  0  1 V2000
  154.0384  141.4212  160.4802 C   0  0  0  0  0  0  0  0  0  0  0  0
  152.6478  141.5943  159.8348 C   0  0  2  0  0  0  0  0  0  0  0  0
  152.4856  140.7755  158.5441 C   0  0  0  0  0  0  0  0  0  0  0  0
  153.2332  139.8270  158.3024 O   0  0  0  0  0  0  0  0  0  0  0  0
  151.4973  141.1570  157.7192 N   0  0  0  0  0  0  0  0  0  0  0  0
  151.1853  140.5336  156.4391 C   0  0  0  0  0  0  0  0  0  0  0  0
  150.2749  141.4327  155.5814 C   0  0  0  0  0  0  0  0  0  0  0  0
  149.0638  140.7845  155.0804 N   0  0  0  0  0  0  0  0  0  0  0  0
  148.2712  141.7097  154.2772 C   0  0  0  0  0  0  0  0  0  0  0  0
  146.9901  141.0521  153.7357 C   0  0  0  0  0  0  0  0  0  0  0  0
  147.3319  139.8948  152.9804 O   0  0  0  0  0  0  0  0  0  0  0  0
  148.0668  138.9418  153.7410 C   0  0  0  0  0  0  0  0  0  0  0  0
  149.3509  139.5921  154.2856 C   0  0  0  0  0  0  0  0  0  0  0  0
  152.3204  142.9943  159.5893 N   0  0  0  0  0  0  0  0  0  0  0  0
  152.0088  143.9672  160.5177 C   0  0  0  0  0  0  0  0  0  0  0  0
  151.7326  145.1160  159.8336 C   0  0  0  0  0  0  0  0  0  0  0  0
  151.8894  144.7427  158.4703 C   0  0  0  0  0  0  0  0  0  0  0  0
  152.2315  143.4732  158.3263 N   0  0  0  0  0  0  0  0  0  0  0  0
  154.2390  140.3732  160.7050 H   0  0  0  0  0  0  0  0  0  0  0  0
  154.1018  141.9732  161.4184 H   0  0  0  0  0  0  0  0  0  0  0  0
  154.8406  141.7783  159.8327 H   0  0  0  0  0  0  0  0  0  0  0  0
  151.9159  141.2166  160.5510 H   0  0  0  0  0  0  0  0  0  0  0  0
  150.9283  141.9448  157.9927 H   0  0  0  0  0  0  0  0  0  0  0  0
  152.1324  140.3465  155.9345 H   0  0  0  0  0  0  0  0  0  0  0  0
  150.7190  139.5602  156.6007 H   0  0  0  0  0  0  0  0  0  0  0  0
  149.9819  142.2891  156.1901 H   0  0  0  0  0  0  0  0  0  0  0  0
  150.8461  141.8415  154.7466 H   0  0  0  0  0  0  0  0  0  0  0  0
  148.0014  142.5810  154.8751 H   0  0  0  0  0  0  0  0  0  0  0  0
  148.8670  142.0781  153.4406 H   0  0  0  0  0  0  0  0  0  0  0  0
  146.3208  140.7784  154.5527 H   0  0  0  0  0  0  0  0  0  0  0  0
  146.4473  141.7482  153.0960 H   0  0  0  0  0  0  0  0  0  0  0  0
  147.4492  138.5645  154.5577 H   0  0  0  0  0  0  0  0  0  0  0  0
  148.3125  138.0910  153.1057 H   0  0  0  0  0  0  0  0  0  0  0  0
  150.0057  139.8513  153.4521 H   0  0  0  0  0  0  0  0  0  0  0  0
  149.8838  138.8554  154.8855 H   0  0  0  0  0  0  0  0  0  0  0  0
  152.0090  143.7630  161.5781 H   0  0  0  0  0  0  0  0  0  0  0  0
  151.4559  146.0758  160.2441 H   0  0  0  0  0  0  0  0  0  0  0  0
  151.7611  145.3507  157.5872 H   0  0  0  0  0  0  0  0  0  0  0  0
  1  2  1  0  0  0  0
  1 19  1  0  0  0  0
  1 20  1  0  0  0  0
  1 21  1  0  0  0  0
  2  3  1  0  0  0  0
  2 14  1  0  0  0  0
  2 22  1  0  0  0  0
  3  4  2  0  0  0  0
  3  5  1  0  0  0  0
  5  6  1  0  0  0  0
  5 23  1  0  0  0  0
  6  7  1  0  0  0  0
  6 24  1  0  0  0  0
  6 25  1  0  0  0  0
  7  8  1  0  0  0  0
  7 26  1  0  0  0  0
  7 27  1  0  0  0  0
  8 13  1  0  0  0  0
  8  9  1  0  0  0  0
  9 10  1  0  0  0  0
  9 28  1  0  0  0  0
  9 29  1  0  0  0  0
 10 11  1  0  0  0  0
 10 30  1  0  0  0  0
 10 31  1  0  0  0  0
 11 12  1  0  0  0  0
 12 13  1  0  0  0  0
 12 32  1  0  0  0  0
 12 33  1  0  0  0  0
 13 34  1  0  0  0  0
 13 35  1  0  0  0  0
 14 18  1  0  0  0  0
 14 15  1  0  0  0  0
 15 16  2  0  0  0  0
 15 36  1  0  0  0  0
 16 17  1  0  0  0  0
 16 37  1  0  0  0  0
 17 18  2  0  0  0  0
 17 38  1  0  0  0  0
M  END
> <s_m_source_file>
AV-unprocessed.smi

> <i_m_source_file_index>
3270

> <i_lp_mmshare_version>
43012

> <i_f3d_flags>
0

> <s_epik_input>
bjFbY0hdW2NIXVtjSF1uMVtDQEhdKFtDSDNdKUMoPU8pW05IXVtDSDJdW0NIMl1OMltDSDJdW0NIMl1PW0NIMl1bQ0gyXTI=

> <s_epik_cmdline>
J2VwaWtfcHl0aG9uJywgJy1waCcsICc3LjAnLCAnLXRuJywgJzgnLCAnLW1hJywgJzIwMCcsICctbWV0YWxfYmluZGluZycsICctaW1hZScsICc8aW5maWxlLm1hZT4nLCAnLW9tYWUnLCAnPG91dGZpbGUubWFlPic=

> <r_lp_tautomer_probability>
1

> <r_epik_Ionization_Penalty>
0.203323

> <r_epik_Ionization_Penalty_Charging>
0

> <r_epik_Ionization_Penalty_Neutral>
0.203323

> <r_epik_State_Penalty>
0.193192

> <r_epik_Charging_Adjusted_Penalty>
0.193192

> <i_epik_Tot_Q>
0

> <i_epik_Tot_abs_Q>
0

> <r_epik_Metal_State_Penalty>
0.193187

> <b_epik_Metal_Only>
0

> <s_lp_Force_Field>
OPLS_2005

> <r_lp_Energy>
25.3297

> <b_lp_Chiralities_Consistent>
1

> <s_lp_Variant>
AV-unprocessed.smi:3270-1

> <Gold.Version>
5.8.1

> <Gold.Id.Protein>
6NUR|6NUR_protein|mol2

> <Gold.PLP.Fitness>
42.9574

> <Gold.PLP.PLP>
-42.6117

> <Gold.PLP.part.hbond>
-1.0000

> <Gold.PLP.part.metal>
0.0000

> <Gold.PLP.part.buried>
-4.9527

> <Gold.PLP.part.nonpolar>
-36.6810

> <Gold.PLP.part.repulsive>
1.4243

> <Gold.PLP.ligand.clash>
0.0000

> <Gold.PLP.ligand.torsion>
1.3959

> <Gold.PLP.Chemscore.Hbond>
1.0000

> <Gold.PLP.Chemscore.CHOScore>
0.0000

> <Gold.PLP.Chemscore.Metal>
0.0000

> <Gold.Chemscore.Hbonds>
donor molecule, donor type, donor heavy atom, donor atom, acceptor molecule, acceptor atom, score
      P1  H  7997  8010       L1     4  1.00

> <Gold.PLP.Chemscore.Internal.Correction>
0.1376

> <Gold.Rescore>
     Score         DG    S(hbond)    S(metal)    S(lipo)     H(rot)  DE(clash)    DE(int)     intcor
     12.22     -15.32       0.94        0.00      97.19       1.83       0.07       3.03       ----

> <Gold.Chemscore.Fitness>
12.2166

> <Gold.Chemscore.DG>
-15.3202

> <Gold.Chemscore.ZeroCoef>
-5.4800

> <Gold.Chemscore.Hbond>
0.9434

> <Gold.Chemscore.Metal>
0.0000

> <Gold.Chemscore.Lipo>
97.1918

> <Gold.Chemscore.Internal_Hbond>
0.0000

> <Gold.Chemscore.DEClash>
0.0750

> <Gold.Chemscore.DEInternal>
3.0286

> <Gold.Chemscore.Rot>
1.8290

> <Gold.Chemscore.Internal.Correction>
   9.000000E+99

> <Gold.Chemscore.Hbonds>
donor molecule, donor type, donor heavy atom, donor atom, acceptor molecule, acceptor atom, score
      P1  H  7997  8010       L1     4  0.96

> <Gold.Chemscore.Hbond.Weighted>
-3.1509

> <Gold.Chemscore.Metal.Weighted>
-0.0000

> <Gold.Chemscore.Lipo.Weighted>
-11.3714

> <Gold.Chemscore.Internal_Hbond.Weighted>
0.0000

> <Gold.Chemscore.DEClash.Weighted>
0.0750

> <Gold.Chemscore.DEInternal.Weighted>
3.0286

> <Gold.Chemscore.Rot.Weighted>
4.6821

> <Gold.Chemscore.Internal.Correction.Weighted>
   9.000000E+99

> <Gold.Protein.RotatedTorsions>
[ 6907 6896 6895 6894 ] final  145.06 input  -60.11 | X-H torsion
[ 7974 7965 7964 7962 ] final -178.45 input  175.53 | X-H torsion
[ 8008 7997 7996 7995 ] final   26.12 input   59.86 | X-H torsion
[ 10167 10162 10161 10158 ] final   44.63 input  -65.29 | X-H torsion
[ 10718 10713 10712 10709 ] final -145.39 input   66.30 | X-H torsion
[ 10763 10752 10751 10750 ] final -108.88 input  -60.55 | X-H torsion
[ 11005 11000 10999 10996 ] final   39.42 input  -57.11 | X-H torsion

> <Gold.Protein.ActiveResidues>
 VAL166  LYS551  ARG553  GLY616  TRP617  ASP618  TYR619  PRO620  LYS621  CYS622 
 ASP623  PHE694  ASN695  SER759  ASP760  ASP761  ALA762  ILE779  LEU786  VAL792 
 PHE793  MET794  SER795  GLU796  ALA797  LYS798  CYS799  TRP800  GLU811  SER814 

> <Gold.Protein.RotatedAtoms>
  152.1857  133.4738  159.4981 H   0  0  0  0  0  0  0  0  0  0  0  0  # atno 6907 bound_to 6896
  150.6942  134.1777  159.4245 H   0  0  0  0  0  0  0  0  0  0  0  0  # atno 6908 bound_to 6896
  151.9690  135.0086  160.0602 H   0  0  0  0  0  0  0  0  0  0  0  0  # atno 6909 bound_to 6896
  144.7131  140.0866  143.6423 H   0  0  0  0  0  0  0  0  0  0  0  0  # atno 7974 bound_to 7965
  155.0223  140.3149  155.4789 H   0  0  0  0  0  0  0  0  0  0  0  0  # atno 8008 bound_to 7997
  156.2890  140.2195  156.5284 H   0  0  0  0  0  0  0  0  0  0  0  0  # atno 8009 bound_to 7997
  154.7441  140.0471  157.0825 H   0  0  0  0  0  0  0  0  0  0  0  0  # atno 8010 bound_to 7997
  140.3323  144.2573  150.6166 H   0  0  0  0  0  0  0  0  0  0  0  0  # atno 10167 bound_to 10162
  156.3819  130.7841  151.2034 H   0  0  0  0  0  0  0  0  0  0  0  0  # atno 10718 bound_to 10713
  154.8161  135.4621  154.0648 H   0  0  0  0  0  0  0  0  0  0  0  0  # atno 10763 bound_to 10752
  153.2040  135.6873  153.8203 H   0  0  0  0  0  0  0  0  0  0  0  0  # atno 10764 bound_to 10752
  153.7678  135.3274  155.3324 H   0  0  0  0  0  0  0  0  0  0  0  0  # atno 10765 bound_to 10752
  140.2030  134.3847  155.8086 H   0  0  0  0  0  0  0  0  0  0  0  0  # atno 11005 bound_to 11000
  145.9656  139.2832  143.1129 LP  0  0  0  0  0  0  0  0  0  0  0  0  # atno 17320 bound_to 7965
  145.9173  140.9139  143.0423 LP  0  0  0  0  0  0  0  0  0  0  0  0  # atno 17321 bound_to 7965
  140.5386  143.2228  151.8123 LP  0  0  0  0  0  0  0  0  0  0  0  0  # atno 17342 bound_to 10162
  139.4854  144.4630  151.9518 LP  0  0  0  0  0  0  0  0  0  0  0  0  # atno 17343 bound_to 10162
  157.7493  131.0341  150.4304 LP  0  0  0  0  0  0  0  0  0  0  0  0  # atno 17370 bound_to 10713
  156.4550  130.4019  149.6612 LP  0  0  0  0  0  0  0  0  0  0  0  0  # atno 17371 bound_to 10713
  141.2227  133.7103  156.8290 LP  0  0  0  0  0  0  0  0  0  0  0  0  # atno 17394 bound_to 11000
  140.2033  134.8881  157.3194 LP  0  0  0  0  0  0  0  0  0  0  0  0  # atno 17395 bound_to 11000

$$$$
