AV-unprocessed.smi:2695|AV-procd|sdf|10412|dock3
  -GOLD-   2272014453D 1   1.00000     0.00000
 Structure written by MMmdl.
 42 43  0  0  0  0  0  0  0  0  1 V2000
  151.0887  138.0403  154.7619 C   0  0  0  0  0  0  0  0  0  0  0  0
  150.1363  139.2054  154.5250 C   0  0  0  0  0  0  0  0  0  0  0  0
  149.0373  139.0176  153.7582 C   0  0  0  0  0  0  0  0  0  0  0  0
  148.1119  140.1289  153.4780 C   0  0  0  0  0  0  0  0  0  0  0  0
  147.0908  139.9760  152.8110 O   0  0  0  0  0  0  0  0  0  0  0  0
  148.4880  141.4331  154.0413 C   0  0  0  0  0  0  0  0  0  0  0  0
  149.5999  141.5244  154.7961 C   0  0  0  0  0  0  0  0  0  0  0  0
  149.9950  142.6968  155.3161 O   0  0  0  0  0  0  0  0  0  0  0  0
  150.4556  140.4505  155.1124 N   0  0  0  0  0  0  0  0  0  0  0  0
  151.6135  140.6211  156.0090 C   0  0  0  0  0  0  0  0  0  0  0  0
  151.2209  140.9795  157.4495 C   0  0  0  0  0  0  0  0  0  0  0  0
  150.3162  140.3771  158.0289 O   0  0  0  0  0  0  0  0  0  0  0  0
  151.9181  141.9797  158.0092 N   0  0  0  0  0  0  0  0  0  0  0  0
  151.7375  142.5025  159.3648 C   0  0  1  0  0  0  0  0  0  0  0  0
  152.9918  142.1641  160.2096 C   0  0  0  0  0  0  0  0  0  0  0  0
  153.5646  140.7643  159.9511 C   0  0  0  0  0  0  0  0  0  0  0  0
  154.4798  140.4965  161.1455 C   0  0  0  0  0  0  0  0  0  0  0  0
  153.8567  141.2565  162.3231 C   0  0  0  0  0  0  0  0  0  0  0  0
  152.7712  142.1656  161.7295 C   0  0  0  0  0  0  0  0  0  0  0  0
  151.4233  144.0148  159.2862 C   0  0  0  0  0  0  0  0  0  0  0  0
  152.3377  144.6309  158.5359 F   0  0  0  0  0  0  0  0  0  0  0  0
  150.2320  144.2268  158.7283 F   0  0  0  0  0  0  0  0  0  0  0  0
  151.4333  144.5598  160.5032 F   0  0  0  0  0  0  0  0  0  0  0  0
  150.9075  137.2383  154.0457 H   0  0  0  0  0  0  0  0  0  0  0  0
  150.9468  137.6296  155.7617 H   0  0  0  0  0  0  0  0  0  0  0  0
  152.1310  138.3361  154.6445 H   0  0  0  0  0  0  0  0  0  0  0  0
  148.8193  138.0535  153.3220 H   0  0  0  0  0  0  0  0  0  0  0  0
  147.8690  142.2932  153.8303 H   0  0  0  0  0  0  0  0  0  0  0  0
  152.2219  139.7158  156.0232 H   0  0  0  0  0  0  0  0  0  0  0  0
  152.2978  141.3810  155.6339 H   0  0  0  0  0  0  0  0  0  0  0  0
  152.6362  142.4194  157.4522 H   0  0  0  0  0  0  0  0  0  0  0  0
  150.8835  142.0100  159.8331 H   0  0  0  0  0  0  0  0  0  0  0  0
  153.7767  142.8879  159.9832 H   0  0  0  0  0  0  0  0  0  0  0  0
  152.7589  140.0287  159.9351 H   0  0  0  0  0  0  0  0  0  0  0  0
  154.0969  140.6925  159.0021 H   0  0  0  0  0  0  0  0  0  0  0  0
  154.5909  139.4310  161.3489 H   0  0  0  0  0  0  0  0  0  0  0  0
  155.4736  140.8959  160.9396 H   0  0  0  0  0  0  0  0  0  0  0  0
  153.4225  140.5694  163.0502 H   0  0  0  0  0  0  0  0  0  0  0  0
  154.6175  141.8403  162.8423 H   0  0  0  0  0  0  0  0  0  0  0  0
  152.8112  143.1705  162.1508 H   0  0  0  0  0  0  0  0  0  0  0  0
  151.7898  141.7508  161.9641 H   0  0  0  0  0  0  0  0  0  0  0  0
  149.2239  143.1414  155.6339 H   0  0  0  0  0  0  0  0  0  0  0  0
  1  2  1  0  0  0  0
  1 24  1  0  0  0  0
  1 25  1  0  0  0  0
  1 26  1  0  0  0  0
  2  9  1  0  0  0  0
  2  3  2  0  0  0  0
  3  4  1  0  0  0  0
  3 27  1  0  0  0  0
  4  5  2  0  0  0  0
  4  6  1  0  0  0  0
  6  7  2  0  0  0  0
  6 28  1  0  0  0  0
  7  8  1  0  0  0  0
  7  9  1  0  0  0  0
  8 42  1  0  0  0  0
  9 10  1  0  0  0  0
 10 11  1  0  0  0  0
 10 29  1  0  0  0  0
 10 30  1  0  0  0  0
 11 12  2  0  0  0  0
 11 13  1  0  0  0  0
 13 14  1  0  0  0  0
 13 31  1  0  0  0  0
 14 15  1  0  0  0  0
 14 20  1  0  0  0  0
 14 32  1  0  0  0  0
 15 19  1  0  0  0  0
 15 16  1  0  0  0  0
 15 33  1  0  0  0  0
 16 17  1  0  0  0  0
 16 34  1  0  0  0  0
 16 35  1  0  0  0  0
 17 18  1  0  0  0  0
 17 36  1  0  0  0  0
 17 37  1  0  0  0  0
 18 19  1  0  0  0  0
 18 38  1  0  0  0  0
 18 39  1  0  0  0  0
 19 40  1  0  0  0  0
 19 41  1  0  0  0  0
 20 21  1  0  0  0  0
 20 22  1  0  0  0  0
 20 23  1  0  0  0  0
M  END
> <s_m_source_file>
AV-unprocessed.smi

> <i_m_source_file_index>
2695

> <i_lp_mmshare_version>
43012

> <i_f3d_flags>
0

> <s_epik_input>
W0NIM11jMVtjSF1jKFtPSF0pW2NIXWMoPU8pbjFbQ0gyXUMoPU8pW05IXVtDQEBIXShDKEYpKEYpRilbQ0hdMltDSDJdW0NIMl1bQ0gyXVtDSDJdMg==

> <s_epik_cmdline>
J2VwaWtfcHl0aG9uJywgJy1waCcsICc3LjAnLCAnLXRuJywgJzgnLCAnLW1hJywgJzIwMCcsICctbWV0YWxfYmluZGluZycsICctaW1hZScsICc8aW5maWxlLm1hZT4nLCAnLW9tYWUnLCAnPG91dGZpbGUubWFlPic=

> <r_epik_Ionization_Penalty>
1.35977e-07

> <r_epik_Ionization_Penalty_Charging>
0

> <r_epik_Ionization_Penalty_Neutral>
1.35977e-07

> <r_epik_State_Penalty>
2.53185

> <r_epik_Charging_Adjusted_Penalty>
2.53185

> <i_epik_Tot_Q>
0

> <i_epik_Tot_abs_Q>
0

> <r_epik_Metal_State_Penalty>
2.53184

> <b_epik_Metal_Only>
0

> <s_lp_Force_Field>
OPLS_2005

> <r_lp_Energy>
25.7414

> <b_lp_Chiralities_Consistent>
1

> <s_lp_Variant>
AV-unprocessed.smi:2695-6

> <Gold.Version>
5.8.1

> <Gold.Id.Protein>
6NUR|6NUR_protein|mol2

> <Gold.PLP.Fitness>
55.9826

> <Gold.PLP.PLP>
-55.0464

> <Gold.PLP.part.hbond>
-0.5377

> <Gold.PLP.part.metal>
0.0000

> <Gold.PLP.part.buried>
-0.4791

> <Gold.PLP.part.nonpolar>
-53.3302

> <Gold.PLP.part.repulsive>
0.2910

> <Gold.PLP.ligand.clash>
0.0000

> <Gold.PLP.ligand.torsion>
0.7257

> <Gold.PLP.Chemscore.Hbond>
0.6880

> <Gold.PLP.Chemscore.CHOScore>
0.0000

> <Gold.PLP.Chemscore.Metal>
0.0000

> <Gold.Chemscore.Hbonds>
donor molecule, donor type, donor heavy atom, donor atom, acceptor molecule, acceptor atom, score
      L1  H     8    42       P1  8028  0.59

> <Gold.PLP.Chemscore.Internal.Correction>
0.3236

> <Gold.Rescore>
     Score         DG    S(hbond)    S(metal)    S(lipo)     H(rot)  DE(clash)    DE(int)     intcor
     11.81     -14.13       0.89        0.00     102.22       2.45       0.94       1.38       ----

> <Gold.Chemscore.Fitness>
11.8114

> <Gold.Chemscore.DG>
-14.1303

> <Gold.Chemscore.ZeroCoef>
-5.4800

> <Gold.Chemscore.Hbond>
0.8881

> <Gold.Chemscore.Metal>
0.0000

> <Gold.Chemscore.Lipo>
102.2153

> <Gold.Chemscore.Internal_Hbond>
0.0000

> <Gold.Chemscore.DEClash>
0.9388

> <Gold.Chemscore.DEInternal>
1.3802

> <Gold.Chemscore.Rot>
2.4512

> <Gold.Chemscore.Internal.Correction>
   9.000000E+99

> <Gold.Chemscore.Hbonds>
donor molecule, donor type, donor heavy atom, donor atom, acceptor molecule, acceptor atom, score
      L1  H     8    42       P1  8028  0.59

> <Gold.Chemscore.Hbond.Weighted>
-2.9663

> <Gold.Chemscore.Metal.Weighted>
-0.0000

> <Gold.Chemscore.Lipo.Weighted>
-11.9592

> <Gold.Chemscore.Internal_Hbond.Weighted>
0.0000

> <Gold.Chemscore.DEClash.Weighted>
0.9388

> <Gold.Chemscore.DEInternal.Weighted>
1.3802

> <Gold.Chemscore.Rot.Weighted>
6.2752

> <Gold.Chemscore.Internal.Correction.Weighted>
   9.000000E+99

> <Gold.Protein.RotatedTorsions>
[ 6907 6896 6895 6894 ] final   90.37 input  -60.11 | X-H torsion
[ 7974 7965 7964 7962 ] final   71.03 input  175.53 | X-H torsion
[ 8008 7997 7996 7995 ] final -163.90 input   59.86 | X-H torsion
[ 10167 10162 10161 10158 ] final   38.86 input  -65.29 | X-H torsion
[ 10718 10713 10712 10709 ] final -167.24 input   66.30 | X-H torsion
[ 10763 10752 10751 10750 ] final -157.22 input  -60.55 | X-H torsion
[ 11005 11000 10999 10996 ] final   43.93 input  -57.11 | X-H torsion

> <Gold.Protein.ActiveResidues>
 VAL166  LYS551  ARG553  GLY616  TRP617  ASP618  TYR619  PRO620  LYS621  CYS622 
 ASP623  PHE694  ASN695  SER759  ASP760  ASP761  ALA762  ILE779  LEU786  VAL792 
 PHE793  MET794  SER795  GLU796  ALA797  LYS798  CYS799  TRP800  GLU811  SER814 

> <Gold.Protein.RotatedAtoms>
  152.5444  134.1821  159.8639 H   0  0  0  0  0  0  0  0  0  0  0  0  # atno 6907 bound_to 6896
  151.1823  133.4710  159.2601 H   0  0  0  0  0  0  0  0  0  0  0  0  # atno 6908 bound_to 6896
  151.1166  135.0068  159.8574 H   0  0  0  0  0  0  0  0  0  0  0  0  # atno 6909 bound_to 6896
  145.7708  139.2842  143.1322 H   0  0  0  0  0  0  0  0  0  0  0  0  # atno 7974 bound_to 7965
  155.8279  140.0929  157.1810 H   0  0  0  0  0  0  0  0  0  0  0  0  # atno 8008 bound_to 7997
  154.3979  140.1424  156.3639 H   0  0  0  0  0  0  0  0  0  0  0  0  # atno 8009 bound_to 7997
  155.8197  140.3447  155.5509 H   0  0  0  0  0  0  0  0  0  0  0  0  # atno 8010 bound_to 7997
  140.3896  144.1871  150.6130 H   0  0  0  0  0  0  0  0  0  0  0  0  # atno 10167 bound_to 10162
  156.6794  130.9116  151.3055 H   0  0  0  0  0  0  0  0  0  0  0  0  # atno 10718 bound_to 10713
  154.7653  135.3129  154.8299 H   0  0  0  0  0  0  0  0  0  0  0  0  # atno 10763 bound_to 10752
  153.9049  135.6812  153.4758 H   0  0  0  0  0  0  0  0  0  0  0  0  # atno 10764 bound_to 10752
  153.1258  135.4802  154.9202 H   0  0  0  0  0  0  0  0  0  0  0  0  # atno 10765 bound_to 10752
  140.1598  134.4355  155.8325 H   0  0  0  0  0  0  0  0  0  0  0  0  # atno 11005 bound_to 11000
  146.0171  140.8382  142.9942 LP  0  0  0  0  0  0  0  0  0  0  0  0  # atno 17320 bound_to 7965
  144.6813  140.2575  143.7323 LP  0  0  0  0  0  0  0  0  0  0  0  0  # atno 17321 bound_to 7965
  140.4854  143.2365  151.8896 LP  0  0  0  0  0  0  0  0  0  0  0  0  # atno 17342 bound_to 10162
  139.4790  144.5224  151.8782 LP  0  0  0  0  0  0  0  0  0  0  0  0  # atno 17343 bound_to 10162
  157.7049  130.9373  150.0899 LP  0  0  0  0  0  0  0  0  0  0  0  0  # atno 17370 bound_to 10713
  156.1879  130.3653  149.8949 LP  0  0  0  0  0  0  0  0  0  0  0  0  # atno 17371 bound_to 10713
  141.2208  133.6908  156.7574 LP  0  0  0  0  0  0  0  0  0  0  0  0  # atno 17394 bound_to 11000
  140.2503  134.8546  157.3660 LP  0  0  0  0  0  0  0  0  0  0  0  0  # atno 17395 bound_to 11000

$$$$
