AV-unprocessed.smi:2508|AV-procd|sdf|9865|dock2
  -GOLD-   2272013493D 1   1.00000     0.00000
 Structure written by MMmdl.
 46 47  0  0  0  0  0  0  0  0  1 V2000
  153.2314  145.0762  157.9732 C   0  0  0  0  0  0  0  0  0  0  0  0
  152.9996  144.4013  159.2533 N   0  0  0  0  0  0  0  0  0  0  0  0
  153.6719  143.1854  159.4861 C   0  0  0  0  0  0  0  0  0  0  0  0
  153.5232  142.4868  160.6335 C   0  0  0  0  0  0  0  0  0  0  0  0
  154.1596  141.2746  160.9414 N   0  0  0  0  0  0  0  0  0  0  0  0
  154.6886  140.3445  160.1179 C   0  0  0  0  0  0  0  0  0  0  0  0
  154.6847  140.3938  158.8901 O   0  0  0  0  0  0  0  0  0  0  0  0
  155.2393  139.3011  160.7623 N   0  0  0  0  0  0  0  0  0  0  0  0
  155.8929  138.1308  160.1730 C   0  0  0  0  0  0  0  0  0  0  0  0
  155.0121  136.8511  160.2515 C   0  0  0  0  0  0  0  0  0  0  0  0
  153.6528  137.1145  159.5640 C   0  0  0  0  0  0  0  0  0  0  0  0
  155.7061  135.6930  159.4982 C   0  0  0  0  0  0  0  0  0  0  0  0
  154.7468  136.3990  161.7237 C   0  0  0  0  0  0  0  0  0  0  0  0
  154.1481  134.9989  161.9267 C   0  0  0  0  0  0  0  0  0  0  0  0
  153.6976  134.9739  163.3909 C   0  0  0  0  0  0  0  0  0  0  0  0
  153.4637  136.4373  163.7952 C   0  0  0  0  0  0  0  0  0  0  0  0
  153.8234  137.2880  162.5714 C   0  0  0  0  0  0  0  0  0  0  0  0
  152.6364  143.0487  161.6302 C   0  0  0  0  0  0  0  0  0  0  0  0
  151.9898  144.2109  161.4154 C   0  0  0  0  0  0  0  0  0  0  0  0
  152.1543  144.9594  160.1674 C   0  0  0  0  0  0  0  0  0  0  0  0
  151.5692  146.0220  159.9565 O   0  0  0  0  0  0  0  0  0  0  0  0
  153.9363  144.5439  157.3338 H   0  0  0  0  0  0  0  0  0  0  0  0
  153.6340  146.0772  158.1351 H   0  0  0  0  0  0  0  0  0  0  0  0
  152.2975  145.1718  157.4174 H   0  0  0  0  0  0  0  0  0  0  0  0
  154.3063  142.8840  158.6688 H   0  0  0  0  0  0  0  0  0  0  0  0
  154.2256  141.0742  161.9287 H   0  0  0  0  0  0  0  0  0  0  0  0
  155.1884  139.3144  161.7706 H   0  0  0  0  0  0  0  0  0  0  0  0
  156.1338  138.3667  159.1366 H   0  0  0  0  0  0  0  0  0  0  0  0
  156.8372  137.9773  160.6946 H   0  0  0  0  0  0  0  0  0  0  0  0
  152.9885  136.2541  159.6530 H   0  0  0  0  0  0  0  0  0  0  0  0
  153.7673  137.3189  158.4991 H   0  0  0  0  0  0  0  0  0  0  0  0
  153.1407  137.9715  160.0019 H   0  0  0  0  0  0  0  0  0  0  0  0
  155.1397  134.7655  159.5879 H   0  0  0  0  0  0  0  0  0  0  0  0
  156.7076  135.5049  159.8858 H   0  0  0  0  0  0  0  0  0  0  0  0
  155.8083  135.9019  158.4330 H   0  0  0  0  0  0  0  0  0  0  0  0
  155.7118  136.3923  162.2348 H   0  0  0  0  0  0  0  0  0  0  0  0
  153.2755  134.8493  161.2922 H   0  0  0  0  0  0  0  0  0  0  0  0
  154.8575  134.2006  161.7063 H   0  0  0  0  0  0  0  0  0  0  0  0
  152.8030  134.3646  163.5232 H   0  0  0  0  0  0  0  0  0  0  0  0
  154.4807  134.5423  164.0153 H   0  0  0  0  0  0  0  0  0  0  0  0
  152.4343  136.6127  164.1094 H   0  0  0  0  0  0  0  0  0  0  0  0
  154.1086  136.6949  164.6363 H   0  0  0  0  0  0  0  0  0  0  0  0
  154.2927  138.2297  162.8569 H   0  0  0  0  0  0  0  0  0  0  0  0
  152.9075  137.5281  162.0334 H   0  0  0  0  0  0  0  0  0  0  0  0
  152.4861  142.5295  162.5657 H   0  0  0  0  0  0  0  0  0  0  0  0
  151.3347  144.6016  162.1801 H   0  0  0  0  0  0  0  0  0  0  0  0
  1  2  1  0  0  0  0
  1 22  1  0  0  0  0
  1 23  1  0  0  0  0
  1 24  1  0  0  0  0
  2 20  1  0  0  0  0
  2  3  1  0  0  0  0
  3  4  2  0  0  0  0
  3 25  1  0  0  0  0
  4  5  1  0  0  0  0
  4 18  1  0  0  0  0
  5  6  1  0  0  0  0
  5 26  1  0  0  0  0
  6  7  2  0  0  0  0
  6  8  1  0  0  0  0
  8  9  1  0  0  0  0
  8 27  1  0  0  0  0
  9 10  1  0  0  0  0
  9 28  1  0  0  0  0
  9 29  1  0  0  0  0
 10 11  1  0  0  0  0
 10 12  1  0  0  0  0
 10 13  1  0  0  0  0
 11 30  1  0  0  0  0
 11 31  1  0  0  0  0
 11 32  1  0  0  0  0
 12 33  1  0  0  0  0
 12 34  1  0  0  0  0
 12 35  1  0  0  0  0
 13 17  1  0  0  0  0
 13 14  1  0  0  0  0
 13 36  1  0  0  0  0
 14 15  1  0  0  0  0
 14 37  1  0  0  0  0
 14 38  1  0  0  0  0
 15 16  1  0  0  0  0
 15 39  1  0  0  0  0
 15 40  1  0  0  0  0
 16 17  1  0  0  0  0
 16 41  1  0  0  0  0
 16 42  1  0  0  0  0
 17 43  1  0  0  0  0
 17 44  1  0  0  0  0
 18 19  2  0  0  0  0
 18 45  1  0  0  0  0
 19 20  1  0  0  0  0
 19 46  1  0  0  0  0
 20 21  2  0  0  0  0
M  END
> <s_m_source_file>
AV-unprocessed.smi

> <i_m_source_file_index>
2508

> <i_lp_mmshare_version>
43012

> <i_f3d_flags>
0

> <s_epik_input>
Tz1jMVtjSF1bY0hdYyhbY0hdbjFbQ0gzXSlbTkhdQyg9TylbTkhdW0NIMl1DKFtDSDNdKShbQ0gzXSlbQ0hdMltDSDJdW0NIMl1bQ0gyXVtDSDJdMg==

> <s_epik_cmdline>
J2VwaWtfcHl0aG9uJywgJy1waCcsICc3LjAnLCAnLXRuJywgJzgnLCAnLW1hJywgJzIwMCcsICctbWV0YWxfYmluZGluZycsICctaW1hZScsICc8aW5maWxlLm1hZT4nLCAnLW9tYWUnLCAnPG91dGZpbGUubWFlPic=

> <r_lp_tautomer_probability>
1

> <r_epik_Ionization_Penalty>
2.69566e-05

> <r_epik_Ionization_Penalty_Charging>
5.95678e-06

> <r_epik_Ionization_Penalty_Neutral>
2.09998e-05

> <r_epik_State_Penalty>
-0

> <r_epik_Charging_Adjusted_Penalty>
5.95678e-06

> <i_epik_Tot_Q>
0

> <i_epik_Tot_abs_Q>
0

> <r_epik_Metal_State_Penalty>
-0

> <b_epik_Metal_Only>
0

> <s_lp_Force_Field>
OPLS_2005

> <r_lp_Energy>
55.0143

> <b_lp_Chiralities_Consistent>
1

> <s_lp_Variant>
AV-unprocessed.smi:2508-1

> <Gold.Version>
5.8.1

> <Gold.Id.Protein>
6NUR|6NUR_protein|mol2

> <Gold.PLP.Fitness>
52.0250

> <Gold.PLP.PLP>
-49.8494

> <Gold.PLP.part.hbond>
-2.7969

> <Gold.PLP.part.metal>
0.0000

> <Gold.PLP.part.buried>
-4.2019

> <Gold.PLP.part.nonpolar>
-42.7134

> <Gold.PLP.part.repulsive>
0.2695

> <Gold.PLP.ligand.clash>
0.0000

> <Gold.PLP.ligand.torsion>
0.4069

> <Gold.PLP.Chemscore.Hbond>
0.9920

> <Gold.PLP.Chemscore.CHOScore>
0.0000

> <Gold.PLP.Chemscore.Metal>
0.0000

> <Gold.Chemscore.Hbonds>
donor molecule, donor type, donor heavy atom, donor atom, acceptor molecule, acceptor atom, score
      P1  H  7997  8008       L1     7  0.70

> <Gold.PLP.Chemscore.Internal.Correction>
0.0133

> <Gold.Rescore>
     Score         DG    S(hbond)    S(metal)    S(lipo)     H(rot)  DE(clash)    DE(int)     intcor
     16.78     -17.81       0.98        0.00     107.34       1.37       0.02       1.00       ----

> <Gold.Chemscore.Fitness>
16.7848

> <Gold.Chemscore.DG>
-17.8054

> <Gold.Chemscore.ZeroCoef>
-5.4800

> <Gold.Chemscore.Hbond>
0.9833

> <Gold.Chemscore.Metal>
0.0000

> <Gold.Chemscore.Lipo>
107.3438

> <Gold.Chemscore.Internal_Hbond>
0.0000

> <Gold.Chemscore.DEClash>
0.0215

> <Gold.Chemscore.DEInternal>
0.9991

> <Gold.Chemscore.Rot>
1.3742

> <Gold.Chemscore.Internal.Correction>
   9.000000E+99

> <Gold.Chemscore.Hbonds>
donor molecule, donor type, donor heavy atom, donor atom, acceptor molecule, acceptor atom, score
      P1  H  7997  8008       L1     7  0.70

> <Gold.Chemscore.Hbond.Weighted>
-3.2841

> <Gold.Chemscore.Metal.Weighted>
-0.0000

> <Gold.Chemscore.Lipo.Weighted>
-12.5592

> <Gold.Chemscore.Internal_Hbond.Weighted>
0.0000

> <Gold.Chemscore.DEClash.Weighted>
0.0215

> <Gold.Chemscore.DEInternal.Weighted>
0.9991

> <Gold.Chemscore.Rot.Weighted>
3.5179

> <Gold.Chemscore.Internal.Correction.Weighted>
   9.000000E+99

> <Gold.Protein.RotatedTorsions>
[ 6907 6896 6895 6894 ] final   18.49 input  -60.11 | X-H torsion
[ 7974 7965 7964 7962 ] final   -4.59 input  175.53 | X-H torsion
[ 8008 7997 7996 7995 ] final -106.19 input   59.86 | X-H torsion
[ 10167 10162 10161 10158 ] final  143.97 input  -65.29 | X-H torsion
[ 10718 10713 10712 10709 ] final   87.55 input   66.30 | X-H torsion
[ 10763 10752 10751 10750 ] final  -99.79 input  -60.55 | X-H torsion
[ 11005 11000 10999 10996 ] final  -94.55 input  -57.11 | X-H torsion

> <Gold.Protein.ActiveResidues>
 VAL166  LYS551  ARG553  GLY616  TRP617  ASP618  TYR619  PRO620  LYS621  CYS622 
 ASP623  PHE694  ASN695  SER759  ASP760  ASP761  ALA762  ILE779  LEU786  VAL792 
 PHE793  MET794  SER795  GLU796  ALA797  LYS798  CYS799  TRP800  GLU811  SER814 

> <Gold.Protein.RotatedAtoms>
  151.8661  135.0506  160.0474 H   0  0  0  0  0  0  0  0  0  0  0  0  # atno 6907 bound_to 6896
  152.2625  133.5305  159.5398 H   0  0  0  0  0  0  0  0  0  0  0  0  # atno 6908 bound_to 6896
  150.7121  134.0727  159.3912 H   0  0  0  0  0  0  0  0  0  0  0  0  # atno 6909 bound_to 6896
  146.2369  140.1894  142.8332 H   0  0  0  0  0  0  0  0  0  0  0  0  # atno 7974 bound_to 7965
  154.9109  140.0410  157.1945 H   0  0  0  0  0  0  0  0  0  0  0  0  # atno 8008 bound_to 7997
  154.8349  140.2905  155.5676 H   0  0  0  0  0  0  0  0  0  0  0  0  # atno 8009 bound_to 7997
  156.2989  140.2493  156.3281 H   0  0  0  0  0  0  0  0  0  0  0  0  # atno 8010 bound_to 7997
  139.4957  144.6004  151.6492 H   0  0  0  0  0  0  0  0  0  0  0  0  # atno 10167 bound_to 10162
  157.6941  131.0260  150.3140 H   0  0  0  0  0  0  0  0  0  0  0  0  # atno 10718 bound_to 10713
  154.7527  135.4959  153.9318 H   0  0  0  0  0  0  0  0  0  0  0  0  # atno 10763 bound_to 10752
  153.1161  135.6721  153.9423 H   0  0  0  0  0  0  0  0  0  0  0  0  # atno 10764 bound_to 10752
  153.9169  135.3092  155.3427 H   0  0  0  0  0  0  0  0  0  0  0  0  # atno 10765 bound_to 10752
  141.1467  133.7964  157.0313 H   0  0  0  0  0  0  0  0  0  0  0  0  # atno 11005 bound_to 11000
  144.9870  140.8512  143.5362 LP  0  0  0  0  0  0  0  0  0  0  0  0  # atno 17320 bound_to 7965
  145.1894  139.2309  143.5250 LP  0  0  0  0  0  0  0  0  0  0  0  0  # atno 17321 bound_to 7965
  140.5653  144.0201  150.6189 LP  0  0  0  0  0  0  0  0  0  0  0  0  # atno 17342 bound_to 10162
  140.3300  143.3083  152.0697 LP  0  0  0  0  0  0  0  0  0  0  0  0  # atno 17343 bound_to 10162
  156.3637  130.3851  149.7230 LP  0  0  0  0  0  0  0  0  0  0  0  0  # atno 17370 bound_to 10713
  156.4668  130.7978  151.2997 LP  0  0  0  0  0  0  0  0  0  0  0  0  # atno 17371 bound_to 10713
  140.0752  134.9680  157.1534 LP  0  0  0  0  0  0  0  0  0  0  0  0  # atno 17394 bound_to 11000
  140.3654  134.2448  155.7183 LP  0  0  0  0  0  0  0  0  0  0  0  0  # atno 17395 bound_to 11000

$$$$
