AV-unprocessed.smi:140|AV-procd|sdf|1185|dock10
  -GOLD-   2262018343D 1   1.00000     0.00000
 Structure written by MMmdl.
 52 55  0  0  0  0  0  0  0  0  1 V2000
  148.0585  140.4469  157.7817 C   0  0  0  0  0  0  0  0  0  0  0  0
  149.1528  139.6578  157.1377 C   0  0  0  0  0  0  0  0  0  0  0  0
  149.3071  138.3072  157.0342 C   0  0  0  0  0  0  0  0  0  0  0  0
  150.5189  138.0410  156.3375 C   0  0  0  0  0  0  0  0  0  0  0  0
  151.0961  136.7239  155.9676 C   0  0  0  0  0  0  0  0  0  0  0  0
  151.9307  136.5793  155.0729 O   0  0  0  0  0  0  0  0  0  0  0  0
  150.5766  135.5173  156.7717 C   0  0  0  0  0  0  0  0  0  0  0  0
  150.2920  134.3554  155.9388 N   0  0  0  0  0  0  0  0  0  0  0  0
  151.0030  133.1578  156.2021 C   0  0  0  0  0  0  0  0  0  0  0  0
  151.8411  133.0772  157.1018 O   0  0  0  0  0  0  0  0  0  0  0  0
  150.6499  132.0407  155.3328 C   0  0  0  0  0  0  0  0  0  0  0  0
  151.2678  130.8575  155.4879 F   0  0  0  0  0  0  0  0  0  0  0  0
  149.7090  132.1724  154.3727 C   0  0  0  0  0  0  0  0  0  0  0  0
  149.0206  133.3530  154.1466 N   0  0  0  0  0  0  0  0  0  0  0  0
  147.9586  133.4707  153.0757 C   0  0  2  0  0  0  0  0  0  0  0  0
  146.6357  133.9725  153.6806 C   0  0  0  0  0  0  0  0  0  0  0  0
  145.6250  132.9917  153.1226 C   0  0  0  0  0  0  0  0  0  0  0  0
  146.4592  131.7261  152.9883 C   0  0  0  0  0  0  0  0  0  0  0  0
  147.7080  132.2136  152.5139 O   0  0  0  0  0  0  0  0  0  0  0  0
  149.2980  134.4872  154.9397 C   0  0  0  0  0  0  0  0  0  0  0  0
  148.6828  135.5424  154.7678 O   0  0  0  0  0  0  0  0  0  0  0  0
  151.0963  139.2548  156.0409 C   0  0  0  0  0  0  0  0  0  0  0  0
  152.3870  139.5921  155.3471 C   0  0  0  0  0  0  0  0  0  0  0  0
  150.2412  140.2530  156.5112 N   0  0  0  0  0  0  0  0  0  0  0  0
  150.4477  141.6939  156.3825 C   0  0  0  0  0  0  0  0  0  0  0  0
  151.3790  142.2837  157.4011 C   0  0  0  0  0  0  0  0  0  0  0  0
  151.6696  143.6152  157.5583 C   0  0  0  0  0  0  0  0  0  0  0  0
  152.5858  143.8741  158.6196 C   0  0  0  0  0  0  0  0  0  0  0  0
  152.9875  142.7350  159.2642 C   0  0  0  0  0  0  0  0  0  0  0  0
  152.2429  141.3177  158.5792 S   0  0  0  0  0  0  0  0  0  0  0  0
  147.3794  139.7934  158.3296 H   0  0  0  0  0  0  0  0  0  0  0  0
  147.4739  140.9840  157.0348 H   0  0  0  0  0  0  0  0  0  0  0  0
  148.4623  141.1727  158.4881 H   0  0  0  0  0  0  0  0  0  0  0  0
  148.6088  137.5798  157.4215 H   0  0  0  0  0  0  0  0  0  0  0  0
  151.2962  135.2151  157.5343 H   0  0  0  0  0  0  0  0  0  0  0  0
  149.6684  135.7755  157.3180 H   0  0  0  0  0  0  0  0  0  0  0  0
  149.4979  131.3053  153.7662 H   0  0  0  0  0  0  0  0  0  0  0  0
  148.3757  134.1256  152.3083 H   0  0  0  0  0  0  0  0  0  0  0  0
  146.6693  133.9044  154.7693 H   0  0  0  0  0  0  0  0  0  0  0  0
  146.4405  135.0063  153.3954 H   0  0  0  0  0  0  0  0  0  0  0  0
  144.7535  132.8629  153.7650 H   0  0  0  0  0  0  0  0  0  0  0  0
  145.2833  133.3212  152.1405 H   0  0  0  0  0  0  0  0  0  0  0  0
  146.5876  131.2428  153.9575 H   0  0  0  0  0  0  0  0  0  0  0  0
  146.0228  131.0040  152.2981 H   0  0  0  0  0  0  0  0  0  0  0  0
  153.1796  138.9029  155.6361 H   0  0  0  0  0  0  0  0  0  0  0  0
  152.7484  140.5882  155.5988 H   0  0  0  0  0  0  0  0  0  0  0  0
  152.2692  139.5374  154.2649 H   0  0  0  0  0  0  0  0  0  0  0  0
  150.8133  141.9064  155.3778 H   0  0  0  0  0  0  0  0  0  0  0  0
  149.4837  142.1983  156.4402 H   0  0  0  0  0  0  0  0  0  0  0  0
  151.2573  144.4083  156.9522 H   0  0  0  0  0  0  0  0  0  0  0  0
  152.9134  144.8725  158.8695 H   0  0  0  0  0  0  0  0  0  0  0  0
  153.6706  142.6418  160.0954 H   0  0  0  0  0  0  0  0  0  0  0  0
  1  2  1  0  0  0  0
  1 31  1  0  0  0  0
  1 32  1  0  0  0  0
  1 33  1  0  0  0  0
  2 24  1  0  0  0  0
  2  3  2  0  0  0  0
  3  4  1  0  0  0  0
  3 34  1  0  0  0  0
  4  5  1  0  0  0  0
  4 22  2  0  0  0  0
  5  6  2  0  0  0  0
  5  7  1  0  0  0  0
  7  8  1  0  0  0  0
  7 35  1  0  0  0  0
  7 36  1  0  0  0  0
  8 20  1  0  0  0  0
  8  9  1  0  0  0  0
  9 10  2  0  0  0  0
  9 11  1  0  0  0  0
 11 12  1  0  0  0  0
 11 13  2  0  0  0  0
 13 14  1  0  0  0  0
 13 37  1  0  0  0  0
 14 15  1  0  0  0  0
 14 20  1  0  0  0  0
 15 19  1  0  0  0  0
 15 16  1  0  0  0  0
 15 38  1  0  0  0  0
 16 17  1  0  0  0  0
 16 39  1  0  0  0  0
 16 40  1  0  0  0  0
 17 18  1  0  0  0  0
 17 41  1  0  0  0  0
 17 42  1  0  0  0  0
 18 19  1  0  0  0  0
 18 43  1  0  0  0  0
 18 44  1  0  0  0  0
 20 21  2  0  0  0  0
 22 23  1  0  0  0  0
 22 24  1  0  0  0  0
 23 45  1  0  0  0  0
 23 46  1  0  0  0  0
 23 47  1  0  0  0  0
 24 25  1  0  0  0  0
 25 26  1  0  0  0  0
 25 48  1  0  0  0  0
 25 49  1  0  0  0  0
 26 30  1  0  0  0  0
 26 27  2  0  0  0  0
 27 28  1  0  0  0  0
 27 50  1  0  0  0  0
 28 29  2  0  0  0  0
 28 51  1  0  0  0  0
 29 30  1  0  0  0  0
 29 52  1  0  0  0  0
M  END
> <s_m_source_file>
AV-unprocessed.smi

> <i_m_source_file_index>
140

> <i_lp_mmshare_version>
43012

> <i_f3d_flags>
0

> <s_epik_input>
czFbY0hdW2NIXVtjSF1jMVtDSDJdbjJjKFtDSDNdKWMoW2NIXWMyW0NIM10pQyg9TylbQ0gyXW4zYyg9TyljKEYpW2NIXW4oYzM9TylbQ0BASF00W0NIMl1bQ0gyXVtDSDJdTzQ=

> <s_epik_cmdline>
J2VwaWtfcHl0aG9uJywgJy1waCcsICc3LjAnLCAnLXRuJywgJzgnLCAnLW1hJywgJzIwMCcsICctbWV0YWxfYmluZGluZycsICctaW1hZScsICc8aW5maWxlLm1hZT4nLCAnLW9tYWUnLCAnPG91dGZpbGUubWFlPic=

> <r_lp_tautomer_probability>
1

> <r_epik_Ionization_Penalty>
5.024e-09

> <r_epik_Ionization_Penalty_Charging>
5.01743e-09

> <r_epik_Ionization_Penalty_Neutral>
6.5712e-12

> <r_epik_State_Penalty>
-0

> <r_epik_Charging_Adjusted_Penalty>
5.01743e-09

> <i_epik_Tot_Q>
0

> <i_epik_Tot_abs_Q>
0

> <r_epik_Metal_State_Penalty>
-0

> <b_epik_Metal_Only>
0

> <s_epik_Chemistry_Notes>
This compound contains an acetal/aminal-like group ( X-CH(R)-Y where X, Y are N, S, or O) that may be acid/base labile, releasing an aldehyde.

> <s_lp_Force_Field>
OPLS_2005

> <r_lp_Energy>
39.7817

> <b_lp_Chiralities_Consistent>
1

> <s_lp_Variant>
AV-unprocessed.smi:140-1

> <Gold.Version>
5.8.1

> <Gold.Id.Protein>
6NUR|6NUR_protein|mol2

> <Gold.PLP.Fitness>
51.8163

> <Gold.PLP.PLP>
-48.0965

> <Gold.PLP.part.hbond>
-1.9347

> <Gold.PLP.part.metal>
0.0000

> <Gold.PLP.part.buried>
-5.3249

> <Gold.PLP.part.nonpolar>
-42.9745

> <Gold.PLP.part.repulsive>
2.8830

> <Gold.PLP.ligand.clash>
0.0000

> <Gold.PLP.ligand.torsion>
0.8049

> <Gold.PLP.Chemscore.Hbond>
1.7360

> <Gold.PLP.Chemscore.CHOScore>
0.0000

> <Gold.PLP.Chemscore.Metal>
0.0000

> <Gold.Chemscore.Hbonds>
donor molecule, donor type, donor heavy atom, donor atom, acceptor molecule, acceptor atom, score
      P1  H  6896  6908       L1    10  0.46
      P1  H 10752 10763       L1     6  0.93

> <Gold.PLP.Chemscore.Internal.Correction>
0.1215

> <Gold.Rescore>
     Score         DG    S(hbond)    S(metal)    S(lipo)     H(rot)  DE(clash)    DE(int)     intcor
     15.14     -19.29       1.91        0.00     104.56       1.87       0.20       3.95       ----

> <Gold.Chemscore.Fitness>
15.1424

> <Gold.Chemscore.DG>
-19.2899

> <Gold.Chemscore.ZeroCoef>
-5.4800

> <Gold.Chemscore.Hbond>
1.9061

> <Gold.Chemscore.Metal>
0.0000

> <Gold.Chemscore.Lipo>
104.5633

> <Gold.Chemscore.Internal_Hbond>
0.0000

> <Gold.Chemscore.DEClash>
0.2014

> <Gold.Chemscore.DEInternal>
3.9460

> <Gold.Chemscore.Rot>
1.8713

> <Gold.Chemscore.Internal.Correction>
   9.000000E+99

> <Gold.Chemscore.Hbonds>
donor molecule, donor type, donor heavy atom, donor atom, acceptor molecule, acceptor atom, score
      P1  H  6896  6908       L1    10  0.44
      P1  H 10752 10763       L1     6  0.87

> <Gold.Chemscore.Hbond.Weighted>
-6.3664

> <Gold.Chemscore.Metal.Weighted>
-0.0000

> <Gold.Chemscore.Lipo.Weighted>
-12.2339

> <Gold.Chemscore.Internal_Hbond.Weighted>
0.0000

> <Gold.Chemscore.DEClash.Weighted>
0.2014

> <Gold.Chemscore.DEInternal.Weighted>
3.9460

> <Gold.Chemscore.Rot.Weighted>
4.7905

> <Gold.Chemscore.Internal.Correction.Weighted>
   9.000000E+99

> <Gold.Protein.RotatedTorsions>
[ 6907 6896 6895 6894 ] final   80.82 input  -60.11 | X-H torsion
[ 7974 7965 7964 7962 ] final  164.75 input  175.53 | X-H torsion
[ 8008 7997 7996 7995 ] final   97.15 input   59.86 | X-H torsion
[ 10167 10162 10161 10158 ] final   30.02 input  -65.29 | X-H torsion
[ 10718 10713 10712 10709 ] final   27.35 input   66.30 | X-H torsion
[ 10763 10752 10751 10750 ] final   72.40 input  -60.55 | X-H torsion
[ 11005 11000 10999 10996 ] final  120.69 input  -57.11 | X-H torsion

> <Gold.Protein.ActiveResidues>
 VAL166  LYS551  ARG553  GLY616  TRP617  ASP618  TYR619  PRO620  LYS621  CYS622 
 ASP623  PHE694  ASN695  SER759  ASP760  ASP761  ALA762  ILE779  LEU786  VAL792 
 PHE793  MET794  SER795  GLU796  ALA797  LYS798  CYS799  TRP800  GLU811  SER814 

> <Gold.Protein.RotatedAtoms>
  152.5248  134.3299  159.9178 H   0  0  0  0  0  0  0  0  0  0  0  0  # atno 6907 bound_to 6896
  151.3248  133.4018  159.2665 H   0  0  0  0  0  0  0  0  0  0  0  0  # atno 6908 bound_to 6896
  150.9929  134.9277  159.7967 H   0  0  0  0  0  0  0  0  0  0  0  0  # atno 6909 bound_to 6896
  144.7532  139.8371  143.6359 H   0  0  0  0  0  0  0  0  0  0  0  0  # atno 7974 bound_to 7965
  156.0871  140.3262  155.7767 H   0  0  0  0  0  0  0  0  0  0  0  0  # atno 8008 bound_to 7997
  155.5058  140.0573  157.2949 H   0  0  0  0  0  0  0  0  0  0  0  0  # atno 8009 bound_to 7997
  154.4615  140.1969  156.0247 H   0  0  0  0  0  0  0  0  0  0  0  0  # atno 8010 bound_to 7997
  140.4715  144.0756  150.6238 H   0  0  0  0  0  0  0  0  0  0  0  0  # atno 10167 bound_to 10162
  157.2191  130.6970  149.6262 H   0  0  0  0  0  0  0  0  0  0  0  0  # atno 10718 bound_to 10713
  153.0456  135.5101  154.7738 H   0  0  0  0  0  0  0  0  0  0  0  0  # atno 10763 bound_to 10752
  154.6640  135.2943  154.9832 H   0  0  0  0  0  0  0  0  0  0  0  0  # atno 10764 bound_to 10752
  154.0673  135.6682  153.4872 H   0  0  0  0  0  0  0  0  0  0  0  0  # atno 10765 bound_to 10752
  139.9195  134.9636  156.7845 H   0  0  0  0  0  0  0  0  0  0  0  0  # atno 11005 bound_to 11000
  146.1509  139.4591  143.0049 LP  0  0  0  0  0  0  0  0  0  0  0  0  # atno 17320 bound_to 7965
  145.6872  141.0174  143.1575 LP  0  0  0  0  0  0  0  0  0  0  0  0  # atno 17321 bound_to 7965
  140.3971  143.2722  151.9991 LP  0  0  0  0  0  0  0  0  0  0  0  0  # atno 17342 bound_to 10162
  139.4819  144.6028  151.7574 LP  0  0  0  0  0  0  0  0  0  0  0  0  # atno 17343 bound_to 10162
  155.9684  130.4526  150.5779 LP  0  0  0  0  0  0  0  0  0  0  0  0  # atno 17370 bound_to 10713
  157.3594  131.0747  151.1648 LP  0  0  0  0  0  0  0  0  0  0  0  0  # atno 17371 bound_to 10713
  140.6517  133.9725  155.7759 LP  0  0  0  0  0  0  0  0  0  0  0  0  # atno 17394 bound_to 11000
  141.0703  134.0215  157.3535 LP  0  0  0  0  0  0  0  0  0  0  0  0  # atno 17395 bound_to 11000

$$$$
