AV-unprocessed.smi:630|AV-procd|sdf|3124|dock1
  -GOLD-   22720 0 43D 1   1.00000     0.00000
 Structure written by MMmdl.
 36 37  0  0  0  0  0  0  0  0  2 V2000
  153.4810  138.4733  159.8225 N   0  0  0  0  0  0  0  0  0  0  0  0
  152.4561  137.8718  159.2125 C   0  0  0  0  0  0  0  0  0  0  0  0
  152.1620  136.6994  159.4389 O   0  0  0  0  0  0  0  0  0  0  0  0
  151.6505  138.7069  158.1976 C   0  0  1  0  0  0  0  0  0  0  0  0
  152.5701  139.2236  157.0622 C   0  0  0  0  0  0  0  0  0  0  0  0
  152.7386  138.3006  155.8430 C   0  0  0  0  0  0  0  0  0  0  0  0
  151.6490  138.5229  154.7826 C   0  0  0  0  0  0  0  0  0  0  0  0
  150.2679  137.9725  155.1630 C   0  0  0  0  0  0  0  0  0  0  0  0
  149.6871  138.5116  156.4828 C   0  0  0  0  0  0  0  0  0  0  0  0
  150.3801  137.9353  157.7368 C   0  0  2  0  0  0  0  0  0  0  0  0
  149.4173  137.9093  158.8430 N   0  0  0  0  0  0  0  0  0  0  0  0
  148.8557  136.8288  159.4059 C   0  0  0  0  0  0  0  0  0  0  0  0
  149.1211  135.6999  158.9870 O   0  0  0  0  0  0  0  0  0  0  0  0
  148.0213  137.1269  160.4281 N   0  5  0  0  0  0  0  0  0  0  0  0
  147.4561  136.1405  161.1429 C   0  0  0  0  0  0  0  0  0  0  0  0
  147.0159  136.3063  162.3956 N   0  0  0  0  0  0  0  0  0  0  0  0
  146.4705  135.1469  162.9503 C   0  0  0  0  0  0  0  0  0  0  0  0
  146.5048  134.0708  162.1036 C   0  0  0  0  0  0  0  0  0  0  0  0
  147.2263  134.4843  160.5746 S   0  0  0  0  0  0  0  0  0  0  0  0
  154.0148  137.9713  160.5168 H   0  0  0  0  0  0  0  0  0  0  0  0
  153.6987  139.4361  159.6102 H   0  0  0  0  0  0  0  0  0  0  0  0
  151.3159  139.6040  158.7228 H   0  0  0  0  0  0  0  0  0  0  0  0
  152.2137  140.1989  156.7286 H   0  0  0  0  0  0  0  0  0  0  0  0
  153.5602  139.4283  157.4733 H   0  0  0  0  0  0  0  0  0  0  0  0
  153.6995  138.5275  155.3802 H   0  0  0  0  0  0  0  0  0  0  0  0
  152.7922  137.2525  156.1385 H   0  0  0  0  0  0  0  0  0  0  0  0
  151.5698  139.5856  154.5505 H   0  0  0  0  0  0  0  0  0  0  0  0
  151.9630  138.0426  153.8554 H   0  0  0  0  0  0  0  0  0  0  0  0
  149.5751  138.2145  154.3564 H   0  0  0  0  0  0  0  0  0  0  0  0
  150.3052  136.8829  155.1979 H   0  0  0  0  0  0  0  0  0  0  0  0
  149.6945  139.6021  156.4986 H   0  0  0  0  0  0  0  0  0  0  0  0
  148.6342  138.2250  156.5006 H   0  0  0  0  0  0  0  0  0  0  0  0
  150.6721  136.9105  157.4998 H   0  0  0  0  0  0  0  0  0  0  0  0
  149.1538  138.8052  159.2263 H   0  0  0  0  0  0  0  0  0  0  0  0
  146.0819  135.1779  163.9572 H   0  0  0  0  0  0  0  0  0  0  0  0
  146.1527  133.0664  162.2839 H   0  0  0  0  0  0  0  0  0  0  0  0
  1  2  1  0  0  0  0
  1 20  1  0  0  0  0
  1 21  1  0  0  0  0
  2  3  2  0  0  0  0
  2  4  1  0  0  0  0
  4 10  1  0  0  0  0
  4  5  1  0  0  0  0
  4 22  1  0  0  0  0
  5  6  1  0  0  0  0
  5 23  1  0  0  0  0
  5 24  1  0  0  0  0
  6  7  1  0  0  0  0
  6 25  1  0  0  0  0
  6 26  1  0  0  0  0
  7  8  1  0  0  0  0
  7 27  1  0  0  0  0
  7 28  1  0  0  0  0
  8  9  1  0  0  0  0
  8 29  1  0  0  0  0
  8 30  1  0  0  0  0
  9 10  1  0  0  0  0
  9 31  1  0  0  0  0
  9 32  1  0  0  0  0
 10 11  1  0  0  0  0
 10 33  1  0  0  0  0
 11 12  1  0  0  0  0
 11 34  1  0  0  0  0
 12 13  2  0  0  0  0
 12 14  1  0  0  0  0
 14 15  1  0  0  0  0
 15 19  1  0  0  0  0
 15 16  2  0  0  0  0
 16 17  1  0  0  0  0
 17 18  2  0  0  0  0
 17 35  1  0  0  0  0
 18 19  1  0  0  0  0
 18 36  1  0  0  0  0
M  CHG  1  14  -1
M  END
> <s_m_source_file>
AV-unprocessed.smi

> <i_m_source_file_index>
630

> <i_lp_mmshare_version>
43012

> <i_f3d_flags>
0

> <s_epik_input>
W05IMl1DKD1PKVtDQEBIXTFbQ0gyXVtDSDJdW0NIMl1bQ0gyXVtDSDJdW0NASF0xW05IXUMoPU8pW05IXWMybltjSF1bY0hdczI=

> <s_epik_cmdline>
J2VwaWtfcHl0aG9uJywgJy1waCcsICc3LjAnLCAnLXRuJywgJzgnLCAnLW1hJywgJzIwMCcsICctbWV0YWxfYmluZGluZycsICctaW1hZScsICc8aW5maWxlLm1hZT4nLCAnLW9tYWUnLCAnPG91dGZpbGUubWFlPic=

> <r_lp_tautomer_probability>
0.999

> <r_epik_Ionization_Penalty>
8.29606

> <r_epik_Ionization_Penalty_Charging>
6.67551

> <r_epik_Ionization_Penalty_Neutral>
1.62055

> <r_epik_State_Penalty>
6.67568

> <r_epik_Charging_Adjusted_Penalty>
13.3512

> <i_epik_Tot_Q>
-1

> <i_epik_Tot_abs_Q>
1

> <r_epik_Metal_State_Penalty>
2.59802

> <b_epik_Metal_Only>
1

> <s_lp_Force_Field>
OPLS_2005

> <r_lp_Energy>
8.13293

> <b_lp_Chiralities_Consistent>
1

> <s_lp_Variant>
AV-unprocessed.smi:630-8

> <Gold.Version>
5.8.1

> <Gold.Id.Protein>
6NUR|6NUR_protein|mol2

> <Gold.PLP.Fitness>
42.1494

> <Gold.PLP.PLP>
-28.6773

> <Gold.PLP.part.hbond>
-4.0000

> <Gold.PLP.part.metal>
0.0000

> <Gold.PLP.part.buried>
-3.7627

> <Gold.PLP.part.nonpolar>
-22.0915

> <Gold.PLP.part.repulsive>
0.2789

> <Gold.PLP.ligand.clash>
0.0000

> <Gold.PLP.ligand.torsion>
0.2455

> <Gold.PLP.Chemscore.Hbond>
4.6076

> <Gold.PLP.Chemscore.CHOScore>
0.0000

> <Gold.PLP.Chemscore.Metal>
0.0000

> <Gold.Chemscore.Hbonds>
donor molecule, donor type, donor heavy atom, donor atom, acceptor molecule, acceptor atom, score
      P1  H  6896  6907       L1    13  0.93
      P1  H  6896  6908       L1     3  0.75
      P1  H  6931  6943       L1    14  1.25
      P1  H  6934  6947       L1    14  1.17

> <Gold.PLP.Chemscore.Internal.Correction>
0.1403

> <Gold.Rescore>
     Score         DG    S(hbond)    S(metal)    S(lipo)     H(rot)  DE(clash)    DE(int)     intcor
     15.59     -17.30       2.74        0.00      55.73       1.50       0.01       1.70       ----

> <Gold.Chemscore.Fitness>
15.5937

> <Gold.Chemscore.DG>
-17.3048

> <Gold.Chemscore.ZeroCoef>
-5.4800

> <Gold.Chemscore.Hbond>
2.7411

> <Gold.Chemscore.Metal>
0.0000

> <Gold.Chemscore.Lipo>
55.7314

> <Gold.Chemscore.Internal_Hbond>
0.0000

> <Gold.Chemscore.DEClash>
0.0121

> <Gold.Chemscore.DEInternal>
1.6990

> <Gold.Chemscore.Rot>
1.5044

> <Gold.Chemscore.Internal.Correction>
   9.000000E+99

> <Gold.Chemscore.Hbonds>
donor molecule, donor type, donor heavy atom, donor atom, acceptor molecule, acceptor atom, score
      P1  H  6896  6907       L1    13  0.86
      P1  H  6896  6908       L1     3  0.74
      P1  H  6931  6943       L1    14  0.18
      P1  H  6934  6947       L1    14  0.46

> <Gold.Chemscore.Hbond.Weighted>
-9.1554

> <Gold.Chemscore.Metal.Weighted>
-0.0000

> <Gold.Chemscore.Lipo.Weighted>
-6.5206

> <Gold.Chemscore.Internal_Hbond.Weighted>
0.0000

> <Gold.Chemscore.DEClash.Weighted>
0.0121

> <Gold.Chemscore.DEInternal.Weighted>
1.6990

> <Gold.Chemscore.Rot.Weighted>
3.8512

> <Gold.Chemscore.Internal.Correction.Weighted>
   9.000000E+99

> <Gold.Protein.RotatedTorsions>
[ 6907 6896 6895 6894 ] final  -83.22 input  -60.11 | X-H torsion
[ 7974 7965 7964 7962 ] final -102.26 input  175.53 | X-H torsion
[ 8008 7997 7996 7995 ] final   31.34 input   59.86 | X-H torsion
[ 10167 10162 10161 10158 ] final  -81.95 input  -65.29 | X-H torsion
[ 10718 10713 10712 10709 ] final -140.31 input   66.30 | X-H torsion
[ 10763 10752 10751 10750 ] final -131.34 input  -60.55 | X-H torsion
[ 11005 11000 10999 10996 ] final   95.20 input  -57.11 | X-H torsion

> <Gold.Protein.ActiveResidues>
 VAL166  LYS551  ARG553  GLY616  TRP617  ASP618  TYR619  PRO620  LYS621  CYS622 
 ASP623  PHE694  ASN695  SER759  ASP760  ASP761  ALA762  ILE779  LEU786  VAL792 
 PHE793  MET794  SER795  GLU796  ALA797  LYS798  CYS799  TRP800  GLU811  SER814 

> <Gold.Protein.RotatedAtoms>
  150.6888  134.3546  159.4923 H   0  0  0  0  0  0  0  0  0  0  0  0  # atno 6907 bound_to 6896
  152.1382  134.9080  160.0564 H   0  0  0  0  0  0  0  0  0  0  0  0  # atno 6908 bound_to 6896
  152.0223  133.3869  159.4300 H   0  0  0  0  0  0  0  0  0  0  0  0  # atno 6909 bound_to 6896
  145.2710  140.9298  143.2986 H   0  0  0  0  0  0  0  0  0  0  0  0  # atno 7974 bound_to 7965
  155.1049  140.3233  155.4537 H   0  0  0  0  0  0  0  0  0  0  0  0  # atno 8008 bound_to 7997
  156.2707  140.2054  156.6121 H   0  0  0  0  0  0  0  0  0  0  0  0  # atno 8009 bound_to 7997
  154.6800  140.0527  157.0243 H   0  0  0  0  0  0  0  0  0  0  0  0  # atno 8010 bound_to 7997
  140.4365  143.2530  151.8686 H   0  0  0  0  0  0  0  0  0  0  0  0  # atno 10167 bound_to 10162
  156.3208  130.7533  151.1630 H   0  0  0  0  0  0  0  0  0  0  0  0  # atno 10718 bound_to 10713
  154.8751  135.3833  154.4230 H   0  0  0  0  0  0  0  0  0  0  0  0  # atno 10763 bound_to 10752
  153.4932  135.7030  153.5878 H   0  0  0  0  0  0  0  0  0  0  0  0  # atno 10764 bound_to 10752
  153.4242  135.3894  155.2097 H   0  0  0  0  0  0  0  0  0  0  0  0  # atno 10765 bound_to 10752
  139.8791  134.8886  156.3976 H   0  0  0  0  0  0  0  0  0  0  0  0  # atno 11005 bound_to 11000
  144.9335  139.4270  143.6483 LP  0  0  0  0  0  0  0  0  0  0  0  0  # atno 17320 bound_to 7965
  146.3246  139.8259  142.8918 LP  0  0  0  0  0  0  0  0  0  0  0  0  # atno 17321 bound_to 7965
  139.4787  144.5277  151.8712 LP  0  0  0  0  0  0  0  0  0  0  0  0  # atno 17342 bound_to 10162
  140.4367  144.2042  150.5889 LP  0  0  0  0  0  0  0  0  0  0  0  0  # atno 17343 bound_to 10162
  157.7411  131.0508  150.5119 LP  0  0  0  0  0  0  0  0  0  0  0  0  # atno 17370 bound_to 10713
  156.5271  130.4176  149.6221 LP  0  0  0  0  0  0  0  0  0  0  0  0  # atno 17371 bound_to 10713
  140.9289  133.7593  156.0000 LP  0  0  0  0  0  0  0  0  0  0  0  0  # atno 17394 bound_to 11000
  140.8353  134.3130  157.5334 LP  0  0  0  0  0  0  0  0  0  0  0  0  # atno 17395 bound_to 11000

$$$$
