AV-unprocessed.smi:290|AV-procd|sdf|2232|dock6
  -GOLD-   2262022 93D 1   1.00000     0.00000
 Structure written by MMmdl.
 59 62  0  0  0  0  0  0  0  0  2 V2000
  150.8836  138.5488  154.5499 C   0  0  0  0  0  0  0  0  0  0  0  0
  149.8996  139.3570  155.4136 C   0  0  1  0  0  0  0  0  0  0  0  0
  150.5281  139.5384  156.6842 O   0  0  0  0  0  0  0  0  0  0  0  0
  150.5708  140.9160  157.0303 C   0  0  0  0  0  0  0  0  0  0  0  0
  150.5364  141.6345  155.6903 C   0  0  0  0  0  0  0  0  0  0  0  0
  149.5610  140.7765  154.8931 C   0  0  1  0  0  0  0  0  0  0  0  0
  149.8316  140.9365  153.5111 O   0  0  0  0  0  0  0  0  0  0  0  0
  148.0672  141.1187  155.1392 C   0  0  0  0  0  0  0  0  0  0  0  0
  147.1378  140.0901  154.6972 N   0  0  0  0  0  0  0  0  0  0  0  0
  146.9422  139.6503  153.4070 C   0  0  0  0  0  0  0  0  0  0  0  0
  146.0492  138.7079  153.2686 N   0  0  0  0  0  0  0  0  0  0  0  0
  145.6015  138.4755  154.5636 C   0  0  0  0  0  0  0  0  0  0  0  0
  144.6455  137.5940  155.1426 C   0  0  0  0  0  0  0  0  0  0  0  0
  143.9009  136.7045  154.4502 N   0  0  0  0  0  0  0  0  0  0  0  0
  142.9058  137.2917  153.5649 C   0  0  0  0  0  0  0  0  0  0  0  0
  143.1327  136.6665  152.1934 C   0  0  0  0  0  0  0  0  0  0  0  0
  143.8141  135.3237  152.4916 C   0  0  1  0  0  0  0  0  0  0  0  0
  144.5691  134.8357  151.2967 N   0  3  1  0  0  0  0  0  0  0  0  0
  145.5698  135.7837  150.7506 C   0  0  0  0  0  0  0  0  0  0  0  0
  145.1588  133.4847  151.5033 C   0  0  0  0  0  0  0  0  0  0  0  0
  145.7758  132.9243  150.2113 C   0  0  0  0  0  0  0  0  0  0  0  0
  144.8448  133.0094  149.1531 O   0  0  0  0  0  0  0  0  0  0  0  0
  144.6636  135.6812  153.7364 C   0  0  2  0  0  0  0  0  0  0  0  0
  144.9522  134.5065  154.6940 C   0  0  0  0  0  0  0  0  0  0  0  0
  144.4674  137.6388  156.4851 N   0  0  0  0  0  0  0  0  0  0  0  0
  145.1808  138.4941  157.2242 C   0  0  0  0  0  0  0  0  0  0  0  0
  146.1037  139.3732  156.8267 N   0  0  0  0  0  0  0  0  0  0  0  0
  146.2819  139.3301  155.4750 C   0  0  0  0  0  0  0  0  0  0  0  0
  143.0591  134.5882  152.7765 H   0  0  0  0  0  0  0  0  0  0  0  0
  145.6098  136.1123  153.4063 H   0  0  0  0  0  0  0  0  0  0  0  0
  150.4622  138.3267  153.5694 H   0  0  0  0  0  0  0  0  0  0  0  0
  151.1231  137.5970  155.0244 H   0  0  0  0  0  0  0  0  0  0  0  0
  151.8193  139.0889  154.4013 H   0  0  0  0  0  0  0  0  0  0  0  0
  148.9910  138.7685  155.5487 H   0  0  0  0  0  0  0  0  0  0  0  0
  149.6946  141.1665  157.6296 H   0  0  0  0  0  0  0  0  0  0  0  0
  151.4608  141.1543  157.6129 H   0  0  0  0  0  0  0  0  0  0  0  0
  150.2604  142.6849  155.7717 H   0  0  0  0  0  0  0  0  0  0  0  0
  151.5309  141.5942  155.2429 H   0  0  0  0  0  0  0  0  0  0  0  0
  149.3932  140.2457  153.0386 H   0  0  0  0  0  0  0  0  0  0  0  0
  147.8957  141.2945  156.2021 H   0  0  0  0  0  0  0  0  0  0  0  0
  147.8027  142.0509  154.6387 H   0  0  0  0  0  0  0  0  0  0  0  0
  147.4856  140.0559  152.5656 H   0  0  0  0  0  0  0  0  0  0  0  0
  141.9196  137.0208  153.9432 H   0  0  0  0  0  0  0  0  0  0  0  0
  142.9503  138.3812  153.5211 H   0  0  0  0  0  0  0  0  0  0  0  0
  142.2025  136.5719  151.6334 H   0  0  0  0  0  0  0  0  0  0  0  0
  143.8039  137.3055  151.6173 H   0  0  0  0  0  0  0  0  0  0  0  0
  146.3094  136.0502  151.5063 H   0  0  0  0  0  0  0  0  0  0  0  0
  145.0941  136.6908  150.3794 H   0  0  0  0  0  0  0  0  0  0  0  0
  146.1035  135.3503  149.9053 H   0  0  0  0  0  0  0  0  0  0  0  0
  145.9145  133.5369  152.2886 H   0  0  0  0  0  0  0  0  0  0  0  0
  144.4165  132.7739  151.8658 H   0  0  0  0  0  0  0  0  0  0  0  0
  146.6904  133.4486  149.9357 H   0  0  0  0  0  0  0  0  0  0  0  0
  146.0406  131.8755  150.3486 H   0  0  0  0  0  0  0  0  0  0  0  0
  145.2639  133.4201  148.4117 H   0  0  0  0  0  0  0  0  0  0  0  0
  145.5411  133.7153  154.2372 H   0  0  0  0  0  0  0  0  0  0  0  0
  144.0260  134.0580  155.0547 H   0  0  0  0  0  0  0  0  0  0  0  0
  145.5111  134.8450  155.5669 H   0  0  0  0  0  0  0  0  0  0  0  0
  144.9847  138.4707  158.2861 H   0  0  0  0  0  0  0  0  0  0  0  0
  143.8731  134.7233  150.5727 H   0  0  0  0  0  0  0  0  0  0  0  0
  1  2  1  0  0  0  0
  1 31  1  0  0  0  0
  1 32  1  0  0  0  0
  1 33  1  0  0  0  0
  2  6  1  0  0  0  0
  2  3  1  0  0  0  0
  2 34  1  0  0  0  0
  3  4  1  0  0  0  0
  4  5  1  0  0  0  0
  4 35  1  0  0  0  0
  4 36  1  0  0  0  0
  5  6  1  0  0  0  0
  5 37  1  0  0  0  0
  5 38  1  0  0  0  0
  6  7  1  0  0  0  0
  6  8  1  0  0  0  0
  7 39  1  0  0  0  0
  8  9  1  0  0  0  0
  8 40  1  0  0  0  0
  8 41  1  0  0  0  0
  9 28  1  0  0  0  0
  9 10  1  0  0  0  0
 10 11  2  0  0  0  0
 10 42  1  0  0  0  0
 11 12  1  0  0  0  0
 12 28  2  0  0  0  0
 12 13  1  0  0  0  0
 13 14  1  0  0  0  0
 13 25  2  0  0  0  0
 14 23  1  0  0  0  0
 14 15  1  0  0  0  0
 15 16  1  0  0  0  0
 15 43  1  0  0  0  0
 15 44  1  0  0  0  0
 16 17  1  0  0  0  0
 16 45  1  0  0  0  0
 16 46  1  0  0  0  0
 17 29  1  0  0  0  0
 17 18  1  0  0  0  0
 17 23  1  0  0  0  0
 18 19  1  0  0  0  0
 18 20  1  0  0  0  0
 18 59  1  0  0  0  0
 19 47  1  0  0  0  0
 19 48  1  0  0  0  0
 19 49  1  0  0  0  0
 20 21  1  0  0  0  0
 20 50  1  0  0  0  0
 20 51  1  0  0  0  0
 21 22  1  0  0  0  0
 21 52  1  0  0  0  0
 21 53  1  0  0  0  0
 22 54  1  0  0  0  0
 23 30  1  0  0  0  0
 23 24  1  0  0  0  0
 24 55  1  0  0  0  0
 24 56  1  0  0  0  0
 24 57  1  0  0  0  0
 25 26  1  0  0  0  0
 26 27  2  0  0  0  0
 26 58  1  0  0  0  0
 27 28  1  0  0  0  0
M  CHG  1  18   1
M  END
> <s_m_source_file>
AV-unprocessed.smi

> <i_m_source_file_index>
290

> <i_lp_mmshare_version>
43012

> <i_f3d_flags>
0

> <s_epik_input>
W0NIMl0xW0NIMl1PW0NAQEhdKFtDSDNdKVtDQEBdMShbT0hdKVtDSDJdbihbY0hdbjIpYyhjMjMpbltjSF1uYzNONFtDSDJdW0NIMl1bQ0BIXShbQ0BIXTRbQ0gzXSlOKFtDSDNdKVtDSDJdW0NIMl1bT0hd

> <s_epik_cmdline>
J2VwaWtfcHl0aG9uJywgJy1waCcsICc3LjAnLCAnLXRuJywgJzgnLCAnLW1hJywgJzIwMCcsICctbWV0YWxfYmluZGluZycsICctaW1hZScsICc8aW5maWxlLm1hZT4nLCAnLW9tYWUnLCAnPG91dGZpbGUubWFlPic=

> <r_lp_tautomer_probability>
1

> <r_epik_Ionization_Penalty>
0.0036983

> <r_epik_Ionization_Penalty_Charging>
0.0032725

> <r_epik_Ionization_Penalty_Neutral>
0.000425798

> <r_epik_State_Penalty>
-0

> <r_epik_Charging_Adjusted_Penalty>
0.0032725

> <i_epik_Tot_Q>
1

> <i_epik_Tot_abs_Q>
1

> <r_epik_Metal_State_Penalty>
-0

> <b_epik_Metal_Only>
0

> <s_lp_Force_Field>
OPLS_2005

> <r_lp_Energy>
64.3392

> <b_lp_Chiralities_Consistent>
1

> <s_lp_Variant>
AV-unprocessed.smi:290-18

> <Gold.Version>
5.8.1

> <Gold.Id.Protein>
6NUR|6NUR_protein|mol2

> <Gold.PLP.Fitness>
43.0089

> <Gold.PLP.PLP>
-32.4122

> <Gold.PLP.part.hbond>
-3.4206

> <Gold.PLP.part.metal>
0.0000

> <Gold.PLP.part.buried>
-4.9540

> <Gold.PLP.part.nonpolar>
-23.2393

> <Gold.PLP.part.repulsive>
0.2788

> <Gold.PLP.ligand.clash>
0.0000

> <Gold.PLP.ligand.torsion>
0.2986

> <Gold.PLP.Chemscore.Hbond>
2.7040

> <Gold.PLP.Chemscore.CHOScore>
0.9302

> <Gold.PLP.Chemscore.Metal>
0.0000

> <Gold.Chemscore.Hbonds>
donor molecule, donor type, donor heavy atom, donor atom, acceptor molecule, acceptor atom, score
      L1  H     7    39       P1  7957  0.42
      L1  H    22    54       P1  7921  1.00
      P1  H  7989  7998       L1     7  0.29
      P1  H  8011  8017       L1     7  1.00
      L1  C    10    42       P1  7957  1.00

> <Gold.PLP.Chemscore.Internal.Correction>
0.2912

> <Gold.Rescore>
     Score         DG    S(hbond)    S(metal)    S(lipo)     H(rot)  DE(clash)    DE(int)     intcor
     11.13     -11.85       2.12        0.00      74.16       3.67       0.23       0.49       ----

> <Gold.Chemscore.Fitness>
11.1301

> <Gold.Chemscore.DG>
-11.8498

> <Gold.Chemscore.ZeroCoef>
-5.4800

> <Gold.Chemscore.Hbond>
2.1191

> <Gold.Chemscore.Metal>
0.0000

> <Gold.Chemscore.Lipo>
74.1572

> <Gold.Chemscore.Internal_Hbond>
0.0000

> <Gold.Chemscore.DEClash>
0.2288

> <Gold.Chemscore.DEInternal>
0.4910

> <Gold.Chemscore.Rot>
3.6658

> <Gold.Chemscore.Internal.Correction>
   9.000000E+99

> <Gold.Chemscore.Hbonds>
donor molecule, donor type, donor heavy atom, donor atom, acceptor molecule, acceptor atom, score
      L1  H     7    39       P1  7957  0.42
      L1  H    22    54       P1  7921  0.38
      P1  H  7989  7998       L1     7  0.11
      P1  H  8011  8017       L1     7  0.48

> <Gold.Chemscore.Hbond.Weighted>
-7.0778

> <Gold.Chemscore.Metal.Weighted>
-0.0000

> <Gold.Chemscore.Lipo.Weighted>
-8.6764

> <Gold.Chemscore.Internal_Hbond.Weighted>
0.0000

> <Gold.Chemscore.DEClash.Weighted>
0.2288

> <Gold.Chemscore.DEInternal.Weighted>
0.4910

> <Gold.Chemscore.Rot.Weighted>
9.3844

> <Gold.Chemscore.Internal.Correction.Weighted>
   9.000000E+99

> <Gold.Protein.RotatedTorsions>
[ 6907 6896 6895 6894 ] final  171.76 input  -60.11 | X-H torsion
[ 7974 7965 7964 7962 ] final -158.99 input  175.53 | X-H torsion
[ 8008 7997 7996 7995 ] final  146.80 input   59.86 | X-H torsion
[ 10167 10162 10161 10158 ] final  -18.21 input  -65.29 | X-H torsion
[ 10718 10713 10712 10709 ] final   14.11 input   66.30 | X-H torsion
[ 10763 10752 10751 10750 ] final  103.03 input  -60.55 | X-H torsion
[ 11005 11000 10999 10996 ] final  -45.28 input  -57.11 | X-H torsion

> <Gold.Protein.ActiveResidues>
 VAL166  LYS551  ARG553  GLY616  TRP617  ASP618  TYR619  PRO620  LYS621  CYS622 
 ASP623  PHE694  ASN695  SER759  ASP760  ASP761  ALA762  ILE779  LEU786  VAL792 
 PHE793  MET794  SER795  GLU796  ALA797  LYS798  CYS799  TRP800  GLU811  SER814 

> <Gold.Protein.RotatedAtoms>
  151.7951  133.3363  159.3510 H   0  0  0  0  0  0  0  0  0  0  0  0  # atno 6907 bound_to 6896
  150.7378  134.5806  159.5946 H   0  0  0  0  0  0  0  0  0  0  0  0  # atno 6908 bound_to 6896
  152.3183  134.7414  160.0371 H   0  0  0  0  0  0  0  0  0  0  0  0  # atno 6909 bound_to 6896
  144.7483  140.3749  143.6068 H   0  0  0  0  0  0  0  0  0  0  0  0  # atno 7974 bound_to 7965
  156.2844  140.2172  156.5435 H   0  0  0  0  0  0  0  0  0  0  0  0  # atno 8008 bound_to 7997
  154.7350  140.0492  157.0782 H   0  0  0  0  0  0  0  0  0  0  0  0  # atno 8009 bound_to 7997
  155.0305  140.3134  155.4763 H   0  0  0  0  0  0  0  0  0  0  0  0  # atno 8010 bound_to 7997
  140.7256  143.4939  150.9956 H   0  0  0  0  0  0  0  0  0  0  0  0  # atno 10167 bound_to 10162
  157.0344  130.6206  149.5740 H   0  0  0  0  0  0  0  0  0  0  0  0  # atno 10718 bound_to 10713
  153.3473  135.3990  155.1619 H   0  0  0  0  0  0  0  0  0  0  0  0  # atno 10763 bound_to 10752
  154.8655  135.3648  154.5267 H   0  0  0  0  0  0  0  0  0  0  0  0  # atno 10764 bound_to 10752
  153.5717  135.7079  153.5562 H   0  0  0  0  0  0  0  0  0  0  0  0  # atno 10765 bound_to 10752
  141.0505  133.6744  156.2991 H   0  0  0  0  0  0  0  0  0  0  0  0  # atno 11005 bound_to 11000
  145.7039  139.1668  143.2577 LP  0  0  0  0  0  0  0  0  0  0  0  0  # atno 17320 bound_to 7965
  146.1396  140.7076  142.9373 LP  0  0  0  0  0  0  0  0  0  0  0  0  # atno 17321 bound_to 7965
  139.8645  143.7271  152.3171 LP  0  0  0  0  0  0  0  0  0  0  0  0  # atno 17342 bound_to 10162
  139.7499  144.7537  151.0523 LP  0  0  0  0  0  0  0  0  0  0  0  0  # atno 17343 bound_to 10162
  156.0059  130.5145  150.7827 LP  0  0  0  0  0  0  0  0  0  0  0  0  # atno 17370 bound_to 10713
  157.5153  131.0928  151.0147 LP  0  0  0  0  0  0  0  0  0  0  0  0  # atno 17371 bound_to 10713
  140.6064  134.5503  157.5526 LP  0  0  0  0  0  0  0  0  0  0  0  0  # atno 17394 bound_to 11000
  139.9347  134.7898  156.0836 LP  0  0  0  0  0  0  0  0  0  0  0  0  # atno 17395 bound_to 11000

$$$$
