AV-unprocessed.smi:1913|AV-procd|sdf|7752|dock4
  -GOLD-   22720 9493D 1   1.00000     0.00000
 Structure written by MMmdl.
 40 42  0  0  0  0  0  0  0  0  1 V2000
  153.8553  137.8059  156.8623 C   0  0  0  0  0  0  0  0  0  0  0  0
  153.2340  137.6816  155.5912 O   0  0  0  0  0  0  0  0  0  0  0  0
  152.0677  138.3813  155.3683 C   0  0  0  0  0  0  0  0  0  0  0  0
  151.0411  137.9589  154.4919 C   0  0  0  0  0  0  0  0  0  0  0  0
  149.8760  138.7313  154.3338 C   0  0  0  0  0  0  0  0  0  0  0  0
  149.7060  139.9439  155.0461 C   0  0  0  0  0  0  0  0  0  0  0  0
  148.5710  140.7230  154.9496 O   0  0  0  0  0  0  0  0  0  0  0  0
  147.5855  140.3629  153.9933 C   0  0  0  0  0  0  0  0  0  0  0  0
  150.7374  140.3763  155.9161 C   0  0  0  0  0  0  0  0  0  0  0  0
  150.5783  141.6579  156.7341 C   0  0  2  0  0  0  0  0  0  0  0  0
  149.7621  142.6156  156.0892 O   0  0  0  0  0  0  0  0  0  0  0  0
  151.9348  142.3211  157.0505 C   0  0  0  0  0  0  0  0  0  0  0  0
  151.8209  143.3458  158.0732 N   0  0  0  0  0  0  0  0  0  0  0  0
  151.2266  144.5482  157.9522 C   0  0  0  0  0  0  0  0  0  0  0  0
  151.2077  145.3302  159.0278 N   0  0  0  0  0  0  0  0  0  0  0  0
  151.8691  144.5443  159.9559 C   0  0  0  0  0  0  0  0  0  0  0  0
  152.1768  144.7907  161.3130 C   0  0  0  0  0  0  0  0  0  0  0  0
  152.8631  143.8237  162.0769 C   0  0  0  0  0  0  0  0  0  0  0  0
  153.2528  142.5990  161.4972 C   0  0  0  0  0  0  0  0  0  0  0  0
  152.9590  142.3318  160.1465 C   0  0  0  0  0  0  0  0  0  0  0  0
  152.2719  143.2981  159.3882 C   0  0  0  0  0  0  0  0  0  0  0  0
  151.9016  139.5907  156.0690 C   0  0  0  0  0  0  0  0  0  0  0  0
  154.7695  137.2126  156.8745 H   0  0  0  0  0  0  0  0  0  0  0  0
  153.2111  137.4350  157.6606 H   0  0  0  0  0  0  0  0  0  0  0  0
  154.1311  138.8407  157.0712 H   0  0  0  0  0  0  0  0  0  0  0  0
  151.1202  137.0411  153.9298 H   0  0  0  0  0  0  0  0  0  0  0  0
  149.1197  138.3646  153.6573 H   0  0  0  0  0  0  0  0  0  0  0  0
  146.7166  141.0092  154.1152 H   0  0  0  0  0  0  0  0  0  0  0  0
  147.2513  139.3336  154.1334 H   0  0  0  0  0  0  0  0  0  0  0  0
  147.9530  140.4912  152.9744 H   0  0  0  0  0  0  0  0  0  0  0  0
  150.0693  141.4297  157.6708 H   0  0  0  0  0  0  0  0  0  0  0  0
  148.8826  142.5332  156.4253 H   0  0  0  0  0  0  0  0  0  0  0  0
  152.6657  141.5782  157.3725 H   0  0  0  0  0  0  0  0  0  0  0  0
  152.3425  142.7898  156.1535 H   0  0  0  0  0  0  0  0  0  0  0  0
  150.7725  144.8627  157.0237 H   0  0  0  0  0  0  0  0  0  0  0  0
  151.8822  145.7246  161.7682 H   0  0  0  0  0  0  0  0  0  0  0  0
  153.0910  144.0224  163.1138 H   0  0  0  0  0  0  0  0  0  0  0  0
  153.7762  141.8639  162.0909 H   0  0  0  0  0  0  0  0  0  0  0  0
  153.2496  141.3922  159.7003 H   0  0  0  0  0  0  0  0  0  0  0  0
  152.6795  139.9087  156.7477 H   0  0  0  0  0  0  0  0  0  0  0  0
  1  2  1  0  0  0  0
  1 23  1  0  0  0  0
  1 24  1  0  0  0  0
  1 25  1  0  0  0  0
  2  3  1  0  0  0  0
  3 22  1  0  0  0  0
  3  4  2  0  0  0  0
  4  5  1  0  0  0  0
  4 26  1  0  0  0  0
  5  6  2  0  0  0  0
  5 27  1  0  0  0  0
  6  7  1  0  0  0  0
  6  9  1  0  0  0  0
  7  8  1  0  0  0  0
  8 28  1  0  0  0  0
  8 29  1  0  0  0  0
  8 30  1  0  0  0  0
  9 10  1  0  0  0  0
  9 22  2  0  0  0  0
 10 11  1  0  0  0  0
 10 12  1  0  0  0  0
 10 31  1  0  0  0  0
 11 32  1  0  0  0  0
 12 13  1  0  0  0  0
 12 33  1  0  0  0  0
 12 34  1  0  0  0  0
 13 21  1  0  0  0  0
 13 14  1  0  0  0  0
 14 15  2  0  0  0  0
 14 35  1  0  0  0  0
 15 16  1  0  0  0  0
 16 21  2  0  0  0  0
 16 17  1  0  0  0  0
 17 18  2  0  0  0  0
 17 36  1  0  0  0  0
 18 19  1  0  0  0  0
 18 37  1  0  0  0  0
 19 20  2  0  0  0  0
 19 38  1  0  0  0  0
 20 21  1  0  0  0  0
 20 39  1  0  0  0  0
 22 40  1  0  0  0  0
M  END
> <s_m_source_file>
AV-unprocessed.smi

> <i_m_source_file_index>
1913

> <i_lp_mmshare_version>
43012

> <i_f3d_flags>
0

> <s_epik_input>
W0NIM11PYzFbY0hdW2NIXWMoT1tDSDNdKWMoW2NIXTEpW0NASF0oW09IXSlbQ0gyXW4oW2NIXW4yKWMoYzIzKVtjSF1bY0hdW2NIXVtjSF0z

> <s_epik_cmdline>
J2VwaWtfcHl0aG9uJywgJy1waCcsICc3LjAnLCAnLXRuJywgJzgnLCAnLW1hJywgJzIwMCcsICctbWV0YWxfYmluZGluZycsICctaW1hZScsICc8aW5maWxlLm1hZT4nLCAnLW9tYWUnLCAnPG91dGZpbGUubWFlPic=

> <r_lp_tautomer_probability>
1

> <r_epik_Ionization_Penalty>
0.0696512

> <r_epik_Ionization_Penalty_Charging>
0

> <r_epik_Ionization_Penalty_Neutral>
0.0696512

> <r_epik_State_Penalty>
0.0610247

> <r_epik_Charging_Adjusted_Penalty>
0.0610247

> <i_epik_Tot_Q>
0

> <i_epik_Tot_abs_Q>
0

> <r_epik_Metal_State_Penalty>
6.42746e-05

> <b_epik_Metal_Only>
0

> <s_lp_Force_Field>
OPLS_2005

> <r_lp_Energy>
18.1997

> <b_lp_Chiralities_Consistent>
1

> <s_lp_Variant>
AV-unprocessed.smi:1913-1

> <Gold.Version>
5.8.1

> <Gold.Id.Protein>
6NUR|6NUR_protein|mol2

> <Gold.PLP.Fitness>
51.9642

> <Gold.PLP.PLP>
-51.4820

> <Gold.PLP.part.hbond>
-1.2298

> <Gold.PLP.part.metal>
0.0000

> <Gold.PLP.part.buried>
-6.3563

> <Gold.PLP.part.nonpolar>
-44.4506

> <Gold.PLP.part.repulsive>
0.2594

> <Gold.PLP.ligand.clash>
0.0000

> <Gold.PLP.ligand.torsion>
1.3296

> <Gold.PLP.Chemscore.Hbond>
0.0333

> <Gold.PLP.Chemscore.CHOScore>
0.9965

> <Gold.PLP.Chemscore.Metal>
0.0000

> <Gold.Chemscore.Hbonds>
donor molecule, donor type, donor heavy atom, donor atom, acceptor molecule, acceptor atom, score
      P1  H 10752 10765       L1     2  0.10
      L1  C    14    35       P1  8028  1.00

> <Gold.PLP.Chemscore.Internal.Correction>
0.0521

> <Gold.Rescore>
     Score         DG    S(hbond)    S(metal)    S(lipo)     H(rot)  DE(clash)    DE(int)     intcor
     12.31     -14.70       0.01        0.00     129.54       2.33       0.35       2.04       ----

> <Gold.Chemscore.Fitness>
12.3060

> <Gold.Chemscore.DG>
-14.6960

> <Gold.Chemscore.ZeroCoef>
-5.4800

> <Gold.Chemscore.Hbond>
0.0090

> <Gold.Chemscore.Metal>
0.0000

> <Gold.Chemscore.Lipo>
129.5439

> <Gold.Chemscore.Internal_Hbond>
0.0000

> <Gold.Chemscore.DEClash>
0.3480

> <Gold.Chemscore.DEInternal>
2.0420

> <Gold.Chemscore.Rot>
2.3323

> <Gold.Chemscore.Internal.Correction>
   9.000000E+99

> <Gold.Chemscore.Hbonds>
donor molecule, donor type, donor heavy atom, donor atom, acceptor molecule, acceptor atom, score
      P1  H 10752 10765       L1     2  0.02

> <Gold.Chemscore.Hbond.Weighted>
-0.0302

> <Gold.Chemscore.Metal.Weighted>
-0.0000

> <Gold.Chemscore.Lipo.Weighted>
-15.1566

> <Gold.Chemscore.Internal_Hbond.Weighted>
0.0000

> <Gold.Chemscore.DEClash.Weighted>
0.3480

> <Gold.Chemscore.DEInternal.Weighted>
2.0420

> <Gold.Chemscore.Rot.Weighted>
5.9708

> <Gold.Chemscore.Internal.Correction.Weighted>
   9.000000E+99

> <Gold.Protein.RotatedTorsions>
[ 6907 6896 6895 6894 ] final   37.28 input  -60.11 | X-H torsion
[ 7974 7965 7964 7962 ] final -105.85 input  175.53 | X-H torsion
[ 8008 7997 7996 7995 ] final  152.40 input   59.86 | X-H torsion
[ 10167 10162 10161 10158 ] final  112.56 input  -65.29 | X-H torsion
[ 10718 10713 10712 10709 ] final   17.06 input   66.30 | X-H torsion
[ 10763 10752 10751 10750 ] final -126.90 input  -60.55 | X-H torsion
[ 11005 11000 10999 10996 ] final  112.73 input  -57.11 | X-H torsion

> <Gold.Protein.ActiveResidues>
 VAL166  LYS551  ARG553  GLY616  TRP617  ASP618  TYR619  PRO620  LYS621  CYS622 
 ASP623  PHE694  ASN695  SER759  ASP760  ASP761  ALA762  ILE779  LEU786  VAL792 
 PHE793  MET794  SER795  GLU796  ALA797  LYS798  CYS799  TRP800  GLU811  SER814 

> <Gold.Protein.RotatedAtoms>
  152.1411  134.9062  160.0553 H   0  0  0  0  0  0  0  0  0  0  0  0  # atno 6907 bound_to 6896
  152.0130  133.3864  159.4235 H   0  0  0  0  0  0  0  0  0  0  0  0  # atno 6908 bound_to 6896
  150.6865  134.3632  159.5003 H   0  0  0  0  0  0  0  0  0  0  0  0  # atno 6909 bound_to 6896
  145.2252  140.9150  143.3236 H   0  0  0  0  0  0  0  0  0  0  0  0  # atno 7974 bound_to 7965
  156.2630  140.2021  156.6328 H   0  0  0  0  0  0  0  0  0  0  0  0  # atno 8008 bound_to 7997
  154.6669  140.0554  157.0148 H   0  0  0  0  0  0  0  0  0  0  0  0  # atno 8009 bound_to 7997
  155.1193  140.3223  155.4504 H   0  0  0  0  0  0  0  0  0  0  0  0  # atno 8010 bound_to 7997
  139.6526  144.7128  151.2018 H   0  0  0  0  0  0  0  0  0  0  0  0  # atno 10167 bound_to 10162
  157.0768  130.6371  149.5817 H   0  0  0  0  0  0  0  0  0  0  0  0  # atno 10718 bound_to 10713
  154.8749  135.3980  154.3505 H   0  0  0  0  0  0  0  0  0  0  0  0  # atno 10763 bound_to 10752
  153.4292  135.7025  153.6247 H   0  0  0  0  0  0  0  0  0  0  0  0  # atno 10764 bound_to 10752
  153.4876  135.3755  155.2445 H   0  0  0  0  0  0  0  0  0  0  0  0  # atno 10765 bound_to 10752
  139.8934  134.9536  156.6630 H   0  0  0  0  0  0  0  0  0  0  0  0  # atno 11005 bound_to 11000
  144.9728  139.3863  143.6300 LP  0  0  0  0  0  0  0  0  0  0  0  0  # atno 17320 bound_to 7965
  146.3366  139.8833  142.8821 LP  0  0  0  0  0  0  0  0  0  0  0  0  # atno 17321 bound_to 7965
  140.7545  143.6124  150.8592 LP  0  0  0  0  0  0  0  0  0  0  0  0  # atno 17342 bound_to 10162
  139.9774  143.5989  152.2954 LP  0  0  0  0  0  0  0  0  0  0  0  0  # atno 17343 bound_to 10162
  155.9935  130.4996  150.7382 LP  0  0  0  0  0  0  0  0  0  0  0  0  # atno 17370 bound_to 10713
  157.4833  131.0904  151.0511 LP  0  0  0  0  0  0  0  0  0  0  0  0  # atno 17371 bound_to 10713
  140.7432  133.8960  155.8293 LP  0  0  0  0  0  0  0  0  0  0  0  0  # atno 17394 bound_to 11000
  141.0060  134.1085  157.4269 LP  0  0  0  0  0  0  0  0  0  0  0  0  # atno 17395 bound_to 11000

$$$$
