AV-unprocessed.smi:1005|AV-procd|sdf|4379|dock1
  -GOLD-   22720 2293D 1   1.00000     0.00000
 Structure written by MMmdl.
 58 60  0  0  0  0  0  0  0  0  4 V2000
  152.1924  144.0350  160.1509 C   0  0  0  0  0  0  0  0  0  0  0  0
  151.9954  142.9774  159.0779 C   0  0  0  0  0  0  0  0  0  0  0  0
  151.1058  143.2524  158.0152 C   0  0  0  0  0  0  0  0  0  0  0  0
  150.9501  142.2674  157.0471 C   0  0  0  0  0  0  0  0  0  0  0  0
  150.1633  142.2359  155.8941 N   0  3  0  0  0  0  0  0  0  0  0  0
  150.3445  141.0490  155.2519 C   0  0  0  0  0  0  0  0  0  0  0  0
  151.2395  140.3221  155.9754 N   0  0  0  0  0  0  0  0  0  0  0  0
  151.7763  138.9762  155.7236 C   0  0  0  0  0  0  0  0  0  0  0  0
  151.0355  138.2349  154.5924 C   0  0  1  0  0  0  0  0  0  0  0  0
  151.8822  137.2471  154.0377 O   0  0  0  0  0  0  0  0  0  0  0  0
  149.7512  137.5513  155.1047 C   0  0  0  0  0  0  0  0  0  0  0  0
  148.5823  137.7771  154.2157 N   0  3  1  0  0  0  0  0  0  0  0  0
  147.3610  137.0930  154.7014 C   0  0  0  0  0  0  0  0  0  0  0  0
  146.2044  137.2961  153.7098 C   0  0  0  0  0  0  0  0  0  0  0  0
  145.9816  138.6882  153.5196 O   0  0  0  0  0  0  0  0  0  0  0  0
  147.1143  139.3494  152.9646 C   0  0  1  0  0  0  0  0  0  0  0  0
  146.7376  140.8251  152.7341 C   0  0  0  0  0  0  0  0  0  0  0  0
  146.7023  141.6130  153.9932 N   0  3  0  0  0  0  0  0  0  0  0  0
  145.9234  140.9627  155.0728 C   0  0  0  0  0  0  0  0  0  0  0  0
  146.2549  143.0053  153.7674 C   0  0  0  0  0  0  0  0  0  0  0  0
  148.2967  139.2084  153.9453 C   0  0  0  0  0  0  0  0  0  0  0  0
  151.6410  141.0413  157.1086 C   0  0  0  0  0  0  0  0  0  0  0  0
  152.5189  140.7533  158.1516 C   0  0  0  0  0  0  0  0  0  0  0  0
  152.6913  141.7426  159.1462 C   0  0  0  0  0  0  0  0  0  0  0  0
  153.6440  141.4566  160.2946 C   0  0  0  0  0  0  0  0  0  0  0  0
  151.6240  144.9389  159.9299 H   0  0  0  0  0  0  0  0  0  0  0  0
  153.2433  144.3147  160.2266 H   0  0  0  0  0  0  0  0  0  0  0  0
  151.8620  143.6619  161.1205 H   0  0  0  0  0  0  0  0  0  0  0  0
  150.5713  144.1894  157.9582 H   0  0  0  0  0  0  0  0  0  0  0  0
  149.8636  140.7413  154.3343 H   0  0  0  0  0  0  0  0  0  0  0  0
  152.8451  139.0470  155.5207 H   0  0  0  0  0  0  0  0  0  0  0  0
  151.6814  138.4170  156.6553 H   0  0  0  0  0  0  0  0  0  0  0  0
  150.7971  138.9549  153.8102 H   0  0  0  0  0  0  0  0  0  0  0  0
  151.5954  137.0673  153.1548 H   0  0  0  0  0  0  0  0  0  0  0  0
  149.9411  136.4795  155.1845 H   0  0  0  0  0  0  0  0  0  0  0  0
  149.5105  137.8933  156.1124 H   0  0  0  0  0  0  0  0  0  0  0  0
  147.5539  136.0264  154.8230 H   0  0  0  0  0  0  0  0  0  0  0  0
  147.0866  137.4840  155.6826 H   0  0  0  0  0  0  0  0  0  0  0  0
  146.4197  136.8146  152.7543 H   0  0  0  0  0  0  0  0  0  0  0  0
  145.2925  136.8415  154.0971 H   0  0  0  0  0  0  0  0  0  0  0  0
  147.3850  138.8794  152.0185 H   0  0  0  0  0  0  0  0  0  0  0  0
  147.4693  141.2609  152.0518 H   0  0  0  0  0  0  0  0  0  0  0  0
  145.7708  140.9019  152.2337 H   0  0  0  0  0  0  0  0  0  0  0  0
  144.8795  140.8393  154.7813 H   0  0  0  0  0  0  0  0  0  0  0  0
  145.9511  141.5655  155.9811 H   0  0  0  0  0  0  0  0  0  0  0  0
  146.3255  139.9825  155.3254 H   0  0  0  0  0  0  0  0  0  0  0  0
  145.2285  143.0315  153.3992 H   0  0  0  0  0  0  0  0  0  0  0  0
  146.8936  143.5053  153.0385 H   0  0  0  0  0  0  0  0  0  0  0  0
  146.3012  143.5810  154.6926 H   0  0  0  0  0  0  0  0  0  0  0  0
  148.0715  139.7177  154.8839 H   0  0  0  0  0  0  0  0  0  0  0  0
  149.1733  139.6961  153.5206 H   0  0  0  0  0  0  0  0  0  0  0  0
  153.0536  139.8167  158.2046 H   0  0  0  0  0  0  0  0  0  0  0  0
  154.0481  140.4456  160.2359 H   0  0  0  0  0  0  0  0  0  0  0  0
  153.1319  141.5532  161.2521 H   0  0  0  0  0  0  0  0  0  0  0  0
  154.4824  142.1534  160.2774 H   0  0  0  0  0  0  0  0  0  0  0  0
  147.6568  141.6806  154.3177 H   0  0  0  0  0  0  0  0  0  0  0  0
  148.8150  137.3457  153.3317 H   0  0  0  0  0  0  0  0  0  0  0  0
  149.5450  142.9683  155.5686 H   0  0  0  0  0  0  0  0  0  0  0  0
  1  2  1  0  0  0  0
  1 26  1  0  0  0  0
  1 27  1  0  0  0  0
  1 28  1  0  0  0  0
  2 24  1  0  0  0  0
  2  3  2  0  0  0  0
  3  4  1  0  0  0  0
  3 29  1  0  0  0  0
  4 22  2  0  0  0  0
  4  5  1  0  0  0  0
  5  6  2  0  0  0  0
  5 58  1  0  0  0  0
  6  7  1  0  0  0  0
  6 30  1  0  0  0  0
  7  8  1  0  0  0  0
  7 22  1  0  0  0  0
  8  9  1  0  0  0  0
  8 31  1  0  0  0  0
  8 32  1  0  0  0  0
  9 10  1  0  0  0  0
  9 11  1  0  0  0  0
  9 33  1  0  0  0  0
 10 34  1  0  0  0  0
 11 12  1  0  0  0  0
 11 35  1  0  0  0  0
 11 36  1  0  0  0  0
 12 21  1  0  0  0  0
 12 13  1  0  0  0  0
 12 57  1  0  0  0  0
 13 14  1  0  0  0  0
 13 37  1  0  0  0  0
 13 38  1  0  0  0  0
 14 15  1  0  0  0  0
 14 39  1  0  0  0  0
 14 40  1  0  0  0  0
 15 16  1  0  0  0  0
 16 17  1  0  0  0  0
 16 21  1  0  0  0  0
 16 41  1  0  0  0  0
 17 18  1  0  0  0  0
 17 42  1  0  0  0  0
 17 43  1  0  0  0  0
 18 19  1  0  0  0  0
 18 20  1  0  0  0  0
 18 56  1  0  0  0  0
 19 44  1  0  0  0  0
 19 45  1  0  0  0  0
 19 46  1  0  0  0  0
 20 47  1  0  0  0  0
 20 48  1  0  0  0  0
 20 49  1  0  0  0  0
 21 50  1  0  0  0  0
 21 51  1  0  0  0  0
 22 23  1  0  0  0  0
 23 24  2  0  0  0  0
 23 52  1  0  0  0  0
 24 25  1  0  0  0  0
 25 53  1  0  0  0  0
 25 54  1  0  0  0  0
 25 55  1  0  0  0  0
M  CHG  1   5   1
M  CHG  1  12   1
M  CHG  1  18   1
M  END
> <s_m_source_file>
AV-unprocessed.smi

> <i_m_source_file_index>
1005

> <i_lp_mmshare_version>
43012

> <i_f3d_flags>
0

> <s_epik_input>
W0NIM11jKFtjSF0xKWMoW0NIM10pW2NIXWMoYzEyKW4oW2NIXW4yKVtDSDJdW0NASF0oW09IXSlbQ0gyXU4zW0NIMl1bQ0gyXU9bQ0BIXShbQ0gyXTMpW0NIMl1OKFtDSDNdKVtDSDNd

> <s_epik_cmdline>
J2VwaWtfcHl0aG9uJywgJy1waCcsICc3LjAnLCAnLXRuJywgJzgnLCAnLW1hJywgJzIwMCcsICctbWV0YWxfYmluZGluZycsICctaW1hZScsICc8aW5maWxlLm1hZT4nLCAnLW9tYWUnLCAnPG91dGZpbGUubWFlPic=

> <r_epik_Ionization_Penalty>
2.30802

> <r_epik_Ionization_Penalty_Charging>
2.30798

> <r_epik_Ionization_Penalty_Neutral>
3.4851e-05

> <r_epik_State_Penalty>
2.52618

> <r_epik_Charging_Adjusted_Penalty>
4.83416

> <i_epik_Tot_Q>
3

> <i_epik_Tot_abs_Q>
3

> <r_epik_Metal_State_Penalty>
6.53149

> <b_epik_Metal_Only>
0

> <s_lp_Force_Field>
OPLS_2005

> <r_lp_Energy>
42.4596

> <b_lp_Chiralities_Consistent>
1

> <s_lp_Variant>
AV-unprocessed.smi:1005-18

> <Gold.Version>
5.8.1

> <Gold.Id.Protein>
6NUR|6NUR_protein|mol2

> <Gold.PLP.Fitness>
62.6266

> <Gold.PLP.PLP>
-46.7880

> <Gold.PLP.part.hbond>
-4.0000

> <Gold.PLP.part.metal>
0.0000

> <Gold.PLP.part.buried>
-4.2068

> <Gold.PLP.part.nonpolar>
-39.6002

> <Gold.PLP.part.repulsive>
0.3720

> <Gold.PLP.ligand.clash>
0.0000

> <Gold.PLP.ligand.torsion>
1.1494

> <Gold.PLP.Chemscore.Hbond>
5.9760

> <Gold.PLP.Chemscore.CHOScore>
0.0000

> <Gold.PLP.Chemscore.Metal>
0.0000

> <Gold.Chemscore.Hbonds>
donor molecule, donor type, donor heavy atom, donor atom, acceptor molecule, acceptor atom, score
      L1  H     5    58       P1  8028  2.00
      L1  H    10    34       P1  7949  1.00
      L1  H    12    57       P1  7948  2.00
      P1  H 10752 10764       L1    10  0.89

> <Gold.PLP.Chemscore.Internal.Correction>
0.2094

> <Gold.Rescore>
     Score         DG    S(hbond)    S(metal)    S(lipo)     H(rot)  DE(clash)    DE(int)     intcor
     21.87     -24.77       3.33        0.00     125.83       2.56       0.42       2.48       ----

> <Gold.Chemscore.Fitness>
21.8666

> <Gold.Chemscore.DG>
-24.7682

> <Gold.Chemscore.ZeroCoef>
-5.4800

> <Gold.Chemscore.Hbond>
3.3267

> <Gold.Chemscore.Metal>
0.0000

> <Gold.Chemscore.Lipo>
125.8287

> <Gold.Chemscore.Internal_Hbond>
0.0000

> <Gold.Chemscore.DEClash>
0.4216

> <Gold.Chemscore.DEInternal>
2.4800

> <Gold.Chemscore.Rot>
2.5566

> <Gold.Chemscore.Internal.Correction>
   9.000000E+99

> <Gold.Chemscore.Hbonds>
donor molecule, donor type, donor heavy atom, donor atom, acceptor molecule, acceptor atom, score
      L1  H     5    58       P1  8028  0.96
      L1  H    10    34       P1  7949  0.88
      L1  H    12    57       P1  7948  1.00
      P1  H 10752 10764       L1    10  0.17

> <Gold.Chemscore.Hbond.Weighted>
-11.1112

> <Gold.Chemscore.Metal.Weighted>
-0.0000

> <Gold.Chemscore.Lipo.Weighted>
-14.7220

> <Gold.Chemscore.Internal_Hbond.Weighted>
0.0000

> <Gold.Chemscore.DEClash.Weighted>
0.4216

> <Gold.Chemscore.DEInternal.Weighted>
2.4800

> <Gold.Chemscore.Rot.Weighted>
6.5450

> <Gold.Chemscore.Internal.Correction.Weighted>
   9.000000E+99

> <Gold.Protein.RotatedTorsions>
[ 6907 6896 6895 6894 ] final  172.02 input  -60.11 | X-H torsion
[ 7974 7965 7964 7962 ] final   -2.66 input  175.53 | X-H torsion
[ 8008 7997 7996 7995 ] final   59.51 input   59.86 | X-H torsion
[ 10167 10162 10161 10158 ] final  162.67 input  -65.29 | X-H torsion
[ 10718 10713 10712 10709 ] final  -18.91 input   66.30 | X-H torsion
[ 10763 10752 10751 10750 ] final  -75.52 input  -60.55 | X-H torsion
[ 11005 11000 10999 10996 ] final  144.51 input  -57.11 | X-H torsion

> <Gold.Protein.ActiveResidues>
 VAL166  LYS551  ARG553  GLY616  TRP617  ASP618  TYR619  PRO620  LYS621  CYS622 
 ASP623  PHE694  ASN695  SER759  ASP760  ASP761  ALA762  ILE779  LEU786  VAL792 
 PHE793  MET794  SER795  GLU796  ALA797  LYS798  CYS799  TRP800  GLU811  SER814 

> <Gold.Protein.RotatedAtoms>
  151.7909  133.3359  159.3498 H   0  0  0  0  0  0  0  0  0  0  0  0  # atno 6907 bound_to 6896
  150.7392  134.5843  159.5964 H   0  0  0  0  0  0  0  0  0  0  0  0  # atno 6908 bound_to 6896
  152.3211  134.7381  160.0365 H   0  0  0  0  0  0  0  0  0  0  0  0  # atno 6909 bound_to 6896
  146.2401  140.1605  142.8333 H   0  0  0  0  0  0  0  0  0  0  0  0  # atno 7974 bound_to 7965
  155.5673  140.3489  155.4506 H   0  0  0  0  0  0  0  0  0  0  0  0  # atno 8008 bound_to 7997
  156.0470  140.1309  157.0118 H   0  0  0  0  0  0  0  0  0  0  0  0  # atno 8009 bound_to 7997
  154.4417  140.1012  156.6306 H   0  0  0  0  0  0  0  0  0  0  0  0  # atno 8010 bound_to 7997
  139.4863  144.4414  151.8947 H   0  0  0  0  0  0  0  0  0  0  0  0  # atno 10167 bound_to 10162
  156.5530  130.4706  149.6443 H   0  0  0  0  0  0  0  0  0  0  0  0  # atno 10718 bound_to 10713
  154.4877  135.5828  153.6436 H   0  0  0  0  0  0  0  0  0  0  0  0  # atno 10763 bound_to 10752
  152.9857  135.6105  154.3165 H   0  0  0  0  0  0  0  0  0  0  0  0  # atno 10764 bound_to 10752
  154.3062  135.2846  155.2567 H   0  0  0  0  0  0  0  0  0  0  0  0  # atno 10765 bound_to 10752
  140.0638  134.9190  157.1230 H   0  0  0  0  0  0  0  0  0  0  0  0  # atno 11005 bound_to 11000
  145.0093  140.8700  143.5234 LP  0  0  0  0  0  0  0  0  0  0  0  0  # atno 17320 bound_to 7965
  145.1636  139.2444  143.5378 LP  0  0  0  0  0  0  0  0  0  0  0  0  # atno 17321 bound_to 7965
  140.3866  144.2669  150.5903 LP  0  0  0  0  0  0  0  0  0  0  0  0  # atno 17342 bound_to 10162
  140.5184  143.2272  151.8426 LP  0  0  0  0  0  0  0  0  0  0  0  0  # atno 17343 bound_to 10162
  156.2867  130.7101  151.1940 LP  0  0  0  0  0  0  0  0  0  0  0  0  # atno 17370 bound_to 10713
  157.7384  131.0541  150.5299 LP  0  0  0  0  0  0  0  0  0  0  0  0  # atno 17371 bound_to 10713
  140.3729  134.2370  155.7176 LP  0  0  0  0  0  0  0  0  0  0  0  0  # atno 17394 bound_to 11000
  141.1984  133.8035  157.0583 LP  0  0  0  0  0  0  0  0  0  0  0  0  # atno 17395 bound_to 11000

$$$$
