AV-unprocessed.smi:1586|AV-procd|sdf|6384|dock10
  -GOLD-   22720 7 23D 1   1.00000     0.00000
 Structure written by MMmdl.
 46 47  0  0  0  0  0  0  0  0  3 V2000
  143.8163  132.4526  149.8226 C   0  0  0  0  0  0  0  0  0  0  0  0
  144.0663  133.5990  150.8128 C   0  0  0  0  0  0  0  0  0  0  0  0
  145.2984  134.3291  150.5058 N   0  0  0  0  0  0  0  0  0  0  0  0
  145.3780  135.6776  151.0801 C   0  0  0  0  0  0  0  0  0  0  0  0
  145.5489  135.6539  152.6143 C   0  0  0  0  0  0  0  0  0  0  0  0
  146.7557  134.8744  152.9782 N   0  3  0  0  0  0  0  0  0  0  0  0
  147.1332  134.9619  154.4191 C   0  0  1  0  0  0  0  0  0  0  0  0
  146.0743  134.3663  155.3669 C   0  0  0  0  0  0  0  0  0  0  0  0
  148.5358  134.3676  154.6774 C   0  0  0  0  0  0  0  0  0  0  0  0
  149.5970  135.3329  154.3957 N   0  0  0  0  0  0  0  0  0  0  0  0
  150.6977  135.5450  155.1320 C   0  0  0  0  0  0  0  0  0  0  0  0
  150.8580  134.9342  156.1905 O   0  0  0  0  0  0  0  0  0  0  0  0
  151.5560  136.4313  154.5809 N   0  5  0  0  0  0  0  0  0  0  0  0
  151.2667  137.7417  154.5864 C   0  0  0  0  0  0  0  0  0  0  0  0
  149.9760  138.3116  154.4106 C   0  0  0  0  0  0  0  0  0  0  0  0
  150.2119  139.6534  154.5091 C   0  0  0  0  0  0  0  0  0  0  0  0
  149.3256  140.8482  154.4185 C   0  0  0  0  0  0  0  0  0  0  0  0
  151.5332  139.8850  154.7332 O   0  0  0  0  0  0  0  0  0  0  0  0
  152.2006  138.6555  154.7879 N   0  0  0  0  0  0  0  0  0  0  0  0
  146.6785  133.5043  152.4119 C   0  0  0  0  0  0  0  0  0  0  0  0
  146.5010  133.5792  150.8811 C   0  0  0  0  0  0  0  0  0  0  0  0
  142.9730  131.8444  150.1506 H   0  0  0  0  0  0  0  0  0  0  0  0
  144.6846  131.7971  149.7474 H   0  0  0  0  0  0  0  0  0  0  0  0
  143.5788  132.8179  148.8238 H   0  0  0  0  0  0  0  0  0  0  0  0
  143.2025  134.2619  150.8473 H   0  0  0  0  0  0  0  0  0  0  0  0
  144.1628  133.1655  151.8091 H   0  0  0  0  0  0  0  0  0  0  0  0
  146.2322  136.1882  150.6328 H   0  0  0  0  0  0  0  0  0  0  0  0
  144.5031  136.2651  150.8043 H   0  0  0  0  0  0  0  0  0  0  0  0
  145.6578  136.6793  152.9694 H   0  0  0  0  0  0  0  0  0  0  0  0
  144.6666  135.2449  153.1067 H   0  0  0  0  0  0  0  0  0  0  0  0
  147.2129  136.0231  154.6607 H   0  0  0  0  0  0  0  0  0  0  0  0
  146.3337  134.5666  156.4067 H   0  0  0  0  0  0  0  0  0  0  0  0
  145.9939  133.2843  155.2596 H   0  0  0  0  0  0  0  0  0  0  0  0
  145.0890  134.7981  155.1902 H   0  0  0  0  0  0  0  0  0  0  0  0
  148.6231  134.0805  155.7256 H   0  0  0  0  0  0  0  0  0  0  0  0
  148.6840  133.4507  154.1051 H   0  0  0  0  0  0  0  0  0  0  0  0
  149.5055  135.8709  153.5458 H   0  0  0  0  0  0  0  0  0  0  0  0
  149.0322  137.8168  154.2369 H   0  0  0  0  0  0  0  0  0  0  0  0
  148.2994  140.5911  154.6817 H   0  0  0  0  0  0  0  0  0  0  0  0
  149.3249  141.2511  153.4057 H   0  0  0  0  0  0  0  0  0  0  0  0
  149.6603  141.6342  155.0959 H   0  0  0  0  0  0  0  0  0  0  0  0
  147.5932  132.9575  152.6394 H   0  0  0  0  0  0  0  0  0  0  0  0
  145.8603  132.9438  152.8643 H   0  0  0  0  0  0  0  0  0  0  0  0
  146.4601  132.5769  150.4533 H   0  0  0  0  0  0  0  0  0  0  0  0
  147.3702  134.0663  150.4365 H   0  0  0  0  0  0  0  0  0  0  0  0
  147.5154  135.3273  152.4885 H   0  0  0  0  0  0  0  0  0  0  0  0
  1  2  1  0  0  0  0
  1 22  1  0  0  0  0
  1 23  1  0  0  0  0
  1 24  1  0  0  0  0
  2  3  1  0  0  0  0
  2 25  1  0  0  0  0
  2 26  1  0  0  0  0
  3 21  1  0  0  0  0
  3  4  1  0  0  0  0
  4  5  1  0  0  0  0
  4 27  1  0  0  0  0
  4 28  1  0  0  0  0
  5  6  1  0  0  0  0
  5 29  1  0  0  0  0
  5 30  1  0  0  0  0
  6  7  1  0  0  0  0
  6 20  1  0  0  0  0
  6 46  1  0  0  0  0
  7  8  1  0  0  0  0
  7  9  1  0  0  0  0
  7 31  1  0  0  0  0
  8 32  1  0  0  0  0
  8 33  1  0  0  0  0
  8 34  1  0  0  0  0
  9 10  1  0  0  0  0
  9 35  1  0  0  0  0
  9 36  1  0  0  0  0
 10 11  1  0  0  0  0
 10 37  1  0  0  0  0
 11 12  2  0  0  0  0
 11 13  1  0  0  0  0
 13 14  1  0  0  0  0
 14 19  2  0  0  0  0
 14 15  1  0  0  0  0
 15 16  2  0  0  0  0
 15 38  1  0  0  0  0
 16 17  1  0  0  0  0
 16 18  1  0  0  0  0
 17 39  1  0  0  0  0
 17 40  1  0  0  0  0
 17 41  1  0  0  0  0
 18 19  1  0  0  0  0
 20 21  1  0  0  0  0
 20 42  1  0  0  0  0
 20 43  1  0  0  0  0
 21 44  1  0  0  0  0
 21 45  1  0  0  0  0
M  CHG  1   6   1
M  CHG  1  13  -1
M  END
> <s_m_source_file>
AV-unprocessed.smi

> <i_m_source_file_index>
1586

> <i_lp_mmshare_version>
43012

> <i_f3d_flags>
0

> <s_epik_input>
W0NIM11bQ0gyXU4xW0NIMl1bQ0gyXU4oW0NIMl1bQ0gyXTEpW0NASF0oW0NIM10pW0NIMl1bTkhdQyg9TylbTkhdYzJbY0hdYyhbQ0gzXSlvbjI=

> <s_epik_cmdline>
J2VwaWtfcHl0aG9uJywgJy1waCcsICc3LjAnLCAnLXRuJywgJzgnLCAnLW1hJywgJzIwMCcsICctbWV0YWxfYmluZGluZycsICctaW1hZScsICc8aW5maWxlLm1hZT4nLCAnLW9tYWUnLCAnPG91dGZpbGUubWFlPic=

> <r_epik_Ionization_Penalty>
6.35599

> <r_epik_Ionization_Penalty_Charging>
6.35441

> <r_epik_Ionization_Penalty_Neutral>
0.00158318

> <r_epik_State_Penalty>
7.1902

> <r_epik_Charging_Adjusted_Penalty>
13.5446

> <i_epik_Tot_Q>
0

> <i_epik_Tot_abs_Q>
2

> <r_epik_Metal_State_Penalty>
3.12491

> <b_epik_Metal_Only>
1

> <s_lp_Force_Field>
OPLS_2005

> <r_lp_Energy>
11.5798

> <b_lp_Chiralities_Consistent>
1

> <s_lp_Variant>
AV-unprocessed.smi:1586-12

> <Gold.Version>
5.8.1

> <Gold.Id.Protein>
6NUR|6NUR_protein|mol2

> <Gold.PLP.Fitness>
51.7686

> <Gold.PLP.PLP>
-36.7945

> <Gold.PLP.part.hbond>
-4.0110

> <Gold.PLP.part.metal>
0.0000

> <Gold.PLP.part.buried>
-6.6082

> <Gold.PLP.part.nonpolar>
-26.8383

> <Gold.PLP.part.repulsive>
1.2449

> <Gold.PLP.ligand.clash>
0.0000

> <Gold.PLP.ligand.torsion>
1.6075

> <Gold.PLP.Chemscore.Hbond>
6.0000

> <Gold.PLP.Chemscore.CHOScore>
0.0000

> <Gold.PLP.Chemscore.Metal>
0.0000

> <Gold.Chemscore.Hbonds>
donor molecule, donor type, donor heavy atom, donor atom, acceptor molecule, acceptor atom, score
      L1  H     6    46       P1  7948  2.00
      L1  H    10    37       P1  7948  1.00
      P1  H  7989  7998       L1    18  0.65
      P1  H 10752 10764       L1    13  2.00

> <Gold.PLP.Chemscore.Internal.Correction>
0.1891

> <Gold.Rescore>
     Score         DG    S(hbond)    S(metal)    S(lipo)     H(rot)  DE(clash)    DE(int)     intcor
     17.26     -18.73       3.15        0.00      61.01       1.73       0.02       1.44       ----

> <Gold.Chemscore.Fitness>
17.2645

> <Gold.Chemscore.DG>
-18.7253

> <Gold.Chemscore.ZeroCoef>
-5.4800

> <Gold.Chemscore.Hbond>
3.1508

> <Gold.Chemscore.Metal>
0.0000

> <Gold.Chemscore.Lipo>
61.0063

> <Gold.Chemscore.Internal_Hbond>
0.0000

> <Gold.Chemscore.DEClash>
0.0234

> <Gold.Chemscore.DEInternal>
1.4374

> <Gold.Chemscore.Rot>
1.7250

> <Gold.Chemscore.Internal.Correction>
   9.000000E+99

> <Gold.Chemscore.Hbonds>
donor molecule, donor type, donor heavy atom, donor atom, acceptor molecule, acceptor atom, score
      L1  H     6    46       P1  7948  1.00
      L1  H    10    37       P1  7948  0.34
      P1  H  7989  7998       L1    18  0.05
      P1  H 10752 10764       L1    13  0.65

> <Gold.Chemscore.Hbond.Weighted>
-10.5237

> <Gold.Chemscore.Metal.Weighted>
-0.0000

> <Gold.Chemscore.Lipo.Weighted>
-7.1377

> <Gold.Chemscore.Internal_Hbond.Weighted>
0.0000

> <Gold.Chemscore.DEClash.Weighted>
0.0234

> <Gold.Chemscore.DEInternal.Weighted>
1.4374

> <Gold.Chemscore.Rot.Weighted>
4.4161

> <Gold.Chemscore.Internal.Correction.Weighted>
   9.000000E+99

> <Gold.Protein.RotatedTorsions>
[ 6907 6896 6895 6894 ] final -137.68 input  -60.11 | X-H torsion
[ 7974 7965 7964 7962 ] final -111.96 input  175.53 | X-H torsion
[ 8008 7997 7996 7995 ] final   33.62 input   59.86 | X-H torsion
[ 10167 10162 10161 10158 ] final   50.36 input  -65.29 | X-H torsion
[ 10718 10713 10712 10709 ] final  -30.28 input   66.30 | X-H torsion
[ 10763 10752 10751 10750 ] final  -81.16 input  -60.55 | X-H torsion
[ 11005 11000 10999 10996 ] final   -5.22 input  -57.11 | X-H torsion

> <Gold.Protein.ActiveResidues>
 VAL166  LYS551  ARG553  GLY616  TRP617  ASP618  TYR619  PRO620  LYS621  CYS622 
 ASP623  PHE694  ASN695  SER759  ASP760  ASP761  ALA762  ILE779  LEU786  VAL792 
 PHE793  MET794  SER795  GLU796  ALA797  LYS798  CYS799  TRP800  GLU811  SER814 

> <Gold.Protein.RotatedAtoms>
  151.0255  133.5838  159.2666 H   0  0  0  0  0  0  0  0  0  0  0  0  # atno 6907 bound_to 6896
  151.2939  135.0749  159.9224 H   0  0  0  0  0  0  0  0  0  0  0  0  # atno 6908 bound_to 6896
  152.5333  133.9948  159.7922 H   0  0  0  0  0  0  0  0  0  0  0  0  # atno 6909 bound_to 6896
  145.1497  140.8822  143.3653 H   0  0  0  0  0  0  0  0  0  0  0  0  # atno 7974 bound_to 7965
  155.1415  140.3266  155.4451 H   0  0  0  0  0  0  0  0  0  0  0  0  # atno 8008 bound_to 7997
  156.2603  140.1993  156.6480 H   0  0  0  0  0  0  0  0  0  0  0  0  # atno 8009 bound_to 7997
  154.6539  140.0555  156.9973 H   0  0  0  0  0  0  0  0  0  0  0  0  # atno 8010 bound_to 7997
  140.2732  144.3241  150.6284 H   0  0  0  0  0  0  0  0  0  0  0  0  # atno 10167 bound_to 10162
  156.4018  130.4391  149.7317 H   0  0  0  0  0  0  0  0  0  0  0  0  # atno 10718 bound_to 10713
  154.5602  135.5636  153.7000 H   0  0  0  0  0  0  0  0  0  0  0  0  # atno 10763 bound_to 10752
  153.0015  135.6272  154.2255 H   0  0  0  0  0  0  0  0  0  0  0  0  # atno 10764 bound_to 10752
  154.2193  135.2870  155.2910 H   0  0  0  0  0  0  0  0  0  0  0  0  # atno 10765 bound_to 10752
  140.6887  133.9090  155.8603 H   0  0  0  0  0  0  0  0  0  0  0  0  # atno 11005 bound_to 11000
  145.0444  139.3233  143.5960 LP  0  0  0  0  0  0  0  0  0  0  0  0  # atno 17320 bound_to 7965
  146.3496  139.9829  142.8694 LP  0  0  0  0  0  0  0  0  0  0  0  0  # atno 17321 bound_to 7965
  140.5872  143.2169  151.7320 LP  0  0  0  0  0  0  0  0  0  0  0  0  # atno 17342 bound_to 10162
  139.4983  144.3993  152.0198 LP  0  0  0  0  0  0  0  0  0  0  0  0  # atno 17343 bound_to 10162
  156.4330  130.7824  151.2844 LP  0  0  0  0  0  0  0  0  0  0  0  0  # atno 17370 bound_to 10713
  157.7504  131.0148  150.3479 LP  0  0  0  0  0  0  0  0  0  0  0  0  # atno 17371 bound_to 10713
  141.0259  134.0824  157.4069 LP  0  0  0  0  0  0  0  0  0  0  0  0  # atno 17394 bound_to 11000
  139.8930  135.0128  156.6874 LP  0  0  0  0  0  0  0  0  0  0  0  0  # atno 17395 bound_to 11000

$$$$
