AV-unprocessed.smi:266|AV-procd|sdf|2035|dock9
  -GOLD-   2262021243D 1   1.00000     0.00000
 Structure written by MMmdl.
 52 55  0  0  0  0  0  0  0  0  1 V2000
  145.6478  130.3150  151.7266 C   0  0  0  0  0  0  0  0  0  0  0  0
  144.5896  131.4266  151.6489 C   0  0  2  0  0  0  0  0  0  0  0  0
  143.9742  131.3517  150.3657 O   0  0  0  0  0  0  0  0  0  0  0  0
  143.5537  132.6497  149.9853 C   0  0  0  0  0  0  0  0  0  0  0  0
  144.7133  133.5167  150.4507 C   0  0  0  0  0  0  0  0  0  0  0  0
  145.0968  132.8903  151.7891 C   0  0  1  0  0  0  0  0  0  0  0  0
  144.3222  133.5168  152.7986 O   0  0  0  0  0  0  0  0  0  0  0  0
  146.5943  133.0699  152.1535 C   0  0  0  0  0  0  0  0  0  0  0  0
  146.8144  133.4113  153.5509 N   0  0  0  0  0  0  0  0  0  0  0  0
  147.2012  134.6347  154.0488 C   0  0  0  0  0  0  0  0  0  0  0  0
  147.3338  134.6903  155.3454 N   0  0  0  0  0  0  0  0  0  0  0  0
  147.0028  133.4117  155.7795 C   0  0  0  0  0  0  0  0  0  0  0  0
  146.9307  132.7742  157.0528 C   0  0  0  0  0  0  0  0  0  0  0  0
  147.1954  133.3639  158.2433 N   0  0  0  0  0  0  0  0  0  0  0  0
  147.7591  132.4296  159.2077 C   0  0  0  0  0  0  0  0  0  0  0  0
  147.7233  134.7282  158.2534 C   0  0  0  0  0  0  0  0  0  0  0  0
  147.0573  135.6499  159.2980 C   0  0  1  0  0  0  0  0  0  0  0  0
  146.9876  135.0180  160.7033 C   0  0  0  0  0  0  0  0  0  0  0  0
  146.5933  136.1046  161.7081 C   0  0  0  0  0  0  0  0  0  0  0  0
  147.3568  137.6490  161.0880 S   0  0  0  0  0  0  0  0  0  0  0  0
  146.3150  138.6787  160.9569 O   0  0  0  0  0  0  0  0  0  0  0  0
  148.5973  137.9169  161.8315 O   0  0  0  0  0  0  0  0  0  0  0  0
  147.7862  136.9954  159.4299 C   0  0  0  0  0  0  0  0  0  0  0  0
  146.5801  131.4638  157.0830 N   0  0  0  0  0  0  0  0  0  0  0  0
  146.2945  130.8177  155.9490 C   0  0  0  0  0  0  0  0  0  0  0  0
  146.3046  131.2829  154.6987 N   0  0  0  0  0  0  0  0  0  0  0  0
  146.6745  132.5950  154.6600 C   0  0  0  0  0  0  0  0  0  0  0  0
  146.1548  130.3133  152.6916 H   0  0  0  0  0  0  0  0  0  0  0  0
  146.3993  130.4222  150.9441 H   0  0  0  0  0  0  0  0  0  0  0  0
  145.1846  129.3362  151.6010 H   0  0  0  0  0  0  0  0  0  0  0  0
  143.8193  131.2188  152.3941 H   0  0  0  0  0  0  0  0  0  0  0  0
  143.3779  132.7183  148.9116 H   0  0  0  0  0  0  0  0  0  0  0  0
  142.6315  132.9093  150.5076 H   0  0  0  0  0  0  0  0  0  0  0  0
  145.5318  133.4104  149.7379 H   0  0  0  0  0  0  0  0  0  0  0  0
  144.4624  134.5765  150.5127 H   0  0  0  0  0  0  0  0  0  0  0  0
  143.8676  132.8472  153.2862 H   0  0  0  0  0  0  0  0  0  0  0  0
  147.1510  132.1570  151.9373 H   0  0  0  0  0  0  0  0  0  0  0  0
  147.0436  133.8561  151.5466 H   0  0  0  0  0  0  0  0  0  0  0  0
  147.3897  135.4889  153.4148 H   0  0  0  0  0  0  0  0  0  0  0  0
  147.0607  131.6193  159.4192 H   0  0  0  0  0  0  0  0  0  0  0  0
  147.9799  132.9316  160.1500 H   0  0  0  0  0  0  0  0  0  0  0  0
  148.6859  131.9964  158.8291 H   0  0  0  0  0  0  0  0  0  0  0  0
  148.7933  134.6791  158.4587 H   0  0  0  0  0  0  0  0  0  0  0  0
  147.6352  135.1586  157.2562 H   0  0  0  0  0  0  0  0  0  0  0  0
  146.0362  135.8803  158.9933 H   0  0  0  0  0  0  0  0  0  0  0  0
  146.2925  134.1783  160.7373 H   0  0  0  0  0  0  0  0  0  0  0  0
  147.9704  134.6284  160.9713 H   0  0  0  0  0  0  0  0  0  0  0  0
  145.5121  136.2440  161.7219 H   0  0  0  0  0  0  0  0  0  0  0  0
  146.9325  135.8938  162.7223 H   0  0  0  0  0  0  0  0  0  0  0  0
  148.8678  136.8628  159.3952 H   0  0  0  0  0  0  0  0  0  0  0  0
  147.4997  137.7099  158.6579 H   0  0  0  0  0  0  0  0  0  0  0  0
  146.0177  129.7796  156.0592 H   0  0  0  0  0  0  0  0  0  0  0  0
  1  2  1  0  0  0  0
  1 28  1  0  0  0  0
  1 29  1  0  0  0  0
  1 30  1  0  0  0  0
  2  6  1  0  0  0  0
  2  3  1  0  0  0  0
  2 31  1  0  0  0  0
  3  4  1  0  0  0  0
  4  5  1  0  0  0  0
  4 32  1  0  0  0  0
  4 33  1  0  0  0  0
  5  6  1  0  0  0  0
  5 34  1  0  0  0  0
  5 35  1  0  0  0  0
  6  7  1  0  0  0  0
  6  8  1  0  0  0  0
  7 36  1  0  0  0  0
  8  9  1  0  0  0  0
  8 37  1  0  0  0  0
  8 38  1  0  0  0  0
  9 27  1  0  0  0  0
  9 10  1  0  0  0  0
 10 11  2  0  0  0  0
 10 39  1  0  0  0  0
 11 12  1  0  0  0  0
 12 27  2  0  0  0  0
 12 13  1  0  0  0  0
 13 14  1  0  0  0  0
 13 24  2  0  0  0  0
 14 15  1  0  0  0  0
 14 16  1  0  0  0  0
 15 40  1  0  0  0  0
 15 41  1  0  0  0  0
 15 42  1  0  0  0  0
 16 17  1  0  0  0  0
 16 43  1  0  0  0  0
 16 44  1  0  0  0  0
 17 23  1  0  0  0  0
 17 18  1  0  0  0  0
 17 45  1  0  0  0  0
 18 19  1  0  0  0  0
 18 46  1  0  0  0  0
 18 47  1  0  0  0  0
 19 20  1  0  0  0  0
 19 48  1  0  0  0  0
 19 49  1  0  0  0  0
 20 21  2  0  0  0  0
 20 22  2  0  0  0  0
 20 23  1  0  0  0  0
 23 50  1  0  0  0  0
 23 51  1  0  0  0  0
 24 25  1  0  0  0  0
 25 26  2  0  0  0  0
 25 52  1  0  0  0  0
 26 27  1  0  0  0  0
M  END
> <s_m_source_file>
AV-unprocessed.smi

> <i_m_source_file_index>
266

> <i_lp_mmshare_version>
43012

> <i_f3d_flags>
0

> <s_epik_input>
W0NIMl0xW0NIMl1PW0NAQEhdKFtDSDNdKVtDQEBdMShbT0hdKVtDSDJdbihbY0hdbjIpYyhjMjMpbltjSF1uYzNOKFtDSDNdKVtDSDJdW0NAQEhdKFtDSDJdNClbQ0gyXVtDSDJdUzQoPU8pPU8=

> <s_epik_cmdline>
J2VwaWtfcHl0aG9uJywgJy1waCcsICc3LjAnLCAnLXRuJywgJzgnLCAnLW1hJywgJzIwMCcsICctbWV0YWxfYmluZGluZycsICctaW1hZScsICc8aW5maWxlLm1hZT4nLCAnLW9tYWUnLCAnPG91dGZpbGUubWFlPic=

> <r_lp_tautomer_probability>
1

> <r_epik_Ionization_Penalty>
0.00155497

> <r_epik_Ionization_Penalty_Charging>
0

> <r_epik_Ionization_Penalty_Neutral>
0.00155497

> <r_epik_State_Penalty>
-0

> <r_epik_Charging_Adjusted_Penalty>
0

> <i_epik_Tot_Q>
0

> <i_epik_Tot_abs_Q>
0

> <r_epik_Metal_State_Penalty>
-0

> <b_epik_Metal_Only>
0

> <s_lp_Force_Field>
OPLS_2005

> <r_lp_Energy>
31.7586

> <b_lp_Chiralities_Consistent>
1

> <s_lp_Variant>
AV-unprocessed.smi:266-5

> <Gold.Version>
5.8.1

> <Gold.Id.Protein>
6NUR|6NUR_protein|mol2

> <Gold.PLP.Fitness>
41.5309

> <Gold.PLP.PLP>
-32.2789

> <Gold.PLP.part.hbond>
-3.9156

> <Gold.PLP.part.metal>
0.0000

> <Gold.PLP.part.buried>
-4.0215

> <Gold.PLP.part.nonpolar>
-25.1081

> <Gold.PLP.part.repulsive>
0.3604

> <Gold.PLP.ligand.clash>
0.0000

> <Gold.PLP.ligand.torsion>
1.9442

> <Gold.PLP.Chemscore.Hbond>
3.3135

> <Gold.PLP.Chemscore.CHOScore>
0.8675

> <Gold.PLP.Chemscore.Metal>
0.0000

> <Gold.Chemscore.Hbonds>
donor molecule, donor type, donor heavy atom, donor atom, acceptor molecule, acceptor atom, score
      L1  H     7    36       P1 10957  0.59
      P1  H 10785 10796       L1     3  0.45
      L1  C    10    39       P1  7948  1.00

> <Gold.PLP.Chemscore.Internal.Correction>
0.5972

> <Gold.Rescore>
     Score         DG    S(hbond)    S(metal)    S(lipo)     H(rot)  DE(clash)    DE(int)     intcor
      8.80     -12.19       1.63        0.00      71.29       2.76       0.19       3.20       ----

> <Gold.Chemscore.Fitness>
8.8025

> <Gold.Chemscore.DG>
-12.1898

> <Gold.Chemscore.ZeroCoef>
-5.4800

> <Gold.Chemscore.Hbond>
1.6298

> <Gold.Chemscore.Metal>
0.0000

> <Gold.Chemscore.Lipo>
71.2943

> <Gold.Chemscore.Internal_Hbond>
0.0000

> <Gold.Chemscore.DEClash>
0.1889

> <Gold.Chemscore.DEInternal>
3.1983

> <Gold.Chemscore.Rot>
2.7637

> <Gold.Chemscore.Internal.Correction>
   9.000000E+99

> <Gold.Chemscore.Hbonds>
donor molecule, donor type, donor heavy atom, donor atom, acceptor molecule, acceptor atom, score
      L1  H     7    36       P1 10957  0.32
      P1  H 10785 10796       L1     3  0.18

> <Gold.Chemscore.Hbond.Weighted>
-5.4434

> <Gold.Chemscore.Metal.Weighted>
-0.0000

> <Gold.Chemscore.Lipo.Weighted>
-8.3414

> <Gold.Chemscore.Internal_Hbond.Weighted>
0.0000

> <Gold.Chemscore.DEClash.Weighted>
0.1889

> <Gold.Chemscore.DEInternal.Weighted>
3.1983

> <Gold.Chemscore.Rot.Weighted>
7.0750

> <Gold.Chemscore.Internal.Correction.Weighted>
   9.000000E+99

> <Gold.Protein.RotatedTorsions>
[ 6907 6896 6895 6894 ] final -117.13 input  -60.11 | X-H torsion
[ 7974 7965 7964 7962 ] final  170.66 input  175.53 | X-H torsion
[ 8008 7997 7996 7995 ] final  165.12 input   59.86 | X-H torsion
[ 10167 10162 10161 10158 ] final  155.48 input  -65.29 | X-H torsion
[ 10718 10713 10712 10709 ] final  -71.28 input   66.30 | X-H torsion
[ 10763 10752 10751 10750 ] final  -12.96 input  -60.55 | X-H torsion
[ 11005 11000 10999 10996 ] final   97.69 input  -57.11 | X-H torsion

> <Gold.Protein.ActiveResidues>
 VAL166  LYS551  ARG553  GLY616  TRP617  ASP618  TYR619  PRO620  LYS621  CYS622 
 ASP623  PHE694  ASN695  SER759  ASP760  ASP761  ALA762  ILE779  LEU786  VAL792 
 PHE793  MET794  SER795  GLU796  ALA797  LYS798  CYS799  TRP800  GLU811  SER814 

> <Gold.Protein.RotatedAtoms>
  150.8112  133.8419  159.3181 H   0  0  0  0  0  0  0  0  0  0  0  0  # atno 6907 bound_to 6896
  151.6204  135.1031  160.0110 H   0  0  0  0  0  0  0  0  0  0  0  0  # atno 6908 bound_to 6896
  152.4204  133.7066  159.6511 H   0  0  0  0  0  0  0  0  0  0  0  0  # atno 6909 bound_to 6896
  144.7317  139.9235  143.6421 H   0  0  0  0  0  0  0  0  0  0  0  0  # atno 7974 bound_to 7965
  156.1825  140.1678  156.8246 H   0  0  0  0  0  0  0  0  0  0  0  0  # atno 8008 bound_to 7997
  154.5377  140.0743  156.8488 H   0  0  0  0  0  0  0  0  0  0  0  0  # atno 8009 bound_to 7997
  155.3278  140.3377  155.4242 H   0  0  0  0  0  0  0  0  0  0  0  0  # atno 8010 bound_to 7997
  139.4821  144.5095  151.8047 H   0  0  0  0  0  0  0  0  0  0  0  0  # atno 10167 bound_to 10162
  156.0370  130.4348  150.2421 H   0  0  0  0  0  0  0  0  0  0  0  0  # atno 10718 bound_to 10713
  153.5063  135.7017  153.5805 H   0  0  0  0  0  0  0  0  0  0  0  0  # atno 10763 bound_to 10752
  153.3914  135.3895  155.1926 H   0  0  0  0  0  0  0  0  0  0  0  0  # atno 10764 bound_to 10752
  154.8707  135.3859  154.4538 H   0  0  0  0  0  0  0  0  0  0  0  0  # atno 10765 bound_to 10752
  139.8775  134.9013  156.4345 H   0  0  0  0  0  0  0  0  0  0  0  0  # atno 11005 bound_to 11000
  146.0911  139.3901  143.0405 LP  0  0  0  0  0  0  0  0  0  0  0  0  # atno 17320 bound_to 7965
  145.7709  140.9897  143.1150 LP  0  0  0  0  0  0  0  0  0  0  0  0  # atno 17321 bound_to 7965
  140.4596  144.1740  150.5905 LP  0  0  0  0  0  0  0  0  0  0  0  0  # atno 17342 bound_to 10162
  140.4498  143.2491  151.9362 LP  0  0  0  0  0  0  0  0  0  0  0  0  # atno 17343 bound_to 10162
  157.0520  131.0065  151.3250 LP  0  0  0  0  0  0  0  0  0  0  0  0  # atno 17370 bound_to 10713
  157.5134  130.7952  149.7729 LP  0  0  0  0  0  0  0  0  0  0  0  0  # atno 17371 bound_to 10713
  140.9043  133.7757  155.9717 LP  0  0  0  0  0  0  0  0  0  0  0  0  # atno 17394 bound_to 11000
  140.8617  134.2833  157.5231 LP  0  0  0  0  0  0  0  0  0  0  0  0  # atno 17395 bound_to 11000

$$$$
