AV-unprocessed.smi:3080|AV-procd|sdf|11738|dock5
  -GOLD-   2272017133D 1   1.00000     0.00000
 Structure written by MMmdl.
 27 28  0  0  0  0  0  0  0  0  2 V2000
  153.0553  142.8995  162.0101 C   0  0  0  0  0  0  0  0  0  0  0  0
  153.4919  141.9701  161.0464 C   0  0  0  0  0  0  0  0  0  0  0  0
  153.0596  142.1207  159.7143 C   0  0  0  0  0  0  0  0  0  0  0  0
  152.2068  143.2012  159.4031 C   0  0  0  0  0  0  0  0  0  0  0  0
  151.7034  143.4102  157.9876 C   0  0  0  0  0  0  0  0  0  0  0  0
  150.8303  142.2438  157.5050 C   0  0  0  0  0  0  0  0  0  0  0  0
  150.2765  142.5126  156.1647 N   0  3  0  0  0  0  0  0  0  0  0  0
  149.5786  141.3557  155.5721 C   0  0  0  0  0  0  0  0  0  0  0  0
  148.7208  141.7053  154.3807 C   0  0  0  0  0  0  0  0  0  0  0  0
  148.0792  141.4244  155.7238 C   0  0  0  0  0  0  0  0  0  0  0  0
  151.7823  144.0961  160.3232 N   0  0  0  0  0  0  0  0  0  0  0  0
  152.2028  143.9428  161.5978 C   0  0  0  0  0  0  0  0  0  0  0  0
  153.3666  142.8150  163.0410 H   0  0  0  0  0  0  0  0  0  0  0  0
  154.1455  141.1565  161.3240 H   0  0  0  0  0  0  0  0  0  0  0  0
  153.3766  141.4218  158.9540 H   0  0  0  0  0  0  0  0  0  0  0  0
  151.1379  144.3425  157.9496 H   0  0  0  0  0  0  0  0  0  0  0  0
  152.5557  143.5410  157.3193 H   0  0  0  0  0  0  0  0  0  0  0  0
  151.4186  141.3256  157.4711 H   0  0  0  0  0  0  0  0  0  0  0  0
  150.0084  142.0756  158.2024 H   0  0  0  0  0  0  0  0  0  0  0  0
  149.6221  143.2787  156.2370 H   0  0  0  0  0  0  0  0  0  0  0  0
  150.0874  140.3956  155.6394 H   0  0  0  0  0  0  0  0  0  0  0  0
  148.7227  142.7354  154.0291 H   0  0  0  0  0  0  0  0  0  0  0  0
  148.6064  140.9501  153.6057 H   0  0  0  0  0  0  0  0  0  0  0  0
  147.5409  140.4846  155.8303 H   0  0  0  0  0  0  0  0  0  0  0  0
  147.6515  142.2686  156.2619 H   0  0  0  0  0  0  0  0  0  0  0  0
  151.8482  144.6728  162.3104 H   0  0  0  0  0  0  0  0  0  0  0  0
  151.0293  142.7865  155.5496 H   0  0  0  0  0  0  0  0  0  0  0  0
  1 12  1  0  0  0  0
  1  2  2  0  0  0  0
  1 13  1  0  0  0  0
  2  3  1  0  0  0  0
  2 14  1  0  0  0  0
  3  4  2  0  0  0  0
  3 15  1  0  0  0  0
  4  5  1  0  0  0  0
  4 11  1  0  0  0  0
  5  6  1  0  0  0  0
  5 16  1  0  0  0  0
  5 17  1  0  0  0  0
  6  7  1  0  0  0  0
  6 18  1  0  0  0  0
  6 19  1  0  0  0  0
  7  8  1  0  0  0  0
  7 20  1  0  0  0  0
  7 27  1  0  0  0  0
  8 10  1  0  0  0  0
  8  9  1  0  0  0  0
  8 21  1  0  0  0  0
  9 10  1  0  0  0  0
  9 22  1  0  0  0  0
  9 23  1  0  0  0  0
 10 24  1  0  0  0  0
 10 25  1  0  0  0  0
 11 12  2  0  0  0  0
 12 26  1  0  0  0  0
M  CHG  1   7   1
M  END
> <s_m_source_file>
AV-unprocessed.smi

> <i_m_source_file_index>
3080

> <i_lp_mmshare_version>
43012

> <i_f3d_flags>
0

> <s_epik_input>
bjFbY0hdW2NIXVtjSF1bY0hdYzFbQ0gyXVtDSDJdW05IXVtDSF0yW0NIMl1bQ0gyXTI=

> <s_epik_cmdline>
J2VwaWtfcHl0aG9uJywgJy1waCcsICc3LjAnLCAnLXRuJywgJzgnLCAnLW1hJywgJzIwMCcsICctbWV0YWxfYmluZGluZycsICctaW1hZScsICc8aW5maWxlLm1hZT4nLCAnLW9tYWUnLCAnPG91dGZpbGUubWFlPic=

> <r_epik_Ionization_Penalty>
0.0260151

> <r_epik_Ionization_Penalty_Charging>
0.024724

> <r_epik_Ionization_Penalty_Neutral>
0.00129111

> <r_epik_State_Penalty>
0.0109584

> <r_epik_Charging_Adjusted_Penalty>
0.0356824

> <i_epik_Tot_Q>
1

> <i_epik_Tot_abs_Q>
1

> <r_epik_Metal_State_Penalty>
0.00998059

> <b_epik_Metal_Only>
0

> <s_lp_Force_Field>
OPLS_2005

> <r_lp_Energy>
12.7619

> <b_lp_Chiralities_Consistent>
1

> <s_lp_Variant>
AV-unprocessed.smi:3080-1

> <Gold.Version>
5.8.1

> <Gold.Id.Protein>
6NUR|6NUR_protein|mol2

> <Gold.PLP.Fitness>
40.0637

> <Gold.PLP.PLP>
-34.1456

> <Gold.PLP.part.hbond>
-1.0000

> <Gold.PLP.part.metal>
0.0000

> <Gold.PLP.part.buried>
-3.3461

> <Gold.PLP.part.nonpolar>
-29.3633

> <Gold.PLP.part.repulsive>
0.1923

> <Gold.PLP.ligand.clash>
0.0000

> <Gold.PLP.ligand.torsion>
0.3547

> <Gold.PLP.Chemscore.Hbond>
2.0000

> <Gold.PLP.Chemscore.CHOScore>
0.0000

> <Gold.PLP.Chemscore.Metal>
0.0000

> <Gold.Chemscore.Hbonds>
donor molecule, donor type, donor heavy atom, donor atom, acceptor molecule, acceptor atom, score
      L1  H     7    20       P1  8028  2.00

> <Gold.PLP.Chemscore.Internal.Correction>
0.6276

> <Gold.Rescore>
     Score         DG    S(hbond)    S(metal)    S(lipo)     H(rot)  DE(clash)    DE(int)     intcor
     16.17     -16.54       1.00        0.00      96.99       1.42       0.03       0.34       ----

> <Gold.Chemscore.Fitness>
16.1701

> <Gold.Chemscore.DG>
-16.5356

> <Gold.Chemscore.ZeroCoef>
-5.4800

> <Gold.Chemscore.Hbond>
0.9990

> <Gold.Chemscore.Metal>
0.0000

> <Gold.Chemscore.Lipo>
96.9894

> <Gold.Chemscore.Internal_Hbond>
0.0000

> <Gold.Chemscore.DEClash>
0.0276

> <Gold.Chemscore.DEInternal>
0.3379

> <Gold.Chemscore.Rot>
1.4175

> <Gold.Chemscore.Internal.Correction>
   9.000000E+99

> <Gold.Chemscore.Hbonds>
donor molecule, donor type, donor heavy atom, donor atom, acceptor molecule, acceptor atom, score
      L1  H     7    20       P1  8028  0.97

> <Gold.Chemscore.Hbond.Weighted>
-3.3367

> <Gold.Chemscore.Metal.Weighted>
-0.0000

> <Gold.Chemscore.Lipo.Weighted>
-11.3478

> <Gold.Chemscore.Internal_Hbond.Weighted>
0.0000

> <Gold.Chemscore.DEClash.Weighted>
0.0276

> <Gold.Chemscore.DEInternal.Weighted>
0.3379

> <Gold.Chemscore.Rot.Weighted>
3.6289

> <Gold.Chemscore.Internal.Correction.Weighted>
   9.000000E+99

> <Gold.Protein.RotatedTorsions>
[ 6907 6896 6895 6894 ] final -143.79 input  -60.11 | X-H torsion
[ 7974 7965 7964 7962 ] final  141.07 input  175.53 | X-H torsion
[ 8008 7997 7996 7995 ] final  137.90 input   59.86 | X-H torsion
[ 10167 10162 10161 10158 ] final   16.97 input  -65.29 | X-H torsion
[ 10718 10713 10712 10709 ] final -110.19 input   66.30 | X-H torsion
[ 10763 10752 10751 10750 ] final  -10.64 input  -60.55 | X-H torsion
[ 11005 11000 10999 10996 ] final   78.59 input  -57.11 | X-H torsion

> <Gold.Protein.ActiveResidues>
 VAL166  LYS551  ARG553  GLY616  TRP617  ASP618  TYR619  PRO620  LYS621  CYS622 
 ASP623  PHE694  ASN695  SER759  ASP760  ASP761  ALA762  ILE779  LEU786  VAL792 
 PHE793  MET794  SER795  GLU796  ALA797  LYS798  CYS799  TRP800  GLU811  SER814 

> <Gold.Protein.RotatedAtoms>
  151.1052  133.5213  159.2607 H   0  0  0  0  0  0  0  0  0  0  0  0  # atno 6907 bound_to 6896
  151.2029  135.0449  159.8889 H   0  0  0  0  0  0  0  0  0  0  0  0  # atno 6908 bound_to 6896
  152.5446  134.0878  159.8317 H   0  0  0  0  0  0  0  0  0  0  0  0  # atno 6909 bound_to 6896
  144.9129  139.5268  143.5700 H   0  0  0  0  0  0  0  0  0  0  0  0  # atno 7974 bound_to 7965
  156.3000  140.2407  156.3986 H   0  0  0  0  0  0  0  0  0  0  0  0  # atno 8008 bound_to 7997
  154.8548  140.0422  157.1647 H   0  0  0  0  0  0  0  0  0  0  0  0  # atno 8009 bound_to 7997
  154.8960  140.2970  155.5348 H   0  0  0  0  0  0  0  0  0  0  0  0  # atno 8010 bound_to 7997
  140.5759  143.9073  150.6750 H   0  0  0  0  0  0  0  0  0  0  0  0  # atno 10167 bound_to 10162
  156.0577  130.5803  150.8203 H   0  0  0  0  0  0  0  0  0  0  0  0  # atno 10718 bound_to 10713
  153.4721  135.7017  153.5987 H   0  0  0  0  0  0  0  0  0  0  0  0  # atno 10763 bound_to 10752
  153.4237  135.3819  155.2127 H   0  0  0  0  0  0  0  0  0  0  0  0  # atno 10764 bound_to 10752
  154.8725  135.3934  154.4160 H   0  0  0  0  0  0  0  0  0  0  0  0  # atno 10765 bound_to 10752
  139.9206  134.7775  156.1669 H   0  0  0  0  0  0  0  0  0  0  0  0  # atno 11005 bound_to 11000
  146.3167  139.7950  142.8977 LP  0  0  0  0  0  0  0  0  0  0  0  0  # atno 17320 bound_to 7965
  145.3424  141.0290  143.3385 LP  0  0  0  0  0  0  0  0  0  0  0  0  # atno 17321 bound_to 7965
  140.2560  143.3558  152.1364 LP  0  0  0  0  0  0  0  0  0  0  0  0  # atno 17342 bound_to 10162
  139.5143  144.6945  151.5668 LP  0  0  0  0  0  0  0  0  0  0  0  0  # atno 17343 bound_to 10162
  157.5561  131.0945  150.9626 LP  0  0  0  0  0  0  0  0  0  0  0  0  # atno 17370 bound_to 10713
  156.9874  130.5550  149.5300 LP  0  0  0  0  0  0  0  0  0  0  0  0  # atno 17371 bound_to 10713
  141.0724  133.6791  156.2167 LP  0  0  0  0  0  0  0  0  0  0  0  0  # atno 17394 bound_to 11000
  140.6485  134.5092  157.5575 LP  0  0  0  0  0  0  0  0  0  0  0  0  # atno 17395 bound_to 11000

$$$$
