AV-unprocessed.smi:1452|AV-procd|sdf|5906|dock2
  -GOLD-   22720 5593D 1   1.00000     0.00000
 Structure written by MMmdl.
 40 42  0  0  0  0  0  0  0  0  2 V2000
  145.7922  137.9483  154.6118 O   0  0  0  0  0  0  0  0  0  0  0  0
  146.6332  137.3675  153.9280 C   0  0  0  0  0  0  0  0  0  0  0  0
  147.8611  137.8918  153.7307 N   0  0  0  0  0  0  0  0  0  0  0  0
  148.4444  139.1052  154.2006 C   0  0  0  0  0  0  0  0  0  0  0  0
  149.8080  139.0037  154.5576 C   0  0  0  0  0  0  0  0  0  0  0  0
  150.4938  140.1449  155.0170 C   0  0  0  0  0  0  0  0  0  0  0  0
  149.7989  141.3641  155.1033 C   0  0  0  0  0  0  0  0  0  0  0  0
  148.4448  141.3828  154.7232 C   0  0  0  0  0  0  0  0  0  0  0  0
  147.7857  140.2898  154.2834 N   0  0  0  0  0  0  0  0  0  0  0  0
  146.3951  136.1860  153.3352 N   0  0  0  0  0  0  0  0  0  0  0  0
  145.1718  135.4038  153.4784 C   0  0  1  0  0  0  0  0  0  0  0  0
  143.9765  136.0162  152.7596 C   0  0  0  0  0  0  0  0  0  0  0  0
  143.0110  134.8339  152.6297 C   0  0  0  0  0  0  0  0  0  0  0  0
  143.8392  133.6030  152.6126 N   0  3  1  0  0  0  0  0  0  0  0  0
  143.6220  132.7460  151.4161 C   0  0  0  0  0  0  0  0  0  0  0  0
  144.7569  131.7234  151.2585 C   0  0  0  0  0  0  0  0  0  0  0  0
  146.1154  132.4173  151.0461 C   0  0  0  0  0  0  0  0  0  0  0  0
  146.1401  133.8507  151.6100 C   0  0  0  0  0  0  0  0  0  0  0  0
  145.2551  133.9892  152.8744 C   0  0  1  0  0  0  0  0  0  0  0  0
  148.4320  137.3861  153.0689 H   0  0  0  0  0  0  0  0  0  0  0  0
  150.3294  138.0603  154.4820 H   0  0  0  0  0  0  0  0  0  0  0  0
  151.5353  140.0851  155.2966 H   0  0  0  0  0  0  0  0  0  0  0  0
  150.2907  142.2610  155.4499 H   0  0  0  0  0  0  0  0  0  0  0  0
  147.8749  142.2988  154.7718 H   0  0  0  0  0  0  0  0  0  0  0  0
  147.1391  135.7781  152.7863 H   0  0  0  0  0  0  0  0  0  0  0  0
  144.9155  135.3225  154.5371 H   0  0  0  0  0  0  0  0  0  0  0  0
  143.5413  136.8585  153.2982 H   0  0  0  0  0  0  0  0  0  0  0  0
  144.2684  136.3656  151.7678 H   0  0  0  0  0  0  0  0  0  0  0  0
  142.3601  134.7856  153.5032 H   0  0  0  0  0  0  0  0  0  0  0  0
  142.3695  134.9338  151.7530 H   0  0  0  0  0  0  0  0  0  0  0  0
  142.6599  132.2417  151.5109 H   0  0  0  0  0  0  0  0  0  0  0  0
  143.5683  133.3618  150.5165 H   0  0  0  0  0  0  0  0  0  0  0  0
  144.8007  131.1018  152.1542 H   0  0  0  0  0  0  0  0  0  0  0  0
  144.5505  131.0468  150.4285 H   0  0  0  0  0  0  0  0  0  0  0  0
  146.8969  131.8176  151.5140 H   0  0  0  0  0  0  0  0  0  0  0  0
  146.3568  132.4521  149.9830 H   0  0  0  0  0  0  0  0  0  0  0  0
  147.1732  134.1309  151.8176 H   0  0  0  0  0  0  0  0  0  0  0  0
  145.7875  134.5451  150.8461 H   0  0  0  0  0  0  0  0  0  0  0  0
  145.6551  133.3100  153.6288 H   0  0  0  0  0  0  0  0  0  0  0  0
  143.5524  133.0584  153.4136 H   0  0  0  0  0  0  0  0  0  0  0  0
  1  2  2  0  0  0  0
  2  3  1  0  0  0  0
  2 10  1  0  0  0  0
  3  4  1  0  0  0  0
  3 20  1  0  0  0  0
  4  9  1  0  0  0  0
  4  5  2  0  0  0  0
  5  6  1  0  0  0  0
  5 21  1  0  0  0  0
  6  7  2  0  0  0  0
  6 22  1  0  0  0  0
  7  8  1  0  0  0  0
  7 23  1  0  0  0  0
  8  9  2  0  0  0  0
  8 24  1  0  0  0  0
 10 11  1  0  0  0  0
 10 25  1  0  0  0  0
 11 19  1  0  0  0  0
 11 12  1  0  0  0  0
 11 26  1  0  0  0  0
 12 13  1  0  0  0  0
 12 27  1  0  0  0  0
 12 28  1  0  0  0  0
 13 14  1  0  0  0  0
 13 29  1  0  0  0  0
 13 30  1  0  0  0  0
 14 19  1  0  0  0  0
 14 15  1  0  0  0  0
 14 40  1  0  0  0  0
 15 16  1  0  0  0  0
 15 31  1  0  0  0  0
 15 32  1  0  0  0  0
 16 17  1  0  0  0  0
 16 33  1  0  0  0  0
 16 34  1  0  0  0  0
 17 18  1  0  0  0  0
 17 35  1  0  0  0  0
 17 36  1  0  0  0  0
 18 19  1  0  0  0  0
 18 37  1  0  0  0  0
 18 38  1  0  0  0  0
 19 39  1  0  0  0  0
M  CHG  1  14   1
M  END
> <s_m_source_file>
AV-unprocessed.smi

> <i_m_source_file_index>
1452

> <i_lp_mmshare_version>
43012

> <i_f3d_flags>
0

> <s_epik_input>
W0NIMl0xW0NIMl1bQ0gyXVtDSDJdW0NASF0oTjEyKVtDQEBIXShbQ0gyXVtDSDJdMilbTkhdQyg9TylbTkhdYzNbY0hdW2NIXVtjSF1bY0hdbjM=

> <s_epik_cmdline>
J2VwaWtfcHl0aG9uJywgJy1waCcsICc3LjAnLCAnLXRuJywgJzgnLCAnLW1hJywgJzIwMCcsICctbWV0YWxfYmluZGluZycsICctaW1hZScsICc8aW5maWxlLm1hZT4nLCAnLW9tYWUnLCAnPG91dGZpbGUubWFlPic=

> <r_epik_Ionization_Penalty>
0.00100813

> <r_epik_Ionization_Penalty_Charging>
0.000974069

> <r_epik_Ionization_Penalty_Neutral>
3.40643e-05

> <r_epik_State_Penalty>
0.000633842

> <r_epik_Charging_Adjusted_Penalty>
0.00160791

> <i_epik_Tot_Q>
1

> <i_epik_Tot_abs_Q>
1

> <r_epik_Metal_State_Penalty>
-0

> <b_epik_Metal_Only>
0

> <s_lp_Force_Field>
OPLS_2005

> <r_lp_Energy>
45.06

> <b_lp_Chiralities_Consistent>
1

> <s_lp_Variant>
AV-unprocessed.smi:1452-4

> <Gold.Version>
5.8.1

> <Gold.Id.Protein>
6NUR|6NUR_protein|mol2

> <Gold.PLP.Fitness>
41.5461

> <Gold.PLP.PLP>
-30.3895

> <Gold.PLP.part.hbond>
-2.8720

> <Gold.PLP.part.metal>
0.0000

> <Gold.PLP.part.buried>
-3.7430

> <Gold.PLP.part.nonpolar>
-24.4990

> <Gold.PLP.part.repulsive>
0.2020

> <Gold.PLP.ligand.clash>
0.0000

> <Gold.PLP.ligand.torsion>
0.4010

> <Gold.PLP.Chemscore.Hbond>
3.5597

> <Gold.PLP.Chemscore.CHOScore>
0.4253

> <Gold.PLP.Chemscore.Metal>
0.0000

> <Gold.Chemscore.Hbonds>
donor molecule, donor type, donor heavy atom, donor atom, acceptor molecule, acceptor atom, score
      L1  H     3    20       P1  7948  1.00
      L1  H    10    25       P1  7948  0.77
      L1  H    14    40       P1 10957  1.79
      L1  C     8    24       P1  8028  0.42

> <Gold.PLP.Chemscore.Internal.Correction>
0.0035

> <Gold.Rescore>
     Score         DG    S(hbond)    S(metal)    S(lipo)     H(rot)  DE(clash)    DE(int)     intcor
     19.27     -19.77       2.63        0.00      68.91       1.00       0.04       0.46       ----

> <Gold.Chemscore.Fitness>
19.2701

> <Gold.Chemscore.DG>
-19.7714

> <Gold.Chemscore.ZeroCoef>
-5.4800

> <Gold.Chemscore.Hbond>
2.6314

> <Gold.Chemscore.Metal>
0.0000

> <Gold.Chemscore.Lipo>
68.9104

> <Gold.Chemscore.Internal_Hbond>
0.0000

> <Gold.Chemscore.DEClash>
0.0402

> <Gold.Chemscore.DEInternal>
0.4611

> <Gold.Chemscore.Rot>
1.0000

> <Gold.Chemscore.Internal.Correction>
   9.000000E+99

> <Gold.Chemscore.Hbonds>
donor molecule, donor type, donor heavy atom, donor atom, acceptor molecule, acceptor atom, score
      L1  H     3    20       P1  7948  1.00
      L1  H    10    25       P1  7948  0.73
      L1  H    14    40       P1 10957  0.73

> <Gold.Chemscore.Hbond.Weighted>
-8.7889

> <Gold.Chemscore.Metal.Weighted>
-0.0000

> <Gold.Chemscore.Lipo.Weighted>
-8.0625

> <Gold.Chemscore.Internal_Hbond.Weighted>
0.0000

> <Gold.Chemscore.DEClash.Weighted>
0.0402

> <Gold.Chemscore.DEInternal.Weighted>
0.4611

> <Gold.Chemscore.Rot.Weighted>
2.5600

> <Gold.Chemscore.Internal.Correction.Weighted>
   9.000000E+99

> <Gold.Protein.RotatedTorsions>
[ 6907 6896 6895 6894 ] final -174.80 input  -60.11 | X-H torsion
[ 7974 7965 7964 7962 ] final -108.84 input  175.53 | X-H torsion
[ 8008 7997 7996 7995 ] final  -10.49 input   59.86 | X-H torsion
[ 10167 10162 10161 10158 ] final  132.75 input  -65.29 | X-H torsion
[ 10718 10713 10712 10709 ] final  134.82 input   66.30 | X-H torsion
[ 10763 10752 10751 10750 ] final  168.35 input  -60.55 | X-H torsion
[ 11005 11000 10999 10996 ] final  -96.68 input  -57.11 | X-H torsion

> <Gold.Protein.ActiveResidues>
 VAL166  LYS551  ARG553  GLY616  TRP617  ASP618  TYR619  PRO620  LYS621  CYS622 
 ASP623  PHE694  ASN695  SER759  ASP760  ASP761  ALA762  ILE779  LEU786  VAL792 
 PHE793  MET794  SER795  GLU796  ALA797  LYS798  CYS799  TRP800  GLU811  SER814 

> <Gold.Protein.RotatedAtoms>
  151.5782  133.3381  159.3002 H   0  0  0  0  0  0  0  0  0  0  0  0  # atno 6907 bound_to 6896
  150.8328  134.7592  159.6879 H   0  0  0  0  0  0  0  0  0  0  0  0  # atno 6908 bound_to 6896
  152.4409  134.5598  159.9942 H   0  0  0  0  0  0  0  0  0  0  0  0  # atno 6909 bound_to 6896
  145.1879  140.9001  143.3442 H   0  0  0  0  0  0  0  0  0  0  0  0  # atno 7974 bound_to 7965
  154.5549  140.2327  155.8425 H   0  0  0  0  0  0  0  0  0  0  0  0  # atno 8008 bound_to 7997
  156.1980  140.3060  155.9427 H   0  0  0  0  0  0  0  0  0  0  0  0  # atno 8009 bound_to 7997
  155.2998  140.0430  157.3019 H   0  0  0  0  0  0  0  0  0  0  0  0  # atno 8010 bound_to 7997
  139.5326  144.6648  151.4896 H   0  0  0  0  0  0  0  0  0  0  0  0  # atno 10167 bound_to 10162
  157.4634  131.1075  150.9892 H   0  0  0  0  0  0  0  0  0  0  0  0  # atno 10718 bound_to 10713
  154.3673  135.2753  155.2286 H   0  0  0  0  0  0  0  0  0  0  0  0  # atno 10763 bound_to 10752
  154.4449  135.5945  153.6157 H   0  0  0  0  0  0  0  0  0  0  0  0  # atno 10764 bound_to 10752
  152.9840  135.6027  154.3900 H   0  0  0  0  0  0  0  0  0  0  0  0  # atno 10765 bound_to 10752
  141.1404  133.8115  157.0603 H   0  0  0  0  0  0  0  0  0  0  0  0  # atno 11005 bound_to 11000
  145.0070  139.3545  143.6139 LP  0  0  0  0  0  0  0  0  0  0  0  0  # atno 17320 bound_to 7965
  146.3441  139.9317  142.8752 LP  0  0  0  0  0  0  0  0  0  0  0  0  # atno 17321 bound_to 7965
  140.6514  143.8689  150.6789 LP  0  0  0  0  0  0  0  0  0  0  0  0  # atno 17342 bound_to 10162
  140.2055  143.3925  152.1759 LP  0  0  0  0  0  0  0  0  0  0  0  0  # atno 17343 bound_to 10162
  157.0682  130.5853  149.5397 LP  0  0  0  0  0  0  0  0  0  0  0  0  # atno 17370 bound_to 10713
  156.0039  130.5123  150.7761 LP  0  0  0  0  0  0  0  0  0  0  0  0  # atno 17371 bound_to 10713
  140.0575  134.9772  157.1247 LP  0  0  0  0  0  0  0  0  0  0  0  0  # atno 17394 bound_to 11000
  140.3897  134.2198  155.7167 LP  0  0  0  0  0  0  0  0  0  0  0  0  # atno 17395 bound_to 11000

$$$$
