AV-unprocessed.smi:3147|AV-procd|sdf|11988|dock10
  -GOLD-   2272017393D 1   1.00000     0.00000
 Structure written by MMmdl.
 37 38  0  0  0  0  0  0  0  0  2 V2000
  151.9932  145.3125  159.1198 C   0  0  0  0  0  0  0  0  0  0  0  0
  151.7094  143.9284  158.6399 C   0  0  0  0  0  0  0  0  0  0  0  0
  150.7978  143.6817  157.6473 N   0  3  0  0  0  0  0  0  0  0  0  0
  150.7224  142.3748  157.3930 C   0  0  0  0  0  0  0  0  0  0  0  0
  151.5825  141.7707  158.2198 N   0  0  0  0  0  0  0  0  0  0  0  0
  151.7720  140.3116  158.2070 C   0  0  0  0  0  0  0  0  0  0  0  0
  151.8918  139.7409  156.7888 C   0  0  0  0  0  0  0  0  0  0  0  0
  152.9889  139.4381  156.3172 O   0  0  0  0  0  0  0  0  0  0  0  0
  150.7405  139.6005  156.1156 N   0  0  0  0  0  0  0  0  0  0  0  0
  150.6231  139.0951  154.7524 C   0  0  0  0  0  0  0  0  0  0  0  0
  149.4244  139.7177  154.0167 C   0  0  1  0  0  0  0  0  0  0  0  0
  148.0742  139.3735  154.6400 C   0  0  0  0  0  0  0  0  0  0  0  0
  147.2094  140.5015  154.1256 C   0  0  0  0  0  0  0  0  0  0  0  0
  148.1711  141.6871  154.1652 C   0  0  0  0  0  0  0  0  0  0  0  0
  149.4847  141.1405  154.0648 O   0  0  0  0  0  0  0  0  0  0  0  0
  152.2174  142.7034  159.0100 C   0  0  0  0  0  0  0  0  0  0  0  0
  153.2438  142.3349  160.0327 C   0  0  0  0  0  0  0  0  0  0  0  0
  152.7538  145.3042  159.9000 H   0  0  0  0  0  0  0  0  0  0  0  0
  151.0874  145.7633  159.5259 H   0  0  0  0  0  0  0  0  0  0  0  0
  152.3514  145.9300  158.2958 H   0  0  0  0  0  0  0  0  0  0  0  0
  150.0937  141.9012  156.6603 H   0  0  0  0  0  0  0  0  0  0  0  0
  152.6688  140.0727  158.7794 H   0  0  0  0  0  0  0  0  0  0  0  0
  150.9280  139.8512  158.7232 H   0  0  0  0  0  0  0  0  0  0  0  0
  149.8829  139.8734  156.5738 H   0  0  0  0  0  0  0  0  0  0  0  0
  151.5463  139.2926  154.2051 H   0  0  0  0  0  0  0  0  0  0  0  0
  150.5154  138.0108  154.7956 H   0  0  0  0  0  0  0  0  0  0  0  0
  149.4161  139.4141  152.9687 H   0  0  0  0  0  0  0  0  0  0  0  0
  147.7099  138.3878  154.3491 H   0  0  0  0  0  0  0  0  0  0  0  0
  148.1298  139.4116  155.7289 H   0  0  0  0  0  0  0  0  0  0  0  0
  146.9058  140.2986  153.0978 H   0  0  0  0  0  0  0  0  0  0  0  0
  146.3105  140.6609  154.7217 H   0  0  0  0  0  0  0  0  0  0  0  0
  147.9758  142.3994  153.3630 H   0  0  0  0  0  0  0  0  0  0  0  0
  148.0886  142.2168  155.1147 H   0  0  0  0  0  0  0  0  0  0  0  0
  153.7434  143.2234  160.4169 H   0  0  0  0  0  0  0  0  0  0  0  0
  153.9999  141.6827  159.5951 H   0  0  0  0  0  0  0  0  0  0  0  0
  152.7734  141.8148  160.8671 H   0  0  0  0  0  0  0  0  0  0  0  0
  150.2573  144.3908  157.1680 H   0  0  0  0  0  0  0  0  0  0  0  0
  1  2  1  0  0  0  0
  1 18  1  0  0  0  0
  1 19  1  0  0  0  0
  1 20  1  0  0  0  0
  2 16  2  0  0  0  0
  2  3  1  0  0  0  0
  3  4  2  0  0  0  0
  3 37  1  0  0  0  0
  4  5  1  0  0  0  0
  4 21  1  0  0  0  0
  5  6  1  0  0  0  0
  5 16  1  0  0  0  0
  6  7  1  0  0  0  0
  6 22  1  0  0  0  0
  6 23  1  0  0  0  0
  7  8  2  0  0  0  0
  7  9  1  0  0  0  0
  9 10  1  0  0  0  0
  9 24  1  0  0  0  0
 10 11  1  0  0  0  0
 10 25  1  0  0  0  0
 10 26  1  0  0  0  0
 11 15  1  0  0  0  0
 11 12  1  0  0  0  0
 11 27  1  0  0  0  0
 12 13  1  0  0  0  0
 12 28  1  0  0  0  0
 12 29  1  0  0  0  0
 13 14  1  0  0  0  0
 13 30  1  0  0  0  0
 13 31  1  0  0  0  0
 14 15  1  0  0  0  0
 14 32  1  0  0  0  0
 14 33  1  0  0  0  0
 16 17  1  0  0  0  0
 17 34  1  0  0  0  0
 17 35  1  0  0  0  0
 17 36  1  0  0  0  0
M  CHG  1   3   1
M  END
> <s_m_source_file>
AV-unprocessed.smi

> <i_m_source_file_index>
3147

> <i_lp_mmshare_version>
43012

> <i_f3d_flags>
0

> <s_epik_input>
W0NIM11jMW5bY0hdbihjMVtDSDNdKVtDSDJdQyg9TylbTkhdW0NIMl1bQ0BASF0yW0NIMl1bQ0gyXVtDSDJdTzI=

> <s_epik_cmdline>
J2VwaWtfcHl0aG9uJywgJy1waCcsICc3LjAnLCAnLXRuJywgJzgnLCAnLW1hJywgJzIwMCcsICctbWV0YWxfYmluZGluZycsICctaW1hZScsICc8aW5maWxlLm1hZT4nLCAnLW9tYWUnLCAnPG91dGZpbGUubWFlPic=

> <r_lp_tautomer_probability>
1

> <r_epik_Ionization_Penalty>
0.131257

> <r_epik_Ionization_Penalty_Charging>
0

> <r_epik_Ionization_Penalty_Neutral>
0.131257

> <r_epik_State_Penalty>
0.12065

> <r_epik_Charging_Adjusted_Penalty>
0.12065

> <i_epik_Tot_Q>
1

> <i_epik_Tot_abs_Q>
1

> <r_epik_Metal_State_Penalty>
0.448684

> <b_epik_Metal_Only>
0

> <s_lp_Force_Field>
OPLS_2005

> <r_lp_Energy>
19.5729

> <b_lp_Chiralities_Consistent>
1

> <s_lp_Variant>
AV-unprocessed.smi:3147-2

> <Gold.Version>
5.8.1

> <Gold.Id.Protein>
6NUR|6NUR_protein|mol2

> <Gold.PLP.Fitness>
46.0563

> <Gold.PLP.PLP>
-37.7599

> <Gold.PLP.part.hbond>
-3.8669

> <Gold.PLP.part.metal>
0.0000

> <Gold.PLP.part.buried>
-2.7672

> <Gold.PLP.part.nonpolar>
-32.6128

> <Gold.PLP.part.repulsive>
0.5773

> <Gold.PLP.ligand.clash>
0.0000

> <Gold.PLP.ligand.torsion>
0.6295

> <Gold.PLP.Chemscore.Hbond>
3.1843

> <Gold.PLP.Chemscore.CHOScore>
0.0000

> <Gold.PLP.Chemscore.Metal>
0.0000

> <Gold.Chemscore.Hbonds>
donor molecule, donor type, donor heavy atom, donor atom, acceptor molecule, acceptor atom, score
      L1  H     3    37       P1  8028  1.81
      P1  H  7989  7998       L1    15  0.06
      P1  H  7997  8010       L1     8  1.00
      P1  H  8011  8017       L1    15  0.21

> <Gold.PLP.Chemscore.Internal.Correction>
0.0026

> <Gold.Rescore>
     Score         DG    S(hbond)    S(metal)    S(lipo)     H(rot)  DE(clash)    DE(int)     intcor
     15.71     -17.15       1.88        0.00      84.61       1.76       0.19       1.26       ----

> <Gold.Chemscore.Fitness>
15.7105

> <Gold.Chemscore.DG>
-17.1535

> <Gold.Chemscore.ZeroCoef>
-5.4800

> <Gold.Chemscore.Hbond>
1.8784

> <Gold.Chemscore.Metal>
0.0000

> <Gold.Chemscore.Lipo>
84.6117

> <Gold.Chemscore.Internal_Hbond>
0.0000

> <Gold.Chemscore.DEClash>
0.1868

> <Gold.Chemscore.DEInternal>
1.2563

> <Gold.Chemscore.Rot>
1.7577

> <Gold.Chemscore.Internal.Correction>
   9.000000E+99

> <Gold.Chemscore.Hbonds>
donor molecule, donor type, donor heavy atom, donor atom, acceptor molecule, acceptor atom, score
      L1  H     3    37       P1  8028  0.58
      P1  H  7997  8010       L1     8  0.94
      P1  H  8011  8017       L1    15  0.01

> <Gold.Chemscore.Hbond.Weighted>
-6.2737

> <Gold.Chemscore.Metal.Weighted>
-0.0000

> <Gold.Chemscore.Lipo.Weighted>
-9.8996

> <Gold.Chemscore.Internal_Hbond.Weighted>
0.0000

> <Gold.Chemscore.DEClash.Weighted>
0.1868

> <Gold.Chemscore.DEInternal.Weighted>
1.2563

> <Gold.Chemscore.Rot.Weighted>
4.4998

> <Gold.Chemscore.Internal.Correction.Weighted>
   9.000000E+99

> <Gold.Protein.RotatedTorsions>
[ 6907 6896 6895 6894 ] final   33.01 input  -60.11 | X-H torsion
[ 7974 7965 7964 7962 ] final  -72.47 input  175.53 | X-H torsion
[ 8008 7997 7996 7995 ] final   91.54 input   59.86 | X-H torsion
[ 10167 10162 10161 10158 ] final   10.99 input  -65.29 | X-H torsion
[ 10718 10713 10712 10709 ] final  -79.41 input   66.30 | X-H torsion
[ 10763 10752 10751 10750 ] final   85.92 input  -60.55 | X-H torsion
[ 11005 11000 10999 10996 ] final -116.36 input  -57.11 | X-H torsion

> <Gold.Protein.ActiveResidues>
 VAL166  LYS551  ARG553  GLY616  TRP617  ASP618  TYR619  PRO620  LYS621  CYS622 
 ASP623  PHE694  ASN695  SER759  ASP760  ASP761  ALA762  ILE779  LEU786  VAL792 
 PHE793  MET794  SER795  GLU796  ALA797  LYS798  CYS799  TRP800  GLU811  SER814 

> <Gold.Protein.RotatedAtoms>
  152.0825  134.9461  160.0573 H   0  0  0  0  0  0  0  0  0  0  0  0  # atno 6907 bound_to 6896
  152.0744  133.4117  159.4482 H   0  0  0  0  0  0  0  0  0  0  0  0  # atno 6908 bound_to 6896
  150.6836  134.2974  159.4735 H   0  0  0  0  0  0  0  0  0  0  0  0  # atno 6909 bound_to 6896
  145.6647  140.9241  143.0915 H   0  0  0  0  0  0  0  0  0  0  0  0  # atno 7974 bound_to 7965
  156.0250  140.3336  155.7078 H   0  0  0  0  0  0  0  0  0  0  0  0  # atno 8008 bound_to 7997
  155.5968  140.0651  157.2761 H   0  0  0  0  0  0  0  0  0  0  0  0  # atno 8009 bound_to 7997
  154.4330  140.1817  156.1120 H   0  0  0  0  0  0  0  0  0  0  0  0  # atno 8010 bound_to 7997
  140.6160  143.8307  150.7119 H   0  0  0  0  0  0  0  0  0  0  0  0  # atno 10167 bound_to 10162
  156.0093  130.4545  150.3644 H   0  0  0  0  0  0  0  0  0  0  0  0  # atno 10718 bound_to 10713
  153.1521  135.4599  154.9651 H   0  0  0  0  0  0  0  0  0  0  0  0  # atno 10763 bound_to 10752
  154.7833  135.3195  154.7945 H   0  0  0  0  0  0  0  0  0  0  0  0  # atno 10764 bound_to 10752
  153.8448  135.6927  153.4853 H   0  0  0  0  0  0  0  0  0  0  0  0  # atno 10765 bound_to 10752
  141.0427  133.9810  157.2968 H   0  0  0  0  0  0  0  0  0  0  0  0  # atno 11005 bound_to 11000
  144.7077  139.8495  143.7425 LP  0  0  0  0  0  0  0  0  0  0  0  0  # atno 17320 bound_to 7965
  146.1095  139.4099  143.0296 LP  0  0  0  0  0  0  0  0  0  0  0  0  # atno 17321 bound_to 7965
  140.1886  143.4055  152.1880 LP  0  0  0  0  0  0  0  0  0  0  0  0  # atno 17342 bound_to 10162
  139.5399  144.7246  151.4769 LP  0  0  0  0  0  0  0  0  0  0  0  0  # atno 17343 bound_to 10162
  157.1731  131.0374  151.2785 LP  0  0  0  0  0  0  0  0  0  0  0  0  # atno 17370 bound_to 10713
  157.4211  130.7438  149.6914 LP  0  0  0  0  0  0  0  0  0  0  0  0  # atno 17371 bound_to 10713
  139.9288  135.0201  156.8328 LP  0  0  0  0  0  0  0  0  0  0  0  0  # atno 17394 bound_to 11000
  140.6204  133.9999  155.7616 LP  0  0  0  0  0  0  0  0  0  0  0  0  # atno 17395 bound_to 11000

$$$$
