AV-unprocessed.smi:1506|AV-procd|sdf|6078|dock2
  -GOLD-   22720 6203D 1   1.00000     0.00000
 Structure written by MMmdl.
 40 42  0  0  0  0  0  0  0  0  2 V2000
  151.8829  145.7105  159.9563 C   0  0  0  0  0  0  0  0  0  0  0  0
  152.0465  144.2536  159.5752 C   0  0  0  0  0  0  0  0  0  0  0  0
  152.7765  143.3789  160.4040 C   0  0  0  0  0  0  0  0  0  0  0  0
  152.9236  142.0275  160.0413 C   0  0  0  0  0  0  0  0  0  0  0  0
  152.3451  141.5459  158.8511 C   0  0  0  0  0  0  0  0  0  0  0  0
  151.6109  142.4171  158.0069 C   0  0  0  0  0  0  0  0  0  0  0  0
  151.0153  142.0319  156.8248 O   0  0  0  0  0  0  0  0  0  0  0  0
  151.1403  140.6751  156.4190 C   0  0  0  0  0  0  0  0  0  0  0  0
  150.1101  140.3839  155.3179 C   0  0  2  0  0  0  0  0  0  0  0  0
  150.7251  139.5725  154.3366 O   0  0  0  0  0  0  0  0  0  0  0  0
  149.5605  141.6740  154.6758 C   0  0  0  0  0  0  0  0  0  0  0  0
  148.1017  141.6494  154.4961 N   0  0  0  0  0  0  0  0  0  0  0  0
  147.3687  141.3455  153.3907 C   0  0  0  0  0  0  0  0  0  0  0  0
  146.0531  141.4581  153.7251 N   0  3  0  0  0  0  0  0  0  0  0  0
  145.9432  141.8421  155.0632 C   0  0  0  0  0  0  0  0  0  0  0  0
  144.8227  142.0826  155.8527 C   0  0  0  0  0  0  0  0  0  0  0  0
  145.0602  142.4660  157.1891 C   0  0  0  0  0  0  0  0  0  0  0  0
  146.3703  142.5970  157.6937 C   0  0  0  0  0  0  0  0  0  0  0  0
  147.4988  142.3486  156.8848 C   0  0  0  0  0  0  0  0  0  0  0  0
  147.2561  141.9689  155.5650 C   0  0  0  0  0  0  0  0  0  0  0  0
  151.4699  143.7688  158.3835 C   0  0  0  0  0  0  0  0  0  0  0  0
  152.1554  145.8801  160.9985 H   0  0  0  0  0  0  0  0  0  0  0  0
  150.8481  146.0268  159.8217 H   0  0  0  0  0  0  0  0  0  0  0  0
  152.5185  146.3369  159.3301 H   0  0  0  0  0  0  0  0  0  0  0  0
  153.2250  143.7393  161.3182 H   0  0  0  0  0  0  0  0  0  0  0  0
  153.4824  141.3572  160.6776 H   0  0  0  0  0  0  0  0  0  0  0  0
  152.4802  140.5029  158.6089 H   0  0  0  0  0  0  0  0  0  0  0  0
  152.1465  140.4705  156.0490 H   0  0  0  0  0  0  0  0  0  0  0  0
  150.9565  140.0260  157.2772 H   0  0  0  0  0  0  0  0  0  0  0  0
  149.2852  139.8107  155.7433 H   0  0  0  0  0  0  0  0  0  0  0  0
  151.1026  138.8190  154.7647 H   0  0  0  0  0  0  0  0  0  0  0  0
  149.7881  142.5303  155.3118 H   0  0  0  0  0  0  0  0  0  0  0  0
  150.0382  141.8742  153.7165 H   0  0  0  0  0  0  0  0  0  0  0  0
  147.7600  141.0636  152.4238 H   0  0  0  0  0  0  0  0  0  0  0  0
  143.8180  141.9842  155.4685 H   0  0  0  0  0  0  0  0  0  0  0  0
  144.2210  142.6654  157.8396 H   0  0  0  0  0  0  0  0  0  0  0  0
  146.5134  142.8958  158.7220 H   0  0  0  0  0  0  0  0  0  0  0  0
  148.4976  142.4584  157.2804 H   0  0  0  0  0  0  0  0  0  0  0  0
  150.9118  144.4413  157.7482 H   0  0  0  0  0  0  0  0  0  0  0  0
  145.2886  141.2845  153.0851 H   0  0  0  0  0  0  0  0  0  0  0  0
  1  2  1  0  0  0  0
  1 22  1  0  0  0  0
  1 23  1  0  0  0  0
  1 24  1  0  0  0  0
  2 21  1  0  0  0  0
  2  3  2  0  0  0  0
  3  4  1  0  0  0  0
  3 25  1  0  0  0  0
  4  5  2  0  0  0  0
  4 26  1  0  0  0  0
  5  6  1  0  0  0  0
  5 27  1  0  0  0  0
  6  7  1  0  0  0  0
  6 21  2  0  0  0  0
  7  8  1  0  0  0  0
  8  9  1  0  0  0  0
  8 28  1  0  0  0  0
  8 29  1  0  0  0  0
  9 10  1  0  0  0  0
  9 11  1  0  0  0  0
  9 30  1  0  0  0  0
 10 31  1  0  0  0  0
 11 12  1  0  0  0  0
 11 32  1  0  0  0  0
 11 33  1  0  0  0  0
 12 20  1  0  0  0  0
 12 13  1  0  0  0  0
 13 14  2  0  0  0  0
 13 34  1  0  0  0  0
 14 15  1  0  0  0  0
 14 40  1  0  0  0  0
 15 20  2  0  0  0  0
 15 16  1  0  0  0  0
 16 17  2  0  0  0  0
 16 35  1  0  0  0  0
 17 18  1  0  0  0  0
 17 36  1  0  0  0  0
 18 19  2  0  0  0  0
 18 37  1  0  0  0  0
 19 20  1  0  0  0  0
 19 38  1  0  0  0  0
 21 39  1  0  0  0  0
M  CHG  1  14   1
M  END
> <s_m_source_file>
AV-unprocessed.smi

> <i_m_source_file_index>
1506

> <i_lp_mmshare_version>
43012

> <i_f3d_flags>
0

> <s_epik_input>
W0NIM11jMVtjSF1bY0hdW2NIXWMoW2NIXTEpT1tDSDJdW0NASF0oW09IXSlbQ0gyXW4oW2NIXW4yKWMoYzIzKVtjSF1bY0hdW2NIXVtjSF0z

> <s_epik_cmdline>
J2VwaWtfcHl0aG9uJywgJy1waCcsICc3LjAnLCAnLXRuJywgJzgnLCAnLW1hJywgJzIwMCcsICctbWV0YWxfYmluZGluZycsICctaW1hZScsICc8aW5maWxlLm1hZT4nLCAnLW9tYWUnLCAnPG91dGZpbGUubWFlPic=

> <r_lp_tautomer_probability>
1

> <r_epik_Ionization_Penalty>
1.37864

> <r_epik_Ionization_Penalty_Charging>
1.37864

> <r_epik_Ionization_Penalty_Neutral>
2.3993e-06

> <r_epik_State_Penalty>
1.45896

> <r_epik_Charging_Adjusted_Penalty>
2.8376

> <i_epik_Tot_Q>
1

> <i_epik_Tot_abs_Q>
1

> <r_epik_Metal_State_Penalty>
5.49899

> <b_epik_Metal_Only>
0

> <s_lp_Force_Field>
OPLS_2005

> <r_lp_Energy>
20.022

> <b_lp_Chiralities_Consistent>
1

> <s_lp_Variant>
AV-unprocessed.smi:1506-3

> <Gold.Version>
5.8.1

> <Gold.Id.Protein>
6NUR|6NUR_protein|mol2

> <Gold.PLP.Fitness>
54.0607

> <Gold.PLP.PLP>
-45.1707

> <Gold.PLP.part.hbond>
-2.0000

> <Gold.PLP.part.metal>
0.0000

> <Gold.PLP.part.buried>
-4.1360

> <Gold.PLP.part.nonpolar>
-38.3869

> <Gold.PLP.part.repulsive>
0.0777

> <Gold.PLP.ligand.clash>
0.0000

> <Gold.PLP.ligand.torsion>
1.5843

> <Gold.PLP.Chemscore.Hbond>
3.0000

> <Gold.PLP.Chemscore.CHOScore>
1.0000

> <Gold.PLP.Chemscore.Metal>
0.0000

> <Gold.Chemscore.Hbonds>
donor molecule, donor type, donor heavy atom, donor atom, acceptor molecule, acceptor atom, score
      L1  H    14    40       P1 10175  1.50
      P1  H  7989  7998       L1    10  0.90
      L1  C    13    34       P1  7957  1.00

> <Gold.PLP.Chemscore.Internal.Correction>
0.0586

> <Gold.Rescore>
     Score         DG    S(hbond)    S(metal)    S(lipo)     H(rot)  DE(clash)    DE(int)     intcor
     15.23     -16.94       1.27        0.00     111.41       2.27       0.07       1.64       ----

> <Gold.Chemscore.Fitness>
15.2312

> <Gold.Chemscore.DG>
-16.9353

> <Gold.Chemscore.ZeroCoef>
-5.4800

> <Gold.Chemscore.Hbond>
1.2687

> <Gold.Chemscore.Metal>
0.0000

> <Gold.Chemscore.Lipo>
111.4103

> <Gold.Chemscore.Internal_Hbond>
0.0000

> <Gold.Chemscore.DEClash>
0.0674

> <Gold.Chemscore.DEInternal>
1.6366

> <Gold.Chemscore.Rot>
2.2723

> <Gold.Chemscore.Internal.Correction>
   9.000000E+99

> <Gold.Chemscore.Hbonds>
donor molecule, donor type, donor heavy atom, donor atom, acceptor molecule, acceptor atom, score
      L1  H    14    40       P1 10175  0.09
      P1  H  7989  7998       L1    10  0.18

> <Gold.Chemscore.Hbond.Weighted>
-4.2374

> <Gold.Chemscore.Metal.Weighted>
-0.0000

> <Gold.Chemscore.Lipo.Weighted>
-13.0350

> <Gold.Chemscore.Internal_Hbond.Weighted>
0.0000

> <Gold.Chemscore.DEClash.Weighted>
0.0674

> <Gold.Chemscore.DEInternal.Weighted>
1.6366

> <Gold.Chemscore.Rot.Weighted>
5.8170

> <Gold.Chemscore.Internal.Correction.Weighted>
   9.000000E+99

> <Gold.Protein.RotatedTorsions>
[ 6907 6896 6895 6894 ] final  -48.45 input  -60.11 | X-H torsion
[ 7974 7965 7964 7962 ] final -151.74 input  175.53 | X-H torsion
[ 8008 7997 7996 7995 ] final   35.14 input   59.86 | X-H torsion
[ 10167 10162 10161 10158 ] final  -34.86 input  -65.29 | X-H torsion
[ 10718 10713 10712 10709 ] final  -47.95 input   66.30 | X-H torsion
[ 10763 10752 10751 10750 ] final  -63.98 input  -60.55 | X-H torsion
[ 11005 11000 10999 10996 ] final   98.14 input  -57.11 | X-H torsion

> <Gold.Protein.ActiveResidues>
 VAL166  LYS551  ARG553  GLY616  TRP617  ASP618  TYR619  PRO620  LYS621  CYS622 
 ASP623  PHE694  ASN695  SER759  ASP760  ASP761  ALA762  ILE779  LEU786  VAL792 
 PHE793  MET794  SER795  GLU796  ALA797  LYS798  CYS799  TRP800  GLU811  SER814 

> <Gold.Protein.RotatedAtoms>
  150.8904  134.8307  159.7288 H   0  0  0  0  0  0  0  0  0  0  0  0  # atno 6907 bound_to 6896
  152.4833  134.4657  159.9629 H   0  0  0  0  0  0  0  0  0  0  0  0  # atno 6908 bound_to 6896
  151.4720  133.3528  159.2860 H   0  0  0  0  0  0  0  0  0  0  0  0  # atno 6909 bound_to 6896
  144.7833  140.4756  143.5824 H   0  0  0  0  0  0  0  0  0  0  0  0  # atno 7974 bound_to 7965
  155.1662  140.3288  155.4401 H   0  0  0  0  0  0  0  0  0  0  0  0  # atno 8008 bound_to 7997
  156.2526  140.1951  156.6718 H   0  0  0  0  0  0  0  0  0  0  0  0  # atno 8009 bound_to 7997
  154.6370  140.0575  156.9786 H   0  0  0  0  0  0  0  0  0  0  0  0  # atno 8010 bound_to 7997
  140.7177  143.3518  151.2141 H   0  0  0  0  0  0  0  0  0  0  0  0  # atno 10167 bound_to 10162
  156.2035  130.4157  149.9209 H   0  0  0  0  0  0  0  0  0  0  0  0  # atno 10718 bound_to 10713
  154.3232  135.6192  153.5517 H   0  0  0  0  0  0  0  0  0  0  0  0  # atno 10763 bound_to 10752
  152.9818  135.5729  154.5046 H   0  0  0  0  0  0  0  0  0  0  0  0  # atno 10764 bound_to 10752
  154.4718  135.2859  155.1614 H   0  0  0  0  0  0  0  0  0  0  0  0  # atno 10765 bound_to 10752
  139.8773  134.9035  156.4411 H   0  0  0  0  0  0  0  0  0  0  0  0  # atno 11005 bound_to 11000
  145.5991  139.1502  143.3139 LP  0  0  0  0  0  0  0  0  0  0  0  0  # atno 17320 bound_to 7965
  146.2052  140.6113  142.9084 LP  0  0  0  0  0  0  0  0  0  0  0  0  # atno 17321 bound_to 7965
  139.7050  143.9470  152.2922 LP  0  0  0  0  0  0  0  0  0  0  0  0  # atno 17342 bound_to 10162
  139.9176  144.6819  150.8495 LP  0  0  0  0  0  0  0  0  0  0  0  0  # atno 17343 bound_to 10162
  156.6911  130.8896  151.3588 LP  0  0  0  0  0  0  0  0  0  0  0  0  # atno 17370 bound_to 10713
  157.6999  130.9322  150.0754 LP  0  0  0  0  0  0  0  0  0  0  0  0  # atno 17371 bound_to 10713
  140.8998  133.7787  155.9667 LP  0  0  0  0  0  0  0  0  0  0  0  0  # atno 17394 bound_to 11000
  140.8663  134.2780  157.5211 LP  0  0  0  0  0  0  0  0  0  0  0  0  # atno 17395 bound_to 11000

$$$$
