AV-unprocessed.smi:2320|AV-procd|sdf|9280|dock8
  -GOLD-   2272012503D 1   1.00000     0.00000
 Structure written by MMmdl.
 41 42  0  0  0  0  0  0  0  0  1 V2000
  153.3481  142.3047  161.2886 C   0  0  0  0  0  0  0  0  0  0  0  0
  152.6664  142.3256  159.9361 C   0  0  0  0  0  0  0  0  0  0  0  0
  152.2295  141.1277  159.3363 C   0  0  0  0  0  0  0  0  0  0  0  0
  151.5970  141.1580  158.0787 C   0  0  0  0  0  0  0  0  0  0  0  0
  151.3920  142.3777  157.4020 C   0  0  0  0  0  0  0  0  0  0  0  0
  150.7659  142.3137  156.1758 O   0  0  0  0  0  0  0  0  0  0  0  0
  149.8342  141.2644  155.9482 C   0  0  0  0  0  0  0  0  0  0  0  0
  148.9301  141.6531  154.7681 C   0  0  1  0  0  0  0  0  0  0  0  0
  149.5309  141.1362  153.5979 O   0  0  0  0  0  0  0  0  0  0  0  0
  147.5064  141.0672  154.9066 C   0  0  0  0  0  0  0  0  0  0  0  0
  146.4739  142.1169  154.9276 N   0  0  0  0  0  0  0  0  0  0  0  0
  146.3616  142.9033  153.7685 C   0  0  0  0  0  0  0  0  0  0  0  0
  145.4932  143.8565  153.6755 N   0  0  0  0  0  0  0  0  0  0  0  0
  144.6344  144.1232  154.7456 C   0  0  0  0  0  0  0  0  0  0  0  0
  143.6614  145.2697  154.5350 C   0  0  0  0  0  0  0  0  0  0  0  0
  144.6852  143.3922  155.8925 C   0  0  0  0  0  0  0  0  0  0  0  0
  143.7769  143.6397  157.0909 C   0  0  0  0  0  0  0  0  0  0  0  0
  145.6666  142.3014  156.0116 C   0  0  0  0  0  0  0  0  0  0  0  0
  145.7633  141.5982  157.0192 O   0  0  0  0  0  0  0  0  0  0  0  0
  151.8334  143.5793  158.0113 C   0  0  0  0  0  0  0  0  0  0  0  0
  152.4662  143.5500  159.2693 C   0  0  0  0  0  0  0  0  0  0  0  0
  153.4055  141.2926  161.6901 H   0  0  0  0  0  0  0  0  0  0  0  0
  152.7973  142.9219  161.9989 H   0  0  0  0  0  0  0  0  0  0  0  0
  154.3623  142.6962  161.2062 H   0  0  0  0  0  0  0  0  0  0  0  0
  152.3764  140.1817  159.8367 H   0  0  0  0  0  0  0  0  0  0  0  0
  151.2660  140.2342  157.6276 H   0  0  0  0  0  0  0  0  0  0  0  0
  150.3770  140.3476  155.7109 H   0  0  0  0  0  0  0  0  0  0  0  0
  149.2306  141.0811  156.8391 H   0  0  0  0  0  0  0  0  0  0  0  0
  148.9005  142.7407  154.6905 H   0  0  0  0  0  0  0  0  0  0  0  0
  148.9674  140.4672  153.2400 H   0  0  0  0  0  0  0  0  0  0  0  0
  147.3182  140.3244  154.1288 H   0  0  0  0  0  0  0  0  0  0  0  0
  147.4368  140.4957  155.8344 H   0  0  0  0  0  0  0  0  0  0  0  0
  147.0510  142.6495  152.9611 H   0  0  0  0  0  0  0  0  0  0  0  0
  143.8187  146.0459  155.2843 H   0  0  0  0  0  0  0  0  0  0  0  0
  142.6325  144.9165  154.6079 H   0  0  0  0  0  0  0  0  0  0  0  0
  143.7889  145.7243  153.5517 H   0  0  0  0  0  0  0  0  0  0  0  0
  143.2104  142.7384  157.3273 H   0  0  0  0  0  0  0  0  0  0  0  0
  143.0590  144.4419  156.9273 H   0  0  0  0  0  0  0  0  0  0  0  0
  144.3727  143.9043  157.9650 H   0  0  0  0  0  0  0  0  0  0  0  0
  151.6974  144.5382  157.5349 H   0  0  0  0  0  0  0  0  0  0  0  0
  152.7976  144.4728  159.7229 H   0  0  0  0  0  0  0  0  0  0  0  0
  1  2  1  0  0  0  0
  1 22  1  0  0  0  0
  1 23  1  0  0  0  0
  1 24  1  0  0  0  0
  2 21  1  0  0  0  0
  2  3  2  0  0  0  0
  3  4  1  0  0  0  0
  3 25  1  0  0  0  0
  4  5  2  0  0  0  0
  4 26  1  0  0  0  0
  5  6  1  0  0  0  0
  5 20  1  0  0  0  0
  6  7  1  0  0  0  0
  7  8  1  0  0  0  0
  7 27  1  0  0  0  0
  7 28  1  0  0  0  0
  8  9  1  0  0  0  0
  8 10  1  0  0  0  0
  8 29  1  0  0  0  0
  9 30  1  0  0  0  0
 10 11  1  0  0  0  0
 10 31  1  0  0  0  0
 10 32  1  0  0  0  0
 11 18  1  0  0  0  0
 11 12  1  0  0  0  0
 12 13  2  0  0  0  0
 12 33  1  0  0  0  0
 13 14  1  0  0  0  0
 14 15  1  0  0  0  0
 14 16  2  0  0  0  0
 15 34  1  0  0  0  0
 15 35  1  0  0  0  0
 15 36  1  0  0  0  0
 16 17  1  0  0  0  0
 16 18  1  0  0  0  0
 17 37  1  0  0  0  0
 17 38  1  0  0  0  0
 17 39  1  0  0  0  0
 18 19  2  0  0  0  0
 20 21  2  0  0  0  0
 20 40  1  0  0  0  0
 21 41  1  0  0  0  0
M  END
> <s_m_source_file>
AV-unprocessed.smi

> <i_m_source_file_index>
2320

> <i_lp_mmshare_version>
43012

> <i_f3d_flags>
0

> <s_epik_input>
W0NIM11jMVtjSF1bY0hdYyhbY0hdW2NIXTEpT1tDSDJdW0NASF0oW09IXSlbQ0gyXW4yW2NIXW5jKFtDSDNdKWMoW0NIM10pYzI9Tw==

> <s_epik_cmdline>
J2VwaWtfcHl0aG9uJywgJy1waCcsICc3LjAnLCAnLXRuJywgJzgnLCAnLW1hJywgJzIwMCcsICctbWV0YWxfYmluZGluZycsICctaW1hZScsICc8aW5maWxlLm1hZT4nLCAnLW9tYWUnLCAnPG91dGZpbGUubWFlPic=

> <r_lp_tautomer_probability>
1

> <r_epik_Ionization_Penalty>
3.74127e-05

> <r_epik_Ionization_Penalty_Charging>
8.43242e-08

> <r_epik_Ionization_Penalty_Neutral>
3.73284e-05

> <r_epik_State_Penalty>
-0

> <r_epik_Charging_Adjusted_Penalty>
8.43242e-08

> <i_epik_Tot_Q>
0

> <i_epik_Tot_abs_Q>
0

> <r_epik_Metal_State_Penalty>
-0

> <b_epik_Metal_Only>
0

> <s_lp_Force_Field>
OPLS_2005

> <r_lp_Energy>
22.1305

> <b_lp_Chiralities_Consistent>
1

> <s_lp_Variant>
AV-unprocessed.smi:2320-2

> <Gold.Version>
5.8.1

> <Gold.Id.Protein>
6NUR|6NUR_protein|mol2

> <Gold.PLP.Fitness>
47.4378

> <Gold.PLP.PLP>
-46.5641

> <Gold.PLP.part.hbond>
-3.1173

> <Gold.PLP.part.metal>
0.0000

> <Gold.PLP.part.buried>
-7.3389

> <Gold.PLP.part.nonpolar>
-36.8665

> <Gold.PLP.part.repulsive>
0.7198

> <Gold.PLP.ligand.clash>
0.0000

> <Gold.PLP.ligand.torsion>
1.6269

> <Gold.PLP.Chemscore.Hbond>
1.3682

> <Gold.PLP.Chemscore.CHOScore>
0.0000

> <Gold.PLP.Chemscore.Metal>
0.0000

> <Gold.Chemscore.Hbonds>
donor molecule, donor type, donor heavy atom, donor atom, acceptor molecule, acceptor atom, score
      L1  H     9    30       P1  7957  0.09
      P1  H  7989  7998       L1     9  0.21
      P1  H  8011  8017       L1     9  0.99

> <Gold.PLP.Chemscore.Internal.Correction>
0.0229

> <Gold.Rescore>
     Score         DG    S(hbond)    S(metal)    S(lipo)     H(rot)  DE(clash)    DE(int)     intcor
     13.39     -15.41       0.91        0.00     110.17       2.35       0.42       1.59       ----

> <Gold.Chemscore.Fitness>
13.3928

> <Gold.Chemscore.DG>
-15.4057

> <Gold.Chemscore.ZeroCoef>
-5.4800

> <Gold.Chemscore.Hbond>
0.9131

> <Gold.Chemscore.Metal>
0.0000

> <Gold.Chemscore.Lipo>
110.1673

> <Gold.Chemscore.Internal_Hbond>
0.0000

> <Gold.Chemscore.DEClash>
0.4246

> <Gold.Chemscore.DEInternal>
1.5883

> <Gold.Chemscore.Rot>
2.3490

> <Gold.Chemscore.Internal.Correction>
   9.000000E+99

> <Gold.Chemscore.Hbonds>
donor molecule, donor type, donor heavy atom, donor atom, acceptor molecule, acceptor atom, score
      L1  H     9    30       P1  7957  0.09
      P1  H  7989  7998       L1     9  0.20
      P1  H  8011  8017       L1     9  0.56

> <Gold.Chemscore.Hbond.Weighted>
-3.0497

> <Gold.Chemscore.Metal.Weighted>
-0.0000

> <Gold.Chemscore.Lipo.Weighted>
-12.8896

> <Gold.Chemscore.Internal_Hbond.Weighted>
0.0000

> <Gold.Chemscore.DEClash.Weighted>
0.4246

> <Gold.Chemscore.DEInternal.Weighted>
1.5883

> <Gold.Chemscore.Rot.Weighted>
6.0136

> <Gold.Chemscore.Internal.Correction.Weighted>
   9.000000E+99

> <Gold.Protein.RotatedTorsions>
[ 6907 6896 6895 6894 ] final  -81.09 input  -60.11 | X-H torsion
[ 7974 7965 7964 7962 ] final  -95.83 input  175.53 | X-H torsion
[ 8008 7997 7996 7995 ] final  -13.16 input   59.86 | X-H torsion
[ 10167 10162 10161 10158 ] final -137.00 input  -65.29 | X-H torsion
[ 10718 10713 10712 10709 ] final  -75.17 input   66.30 | X-H torsion
[ 10763 10752 10751 10750 ] final   18.66 input  -60.55 | X-H torsion
[ 11005 11000 10999 10996 ] final  123.00 input  -57.11 | X-H torsion

> <Gold.Protein.ActiveResidues>
 VAL166  LYS551  ARG553  GLY616  TRP617  ASP618  TYR619  PRO620  LYS621  CYS622 
 ASP623  PHE694  ASN695  SER759  ASP760  ASP761  ALA762  ILE779  LEU786  VAL792 
 PHE793  MET794  SER795  GLU796  ALA797  LYS798  CYS799  TRP800  GLU811  SER814 

> <Gold.Protein.RotatedAtoms>
  150.6918  134.3870  159.5058 H   0  0  0  0  0  0  0  0  0  0  0  0  # atno 6907 bound_to 6896
  152.1664  134.8868  160.0547 H   0  0  0  0  0  0  0  0  0  0  0  0  # atno 6908 bound_to 6896
  151.9910  133.3756  159.4181 H   0  0  0  0  0  0  0  0  0  0  0  0  # atno 6909 bound_to 6896
  145.3549  140.9482  143.2533 H   0  0  0  0  0  0  0  0  0  0  0  0  # atno 7974 bound_to 7965
  154.5316  140.2257  155.8795 H   0  0  0  0  0  0  0  0  0  0  0  0  # atno 8008 bound_to 7997
  156.1769  140.3109  155.9039 H   0  0  0  0  0  0  0  0  0  0  0  0  # atno 8009 bound_to 7997
  155.3440  140.0452  157.3036 H   0  0  0  0  0  0  0  0  0  0  0  0  # atno 8010 bound_to 7997
  139.8621  143.7063  152.2649 H   0  0  0  0  0  0  0  0  0  0  0  0  # atno 10167 bound_to 10162
  156.0217  130.4434  150.3003 H   0  0  0  0  0  0  0  0  0  0  0  0  # atno 10718 bound_to 10713
  153.1229  135.6723  153.9305 H   0  0  0  0  0  0  0  0  0  0  0  0  # atno 10763 bound_to 10752
  153.8815  135.3057  155.3446 H   0  0  0  0  0  0  0  0  0  0  0  0  # atno 10764 bound_to 10752
  154.7638  135.4974  153.9595 H   0  0  0  0  0  0  0  0  0  0  0  0  # atno 10765 bound_to 10752
  139.9293  134.9641  156.8193 H   0  0  0  0  0  0  0  0  0  0  0  0  # atno 11005 bound_to 11000
  144.8690  139.5066  143.6777 LP  0  0  0  0  0  0  0  0  0  0  0  0  # atno 17320 bound_to 7965
  146.2952  139.7257  142.9132 LP  0  0  0  0  0  0  0  0  0  0  0  0  # atno 17321 bound_to 7965
  139.7363  144.7570  151.0722 LP  0  0  0  0  0  0  0  0  0  0  0  0  # atno 17342 bound_to 10162
  140.7773  143.5026  150.9752 LP  0  0  0  0  0  0  0  0  0  0  0  0  # atno 17343 bound_to 10162
  157.1106  131.0220  151.3049 LP  0  0  0  0  0  0  0  0  0  0  0  0  # atno 17370 bound_to 10713
  157.4708  130.7707  149.7321 LP  0  0  0  0  0  0  0  0  0  0  0  0  # atno 17371 bound_to 10713
  140.6247  133.9961  155.7634 LP  0  0  0  0  0  0  0  0  0  0  0  0  # atno 17394 bound_to 11000
  141.0871  133.9974  157.3296 LP  0  0  0  0  0  0  0  0  0  0  0  0  # atno 17395 bound_to 11000

$$$$
