AV-unprocessed.smi:713|AV-procd|sdf|3477|dock4
  -GOLD-   22720 0473D 1   1.00000     0.00000
 Structure written by MMmdl.
 41 42  0  0  0  0  0  0  0  0  1 V2000
  152.3181  144.2597  158.0391 C   0  0  0  0  0  0  0  0  0  0  0  0
  151.4481  143.4669  159.0316 C   0  0  1  0  0  0  0  0  0  0  0  0
  150.7147  142.2943  158.3639 C   0  0  0  0  0  0  0  0  0  0  0  0
  149.5775  141.9814  158.7195 O   0  0  0  0  0  0  0  0  0  0  0  0
  151.3814  141.6546  157.3901 N   0  0  0  0  0  0  0  0  0  0  0  0
  150.8712  140.5257  156.6187 C   0  0  1  0  0  0  0  0  0  0  0  0
  151.9479  140.0491  155.6272 C   0  0  0  0  0  0  0  0  0  0  0  0
  151.4664  138.8306  154.8247 C   0  0  0  0  0  0  0  0  0  0  0  0
  151.0324  137.6869  155.7543 C   0  0  0  0  0  0  0  0  0  0  0  0
  149.9544  138.1494  156.7517 C   0  0  1  0  0  0  0  0  0  0  0  0
  149.5016  136.7502  157.8750 S   0  0  0  0  0  0  0  0  0  0  0  0
  148.1322  137.4606  158.8800 C   0  0  0  0  0  0  0  0  0  0  0  0
  148.9570  135.6584  157.0537 O   0  0  0  0  0  0  0  0  0  0  0  0
  150.6337  136.4846  158.7756 O   0  0  0  0  0  0  0  0  0  0  0  0
  150.4396  139.3750  157.5513 C   0  0  0  0  0  0  0  0  0  0  0  0
  152.2381  142.9926  160.1605 N   0  0  0  0  0  0  0  0  0  0  0  0
  153.3198  142.1328  160.1633 C   0  0  0  0  0  0  0  0  0  0  0  0
  153.7251  141.9883  161.4590 C   0  0  0  0  0  0  0  0  0  0  0  0
  152.8197  142.8071  162.1889 C   0  0  0  0  0  0  0  0  0  0  0  0
  151.9326  143.4060  161.4109 N   0  0  0  0  0  0  0  0  0  0  0  0
  151.7266  144.6201  157.1969 H   0  0  0  0  0  0  0  0  0  0  0  0
  153.1336  143.6560  157.6389 H   0  0  0  0  0  0  0  0  0  0  0  0
  152.7609  145.1307  158.5232 H   0  0  0  0  0  0  0  0  0  0  0  0
  150.6887  144.1527  159.4134 H   0  0  0  0  0  0  0  0  0  0  0  0
  152.3093  141.9809  157.1605 H   0  0  0  0  0  0  0  0  0  0  0  0
  150.0048  140.8579  156.0433 H   0  0  0  0  0  0  0  0  0  0  0  0
  152.2124  140.8571  154.9441 H   0  0  0  0  0  0  0  0  0  0  0  0
  152.8599  139.7889  156.1668 H   0  0  0  0  0  0  0  0  0  0  0  0
  150.6306  139.1196  154.1863 H   0  0  0  0  0  0  0  0  0  0  0  0
  152.2591  138.4875  154.1595 H   0  0  0  0  0  0  0  0  0  0  0  0
  150.6581  136.8540  155.1585 H   0  0  0  0  0  0  0  0  0  0  0  0
  151.8995  137.3107  156.2987 H   0  0  0  0  0  0  0  0  0  0  0  0
  149.0536  138.4160  156.1979 H   0  0  0  0  0  0  0  0  0  0  0  0
  147.7183  136.6830  159.5214 H   0  0  0  0  0  0  0  0  0  0  0  0
  147.3503  137.8363  158.2206 H   0  0  0  0  0  0  0  0  0  0  0  0
  148.5070  138.2704  159.5046 H   0  0  0  0  0  0  0  0  0  0  0  0
  151.2770  139.0892  158.1894 H   0  0  0  0  0  0  0  0  0  0  0  0
  149.6493  139.7217  158.2161 H   0  0  0  0  0  0  0  0  0  0  0  0
  153.7069  141.7004  159.2520 H   0  0  0  0  0  0  0  0  0  0  0  0
  154.5440  141.3891  161.8284 H   0  0  0  0  0  0  0  0  0  0  0  0
  152.7811  142.9838  163.2537 H   0  0  0  0  0  0  0  0  0  0  0  0
  1  2  1  0  0  0  0
  1 21  1  0  0  0  0
  1 22  1  0  0  0  0
  1 23  1  0  0  0  0
  2  3  1  0  0  0  0
  2 16  1  0  0  0  0
  2 24  1  0  0  0  0
  3  4  2  0  0  0  0
  3  5  1  0  0  0  0
  5  6  1  0  0  0  0
  5 25  1  0  0  0  0
  6 15  1  0  0  0  0
  6  7  1  0  0  0  0
  6 26  1  0  0  0  0
  7  8  1  0  0  0  0
  7 27  1  0  0  0  0
  7 28  1  0  0  0  0
  8  9  1  0  0  0  0
  8 29  1  0  0  0  0
  8 30  1  0  0  0  0
  9 10  1  0  0  0  0
  9 31  1  0  0  0  0
  9 32  1  0  0  0  0
 10 11  1  0  0  0  0
 10 15  1  0  0  0  0
 10 33  1  0  0  0  0
 11 12  1  0  0  0  0
 11 13  2  0  0  0  0
 11 14  2  0  0  0  0
 12 34  1  0  0  0  0
 12 35  1  0  0  0  0
 12 36  1  0  0  0  0
 15 37  1  0  0  0  0
 15 38  1  0  0  0  0
 16 20  1  0  0  0  0
 16 17  1  0  0  0  0
 17 18  2  0  0  0  0
 17 39  1  0  0  0  0
 18 19  1  0  0  0  0
 18 40  1  0  0  0  0
 19 20  2  0  0  0  0
 19 41  1  0  0  0  0
M  END
> <s_m_source_file>
AV-unprocessed.smi

> <i_m_source_file_index>
713

> <i_lp_mmshare_version>
43012

> <i_f3d_flags>
0

> <s_epik_input>
bjFbY0hdW2NIXVtjSF1uMVtDQEhdKFtDSDNdKUMoPU8pW05IXVtDQEBIXTJbQ0gyXVtDSDJdW0NIMl1bQ0BIXShbQ0gyXTIpUyg9TykoPU8pW0NIM10=

> <s_epik_cmdline>
J2VwaWtfcHl0aG9uJywgJy1waCcsICc3LjAnLCAnLXRuJywgJzgnLCAnLW1hJywgJzIwMCcsICctbWV0YWxfYmluZGluZycsICctaW1hZScsICc8aW5maWxlLm1hZT4nLCAnLW9tYWUnLCAnPG91dGZpbGUubWFlPic=

> <r_lp_tautomer_probability>
1

> <r_epik_Ionization_Penalty>
4.07816e-05

> <r_epik_Ionization_Penalty_Charging>
0

> <r_epik_Ionization_Penalty_Neutral>
4.07816e-05

> <r_epik_State_Penalty>
-0

> <r_epik_Charging_Adjusted_Penalty>
0

> <i_epik_Tot_Q>
0

> <i_epik_Tot_abs_Q>
0

> <r_epik_Metal_State_Penalty>
-0

> <b_epik_Metal_Only>
0

> <s_lp_Force_Field>
OPLS_2005

> <r_lp_Energy>
7.49251

> <b_lp_Chiralities_Consistent>
1

> <s_lp_Variant>
AV-unprocessed.smi:713-4

> <Gold.Version>
5.8.1

> <Gold.Id.Protein>
6NUR|6NUR_protein|mol2

> <Gold.PLP.Fitness>
41.8617

> <Gold.PLP.PLP>
-40.3501

> <Gold.PLP.part.hbond>
-1.7619

> <Gold.PLP.part.metal>
0.0000

> <Gold.PLP.part.buried>
-5.1227

> <Gold.PLP.part.nonpolar>
-33.2915

> <Gold.PLP.part.repulsive>
0.2746

> <Gold.PLP.ligand.clash>
0.0000

> <Gold.PLP.ligand.torsion>
0.8329

> <Gold.PLP.Chemscore.Hbond>
0.9920

> <Gold.PLP.Chemscore.CHOScore>
0.0000

> <Gold.PLP.Chemscore.Metal>
0.0000

> <Gold.Chemscore.Hbonds>
donor molecule, donor type, donor heavy atom, donor atom, acceptor molecule, acceptor atom, score
      P1  H  6896  6909       L1    14  0.98

> <Gold.PLP.Chemscore.Internal.Correction>
0.2015

> <Gold.Rescore>
     Score         DG    S(hbond)    S(metal)    S(lipo)     H(rot)  DE(clash)    DE(int)     intcor
     14.14     -15.28       0.99        0.00      93.30       1.72       0.23       0.91       ----

> <Gold.Chemscore.Fitness>
14.1415

> <Gold.Chemscore.DG>
-15.2786

> <Gold.Chemscore.ZeroCoef>
-5.4800

> <Gold.Chemscore.Hbond>
0.9874

> <Gold.Chemscore.Metal>
0.0000

> <Gold.Chemscore.Lipo>
93.3017

> <Gold.Chemscore.Internal_Hbond>
0.0000

> <Gold.Chemscore.DEClash>
0.2320

> <Gold.Chemscore.DEInternal>
0.9051

> <Gold.Chemscore.Rot>
1.7249

> <Gold.Chemscore.Internal.Correction>
   9.000000E+99

> <Gold.Chemscore.Hbonds>
donor molecule, donor type, donor heavy atom, donor atom, acceptor molecule, acceptor atom, score
      P1  H  6896  6909       L1    14  0.93

> <Gold.Chemscore.Hbond.Weighted>
-3.2980

> <Gold.Chemscore.Metal.Weighted>
-0.0000

> <Gold.Chemscore.Lipo.Weighted>
-10.9163

> <Gold.Chemscore.Internal_Hbond.Weighted>
0.0000

> <Gold.Chemscore.DEClash.Weighted>
0.2320

> <Gold.Chemscore.DEInternal.Weighted>
0.9051

> <Gold.Chemscore.Rot.Weighted>
4.4157

> <Gold.Chemscore.Internal.Correction.Weighted>
   9.000000E+99

> <Gold.Protein.RotatedTorsions>
[ 6907 6896 6895 6894 ] final   77.77 input  -60.11 | X-H torsion
[ 7974 7965 7964 7962 ] final -145.92 input  175.53 | X-H torsion
[ 8008 7997 7996 7995 ] final -144.31 input   59.86 | X-H torsion
[ 10167 10162 10161 10158 ] final -131.32 input  -65.29 | X-H torsion
[ 10718 10713 10712 10709 ] final -151.61 input   66.30 | X-H torsion
[ 10763 10752 10751 10750 ] final  -40.27 input  -60.55 | X-H torsion
[ 11005 11000 10999 10996 ] final  -63.29 input  -57.11 | X-H torsion

> <Gold.Protein.ActiveResidues>
 VAL166  LYS551  ARG553  GLY616  TRP617  ASP618  TYR619  PRO620  LYS621  CYS622 
 ASP623  PHE694  ASN695  SER759  ASP760  ASP761  ALA762  ILE779  LEU786  VAL792 
 PHE793  MET794  SER795  GLU796  ALA797  LYS798  CYS799  TRP800  GLU811  SER814 

> <Gold.Protein.RotatedAtoms>
  152.5131  134.3766  159.9336 H   0  0  0  0  0  0  0  0  0  0  0  0  # atno 6907 bound_to 6896
  151.3722  133.3844  159.2708 H   0  0  0  0  0  0  0  0  0  0  0  0  # atno 6908 bound_to 6896
  150.9569  134.8982  159.7765 H   0  0  0  0  0  0  0  0  0  0  0  0  # atno 6909 bound_to 6896
  144.8194  140.5522  143.5588 H   0  0  0  0  0  0  0  0  0  0  0  0  # atno 7974 bound_to 7965
  155.5248  140.0594  157.2900 H   0  0  0  0  0  0  0  0  0  0  0  0  # atno 8008 bound_to 7997
  154.4505  140.1946  156.0480 H   0  0  0  0  0  0  0  0  0  0  0  0  # atno 8009 bound_to 7997
  156.0694  140.3262  155.7561 H   0  0  0  0  0  0  0  0  0  0  0  0  # atno 8010 bound_to 7997
  139.9201  143.6392  152.2555 H   0  0  0  0  0  0  0  0  0  0  0  0  # atno 10167 bound_to 10162
  156.4615  130.8215  151.2446 H   0  0  0  0  0  0  0  0  0  0  0  0  # atno 10718 bound_to 10713
  153.9432  135.6759  153.4744 H   0  0  0  0  0  0  0  0  0  0  0  0  # atno 10763 bound_to 10752
  153.0921  135.4869  154.8706 H   0  0  0  0  0  0  0  0  0  0  0  0  # atno 10764 bound_to 10752
  154.7365  135.3150  154.8760 H   0  0  0  0  0  0  0  0  0  0  0  0  # atno 10765 bound_to 10752
  141.1388  133.6650  156.5658 H   0  0  0  0  0  0  0  0  0  0  0  0  # atno 11005 bound_to 11000
  145.5139  139.1478  143.3589 LP  0  0  0  0  0  0  0  0  0  0  0  0  # atno 17320 bound_to 7965
  146.2499  140.5280  142.8898 LP  0  0  0  0  0  0  0  0  0  0  0  0  # atno 17321 bound_to 7965
  139.6869  144.7651  151.1508 LP  0  0  0  0  0  0  0  0  0  0  0  0  # atno 17342 bound_to 10162
  140.7664  143.5645  150.9063 LP  0  0  0  0  0  0  0  0  0  0  0  0  # atno 17343 bound_to 10162
  157.7497  131.0105  150.3311 LP  0  0  0  0  0  0  0  0  0  0  0  0  # atno 17370 bound_to 10713
  156.3712  130.3864  149.7174 LP  0  0  0  0  0  0  0  0  0  0  0  0  # atno 17371 bound_to 10713
  140.3952  134.7405  157.4746 LP  0  0  0  0  0  0  0  0  0  0  0  0  # atno 17394 bound_to 11000
  140.0537  134.6094  155.8831 LP  0  0  0  0  0  0  0  0  0  0  0  0  # atno 17395 bound_to 11000

$$$$
