AV-unprocessed.smi:1702|AV-procd|sdf|6847|dock4
  -GOLD-   22720 8 23D 1   1.00000     0.00000
 Structure written by MMmdl.
 44 46  0  0  0  0  0  0  0  0  2 V2000
  143.8993  133.6162  151.6592 C   0  0  0  0  0  0  0  0  0  0  0  0
  145.1159  134.4283  151.1824 C   0  0  2  0  0  0  0  0  0  0  0  0
  146.3268  133.5405  150.8411 C   0  0  0  0  0  0  0  0  0  0  0  0
  147.0218  132.9915  152.1004 C   0  0  0  0  0  0  0  0  0  0  0  0
  147.4216  134.0914  153.0150 N   0  3  2  0  0  0  0  0  0  0  0  0
  148.2276  133.6071  154.1656 C   0  0  0  0  0  0  0  0  0  0  0  0
  148.5946  134.7383  155.1465 C   0  0  2  0  0  0  0  0  0  0  0  0
  149.5045  135.6149  154.5088 O   0  0  0  0  0  0  0  0  0  0  0  0
  149.2302  134.1917  156.4397 C   0  0  0  0  0  0  0  0  0  0  0  0
  149.1800  135.1481  157.5317 N   0  0  0  0  0  0  0  0  0  0  0  0
  149.5177  136.4511  157.4812 C   0  0  0  0  0  0  0  0  0  0  0  0
  149.3993  137.1555  158.6026 N   0  0  0  0  0  0  0  0  0  0  0  0
  148.9265  136.1996  159.4851 C   0  0  0  0  0  0  0  0  0  0  0  0
  148.5907  136.3018  160.8539 C   0  0  0  0  0  0  0  0  0  0  0  0
  148.1210  135.1756  161.5609 C   0  0  0  0  0  0  0  0  0  0  0  0
  147.8033  135.2909  162.8721 F   0  0  0  0  0  0  0  0  0  0  0  0
  147.9809  133.9315  160.9106 C   0  0  0  0  0  0  0  0  0  0  0  0
  147.5290  132.8548  161.5963 F   0  0  0  0  0  0  0  0  0  0  0  0
  148.3099  133.8050  159.5474 C   0  0  0  0  0  0  0  0  0  0  0  0
  148.7773  134.9317  158.8457 C   0  0  0  0  0  0  0  0  0  0  0  0
  146.2523  134.9160  153.4197 C   0  0  0  0  0  0  0  0  0  0  0  0
  145.5425  135.5112  152.1903 C   0  0  0  0  0  0  0  0  0  0  0  0
  144.1060  133.0629  152.5748 H   0  0  0  0  0  0  0  0  0  0  0  0
  143.5918  132.8945  150.9017 H   0  0  0  0  0  0  0  0  0  0  0  0
  143.0469  134.2676  151.8533 H   0  0  0  0  0  0  0  0  0  0  0  0
  144.8085  134.9343  150.2662 H   0  0  0  0  0  0  0  0  0  0  0  0
  146.0228  132.7186  150.1921 H   0  0  0  0  0  0  0  0  0  0  0  0
  147.0471  134.1258  150.2680 H   0  0  0  0  0  0  0  0  0  0  0  0
  146.3702  132.2932  152.6272 H   0  0  0  0  0  0  0  0  0  0  0  0
  147.9049  132.4280  151.7968 H   0  0  0  0  0  0  0  0  0  0  0  0
  147.6798  132.8153  154.6790 H   0  0  0  0  0  0  0  0  0  0  0  0
  149.1516  133.1502  153.8073 H   0  0  0  0  0  0  0  0  0  0  0  0
  147.7070  135.3107  155.4144 H   0  0  0  0  0  0  0  0  0  0  0  0
  149.1562  135.8528  153.6628 H   0  0  0  0  0  0  0  0  0  0  0  0
  148.7122  133.2864  156.7591 H   0  0  0  0  0  0  0  0  0  0  0  0
  150.2698  133.9096  156.2683 H   0  0  0  0  0  0  0  0  0  0  0  0
  149.8735  136.9076  156.5691 H   0  0  0  0  0  0  0  0  0  0  0  0
  148.6942  137.2488  161.3623 H   0  0  0  0  0  0  0  0  0  0  0  0
  148.2033  132.8529  159.0500 H   0  0  0  0  0  0  0  0  0  0  0  0
  145.5589  134.3085  154.0027 H   0  0  0  0  0  0  0  0  0  0  0  0
  146.5695  135.7313  154.0685 H   0  0  0  0  0  0  0  0  0  0  0  0
  146.2190  136.2107  151.6973 H   0  0  0  0  0  0  0  0  0  0  0  0
  144.6784  136.0983  152.5034 H   0  0  0  0  0  0  0  0  0  0  0  0
  148.0331  134.6910  152.4787 H   0  0  0  0  0  0  0  0  0  0  0  0
  1  2  1  0  0  0  0
  1 23  1  0  0  0  0
  1 24  1  0  0  0  0
  1 25  1  0  0  0  0
  2 22  1  0  0  0  0
  2  3  1  0  0  0  0
  2 26  1  0  0  0  0
  3  4  1  0  0  0  0
  3 27  1  0  0  0  0
  3 28  1  0  0  0  0
  4  5  1  0  0  0  0
  4 29  1  0  0  0  0
  4 30  1  0  0  0  0
  5  6  1  0  0  0  0
  5 21  1  0  0  0  0
  5 44  1  0  0  0  0
  6  7  1  0  0  0  0
  6 31  1  0  0  0  0
  6 32  1  0  0  0  0
  7  8  1  0  0  0  0
  7  9  1  0  0  0  0
  7 33  1  0  0  0  0
  8 34  1  0  0  0  0
  9 10  1  0  0  0  0
  9 35  1  0  0  0  0
  9 36  1  0  0  0  0
 10 20  1  0  0  0  0
 10 11  1  0  0  0  0
 11 12  2  0  0  0  0
 11 37  1  0  0  0  0
 12 13  1  0  0  0  0
 13 20  2  0  0  0  0
 13 14  1  0  0  0  0
 14 15  2  0  0  0  0
 14 38  1  0  0  0  0
 15 16  1  0  0  0  0
 15 17  1  0  0  0  0
 17 18  1  0  0  0  0
 17 19  2  0  0  0  0
 19 20  1  0  0  0  0
 19 39  1  0  0  0  0
 21 22  1  0  0  0  0
 21 40  1  0  0  0  0
 21 41  1  0  0  0  0
 22 42  1  0  0  0  0
 22 43  1  0  0  0  0
M  CHG  1   5   1
M  END
> <s_m_source_file>
AV-unprocessed.smi

> <i_m_source_file_index>
1702

> <i_lp_mmshare_version>
43012

> <i_f3d_flags>
0

> <s_epik_input>
W0NIM11bQ0hdMVtDSDJdW0NIMl1OKFtDSDJdW0NIMl0xKVtDSDJdW0NASF0oW09IXSlbQ0gyXW4oW2NIXW4yKWMoYzIzKVtjSF1jKEYpYyhGKVtjSF0z

> <s_epik_cmdline>
J2VwaWtfcHl0aG9uJywgJy1waCcsICc3LjAnLCAnLXRuJywgJzgnLCAnLW1hJywgJzIwMCcsICctbWV0YWxfYmluZGluZycsICctaW1hZScsICc8aW5maWxlLm1hZT4nLCAnLW9tYWUnLCAnPG91dGZpbGUubWFlPic=

> <r_epik_Ionization_Penalty>
0.0135195

> <r_epik_Ionization_Penalty_Charging>
0.00181365

> <r_epik_Ionization_Penalty_Neutral>
0.0117059

> <r_epik_State_Penalty>
0.00902283

> <r_epik_Charging_Adjusted_Penalty>
0.0108365

> <i_epik_Tot_Q>
1

> <i_epik_Tot_abs_Q>
1

> <r_epik_Metal_State_Penalty>
9.09181e-06

> <b_epik_Metal_Only>
0

> <s_lp_Force_Field>
OPLS_2005

> <r_lp_Energy>
24.0829

> <b_lp_Chiralities_Consistent>
1

> <s_lp_Variant>
AV-unprocessed.smi:1702-3

> <Gold.Version>
5.8.1

> <Gold.Id.Protein>
6NUR|6NUR_protein|mol2

> <Gold.PLP.Fitness>
44.6530

> <Gold.PLP.PLP>
-36.3296

> <Gold.PLP.part.hbond>
-2.0000

> <Gold.PLP.part.metal>
0.0000

> <Gold.PLP.part.buried>
-5.1821

> <Gold.PLP.part.nonpolar>
-29.8676

> <Gold.PLP.part.repulsive>
0.0000

> <Gold.PLP.ligand.clash>
0.0000

> <Gold.PLP.ligand.torsion>
0.3697

> <Gold.PLP.Chemscore.Hbond>
3.0000

> <Gold.PLP.Chemscore.CHOScore>
0.0000

> <Gold.PLP.Chemscore.Metal>
0.0000

> <Gold.Chemscore.Hbonds>
donor molecule, donor type, donor heavy atom, donor atom, acceptor molecule, acceptor atom, score
      L1  H     5    44       P1  7948  2.00
      L1  H     8    34       P1  7948  1.00

> <Gold.PLP.Chemscore.Internal.Correction>
0.0628

> <Gold.Rescore>
     Score         DG    S(hbond)    S(metal)    S(lipo)     H(rot)  DE(clash)    DE(int)     intcor
     14.46     -14.81       1.93        0.00      74.14       2.26       0.00       0.35       ----

> <Gold.Chemscore.Fitness>
14.4632

> <Gold.Chemscore.DG>
-14.8103

> <Gold.Chemscore.ZeroCoef>
-5.4800

> <Gold.Chemscore.Hbond>
1.9300

> <Gold.Chemscore.Metal>
0.0000

> <Gold.Chemscore.Lipo>
74.1426

> <Gold.Chemscore.Internal_Hbond>
0.0000

> <Gold.Chemscore.DEClash>
0.0009

> <Gold.Chemscore.DEInternal>
0.3462

> <Gold.Chemscore.Rot>
2.2619

> <Gold.Chemscore.Internal.Correction>
   9.000000E+99

> <Gold.Chemscore.Hbonds>
donor molecule, donor type, donor heavy atom, donor atom, acceptor molecule, acceptor atom, score
      L1  H     5    44       P1  7948  0.55
      L1  H     8    34       P1  7948  0.82

> <Gold.Chemscore.Hbond.Weighted>
-6.4461

> <Gold.Chemscore.Metal.Weighted>
-0.0000

> <Gold.Chemscore.Lipo.Weighted>
-8.6747

> <Gold.Chemscore.Internal_Hbond.Weighted>
0.0000

> <Gold.Chemscore.DEClash.Weighted>
0.0009

> <Gold.Chemscore.DEInternal.Weighted>
0.3462

> <Gold.Chemscore.Rot.Weighted>
5.7904

> <Gold.Chemscore.Internal.Correction.Weighted>
   9.000000E+99

> <Gold.Protein.RotatedTorsions>
[ 6907 6896 6895 6894 ] final  130.64 input  -60.11 | X-H torsion
[ 7974 7965 7964 7962 ] final -163.23 input  175.53 | X-H torsion
[ 8008 7997 7996 7995 ] final  147.90 input   59.86 | X-H torsion
[ 10167 10162 10161 10158 ] final  140.27 input  -65.29 | X-H torsion
[ 10718 10713 10712 10709 ] final   29.61 input   66.30 | X-H torsion
[ 10763 10752 10751 10750 ] final -110.77 input  -60.55 | X-H torsion
[ 11005 11000 10999 10996 ] final  -26.90 input  -57.11 | X-H torsion

> <Gold.Protein.ActiveResidues>
 VAL166  LYS551  ARG553  GLY616  TRP617  ASP618  TYR619  PRO620  LYS621  CYS622 
 ASP623  PHE694  ASN695  SER759  ASP760  ASP761  ALA762  ILE779  LEU786  VAL792 
 PHE793  MET794  SER795  GLU796  ALA797  LYS798  CYS799  TRP800  GLU811  SER814 

> <Gold.Protein.RotatedAtoms>
  152.3506  133.6175  159.5942 H   0  0  0  0  0  0  0  0  0  0  0  0  # atno 6907 bound_to 6896
  150.7536  133.9579  159.3515 H   0  0  0  0  0  0  0  0  0  0  0  0  # atno 6908 bound_to 6896
  151.7432  135.0850  160.0370 H   0  0  0  0  0  0  0  0  0  0  0  0  # atno 6909 bound_to 6896
  144.7332  140.3138  143.6183 H   0  0  0  0  0  0  0  0  0  0  0  0  # atno 7974 bound_to 7965
  156.2809  140.2143  156.5611 H   0  0  0  0  0  0  0  0  0  0  0  0  # atno 8008 bound_to 7997
  154.7212  140.0503  157.0664 H   0  0  0  0  0  0  0  0  0  0  0  0  # atno 8009 bound_to 7997
  155.0476  140.3152  155.4706 H   0  0  0  0  0  0  0  0  0  0  0  0  # atno 8010 bound_to 7997
  139.5054  144.6244  151.5972 H   0  0  0  0  0  0  0  0  0  0  0  0  # atno 10167 bound_to 10162
  157.2488  130.7105  149.6395 H   0  0  0  0  0  0  0  0  0  0  0  0  # atno 10718 bound_to 10713
  154.8265  135.4552  154.0936 H   0  0  0  0  0  0  0  0  0  0  0  0  # atno 10763 bound_to 10752
  153.2245  135.6898  153.7967 H   0  0  0  0  0  0  0  0  0  0  0  0  # atno 10764 bound_to 10752
  153.7372  135.3318  155.3274 H   0  0  0  0  0  0  0  0  0  0  0  0  # atno 10765 bound_to 10752
  140.9071  133.7485  156.0620 H   0  0  0  0  0  0  0  0  0  0  0  0  # atno 11005 bound_to 11000
  145.7638  139.1834  143.2251 LP  0  0  0  0  0  0  0  0  0  0  0  0  # atno 17320 bound_to 7965
  146.0965  140.7594  142.9570 LP  0  0  0  0  0  0  0  0  0  0  0  0  # atno 17321 bound_to 7965
  140.5957  143.9700  150.6353 LP  0  0  0  0  0  0  0  0  0  0  0  0  # atno 17342 bound_to 10162
  140.2895  143.3334  152.1075 LP  0  0  0  0  0  0  0  0  0  0  0  0  # atno 17343 bound_to 10162
  155.9667  130.4434  150.5420 LP  0  0  0  0  0  0  0  0  0  0  0  0  # atno 17370 bound_to 10713
  157.3300  131.0698  151.1868 LP  0  0  0  0  0  0  0  0  0  0  0  0  # atno 17371 bound_to 10713
  140.8157  134.3347  157.5398 LP  0  0  0  0  0  0  0  0  0  0  0  0  # atno 17394 bound_to 11000
  139.8751  134.9280  156.3440 LP  0  0  0  0  0  0  0  0  0  0  0  0  # atno 17395 bound_to 11000

$$$$
