AV-unprocessed.smi:2351|AV-procd|sdf|9374|dock2
  -GOLD-   2272013 03D 1   1.00000     0.00000
 Structure written by MMmdl.
 47 49  0  0  0  0  0  0  0  0  2 V2000
  144.5901  136.5818  152.5642 O   0  0  0  0  0  0  0  0  0  0  0  0
  145.8109  136.5290  152.4132 C   0  0  0  0  0  0  0  0  0  0  0  0
  146.4711  135.5156  151.8294 N   0  0  0  0  0  0  0  0  0  0  0  0
  145.9082  134.3249  151.3022 C   0  0  0  0  0  0  0  0  0  0  0  0
  144.6561  134.4061  150.6588 C   0  0  0  0  0  0  0  0  0  0  0  0
  144.0988  133.2328  150.1122 C   0  0  0  0  0  0  0  0  0  0  0  0
  144.7095  132.0299  150.1582 N   0  0  0  0  0  0  0  0  0  0  0  0
  145.9202  131.9601  150.7521 C   0  0  0  0  0  0  0  0  0  0  0  0
  146.5682  133.0714  151.3288 C   0  0  0  0  0  0  0  0  0  0  0  0
  147.8054  132.9265  151.8617 F   0  0  0  0  0  0  0  0  0  0  0  0
  146.6480  137.5019  152.8016 N   0  0  0  0  0  0  0  0  0  0  0  0
  146.2444  138.7382  153.4651 C   0  0  2  0  0  0  0  0  0  0  0  0
  147.4180  139.7300  153.4831 C   0  0  0  0  0  0  0  0  0  0  0  0
  147.0521  141.0103  154.2525 C   0  0  0  0  0  0  0  0  0  0  0  0
  146.6150  140.6995  155.6383 N   0  3  1  0  0  0  0  0  0  0  0  0
  146.3899  141.9256  156.4462 C   0  0  0  0  0  0  0  0  0  0  0  0
  145.1998  142.7619  155.9355 C   0  0  2  0  0  0  0  0  0  0  0  0
  145.5037  143.5460  154.6748 C   0  0  0  0  0  0  0  0  0  0  0  0
  144.3982  144.5977  154.6819 C   0  0  0  0  0  0  0  0  0  0  0  0
  144.1132  144.8502  156.0549 O   0  0  0  0  0  0  0  0  0  0  0  0
  144.7698  143.8895  156.8756 C   0  0  0  0  0  0  0  0  0  0  0  0
  145.4539  139.7702  155.6460 C   0  0  0  0  0  0  0  0  0  0  0  0
  145.7840  138.4624  154.9083 C   0  0  0  0  0  0  0  0  0  0  0  0
  147.4547  135.6559  151.6512 H   0  0  0  0  0  0  0  0  0  0  0  0
  144.1244  135.3443  150.5923 H   0  0  0  0  0  0  0  0  0  0  0  0
  143.1365  133.2622  149.6227 H   0  0  0  0  0  0  0  0  0  0  0  0
  146.3947  130.9899  150.7554 H   0  0  0  0  0  0  0  0  0  0  0  0
  147.6351  137.3766  152.6294 H   0  0  0  0  0  0  0  0  0  0  0  0
  145.4216  139.1904  152.9075 H   0  0  0  0  0  0  0  0  0  0  0  0
  148.2902  139.2663  153.9467 H   0  0  0  0  0  0  0  0  0  0  0  0
  147.7088  139.9842  152.4631 H   0  0  0  0  0  0  0  0  0  0  0  0
  147.9212  141.6687  154.2787 H   0  0  0  0  0  0  0  0  0  0  0  0
  146.2601  141.5508  153.7316 H   0  0  0  0  0  0  0  0  0  0  0  0
  146.1946  141.6493  157.4835 H   0  0  0  0  0  0  0  0  0  0  0  0
  147.3014  142.5251  156.4596 H   0  0  0  0  0  0  0  0  0  0  0  0
  144.3397  142.1243  155.7300 H   0  0  0  0  0  0  0  0  0  0  0  0
  146.4783  144.0309  154.7503 H   0  0  0  0  0  0  0  0  0  0  0  0
  145.4976  142.9312  153.7742 H   0  0  0  0  0  0  0  0  0  0  0  0
  144.6873  145.5098  154.1592 H   0  0  0  0  0  0  0  0  0  0  0  0
  143.4972  144.2065  154.2076 H   0  0  0  0  0  0  0  0  0  0  0  0
  144.1166  143.5396  157.6756 H   0  0  0  0  0  0  0  0  0  0  0  0
  145.6376  144.3665  157.3335 H   0  0  0  0  0  0  0  0  0  0  0  0
  145.1631  139.5315  156.6681 H   0  0  0  0  0  0  0  0  0  0  0  0
  144.5946  140.2547  155.1799 H   0  0  0  0  0  0  0  0  0  0  0  0
  144.9073  137.8136  154.9084 H   0  0  0  0  0  0  0  0  0  0  0  0
  146.5640  137.9268  155.4517 H   0  0  0  0  0  0  0  0  0  0  0  0
  147.3862  140.2114  156.0709 H   0  0  0  0  0  0  0  0  0  0  0  0
  1  2  2  0  0  0  0
  2  3  1  0  0  0  0
  2 11  1  0  0  0  0
  3  4  1  0  0  0  0
  3 24  1  0  0  0  0
  4  9  1  0  0  0  0
  4  5  2  0  0  0  0
  5  6  1  0  0  0  0
  5 25  1  0  0  0  0
  6  7  2  0  0  0  0
  6 26  1  0  0  0  0
  7  8  1  0  0  0  0
  8  9  2  0  0  0  0
  8 27  1  0  0  0  0
  9 10  1  0  0  0  0
 11 12  1  0  0  0  0
 11 28  1  0  0  0  0
 12 23  1  0  0  0  0
 12 13  1  0  0  0  0
 12 29  1  0  0  0  0
 13 14  1  0  0  0  0
 13 30  1  0  0  0  0
 13 31  1  0  0  0  0
 14 15  1  0  0  0  0
 14 32  1  0  0  0  0
 14 33  1  0  0  0  0
 15 16  1  0  0  0  0
 15 22  1  0  0  0  0
 15 47  1  0  0  0  0
 16 17  1  0  0  0  0
 16 34  1  0  0  0  0
 16 35  1  0  0  0  0
 17 21  1  0  0  0  0
 17 18  1  0  0  0  0
 17 36  1  0  0  0  0
 18 19  1  0  0  0  0
 18 37  1  0  0  0  0
 18 38  1  0  0  0  0
 19 20  1  0  0  0  0
 19 39  1  0  0  0  0
 19 40  1  0  0  0  0
 20 21  1  0  0  0  0
 21 41  1  0  0  0  0
 21 42  1  0  0  0  0
 22 23  1  0  0  0  0
 22 43  1  0  0  0  0
 22 44  1  0  0  0  0
 23 45  1  0  0  0  0
 23 46  1  0  0  0  0
M  CHG  1  15   1
M  END
> <s_m_source_file>
AV-unprocessed.smi

> <i_m_source_file_index>
2351

> <i_lp_mmshare_version>
43012

> <i_f3d_flags>
0

> <s_epik_input>
RmMxW2NIXW5bY0hdW2NIXWMxW05IXUMoPU8pW05IXVtDSF0yW0NIMl1bQ0gyXU4oW0NIMl1bQ0gyXTIpW0NIMl1bQ0BASF0zW0NIMl1bQ0gyXU9bQ0gyXTM=

> <s_epik_cmdline>
J2VwaWtfcHl0aG9uJywgJy1waCcsICc3LjAnLCAnLXRuJywgJzgnLCAnLW1hJywgJzIwMCcsICctbWV0YWxfYmluZGluZycsICctaW1hZScsICc8aW5maWxlLm1hZT4nLCAnLW9tYWUnLCAnPG91dGZpbGUubWFlPic=

> <r_epik_Ionization_Penalty>
0.0102464

> <r_epik_Ionization_Penalty_Charging>
0.00747775

> <r_epik_Ionization_Penalty_Neutral>
0.00276864

> <r_epik_State_Penalty>
0.00558817

> <r_epik_Charging_Adjusted_Penalty>
0.0130659

> <i_epik_Tot_Q>
1

> <i_epik_Tot_abs_Q>
1

> <r_epik_Metal_State_Penalty>
-0

> <b_epik_Metal_Only>
0

> <s_lp_Force_Field>
OPLS_2005

> <r_lp_Energy>
40.2239

> <b_lp_Chiralities_Consistent>
1

> <s_lp_Variant>
AV-unprocessed.smi:2351-1

> <Gold.Version>
5.8.1

> <Gold.Id.Protein>
6NUR|6NUR_protein|mol2

> <Gold.PLP.Fitness>
43.3767

> <Gold.PLP.PLP>
-34.2082

> <Gold.PLP.part.hbond>
-2.0000

> <Gold.PLP.part.metal>
0.0000

> <Gold.PLP.part.buried>
-1.5256

> <Gold.PLP.part.nonpolar>
-31.2008

> <Gold.PLP.part.repulsive>
0.5162

> <Gold.PLP.ligand.clash>
0.0000

> <Gold.PLP.ligand.torsion>
0.4656

> <Gold.PLP.Chemscore.Hbond>
1.9120

> <Gold.PLP.Chemscore.CHOScore>
1.3998

> <Gold.PLP.Chemscore.Metal>
0.0000

> <Gold.Chemscore.Hbonds>
donor molecule, donor type, donor heavy atom, donor atom, acceptor molecule, acceptor atom, score
      L1  H     3    24       P1  7948  1.00
      L1  H    11    28       P1  7948  0.90
      L1  C     6    26       P1 10186  1.00
      L1  C     8    27       P1 10747  0.60

> <Gold.PLP.Chemscore.Internal.Correction>
0.1642

> <Gold.Rescore>
     Score         DG    S(hbond)    S(metal)    S(lipo)     H(rot)  DE(clash)    DE(int)     intcor
     15.46     -17.37       1.89        0.00      79.32       1.45       0.09       1.82       ----

> <Gold.Chemscore.Fitness>
15.4604

> <Gold.Chemscore.DG>
-17.3660

> <Gold.Chemscore.ZeroCoef>
-5.4800

> <Gold.Chemscore.Hbond>
1.8903

> <Gold.Chemscore.Metal>
0.0000

> <Gold.Chemscore.Lipo>
79.3187

> <Gold.Chemscore.Internal_Hbond>
0.0000

> <Gold.Chemscore.DEClash>
0.0862

> <Gold.Chemscore.DEInternal>
1.8194

> <Gold.Chemscore.Rot>
1.4483

> <Gold.Chemscore.Internal.Correction>
   9.000000E+99

> <Gold.Chemscore.Hbonds>
donor molecule, donor type, donor heavy atom, donor atom, acceptor molecule, acceptor atom, score
      L1  H     3    24       P1  7948  0.96
      L1  H    11    28       P1  7948  0.88

> <Gold.Chemscore.Hbond.Weighted>
-6.3135

> <Gold.Chemscore.Metal.Weighted>
-0.0000

> <Gold.Chemscore.Lipo.Weighted>
-9.2803

> <Gold.Chemscore.Internal_Hbond.Weighted>
0.0000

> <Gold.Chemscore.DEClash.Weighted>
0.0862

> <Gold.Chemscore.DEInternal.Weighted>
1.8194

> <Gold.Chemscore.Rot.Weighted>
3.7077

> <Gold.Chemscore.Internal.Correction.Weighted>
   9.000000E+99

> <Gold.Protein.RotatedTorsions>
[ 6907 6896 6895 6894 ] final   83.81 input  -60.11 | X-H torsion
[ 7974 7965 7964 7962 ] final   54.71 input  175.53 | X-H torsion
[ 8008 7997 7996 7995 ] final -169.98 input   59.86 | X-H torsion
[ 10167 10162 10161 10158 ] final -129.55 input  -65.29 | X-H torsion
[ 10718 10713 10712 10709 ] final -101.18 input   66.30 | X-H torsion
[ 10763 10752 10751 10750 ] final  -52.72 input  -60.55 | X-H torsion
[ 11005 11000 10999 10996 ] final   28.61 input  -57.11 | X-H torsion

> <Gold.Protein.ActiveResidues>
 VAL166  LYS551  ARG553  GLY616  TRP617  ASP618  TYR619  PRO620  LYS621  CYS622 
 ASP623  PHE694  ASN695  SER759  ASP760  ASP761  ALA762  ILE779  LEU786  VAL792 
 PHE793  MET794  SER795  GLU796  ALA797  LYS798  CYS799  TRP800  GLU811  SER814 

> <Gold.Protein.RotatedAtoms>
  152.5337  134.2838  159.9017 H   0  0  0  0  0  0  0  0  0  0  0  0  # atno 6907 bound_to 6896
  151.2792  133.4211  159.2633 H   0  0  0  0  0  0  0  0  0  0  0  0  # atno 6908 bound_to 6896
  151.0299  134.9547  159.8162 H   0  0  0  0  0  0  0  0  0  0  0  0  # atno 6909 bound_to 6896
  145.9580  139.4033  143.0265 H   0  0  0  0  0  0  0  0  0  0  0  0  # atno 7974 bound_to 7965
  155.9122  140.1059  157.1271 H   0  0  0  0  0  0  0  0  0  0  0  0  # atno 8008 bound_to 7997
  154.4041  140.1272  156.4636 H   0  0  0  0  0  0  0  0  0  0  0  0  # atno 8009 bound_to 7997
  155.7297  140.3468  155.5056 H   0  0  0  0  0  0  0  0  0  0  0  0  # atno 8010 bound_to 7997
  139.9386  143.6189  152.2510 H   0  0  0  0  0  0  0  0  0  0  0  0  # atno 10167 bound_to 10162
  156.0186  130.5362  150.6926 H   0  0  0  0  0  0  0  0  0  0  0  0  # atno 10718 bound_to 10713
  154.1473  135.6495  153.4955 H   0  0  0  0  0  0  0  0  0  0  0  0  # atno 10763 bound_to 10752
  153.0148  135.5329  154.6844 H   0  0  0  0  0  0  0  0  0  0  0  0  # atno 10764 bound_to 10752
  154.6122  135.2955  155.0391 H   0  0  0  0  0  0  0  0  0  0  0  0  # atno 10765 bound_to 10752
  140.3137  134.2621  155.7729 H   0  0  0  0  0  0  0  0  0  0  0  0  # atno 11005 bound_to 11000
  145.8079  140.9740  143.0964 LP  0  0  0  0  0  0  0  0  0  0  0  0  # atno 17320 bound_to 7965
  144.6809  139.9884  143.7484 LP  0  0  0  0  0  0  0  0  0  0  0  0  # atno 17321 bound_to 7965
  139.6723  144.7660  151.1761 LP  0  0  0  0  0  0  0  0  0  0  0  0  # atno 17342 bound_to 10162
  140.7617  143.5847  150.8858 LP  0  0  0  0  0  0  0  0  0  0  0  0  # atno 17343 bound_to 10162
  157.4604  131.0882  151.0752 LP  0  0  0  0  0  0  0  0  0  0  0  0  # atno 17370 bound_to 10713
  157.1241  130.6074  149.5512 LP  0  0  0  0  0  0  0  0  0  0  0  0  # atno 17371 bound_to 10713
  141.2102  133.7725  156.9945 LP  0  0  0  0  0  0  0  0  0  0  0  0  # atno 17394 bound_to 11000
  140.1002  134.9540  157.1911 LP  0  0  0  0  0  0  0  0  0  0  0  0  # atno 17395 bound_to 11000

$$$$
