AV-unprocessed.smi:400|AV-procd|sdf|2492|dock9
  -GOLD-   2262022433D 1   1.00000     0.00000
 Structure written by MMmdl.
 40 41  0  0  0  0  0  0  0  0  1 V2000
  147.2093  132.7082  152.6043 C   0  0  0  0  0  0  0  0  0  0  0  0
  145.8915  131.9352  152.7709 C   0  0  0  0  0  0  0  0  0  0  0  0
  144.8954  132.1195  151.6043 C   0  0  2  0  0  0  0  0  0  0  0  0
  145.5823  131.8689  150.2507 C   0  0  0  0  0  0  0  0  0  0  0  0
  144.2472  133.5130  151.6176 C   0  0  0  0  0  0  0  0  0  0  0  0
  144.5128  134.3162  150.7224 O   0  0  0  0  0  0  0  0  0  0  0  0
  143.4109  133.7618  152.6434 N   0  0  0  0  0  0  0  0  0  0  0  0
  142.6819  134.9492  152.9175 C   0  0  0  0  0  0  0  0  0  0  0  0
  141.3841  134.7503  153.4336 C   0  0  0  0  0  0  0  0  0  0  0  0
  140.5805  135.8647  153.7412 C   0  0  0  0  0  0  0  0  0  0  0  0
  141.0870  137.1696  153.5318 C   0  0  0  0  0  0  0  0  0  0  0  0
  140.3409  138.3341  153.8161 N   0  0  0  0  0  0  0  0  0  0  0  0
  141.0656  139.5705  154.0953 C   0  0  0  0  0  0  0  0  0  0  0  0
  140.1144  140.6292  154.6795 C   0  0  0  0  0  0  0  0  0  0  0  0
  139.0131  140.8230  153.7985 O   0  0  0  0  0  0  0  0  0  0  0  0
  138.2539  139.6301  153.6314 C   0  0  0  0  0  0  0  0  0  0  0  0
  139.1365  138.5318  153.0128 C   0  0  0  0  0  0  0  0  0  0  0  0
  142.3963  137.2628  153.0060 C   0  0  0  0  0  0  0  0  0  0  0  0
  143.1674  136.1961  152.7095 N   0  0  0  0  0  0  0  0  0  0  0  0
  147.8410  132.5863  153.4843 H   0  0  0  0  0  0  0  0  0  0  0  0
  147.0256  133.7749  152.4740 H   0  0  0  0  0  0  0  0  0  0  0  0
  147.7780  132.3569  151.7431 H   0  0  0  0  0  0  0  0  0  0  0  0
  146.1106  130.8759  152.9132 H   0  0  0  0  0  0  0  0  0  0  0  0
  145.4172  132.2659  153.6956 H   0  0  0  0  0  0  0  0  0  0  0  0
  144.1079  131.3714  151.7128 H   0  0  0  0  0  0  0  0  0  0  0  0
  144.8904  132.0144  149.4202 H   0  0  0  0  0  0  0  0  0  0  0  0
  145.9560  130.8466  150.1868 H   0  0  0  0  0  0  0  0  0  0  0  0
  146.4296  132.5392  150.1001 H   0  0  0  0  0  0  0  0  0  0  0  0
  143.2853  133.0117  153.3071 H   0  0  0  0  0  0  0  0  0  0  0  0
  141.0023  133.7529  153.5968 H   0  0  0  0  0  0  0  0  0  0  0  0
  139.5927  135.6949  154.1421 H   0  0  0  0  0  0  0  0  0  0  0  0
  141.8729  139.3832  154.8044 H   0  0  0  0  0  0  0  0  0  0  0  0
  141.5150  139.9432  153.1739 H   0  0  0  0  0  0  0  0  0  0  0  0
  139.7568  140.3289  155.6657 H   0  0  0  0  0  0  0  0  0  0  0  0
  140.6392  141.5761  154.8064 H   0  0  0  0  0  0  0  0  0  0  0  0
  137.8476  139.3072  154.5914 H   0  0  0  0  0  0  0  0  0  0  0  0
  137.4042  139.8387  152.9812 H   0  0  0  0  0  0  0  0  0  0  0  0
  139.4313  138.8172  152.0022 H   0  0  0  0  0  0  0  0  0  0  0  0
  138.5525  137.6168  152.9253 H   0  0  0  0  0  0  0  0  0  0  0  0
  142.8452  138.2218  152.7943 H   0  0  0  0  0  0  0  0  0  0  0  0
  1  2  1  0  0  0  0
  1 20  1  0  0  0  0
  1 21  1  0  0  0  0
  1 22  1  0  0  0  0
  2  3  1  0  0  0  0
  2 23  1  0  0  0  0
  2 24  1  0  0  0  0
  3  4  1  0  0  0  0
  3  5  1  0  0  0  0
  3 25  1  0  0  0  0
  4 26  1  0  0  0  0
  4 27  1  0  0  0  0
  4 28  1  0  0  0  0
  5  6  2  0  0  0  0
  5  7  1  0  0  0  0
  7  8  1  0  0  0  0
  7 29  1  0  0  0  0
  8 19  1  0  0  0  0
  8  9  2  0  0  0  0
  9 10  1  0  0  0  0
  9 30  1  0  0  0  0
 10 11  2  0  0  0  0
 10 31  1  0  0  0  0
 11 12  1  0  0  0  0
 11 18  1  0  0  0  0
 12 17  1  0  0  0  0
 12 13  1  0  0  0  0
 13 14  1  0  0  0  0
 13 32  1  0  0  0  0
 13 33  1  0  0  0  0
 14 15  1  0  0  0  0
 14 34  1  0  0  0  0
 14 35  1  0  0  0  0
 15 16  1  0  0  0  0
 16 17  1  0  0  0  0
 16 36  1  0  0  0  0
 16 37  1  0  0  0  0
 17 38  1  0  0  0  0
 17 39  1  0  0  0  0
 18 19  2  0  0  0  0
 18 40  1  0  0  0  0
M  END
> <s_m_source_file>
AV-unprocessed.smi

> <i_m_source_file_index>
400

> <i_lp_mmshare_version>
43012

> <i_f3d_flags>
0

> <s_epik_input>
W0NIM11bQ0gyXVtDQEhdKFtDSDNdKUMoPU8pW05IXWMxW2NIXVtjSF1jKFtjSF1uMSlOMltDSDJdW0NIMl1PW0NIMl1bQ0gyXTI=

> <s_epik_cmdline>
J2VwaWtfcHl0aG9uJywgJy1waCcsICc3LjAnLCAnLXRuJywgJzgnLCAnLW1hJywgJzIwMCcsICctbWV0YWxfYmluZGluZycsICctaW1hZScsICc8aW5maWxlLm1hZT4nLCAnLW9tYWUnLCAnPG91dGZpbGUubWFlPic=

> <r_lp_tautomer_probability>
1

> <r_epik_Ionization_Penalty>
0.00393323

> <r_epik_Ionization_Penalty_Charging>
0

> <r_epik_Ionization_Penalty_Neutral>
0.00393323

> <r_epik_State_Penalty>
0.00357844

> <r_epik_Charging_Adjusted_Penalty>
0.00357844

> <i_epik_Tot_Q>
0

> <i_epik_Tot_abs_Q>
0

> <r_epik_Metal_State_Penalty>
-0

> <b_epik_Metal_Only>
0

> <s_lp_Force_Field>
OPLS_2005

> <r_lp_Energy>
25.3319

> <b_lp_Chiralities_Consistent>
1

> <s_lp_Variant>
AV-unprocessed.smi:400-1

> <Gold.Version>
5.8.1

> <Gold.Id.Protein>
6NUR|6NUR_protein|mol2

> <Gold.PLP.Fitness>
37.4374

> <Gold.PLP.PLP>
-32.8318

> <Gold.PLP.part.hbond>
-1.0000

> <Gold.PLP.part.metal>
0.0000

> <Gold.PLP.part.buried>
-5.3504

> <Gold.PLP.part.nonpolar>
-28.1802

> <Gold.PLP.part.repulsive>
0.6402

> <Gold.PLP.ligand.clash>
0.0000

> <Gold.PLP.ligand.torsion>
0.8986

> <Gold.PLP.Chemscore.Hbond>
1.0000

> <Gold.PLP.Chemscore.CHOScore>
1.0000

> <Gold.PLP.Chemscore.Metal>
0.0000

> <Gold.Chemscore.Hbonds>
donor molecule, donor type, donor heavy atom, donor atom, acceptor molecule, acceptor atom, score
      L1  H     7    29       P1 10957  1.00
      L1  C    18    40       P1 10175  1.00

> <Gold.PLP.Chemscore.Internal.Correction>
0.4029

> <Gold.Rescore>
     Score         DG    S(hbond)    S(metal)    S(lipo)     H(rot)  DE(clash)    DE(int)     intcor
     12.52     -14.20       0.87        0.00      78.19       1.30       0.01       1.67       ----

> <Gold.Chemscore.Fitness>
12.5233

> <Gold.Chemscore.DG>
-14.2038

> <Gold.Chemscore.ZeroCoef>
-5.4800

> <Gold.Chemscore.Hbond>
0.8724

> <Gold.Chemscore.Metal>
0.0000

> <Gold.Chemscore.Lipo>
78.1921

> <Gold.Chemscore.Internal_Hbond>
0.0000

> <Gold.Chemscore.DEClash>
0.0148

> <Gold.Chemscore.DEInternal>
1.6657

> <Gold.Chemscore.Rot>
1.3041

> <Gold.Chemscore.Internal.Correction>
   9.000000E+99

> <Gold.Chemscore.Hbonds>
donor molecule, donor type, donor heavy atom, donor atom, acceptor molecule, acceptor atom, score
      L1  H     7    29       P1 10957  0.74

> <Gold.Chemscore.Hbond.Weighted>
-2.9139

> <Gold.Chemscore.Metal.Weighted>
-0.0000

> <Gold.Chemscore.Lipo.Weighted>
-9.1485

> <Gold.Chemscore.Internal_Hbond.Weighted>
0.0000

> <Gold.Chemscore.DEClash.Weighted>
0.0148

> <Gold.Chemscore.DEInternal.Weighted>
1.6657

> <Gold.Chemscore.Rot.Weighted>
3.3385

> <Gold.Chemscore.Internal.Correction.Weighted>
   9.000000E+99

> <Gold.Protein.RotatedTorsions>
[ 6907 6896 6895 6894 ] final  -51.59 input  -60.11 | X-H torsion
[ 7974 7965 7964 7962 ] final  -19.09 input  175.53 | X-H torsion
[ 8008 7997 7996 7995 ] final  -10.29 input   59.86 | X-H torsion
[ 10167 10162 10161 10158 ] final  -10.89 input  -65.29 | X-H torsion
[ 10718 10713 10712 10709 ] final  -12.36 input   66.30 | X-H torsion
[ 10763 10752 10751 10750 ] final   71.29 input  -60.55 | X-H torsion
[ 11005 11000 10999 10996 ] final -163.93 input  -57.11 | X-H torsion

> <Gold.Protein.ActiveResidues>
 VAL166  LYS551  ARG553  GLY616  TRP617  ASP618  TYR619  PRO620  LYS621  CYS622 
 ASP623  PHE694  ASN695  SER759  ASP760  ASP761  ALA762  ILE779  LEU786  VAL792 
 PHE793  MET794  SER795  GLU796  ALA797  LYS798  CYS799  TRP800  GLU811  SER814 

> <Gold.Protein.RotatedAtoms>
  150.8597  134.7946  159.7073 H   0  0  0  0  0  0  0  0  0  0  0  0  # atno 6907 bound_to 6896
  152.4638  134.5119  159.9766 H   0  0  0  0  0  0  0  0  0  0  0  0  # atno 6908 bound_to 6896
  151.5226  133.3425  159.2939 H   0  0  0  0  0  0  0  0  0  0  0  0  # atno 6909 bound_to 6896
  146.1859  140.4013  142.8476 H   0  0  0  0  0  0  0  0  0  0  0  0  # atno 7974 bound_to 7965
  154.5567  140.2332  155.8398 H   0  0  0  0  0  0  0  0  0  0  0  0  # atno 8008 bound_to 7997
  156.1995  140.3056  155.9456 H   0  0  0  0  0  0  0  0  0  0  0  0  # atno 8009 bound_to 7997
  155.2965  140.0429  157.3017 H   0  0  0  0  0  0  0  0  0  0  0  0  # atno 8010 bound_to 7997
  140.7125  143.5699  150.9104 H   0  0  0  0  0  0  0  0  0  0  0  0  # atno 10167 bound_to 10162
  156.6458  130.4941  149.6079 H   0  0  0  0  0  0  0  0  0  0  0  0  # atno 10718 bound_to 10713
  153.0390  135.5142  154.7571 H   0  0  0  0  0  0  0  0  0  0  0  0  # atno 10763 bound_to 10752
  154.6524  135.2927  154.9973 H   0  0  0  0  0  0  0  0  0  0  0  0  # atno 10764 bound_to 10752
  154.0853  135.6658  153.4896 H   0  0  0  0  0  0  0  0  0  0  0  0  # atno 10765 bound_to 10752
  140.5926  134.5029  157.5195 H   0  0  0  0  0  0  0  0  0  0  0  0  # atno 11005 bound_to 11000
  144.8397  140.6837  143.6237 LP  0  0  0  0  0  0  0  0  0  0  0  0  # atno 17320 bound_to 7965
  145.3939  139.1611  143.4214 LP  0  0  0  0  0  0  0  0  0  0  0  0  # atno 17321 bound_to 7965
  139.9425  143.6366  152.3050 LP  0  0  0  0  0  0  0  0  0  0  0  0  # atno 17342 bound_to 10162
  139.6855  144.7652  151.1531 LP  0  0  0  0  0  0  0  0  0  0  0  0  # atno 17343 bound_to 10162
  156.2123  130.6686  151.1282 LP  0  0  0  0  0  0  0  0  0  0  0  0  # atno 17370 bound_to 10713
  157.7157  131.0711  150.6337 LP  0  0  0  0  0  0  0  0  0  0  0  0  # atno 17371 bound_to 10713
  139.9267  134.8041  156.1047 LP  0  0  0  0  0  0  0  0  0  0  0  0  # atno 17394 bound_to 11000
  141.0925  133.6708  156.2572 LP  0  0  0  0  0  0  0  0  0  0  0  0  # atno 17395 bound_to 11000

$$$$
