AV-unprocessed.smi:2771|AV-procd|sdf|10662|dock6
  -GOLD-   2272015103D 1   1.00000     0.00000
 Structure written by MMmdl.
 43 44  0  0  0  0  0  0  0  0  1 V2000
  150.8735  139.5361  154.9755 C   0  0  0  0  0  0  0  0  0  0  0  0
  149.6044  140.3035  154.6697 C   0  0  0  0  0  0  0  0  0  0  0  0
  149.5094  141.6834  154.9357 C   0  0  0  0  0  0  0  0  0  0  0  0
  148.3021  142.3360  154.6281 C   0  0  0  0  0  0  0  0  0  0  0  0
  147.2468  141.5869  154.0721 C   0  0  0  0  0  0  0  0  0  0  0  0
  147.4236  140.2045  153.8382 C   0  0  0  0  0  0  0  0  0  0  0  0
  146.3016  139.5393  153.2758 N   0  0  0  0  0  0  0  0  0  0  0  0
  146.0997  138.2161  153.1468 C   0  0  0  0  0  0  0  0  0  0  0  0
  146.8799  137.3369  153.5137 O   0  0  0  0  0  0  0  0  0  0  0  0
  144.9191  137.9597  152.5655 N   0  0  0  0  0  0  0  0  0  0  0  0
  144.3872  136.6288  152.2881 C   0  0  0  0  0  0  0  0  0  0  0  0
  145.3991  135.7665  151.4971 C   0  0  2  0  0  0  0  0  0  0  0  0
  145.3106  136.1891  150.1490 O   0  0  0  0  0  0  0  0  0  0  0  0
  145.1204  134.2373  151.5349 C   0  0  0  0  0  0  0  0  0  0  0  0
  146.2134  133.4087  150.8133 C   0  0  0  0  0  0  0  0  0  0  0  0
  145.9126  131.9007  150.8303 C   0  0  0  0  0  0  0  0  0  0  0  0
  144.5396  131.5949  150.2198 C   0  0  0  0  0  0  0  0  0  0  0  0
  143.4416  132.3903  150.9360 C   0  0  0  0  0  0  0  0  0  0  0  0
  143.7418  133.8972  150.9116 C   0  0  0  0  0  0  0  0  0  0  0  0
  148.5921  139.5849  154.1385 N   0  0  0  0  0  0  0  0  0  0  0  0
  151.7027  140.2125  155.1840 H   0  0  0  0  0  0  0  0  0  0  0  0
  151.1539  138.9077  154.1296 H   0  0  0  0  0  0  0  0  0  0  0  0
  150.7264  138.8958  155.8455 H   0  0  0  0  0  0  0  0  0  0  0  0
  150.3376  142.2292  155.3634 H   0  0  0  0  0  0  0  0  0  0  0  0
  148.1858  143.3931  154.8155 H   0  0  0  0  0  0  0  0  0  0  0  0
  146.3130  142.0732  153.8302 H   0  0  0  0  0  0  0  0  0  0  0  0
  145.5668  140.1408  152.9344 H   0  0  0  0  0  0  0  0  0  0  0  0
  144.3411  138.7427  152.2975 H   0  0  0  0  0  0  0  0  0  0  0  0
  144.1912  136.2022  153.2687 H   0  0  0  0  0  0  0  0  0  0  0  0
  143.4193  136.6732  151.7849 H   0  0  0  0  0  0  0  0  0  0  0  0
  146.4111  135.9541  151.8592 H   0  0  0  0  0  0  0  0  0  0  0  0
  144.8258  137.0005  150.1199 H   0  0  0  0  0  0  0  0  0  0  0  0
  145.1017  133.9248  152.5803 H   0  0  0  0  0  0  0  0  0  0  0  0
  146.3116  133.7492  149.7817 H   0  0  0  0  0  0  0  0  0  0  0  0
  147.1863  133.5526  151.2792 H   0  0  0  0  0  0  0  0  0  0  0  0
  146.6884  131.3618  150.2855 H   0  0  0  0  0  0  0  0  0  0  0  0
  145.9453  131.5341  151.8571 H   0  0  0  0  0  0  0  0  0  0  0  0
  144.5445  131.8468  149.1584 H   0  0  0  0  0  0  0  0  0  0  0  0
  144.3305  130.5268  150.2857 H   0  0  0  0  0  0  0  0  0  0  0  0
  142.4767  132.1964  150.4664 H   0  0  0  0  0  0  0  0  0  0  0  0
  143.3560  132.0511  151.9690 H   0  0  0  0  0  0  0  0  0  0  0  0
  142.9402  134.4132  151.4401 H   0  0  0  0  0  0  0  0  0  0  0  0
  143.7076  134.2559  149.8818 H   0  0  0  0  0  0  0  0  0  0  0  0
  1  2  1  0  0  0  0
  1 21  1  0  0  0  0
  1 22  1  0  0  0  0
  1 23  1  0  0  0  0
  2 20  1  0  0  0  0
  2  3  2  0  0  0  0
  3  4  1  0  0  0  0
  3 24  1  0  0  0  0
  4  5  2  0  0  0  0
  4 25  1  0  0  0  0
  5  6  1  0  0  0  0
  5 26  1  0  0  0  0
  6  7  1  0  0  0  0
  6 20  2  0  0  0  0
  7  8  1  0  0  0  0
  7 27  1  0  0  0  0
  8  9  2  0  0  0  0
  8 10  1  0  0  0  0
 10 11  1  0  0  0  0
 10 28  1  0  0  0  0
 11 12  1  0  0  0  0
 11 29  1  0  0  0  0
 11 30  1  0  0  0  0
 12 13  1  0  0  0  0
 12 14  1  0  0  0  0
 12 31  1  0  0  0  0
 13 32  1  0  0  0  0
 14 19  1  0  0  0  0
 14 15  1  0  0  0  0
 14 33  1  0  0  0  0
 15 16  1  0  0  0  0
 15 34  1  0  0  0  0
 15 35  1  0  0  0  0
 16 17  1  0  0  0  0
 16 36  1  0  0  0  0
 16 37  1  0  0  0  0
 17 18  1  0  0  0  0
 17 38  1  0  0  0  0
 17 39  1  0  0  0  0
 18 19  1  0  0  0  0
 18 40  1  0  0  0  0
 18 41  1  0  0  0  0
 19 42  1  0  0  0  0
 19 43  1  0  0  0  0
M  END
> <s_m_source_file>
AV-unprocessed.smi

> <i_m_source_file_index>
2771

> <i_lp_mmshare_version>
43012

> <i_f3d_flags>
0

> <s_epik_input>
W0NIM11jMVtjSF1bY0hdW2NIXWMobjEpW05IXUMoPU8pW05IXVtDSDJdW0NASF0oW09IXSlbQ0hdMltDSDJdW0NIMl1bQ0gyXVtDSDJdW0NIMl0y

> <s_epik_cmdline>
J2VwaWtfcHl0aG9uJywgJy1waCcsICc3LjAnLCAnLXRuJywgJzgnLCAnLW1hJywgJzIwMCcsICctbWV0YWxfYmluZGluZycsICctaW1hZScsICc8aW5maWxlLm1hZT4nLCAnLW9tYWUnLCAnPG91dGZpbGUubWFlPic=

> <r_lp_tautomer_probability>
1

> <r_epik_Ionization_Penalty>
8.92802e-05

> <r_epik_Ionization_Penalty_Charging>
0

> <r_epik_Ionization_Penalty_Neutral>
8.92802e-05

> <r_epik_State_Penalty>
-0

> <r_epik_Charging_Adjusted_Penalty>
0

> <i_epik_Tot_Q>
0

> <i_epik_Tot_abs_Q>
0

> <r_epik_Metal_State_Penalty>
-0

> <b_epik_Metal_Only>
0

> <s_lp_Force_Field>
OPLS_2005

> <r_lp_Energy>
16.1378

> <b_lp_Chiralities_Consistent>
1

> <s_lp_Variant>
AV-unprocessed.smi:2771-1

> <Gold.Version>
5.8.1

> <Gold.Id.Protein>
6NUR|6NUR_protein|mol2

> <Gold.PLP.Fitness>
45.1563

> <Gold.PLP.PLP>
-36.6060

> <Gold.PLP.part.hbond>
-5.0000

> <Gold.PLP.part.metal>
0.0000

> <Gold.PLP.part.buried>
1.3180

> <Gold.PLP.part.nonpolar>
-35.2765

> <Gold.PLP.part.repulsive>
1.8146

> <Gold.PLP.ligand.clash>
0.0000

> <Gold.PLP.ligand.torsion>
0.2360

> <Gold.PLP.Chemscore.Hbond>
3.0000

> <Gold.PLP.Chemscore.CHOScore>
0.0000

> <Gold.PLP.Chemscore.Metal>
0.0000

> <Gold.Chemscore.Hbonds>
donor molecule, donor type, donor heavy atom, donor atom, acceptor molecule, acceptor atom, score
      L1  H     7    27       P1 10175  1.00
      L1  H    10    28       P1 10175  1.00
      L1  H    13    32       P1 10171  1.00

> <Gold.PLP.Chemscore.Internal.Correction>
0.0223

> <Gold.Rescore>
     Score         DG    S(hbond)    S(metal)    S(lipo)     H(rot)  DE(clash)    DE(int)     intcor
     16.82     -20.88       2.95        0.00      90.18       1.95       1.61       2.45       ----

> <Gold.Chemscore.Fitness>
16.8223

> <Gold.Chemscore.DG>
-20.8841

> <Gold.Chemscore.ZeroCoef>
-5.4800

> <Gold.Chemscore.Hbond>
2.9503

> <Gold.Chemscore.Metal>
0.0000

> <Gold.Chemscore.Lipo>
90.1821

> <Gold.Chemscore.Internal_Hbond>
0.0000

> <Gold.Chemscore.DEClash>
1.6105

> <Gold.Chemscore.DEInternal>
2.4514

> <Gold.Chemscore.Rot>
1.9536

> <Gold.Chemscore.Internal.Correction>
   9.000000E+99

> <Gold.Chemscore.Hbonds>
donor molecule, donor type, donor heavy atom, donor atom, acceptor molecule, acceptor atom, score
      L1  H     7    27       P1 10175  0.92
      L1  H    10    28       P1 10175  0.99
      L1  H    13    32       P1 10171  1.00

> <Gold.Chemscore.Hbond.Weighted>
-9.8541

> <Gold.Chemscore.Metal.Weighted>
-0.0000

> <Gold.Chemscore.Lipo.Weighted>
-10.5513

> <Gold.Chemscore.Internal_Hbond.Weighted>
0.0000

> <Gold.Chemscore.DEClash.Weighted>
1.6105

> <Gold.Chemscore.DEInternal.Weighted>
2.4514

> <Gold.Chemscore.Rot.Weighted>
5.0013

> <Gold.Chemscore.Internal.Correction.Weighted>
   9.000000E+99

> <Gold.Protein.RotatedTorsions>
[ 6907 6896 6895 6894 ] final  168.73 input  -60.11 | X-H torsion
[ 7974 7965 7964 7962 ] final    0.80 input  175.53 | X-H torsion
[ 8008 7997 7996 7995 ] final   37.16 input   59.86 | X-H torsion
[ 10167 10162 10161 10158 ] final  -19.91 input  -65.29 | X-H torsion
[ 10718 10713 10712 10709 ] final  -48.90 input   66.30 | X-H torsion
[ 10763 10752 10751 10750 ] final -158.13 input  -60.55 | X-H torsion
[ 11005 11000 10999 10996 ] final   32.10 input  -57.11 | X-H torsion

> <Gold.Protein.ActiveResidues>
 VAL166  LYS551  ARG553  GLY616  TRP617  ASP618  TYR619  PRO620  LYS621  CYS622 
 ASP623  PHE694  ASN695  SER759  ASP760  ASP761  ALA762  ILE779  LEU786  VAL792 
 PHE793  MET794  SER795  GLU796  ALA797  LYS798  CYS799  TRP800  GLU811  SER814 

> <Gold.Protein.RotatedAtoms>
  151.8430  133.3427  159.3648 H   0  0  0  0  0  0  0  0  0  0  0  0  # atno 6907 bound_to 6896
  150.7229  134.5372  159.5739 H   0  0  0  0  0  0  0  0  0  0  0  0  # atno 6908 bound_to 6896
  152.2850  134.7787  160.0440 H   0  0  0  0  0  0  0  0  0  0  0  0  # atno 6909 bound_to 6896
  146.2436  140.1084  142.8345 H   0  0  0  0  0  0  0  0  0  0  0  0  # atno 7974 bound_to 7965
  155.1992  140.3314  155.4346 H   0  0  0  0  0  0  0  0  0  0  0  0  # atno 8008 bound_to 7997
  156.2413  140.1896  156.7030 H   0  0  0  0  0  0  0  0  0  0  0  0  # atno 8009 bound_to 7997
  154.6153  140.0603  156.9531 H   0  0  0  0  0  0  0  0  0  0  0  0  # atno 8010 bound_to 7997
  140.7272  143.4773  151.0165 H   0  0  0  0  0  0  0  0  0  0  0  0  # atno 10167 bound_to 10162
  156.1944  130.4154  149.9326 H   0  0  0  0  0  0  0  0  0  0  0  0  # atno 10718 bound_to 10713
  154.7581  135.3110  154.8431 H   0  0  0  0  0  0  0  0  0  0  0  0  # atno 10763 bound_to 10752
  153.9199  135.6797  153.4752 H   0  0  0  0  0  0  0  0  0  0  0  0  # atno 10764 bound_to 10752
  153.1180  135.4836  154.9078 H   0  0  0  0  0  0  0  0  0  0  0  0  # atno 10765 bound_to 10752
  140.2769  134.3017  155.7811 H   0  0  0  0  0  0  0  0  0  0  0  0  # atno 11005 bound_to 11000
  145.0508  140.9016  143.4996 LP  0  0  0  0  0  0  0  0  0  0  0  0  # atno 17320 bound_to 7965
  145.1181  139.2712  143.5602 LP  0  0  0  0  0  0  0  0  0  0  0  0  # atno 17321 bound_to 7965
  139.8469  143.7489  152.3179 LP  0  0  0  0  0  0  0  0  0  0  0  0  # atno 17342 bound_to 10162
  139.7658  144.7492  151.0297 LP  0  0  0  0  0  0  0  0  0  0  0  0  # atno 17343 bound_to 10162
  156.7056  130.8950  151.3604 LP  0  0  0  0  0  0  0  0  0  0  0  0  # atno 17370 bound_to 10713
  157.6949  130.9271  150.0615 LP  0  0  0  0  0  0  0  0  0  0  0  0  # atno 17371 bound_to 10713
  141.2169  133.7501  156.9421 LP  0  0  0  0  0  0  0  0  0  0  0  0  # atno 17394 bound_to 11000
  140.1320  134.9350  157.2349 LP  0  0  0  0  0  0  0  0  0  0  0  0  # atno 17395 bound_to 11000

$$$$
