AV-unprocessed.smi:3280|AV-procd|sdf|12553|dock9
  -GOLD-   2272018473D 1   1.00000     0.00000
 Structure written by MMmdl.
 39 40  0  0  0  0  0  0  0  0  2 V2000
  148.0883  144.7560  161.1771 C   0  0  0  0  0  0  0  0  0  0  0  0
  146.8078  144.2537  160.4938 C   0  0  0  0  0  0  0  0  0  0  0  0
  145.7328  143.8027  161.4939 C   0  0  0  0  0  0  0  0  0  0  0  0
  147.1008  143.1925  159.4776 C   0  0  0  0  0  0  0  0  0  0  0  0
  146.3969  142.0667  159.4335 N   0  0  0  0  0  0  0  0  0  0  0  0
  146.9702  141.3647  158.3637 O   0  0  0  0  0  0  0  0  0  0  0  0
  147.9697  142.1517  157.9003 C   0  0  0  0  0  0  0  0  0  0  0  0
  148.7513  141.7004  156.7127 C   0  0  0  0  0  0  0  0  0  0  0  0
  150.2604  141.6737  156.9853 C   0  0  0  0  0  0  0  0  0  0  0  0
  150.8835  142.9718  156.6578 N   0  3  0  0  0  0  0  0  0  0  0  0
  151.6354  143.5956  157.7684 C   0  0  1  0  0  0  0  0  0  0  0  0
  150.6848  144.4572  158.6214 C   0  0  0  0  0  0  0  0  0  0  0  0
  151.4096  145.1880  159.7638 C   0  0  0  0  0  0  0  0  0  0  0  0
  152.0820  144.2192  160.7465 C   0  0  0  0  0  0  0  0  0  0  0  0
  153.3516  143.2243  159.9185 S   0  0  0  0  0  0  0  0  0  0  0  0
  152.3220  142.5054  158.6098 C   0  0  0  0  0  0  0  0  0  0  0  0
  148.0839  143.3116  158.5409 N   0  0  0  0  0  0  0  0  0  0  0  0
  148.8013  145.1342  160.4439 H   0  0  0  0  0  0  0  0  0  0  0  0
  148.5779  143.9601  161.7391 H   0  0  0  0  0  0  0  0  0  0  0  0
  147.8692  145.5663  161.8729 H   0  0  0  0  0  0  0  0  0  0  0  0
  146.3899  145.1084  159.9589 H   0  0  0  0  0  0  0  0  0  0  0  0
  144.8120  143.5235  160.9805 H   0  0  0  0  0  0  0  0  0  0  0  0
  145.4906  144.6011  162.1955 H   0  0  0  0  0  0  0  0  0  0  0  0
  146.0653  142.9414  162.0741 H   0  0  0  0  0  0  0  0  0  0  0  0
  148.4029  140.7076  156.4250 H   0  0  0  0  0  0  0  0  0  0  0  0
  148.5292  142.3656  155.8772 H   0  0  0  0  0  0  0  0  0  0  0  0
  150.4463  141.4412  158.0348 H   0  0  0  0  0  0  0  0  0  0  0  0
  150.7318  140.8901  156.3901 H   0  0  0  0  0  0  0  0  0  0  0  0
  151.5179  142.8348  155.8838 H   0  0  0  0  0  0  0  0  0  0  0  0
  152.4091  144.2461  157.3557 H   0  0  0  0  0  0  0  0  0  0  0  0
  150.1961  145.1965  157.9855 H   0  0  0  0  0  0  0  0  0  0  0  0
  149.8888  143.8358  159.0343 H   0  0  0  0  0  0  0  0  0  0  0  0
  152.1542  145.8710  159.3529 H   0  0  0  0  0  0  0  0  0  0  0  0
  150.6938  145.8078  160.3047 H   0  0  0  0  0  0  0  0  0  0  0  0
  152.5484  144.7721  161.5624 H   0  0  0  0  0  0  0  0  0  0  0  0
  151.3422  143.5542  161.1931 H   0  0  0  0  0  0  0  0  0  0  0  0
  151.5813  141.8471  159.0657 H   0  0  0  0  0  0  0  0  0  0  0  0
  152.9585  141.8826  157.9801 H   0  0  0  0  0  0  0  0  0  0  0  0
  150.1578  143.6114  156.3668 H   0  0  0  0  0  0  0  0  0  0  0  0
  1  2  1  0  0  0  0
  1 18  1  0  0  0  0
  1 19  1  0  0  0  0
  1 20  1  0  0  0  0
  2  3  1  0  0  0  0
  2  4  1  0  0  0  0
  2 21  1  0  0  0  0
  3 22  1  0  0  0  0
  3 23  1  0  0  0  0
  3 24  1  0  0  0  0
  4 17  1  0  0  0  0
  4  5  2  0  0  0  0
  5  6  1  0  0  0  0
  6  7  1  0  0  0  0
  7  8  1  0  0  0  0
  7 17  2  0  0  0  0
  8  9  1  0  0  0  0
  8 25  1  0  0  0  0
  8 26  1  0  0  0  0
  9 10  1  0  0  0  0
  9 27  1  0  0  0  0
  9 28  1  0  0  0  0
 10 11  1  0  0  0  0
 10 29  1  0  0  0  0
 10 39  1  0  0  0  0
 11 16  1  0  0  0  0
 11 12  1  0  0  0  0
 11 30  1  0  0  0  0
 12 13  1  0  0  0  0
 12 31  1  0  0  0  0
 12 32  1  0  0  0  0
 13 14  1  0  0  0  0
 13 33  1  0  0  0  0
 13 34  1  0  0  0  0
 14 15  1  0  0  0  0
 14 35  1  0  0  0  0
 14 36  1  0  0  0  0
 15 16  1  0  0  0  0
 16 37  1  0  0  0  0
 16 38  1  0  0  0  0
M  CHG  1  10   1
M  END
> <s_m_source_file>
AV-unprocessed.smi

> <i_m_source_file_index>
3280

> <i_lp_mmshare_version>
43012

> <i_f3d_flags>
0

> <s_epik_input>
W0NIM11bQ0hdKFtDSDNdKWMxbm9jKG4xKVtDSDJdW0NIMl1bTkhdW0NAQEhdMltDSDJdW0NIMl1bQ0gyXVNbQ0gyXTI=

> <s_epik_cmdline>
J2VwaWtfcHl0aG9uJywgJy1waCcsICc3LjAnLCAnLXRuJywgJzgnLCAnLW1hJywgJzIwMCcsICctbWV0YWxfYmluZGluZycsICctaW1hZScsICc8aW5maWxlLm1hZT4nLCAnLW9tYWUnLCAnPG91dGZpbGUubWFlPic=

> <r_lp_tautomer_probability>
1

> <r_epik_Ionization_Penalty>
0.0103043

> <r_epik_Ionization_Penalty_Charging>
0.0103043

> <r_epik_Ionization_Penalty_Neutral>
2.61801e-13

> <r_epik_State_Penalty>
0.0078728

> <r_epik_Charging_Adjusted_Penalty>
0.0181771

> <i_epik_Tot_Q>
1

> <i_epik_Tot_abs_Q>
1

> <r_epik_Metal_State_Penalty>
0.0078728

> <b_epik_Metal_Only>
0

> <s_lp_Force_Field>
OPLS_2005

> <r_lp_Energy>
2.51022

> <b_lp_Chiralities_Consistent>
1

> <s_lp_Variant>
AV-unprocessed.smi:3280-2

> <Gold.Version>
5.8.1

> <Gold.Id.Protein>
6NUR|6NUR_protein|mol2

> <Gold.PLP.Fitness>
43.1967

> <Gold.PLP.PLP>
-36.9556

> <Gold.PLP.part.hbond>
-3.0000

> <Gold.PLP.part.metal>
0.0000

> <Gold.PLP.part.buried>
-6.6387

> <Gold.PLP.part.nonpolar>
-28.6918

> <Gold.PLP.part.repulsive>
1.5522

> <Gold.PLP.ligand.clash>
0.0000

> <Gold.PLP.ligand.torsion>
1.0458

> <Gold.PLP.Chemscore.Hbond>
2.7500

> <Gold.PLP.Chemscore.CHOScore>
0.0000

> <Gold.PLP.Chemscore.Metal>
0.0000

> <Gold.Chemscore.Hbonds>
donor molecule, donor type, donor heavy atom, donor atom, acceptor molecule, acceptor atom, score
      L1  H    10    39       P1  8028  2.00
      P1  H  6934  6946       L1     5  0.70

> <Gold.PLP.Chemscore.Internal.Correction>
0.0828

> <Gold.Rescore>
     Score         DG    S(hbond)    S(metal)    S(lipo)     H(rot)  DE(clash)    DE(int)     intcor
     14.75     -17.18       1.44        0.00      97.33       1.76       0.12       2.32       ----

> <Gold.Chemscore.Fitness>
14.7514

> <Gold.Chemscore.DG>
-17.1822

> <Gold.Chemscore.ZeroCoef>
-5.4800

> <Gold.Chemscore.Hbond>
1.4409

> <Gold.Chemscore.Metal>
0.0000

> <Gold.Chemscore.Lipo>
97.3330

> <Gold.Chemscore.Internal_Hbond>
0.0000

> <Gold.Chemscore.DEClash>
0.1155

> <Gold.Chemscore.DEInternal>
2.3152

> <Gold.Chemscore.Rot>
1.7572

> <Gold.Chemscore.Internal.Correction>
   9.000000E+99

> <Gold.Chemscore.Hbonds>
donor molecule, donor type, donor heavy atom, donor atom, acceptor molecule, acceptor atom, score
      L1  H    10    39       P1  8028  1.00
      P1  H  6934  6946       L1     5  0.06

> <Gold.Chemscore.Hbond.Weighted>
-4.8126

> <Gold.Chemscore.Metal.Weighted>
-0.0000

> <Gold.Chemscore.Lipo.Weighted>
-11.3880

> <Gold.Chemscore.Internal_Hbond.Weighted>
0.0000

> <Gold.Chemscore.DEClash.Weighted>
0.1155

> <Gold.Chemscore.DEInternal.Weighted>
2.3152

> <Gold.Chemscore.Rot.Weighted>
4.4984

> <Gold.Chemscore.Internal.Correction.Weighted>
   9.000000E+99

> <Gold.Protein.RotatedTorsions>
[ 6907 6896 6895 6894 ] final   48.45 input  -60.11 | X-H torsion
[ 7974 7965 7964 7962 ] final  -51.53 input  175.53 | X-H torsion
[ 8008 7997 7996 7995 ] final -145.92 input   59.86 | X-H torsion
[ 10167 10162 10161 10158 ] final  113.97 input  -65.29 | X-H torsion
[ 10718 10713 10712 10709 ] final  -61.41 input   66.30 | X-H torsion
[ 10763 10752 10751 10750 ] final  -12.01 input  -60.55 | X-H torsion
[ 11005 11000 10999 10996 ] final  -34.16 input  -57.11 | X-H torsion

> <Gold.Protein.ActiveResidues>
 VAL166  LYS551  ARG553  GLY616  TRP617  ASP618  TYR619  PRO620  LYS621  CYS622 
 ASP623  PHE694  ASN695  SER759  ASP760  ASP761  ALA762  ILE779  LEU786  VAL792 
 PHE793  MET794  SER795  GLU796  ALA797  LYS798  CYS799  TRP800  GLU811  SER814 

> <Gold.Protein.RotatedAtoms>
  152.2796  134.7843  160.0398 H   0  0  0  0  0  0  0  0  0  0  0  0  # atno 6907 bound_to 6896
  151.8427  133.3421  159.3656 H   0  0  0  0  0  0  0  0  0  0  0  0  # atno 6908 bound_to 6896
  150.7184  134.5304  159.5742 H   0  0  0  0  0  0  0  0  0  0  0  0  # atno 6909 bound_to 6896
  145.9179  140.7859  142.9662 H   0  0  0  0  0  0  0  0  0  0  0  0  # atno 7974 bound_to 7965
  155.5510  140.0616  157.2850 H   0  0  0  0  0  0  0  0  0  0  0  0  # atno 8008 bound_to 7997
  154.4420  140.1902  156.0731 H   0  0  0  0  0  0  0  0  0  0  0  0  # atno 8009 bound_to 7997
  156.0516  140.3283  155.7361 H   0  0  0  0  0  0  0  0  0  0  0  0  # atno 8010 bound_to 7997
  139.6423  144.7124  151.2213 H   0  0  0  0  0  0  0  0  0  0  0  0  # atno 10167 bound_to 10162
  156.0923  130.4198  150.0990 H   0  0  0  0  0  0  0  0  0  0  0  0  # atno 10718 bound_to 10713
  153.4922  135.7017  153.5878 H   0  0  0  0  0  0  0  0  0  0  0  0  # atno 10763 bound_to 10752
  153.4045  135.3864  155.2010 H   0  0  0  0  0  0  0  0  0  0  0  0  # atno 10764 bound_to 10752
  154.8716  135.3889  154.4384 H   0  0  0  0  0  0  0  0  0  0  0  0  # atno 10765 bound_to 10752
  140.9693  133.7118  156.1498 H   0  0  0  0  0  0  0  0  0  0  0  0  # atno 11005 bound_to 11000
  144.6750  140.1929  143.7395 LP  0  0  0  0  0  0  0  0  0  0  0  0  # atno 17320 bound_to 7965
  145.8588  139.2212  143.1729 LP  0  0  0  0  0  0  0  0  0  0  0  0  # atno 17321 bound_to 7965
  140.7497  143.6291  150.8440 LP  0  0  0  0  0  0  0  0  0  0  0  0  # atno 17342 bound_to 10162
  139.9930  143.5826  152.2903 LP  0  0  0  0  0  0  0  0  0  0  0  0  # atno 17343 bound_to 10162
  156.8997  130.9616  151.3578 LP  0  0  0  0  0  0  0  0  0  0  0  0  # atno 17370 bound_to 10713
  157.6076  130.8559  149.8900 LP  0  0  0  0  0  0  0  0  0  0  0  0  # atno 17371 bound_to 10713
  140.7352  134.4211  157.5561 LP  0  0  0  0  0  0  0  0  0  0  0  0  # atno 17394 bound_to 11000
  139.8906  134.8800  156.2360 LP  0  0  0  0  0  0  0  0  0  0  0  0  # atno 17395 bound_to 11000

$$$$
