AV-unprocessed.smi:694|AV-procd|sdf|3382|dock4
  -GOLD-   22720 0363D 1   1.00000     0.00000
 Structure written by MMmdl.
 42 43  0  0  0  0  0  0  0  0  1 V2000
  151.0182  142.5192  156.5359 C   0  0  0  0  0  0  0  0  0  0  0  0
  149.7463  141.8727  156.8435 N   0  0  0  0  0  0  0  0  0  0  0  0
  149.0349  142.2129  158.0695 C   0  0  0  0  0  0  0  0  0  0  0  0
  149.2170  140.9070  155.9572 C   0  0  0  0  0  0  0  0  0  0  0  0
  147.9960  140.2419  156.2295 C   0  0  0  0  0  0  0  0  0  0  0  0
  147.5152  139.2859  155.3146 C   0  0  0  0  0  0  0  0  0  0  0  0
  148.2570  139.0065  154.1508 C   0  0  0  0  0  0  0  0  0  0  0  0
  147.7309  138.0483  153.2411 N   0  0  0  0  0  0  0  0  0  0  0  0
  146.4482  137.7170  153.0120 C   0  0  0  0  0  0  0  0  0  0  0  0
  145.4690  138.2419  153.5409 O   0  0  0  0  0  0  0  0  0  0  0  0
  146.3567  136.7361  152.1029 N   0  0  0  0  0  0  0  0  0  0  0  0
  145.1076  136.1454  151.6320 C   0  0  0  0  0  0  0  0  0  0  0  0
  145.1661  134.6031  151.5906 C   0  0  2  0  0  0  0  0  0  0  0  0
  146.4976  134.0373  151.0838 C   0  0  0  0  0  0  0  0  0  0  0  0
  146.1884  132.6110  150.6039 C   0  0  0  0  0  0  0  0  0  0  0  0
  144.6571  132.4808  150.5698 C   0  0  0  0  0  0  0  0  0  0  0  0
  144.1073  133.9029  150.7236 C   0  0  2  0  0  0  0  0  0  0  0  0
  144.0090  134.4980  149.4426 O   0  0  0  0  0  0  0  0  0  0  0  0
  149.4587  139.7274  153.9554 C   0  0  0  0  0  0  0  0  0  0  0  0
  149.9234  140.6433  154.8310 N   0  0  0  0  0  0  0  0  0  0  0  0
  150.9550  143.0582  155.5900 H   0  0  0  0  0  0  0  0  0  0  0  0
  151.8149  141.7783  156.4598 H   0  0  0  0  0  0  0  0  0  0  0  0
  151.3005  143.2338  157.3091 H   0  0  0  0  0  0  0  0  0  0  0  0
  148.9337  141.3366  158.7104 H   0  0  0  0  0  0  0  0  0  0  0  0
  148.0402  142.5971  157.8417 H   0  0  0  0  0  0  0  0  0  0  0  0
  149.5639  142.9792  158.6360 H   0  0  0  0  0  0  0  0  0  0  0  0
  147.4196  140.4446  157.1194 H   0  0  0  0  0  0  0  0  0  0  0  0
  146.5854  138.7721  155.5097 H   0  0  0  0  0  0  0  0  0  0  0  0
  148.4173  137.5745  152.6728 H   0  0  0  0  0  0  0  0  0  0  0  0
  147.2114  136.3635  151.7160 H   0  0  0  0  0  0  0  0  0  0  0  0
  144.3054  136.4791  152.2905 H   0  0  0  0  0  0  0  0  0  0  0  0
  144.8673  136.5369  150.6421 H   0  0  0  0  0  0  0  0  0  0  0  0
  145.0368  134.2339  152.6095 H   0  0  0  0  0  0  0  0  0  0  0  0
  146.8607  134.6312  150.2441 H   0  0  0  0  0  0  0  0  0  0  0  0
  147.2695  134.0560  151.8539 H   0  0  0  0  0  0  0  0  0  0  0  0
  146.6167  132.4446  149.6149 H   0  0  0  0  0  0  0  0  0  0  0  0
  146.6201  131.8668  151.2739 H   0  0  0  0  0  0  0  0  0  0  0  0
  144.2976  131.9784  149.6709 H   0  0  0  0  0  0  0  0  0  0  0  0
  144.3340  131.8808  151.4216 H   0  0  0  0  0  0  0  0  0  0  0  0
  143.1229  133.9091  151.1929 H   0  0  0  0  0  0  0  0  0  0  0  0
  144.8382  134.3983  149.0010 H   0  0  0  0  0  0  0  0  0  0  0  0
  150.0721  139.6005  153.0777 H   0  0  0  0  0  0  0  0  0  0  0  0
  1  2  1  0  0  0  0
  1 21  1  0  0  0  0
  1 22  1  0  0  0  0
  1 23  1  0  0  0  0
  2  3  1  0  0  0  0
  2  4  1  0  0  0  0
  3 24  1  0  0  0  0
  3 25  1  0  0  0  0
  3 26  1  0  0  0  0
  4 20  1  0  0  0  0
  4  5  2  0  0  0  0
  5  6  1  0  0  0  0
  5 27  1  0  0  0  0
  6  7  2  0  0  0  0
  6 28  1  0  0  0  0
  7  8  1  0  0  0  0
  7 19  1  0  0  0  0
  8  9  1  0  0  0  0
  8 29  1  0  0  0  0
  9 10  2  0  0  0  0
  9 11  1  0  0  0  0
 11 12  1  0  0  0  0
 11 30  1  0  0  0  0
 12 13  1  0  0  0  0
 12 31  1  0  0  0  0
 12 32  1  0  0  0  0
 13 17  1  0  0  0  0
 13 14  1  0  0  0  0
 13 33  1  0  0  0  0
 14 15  1  0  0  0  0
 14 34  1  0  0  0  0
 14 35  1  0  0  0  0
 15 16  1  0  0  0  0
 15 36  1  0  0  0  0
 15 37  1  0  0  0  0
 16 17  1  0  0  0  0
 16 38  1  0  0  0  0
 16 39  1  0  0  0  0
 17 18  1  0  0  0  0
 17 40  1  0  0  0  0
 18 41  1  0  0  0  0
 19 20  2  0  0  0  0
 19 42  1  0  0  0  0
M  END
> <s_m_source_file>
AV-unprocessed.smi

> <i_m_source_file_index>
694

> <i_lp_mmshare_version>
43012

> <i_f3d_flags>
0

> <s_epik_input>
W0NIM11OKFtDSDNdKWMxW2NIXVtjSF1jKFtjSF1uMSlbTkhdQyg9TylbTkhdW0NIMl1bQ0BASF0yW0NIMl1bQ0gyXVtDSDJdW0NASF0yW09IXQ==

> <s_epik_cmdline>
J2VwaWtfcHl0aG9uJywgJy1waCcsICc3LjAnLCAnLXRuJywgJzgnLCAnLW1hJywgJzIwMCcsICctbWV0YWxfYmluZGluZycsICctaW1hZScsICc8aW5maWxlLm1hZT4nLCAnLW9tYWUnLCAnPG91dGZpbGUubWFlPic=

> <r_lp_tautomer_probability>
1

> <r_epik_Ionization_Penalty>
0.60335

> <r_epik_Ionization_Penalty_Charging>
0

> <r_epik_Ionization_Penalty_Neutral>
0.60335

> <r_epik_State_Penalty>
0.616805

> <r_epik_Charging_Adjusted_Penalty>
0.616805

> <i_epik_Tot_Q>
0

> <i_epik_Tot_abs_Q>
0

> <r_epik_Metal_State_Penalty>
0.301709

> <b_epik_Metal_Only>
0

> <s_lp_Force_Field>
OPLS_2005

> <r_lp_Energy>
30.3621

> <b_lp_Chiralities_Consistent>
1

> <s_lp_Variant>
AV-unprocessed.smi:694-7

> <Gold.Version>
5.8.1

> <Gold.Id.Protein>
6NUR|6NUR_protein|mol2

> <Gold.PLP.Fitness>
41.1122

> <Gold.PLP.PLP>
-29.4982

> <Gold.PLP.part.hbond>
-4.8540

> <Gold.PLP.part.metal>
0.0000

> <Gold.PLP.part.buried>
-4.3518

> <Gold.PLP.part.nonpolar>
-21.4043

> <Gold.PLP.part.repulsive>
0.3474

> <Gold.PLP.ligand.clash>
0.0000

> <Gold.PLP.ligand.torsion>
0.4349

> <Gold.PLP.Chemscore.Hbond>
3.1562

> <Gold.PLP.Chemscore.CHOScore>
1.0000

> <Gold.PLP.Chemscore.Metal>
0.0000

> <Gold.Chemscore.Hbonds>
donor molecule, donor type, donor heavy atom, donor atom, acceptor molecule, acceptor atom, score
      L1  H     8    29       P1  7948  1.00
      L1  H    11    30       P1  7948  0.98
      L1  H    18    41       P1  7921  1.00
      P1  H  7989  7998       L1    20  0.19
      L1  C    19    42       P1  7957  0.94

> <Gold.PLP.Chemscore.Internal.Correction>
0.0154

> <Gold.Rescore>
     Score         DG    S(hbond)    S(metal)    S(lipo)     H(rot)  DE(clash)    DE(int)     intcor
     16.31     -18.52       2.88        0.00      66.99       1.73       0.49       1.72       ----

> <Gold.Chemscore.Fitness>
16.3094

> <Gold.Chemscore.DG>
-18.5189

> <Gold.Chemscore.ZeroCoef>
-5.4800

> <Gold.Chemscore.Hbond>
2.8801

> <Gold.Chemscore.Metal>
0.0000

> <Gold.Chemscore.Lipo>
66.9885

> <Gold.Chemscore.Internal_Hbond>
0.0000

> <Gold.Chemscore.DEClash>
0.4868

> <Gold.Chemscore.DEInternal>
1.7227

> <Gold.Chemscore.Rot>
1.7259

> <Gold.Chemscore.Internal.Correction>
   9.000000E+99

> <Gold.Chemscore.Hbonds>
donor molecule, donor type, donor heavy atom, donor atom, acceptor molecule, acceptor atom, score
      L1  H     8    29       P1  7948  0.97
      L1  H    11    30       P1  7948  0.93
      L1  H    18    41       P1  7921  0.97

> <Gold.Chemscore.Hbond.Weighted>
-9.6196

> <Gold.Chemscore.Metal.Weighted>
-0.0000

> <Gold.Chemscore.Lipo.Weighted>
-7.8377

> <Gold.Chemscore.Internal_Hbond.Weighted>
0.0000

> <Gold.Chemscore.DEClash.Weighted>
0.4868

> <Gold.Chemscore.DEInternal.Weighted>
1.7227

> <Gold.Chemscore.Rot.Weighted>
4.4184

> <Gold.Chemscore.Internal.Correction.Weighted>
   9.000000E+99

> <Gold.Protein.RotatedTorsions>
[ 6907 6896 6895 6894 ] final  -46.01 input  -60.11 | X-H torsion
[ 7974 7965 7964 7962 ] final  -45.69 input  175.53 | X-H torsion
[ 8008 7997 7996 7995 ] final  -59.81 input   59.86 | X-H torsion
[ 10167 10162 10161 10158 ] final  140.97 input  -65.29 | X-H torsion
[ 10718 10713 10712 10709 ] final   85.85 input   66.30 | X-H torsion
[ 10763 10752 10751 10750 ] final  -19.61 input  -60.55 | X-H torsion
[ 11005 11000 10999 10996 ] final  -74.40 input  -57.11 | X-H torsion

> <Gold.Protein.ActiveResidues>
 VAL166  LYS551  ARG553  GLY616  TRP617  ASP618  TYR619  PRO620  LYS621  CYS622 
 ASP623  PHE694  ASN695  SER759  ASP760  ASP761  ALA762  ILE779  LEU786  VAL792 
 PHE793  MET794  SER795  GLU796  ALA797  LYS798  CYS799  TRP800  GLU811  SER814 

> <Gold.Protein.RotatedAtoms>
  150.9158  134.8575  159.7455 H   0  0  0  0  0  0  0  0  0  0  0  0  # atno 6907 bound_to 6896
  152.4968  134.4291  159.9516 H   0  0  0  0  0  0  0  0  0  0  0  0  # atno 6908 bound_to 6896
  151.4330  133.3625  159.2806 H   0  0  0  0  0  0  0  0  0  0  0  0  # atno 6909 bound_to 6896
  145.9795  140.7298  142.9370 H   0  0  0  0  0  0  0  0  0  0  0  0  # atno 7974 bound_to 7965
  154.4369  140.1053  156.6174 H   0  0  0  0  0  0  0  0  0  0  0  0  # atno 8008 bound_to 7997
  155.5744  140.3490  155.4505 H   0  0  0  0  0  0  0  0  0  0  0  0  # atno 8009 bound_to 7997
  156.0366  140.1272  157.0191 H   0  0  0  0  0  0  0  0  0  0  0  0  # atno 8010 bound_to 7997
  139.5033  144.6201  151.6072 H   0  0  0  0  0  0  0  0  0  0  0  0  # atno 10167 bound_to 10162
  157.6920  131.0191  150.2884 H   0  0  0  0  0  0  0  0  0  0  0  0  # atno 10718 bound_to 10713
  153.6075  135.6997  153.5360 H   0  0  0  0  0  0  0  0  0  0  0  0  # atno 10763 bound_to 10752
  153.3045  135.4119  155.1281 H   0  0  0  0  0  0  0  0  0  0  0  0  # atno 10764 bound_to 10752
  154.8570  135.3657  154.5612 H   0  0  0  0  0  0  0  0  0  0  0  0  # atno 10765 bound_to 10752
  141.1634  133.6910  156.7358 H   0  0  0  0  0  0  0  0  0  0  0  0  # atno 11005 bound_to 11000
  144.6858  140.2884  143.7281 LP  0  0  0  0  0  0  0  0  0  0  0  0  # atno 17320 bound_to 7965
  145.7790  139.1884  143.2169 LP  0  0  0  0  0  0  0  0  0  0  0  0  # atno 17321 bound_to 7965
  140.5900  143.9796  150.6319 LP  0  0  0  0  0  0  0  0  0  0  0  0  # atno 17342 bound_to 10162
  140.2973  143.3284  152.1005 LP  0  0  0  0  0  0  0  0  0  0  0  0  # atno 17343 bound_to 10162
  156.3419  130.3817  149.7401 LP  0  0  0  0  0  0  0  0  0  0  0  0  # atno 17370 bound_to 10713
  156.4907  130.8084  151.3093 LP  0  0  0  0  0  0  0  0  0  0  0  0  # atno 17371 bound_to 10713
  140.2711  134.8391  157.3848 LP  0  0  0  0  0  0  0  0  0  0  0  0  # atno 17394 bound_to 11000
  140.1521  134.4837  155.7954 LP  0  0  0  0  0  0  0  0  0  0  0  0  # atno 17395 bound_to 11000

$$$$
