AV-unprocessed.smi:2874|AV-procd|sdf|11039|dock1
  -GOLD-   2272015503D 1   1.00000     0.00000
 Structure written by MMmdl.
 40 42  0  0  0  0  0  0  0  0  2 V2000
  150.9163  137.4800  154.5025 C   0  0  0  0  0  0  0  0  0  0  0  0
  152.2541  137.6546  154.9332 O   0  0  0  0  0  0  0  0  0  0  0  0
  152.5143  138.9745  155.3825 C   0  0  0  0  0  0  0  0  0  0  0  0
  151.6786  139.2629  156.6376 C   0  0  0  0  0  0  0  0  0  0  0  0
  151.1949  140.6501  156.6760 N   0  0  0  0  0  0  0  0  0  0  0  0
  150.3750  141.3258  155.8228 C   0  0  0  0  0  0  0  0  0  0  0  0
  149.6391  140.6773  154.3536 S   0  0  0  0  0  0  0  0  0  0  0  0
  147.9708  140.1145  154.8049 C   0  0  0  0  0  0  0  0  0  0  0  0
  147.0088  141.2877  154.8668 C   0  0  0  0  0  0  0  0  0  0  0  0
  146.8217  141.9763  153.7361 N   0  0  0  0  0  0  0  0  0  0  0  0
  145.9801  143.0311  153.7952 C   0  0  0  0  0  0  0  0  0  0  0  0
  145.3278  143.3935  154.9912 C   0  0  0  0  0  0  0  0  0  0  0  0
  145.6000  142.5912  156.1172 C   0  0  0  0  0  0  0  0  0  0  0  0
  145.0086  142.8632  157.3479 N   0  0  0  0  0  0  0  0  0  0  0  0
  146.4419  141.5377  156.0524 N   0  0  0  0  0  0  0  0  0  0  0  0
  150.2224  142.5868  156.3139 N   0  3  0  0  0  0  0  0  0  0  0  0
  150.9589  142.7236  157.4906 C   0  0  0  0  0  0  0  0  0  0  0  0
  151.1218  143.8119  158.3418 C   0  0  0  0  0  0  0  0  0  0  0  0
  151.9456  143.6163  159.4702 C   0  0  0  0  0  0  0  0  0  0  0  0
  152.1943  144.9212  160.5706 Cl  0  0  0  0  0  0  0  0  0  0  0  0
  152.5681  142.3747  159.7155 C   0  0  0  0  0  0  0  0  0  0  0  0
  152.3966  141.2782  158.8451 C   0  0  0  0  0  0  0  0  0  0  0  0
  151.5831  141.4821  157.7313 C   0  0  0  0  0  0  0  0  0  0  0  0
  150.7699  136.4518  154.1717 H   0  0  0  0  0  0  0  0  0  0  0  0
  150.6821  138.1394  153.6657 H   0  0  0  0  0  0  0  0  0  0  0  0
  150.2121  137.6768  155.3120 H   0  0  0  0  0  0  0  0  0  0  0  0
  153.5763  139.0881  155.6054 H   0  0  0  0  0  0  0  0  0  0  0  0
  152.2667  139.6934  154.6002 H   0  0  0  0  0  0  0  0  0  0  0  0
  150.8257  138.5872  156.7065 H   0  0  0  0  0  0  0  0  0  0  0  0
  152.2786  139.0936  157.5323 H   0  0  0  0  0  0  0  0  0  0  0  0
  147.6224  139.3983  154.0602 H   0  0  0  0  0  0  0  0  0  0  0  0
  148.0117  139.5907  155.7608 H   0  0  0  0  0  0  0  0  0  0  0  0
  145.8277  143.5903  152.8838 H   0  0  0  0  0  0  0  0  0  0  0  0
  144.6562  144.2384  155.0354 H   0  0  0  0  0  0  0  0  0  0  0  0
  144.3723  143.6390  157.4646 H   0  0  0  0  0  0  0  0  0  0  0  0
  145.0971  142.2246  158.1250 H   0  0  0  0  0  0  0  0  0  0  0  0
  150.6440  144.7622  158.1543 H   0  0  0  0  0  0  0  0  0  0  0  0
  153.1919  142.2596  160.5901 H   0  0  0  0  0  0  0  0  0  0  0  0
  152.8775  140.3317  159.0433 H   0  0  0  0  0  0  0  0  0  0  0  0
  149.6647  143.3035  155.8664 H   0  0  0  0  0  0  0  0  0  0  0  0
  1  2  1  0  0  0  0
  1 24  1  0  0  0  0
  1 25  1  0  0  0  0
  1 26  1  0  0  0  0
  2  3  1  0  0  0  0
  3  4  1  0  0  0  0
  3 27  1  0  0  0  0
  3 28  1  0  0  0  0
  4  5  1  0  0  0  0
  4 29  1  0  0  0  0
  4 30  1  0  0  0  0
  5 23  1  0  0  0  0
  5  6  1  0  0  0  0
  6  7  1  0  0  0  0
  6 16  2  0  0  0  0
  7  8  1  0  0  0  0
  8  9  1  0  0  0  0
  8 31  1  0  0  0  0
  8 32  1  0  0  0  0
  9 15  1  0  0  0  0
  9 10  2  0  0  0  0
 10 11  1  0  0  0  0
 11 12  2  0  0  0  0
 11 33  1  0  0  0  0
 12 13  1  0  0  0  0
 12 34  1  0  0  0  0
 13 14  1  0  0  0  0
 13 15  2  0  0  0  0
 14 35  1  0  0  0  0
 14 36  1  0  0  0  0
 16 17  1  0  0  0  0
 16 40  1  0  0  0  0
 17 23  2  0  0  0  0
 17 18  1  0  0  0  0
 18 19  2  0  0  0  0
 18 37  1  0  0  0  0
 19 20  1  0  0  0  0
 19 21  1  0  0  0  0
 21 22  2  0  0  0  0
 21 38  1  0  0  0  0
 22 23  1  0  0  0  0
 22 39  1  0  0  0  0
M  CHG  1  16   1
M  END
> <s_m_source_file>
AV-unprocessed.smi

> <i_m_source_file_index>
2874

> <i_lp_mmshare_version>
43012

> <i_f3d_flags>
0

> <s_epik_input>
W2NIXTFjKENsKVtjSF1bY0hdYyhjMTIpbihbQ0gyXVtDSDJdT1tDSDNdKWMobjIpU1tDSDJdYzNuW2NIXVtjSF1jKG4zKVtOSDJd

> <s_epik_cmdline>
J2VwaWtfcHl0aG9uJywgJy1waCcsICc3LjAnLCAnLXRuJywgJzgnLCAnLW1hJywgJzIwMCcsICctbWV0YWxfYmluZGluZycsICctaW1hZScsICc8aW5maWxlLm1hZT4nLCAnLW9tYWUnLCAnPG91dGZpbGUubWFlPic=

> <r_lp_tautomer_probability>
1

> <r_epik_Ionization_Penalty>
2.48176

> <r_epik_Ionization_Penalty_Charging>
2.48043

> <r_epik_Ionization_Penalty_Neutral>
0.00132706

> <r_epik_State_Penalty>
2.64401

> <r_epik_Charging_Adjusted_Penalty>
5.12444

> <i_epik_Tot_Q>
1

> <i_epik_Tot_abs_Q>
1

> <r_epik_Metal_State_Penalty>
2.65168

> <b_epik_Metal_Only>
0

> <s_lp_Force_Field>
OPLS_2005

> <r_lp_Energy>
0.65944

> <b_lp_Chiralities_Consistent>
1

> <s_lp_Variant>
AV-unprocessed.smi:2874-2

> <Gold.Version>
5.8.1

> <Gold.Id.Protein>
6NUR|6NUR_protein|mol2

> <Gold.PLP.Fitness>
52.7542

> <Gold.PLP.PLP>
-46.8068

> <Gold.PLP.part.hbond>
-2.0000

> <Gold.PLP.part.metal>
0.0000

> <Gold.PLP.part.buried>
-5.3613

> <Gold.PLP.part.nonpolar>
-40.2521

> <Gold.PLP.part.repulsive>
0.4429

> <Gold.PLP.ligand.clash>
0.0000

> <Gold.PLP.ligand.torsion>
0.6994

> <Gold.PLP.Chemscore.Hbond>
2.4118

> <Gold.PLP.Chemscore.CHOScore>
0.0000

> <Gold.PLP.Chemscore.Metal>
0.0000

> <Gold.Chemscore.Hbonds>
donor molecule, donor type, donor heavy atom, donor atom, acceptor molecule, acceptor atom, score
      L1  H    16    40       P1  8028  2.00
      P1  H 10752 10764       L1     2  0.38

> <Gold.PLP.Chemscore.Internal.Correction>
0.1106

> <Gold.Rescore>
     Score         DG    S(hbond)    S(metal)    S(lipo)     H(rot)  DE(clash)    DE(int)     intcor
     16.82     -17.79       1.88        0.00     106.51       2.51       0.21       0.75       ----

> <Gold.Chemscore.Fitness>
16.8237

> <Gold.Chemscore.DG>
-17.7904

> <Gold.Chemscore.ZeroCoef>
-5.4800

> <Gold.Chemscore.Hbond>
1.8777

> <Gold.Chemscore.Metal>
0.0000

> <Gold.Chemscore.Lipo>
106.5076

> <Gold.Chemscore.Internal_Hbond>
0.0000

> <Gold.Chemscore.DEClash>
0.2133

> <Gold.Chemscore.DEInternal>
0.7533

> <Gold.Chemscore.Rot>
2.5088

> <Gold.Chemscore.Internal.Correction>
   9.000000E+99

> <Gold.Chemscore.Hbonds>
donor molecule, donor type, donor heavy atom, donor atom, acceptor molecule, acceptor atom, score
      L1  H    16    40       P1  8028  0.99
      P1  H 10752 10764       L1     2  0.08

> <Gold.Chemscore.Hbond.Weighted>
-6.2714

> <Gold.Chemscore.Metal.Weighted>
-0.0000

> <Gold.Chemscore.Lipo.Weighted>
-12.4614

> <Gold.Chemscore.Internal_Hbond.Weighted>
0.0000

> <Gold.Chemscore.DEClash.Weighted>
0.2133

> <Gold.Chemscore.DEInternal.Weighted>
0.7533

> <Gold.Chemscore.Rot.Weighted>
6.4224

> <Gold.Chemscore.Internal.Correction.Weighted>
   9.000000E+99

> <Gold.Protein.RotatedTorsions>
[ 6907 6896 6895 6894 ] final  -89.48 input  -60.11 | X-H torsion
[ 7974 7965 7964 7962 ] final  102.24 input  175.53 | X-H torsion
[ 8008 7997 7996 7995 ] final  -35.20 input   59.86 | X-H torsion
[ 10167 10162 10161 10158 ] final   95.87 input  -65.29 | X-H torsion
[ 10718 10713 10712 10709 ] final   96.19 input   66.30 | X-H torsion
[ 10763 10752 10751 10750 ] final  -61.42 input  -60.55 | X-H torsion
[ 11005 11000 10999 10996 ] final -147.38 input  -57.11 | X-H torsion

> <Gold.Protein.ActiveResidues>
 VAL166  LYS551  ARG553  GLY616  TRP617  ASP618  TYR619  PRO620  LYS621  CYS622 
 ASP623  PHE694  ASN695  SER759  ASP760  ASP761  ALA762  ILE779  LEU786  VAL792 
 PHE793  MET794  SER795  GLU796  ALA797  LYS798  CYS799  TRP800  GLU811  SER814 

> <Gold.Protein.RotatedAtoms>
  150.6874  134.2581  159.4537 H   0  0  0  0  0  0  0  0  0  0  0  0  # atno 6907 bound_to 6896
  152.0513  134.9649  160.0584 H   0  0  0  0  0  0  0  0  0  0  0  0  # atno 6908 bound_to 6896
  152.1112  133.4267  159.4669 H   0  0  0  0  0  0  0  0  0  0  0  0  # atno 6909 bound_to 6896
  145.3616  139.2416  143.3503 H   0  0  0  0  0  0  0  0  0  0  0  0  # atno 7974 bound_to 7965
  154.4101  140.1663  156.2173 H   0  0  0  0  0  0  0  0  0  0  0  0  # atno 8008 bound_to 7997
  155.9393  140.3409  155.6291 H   0  0  0  0  0  0  0  0  0  0  0  0  # atno 8009 bound_to 7997
  155.7009  140.0745  157.2401 H   0  0  0  0  0  0  0  0  0  0  0  0  # atno 8010 bound_to 7997
  139.7947  144.6838  150.9844 H   0  0  0  0  0  0  0  0  0  0  0  0  # atno 10167 bound_to 10162
  157.6930  131.0570  150.4454 H   0  0  0  0  0  0  0  0  0  0  0  0  # atno 10718 bound_to 10713
  154.2843  135.6266  153.5359 H   0  0  0  0  0  0  0  0  0  0  0  0  # atno 10763 bound_to 10752
  152.9861  135.5640  154.5461 H   0  0  0  0  0  0  0  0  0  0  0  0  # atno 10764 bound_to 10752
  154.5058  135.2874  155.1359 H   0  0  0  0  0  0  0  0  0  0  0  0  # atno 10765 bound_to 10752
  140.7723  134.3175  157.5071 H   0  0  0  0  0  0  0  0  0  0  0  0  # atno 11005 bound_to 11000
  146.2924  140.4252  142.8734 LP  0  0  0  0  0  0  0  0  0  0  0  0  # atno 17320 bound_to 7965
  144.8642  140.7182  143.6088 LP  0  0  0  0  0  0  0  0  0  0  0  0  # atno 17321 bound_to 7965
  140.7820  143.4343  151.0646 LP  0  0  0  0  0  0  0  0  0  0  0  0  # atno 17342 bound_to 10162
  139.8018  143.8073  152.3163 LP  0  0  0  0  0  0  0  0  0  0  0  0  # atno 17343 bound_to 10162
  156.4809  130.4073  149.6462 LP  0  0  0  0  0  0  0  0  0  0  0  0  # atno 17370 bound_to 10713
  156.3508  130.7431  151.2390 LP  0  0  0  0  0  0  0  0  0  0  0  0  # atno 17371 bound_to 10713
  139.8754  134.9268  156.3409 LP  0  0  0  0  0  0  0  0  0  0  0  0  # atno 17394 bound_to 11000
  140.9562  133.7418  156.0339 LP  0  0  0  0  0  0  0  0  0  0  0  0  # atno 17395 bound_to 11000

$$$$
