AV-unprocessed.smi:3252|AV-procd|sdf|12441|dock4
  -GOLD-   2272018333D 1   1.00000     0.00000
 Structure written by MMmdl.
 37 38  0  0  0  0  0  0  0  0  2 V2000
  146.2342  130.0126  152.9885 C   0  0  0  0  0  0  0  0  0  0  0  0
  145.6495  130.3359  151.6065 C   0  0  0  0  0  0  0  0  0  0  0  0
  146.1598  131.6221  151.0621 N   0  3  1  0  0  0  0  0  0  0  0  0
  145.6556  131.9306  149.7021 C   0  0  0  0  0  0  0  0  0  0  0  0
  144.2158  132.4697  149.7541 C   0  0  0  0  0  0  0  0  0  0  0  0
  144.1766  133.6143  150.5956 O   0  0  0  0  0  0  0  0  0  0  0  0
  144.5315  133.3201  151.9432 C   0  0  2  0  0  0  0  0  0  0  0  0
  144.3916  134.5992  152.7876 C   0  0  0  0  0  0  0  0  0  0  0  0
  143.1798  134.6048  153.5995 N   0  0  0  0  0  0  0  0  0  0  0  0
  142.2805  135.6811  153.5787 C   0  0  0  0  0  0  0  0  0  0  0  0
  142.7462  136.9382  153.1389 C   0  0  0  0  0  0  0  0  0  0  0  0
  141.8505  138.0253  153.1141 C   0  0  0  0  0  0  0  0  0  0  0  0
  140.5205  137.8174  153.5296 C   0  0  0  0  0  0  0  0  0  0  0  0
  139.5590  138.9064  153.5246 C   0  0  0  0  0  0  0  0  0  0  0  0
  138.7931  139.7735  153.5207 N   0  0  0  0  0  0  0  0  0  0  0  0
  140.1462  136.5254  153.9503 C   0  0  0  0  0  0  0  0  0  0  0  0
  141.0008  135.4800  153.9744 N   0  0  0  0  0  0  0  0  0  0  0  0
  145.9845  132.7942  151.9589 C   0  0  0  0  0  0  0  0  0  0  0  0
  145.9194  129.0210  153.3146 H   0  0  0  0  0  0  0  0  0  0  0  0
  145.9064  130.7208  153.7486 H   0  0  0  0  0  0  0  0  0  0  0  0
  147.3245  130.0210  152.9666 H   0  0  0  0  0  0  0  0  0  0  0  0
  145.9356  129.5276  150.9324 H   0  0  0  0  0  0  0  0  0  0  0  0
  144.5604  130.3300  151.6430 H   0  0  0  0  0  0  0  0  0  0  0  0
  146.3054  132.6861  149.2588 H   0  0  0  0  0  0  0  0  0  0  0  0
  145.7206  131.0546  149.0557 H   0  0  0  0  0  0  0  0  0  0  0  0
  143.8876  132.7577  148.7551 H   0  0  0  0  0  0  0  0  0  0  0  0
  143.5173  131.7112  150.1106 H   0  0  0  0  0  0  0  0  0  0  0  0
  143.8566  132.5620  152.3437 H   0  0  0  0  0  0  0  0  0  0  0  0
  145.2310  134.6617  153.4805 H   0  0  0  0  0  0  0  0  0  0  0  0
  144.4539  135.4898  152.1615 H   0  0  0  0  0  0  0  0  0  0  0  0
  142.9181  133.7548  154.0779 H   0  0  0  0  0  0  0  0  0  0  0  0
  143.7715  137.0726  152.8258 H   0  0  0  0  0  0  0  0  0  0  0  0
  142.1839  138.9981  152.7821 H   0  0  0  0  0  0  0  0  0  0  0  0
  139.1371  136.3190  154.2773 H   0  0  0  0  0  0  0  0  0  0  0  0
  146.2982  132.5585  152.9750 H   0  0  0  0  0  0  0  0  0  0  0  0
  146.6547  133.5827  151.6132 H   0  0  0  0  0  0  0  0  0  0  0  0
  147.1554  131.4852  150.9598 H   0  0  0  0  0  0  0  0  0  0  0  0
  1  2  1  0  0  0  0
  1 19  1  0  0  0  0
  1 20  1  0  0  0  0
  1 21  1  0  0  0  0
  2  3  1  0  0  0  0
  2 22  1  0  0  0  0
  2 23  1  0  0  0  0
  3 18  1  0  0  0  0
  3  4  1  0  0  0  0
  3 37  1  0  0  0  0
  4  5  1  0  0  0  0
  4 24  1  0  0  0  0
  4 25  1  0  0  0  0
  5  6  1  0  0  0  0
  5 26  1  0  0  0  0
  5 27  1  0  0  0  0
  6  7  1  0  0  0  0
  7  8  1  0  0  0  0
  7 18  1  0  0  0  0
  7 28  1  0  0  0  0
  8  9  1  0  0  0  0
  8 29  1  0  0  0  0
  8 30  1  0  0  0  0
  9 10  1  0  0  0  0
  9 31  1  0  0  0  0
 10 17  1  0  0  0  0
 10 11  2  0  0  0  0
 11 12  1  0  0  0  0
 11 32  1  0  0  0  0
 12 13  2  0  0  0  0
 12 33  1  0  0  0  0
 13 14  1  0  0  0  0
 13 16  1  0  0  0  0
 14 15  3  0  0  0  0
 16 17  2  0  0  0  0
 16 34  1  0  0  0  0
 18 35  1  0  0  0  0
 18 36  1  0  0  0  0
M  CHG  1   3   1
M  END
> <s_m_source_file>
AV-unprocessed.smi

> <i_m_source_file_index>
3252

> <i_lp_mmshare_version>
43012

> <i_f3d_flags>
0

> <s_epik_input>
W0NIM11bQ0gyXU4xW0NIMl1bQ0gyXU9bQ0BIXShbQ0gyXTEpW0NIMl1bTkhdYzJbY0hdW2NIXWMoQyNOKVtjSF1uMg==

> <s_epik_cmdline>
J2VwaWtfcHl0aG9uJywgJy1waCcsICc3LjAnLCAnLXRuJywgJzgnLCAnLW1hJywgJzIwMCcsICctbWV0YWxfYmluZGluZycsICctaW1hZScsICc8aW5maWxlLm1hZT4nLCAnLW9tYWUnLCAnPG91dGZpbGUubWFlPic=

> <r_epik_Ionization_Penalty>
0.178512

> <r_epik_Ionization_Penalty_Charging>
0.178504

> <r_epik_Ionization_Penalty_Neutral>
8.15545e-06

> <r_epik_State_Penalty>
0.167974

> <r_epik_Charging_Adjusted_Penalty>
0.346478

> <i_epik_Tot_Q>
1

> <i_epik_Tot_abs_Q>
1

> <r_epik_Metal_State_Penalty>
0.167974

> <b_epik_Metal_Only>
0

> <s_lp_Force_Field>
OPLS_2005

> <r_lp_Energy>
19.5584

> <b_lp_Chiralities_Consistent>
1

> <s_lp_Variant>
AV-unprocessed.smi:3252-3

> <Gold.Version>
5.8.1

> <Gold.Id.Protein>
6NUR|6NUR_protein|mol2

> <Gold.PLP.Fitness>
45.3015

> <Gold.PLP.PLP>
-37.7877

> <Gold.PLP.part.hbond>
-3.3591

> <Gold.PLP.part.metal>
0.0000

> <Gold.PLP.part.buried>
-8.9880

> <Gold.PLP.part.nonpolar>
-26.8884

> <Gold.PLP.part.repulsive>
0.4716

> <Gold.PLP.ligand.clash>
0.0000

> <Gold.PLP.ligand.torsion>
0.7461

> <Gold.PLP.Chemscore.Hbond>
2.9913

> <Gold.PLP.Chemscore.CHOScore>
0.0000

> <Gold.PLP.Chemscore.Metal>
0.0000

> <Gold.Chemscore.Hbonds>
donor molecule, donor type, donor heavy atom, donor atom, acceptor molecule, acceptor atom, score
      L1  H     3    37       P1 10747  0.96
      L1  H     9    31       P1 10957  0.76
      P1  H 11000 11005       L1    17  0.52

> <Gold.PLP.Chemscore.Internal.Correction>
0.0324

> <Gold.Rescore>
     Score         DG    S(hbond)    S(metal)    S(lipo)     H(rot)  DE(clash)    DE(int)     intcor
     18.96     -19.66       2.62        0.00      78.55       1.47       0.08       0.62       ----

> <Gold.Chemscore.Fitness>
18.9582

> <Gold.Chemscore.DG>
-19.6621

> <Gold.Chemscore.ZeroCoef>
-5.4800

> <Gold.Chemscore.Hbond>
2.6198

> <Gold.Chemscore.Metal>
0.0000

> <Gold.Chemscore.Lipo>
78.5508

> <Gold.Chemscore.Internal_Hbond>
0.0000

> <Gold.Chemscore.DEClash>
0.0830

> <Gold.Chemscore.DEInternal>
0.6208

> <Gold.Chemscore.Rot>
1.4681

> <Gold.Chemscore.Internal.Correction>
   9.000000E+99

> <Gold.Chemscore.Hbonds>
donor molecule, donor type, donor heavy atom, donor atom, acceptor molecule, acceptor atom, score
      L1  H     3    37       P1 10747  0.91
      L1  H     9    31       P1 10957  0.77
      P1  H 11000 11005       L1    17  0.25

> <Gold.Chemscore.Hbond.Weighted>
-8.7500

> <Gold.Chemscore.Metal.Weighted>
-0.0000

> <Gold.Chemscore.Lipo.Weighted>
-9.1904

> <Gold.Chemscore.Internal_Hbond.Weighted>
0.0000

> <Gold.Chemscore.DEClash.Weighted>
0.0830

> <Gold.Chemscore.DEInternal.Weighted>
0.6208

> <Gold.Chemscore.Rot.Weighted>
3.7584

> <Gold.Chemscore.Internal.Correction.Weighted>
   9.000000E+99

> <Gold.Protein.RotatedTorsions>
[ 6907 6896 6895 6894 ] final   56.47 input  -60.11 | X-H torsion
[ 7974 7965 7964 7962 ] final  -14.25 input  175.53 | X-H torsion
[ 8008 7997 7996 7995 ] final  -48.37 input   59.86 | X-H torsion
[ 10167 10162 10161 10158 ] final -118.96 input  -65.29 | X-H torsion
[ 10718 10713 10712 10709 ] final  104.14 input   66.30 | X-H torsion
[ 10763 10752 10751 10750 ] final  128.27 input  -60.55 | X-H torsion
[ 11005 11000 10999 10996 ] final   24.25 input  -57.11 | X-H torsion

> <Gold.Protein.ActiveResidues>
 VAL166  LYS551  ARG553  GLY616  TRP617  ASP618  TYR619  PRO620  LYS621  CYS622 
 ASP623  PHE694  ASN695  SER759  ASP760  ASP761  ALA762  ILE779  LEU786  VAL792 
 PHE793  MET794  SER795  GLU796  ALA797  LYS798  CYS799  TRP800  GLU811  SER814 

> <Gold.Protein.RotatedAtoms>
  152.3639  134.6832  160.0197 H   0  0  0  0  0  0  0  0  0  0  0  0  # atno 6907 bound_to 6896
  151.7147  133.3307  159.3308 H   0  0  0  0  0  0  0  0  0  0  0  0  # atno 6908 bound_to 6896
  150.7624  134.6436  159.6295 H   0  0  0  0  0  0  0  0  0  0  0  0  # atno 6909 bound_to 6896
  146.2082  140.3320  142.8400 H   0  0  0  0  0  0  0  0  0  0  0  0  # atno 7974 bound_to 7965
  154.4028  140.1323  156.4327 H   0  0  0  0  0  0  0  0  0  0  0  0  # atno 8008 bound_to 7997
  155.7535  140.3487  155.5142 H   0  0  0  0  0  0  0  0  0  0  0  0  # atno 8009 bound_to 7997
  155.8927  140.1006  157.1397 H   0  0  0  0  0  0  0  0  0  0  0  0  # atno 8010 bound_to 7997
  140.0518  143.5053  152.2078 H   0  0  0  0  0  0  0  0  0  0  0  0  # atno 10167 bound_to 10162
  157.6750  131.0796  150.5661 H   0  0  0  0  0  0  0  0  0  0  0  0  # atno 10718 bound_to 10713
  153.7228  135.3251  155.3270 H   0  0  0  0  0  0  0  0  0  0  0  0  # atno 10763 bound_to 10752
  154.8350  135.4503  154.1200 H   0  0  0  0  0  0  0  0  0  0  0  0  # atno 10764 bound_to 10752
  153.2326  135.6961  153.7953 H   0  0  0  0  0  0  0  0  0  0  0  0  # atno 10765 bound_to 10752
  140.3607  134.2128  155.7672 H   0  0  0  0  0  0  0  0  0  0  0  0  # atno 11005 bound_to 11000
  144.8845  140.7444  143.5965 LP  0  0  0  0  0  0  0  0  0  0  0  0  # atno 17320 bound_to 7965
  145.3241  139.1779  143.4572 LP  0  0  0  0  0  0  0  0  0  0  0  0  # atno 17321 bound_to 7965
  139.5948  144.7563  151.3312 LP  0  0  0  0  0  0  0  0  0  0  0  0  # atno 17342 bound_to 10162
  140.7213  143.7127  150.7756 LP  0  0  0  0  0  0  0  0  0  0  0  0  # atno 17343 bound_to 10162
  156.5963  130.4342  149.5916 LP  0  0  0  0  0  0  0  0  0  0  0  0  # atno 17370 bound_to 10713
  156.2543  130.6925  151.1673 LP  0  0  0  0  0  0  0  0  0  0  0  0  # atno 17371 bound_to 10713
  141.1985  133.8035  157.0581 LP  0  0  0  0  0  0  0  0  0  0  0  0  # atno 17394 bound_to 11000
  140.0629  134.9745  157.1335 LP  0  0  0  0  0  0  0  0  0  0  0  0  # atno 17395 bound_to 11000

$$$$
