AV-unprocessed.smi:1399|AV-procd|sdf|5685|dock3
  -GOLD-   22720 5313D 1   1.00000     0.00000
 Structure written by MMmdl.
 37 38  0  0  0  0  0  0  0  0  3 V2000
  150.3300  139.5103  154.2229 N   0  5  0  0  0  0  0  0  0  0  0  0
  149.0387  139.8515  154.3976 C   0  0  0  0  0  0  0  0  0  0  0  0
  148.5164  140.9498  154.2186 O   0  0  0  0  0  0  0  0  0  0  0  0
  148.1757  138.6698  154.8528 C   0  0  0  0  0  0  0  0  0  0  0  0
  147.5673  137.9944  153.6790 N   0  3  2  0  0  0  0  0  0  0  0  0
  147.0699  138.9631  152.6693 C   0  0  0  0  0  0  0  0  0  0  0  0
  146.5755  138.2437  151.4020 C   0  0  0  0  0  0  0  0  0  0  0  0
  145.4978  137.1883  151.7197 C   0  0  2  0  0  0  0  0  0  0  0  0
  144.2354  137.8033  152.1292 N   0  0  0  0  0  0  0  0  0  0  0  0
  143.1356  137.1372  152.5096 C   0  0  0  0  0  0  0  0  0  0  0  0
  143.0614  135.9091  152.5423 O   0  0  0  0  0  0  0  0  0  0  0  0
  142.1448  137.9809  152.8400 N   0  0  0  0  0  0  0  0  0  0  0  0
  140.8449  137.6420  153.2915 C   0  0  0  0  0  0  0  0  0  0  0  0
  140.4343  136.5730  154.1415 C   0  0  0  0  0  0  0  0  0  0  0  0
  139.1231  136.5908  154.3342 N   0  0  0  0  0  0  0  0  0  0  0  0
  138.6945  137.6555  153.6198 N   0  0  0  0  0  0  0  0  0  0  0  0
  139.7090  138.3231  152.9701 C   0  0  0  0  0  0  0  0  0  0  0  0
  146.0128  136.2387  152.8147 C   0  0  0  0  0  0  0  0  0  0  0  0
  146.5215  137.0029  154.0502 C   0  0  0  0  0  0  0  0  0  0  0  0
  137.7175  137.9101  153.5857 H   0  0  0  0  0  0  0  0  0  0  0  0
  150.5703  138.5200  154.0941 H   0  0  0  0  0  0  0  0  0  0  0  0
  148.7279  137.9515  155.4628 H   0  0  0  0  0  0  0  0  0  0  0  0
  147.3933  139.0806  155.4926 H   0  0  0  0  0  0  0  0  0  0  0  0
  146.2693  139.5648  153.1023 H   0  0  0  0  0  0  0  0  0  0  0  0
  147.8702  139.6520  152.3962 H   0  0  0  0  0  0  0  0  0  0  0  0
  146.2025  138.9710  150.6801 H   0  0  0  0  0  0  0  0  0  0  0  0
  147.4226  137.7531  150.9209 H   0  0  0  0  0  0  0  0  0  0  0  0
  145.3075  136.5973  150.8220 H   0  0  0  0  0  0  0  0  0  0  0  0
  144.2026  138.8122  152.1377 H   0  0  0  0  0  0  0  0  0  0  0  0
  142.3399  138.9683  152.7632 H   0  0  0  0  0  0  0  0  0  0  0  0
  141.0197  135.8002  154.6169 H   0  0  0  0  0  0  0  0  0  0  0  0
  139.5367  139.1952  152.3565 H   0  0  0  0  0  0  0  0  0  0  0  0
  145.2316  135.5346  153.1043 H   0  0  0  0  0  0  0  0  0  0  0  0
  146.8277  135.6360  152.4112 H   0  0  0  0  0  0  0  0  0  0  0  0
  146.9199  136.2845  154.7670 H   0  0  0  0  0  0  0  0  0  0  0  0
  145.6952  137.5131  154.5474 H   0  0  0  0  0  0  0  0  0  0  0  0
  148.3177  137.4810  153.2384 H   0  0  0  0  0  0  0  0  0  0  0  0
  1  2  1  0  0  0  0
  1 21  1  0  0  0  0
  2  3  2  0  0  0  0
  2  4  1  0  0  0  0
  4  5  1  0  0  0  0
  4 22  1  0  0  0  0
  4 23  1  0  0  0  0
  5 19  1  0  0  0  0
  5  6  1  0  0  0  0
  5 37  1  0  0  0  0
  6  7  1  0  0  0  0
  6 24  1  0  0  0  0
  6 25  1  0  0  0  0
  7  8  1  0  0  0  0
  7 26  1  0  0  0  0
  7 27  1  0  0  0  0
  8  9  1  0  0  0  0
  8 18  1  0  0  0  0
  8 28  1  0  0  0  0
  9 10  1  0  0  0  0
  9 29  1  0  0  0  0
 10 11  2  0  0  0  0
 10 12  1  0  0  0  0
 12 13  1  0  0  0  0
 12 30  1  0  0  0  0
 13 17  2  0  0  0  0
 13 14  1  0  0  0  0
 14 15  2  0  0  0  0
 14 31  1  0  0  0  0
 15 16  1  0  0  0  0
 16 20  1  0  0  0  0
 16 17  1  0  0  0  0
 17 32  1  0  0  0  0
 18 19  1  0  0  0  0
 18 33  1  0  0  0  0
 18 34  1  0  0  0  0
 19 35  1  0  0  0  0
 19 36  1  0  0  0  0
M  CHG  1   1  -1
M  CHG  1   5   1
M  END
> <s_m_source_file>
AV-unprocessed.smi

> <i_m_source_file_index>
1399

> <i_lp_mmshare_version>
43012

> <i_f3d_flags>
0

> <s_epik_input>
W05IMl1DKD1PKVtDSDJdTjFbQ0gyXVtDSDJdW0NIXShbQ0gyXVtDSDJdMSlbTkhdQyg9TylbTkhdYzJbY0hdbltuSF1bY0hdMg==

> <s_epik_cmdline>
J2VwaWtfcHl0aG9uJywgJy1waCcsICc3LjAnLCAnLXRuJywgJzgnLCAnLW1hJywgJzIwMCcsICctbWV0YWxfYmluZGluZycsICctaW1hZScsICc8aW5maWxlLm1hZT4nLCAnLW9tYWUnLCAnPG91dGZpbGUubWFlPic=

> <r_lp_tautomer_probability>
0.5

> <r_epik_Ionization_Penalty>
5.72885

> <r_epik_Ionization_Penalty_Charging>
5.7288

> <r_epik_Ionization_Penalty_Neutral>
4.21226e-05

> <r_epik_State_Penalty>
6.54882

> <r_epik_Charging_Adjusted_Penalty>
12.2776

> <i_epik_Tot_Q>
0

> <i_epik_Tot_abs_Q>
2

> <r_epik_Metal_State_Penalty>
2.51297

> <b_epik_Metal_Only>
1

> <s_lp_Force_Field>
OPLS_2005

> <r_lp_Energy>
10.897

> <b_lp_Chiralities_Consistent>
1

> <s_lp_Variant>
AV-unprocessed.smi:1399-5

> <Gold.Version>
5.8.1

> <Gold.Id.Protein>
6NUR|6NUR_protein|mol2

> <Gold.PLP.Fitness>
46.5057

> <Gold.PLP.PLP>
-27.4382

> <Gold.PLP.part.hbond>
-5.6744

> <Gold.PLP.part.metal>
0.0000

> <Gold.PLP.part.buried>
0.1812

> <Gold.PLP.part.nonpolar>
-23.2574

> <Gold.PLP.part.repulsive>
0.5000

> <Gold.PLP.ligand.clash>
0.0000

> <Gold.PLP.ligand.torsion>
0.7521

> <Gold.PLP.Chemscore.Hbond>
5.0000

> <Gold.PLP.Chemscore.CHOScore>
1.8449

> <Gold.PLP.Chemscore.Metal>
0.0000

> <Gold.Chemscore.Hbonds>
donor molecule, donor type, donor heavy atom, donor atom, acceptor molecule, acceptor atom, score
      L1  H     5    37       P1  7948  2.00
      L1  H     9    29       P1 10175  1.00
      L1  H    12    30       P1 10175  1.00
      P1  H  7989  7998       L1     1  1.00
      L1  C    14    31       P1 11000  0.53
      L1  C    17    32       P1 10160  1.00

> <Gold.PLP.Chemscore.Internal.Correction>
0.0371

> <Gold.Rescore>
     Score         DG    S(hbond)    S(metal)    S(lipo)     H(rot)  DE(clash)    DE(int)     intcor
     15.34     -19.03       3.75        0.00      53.68       2.06       0.85       2.85       ----

> <Gold.Chemscore.Fitness>
15.3392

> <Gold.Chemscore.DG>
-19.0322

> <Gold.Chemscore.ZeroCoef>
-5.4800

> <Gold.Chemscore.Hbond>
3.7549

> <Gold.Chemscore.Metal>
0.0000

> <Gold.Chemscore.Lipo>
53.6779

> <Gold.Chemscore.Internal_Hbond>
0.0000

> <Gold.Chemscore.DEClash>
0.8455

> <Gold.Chemscore.DEInternal>
2.8476

> <Gold.Chemscore.Rot>
2.0584

> <Gold.Chemscore.Internal.Correction>
   9.000000E+99

> <Gold.Chemscore.Hbonds>
donor molecule, donor type, donor heavy atom, donor atom, acceptor molecule, acceptor atom, score
      L1  H     5    37       P1  7948  0.94
      L1  H     9    29       P1 10175  1.00
      L1  H    12    30       P1 10175  0.93
      P1  H  7989  7998       L1     1  0.88

> <Gold.Chemscore.Hbond.Weighted>
-12.5414

> <Gold.Chemscore.Metal.Weighted>
-0.0000

> <Gold.Chemscore.Lipo.Weighted>
-6.2803

> <Gold.Chemscore.Internal_Hbond.Weighted>
0.0000

> <Gold.Chemscore.DEClash.Weighted>
0.8455

> <Gold.Chemscore.DEInternal.Weighted>
2.8476

> <Gold.Chemscore.Rot.Weighted>
5.2695

> <Gold.Chemscore.Internal.Correction.Weighted>
   9.000000E+99

> <Gold.Protein.RotatedTorsions>
[ 6907 6896 6895 6894 ] final  139.49 input  -60.11 | X-H torsion
[ 7974 7965 7964 7962 ] final  -26.18 input  175.53 | X-H torsion
[ 8008 7997 7996 7995 ] final  -46.70 input   59.86 | X-H torsion
[ 10167 10162 10161 10158 ] final -150.10 input  -65.29 | X-H torsion
[ 10718 10713 10712 10709 ] final   -9.06 input   66.30 | X-H torsion
[ 10763 10752 10751 10750 ] final  109.59 input  -60.55 | X-H torsion
[ 11005 11000 10999 10996 ] final -161.26 input  -57.11 | X-H torsion

> <Gold.Protein.ActiveResidues>
 VAL166  LYS551  ARG553  GLY616  TRP617  ASP618  TYR619  PRO620  LYS621  CYS622 
 ASP623  PHE694  ASN695  SER759  ASP760  ASP761  ALA762  ILE779  LEU786  VAL792 
 PHE793  MET794  SER795  GLU796  ALA797  LYS798  CYS799  TRP800  GLU811  SER814 

> <Gold.Protein.RotatedAtoms>
  152.2543  133.5242  159.5343 H   0  0  0  0  0  0  0  0  0  0  0  0  # atno 6907 bound_to 6896
  150.7104  134.0917  159.3943 H   0  0  0  0  0  0  0  0  0  0  0  0  # atno 6908 bound_to 6896
  151.8836  135.0444  160.0542 H   0  0  0  0  0  0  0  0  0  0  0  0  # atno 6909 bound_to 6896
  146.1442  140.4985  142.8639 H   0  0  0  0  0  0  0  0  0  0  0  0  # atno 7974 bound_to 7965
  154.4009  140.1365  156.4054 H   0  0  0  0  0  0  0  0  0  0  0  0  # atno 8008 bound_to 7997
  155.7785  140.3482  155.5264 H   0  0  0  0  0  0  0  0  0  0  0  0  # atno 8009 bound_to 7997
  155.8697  140.0970  157.1548 H   0  0  0  0  0  0  0  0  0  0  0  0  # atno 8010 bound_to 7997
  139.7384  143.8700  152.2555 H   0  0  0  0  0  0  0  0  0  0  0  0  # atno 10167 bound_to 10162
  156.6935  130.5072  149.5937 H   0  0  0  0  0  0  0  0  0  0  0  0  # atno 10718 bound_to 10713
  153.4369  135.3775  155.2204 H   0  0  0  0  0  0  0  0  0  0  0  0  # atno 10763 bound_to 10752
  154.8752  135.3853  154.4199 H   0  0  0  0  0  0  0  0  0  0  0  0  # atno 10764 bound_to 10752
  153.4740  135.7087  153.6040 H   0  0  0  0  0  0  0  0  0  0  0  0  # atno 10765 bound_to 10752
  140.6224  134.4737  157.5224 H   0  0  0  0  0  0  0  0  0  0  0  0  # atno 11005 bound_to 11000
  144.7827  140.5874  143.6594 LP  0  0  0  0  0  0  0  0  0  0  0  0  # atno 17320 bound_to 7965
  145.4975  139.1485  143.3675 LP  0  0  0  0  0  0  0  0  0  0  0  0  # atno 17321 bound_to 7965
  139.8644  144.7101  150.9062 LP  0  0  0  0  0  0  0  0  0  0  0  0  # atno 17342 bound_to 10162
  140.7782  143.3791  151.1510 LP  0  0  0  0  0  0  0  0  0  0  0  0  # atno 17343 bound_to 10162
  156.1780  130.6480  151.0918 LP  0  0  0  0  0  0  0  0  0  0  0  0  # atno 17370 bound_to 10713
  157.7000  131.0779  150.6850 LP  0  0  0  0  0  0  0  0  0  0  0  0  # atno 17371 bound_to 10713
  139.9148  134.8269  156.1403 LP  0  0  0  0  0  0  0  0  0  0  0  0  # atno 17394 bound_to 11000
  141.0733  133.6787  156.2185 LP  0  0  0  0  0  0  0  0  0  0  0  0  # atno 17395 bound_to 11000

$$$$
