AV-unprocessed.smi:316|AV-procd|sdf|2325|dock3
  -GOLD-   2262022223D 1   1.00000     0.00000
 Structure written by MMmdl.
 43 44  0  0  0  0  0  0  0  0  2 V2000
  154.9417  135.1548  164.5085 C   0  0  0  0  0  0  0  0  0  0  0  0
  154.4645  135.9929  163.4192 N   0  0  0  0  0  0  0  0  0  0  0  0
  154.8040  137.2789  163.2525 C   0  0  0  0  0  0  0  0  0  0  0  0
  155.5620  137.8783  164.0159 O   0  0  0  0  0  0  0  0  0  0  0  0
  154.1946  137.9832  162.0358 C   0  0  0  0  0  0  0  0  0  0  0  0
  154.7017  139.4274  161.8487 C   0  0  0  0  0  0  0  0  0  0  0  0
  154.0381  140.0912  160.7320 N   0  0  0  0  0  0  0  0  0  0  0  0
  153.4877  141.3120  160.7829 C   0  0  0  0  0  0  0  0  0  0  0  0
  153.4909  142.0203  161.7896 O   0  0  0  0  0  0  0  0  0  0  0  0
  152.9593  141.6601  159.5977 N   0  0  0  0  0  0  0  0  0  0  0  0
  152.3470  142.8967  159.2486 C   0  0  0  0  0  0  0  0  0  0  0  0
  152.5513  144.0602  160.0342 C   0  0  0  0  0  0  0  0  0  0  0  0
  151.8809  145.2542  159.7098 C   0  0  0  0  0  0  0  0  0  0  0  0
  151.0014  145.2638  158.6140 C   0  0  0  0  0  0  0  0  0  0  0  0
  150.8180  144.1377  157.8943 N   0  3  0  0  0  0  0  0  0  0  0  0
  151.4456  142.9617  158.1465 C   0  0  0  0  0  0  0  0  0  0  0  0
  151.1626  141.8678  157.2970 N   0  0  0  0  0  0  0  0  0  0  0  0
  150.7218  140.5945  157.8547 C   0  0  0  0  0  0  0  0  0  0  0  0
  150.1843  139.8056  156.6639 C   0  0  0  0  0  0  0  0  0  0  0  0
  149.5623  140.8986  155.8000 C   0  0  0  0  0  0  0  0  0  0  0  0
  150.4724  142.1090  156.0335 C   0  0  0  0  0  0  0  0  0  0  0  0
  154.5012  134.1607  164.4331 H   0  0  0  0  0  0  0  0  0  0  0  0
  154.6654  135.5778  165.4754 H   0  0  0  0  0  0  0  0  0  0  0  0
  156.0269  135.0510  164.4704 H   0  0  0  0  0  0  0  0  0  0  0  0
  153.8405  135.5678  162.7485 H   0  0  0  0  0  0  0  0  0  0  0  0
  154.4198  137.3870  161.1507 H   0  0  0  0  0  0  0  0  0  0  0  0
  153.1087  137.9892  162.1422 H   0  0  0  0  0  0  0  0  0  0  0  0
  154.5049  140.0133  162.7475 H   0  0  0  0  0  0  0  0  0  0  0  0
  155.7827  139.4436  161.6970 H   0  0  0  0  0  0  0  0  0  0  0  0
  153.9919  139.5797  159.8628 H   0  0  0  0  0  0  0  0  0  0  0  0
  153.1118  141.0165  158.8349 H   0  0  0  0  0  0  0  0  0  0  0  0
  153.1984  144.0493  160.8986 H   0  0  0  0  0  0  0  0  0  0  0  0
  152.0302  146.1455  160.3016 H   0  0  0  0  0  0  0  0  0  0  0  0
  150.4394  146.1296  158.2954 H   0  0  0  0  0  0  0  0  0  0  0  0
  151.5392  140.0711  158.3515 H   0  0  0  0  0  0  0  0  0  0  0  0
  149.9220  140.7520  158.5797 H   0  0  0  0  0  0  0  0  0  0  0  0
  151.0067  139.3299  156.1277 H   0  0  0  0  0  0  0  0  0  0  0  0
  149.4734  139.0310  156.9526 H   0  0  0  0  0  0  0  0  0  0  0  0
  149.4877  140.6207  154.7482 H   0  0  0  0  0  0  0  0  0  0  0  0
  148.5569  141.1207  156.1600 H   0  0  0  0  0  0  0  0  0  0  0  0
  149.9011  143.0382  156.0463 H   0  0  0  0  0  0  0  0  0  0  0  0
  151.2134  142.1760  155.2364 H   0  0  0  0  0  0  0  0  0  0  0  0
  150.1720  144.1764  157.1058 H   0  0  0  0  0  0  0  0  0  0  0  0
  1  2  1  0  0  0  0
  1 22  1  0  0  0  0
  1 23  1  0  0  0  0
  1 24  1  0  0  0  0
  2  3  1  0  0  0  0
  2 25  1  0  0  0  0
  3  4  2  0  0  0  0
  3  5  1  0  0  0  0
  5  6  1  0  0  0  0
  5 26  1  0  0  0  0
  5 27  1  0  0  0  0
  6  7  1  0  0  0  0
  6 28  1  0  0  0  0
  6 29  1  0  0  0  0
  7  8  1  0  0  0  0
  7 30  1  0  0  0  0
  8  9  2  0  0  0  0
  8 10  1  0  0  0  0
 10 11  1  0  0  0  0
 10 31  1  0  0  0  0
 11 16  1  0  0  0  0
 11 12  2  0  0  0  0
 12 13  1  0  0  0  0
 12 32  1  0  0  0  0
 13 14  2  0  0  0  0
 13 33  1  0  0  0  0
 14 15  1  0  0  0  0
 14 34  1  0  0  0  0
 15 16  2  0  0  0  0
 15 43  1  0  0  0  0
 16 17  1  0  0  0  0
 17 21  1  0  0  0  0
 17 18  1  0  0  0  0
 18 19  1  0  0  0  0
 18 35  1  0  0  0  0
 18 36  1  0  0  0  0
 19 20  1  0  0  0  0
 19 37  1  0  0  0  0
 19 38  1  0  0  0  0
 20 21  1  0  0  0  0
 20 39  1  0  0  0  0
 20 40  1  0  0  0  0
 21 41  1  0  0  0  0
 21 42  1  0  0  0  0
M  CHG  1  15   1
M  END
> <s_m_source_file>
AV-unprocessed.smi

> <i_m_source_file_index>
316

> <i_lp_mmshare_version>
43012

> <i_f3d_flags>
0

> <s_epik_input>
W0NIM11bTkhdQyg9TylbQ0gyXVtDSDJdW05IXUMoPU8pW05IXWMxW2NIXVtjSF1bY0hdbmMxTjJbQ0gyXVtDSDJdW0NIMl1bQ0gyXTI=

> <s_epik_cmdline>
J2VwaWtfcHl0aG9uJywgJy1waCcsICc3LjAnLCAnLXRuJywgJzgnLCAnLW1hJywgJzIwMCcsICctbWV0YWxfYmluZGluZycsICctaW1hZScsICc8aW5maWxlLm1hZT4nLCAnLW9tYWUnLCAnPG91dGZpbGUubWFlPic=

> <r_lp_tautomer_probability>
0.999994

> <r_epik_Ionization_Penalty>
1.15434

> <r_epik_Ionization_Penalty_Charging>
1.15432

> <r_epik_Ionization_Penalty_Neutral>
1.92607e-05

> <r_epik_State_Penalty>
1.21599

> <r_epik_Charging_Adjusted_Penalty>
2.37031

> <i_epik_Tot_Q>
1

> <i_epik_Tot_abs_Q>
1

> <r_epik_Metal_State_Penalty>
1.29606

> <b_epik_Metal_Only>
0

> <s_lp_Force_Field>
OPLS_2005

> <r_lp_Energy>
36.337

> <b_lp_Chiralities_Consistent>
1

> <s_lp_Variant>
AV-unprocessed.smi:316-2

> <Gold.Version>
5.8.1

> <Gold.Id.Protein>
6NUR|6NUR_protein|mol2

> <Gold.PLP.Fitness>
45.2652

> <Gold.PLP.PLP>
-39.5625

> <Gold.PLP.part.hbond>
-1.0000

> <Gold.PLP.part.metal>
0.0000

> <Gold.PLP.part.buried>
-6.4004

> <Gold.PLP.part.nonpolar>
-31.7073

> <Gold.PLP.part.repulsive>
0.2852

> <Gold.PLP.ligand.clash>
0.0000

> <Gold.PLP.ligand.torsion>
0.3667

> <Gold.PLP.Chemscore.Hbond>
2.0000

> <Gold.PLP.Chemscore.CHOScore>
0.0000

> <Gold.PLP.Chemscore.Metal>
0.0000

> <Gold.Chemscore.Hbonds>
donor molecule, donor type, donor heavy atom, donor atom, acceptor molecule, acceptor atom, score
      L1  H    15    43       P1  8028  2.00

> <Gold.PLP.Chemscore.Internal.Correction>
0.4361

> <Gold.Rescore>
     Score         DG    S(hbond)    S(metal)    S(lipo)     H(rot)  DE(clash)    DE(int)     intcor
     12.76     -14.52       0.93        0.00      94.05       1.98       0.02       1.74       ----

> <Gold.Chemscore.Fitness>
12.7614

> <Gold.Chemscore.DG>
-14.5163

> <Gold.Chemscore.ZeroCoef>
-5.4800

> <Gold.Chemscore.Hbond>
0.9254

> <Gold.Chemscore.Metal>
0.0000

> <Gold.Chemscore.Lipo>
94.0510

> <Gold.Chemscore.Internal_Hbond>
0.0000

> <Gold.Chemscore.DEClash>
0.0163

> <Gold.Chemscore.DEInternal>
1.7386

> <Gold.Chemscore.Rot>
1.9760

> <Gold.Chemscore.Internal.Correction>
   9.000000E+99

> <Gold.Chemscore.Hbonds>
donor molecule, donor type, donor heavy atom, donor atom, acceptor molecule, acceptor atom, score
      L1  H    15    43       P1  8028  0.83

> <Gold.Chemscore.Hbond.Weighted>
-3.0909

> <Gold.Chemscore.Metal.Weighted>
-0.0000

> <Gold.Chemscore.Lipo.Weighted>
-11.0040

> <Gold.Chemscore.Internal_Hbond.Weighted>
0.0000

> <Gold.Chemscore.DEClash.Weighted>
0.0163

> <Gold.Chemscore.DEInternal.Weighted>
1.7386

> <Gold.Chemscore.Rot.Weighted>
5.0585

> <Gold.Chemscore.Internal.Correction.Weighted>
   9.000000E+99

> <Gold.Protein.RotatedTorsions>
[ 6907 6896 6895 6894 ] final  147.02 input  -60.11 | X-H torsion
[ 7974 7965 7964 7962 ] final  158.98 input  175.53 | X-H torsion
[ 8008 7997 7996 7995 ] final  129.72 input   59.86 | X-H torsion
[ 10167 10162 10161 10158 ] final  171.97 input  -65.29 | X-H torsion
[ 10718 10713 10712 10709 ] final  176.27 input   66.30 | X-H torsion
[ 10763 10752 10751 10750 ] final  -69.85 input  -60.55 | X-H torsion
[ 11005 11000 10999 10996 ] final -164.73 input  -57.11 | X-H torsion

> <Gold.Protein.ActiveResidues>
 VAL166  LYS551  ARG553  GLY616  TRP617  ASP618  TYR619  PRO620  LYS621  CYS622 
 ASP623  PHE694  ASN695  SER759  ASP760  ASP761  ALA762  ILE779  LEU786  VAL792 
 PHE793  MET794  SER795  GLU796  ALA797  LYS798  CYS799  TRP800  GLU811  SER814 

> <Gold.Protein.RotatedAtoms>
  152.1603  133.4577  159.4857 H   0  0  0  0  0  0  0  0  0  0  0  0  # atno 6907 bound_to 6896
  150.6906  134.2080  159.4357 H   0  0  0  0  0  0  0  0  0  0  0  0  # atno 6908 bound_to 6896
  151.9981  134.9942  160.0615 H   0  0  0  0  0  0  0  0  0  0  0  0  # atno 6909 bound_to 6896
  144.7816  139.7553  143.6257 H   0  0  0  0  0  0  0  0  0  0  0  0  # atno 7974 bound_to 7965
  156.2941  140.2613  156.2645 H   0  0  0  0  0  0  0  0  0  0  0  0  # atno 8008 bound_to 7997
  154.9756  140.0390  157.2273 H   0  0  0  0  0  0  0  0  0  0  0  0  # atno 8009 bound_to 7997
  154.7818  140.2796  155.6062 H   0  0  0  0  0  0  0  0  0  0  0  0  # atno 8010 bound_to 7997
  139.5062  144.3426  152.0003 H   0  0  0  0  0  0  0  0  0  0  0  0  # atno 10167 bound_to 10162
  156.9226  130.9945  151.3002 H   0  0  0  0  0  0  0  0  0  0  0  0  # atno 10718 bound_to 10713
  154.4092  135.6013  153.5943 H   0  0  0  0  0  0  0  0  0  0  0  0  # atno 10763 bound_to 10752
  152.9790  135.5925  154.4090 H   0  0  0  0  0  0  0  0  0  0  0  0  # atno 10764 bound_to 10752
  154.3900  135.2842  155.2139 H   0  0  0  0  0  0  0  0  0  0  0  0  # atno 10765 bound_to 10752
  140.5836  134.5116  157.5182 H   0  0  0  0  0  0  0  0  0  0  0  0  # atno 11005 bound_to 11000
  146.2026  139.5331  142.9733 LP  0  0  0  0  0  0  0  0  0  0  0  0  # atno 17320 bound_to 7965
  145.6036  141.0351  143.2005 LP  0  0  0  0  0  0  0  0  0  0  0  0  # atno 17321 bound_to 7965
  140.2864  144.3803  150.6102 LP  0  0  0  0  0  0  0  0  0  0  0  0  # atno 17342 bound_to 10162
  140.5980  143.2167  151.7128 LP  0  0  0  0  0  0  0  0  0  0  0  0  # atno 17343 bound_to 10162
  157.5898  130.8435  149.8642 LP  0  0  0  0  0  0  0  0  0  0  0  0  # atno 17370 bound_to 10713
  156.0484  130.3723  150.1261 LP  0  0  0  0  0  0  0  0  0  0  0  0  # atno 17371 bound_to 10713
  139.9306  134.7971  156.0942 LP  0  0  0  0  0  0  0  0  0  0  0  0  # atno 17394 bound_to 11000
  141.0980  133.6688  156.2690 LP  0  0  0  0  0  0  0  0  0  0  0  0  # atno 17395 bound_to 11000

$$$$
