AV-unprocessed.smi:2923|AV-procd|sdf|11203|dock6
  -GOLD-   2272016 93D 1   1.00000     0.00000
 Structure written by MMmdl.
 47 49  0  0  0  0  0  0  0  0  2 V2000
  147.5212  133.2862  152.0425 C   0  0  0  0  0  0  0  0  0  0  0  0
  146.2728  133.5305  151.3284 N   0  0  0  0  0  0  0  0  0  0  0  0
  145.8942  132.6907  150.1993 C   0  0  0  0  0  0  0  0  0  0  0  0
  145.4404  134.6019  151.7180 C   0  0  0  0  0  0  0  0  0  0  0  0
  144.0355  134.4836  151.8549 C   0  0  0  0  0  0  0  0  0  0  0  0
  143.2723  135.6027  152.2468 C   0  0  0  0  0  0  0  0  0  0  0  0
  143.9106  136.8331  152.5076 C   0  0  0  0  0  0  0  0  0  0  0  0
  143.0951  137.9351  152.8837 N   0  0  0  0  0  0  0  0  0  0  0  0
  141.9119  137.9261  153.5219 C   0  0  0  0  0  0  0  0  0  0  0  0
  141.2909  136.9187  153.8591 O   0  0  0  0  0  0  0  0  0  0  0  0
  141.4680  139.1711  153.7375 N   0  0  0  0  0  0  0  0  0  0  0  0
  140.2078  139.4909  154.3971 C   0  0  1  0  0  0  0  0  0  0  0  0
  139.4201  140.5741  153.6606 C   0  0  2  0  0  0  0  0  0  0  0  0
  139.0243  141.9729  153.9734 C   0  0  0  0  0  0  0  0  0  0  0  0
  137.5354  141.8722  153.5464 C   0  0  0  0  0  0  0  0  0  0  0  0
  137.2767  140.4622  153.3363 O   0  0  0  0  0  0  0  0  0  0  0  0
  138.2110  139.8203  154.1796 C   0  0  1  0  0  0  0  0  0  0  0  0
  139.0275  138.5236  154.0069 C   0  0  0  0  0  0  0  0  0  0  0  0
  139.0179  137.8481  152.6204 C   0  0  0  0  0  0  0  0  0  0  0  0
  138.7237  137.4216  155.0224 C   0  0  0  0  0  0  0  0  0  0  0  0
  145.3151  136.9031  152.3485 C   0  0  0  0  0  0  0  0  0  0  0  0
  146.0071  135.8069  151.9706 N   0  3  0  0  0  0  0  0  0  0  0  0
  148.1825  134.1500  151.9641 H   0  0  0  0  0  0  0  0  0  0  0  0
  148.0494  132.4232  151.6368 H   0  0  0  0  0  0  0  0  0  0  0  0
  147.3276  133.0915  153.0979 H   0  0  0  0  0  0  0  0  0  0  0  0
  144.9458  132.1896  150.3955 H   0  0  0  0  0  0  0  0  0  0  0  0
  146.6435  131.9224  150.0084 H   0  0  0  0  0  0  0  0  0  0  0  0
  145.7930  133.2882  149.2929 H   0  0  0  0  0  0  0  0  0  0  0  0
  143.5266  133.5507  151.6634 H   0  0  0  0  0  0  0  0  0  0  0  0
  142.2006  135.5113  152.3481 H   0  0  0  0  0  0  0  0  0  0  0  0
  143.4416  138.8431  152.6102 H   0  0  0  0  0  0  0  0  0  0  0  0
  142.0328  139.9477  153.4261 H   0  0  0  0  0  0  0  0  0  0  0  0
  140.2975  139.6819  155.4705 H   0  0  0  0  0  0  0  0  0  0  0  0
  139.5558  140.4743  152.5812 H   0  0  0  0  0  0  0  0  0  0  0  0
  139.1317  142.2003  155.0350 H   0  0  0  0  0  0  0  0  0  0  0  0
  139.5780  142.7108  153.3923 H   0  0  0  0  0  0  0  0  0  0  0  0
  136.8804  142.2683  154.3234 H   0  0  0  0  0  0  0  0  0  0  0  0
  137.3378  142.4201  152.6247 H   0  0  0  0  0  0  0  0  0  0  0  0
  137.9821  140.0216  155.2325 H   0  0  0  0  0  0  0  0  0  0  0  0
  138.0419  137.4128  152.4042 H   0  0  0  0  0  0  0  0  0  0  0  0
  139.7492  137.0409  152.5681 H   0  0  0  0  0  0  0  0  0  0  0  0
  139.2432  138.5261  151.7995 H   0  0  0  0  0  0  0  0  0  0  0  0
  137.7424  136.9783  154.8500 H   0  0  0  0  0  0  0  0  0  0  0  0
  138.7297  137.8048  156.0434 H   0  0  0  0  0  0  0  0  0  0  0  0
  139.4616  136.6201  154.9777 H   0  0  0  0  0  0  0  0  0  0  0  0
  145.9178  137.7867  152.4934 H   0  0  0  0  0  0  0  0  0  0  0  0
  147.0181  135.8939  151.8666 H   0  0  0  0  0  0  0  0  0  0  0  0
  1  2  1  0  0  0  0
  1 23  1  0  0  0  0
  1 24  1  0  0  0  0
  1 25  1  0  0  0  0
  2  3  1  0  0  0  0
  2  4  1  0  0  0  0
  3 26  1  0  0  0  0
  3 27  1  0  0  0  0
  3 28  1  0  0  0  0
  4 22  1  0  0  0  0
  4  5  2  0  0  0  0
  5  6  1  0  0  0  0
  5 29  1  0  0  0  0
  6  7  2  0  0  0  0
  6 30  1  0  0  0  0
  7  8  1  0  0  0  0
  7 21  1  0  0  0  0
  8  9  1  0  0  0  0
  8 31  1  0  0  0  0
  9 10  2  0  0  0  0
  9 11  1  0  0  0  0
 11 12  1  0  0  0  0
 11 32  1  0  0  0  0
 12 18  1  0  0  0  0
 12 13  1  0  0  0  0
 12 33  1  0  0  0  0
 13 17  1  0  0  0  0
 13 14  1  0  0  0  0
 13 34  1  0  0  0  0
 14 15  1  0  0  0  0
 14 35  1  0  0  0  0
 14 36  1  0  0  0  0
 15 16  1  0  0  0  0
 15 37  1  0  0  0  0
 15 38  1  0  0  0  0
 16 17  1  0  0  0  0
 17 18  1  0  0  0  0
 17 39  1  0  0  0  0
 18 19  1  0  0  0  0
 18 20  1  0  0  0  0
 19 40  1  0  0  0  0
 19 41  1  0  0  0  0
 19 42  1  0  0  0  0
 20 43  1  0  0  0  0
 20 44  1  0  0  0  0
 20 45  1  0  0  0  0
 21 22  2  0  0  0  0
 21 46  1  0  0  0  0
 22 47  1  0  0  0  0
M  CHG  1  22   1
M  END
> <s_m_source_file>
AV-unprocessed.smi

> <i_m_source_file_index>
2923

> <i_lp_mmshare_version>
43012

> <i_f3d_flags>
0

> <s_epik_input>
W0NIM11OKFtDSDNdKWMxW2NIXVtjSF1jKFtjSF1uMSlbTkhdQyg9TylbTkhdW0NASF0yQyhbQ0gzXSkoW0NIM10pW0NAQEhdKFtDQEhdMjMpT1tDSDJdW0NIMl0z

> <s_epik_cmdline>
J2VwaWtfcHl0aG9uJywgJy1waCcsICc3LjAnLCAnLXRuJywgJzgnLCAnLW1hJywgJzIwMCcsICctbWV0YWxfYmluZGluZycsICctaW1hZScsICc8aW5maWxlLm1hZT4nLCAnLW9tYWUnLCAnPG91dGZpbGUubWFlPic=

> <r_lp_tautomer_probability>
0.999994

> <r_epik_Ionization_Penalty>
0.252205

> <r_epik_Ionization_Penalty_Charging>
0.252185

> <r_epik_Ionization_Penalty_Neutral>
1.99479e-05

> <r_epik_State_Penalty>
0.243573

> <r_epik_Charging_Adjusted_Penalty>
0.495758

> <i_epik_Tot_Q>
1

> <i_epik_Tot_abs_Q>
1

> <r_epik_Metal_State_Penalty>
0.534372

> <b_epik_Metal_Only>
0

> <s_lp_Force_Field>
OPLS_2005

> <r_lp_Energy>
67.7909

> <b_lp_Chiralities_Consistent>
1

> <s_lp_Variant>
AV-unprocessed.smi:2923-2

> <Gold.Version>
5.8.1

> <Gold.Id.Protein>
6NUR|6NUR_protein|mol2

> <Gold.PLP.Fitness>
46.1260

> <Gold.PLP.PLP>
-36.4066

> <Gold.PLP.part.hbond>
-3.2552

> <Gold.PLP.part.metal>
0.0000

> <Gold.PLP.part.buried>
-4.4740

> <Gold.PLP.part.nonpolar>
-28.3297

> <Gold.PLP.part.repulsive>
0.1765

> <Gold.PLP.ligand.clash>
0.0000

> <Gold.PLP.ligand.torsion>
1.1656

> <Gold.PLP.Chemscore.Hbond>
3.9280

> <Gold.PLP.Chemscore.CHOScore>
0.0000

> <Gold.PLP.Chemscore.Metal>
0.0000

> <Gold.Chemscore.Hbonds>
donor molecule, donor type, donor heavy atom, donor atom, acceptor molecule, acceptor atom, score
      L1  H     8    31       P1 10175  1.00
      L1  H    11    32       P1 10175  0.93
      L1  H    22    47       P1  7948  2.00

> <Gold.PLP.Chemscore.Internal.Correction>
0.2666

> <Gold.Rescore>
     Score         DG    S(hbond)    S(metal)    S(lipo)     H(rot)  DE(clash)    DE(int)     intcor
     18.17     -21.95       2.76        0.00      83.91       1.00       1.84       1.94       ----

> <Gold.Chemscore.Fitness>
18.1690

> <Gold.Chemscore.DG>
-21.9528

> <Gold.Chemscore.ZeroCoef>
-5.4800

> <Gold.Chemscore.Hbond>
2.7592

> <Gold.Chemscore.Metal>
0.0000

> <Gold.Chemscore.Lipo>
83.9074

> <Gold.Chemscore.Internal_Hbond>
0.0000

> <Gold.Chemscore.DEClash>
1.8398

> <Gold.Chemscore.DEInternal>
1.9440

> <Gold.Chemscore.Rot>
1.0000

> <Gold.Chemscore.Internal.Correction>
   9.000000E+99

> <Gold.Chemscore.Hbonds>
donor molecule, donor type, donor heavy atom, donor atom, acceptor molecule, acceptor atom, score
      L1  H     8    31       P1 10175  0.99
      L1  H    11    32       P1 10175  0.58
      L1  H    22    47       P1  7948  0.99

> <Gold.Chemscore.Hbond.Weighted>
-9.2156

> <Gold.Chemscore.Metal.Weighted>
-0.0000

> <Gold.Chemscore.Lipo.Weighted>
-9.8172

> <Gold.Chemscore.Internal_Hbond.Weighted>
0.0000

> <Gold.Chemscore.DEClash.Weighted>
1.8398

> <Gold.Chemscore.DEInternal.Weighted>
1.9440

> <Gold.Chemscore.Rot.Weighted>
2.5600

> <Gold.Chemscore.Internal.Correction.Weighted>
   9.000000E+99

> <Gold.Protein.RotatedTorsions>
[ 6907 6896 6895 6894 ] final  -27.68 input  -60.11 | X-H torsion
[ 7974 7965 7964 7962 ] final -105.00 input  175.53 | X-H torsion
[ 8008 7997 7996 7995 ] final  100.41 input   59.86 | X-H torsion
[ 10167 10162 10161 10158 ] final -177.65 input  -65.29 | X-H torsion
[ 10718 10713 10712 10709 ] final  -80.80 input   66.30 | X-H torsion
[ 10763 10752 10751 10750 ] final  143.45 input  -60.55 | X-H torsion
[ 11005 11000 10999 10996 ] final  -30.24 input  -57.11 | X-H torsion

> <Gold.Protein.ActiveResidues>
 VAL166  LYS551  ARG553  GLY616  TRP617  ASP618  TYR619  PRO620  LYS621  CYS622 
 ASP623  PHE694  ASN695  SER759  ASP760  ASP761  ALA762  ILE779  LEU786  VAL792 
 PHE793  MET794  SER795  GLU796  ALA797  LYS798  CYS799  TRP800  GLU811  SER814 

> <Gold.Protein.RotatedAtoms>
  151.1435  135.0191  159.8635 H   0  0  0  0  0  0  0  0  0  0  0  0  # atno 6907 bound_to 6896
  152.5452  134.1472  159.8513 H   0  0  0  0  0  0  0  0  0  0  0  0  # atno 6908 bound_to 6896
  151.1550  133.4837  159.2627 H   0  0  0  0  0  0  0  0  0  0  0  0  # atno 6909 bound_to 6896
  145.2360  140.9188  143.3177 H   0  0  0  0  0  0  0  0  0  0  0  0  # atno 7974 bound_to 7965
  156.1200  140.3214  155.8195 H   0  0  0  0  0  0  0  0  0  0  0  0  # atno 8008 bound_to 7997
  155.4521  140.0533  157.3017 H   0  0  0  0  0  0  0  0  0  0  0  0  # atno 8009 bound_to 7997
  154.4821  140.2057  155.9754 H   0  0  0  0  0  0  0  0  0  0  0  0  # atno 8010 bound_to 7997
  139.5470  144.2209  152.1006 H   0  0  0  0  0  0  0  0  0  0  0  0  # atno 10167 bound_to 10162
  156.0063  130.4585  150.3856 H   0  0  0  0  0  0  0  0  0  0  0  0  # atno 10718 bound_to 10713
  153.9726  135.2949  155.3426 H   0  0  0  0  0  0  0  0  0  0  0  0  # atno 10763 bound_to 10752
  154.7314  135.5066  153.8973 H   0  0  0  0  0  0  0  0  0  0  0  0  # atno 10764 bound_to 10752
  153.0893  135.6703  153.9999 H   0  0  0  0  0  0  0  0  0  0  0  0  # atno 10765 bound_to 10752
  140.9365  133.7305  156.1013 H   0  0  0  0  0  0  0  0  0  0  0  0  # atno 11005 bound_to 11000
  144.9632  139.3957  143.6345 LP  0  0  0  0  0  0  0  0  0  0  0  0  # atno 17320 bound_to 7965
  146.3341  139.8696  142.8842 LP  0  0  0  0  0  0  0  0  0  0  0  0  # atno 17321 bound_to 7965
  140.1698  144.4947  150.6586 LP  0  0  0  0  0  0  0  0  0  0  0  0  # atno 17342 bound_to 10162
  140.6721  143.2290  151.5598 LP  0  0  0  0  0  0  0  0  0  0  0  0  # atno 17343 bound_to 10162
  157.1933  131.0420  151.2689 LP  0  0  0  0  0  0  0  0  0  0  0  0  # atno 17370 bound_to 10713
  157.4041  130.7349  149.6789 LP  0  0  0  0  0  0  0  0  0  0  0  0  # atno 17371 bound_to 10713
  140.7792  134.3745  157.5491 LP  0  0  0  0  0  0  0  0  0  0  0  0  # atno 17394 bound_to 11000
  139.8809  134.9071  156.2936 LP  0  0  0  0  0  0  0  0  0  0  0  0  # atno 17395 bound_to 11000

$$$$
