AV-unprocessed.smi:38|AV-procd|sdf|337|dock6
  -GOLD-   2262016173D 1   1.00000     0.00000
 Structure written by MMmdl.
 28 29  0  0  0  0  0  0  0  0  1 V2000
  152.5883  140.7345  158.8973 O   0  0  0  0  0  0  0  0  0  0  0  0
  151.9231  140.7023  157.8639 C   0  0  0  0  0  0  0  0  0  0  0  0
  151.8232  139.5180  157.1288 N   0  0  0  0  0  0  0  0  0  0  0  0
  151.0982  139.3560  155.9469 C   0  0  0  0  0  0  0  0  0  0  0  0
  151.0967  138.2687  155.3713 O   0  0  0  0  0  0  0  0  0  0  0  0
  150.3905  140.4781  155.4607 N   0  0  0  0  0  0  0  0  0  0  0  0
  149.6122  140.3313  154.1684 C   0  0  1  0  0  0  0  0  0  0  0  0
  148.4529  139.3354  154.3220 C   0  0  0  0  0  0  0  0  0  0  0  0
  147.3648  140.0111  153.5163 C   0  0  1  0  0  0  0  0  0  0  0  0
  146.0748  139.5505  153.8656 O   0  0  0  0  0  0  0  0  0  0  0  0
  147.6143  141.4967  153.8021 C   0  0  1  0  0  0  0  0  0  0  0  0
  147.0721  142.0011  155.1584 C   0  0  0  0  0  0  0  0  0  0  0  0
  145.7095  141.6567  155.2870 O   0  0  0  0  0  0  0  0  0  0  0  0
  149.0419  141.5615  153.8113 O   0  0  0  0  0  0  0  0  0  0  0  0
  150.4835  141.6847  156.1467 C   0  0  0  0  0  0  0  0  0  0  0  0
  151.1939  141.8294  157.2905 C   0  0  0  0  0  0  0  0  0  0  0  0
  151.2333  143.0267  157.8996 F   0  0  0  0  0  0  0  0  0  0  0  0
  152.3222  138.7134  157.4795 H   0  0  0  0  0  0  0  0  0  0  0  0
  150.3460  140.0410  153.4140 H   0  0  0  0  0  0  0  0  0  0  0  0
  147.5308  139.8156  152.4558 H   0  0  0  0  0  0  0  0  0  0  0  0
  147.2102  142.1059  152.9924 H   0  0  0  0  0  0  0  0  0  0  0  0
  148.7228  138.3469  153.9494 H   0  0  0  0  0  0  0  0  0  0  0  0
  148.1675  139.2563  155.3726 H   0  0  0  0  0  0  0  0  0  0  0  0
  145.4475  139.9339  153.2713 H   0  0  0  0  0  0  0  0  0  0  0  0
  147.5938  141.5200  155.9855 H   0  0  0  0  0  0  0  0  0  0  0  0
  147.2040  143.0755  155.2828 H   0  0  0  0  0  0  0  0  0  0  0  0
  145.4501  141.1653  154.5223 H   0  0  0  0  0  0  0  0  0  0  0  0
  149.9791  142.5636  155.7750 H   0  0  0  0  0  0  0  0  0  0  0  0
  1  2  2  0  0  0  0
  2 16  1  0  0  0  0
  2  3  1  0  0  0  0
  3 18  1  0  0  0  0
  3  4  1  0  0  0  0
  4  5  2  0  0  0  0
  4  6  1  0  0  0  0
  6  7  1  0  0  0  0
  6 15  1  0  0  0  0
  7 19  1  0  0  0  0
  7 14  1  0  0  0  0
  7  8  1  0  0  0  0
  8  9  1  0  0  0  0
  8 22  1  0  0  0  0
  8 23  1  0  0  0  0
  9 20  1  0  0  0  0
  9 10  1  0  0  0  0
  9 11  1  0  0  0  0
 10 24  1  0  0  0  0
 11 21  1  0  0  0  0
 11 12  1  0  0  0  0
 11 14  1  0  0  0  0
 12 13  1  0  0  0  0
 12 25  1  0  0  0  0
 12 26  1  0  0  0  0
 13 27  1  0  0  0  0
 15 16  2  0  0  0  0
 15 28  1  0  0  0  0
 16 17  1  0  0  0  0
M  END
> <s_m_source_file>
AV-unprocessed.smi

> <i_m_source_file_index>
38

> <i_lp_mmshare_version>
43012

> <i_f3d_flags>
0

> <s_epik_input>
Tz1jMVtuSF1jKD1PKW4oW2NIXWMxRilbQ0BIXTJbQ0gyXVtDQEhdKFtPSF0pW0NASF0oTzIpW0NIMl1bT0hd

> <s_epik_cmdline>
J2VwaWtfcHl0aG9uJywgJy1waCcsICc3LjAnLCAnLXRuJywgJzgnLCAnLW1hJywgJzIwMCcsICctbWV0YWxfYmluZGluZycsICctaW1hZScsICc8aW5maWxlLm1hZT4nLCAnLW9tYWUnLCAnPG91dGZpbGUubWFlPic=

> <r_lp_tautomer_probability>
0.999537

> <r_epik_Ionization_Penalty>
0.0357432

> <r_epik_Ionization_Penalty_Charging>
0.0357431

> <r_epik_Ionization_Penalty_Neutral>
1.19946e-07

> <r_epik_State_Penalty>
0.0298169

> <r_epik_Charging_Adjusted_Penalty>
0.06556

> <i_epik_Tot_Q>
0

> <i_epik_Tot_abs_Q>
0

> <r_epik_Metal_State_Penalty>
2.348

> <b_epik_Metal_Only>
0

> <s_epik_Chemistry_Notes>
This compound contains an acetal/aminal-like group ( X-CH(R)-Y where X, Y are N, S, or O) that may be acid/base labile, releasing an aldehyde.

> <s_lp_Force_Field>
OPLS_2005

> <r_lp_Energy>
30.312

> <b_lp_Chiralities_Consistent>
1

> <s_lp_Variant>
AV-unprocessed.smi:38-3

> <Gold.Version>
5.8.1

> <Gold.Id.Protein>
6NUR|6NUR_protein|mol2

> <Gold.PLP.Fitness>
35.4586

> <Gold.PLP.PLP>
-27.4641

> <Gold.PLP.part.hbond>
-2.6746

> <Gold.PLP.part.metal>
0.0000

> <Gold.PLP.part.buried>
-1.6010

> <Gold.PLP.part.nonpolar>
-23.8588

> <Gold.PLP.part.repulsive>
0.6422

> <Gold.PLP.ligand.clash>
0.0000

> <Gold.PLP.ligand.torsion>
0.0812

> <Gold.PLP.Chemscore.Hbond>
1.7113

> <Gold.PLP.Chemscore.CHOScore>
1.0000

> <Gold.PLP.Chemscore.Metal>
0.0000

> <Gold.Chemscore.Hbonds>
donor molecule, donor type, donor heavy atom, donor atom, acceptor molecule, acceptor atom, score
      L1  H    10    24       P1 10175  1.00
      P1  H  8011  8017       L1    14  0.70
      L1  C    15    28       P1  8028  1.00

> <Gold.PLP.Chemscore.Internal.Correction>
0.0230

> <Gold.Rescore>
     Score         DG    S(hbond)    S(metal)    S(lipo)     H(rot)  DE(clash)    DE(int)     intcor
      7.65      -8.17       1.68        0.00      38.90       2.91       0.36       0.16       ----

> <Gold.Chemscore.Fitness>
7.6495

> <Gold.Chemscore.DG>
-8.1704

> <Gold.Chemscore.ZeroCoef>
-5.4800

> <Gold.Chemscore.Hbond>
1.6764

> <Gold.Chemscore.Metal>
0.0000

> <Gold.Chemscore.Lipo>
38.9003

> <Gold.Chemscore.Internal_Hbond>
0.0000

> <Gold.Chemscore.DEClash>
0.3614

> <Gold.Chemscore.DEInternal>
0.1595

> <Gold.Chemscore.Rot>
2.9141

> <Gold.Chemscore.Internal.Correction>
   9.000000E+99

> <Gold.Chemscore.Hbonds>
donor molecule, donor type, donor heavy atom, donor atom, acceptor molecule, acceptor atom, score
      L1  H    10    24       P1 10175  0.95
      P1  H  8011  8017       L1    14  0.59

> <Gold.Chemscore.Hbond.Weighted>
-5.5991

> <Gold.Chemscore.Metal.Weighted>
-0.0000

> <Gold.Chemscore.Lipo.Weighted>
-4.5513

> <Gold.Chemscore.Internal_Hbond.Weighted>
0.0000

> <Gold.Chemscore.DEClash.Weighted>
0.3614

> <Gold.Chemscore.DEInternal.Weighted>
0.1595

> <Gold.Chemscore.Rot.Weighted>
7.4601

> <Gold.Chemscore.Internal.Correction.Weighted>
   9.000000E+99

> <Gold.Protein.RotatedTorsions>
[ 6907 6896 6895 6894 ] final  -47.16 input  -60.11 | X-H torsion
[ 7974 7965 7964 7962 ] final -146.05 input  175.53 | X-H torsion
[ 8008 7997 7996 7995 ] final   18.80 input   59.86 | X-H torsion
[ 10167 10162 10161 10158 ] final  -54.71 input  -65.29 | X-H torsion
[ 10718 10713 10712 10709 ] final   69.99 input   66.30 | X-H torsion
[ 10763 10752 10751 10750 ] final -104.14 input  -60.55 | X-H torsion
[ 11005 11000 10999 10996 ] final    9.82 input  -57.11 | X-H torsion

> <Gold.Protein.ActiveResidues>
 VAL166  LYS551  ARG553  GLY616  TRP617  ASP618  TYR619  PRO620  LYS621  CYS622 
 ASP623  PHE694  ASN695  SER759  ASP760  ASP761  ALA762  ILE779  LEU786  VAL792 
 PHE793  MET794  SER795  GLU796  ALA797  LYS798  CYS799  TRP800  GLU811  SER814 

> <Gold.Protein.RotatedAtoms>
  150.9036  134.8450  159.7377 H   0  0  0  0  0  0  0  0  0  0  0  0  # atno 6907 bound_to 6896
  152.4906  134.4465  159.9570 H   0  0  0  0  0  0  0  0  0  0  0  0  # atno 6908 bound_to 6896
  151.4514  133.3577  159.2831 H   0  0  0  0  0  0  0  0  0  0  0  0  # atno 6909 bound_to 6896
  144.8186  140.5506  143.5594 H   0  0  0  0  0  0  0  0  0  0  0  0  # atno 7974 bound_to 7965
  154.9113  140.3014  155.5265 H   0  0  0  0  0  0  0  0  0  0  0  0  # atno 8008 bound_to 7997
  156.3014  140.2388  156.4088 H   0  0  0  0  0  0  0  0  0  0  0  0  # atno 8009 bound_to 7997
  154.8423  140.0413  157.1538 H   0  0  0  0  0  0  0  0  0  0  0  0  # atno 8010 bound_to 7997
  140.6415  143.2510  151.4976 H   0  0  0  0  0  0  0  0  0  0  0  0  # atno 10167 bound_to 10162
  157.6376  130.9454  150.0588 H   0  0  0  0  0  0  0  0  0  0  0  0  # atno 10718 bound_to 10713
  154.7857  135.4797  153.9941 H   0  0  0  0  0  0  0  0  0  0  0  0  # atno 10763 bound_to 10752
  153.1557  135.6799  153.8823 H   0  0  0  0  0  0  0  0  0  0  0  0  # atno 10764 bound_to 10752
  153.8453  135.3174  155.3407 H   0  0  0  0  0  0  0  0  0  0  0  0  # atno 10765 bound_to 10752
  140.5214  134.0555  155.7846 H   0  0  0  0  0  0  0  0  0  0  0  0  # atno 11005 bound_to 11000
  145.5158  139.1478  143.3580 LP  0  0  0  0  0  0  0  0  0  0  0  0  # atno 17320 bound_to 7965
  146.2490  140.5298  142.8901 LP  0  0  0  0  0  0  0  0  0  0  0  0  # atno 17321 bound_to 7965
  139.5624  144.2123  152.1713 LP  0  0  0  0  0  0  0  0  0  0  0  0  # atno 17342 bound_to 10162
  140.1395  144.5215  150.6753 LP  0  0  0  0  0  0  0  0  0  0  0  0  # atno 17343 bound_to 10162
  156.1627  130.3644  149.9276 LP  0  0  0  0  0  0  0  0  0  0  0  0  # atno 17370 bound_to 10713
  156.7270  130.9028  151.3623 LP  0  0  0  0  0  0  0  0  0  0  0  0  # atno 17371 bound_to 10713
  141.1332  133.9267  157.2491 LP  0  0  0  0  0  0  0  0  0  0  0  0  # atno 17394 bound_to 11000
  139.9604  135.0155  156.9244 LP  0  0  0  0  0  0  0  0  0  0  0  0  # atno 17395 bound_to 11000

$$$$
