AV-unprocessed.smi:2062|AV-procd|sdf|8406|dock4
  -GOLD-   2272011 93D 1   1.00000     0.00000
 Structure written by MMmdl.
 41 42  0  0  0  0  0  0  0  0  2 V2000
  152.2711  145.0049  159.8140 C   0  0  0  0  0  0  0  0  0  0  0  0
  152.4727  143.7623  158.9345 C   0  0  0  0  0  0  0  0  0  0  0  0
  151.6007  143.8501  157.6713 C   0  0  0  0  0  0  0  0  0  0  0  0
  152.1829  142.4782  159.7417 C   0  0  0  0  0  0  0  0  0  0  0  0
  152.4546  141.2158  159.0524 N   0  0  0  0  0  0  0  0  0  0  0  0
  153.3149  140.3219  159.8243 C   0  0  0  0  0  0  0  0  0  0  0  0
  153.5558  138.9888  159.0965 C   0  0  0  0  0  0  0  0  0  0  0  0
  152.3062  138.3736  158.8054 O   0  0  0  0  0  0  0  0  0  0  0  0
  151.4612  139.1891  157.9965 C   0  0  1  0  0  0  0  0  0  0  0  0
  150.1512  138.4279  157.7305 C   0  0  0  0  0  0  0  0  0  0  0  0
  149.3349  138.3155  158.9349 N   0  0  0  0  0  0  0  0  0  0  0  0
  148.8873  137.1737  159.4763 C   0  0  0  0  0  0  0  0  0  0  0  0
  149.1562  136.0939  158.9446 O   0  0  0  0  0  0  0  0  0  0  0  0
  148.1580  137.3540  160.6010 N   0  5  0  0  0  0  0  0  0  0  0  0
  147.7496  136.2924  161.3149 C   0  0  0  0  0  0  0  0  0  0  0  0
  147.5621  136.3318  162.6394 N   0  0  0  0  0  0  0  0  0  0  0  0
  147.1436  135.1133  163.1773 C   0  0  0  0  0  0  0  0  0  0  0  0
  147.0188  134.1201  162.2422 C   0  0  0  0  0  0  0  0  0  0  0  0
  147.4245  134.6894  160.6482 S   0  0  0  0  0  0  0  0  0  0  0  0
  151.2123  140.5186  158.7352 C   0  0  0  0  0  0  0  0  0  0  0  0
  151.2403  145.0820  160.1616 H   0  0  0  0  0  0  0  0  0  0  0  0
  152.5061  145.9179  159.2661 H   0  0  0  0  0  0  0  0  0  0  0  0
  152.9171  144.9743  160.6918 H   0  0  0  0  0  0  0  0  0  0  0  0
  153.5172  143.7668  158.6252 H   0  0  0  0  0  0  0  0  0  0  0  0
  150.5396  143.8553  157.9221 H   0  0  0  0  0  0  0  0  0  0  0  0
  151.7809  143.0064  157.0046 H   0  0  0  0  0  0  0  0  0  0  0  0
  151.8143  144.7596  157.1093 H   0  0  0  0  0  0  0  0  0  0  0  0
  152.7483  142.5041  160.6745 H   0  0  0  0  0  0  0  0  0  0  0  0
  151.1320  142.5018  160.0343 H   0  0  0  0  0  0  0  0  0  0  0  0
  154.2799  140.7903  160.0128 H   0  0  0  0  0  0  0  0  0  0  0  0
  152.8650  140.1242  160.7985 H   0  0  0  0  0  0  0  0  0  0  0  0
  154.1161  139.1470  158.1737 H   0  0  0  0  0  0  0  0  0  0  0  0
  154.1469  138.3177  159.7196 H   0  0  0  0  0  0  0  0  0  0  0  0
  151.9616  139.3957  157.0486 H   0  0  0  0  0  0  0  0  0  0  0  0
  149.5673  138.9429  156.9673 H   0  0  0  0  0  0  0  0  0  0  0  0
  150.3628  137.4325  157.3366 H   0  0  0  0  0  0  0  0  0  0  0  0
  149.0950  139.1761  159.4050 H   0  0  0  0  0  0  0  0  0  0  0  0
  146.9591  135.0426  164.2389 H   0  0  0  0  0  0  0  0  0  0  0  0
  146.7159  133.0949  162.3917 H   0  0  0  0  0  0  0  0  0  0  0  0
  150.6542  140.3245  159.6526 H   0  0  0  0  0  0  0  0  0  0  0  0
  150.5807  141.1578  158.1169 H   0  0  0  0  0  0  0  0  0  0  0  0
  1  2  1  0  0  0  0
  1 21  1  0  0  0  0
  1 22  1  0  0  0  0
  1 23  1  0  0  0  0
  2  3  1  0  0  0  0
  2  4  1  0  0  0  0
  2 24  1  0  0  0  0
  3 25  1  0  0  0  0
  3 26  1  0  0  0  0
  3 27  1  0  0  0  0
  4  5  1  0  0  0  0
  4 28  1  0  0  0  0
  4 29  1  0  0  0  0
  5 20  1  0  0  0  0
  5  6  1  0  0  0  0
  6  7  1  0  0  0  0
  6 30  1  0  0  0  0
  6 31  1  0  0  0  0
  7  8  1  0  0  0  0
  7 32  1  0  0  0  0
  7 33  1  0  0  0  0
  8  9  1  0  0  0  0
  9 10  1  0  0  0  0
  9 20  1  0  0  0  0
  9 34  1  0  0  0  0
 10 11  1  0  0  0  0
 10 35  1  0  0  0  0
 10 36  1  0  0  0  0
 11 12  1  0  0  0  0
 11 37  1  0  0  0  0
 12 13  2  0  0  0  0
 12 14  1  0  0  0  0
 14 15  1  0  0  0  0
 15 19  1  0  0  0  0
 15 16  2  0  0  0  0
 16 17  1  0  0  0  0
 17 18  2  0  0  0  0
 17 38  1  0  0  0  0
 18 19  1  0  0  0  0
 18 39  1  0  0  0  0
 20 40  1  0  0  0  0
 20 41  1  0  0  0  0
M  CHG  1  14  -1
M  END
> <s_m_source_file>
AV-unprocessed.smi

> <i_m_source_file_index>
2062

> <i_lp_mmshare_version>
43012

> <i_f3d_flags>
0

> <s_epik_input>
W0NIM11bQ0hdKFtDSDNdKVtDSDJdTjFbQ0gyXVtDSDJdT1tDQEhdKFtDSDJdMSlbQ0gyXVtOSF1DKD1PKVtOSF1jMm5bY0hdW2NIXXMy

> <s_epik_cmdline>
J2VwaWtfcHl0aG9uJywgJy1waCcsICc3LjAnLCAnLXRuJywgJzgnLCAnLW1hJywgJzIwMCcsICctbWV0YWxfYmluZGluZycsICctaW1hZScsICc8aW5maWxlLm1hZT4nLCAnLW9tYWUnLCAnPG91dGZpbGUubWFlPic=

> <r_lp_tautomer_probability>
0.999

> <r_epik_Ionization_Penalty>
7.76343

> <r_epik_Ionization_Penalty_Charging>
5.65212

> <r_epik_Ionization_Penalty_Neutral>
2.11131

> <r_epik_State_Penalty>
6.82229

> <r_epik_Charging_Adjusted_Penalty>
12.4744

> <i_epik_Tot_Q>
-1

> <i_epik_Tot_abs_Q>
1

> <r_epik_Metal_State_Penalty>
2.82401

> <b_epik_Metal_Only>
1

> <s_lp_Force_Field>
OPLS_2005

> <r_lp_Energy>
19.1571

> <b_lp_Chiralities_Consistent>
1

> <s_lp_Variant>
AV-unprocessed.smi:2062-11

> <Gold.Version>
5.8.1

> <Gold.Id.Protein>
6NUR|6NUR_protein|mol2

> <Gold.PLP.Fitness>
49.2771

> <Gold.PLP.PLP>
-40.4293

> <Gold.PLP.part.hbond>
-3.0000

> <Gold.PLP.part.metal>
0.0000

> <Gold.PLP.part.buried>
-6.0755

> <Gold.PLP.part.nonpolar>
-33.3023

> <Gold.PLP.part.repulsive>
0.2213

> <Gold.PLP.ligand.clash>
0.0000

> <Gold.PLP.ligand.torsion>
0.9653

> <Gold.PLP.Chemscore.Hbond>
3.5742

> <Gold.PLP.Chemscore.CHOScore>
0.0000

> <Gold.PLP.Chemscore.Metal>
0.0000

> <Gold.Chemscore.Hbonds>
donor molecule, donor type, donor heavy atom, donor atom, acceptor molecule, acceptor atom, score
      P1  H  6896  6907       L1    13  0.57
      P1  H  6931  6943       L1    14  1.44
      P1  H  6934  6947       L1    14  1.28

> <Gold.PLP.Chemscore.Internal.Correction>
0.0560

> <Gold.Rescore>
     Score         DG    S(hbond)    S(metal)    S(lipo)     H(rot)  DE(clash)    DE(int)     intcor
     17.74     -19.12       2.02        0.00      95.56       1.68       0.08       1.31       ----

> <Gold.Chemscore.Fitness>
17.7379

> <Gold.Chemscore.DG>
-19.1232

> <Gold.Chemscore.ZeroCoef>
-5.4800

> <Gold.Chemscore.Hbond>
2.0234

> <Gold.Chemscore.Metal>
0.0000

> <Gold.Chemscore.Lipo>
95.5599

> <Gold.Chemscore.Internal_Hbond>
0.0000

> <Gold.Chemscore.DEClash>
0.0797

> <Gold.Chemscore.DEInternal>
1.3056

> <Gold.Chemscore.Rot>
1.6779

> <Gold.Chemscore.Internal.Correction>
   9.000000E+99

> <Gold.Chemscore.Hbonds>
donor molecule, donor type, donor heavy atom, donor atom, acceptor molecule, acceptor atom, score
      P1  H  6896  6907       L1    13  0.56
      P1  H  6931  6943       L1    14  0.16
      P1  H  6934  6947       L1    14  0.58

> <Gold.Chemscore.Hbond.Weighted>
-6.7580

> <Gold.Chemscore.Metal.Weighted>
-0.0000

> <Gold.Chemscore.Lipo.Weighted>
-11.1805

> <Gold.Chemscore.Internal_Hbond.Weighted>
0.0000

> <Gold.Chemscore.DEClash.Weighted>
0.0797

> <Gold.Chemscore.DEInternal.Weighted>
1.3056

> <Gold.Chemscore.Rot.Weighted>
4.2953

> <Gold.Chemscore.Internal.Correction.Weighted>
   9.000000E+99

> <Gold.Protein.RotatedTorsions>
[ 6907 6896 6895 6894 ] final  -52.54 input  -60.11 | X-H torsion
[ 7974 7965 7964 7962 ] final  177.65 input  175.53 | X-H torsion
[ 8008 7997 7996 7995 ] final -116.80 input   59.86 | X-H torsion
[ 10167 10162 10161 10158 ] final  -13.26 input  -65.29 | X-H torsion
[ 10718 10713 10712 10709 ] final  -84.99 input   66.30 | X-H torsion
[ 10763 10752 10751 10750 ] final   -4.06 input  -60.55 | X-H torsion
[ 11005 11000 10999 10996 ] final  -68.18 input  -57.11 | X-H torsion

> <Gold.Protein.ActiveResidues>
 VAL166  LYS551  ARG553  GLY616  TRP617  ASP618  TYR619  PRO620  LYS621  CYS622 
 ASP623  PHE694  ASN695  SER759  ASP760  ASP761  ALA762  ILE779  LEU786  VAL792 
 PHE793  MET794  SER795  GLU796  ALA797  LYS798  CYS799  TRP800  GLU811  SER814 

> <Gold.Protein.RotatedAtoms>
  150.8508  134.7832  159.7006 H   0  0  0  0  0  0  0  0  0  0  0  0  # atno 6907 bound_to 6896
  152.4573  134.5259  159.9806 H   0  0  0  0  0  0  0  0  0  0  0  0  # atno 6908 bound_to 6896
  151.5381  133.3399  159.2966 H   0  0  0  0  0  0  0  0  0  0  0  0  # atno 6909 bound_to 6896
  144.7166  140.0280  143.6439 H   0  0  0  0  0  0  0  0  0  0  0  0  # atno 7974 bound_to 7965
  155.0736  140.0393  157.2616 H   0  0  0  0  0  0  0  0  0  0  0  0  # atno 8008 bound_to 7997
  154.6963  140.2664  155.6739 H   0  0  0  0  0  0  0  0  0  0  0  0  # atno 8009 bound_to 7997
  156.2745  140.2749  156.1558 H   0  0  0  0  0  0  0  0  0  0  0  0  # atno 8010 bound_to 7997
  140.7178  143.5445  150.9371 H   0  0  0  0  0  0  0  0  0  0  0  0  # atno 10167 bound_to 10162
  156.0001  130.4716  150.4495 H   0  0  0  0  0  0  0  0  0  0  0  0  # atno 10718 bound_to 10713
  153.3798  135.6998  153.6574 H   0  0  0  0  0  0  0  0  0  0  0  0  # atno 10763 bound_to 10752
  153.5190  135.3616  155.2623 H   0  0  0  0  0  0  0  0  0  0  0  0  # atno 10764 bound_to 10752
  154.8691  135.4153  154.3093 H   0  0  0  0  0  0  0  0  0  0  0  0  # atno 10765 bound_to 10752
  141.1526  133.6735  156.6406 H   0  0  0  0  0  0  0  0  0  0  0  0  # atno 11005 bound_to 11000
  146.0126  139.3183  143.0861 LP  0  0  0  0  0  0  0  0  0  0  0  0  # atno 17320 bound_to 7965
  145.8663  140.9446  143.0674 LP  0  0  0  0  0  0  0  0  0  0  0  0  # atno 17321 bound_to 7965
  139.9168  143.6654  152.3104 LP  0  0  0  0  0  0  0  0  0  0  0  0  # atno 17342 bound_to 10162
  139.7056  144.7628  151.1198 LP  0  0  0  0  0  0  0  0  0  0  0  0  # atno 17343 bound_to 10162
  157.2529  131.0550  151.2368 LP  0  0  0  0  0  0  0  0  0  0  0  0  # atno 17370 bound_to 10713
  157.3511  130.7082  149.6441 LP  0  0  0  0  0  0  0  0  0  0  0  0  # atno 17371 bound_to 10713
  140.3396  134.7860  157.4388 LP  0  0  0  0  0  0  0  0  0  0  0  0  # atno 17394 bound_to 11000
  140.0949  134.5551  155.8408 LP  0  0  0  0  0  0  0  0  0  0  0  0  # atno 17395 bound_to 11000

$$$$
