AV-unprocessed.smi:113|AV-procd|sdf|1105|dock9
  -GOLD-   2262018223D 1   1.00000     0.00000
 Structure written by MMmdl.
 53 56  0  0  0  0  0  0  0  0  2 V2000
  148.9457  141.7510  154.2268 C   0  0  0  0  0  0  0  0  0  0  0  0
  149.8724  141.4431  155.3837 C   0  0  0  0  0  0  0  0  0  0  0  0
  150.4123  140.1594  155.5939 C   0  0  0  0  0  0  0  0  0  0  0  0
  151.2781  139.9272  156.6916 C   0  0  0  0  0  0  0  0  0  0  0  0
  151.8805  138.5411  156.9457 C   0  0  0  0  0  0  0  0  0  0  0  0
  150.9456  137.4432  157.1482 N   0  0  0  0  0  0  0  0  0  0  0  0
  149.9740  137.5823  158.1690 C   0  0  0  0  0  0  0  0  0  0  0  0
  149.9144  138.5965  158.8673 O   0  0  0  0  0  0  0  0  0  0  0  0
  149.0490  136.4546  158.3054 C   0  0  0  0  0  0  0  0  0  0  0  0
  147.9749  136.5345  159.3789 C   0  0  0  0  0  0  0  0  0  0  0  0
  149.1660  135.3852  157.4817 C   0  0  0  0  0  0  0  0  0  0  0  0
  150.1294  135.2721  156.4949 N   0  0  0  0  0  0  0  0  0  0  0  0
  150.1357  134.0585  155.5916 C   0  0  2  0  0  0  0  0  0  0  0  0
  150.1756  134.4041  154.0925 C   0  0  0  0  0  0  0  0  0  0  0  0
  149.0626  133.5438  153.5028 C   0  0  2  0  0  0  0  0  0  0  0  0
  147.9836  134.3535  153.0763 O   0  0  0  0  0  0  0  0  0  0  0  0
  148.6771  132.5922  154.6504 C   0  0  2  0  0  0  0  0  0  0  0  0
  147.2263  132.0794  154.6801 C   0  0  0  0  0  0  0  0  0  0  0  0
  146.9336  131.3624  153.4996 O   0  0  0  0  0  0  0  0  0  0  0  0
  148.9747  133.3283  155.8264 O   0  0  0  0  0  0  0  0  0  0  0  0
  151.0375  136.3321  156.2807 C   0  0  0  0  0  0  0  0  0  0  0  0
  151.8589  136.2955  155.3624 O   0  0  0  0  0  0  0  0  0  0  0  0
  151.5778  141.0162  157.5558 C   0  0  0  0  0  0  0  0  0  0  0  0
  152.4346  140.8780  158.6742 C   0  0  0  0  0  0  0  0  0  0  0  0
  152.7063  141.9808  159.5079 C   0  0  0  0  0  0  0  0  0  0  0  0
  152.1277  143.2349  159.2378 C   0  0  0  0  0  0  0  0  0  0  0  0
  151.2744  143.3904  158.1296 C   0  0  0  0  0  0  0  0  0  0  0  0
  151.0020  142.2888  157.2938 C   0  0  0  0  0  0  0  0  0  0  0  0
  150.1846  142.4446  156.2310 N   0  3  0  0  0  0  0  0  0  0  0  0
  148.6225  140.8366  153.7285 H   0  0  0  0  0  0  0  0  0  0  0  0
  149.4530  142.3784  153.4935 H   0  0  0  0  0  0  0  0  0  0  0  0
  148.0578  142.2784  154.5768 H   0  0  0  0  0  0  0  0  0  0  0  0
  150.1557  139.3670  154.9070 H   0  0  0  0  0  0  0  0  0  0  0  0
  152.5381  138.2605  156.1211 H   0  0  0  0  0  0  0  0  0  0  0  0
  152.5387  138.5700  157.8154 H   0  0  0  0  0  0  0  0  0  0  0  0
  147.3479  135.6424  159.3936 H   0  0  0  0  0  0  0  0  0  0  0  0
  147.3265  137.3945  159.2072 H   0  0  0  0  0  0  0  0  0  0  0  0
  148.4286  136.6385  160.3654 H   0  0  0  0  0  0  0  0  0  0  0  0
  148.4641  134.5731  157.6067 H   0  0  0  0  0  0  0  0  0  0  0  0
  150.9948  133.4555  155.8885 H   0  0  0  0  0  0  0  0  0  0  0  0
  150.0360  135.4701  153.9089 H   0  0  0  0  0  0  0  0  0  0  0  0
  151.1517  134.1221  153.6969 H   0  0  0  0  0  0  0  0  0  0  0  0
  149.4144  132.9811  152.6375 H   0  0  0  0  0  0  0  0  0  0  0  0
  148.3206  135.0225  152.4997 H   0  0  0  0  0  0  0  0  0  0  0  0
  149.3568  131.7378  154.6367 H   0  0  0  0  0  0  0  0  0  0  0  0
  147.0864  131.4106  155.5297 H   0  0  0  0  0  0  0  0  0  0  0  0
  146.5149  132.8963  154.8027 H   0  0  0  0  0  0  0  0  0  0  0  0
  146.4653  130.5755  153.7332 H   0  0  0  0  0  0  0  0  0  0  0  0
  152.8971  139.9324  158.9129 H   0  0  0  0  0  0  0  0  0  0  0  0
  153.3621  141.8630  160.3582 H   0  0  0  0  0  0  0  0  0  0  0  0
  152.3392  144.0773  159.8804 H   0  0  0  0  0  0  0  0  0  0  0  0
  150.8337  144.3558  157.9266 H   0  0  0  0  0  0  0  0  0  0  0  0
  149.7832  143.3663  156.0595 H   0  0  0  0  0  0  0  0  0  0  0  0
  1  2  1  0  0  0  0
  1 30  1  0  0  0  0
  1 31  1  0  0  0  0
  1 32  1  0  0  0  0
  2 29  1  0  0  0  0
  2  3  2  0  0  0  0
  3  4  1  0  0  0  0
  3 33  1  0  0  0  0
  4  5  1  0  0  0  0
  4 23  2  0  0  0  0
  5  6  1  0  0  0  0
  5 34  1  0  0  0  0
  5 35  1  0  0  0  0
  6 21  1  0  0  0  0
  6  7  1  0  0  0  0
  7  8  2  0  0  0  0
  7  9  1  0  0  0  0
  9 10  1  0  0  0  0
  9 11  2  0  0  0  0
 10 36  1  0  0  0  0
 10 37  1  0  0  0  0
 10 38  1  0  0  0  0
 11 12  1  0  0  0  0
 11 39  1  0  0  0  0
 12 13  1  0  0  0  0
 12 21  1  0  0  0  0
 13 20  1  0  0  0  0
 13 14  1  0  0  0  0
 13 40  1  0  0  0  0
 14 15  1  0  0  0  0
 14 41  1  0  0  0  0
 14 42  1  0  0  0  0
 15 16  1  0  0  0  0
 15 17  1  0  0  0  0
 15 43  1  0  0  0  0
 16 44  1  0  0  0  0
 17 18  1  0  0  0  0
 17 20  1  0  0  0  0
 17 45  1  0  0  0  0
 18 19  1  0  0  0  0
 18 46  1  0  0  0  0
 18 47  1  0  0  0  0
 19 48  1  0  0  0  0
 21 22  2  0  0  0  0
 23 28  1  0  0  0  0
 23 24  1  0  0  0  0
 24 25  2  0  0  0  0
 24 49  1  0  0  0  0
 25 26  1  0  0  0  0
 25 50  1  0  0  0  0
 26 27  2  0  0  0  0
 26 51  1  0  0  0  0
 27 28  1  0  0  0  0
 27 52  1  0  0  0  0
 28 29  2  0  0  0  0
 29 53  1  0  0  0  0
M  CHG  1  29   1
M  END
> <s_m_source_file>
AV-unprocessed.smi

> <i_m_source_file_index>
113

> <i_lp_mmshare_version>
43012

> <i_f3d_flags>
0

> <s_epik_input>
W2NIXTFbY0hdW2NIXVtjSF1jKGMxMiluYyhbQ0gzXSlbY0hdYzJbQ0gyXW4zYyg9TyljKFtDSDNdKVtjSF1uKGMzPU8pW0NAQEhdNFtDSDJdW0NAQEhdKFtPSF0pW0NASF0oTzQpW0NIMl1bT0hd

> <s_epik_cmdline>
J2VwaWtfcHl0aG9uJywgJy1waCcsICc3LjAnLCAnLXRuJywgJzgnLCAnLW1hJywgJzIwMCcsICctbWV0YWxfYmluZGluZycsICctaW1hZScsICc8aW5maWxlLm1hZT4nLCAnLW9tYWUnLCAnPG91dGZpbGUubWFlPic=

> <r_lp_tautomer_probability>
1

> <r_epik_Ionization_Penalty>
0.705471

> <r_epik_Ionization_Penalty_Charging>
0.70547

> <r_epik_Ionization_Penalty_Neutral>
1.19947e-07

> <r_epik_State_Penalty>
0.728574

> <r_epik_Charging_Adjusted_Penalty>
1.43404

> <i_epik_Tot_Q>
1

> <i_epik_Tot_abs_Q>
1

> <r_epik_Metal_State_Penalty>
4.61665

> <b_epik_Metal_Only>
0

> <s_epik_Chemistry_Notes>
This compound contains an acetal/aminal-like group ( X-CH(R)-Y where X, Y are N, S, or O) that may be acid/base labile, releasing an aldehyde.

> <s_lp_Force_Field>
OPLS_2005

> <r_lp_Energy>
39.3678

> <b_lp_Chiralities_Consistent>
1

> <s_lp_Variant>
AV-unprocessed.smi:113-15

> <Gold.Version>
5.8.1

> <Gold.Id.Protein>
6NUR|6NUR_protein|mol2

> <Gold.PLP.Fitness>
56.4077

> <Gold.PLP.PLP>
-44.8547

> <Gold.PLP.part.hbond>
-3.8046

> <Gold.PLP.part.metal>
0.0000

> <Gold.PLP.part.buried>
-5.3117

> <Gold.PLP.part.nonpolar>
-36.8988

> <Gold.PLP.part.repulsive>
0.1880

> <Gold.PLP.ligand.clash>
0.0000

> <Gold.PLP.ligand.torsion>
0.2362

> <Gold.PLP.Chemscore.Hbond>
4.0000

> <Gold.PLP.Chemscore.CHOScore>
0.0000

> <Gold.PLP.Chemscore.Metal>
0.0000

> <Gold.Chemscore.Hbonds>
donor molecule, donor type, donor heavy atom, donor atom, acceptor molecule, acceptor atom, score
      L1  H    16    44       P1  7948  0.84
      L1  H    29    53       P1  8028  2.00
      P1  H 10752 10763       L1    22  0.94

> <Gold.PLP.Chemscore.Internal.Correction>
0.0254

> <Gold.Rescore>
     Score         DG    S(hbond)    S(metal)    S(lipo)     H(rot)  DE(clash)    DE(int)     intcor
     18.24     -20.98       2.97        0.00     113.73       3.01       0.01       2.74       ----

> <Gold.Chemscore.Fitness>
18.2380

> <Gold.Chemscore.DG>
-20.9837

> <Gold.Chemscore.ZeroCoef>
-5.4800

> <Gold.Chemscore.Hbond>
2.9665

> <Gold.Chemscore.Metal>
0.0000

> <Gold.Chemscore.Lipo>
113.7301

> <Gold.Chemscore.Internal_Hbond>
0.0000

> <Gold.Chemscore.DEClash>
0.0086

> <Gold.Chemscore.DEInternal>
2.7370

> <Gold.Chemscore.Rot>
3.0120

> <Gold.Chemscore.Internal.Correction>
   9.000000E+99

> <Gold.Chemscore.Hbonds>
donor molecule, donor type, donor heavy atom, donor atom, acceptor molecule, acceptor atom, score
      L1  H    16    44       P1  7948  0.50
      L1  H    29    53       P1  8028  1.00
      P1  H 10752 10763       L1    22  0.89

> <Gold.Chemscore.Hbond.Weighted>
-9.9080

> <Gold.Chemscore.Metal.Weighted>
-0.0000

> <Gold.Chemscore.Lipo.Weighted>
-13.3064

> <Gold.Chemscore.Internal_Hbond.Weighted>
0.0000

> <Gold.Chemscore.DEClash.Weighted>
0.0086

> <Gold.Chemscore.DEInternal.Weighted>
2.7370

> <Gold.Chemscore.Rot.Weighted>
7.7108

> <Gold.Chemscore.Internal.Correction.Weighted>
   9.000000E+99

> <Gold.Protein.RotatedTorsions>
[ 6907 6896 6895 6894 ] final  124.14 input  -60.11 | X-H torsion
[ 7974 7965 7964 7962 ] final -161.05 input  175.53 | X-H torsion
[ 8008 7997 7996 7995 ] final  123.60 input   59.86 | X-H torsion
[ 10167 10162 10161 10158 ] final  -44.51 input  -65.29 | X-H torsion
[ 10718 10713 10712 10709 ] final -162.47 input   66.30 | X-H torsion
[ 10763 10752 10751 10750 ] final   57.66 input  -60.55 | X-H torsion
[ 11005 11000 10999 10996 ] final -166.33 input  -57.11 | X-H torsion

> <Gold.Protein.ActiveResidues>
 VAL166  LYS551  ARG553  GLY616  TRP617  ASP618  TYR619  PRO620  LYS621  CYS622 
 ASP623  PHE694  ASN695  SER759  ASP760  ASP761  ALA762  ILE779  LEU786  VAL792 
 PHE793  MET794  SER795  GLU796  ALA797  LYS798  CYS799  TRP800  GLU811  SER814 

> <Gold.Protein.RotatedAtoms>
  152.4103  133.6952  159.6391 H   0  0  0  0  0  0  0  0  0  0  0  0  # atno 6907 bound_to 6896
  150.7984  133.8636  159.3247 H   0  0  0  0  0  0  0  0  0  0  0  0  # atno 6908 bound_to 6896
  151.6380  135.1017  160.0187 H   0  0  0  0  0  0  0  0  0  0  0  0  # atno 6909 bound_to 6896
  144.7405  140.3453  143.6126 H   0  0  0  0  0  0  0  0  0  0  0  0  # atno 7974 bound_to 7965
  156.2772  140.2759  156.1654 H   0  0  0  0  0  0  0  0  0  0  0  0  # atno 8008 bound_to 7997
  155.0710  140.0387  157.2626 H   0  0  0  0  0  0  0  0  0  0  0  0  # atno 8009 bound_to 7997
  154.7040  140.2655  155.6697 H   0  0  0  0  0  0  0  0  0  0  0  0  # atno 8010 bound_to 7997
  140.6894  143.2926  151.3506 H   0  0  0  0  0  0  0  0  0  0  0  0  # atno 10167 bound_to 10162
  156.6108  130.8850  151.2936 H   0  0  0  0  0  0  0  0  0  0  0  0  # atno 10718 bound_to 10713
  152.9854  135.5634  154.5426 H   0  0  0  0  0  0  0  0  0  0  0  0  # atno 10763 bound_to 10752
  154.4878  135.2791  155.1523 H   0  0  0  0  0  0  0  0  0  0  0  0  # atno 10764 bound_to 10752
  154.3005  135.6308  153.5476 H   0  0  0  0  0  0  0  0  0  0  0  0  # atno 10765 bound_to 10752
  140.5657  134.5289  157.5152 H   0  0  0  0  0  0  0  0  0  0  0  0  # atno 11005 bound_to 11000
  145.7332  139.1742  143.2418 LP  0  0  0  0  0  0  0  0  0  0  0  0  # atno 17320 bound_to 7965
  146.1190  140.7333  142.9466 LP  0  0  0  0  0  0  0  0  0  0  0  0  # atno 17321 bound_to 7965
  139.6282  144.0773  152.2453 LP  0  0  0  0  0  0  0  0  0  0  0  0  # atno 17342 bound_to 10162
  140.0239  144.6132  150.7544 LP  0  0  0  0  0  0  0  0  0  0  0  0  # atno 17343 bound_to 10162
  157.7254  130.9616  150.1615 LP  0  0  0  0  0  0  0  0  0  0  0  0  # atno 17370 bound_to 10713
  156.2391  130.3689  149.8357 LP  0  0  0  0  0  0  0  0  0  0  0  0  # atno 17371 bound_to 10713
  139.9386  134.7829  156.0737 LP  0  0  0  0  0  0  0  0  0  0  0  0  # atno 17394 bound_to 11000
  141.1087  133.6651  156.2927 LP  0  0  0  0  0  0  0  0  0  0  0  0  # atno 17395 bound_to 11000

$$$$
