AV-unprocessed.smi:166|AV-procd|sdf|1390|dock3
  -GOLD-   2262019123D 1   1.00000     0.00000
 Structure written by MMmdl.
 54 58  0  0  0  0  0  0  0  0  1 V2000
  145.4989  135.9092  150.2976 O   0  0  0  0  0  0  0  0  0  0  0  0
  145.2950  134.7936  151.1452 C   0  0  1  0  0  0  0  0  0  0  0  0
  144.7881  135.2930  152.5208 C   0  0  0  0  0  0  0  0  0  0  0  0
  145.5793  136.3777  153.0835 N   0  0  0  0  0  0  0  0  0  0  0  0
  145.5193  137.7087  152.7349 C   0  0  0  0  0  0  0  0  0  0  0  0
  146.3369  138.4925  153.3831 N   0  0  0  0  0  0  0  0  0  0  0  0
  147.0277  137.6349  154.2304 C   0  0  0  0  0  0  0  0  0  0  0  0
  148.0578  137.8062  155.1980 C   0  0  0  0  0  0  0  0  0  0  0  0
  148.6299  138.9868  155.5130 N   0  0  0  0  0  0  0  0  0  0  0  0
  149.0376  139.7543  154.3404 C   0  0  0  0  0  0  0  0  0  0  0  0
  149.4486  141.1802  154.7426 C   0  0  0  0  0  0  0  0  0  0  0  0
  150.5197  141.1526  155.8446 C   0  0  0  0  0  0  0  0  0  0  0  0
  150.0393  140.3203  157.0464 C   0  0  2  0  0  0  0  0  0  0  0  0
  151.1107  140.2577  157.9787 O   0  0  0  0  0  0  0  0  0  0  0  0
  151.3629  141.4728  158.6677 C   0  0  0  0  0  0  0  0  0  0  0  0
  152.6312  141.3180  159.4789 C   0  0  0  0  0  0  0  0  0  0  0  0
  152.7920  142.0546  160.7896 C   0  0  0  0  0  0  0  0  0  0  0  0
  153.6196  142.4562  159.5954 C   0  0  0  0  0  0  0  0  0  0  0  0
  149.6254  138.9092  156.5796 C   0  0  0  0  0  0  0  0  0  0  0  0
  148.4955  136.7098  155.8640 N   0  0  0  0  0  0  0  0  0  0  0  0
  147.9693  135.5112  155.5942 C   0  0  0  0  0  0  0  0  0  0  0  0
  147.0127  135.1969  154.7176 N   0  0  0  0  0  0  0  0  0  0  0  0
  146.5635  136.3010  154.0541 C   0  0  0  0  0  0  0  0  0  0  0  0
  144.3050  133.8388  150.4760 C   0  0  0  0  0  0  0  0  0  0  0  0
  144.9611  132.4743  150.6407 C   0  0  0  0  0  0  0  0  0  0  0  0
  146.3357  132.7761  150.4854 O   0  0  0  0  0  0  0  0  0  0  0  0
  146.5922  133.9614  151.2256 C   0  0  0  0  0  0  0  0  0  0  0  0
  145.5125  135.6082  149.4019 H   0  0  0  0  0  0  0  0  0  0  0  0
  143.7531  135.6292  152.4435 H   0  0  0  0  0  0  0  0  0  0  0  0
  144.7869  134.4702  153.2368 H   0  0  0  0  0  0  0  0  0  0  0  0
  144.8440  138.0851  151.9804 H   0  0  0  0  0  0  0  0  0  0  0  0
  149.8716  139.2507  153.8493 H   0  0  0  0  0  0  0  0  0  0  0  0
  148.2191  139.7955  153.6202 H   0  0  0  0  0  0  0  0  0  0  0  0
  149.8191  141.7217  153.8719 H   0  0  0  0  0  0  0  0  0  0  0  0
  148.5739  141.7256  155.0989 H   0  0  0  0  0  0  0  0  0  0  0  0
  151.4408  140.7252  155.4458 H   0  0  0  0  0  0  0  0  0  0  0  0
  150.7580  142.1683  156.1617 H   0  0  0  0  0  0  0  0  0  0  0  0
  149.1845  140.8274  157.4981 H   0  0  0  0  0  0  0  0  0  0  0  0
  151.4725  142.2999  157.9644 H   0  0  0  0  0  0  0  0  0  0  0  0
  150.5456  141.7153  159.3464 H   0  0  0  0  0  0  0  0  0  0  0  0
  153.0504  140.3139  159.4504 H   0  0  0  0  0  0  0  0  0  0  0  0
  151.9928  142.7269  161.0956 H   0  0  0  0  0  0  0  0  0  0  0  0
  153.2976  141.5328  161.5996 H   0  0  0  0  0  0  0  0  0  0  0  0
  154.6775  142.2022  159.6070 H   0  0  0  0  0  0  0  0  0  0  0  0
  153.3720  143.3953  159.1046 H   0  0  0  0  0  0  0  0  0  0  0  0
  149.2146  138.3345  157.4100 H   0  0  0  0  0  0  0  0  0  0  0  0
  150.5064  138.3750  156.2233 H   0  0  0  0  0  0  0  0  0  0  0  0
  148.3728  134.6854  156.1615 H   0  0  0  0  0  0  0  0  0  0  0  0
  143.3035  133.8756  150.9059 H   0  0  0  0  0  0  0  0  0  0  0  0
  144.2114  134.0569  149.4107 H   0  0  0  0  0  0  0  0  0  0  0  0
  144.7805  132.0676  151.6372 H   0  0  0  0  0  0  0  0  0  0  0  0
  144.6197  131.7489  149.9021 H   0  0  0  0  0  0  0  0  0  0  0  0
  147.4705  134.4830  150.8432 H   0  0  0  0  0  0  0  0  0  0  0  0
  146.8085  133.6627  152.2513 H   0  0  0  0  0  0  0  0  0  0  0  0
  1  2  1  0  0  0  0
  1 28  1  0  0  0  0
  2 27  1  0  0  0  0
  2  3  1  0  0  0  0
  2 24  1  0  0  0  0
  3  4  1  0  0  0  0
  3 29  1  0  0  0  0
  3 30  1  0  0  0  0
  4 23  1  0  0  0  0
  4  5  1  0  0  0  0
  5  6  2  0  0  0  0
  5 31  1  0  0  0  0
  6  7  1  0  0  0  0
  7 23  2  0  0  0  0
  7  8  1  0  0  0  0
  8  9  1  0  0  0  0
  8 20  2  0  0  0  0
  9 19  1  0  0  0  0
  9 10  1  0  0  0  0
 10 11  1  0  0  0  0
 10 32  1  0  0  0  0
 10 33  1  0  0  0  0
 11 12  1  0  0  0  0
 11 34  1  0  0  0  0
 11 35  1  0  0  0  0
 12 13  1  0  0  0  0
 12 36  1  0  0  0  0
 12 37  1  0  0  0  0
 13 14  1  0  0  0  0
 13 19  1  0  0  0  0
 13 38  1  0  0  0  0
 14 15  1  0  0  0  0
 15 16  1  0  0  0  0
 15 39  1  0  0  0  0
 15 40  1  0  0  0  0
 16 18  1  0  0  0  0
 16 17  1  0  0  0  0
 16 41  1  0  0  0  0
 17 18  1  0  0  0  0
 17 42  1  0  0  0  0
 17 43  1  0  0  0  0
 18 44  1  0  0  0  0
 18 45  1  0  0  0  0
 19 46  1  0  0  0  0
 19 47  1  0  0  0  0
 20 21  1  0  0  0  0
 21 22  2  0  0  0  0
 21 48  1  0  0  0  0
 22 23  1  0  0  0  0
 24 25  1  0  0  0  0
 24 49  1  0  0  0  0
 24 50  1  0  0  0  0
 25 26  1  0  0  0  0
 25 51  1  0  0  0  0
 25 52  1  0  0  0  0
 26 27  1  0  0  0  0
 27 53  1  0  0  0  0
 27 54  1  0  0  0  0
M  END
> <s_m_source_file>
AV-unprocessed.smi

> <i_m_source_file_index>
166

> <i_lp_mmshare_version>
43012

> <i_f3d_flags>
0

> <s_epik_input>
W0NIMl0xT1tDSDJdW0NIMl1bQ0BAXTEoW09IXSlbQ0gyXW4oW2NIXW4yKWMoYzIzKW5bY0hdbmMzTjRbQ0gyXVtDSDJdW0NIMl1bQ0BIXShbQ0gyXTQpT1tDSDJdW0NIXTVbQ0gyXVtDSDJdNQ==

> <s_epik_cmdline>
J2VwaWtfcHl0aG9uJywgJy1waCcsICc3LjAnLCAnLXRuJywgJzgnLCAnLW1hJywgJzIwMCcsICctbWV0YWxfYmluZGluZycsICctaW1hZScsICc8aW5maWxlLm1hZT4nLCAnLW9tYWUnLCAnPG91dGZpbGUubWFlPic=

> <r_lp_tautomer_probability>
1

> <r_epik_Ionization_Penalty>
0.00342552

> <r_epik_Ionization_Penalty_Charging>
0

> <r_epik_Ionization_Penalty_Neutral>
0.00342552

> <r_epik_State_Penalty>
0.0022204

> <r_epik_Charging_Adjusted_Penalty>
0.0022204

> <i_epik_Tot_Q>
0

> <i_epik_Tot_abs_Q>
0

> <r_epik_Metal_State_Penalty>
-0

> <b_epik_Metal_Only>
0

> <s_lp_Force_Field>
OPLS_2005

> <r_lp_Energy>
47.3104

> <b_lp_Chiralities_Consistent>
1

> <s_lp_Variant>
AV-unprocessed.smi:166-3

> <Gold.Version>
5.8.1

> <Gold.Id.Protein>
6NUR|6NUR_protein|mol2

> <Gold.PLP.Fitness>
44.6309

> <Gold.PLP.PLP>
-37.7283

> <Gold.PLP.part.hbond>
-2.0000

> <Gold.PLP.part.metal>
0.0000

> <Gold.PLP.part.buried>
-4.9891

> <Gold.PLP.part.nonpolar>
-31.1853

> <Gold.PLP.part.repulsive>
0.6056

> <Gold.PLP.ligand.clash>
0.0000

> <Gold.PLP.ligand.torsion>
1.0784

> <Gold.PLP.Chemscore.Hbond>
1.0000

> <Gold.PLP.Chemscore.CHOScore>
1.7271

> <Gold.PLP.Chemscore.Metal>
0.0000

> <Gold.Chemscore.Hbonds>
donor molecule, donor type, donor heavy atom, donor atom, acceptor molecule, acceptor atom, score
      L1  H     1    28       P1  7921  1.00
      L1  C     5    31       P1 10171  1.00
      L1  C     5    31       P1 10175  0.48

> <Gold.PLP.Chemscore.Internal.Correction>
0.8780

> <Gold.Rescore>
     Score         DG    S(hbond)    S(metal)    S(lipo)     H(rot)  DE(clash)    DE(int)     intcor
     12.56     -13.67       1.00        0.00     100.18       2.68       0.09       1.02       ----

> <Gold.Chemscore.Fitness>
12.5614

> <Gold.Chemscore.DG>
-13.6655

> <Gold.Chemscore.ZeroCoef>
-5.4800

> <Gold.Chemscore.Hbond>
0.9969

> <Gold.Chemscore.Metal>
0.0000

> <Gold.Chemscore.Lipo>
100.1799

> <Gold.Chemscore.Internal_Hbond>
0.0000

> <Gold.Chemscore.DEClash>
0.0882

> <Gold.Chemscore.DEInternal>
1.0159

> <Gold.Chemscore.Rot>
2.6817

> <Gold.Chemscore.Internal.Correction>
   9.000000E+99

> <Gold.Chemscore.Hbonds>
donor molecule, donor type, donor heavy atom, donor atom, acceptor molecule, acceptor atom, score
      L1  H     1    28       P1  7921  0.93

> <Gold.Chemscore.Hbond.Weighted>
-3.3295

> <Gold.Chemscore.Metal.Weighted>
-0.0000

> <Gold.Chemscore.Lipo.Weighted>
-11.7211

> <Gold.Chemscore.Internal_Hbond.Weighted>
0.0000

> <Gold.Chemscore.DEClash.Weighted>
0.0882

> <Gold.Chemscore.DEInternal.Weighted>
1.0159

> <Gold.Chemscore.Rot.Weighted>
6.8651

> <Gold.Chemscore.Internal.Correction.Weighted>
   9.000000E+99

> <Gold.Protein.RotatedTorsions>
[ 6907 6896 6895 6894 ] final   99.50 input  -60.11 | X-H torsion
[ 7974 7965 7964 7962 ] final -144.35 input  175.53 | X-H torsion
[ 8008 7997 7996 7995 ] final  -13.67 input   59.86 | X-H torsion
[ 10167 10162 10161 10158 ] final  -94.76 input  -65.29 | X-H torsion
[ 10718 10713 10712 10709 ] final  -71.38 input   66.30 | X-H torsion
[ 10763 10752 10751 10750 ] final  147.88 input  -60.55 | X-H torsion
[ 11005 11000 10999 10996 ] final   93.58 input  -57.11 | X-H torsion

> <Gold.Protein.ActiveResidues>
 VAL166  LYS551  ARG553  GLY616  TRP617  ASP618  TYR619  PRO620  LYS621  CYS622 
 ASP623  PHE694  ASN695  SER759  ASP760  ASP761  ALA762  ILE779  LEU786  VAL792 
 PHE793  MET794  SER795  GLU796  ALA797  LYS798  CYS799  TRP800  GLU811  SER814 

> <Gold.Protein.RotatedAtoms>
  152.5391  134.0419  159.8070 H   0  0  0  0  0  0  0  0  0  0  0  0  # atno 6907 bound_to 6896
  151.0574  133.5565  159.2644 H   0  0  0  0  0  0  0  0  0  0  0  0  # atno 6908 bound_to 6896
  151.2477  135.0619  159.9103 H   0  0  0  0  0  0  0  0  0  0  0  0  # atno 6909 bound_to 6896
  144.8304  140.5721  143.5519 H   0  0  0  0  0  0  0  0  0  0  0  0  # atno 7974 bound_to 7965
  154.5273  140.2243  155.8867 H   0  0  0  0  0  0  0  0  0  0  0  0  # atno 8008 bound_to 7997
  156.1727  140.3118  155.8966 H   0  0  0  0  0  0  0  0  0  0  0  0  # atno 8009 bound_to 7997
  155.3525  140.0456  157.3037 H   0  0  0  0  0  0  0  0  0  0  0  0  # atno 8010 bound_to 7997
  140.3111  143.3104  152.0147 H   0  0  0  0  0  0  0  0  0  0  0  0  # atno 10167 bound_to 10162
  156.0365  130.4350  150.2436 H   0  0  0  0  0  0  0  0  0  0  0  0  # atno 10718 bound_to 10713
  154.0455  135.2886  155.3348 H   0  0  0  0  0  0  0  0  0  0  0  0  # atno 10763 bound_to 10752
  154.6902  135.5229  153.8385 H   0  0  0  0  0  0  0  0  0  0  0  0  # atno 10764 bound_to 10752
  153.0582  135.6603  154.0656 H   0  0  0  0  0  0  0  0  0  0  0  0  # atno 10765 bound_to 10752
  139.8808  134.8798  156.3739 H   0  0  0  0  0  0  0  0  0  0  0  0  # atno 11005 bound_to 11000
  145.4908  139.1489  143.3710 LP  0  0  0  0  0  0  0  0  0  0  0  0  # atno 17320 bound_to 7965
  146.2607  140.5047  142.8855 LP  0  0  0  0  0  0  0  0  0  0  0  0  # atno 17321 bound_to 7965
  139.4893  144.6383  151.6929 LP  0  0  0  0  0  0  0  0  0  0  0  0  # atno 17342 bound_to 10162
  140.5567  144.0336  150.6151 LP  0  0  0  0  0  0  0  0  0  0  0  0  # atno 17343 bound_to 10162
  157.0534  131.0069  151.3246 LP  0  0  0  0  0  0  0  0  0  0  0  0  # atno 17370 bound_to 10713
  157.5123  130.7946  149.7719 LP  0  0  0  0  0  0  0  0  0  0  0  0  # atno 17371 bound_to 10713
  140.9445  133.7492  156.0190 LP  0  0  0  0  0  0  0  0  0  0  0  0  # atno 17394 bound_to 11000
  140.8179  134.3323  157.5391 LP  0  0  0  0  0  0  0  0  0  0  0  0  # atno 17395 bound_to 11000

$$$$
