AV-unprocessed.smi:1843|AV-procd|sdf|7502|dock2
  -GOLD-   22720 9203D 1   1.00000     0.00000
 Structure written by MMmdl.
 37 39  0  0  0  0  0  0  0  0  1 V2000
  141.7750  136.9191  154.4439 O   0  0  0  0  0  0  0  0  0  0  0  0
  142.2963  137.8872  153.8900 C   0  0  0  0  0  0  0  0  0  0  0  0
  143.2641  137.8233  152.9587 N   0  0  0  0  0  0  0  0  0  0  0  0
  143.8855  136.6687  152.4135 C   0  0  0  0  0  0  0  0  0  0  0  0
  145.0310  136.6971  151.7186 N   0  0  0  0  0  0  0  0  0  0  0  0
  145.4159  135.4303  151.3026 N   0  0  0  0  0  0  0  0  0  0  0  0
  144.5551  134.4833  151.6940 C   0  0  0  0  0  0  0  0  0  0  0  0
  144.7565  133.0407  151.3689 C   0  0  0  0  0  0  0  0  0  0  0  0
  144.9919  132.5735  149.9489 C   0  0  0  0  0  0  0  0  0  0  0  0
  143.6900  132.2568  150.6391 C   0  0  0  0  0  0  0  0  0  0  0  0
  143.1765  135.0759  152.6152 S   0  0  0  0  0  0  0  0  0  0  0  0
  141.9582  139.1581  154.1517 N   0  0  0  0  0  0  0  0  0  0  0  0
  140.9342  139.5797  155.1058 C   0  0  2  0  0  0  0  0  0  0  0  0
  139.5336  139.1756  154.6065 C   0  0  0  0  0  0  0  0  0  0  0  0
  138.4459  139.5960  155.6080 C   0  0  0  0  0  0  0  0  0  0  0  0
  138.5084  141.1032  155.9023 C   0  0  0  0  0  0  0  0  0  0  0  0
  139.9071  141.5265  156.3876 C   0  0  0  0  0  0  0  0  0  0  0  0
  141.0191  141.0956  155.4112 C   0  0  2  0  0  0  0  0  0  0  0  0
  140.9101  141.8570  154.2222 O   0  0  0  0  0  0  0  0  0  0  0  0
  143.5929  138.7045  152.5927 H   0  0  0  0  0  0  0  0  0  0  0  0
  145.3027  132.5397  152.1658 H   0  0  0  0  0  0  0  0  0  0  0  0
  144.9634  133.3126  149.1508 H   0  0  0  0  0  0  0  0  0  0  0  0
  145.6939  131.7555  149.8009 H   0  0  0  0  0  0  0  0  0  0  0  0
  143.5219  131.2278  150.9507 H   0  0  0  0  0  0  0  0  0  0  0  0
  142.8035  132.7948  150.3091 H   0  0  0  0  0  0  0  0  0  0  0  0
  142.4388  139.8917  153.6517 H   0  0  0  0  0  0  0  0  0  0  0  0
  141.1073  139.0400  156.0393 H   0  0  0  0  0  0  0  0  0  0  0  0
  139.3335  139.6332  153.6367 H   0  0  0  0  0  0  0  0  0  0  0  0
  139.4893  138.0968  154.4527 H   0  0  0  0  0  0  0  0  0  0  0  0
  137.4616  139.3341  155.2187 H   0  0  0  0  0  0  0  0  0  0  0  0
  138.5697  139.0372  156.5367 H   0  0  0  0  0  0  0  0  0  0  0  0
  138.2465  141.6611  155.0025 H   0  0  0  0  0  0  0  0  0  0  0  0
  137.7620  141.3654  156.6526 H   0  0  0  0  0  0  0  0  0  0  0  0
  139.9384  142.6054  156.5445 H   0  0  0  0  0  0  0  0  0  0  0  0
  140.0954  141.0738  157.3621 H   0  0  0  0  0  0  0  0  0  0  0  0
  141.9872  141.3278  155.8568 H   0  0  0  0  0  0  0  0  0  0  0  0
  141.6639  141.6743  153.6823 H   0  0  0  0  0  0  0  0  0  0  0  0
  1  2  2  0  0  0  0
  2  3  1  0  0  0  0
  2 12  1  0  0  0  0
  3  4  1  0  0  0  0
  3 20  1  0  0  0  0
  4 11  1  0  0  0  0
  4  5  2  0  0  0  0
  5  6  1  0  0  0  0
  6  7  2  0  0  0  0
  7  8  1  0  0  0  0
  7 11  1  0  0  0  0
  8 10  1  0  0  0  0
  8  9  1  0  0  0  0
  8 21  1  0  0  0  0
  9 10  1  0  0  0  0
  9 22  1  0  0  0  0
  9 23  1  0  0  0  0
 10 24  1  0  0  0  0
 10 25  1  0  0  0  0
 12 13  1  0  0  0  0
 12 26  1  0  0  0  0
 13 18  1  0  0  0  0
 13 14  1  0  0  0  0
 13 27  1  0  0  0  0
 14 15  1  0  0  0  0
 14 28  1  0  0  0  0
 14 29  1  0  0  0  0
 15 16  1  0  0  0  0
 15 30  1  0  0  0  0
 15 31  1  0  0  0  0
 16 17  1  0  0  0  0
 16 32  1  0  0  0  0
 16 33  1  0  0  0  0
 17 18  1  0  0  0  0
 17 34  1  0  0  0  0
 17 35  1  0  0  0  0
 18 19  1  0  0  0  0
 18 36  1  0  0  0  0
 19 37  1  0  0  0  0
M  END
> <s_m_source_file>
AV-unprocessed.smi

> <i_m_source_file_index>
1843

> <i_lp_mmshare_version>
43012

> <i_f3d_flags>
0

> <s_epik_input>
W09IXVtDQEBIXTFbQ0gyXVtDSDJdW0NIMl1bQ0gyXVtDQEhdMVtOSF1DKD1PKVtOSF1jMm5uYyhzMilbQ0hdM1tDSDJdW0NIMl0z

> <s_epik_cmdline>
J2VwaWtfcHl0aG9uJywgJy1waCcsICc3LjAnLCAnLXRuJywgJzgnLCAnLW1hJywgJzIwMCcsICctbWV0YWxfYmluZGluZycsICctaW1hZScsICc8aW5maWxlLm1hZT4nLCAnLW9tYWUnLCAnPG91dGZpbGUubWFlPic=

> <r_lp_tautomer_probability>
1

> <r_epik_Ionization_Penalty>
0.000257313

> <r_epik_Ionization_Penalty_Charging>
0

> <r_epik_Ionization_Penalty_Neutral>
0.000257313

> <r_epik_State_Penalty>
-0

> <r_epik_Charging_Adjusted_Penalty>
0

> <i_epik_Tot_Q>
0

> <i_epik_Tot_abs_Q>
0

> <r_epik_Metal_State_Penalty>
0.147479

> <b_epik_Metal_Only>
0

> <s_lp_Force_Field>
OPLS_2005

> <r_lp_Energy>
10.7354

> <b_lp_Chiralities_Consistent>
1

> <s_lp_Variant>
AV-unprocessed.smi:1843-3

> <Gold.Version>
5.8.1

> <Gold.Id.Protein>
6NUR|6NUR_protein|mol2

> <Gold.PLP.Fitness>
43.2254

> <Gold.PLP.PLP>
-32.3582

> <Gold.PLP.part.hbond>
-6.0571

> <Gold.PLP.part.metal>
0.0000

> <Gold.PLP.part.buried>
-4.0990

> <Gold.PLP.part.nonpolar>
-22.8226

> <Gold.PLP.part.repulsive>
0.5135

> <Gold.PLP.ligand.clash>
0.0000

> <Gold.PLP.ligand.torsion>
0.2306

> <Gold.PLP.Chemscore.Hbond>
3.7280

> <Gold.PLP.Chemscore.CHOScore>
0.0000

> <Gold.PLP.Chemscore.Metal>
0.0000

> <Gold.Chemscore.Hbonds>
donor molecule, donor type, donor heavy atom, donor atom, acceptor molecule, acceptor atom, score
      L1  H     3    20       P1 10175  1.00
      L1  H    12    26       P1 10175  1.00
      L1  H    19    37       P1 10174  0.78

> <Gold.PLP.Chemscore.Internal.Correction>
0.1443

> <Gold.Rescore>
     Score         DG    S(hbond)    S(metal)    S(lipo)     H(rot)  DE(clash)    DE(int)     intcor
     15.64     -16.53       2.49        0.00      61.32       1.74       0.09       0.80       ----

> <Gold.Chemscore.Fitness>
15.6438

> <Gold.Chemscore.DG>
-16.5300

> <Gold.Chemscore.ZeroCoef>
-5.4800

> <Gold.Chemscore.Hbond>
2.4943

> <Gold.Chemscore.Metal>
0.0000

> <Gold.Chemscore.Lipo>
61.3209

> <Gold.Chemscore.Internal_Hbond>
0.0000

> <Gold.Chemscore.DEClash>
0.0887

> <Gold.Chemscore.DEInternal>
0.7976

> <Gold.Chemscore.Rot>
1.7404

> <Gold.Chemscore.Internal.Correction>
   9.000000E+99

> <Gold.Chemscore.Hbonds>
donor molecule, donor type, donor heavy atom, donor atom, acceptor molecule, acceptor atom, score
      L1  H     3    20       P1 10175  0.98
      L1  H    12    26       P1 10175  0.95
      L1  H    19    37       P1 10174  0.19

> <Gold.Chemscore.Hbond.Weighted>
-8.3309

> <Gold.Chemscore.Metal.Weighted>
-0.0000

> <Gold.Chemscore.Lipo.Weighted>
-7.1745

> <Gold.Chemscore.Internal_Hbond.Weighted>
0.0000

> <Gold.Chemscore.DEClash.Weighted>
0.0887

> <Gold.Chemscore.DEInternal.Weighted>
0.7976

> <Gold.Chemscore.Rot.Weighted>
4.4555

> <Gold.Chemscore.Internal.Correction.Weighted>
   9.000000E+99

> <Gold.Protein.RotatedTorsions>
[ 6907 6896 6895 6894 ] final  -27.77 input  -60.11 | X-H torsion
[ 7974 7965 7964 7962 ] final   -2.13 input  175.53 | X-H torsion
[ 8008 7997 7996 7995 ] final  -25.53 input   59.86 | X-H torsion
[ 10167 10162 10161 10158 ] final -115.77 input  -65.29 | X-H torsion
[ 10718 10713 10712 10709 ] final    1.39 input   66.30 | X-H torsion
[ 10763 10752 10751 10750 ] final   43.56 input  -60.55 | X-H torsion
[ 11005 11000 10999 10996 ] final  -80.53 input  -57.11 | X-H torsion

> <Gold.Protein.ActiveResidues>
 VAL166  LYS551  ARG553  GLY616  TRP617  ASP618  TYR619  PRO620  LYS621  CYS622 
 ASP623  PHE694  ASN695  SER759  ASP760  ASP761  ALA762  ILE779  LEU786  VAL792 
 PHE793  MET794  SER795  GLU796  ALA797  LYS798  CYS799  TRP800  GLU811  SER814 

> <Gold.Protein.RotatedAtoms>
  151.1423  135.0186  159.8630 H   0  0  0  0  0  0  0  0  0  0  0  0  # atno 6907 bound_to 6896
  152.5452  134.1485  159.8518 H   0  0  0  0  0  0  0  0  0  0  0  0  # atno 6908 bound_to 6896
  151.1561  133.4830  159.2627 H   0  0  0  0  0  0  0  0  0  0  0  0  # atno 6909 bound_to 6896
  146.2408  140.1524  142.8333 H   0  0  0  0  0  0  0  0  0  0  0  0  # atno 7974 bound_to 7965
  154.4471  140.1924  156.0633 H   0  0  0  0  0  0  0  0  0  0  0  0  # atno 8008 bound_to 7997
  156.0566  140.3302  155.7386 H   0  0  0  0  0  0  0  0  0  0  0  0  # atno 8009 bound_to 7997
  155.5475  140.0592  157.2848 H   0  0  0  0  0  0  0  0  0  0  0  0  # atno 8010 bound_to 7997
  140.0865  143.4739  152.1895 H   0  0  0  0  0  0  0  0  0  0  0  0  # atno 10167 bound_to 10162
  156.8475  130.5542  149.5672 H   0  0  0  0  0  0  0  0  0  0  0  0  # atno 10718 bound_to 10713
  152.9858  135.6097  154.3132 H   0  0  0  0  0  0  0  0  0  0  0  0  # atno 10763 bound_to 10752
  154.2846  135.2776  155.2684 H   0  0  0  0  0  0  0  0  0  0  0  0  # atno 10764 bound_to 10752
  154.5007  135.5867  153.6585 H   0  0  0  0  0  0  0  0  0  0  0  0  # atno 10765 bound_to 10752
  141.1668  133.7154  156.8286 H   0  0  0  0  0  0  0  0  0  0  0  0  # atno 11005 bound_to 11000
  145.0156  140.8751  143.5197 LP  0  0  0  0  0  0  0  0  0  0  0  0  # atno 17320 bound_to 7965
  145.1565  139.2483  143.5414 LP  0  0  0  0  0  0  0  0  0  0  0  0  # atno 17321 bound_to 7965
  139.5749  144.7482  151.3791 LP  0  0  0  0  0  0  0  0  0  0  0  0  # atno 17342 bound_to 10162
  140.7051  143.7535  150.7467 LP  0  0  0  0  0  0  0  0  0  0  0  0  # atno 17343 bound_to 10162
  156.0846  130.5848  150.9625 LP  0  0  0  0  0  0  0  0  0  0  0  0  # atno 17370 bound_to 10713
  157.6321  131.0920  150.8420 LP  0  0  0  0  0  0  0  0  0  0  0  0  # atno 17371 bound_to 10713
  140.2067  134.8857  157.3229 LP  0  0  0  0  0  0  0  0  0  0  0  0  # atno 17394 bound_to 11000
  140.2130  134.4116  155.7603 LP  0  0  0  0  0  0  0  0  0  0  0  0  # atno 17395 bound_to 11000

$$$$
