AV-unprocessed.smi:3253|AV-procd|sdf|12452|dock7
  -GOLD-   2272018343D 1   1.00000     0.00000
 Structure written by MMmdl.
 36 37  0  0  0  0  0  0  0  0  1 V2000
  150.9508  140.5907  158.2734 C   0  0  0  0  0  0  0  0  0  0  0  0
  150.2526  141.8680  157.7878 C   0  0  1  0  0  0  0  0  0  0  0  0
  151.2769  142.9512  157.3861 C   0  0  0  0  0  0  0  0  0  0  0  0
  151.5104  143.9226  158.4397 N   0  0  0  0  0  0  0  0  0  0  0  0
  152.2396  143.7337  159.6068 C   0  0  0  0  0  0  0  0  0  0  0  0
  152.2006  144.9267  160.2922 C   0  0  0  0  0  0  0  0  0  0  0  0
  151.4510  145.8553  159.5742 N   0  0  0  0  0  0  0  0  0  0  0  0
  151.0735  145.1884  158.4910 C   0  0  0  0  0  0  0  0  0  0  0  0
  149.3813  141.5362  156.6610 N   0  0  0  0  0  0  0  0  0  0  0  0
  149.7596  140.8977  155.5422 C   0  0  0  0  0  0  0  0  0  0  0  0
  150.9218  140.5588  155.3154 O   0  0  0  0  0  0  0  0  0  0  0  0
  148.6482  140.5633  154.5362 C   0  0  1  0  0  0  0  0  0  0  0  0
  147.4232  139.9275  155.2253 C   0  0  0  0  0  0  0  0  0  0  0  0
  146.3440  140.9915  155.1076 C   0  0  0  0  0  0  0  0  0  0  0  0
  145.2421  140.8880  155.6446 O   0  0  0  0  0  0  0  0  0  0  0  0
  146.7666  142.0207  154.3682 N   0  0  0  0  0  0  0  0  0  0  0  0
  146.0051  143.2256  154.0692 C   0  0  0  0  0  0  0  0  0  0  0  0
  148.1052  141.8291  153.8380 C   0  0  0  0  0  0  0  0  0  0  0  0
  151.5947  140.7976  159.1286 H   0  0  0  0  0  0  0  0  0  0  0  0
  151.5697  140.1524  157.4898 H   0  0  0  0  0  0  0  0  0  0  0  0
  150.2237  139.8397  158.5840 H   0  0  0  0  0  0  0  0  0  0  0  0
  149.6566  142.2438  158.6214 H   0  0  0  0  0  0  0  0  0  0  0  0
  152.2337  142.4894  157.1392 H   0  0  0  0  0  0  0  0  0  0  0  0
  150.9451  143.4790  156.4908 H   0  0  0  0  0  0  0  0  0  0  0  0
  152.7201  142.7956  159.8419 H   0  0  0  0  0  0  0  0  0  0  0  0
  152.6506  145.1862  161.2390 H   0  0  0  0  0  0  0  0  0  0  0  0
  150.4726  145.6339  157.7117 H   0  0  0  0  0  0  0  0  0  0  0  0
  148.4052  141.7754  156.7586 H   0  0  0  0  0  0  0  0  0  0  0  0
  149.0437  139.8755  153.7866 H   0  0  0  0  0  0  0  0  0  0  0  0
  147.1018  139.0270  154.7013 H   0  0  0  0  0  0  0  0  0  0  0  0
  147.5921  139.6656  156.2710 H   0  0  0  0  0  0  0  0  0  0  0  0
  145.0378  142.9724  153.6342 H   0  0  0  0  0  0  0  0  0  0  0  0
  146.5376  143.8611  153.3609 H   0  0  0  0  0  0  0  0  0  0  0  0
  145.8338  143.8014  154.9792 H   0  0  0  0  0  0  0  0  0  0  0  0
  148.7184  142.7142  154.0182 H   0  0  0  0  0  0  0  0  0  0  0  0
  148.0488  141.6822  152.7586 H   0  0  0  0  0  0  0  0  0  0  0  0
  1  2  1  0  0  0  0
  1 19  1  0  0  0  0
  1 20  1  0  0  0  0
  1 21  1  0  0  0  0
  2  3  1  0  0  0  0
  2  9  1  0  0  0  0
  2 22  1  0  0  0  0
  3  4  1  0  0  0  0
  3 23  1  0  0  0  0
  3 24  1  0  0  0  0
  4  8  1  0  0  0  0
  4  5  1  0  0  0  0
  5  6  2  0  0  0  0
  5 25  1  0  0  0  0
  6  7  1  0  0  0  0
  6 26  1  0  0  0  0
  7  8  2  0  0  0  0
  8 27  1  0  0  0  0
  9 10  1  0  0  0  0
  9 28  1  0  0  0  0
 10 11  2  0  0  0  0
 10 12  1  0  0  0  0
 12 18  1  0  0  0  0
 12 13  1  0  0  0  0
 12 29  1  0  0  0  0
 13 14  1  0  0  0  0
 13 30  1  0  0  0  0
 13 31  1  0  0  0  0
 14 15  2  0  0  0  0
 14 16  1  0  0  0  0
 16 17  1  0  0  0  0
 16 18  1  0  0  0  0
 17 32  1  0  0  0  0
 17 33  1  0  0  0  0
 17 34  1  0  0  0  0
 18 35  1  0  0  0  0
 18 36  1  0  0  0  0
M  END
> <s_m_source_file>
AV-unprocessed.smi

> <i_m_source_file_index>
3253

> <i_lp_mmshare_version>
43012

> <i_f3d_flags>
0

> <s_epik_input>
W2NIXTFuW2NIXVtjSF1uMVtDSDJdW0NAQEhdKFtDSDNdKVtOSF1DKD1PKVtDQEBIXTJbQ0gyXUMoPU8pTihbQ0gzXSlbQ0gyXTI=

> <s_epik_cmdline>
J2VwaWtfcHl0aG9uJywgJy1waCcsICc3LjAnLCAnLXRuJywgJzgnLCAnLW1hJywgJzIwMCcsICctbWV0YWxfYmluZGluZycsICctaW1hZScsICc8aW5maWxlLm1hZT4nLCAnLW9tYWUnLCAnPG91dGZpbGUubWFlPic=

> <r_lp_tautomer_probability>
1

> <r_epik_Ionization_Penalty>
0.628884

> <r_epik_Ionization_Penalty_Charging>
0.628884

> <r_epik_Ionization_Penalty_Neutral>
2.35084e-08

> <r_epik_State_Penalty>
0.64556

> <r_epik_Charging_Adjusted_Penalty>
1.27444

> <i_epik_Tot_Q>
0

> <i_epik_Tot_abs_Q>
0

> <r_epik_Metal_State_Penalty>
0.308736

> <b_epik_Metal_Only>
0

> <s_lp_Force_Field>
OPLS_2005

> <r_lp_Energy>
12.6198

> <b_lp_Chiralities_Consistent>
1

> <s_lp_Variant>
AV-unprocessed.smi:3253-8

> <Gold.Version>
5.8.1

> <Gold.Id.Protein>
6NUR|6NUR_protein|mol2

> <Gold.PLP.Fitness>
40.9082

> <Gold.PLP.PLP>
-37.8555

> <Gold.PLP.part.hbond>
-2.4380

> <Gold.PLP.part.metal>
0.0000

> <Gold.PLP.part.buried>
-5.3416

> <Gold.PLP.part.nonpolar>
-31.0262

> <Gold.PLP.part.repulsive>
0.3490

> <Gold.PLP.ligand.clash>
0.0000

> <Gold.PLP.ligand.torsion>
0.9774

> <Gold.PLP.Chemscore.Hbond>
0.9120

> <Gold.PLP.Chemscore.CHOScore>
0.7467

> <Gold.PLP.Chemscore.Metal>
0.0000

> <Gold.Chemscore.Hbonds>
donor molecule, donor type, donor heavy atom, donor atom, acceptor molecule, acceptor atom, score
      P1  H  7989  7998       L1    11  0.94
      L1  C     8    27       P1  8028  0.18
      L1  C     8    27       P1  8029  0.41

> <Gold.PLP.Chemscore.Internal.Correction>
0.0312

> <Gold.Rescore>
     Score         DG    S(hbond)    S(metal)    S(lipo)     H(rot)  DE(clash)    DE(int)     intcor
      9.54     -11.45       0.96        0.00      66.51       1.97       0.02       1.89       ----

> <Gold.Chemscore.Fitness>
9.5384

> <Gold.Chemscore.DG>
-11.4488

> <Gold.Chemscore.ZeroCoef>
-5.4800

> <Gold.Chemscore.Hbond>
0.9649

> <Gold.Chemscore.Metal>
0.0000

> <Gold.Chemscore.Lipo>
66.5055

> <Gold.Chemscore.Internal_Hbond>
0.0000

> <Gold.Chemscore.DEClash>
0.0219

> <Gold.Chemscore.DEInternal>
1.8885

> <Gold.Chemscore.Rot>
1.9669

> <Gold.Chemscore.Internal.Correction>
   9.000000E+99

> <Gold.Chemscore.Hbonds>
donor molecule, donor type, donor heavy atom, donor atom, acceptor molecule, acceptor atom, score
      P1  H  7989  7998       L1    11  0.86

> <Gold.Chemscore.Hbond.Weighted>
-3.2228

> <Gold.Chemscore.Metal.Weighted>
-0.0000

> <Gold.Chemscore.Lipo.Weighted>
-7.7811

> <Gold.Chemscore.Internal_Hbond.Weighted>
0.0000

> <Gold.Chemscore.DEClash.Weighted>
0.0219

> <Gold.Chemscore.DEInternal.Weighted>
1.8885

> <Gold.Chemscore.Rot.Weighted>
5.0352

> <Gold.Chemscore.Internal.Correction.Weighted>
   9.000000E+99

> <Gold.Protein.RotatedTorsions>
[ 6907 6896 6895 6894 ] final -138.71 input  -60.11 | X-H torsion
[ 7974 7965 7964 7962 ] final   85.15 input  175.53 | X-H torsion
[ 8008 7997 7996 7995 ] final  -18.50 input   59.86 | X-H torsion
[ 10167 10162 10161 10158 ] final  -51.87 input  -65.29 | X-H torsion
[ 10718 10713 10712 10709 ] final  137.06 input   66.30 | X-H torsion
[ 10763 10752 10751 10750 ] final  -46.31 input  -60.55 | X-H torsion
[ 11005 11000 10999 10996 ] final  161.10 input  -57.11 | X-H torsion

> <Gold.Protein.ActiveResidues>
 VAL166  LYS551  ARG553  GLY616  TRP617  ASP618  TYR619  PRO620  LYS621  CYS622 
 ASP623  PHE694  ASN695  SER759  ASP760  ASP761  ALA762  ILE779  LEU786  VAL792 
 PHE793  MET794  SER795  GLU796  ALA797  LYS798  CYS799  TRP800  GLU811  SER814 

> <Gold.Protein.RotatedAtoms>
  151.0385  133.5727  159.2653 H   0  0  0  0  0  0  0  0  0  0  0  0  # atno 6907 bound_to 6896
  151.2783  135.0705  159.9169 H   0  0  0  0  0  0  0  0  0  0  0  0  # atno 6908 bound_to 6896
  152.5359  134.0103  159.7989 H   0  0  0  0  0  0  0  0  0  0  0  0  # atno 6909 bound_to 6896
  145.5893  139.2336  143.2308 H   0  0  0  0  0  0  0  0  0  0  0  0  # atno 7974 bound_to 7965
  154.4902  140.2114  155.9565 H   0  0  0  0  0  0  0  0  0  0  0  0  # atno 8008 bound_to 7997
  156.1294  140.3199  155.8295 H   0  0  0  0  0  0  0  0  0  0  0  0  # atno 8009 bound_to 7997
  155.4324  140.0504  157.3008 H   0  0  0  0  0  0  0  0  0  0  0  0  # atno 8010 bound_to 7997
  140.6566  143.2604  151.4566 H   0  0  0  0  0  0  0  0  0  0  0  0  # atno 10167 bound_to 10162
  157.4401  131.1057  151.0153 H   0  0  0  0  0  0  0  0  0  0  0  0  # atno 10718 bound_to 10713
  154.0429  135.6641  153.4792 H   0  0  0  0  0  0  0  0  0  0  0  0  # atno 10763 bound_to 10752
  153.0494  135.5094  154.7825 H   0  0  0  0  0  0  0  0  0  0  0  0  # atno 10764 bound_to 10752
  154.6807  135.3044  154.9583 H   0  0  0  0  0  0  0  0  0  0  0  0  # atno 10765 bound_to 10752
  140.2125  134.8257  157.3135 H   0  0  0  0  0  0  0  0  0  0  0  0  # atno 11005 bound_to 11000
  146.1658  140.6719  142.9256 LP  0  0  0  0  0  0  0  0  0  0  0  0  # atno 17320 bound_to 7965
  144.7358  140.4805  143.6904 LP  0  0  0  0  0  0  0  0  0  0  0  0  # atno 17321 bound_to 7965
  139.5790  144.1752  152.1943 LP  0  0  0  0  0  0  0  0  0  0  0  0  # atno 17342 bound_to 10162
  140.1071  144.5489  150.6949 LP  0  0  0  0  0  0  0  0  0  0  0  0  # atno 17343 bound_to 10162
  157.1019  130.5985  149.5462 LP  0  0  0  0  0  0  0  0  0  0  0  0  # atno 17370 bound_to 10713
  155.9945  130.5010  150.7424 LP  0  0  0  0  0  0  0  0  0  0  0  0  # atno 17371 bound_to 10713
  140.1936  134.4341  155.7702 LP  0  0  0  0  0  0  0  0  0  0  0  0  # atno 17394 bound_to 11000
  141.2226  133.7038  156.8068 LP  0  0  0  0  0  0  0  0  0  0  0  0  # atno 17395 bound_to 11000

$$$$
