AV-unprocessed.smi:527|AV-procd|sdf|2821|dock2
  -GOLD-   2262023303D 1   1.00000     0.00000
 Structure written by MMmdl.
 42 43  0  0  0  0  0  0  0  0  1 V2000
  146.2911  142.4920  153.8095 C   0  0  0  0  0  0  0  0  0  0  0  0
  147.1023  141.2758  154.2866 C   0  0  2  0  0  0  0  0  0  0  0  0
  148.6139  141.5783  154.3349 C   0  0  0  0  0  0  0  0  0  0  0  0
  149.4070  140.3936  154.9088 C   0  0  0  0  0  0  0  0  0  0  0  0
  149.1150  139.0930  154.1449 C   0  0  0  0  0  0  0  0  0  0  0  0
  147.6034  138.7961  154.1037 C   0  0  2  0  0  0  0  0  0  0  0  0
  147.3654  137.5383  153.3990 N   0  0  0  0  0  0  0  0  0  0  0  0
  146.4418  136.6237  153.7302 C   0  0  0  0  0  0  0  0  0  0  0  0
  145.5087  136.8506  154.5034 O   0  0  0  0  0  0  0  0  0  0  0  0
  146.6765  135.4562  153.1023 N   0  0  0  0  0  0  0  0  0  0  0  0
  145.8736  134.3731  153.0476 C   0  0  0  0  0  0  0  0  0  0  0  0
  144.7750  134.2746  153.5971 O   0  0  0  0  0  0  0  0  0  0  0  0
  146.4088  133.1920  152.2339 C   0  0  0  0  0  0  0  0  0  0  0  0
  145.5478  132.8895  151.1043 N   0  0  0  0  0  0  0  0  0  0  0  0
  144.1987  133.1941  150.9722 C   0  0  0  0  0  0  0  0  0  0  0  0
  143.8042  132.7079  149.7461 C   0  0  0  0  0  0  0  0  0  0  0  0
  144.8873  132.1058  149.1101 N   0  0  0  0  0  0  0  0  0  0  0  0
  145.8840  132.2533  149.9730 C   0  0  0  0  0  0  0  0  0  0  0  0
  146.8042  139.9783  153.4885 C   0  0  2  0  0  0  0  0  0  0  0  0
  147.0152  140.1278  151.9638 C   0  0  0  0  0  0  0  0  0  0  0  0
  146.6072  142.8295  152.8225 H   0  0  0  0  0  0  0  0  0  0  0  0
  146.4147  143.3323  154.4933 H   0  0  0  0  0  0  0  0  0  0  0  0
  145.2265  142.2621  153.7626 H   0  0  0  0  0  0  0  0  0  0  0  0
  146.7851  141.0894  155.3139 H   0  0  0  0  0  0  0  0  0  0  0  0
  148.9822  141.8199  153.3374 H   0  0  0  0  0  0  0  0  0  0  0  0
  148.7954  142.4622  154.9474 H   0  0  0  0  0  0  0  0  0  0  0  0
  150.4749  140.6111  154.8785 H   0  0  0  0  0  0  0  0  0  0  0  0
  149.1499  140.2609  155.9605 H   0  0  0  0  0  0  0  0  0  0  0  0
  149.5150  139.1649  153.1330 H   0  0  0  0  0  0  0  0  0  0  0  0
  149.6436  138.2673  154.6231 H   0  0  0  0  0  0  0  0  0  0  0  0
  147.2749  138.6649  155.1368 H   0  0  0  0  0  0  0  0  0  0  0  0
  147.9392  137.3606  152.5877 H   0  0  0  0  0  0  0  0  0  0  0  0
  147.5491  135.3865  152.5999 H   0  0  0  0  0  0  0  0  0  0  0  0
  147.4115  133.4202  151.8705 H   0  0  0  0  0  0  0  0  0  0  0  0
  146.4871  132.3039  152.8629 H   0  0  0  0  0  0  0  0  0  0  0  0
  143.6454  133.7145  151.7401 H   0  0  0  0  0  0  0  0  0  0  0  0
  142.8320  132.7441  149.2771 H   0  0  0  0  0  0  0  0  0  0  0  0
  146.8813  131.8854  149.7805 H   0  0  0  0  0  0  0  0  0  0  0  0
  145.7447  139.7581  153.6281 H   0  0  0  0  0  0  0  0  0  0  0  0
  148.0464  140.3747  151.7145 H   0  0  0  0  0  0  0  0  0  0  0  0
  146.3800  140.9089  151.5478 H   0  0  0  0  0  0  0  0  0  0  0  0
  146.7599  139.2115  151.4317 H   0  0  0  0  0  0  0  0  0  0  0  0
  1  2  1  0  0  0  0
  1 21  1  0  0  0  0
  1 22  1  0  0  0  0
  1 23  1  0  0  0  0
  2 19  1  0  0  0  0
  2  3  1  0  0  0  0
  2 24  1  0  0  0  0
  3  4  1  0  0  0  0
  3 25  1  0  0  0  0
  3 26  1  0  0  0  0
  4  5  1  0  0  0  0
  4 27  1  0  0  0  0
  4 28  1  0  0  0  0
  5  6  1  0  0  0  0
  5 29  1  0  0  0  0
  5 30  1  0  0  0  0
  6  7  1  0  0  0  0
  6 19  1  0  0  0  0
  6 31  1  0  0  0  0
  7  8  1  0  0  0  0
  7 32  1  0  0  0  0
  8  9  2  0  0  0  0
  8 10  1  0  0  0  0
 10 11  1  0  0  0  0
 10 33  1  0  0  0  0
 11 12  2  0  0  0  0
 11 13  1  0  0  0  0
 13 14  1  0  0  0  0
 13 34  1  0  0  0  0
 13 35  1  0  0  0  0
 14 18  1  0  0  0  0
 14 15  1  0  0  0  0
 15 16  2  0  0  0  0
 15 36  1  0  0  0  0
 16 17  1  0  0  0  0
 16 37  1  0  0  0  0
 17 18  2  0  0  0  0
 18 38  1  0  0  0  0
 19 20  1  0  0  0  0
 19 39  1  0  0  0  0
 20 40  1  0  0  0  0
 20 41  1  0  0  0  0
 20 42  1  0  0  0  0
M  END
> <s_m_source_file>
AV-unprocessed.smi

> <i_m_source_file_index>
527

> <i_lp_mmshare_version>
43012

> <i_f3d_flags>
0

> <s_epik_input>
W0NIM11bQ0BASF0xW0NIMl1bQ0gyXVtDSDJdW0NASF0oW0NASF0xW0NIM10pW05IXUMoPU8pW05IXUMoPU8pW0NIMl1uMltjSF1bY0hdbltjSF0y

> <s_epik_cmdline>
J2VwaWtfcHl0aG9uJywgJy1waCcsICc3LjAnLCAnLXRuJywgJzgnLCAnLW1hJywgJzIwMCcsICctbWV0YWxfYmluZGluZycsICctaW1hZScsICc8aW5maWxlLm1hZT4nLCAnLW9tYWUnLCAnPG91dGZpbGUubWFlPic=

> <r_lp_tautomer_probability>
1

> <r_epik_Ionization_Penalty>
0.172132

> <r_epik_Ionization_Penalty_Charging>
0.172105

> <r_epik_Ionization_Penalty_Neutral>
2.71747e-05

> <r_epik_State_Penalty>
0.161503

> <r_epik_Charging_Adjusted_Penalty>
0.333607

> <i_epik_Tot_Q>
0

> <i_epik_Tot_abs_Q>
0

> <r_epik_Metal_State_Penalty>
0.124763

> <b_epik_Metal_Only>
0

> <s_lp_Force_Field>
OPLS_2005

> <r_lp_Energy>
16.867

> <b_lp_Chiralities_Consistent>
1

> <s_lp_Variant>
AV-unprocessed.smi:527-7

> <Gold.Version>
5.8.1

> <Gold.Id.Protein>
6NUR|6NUR_protein|mol2

> <Gold.PLP.Fitness>
45.3041

> <Gold.PLP.PLP>
-35.0255

> <Gold.PLP.part.hbond>
-2.4535

> <Gold.PLP.part.metal>
0.0000

> <Gold.PLP.part.buried>
-0.9243

> <Gold.PLP.part.nonpolar>
-31.8759

> <Gold.PLP.part.repulsive>
0.3385

> <Gold.PLP.ligand.clash>
0.0000

> <Gold.PLP.ligand.torsion>
0.7440

> <Gold.PLP.Chemscore.Hbond>
1.9040

> <Gold.PLP.Chemscore.CHOScore>
1.9985

> <Gold.PLP.Chemscore.Metal>
0.0000

> <Gold.Chemscore.Hbonds>
donor molecule, donor type, donor heavy atom, donor atom, acceptor molecule, acceptor atom, score
      L1  H     7    32       P1  7948  0.90
      L1  H    10    33       P1  7948  0.99
      L1  C    16    37       P1 10186  1.00
      L1  C    18    38       P1 10747  1.00

> <Gold.PLP.Chemscore.Internal.Correction>
0.0591

> <Gold.Rescore>
     Score         DG    S(hbond)    S(metal)    S(lipo)     H(rot)  DE(clash)    DE(int)     intcor
     12.34     -16.45       1.83        0.00      77.96       1.66       1.18       2.93       ----

> <Gold.Chemscore.Fitness>
12.3423

> <Gold.Chemscore.DG>
-16.4521

> <Gold.Chemscore.ZeroCoef>
-5.4800

> <Gold.Chemscore.Hbond>
1.8286

> <Gold.Chemscore.Metal>
0.0000

> <Gold.Chemscore.Lipo>
77.9628

> <Gold.Chemscore.Internal_Hbond>
0.0000

> <Gold.Chemscore.DEClash>
1.1807

> <Gold.Chemscore.DEInternal>
2.9291

> <Gold.Chemscore.Rot>
1.6629

> <Gold.Chemscore.Internal.Correction>
   9.000000E+99

> <Gold.Chemscore.Hbonds>
donor molecule, donor type, donor heavy atom, donor atom, acceptor molecule, acceptor atom, score
      L1  H     7    32       P1  7948  0.88
      L1  H    10    33       P1  7948  0.93

> <Gold.Chemscore.Hbond.Weighted>
-6.1074

> <Gold.Chemscore.Metal.Weighted>
-0.0000

> <Gold.Chemscore.Lipo.Weighted>
-9.1216

> <Gold.Chemscore.Internal_Hbond.Weighted>
0.0000

> <Gold.Chemscore.DEClash.Weighted>
1.1807

> <Gold.Chemscore.DEInternal.Weighted>
2.9291

> <Gold.Chemscore.Rot.Weighted>
4.2569

> <Gold.Chemscore.Internal.Correction.Weighted>
   9.000000E+99

> <Gold.Protein.RotatedTorsions>
[ 6907 6896 6895 6894 ] final   24.50 input  -60.11 | X-H torsion
[ 7974 7965 7964 7962 ] final  -28.55 input  175.53 | X-H torsion
[ 8008 7997 7996 7995 ] final  -94.53 input   59.86 | X-H torsion
[ 10167 10162 10161 10158 ] final  118.49 input  -65.29 | X-H torsion
[ 10718 10713 10712 10709 ] final   55.25 input   66.30 | X-H torsion
[ 10763 10752 10751 10750 ] final  -44.72 input  -60.55 | X-H torsion
[ 11005 11000 10999 10996 ] final    7.99 input  -57.11 | X-H torsion

> <Gold.Protein.ActiveResidues>
 VAL166  LYS551  ARG553  GLY616  TRP617  ASP618  TYR619  PRO620  LYS621  CYS622 
 ASP623  PHE694  ASN695  SER759  ASP760  ASP761  ALA762  ILE779  LEU786  VAL792 
 PHE793  MET794  SER795  GLU796  ALA797  LYS798  CYS799  TRP800  GLU811  SER814 

> <Gold.Protein.RotatedAtoms>
  151.9584  135.0135  160.0545 H   0  0  0  0  0  0  0  0  0  0  0  0  # atno 6907 bound_to 6896
  152.1890  133.4755  159.5006 H   0  0  0  0  0  0  0  0  0  0  0  0  # atno 6908 bound_to 6896
  150.6931  134.1653  159.4235 H   0  0  0  0  0  0  0  0  0  0  0  0  # atno 6909 bound_to 6896
  146.1280  140.5298  142.8706 H   0  0  0  0  0  0  0  0  0  0  0  0  # atno 7974 bound_to 7965
  154.7496  140.0488  157.0882 H   0  0  0  0  0  0  0  0  0  0  0  0  # atno 8008 bound_to 7997
  155.0074  140.3132  155.4824 H   0  0  0  0  0  0  0  0  0  0  0  0  # atno 8009 bound_to 7997
  156.2882  140.2190  156.5186 H   0  0  0  0  0  0  0  0  0  0  0  0  # atno 8010 bound_to 7997
  139.6108  144.7081  151.2848 H   0  0  0  0  0  0  0  0  0  0  0  0  # atno 10167 bound_to 10162
  157.5328  130.8642  149.8712 H   0  0  0  0  0  0  0  0  0  0  0  0  # atno 10718 bound_to 10713
  154.0167  135.6674  153.4769 H   0  0  0  0  0  0  0  0  0  0  0  0  # atno 10763 bound_to 10752
  153.0598  135.5035  154.8062 H   0  0  0  0  0  0  0  0  0  0  0  0  # atno 10764 bound_to 10752
  154.6962  135.3070  154.9371 H   0  0  0  0  0  0  0  0  0  0  0  0  # atno 10765 bound_to 10752
  140.5420  134.0365  155.7907 H   0  0  0  0  0  0  0  0  0  0  0  0  # atno 11005 bound_to 11000
  144.7661  140.5534  143.6702 LP  0  0  0  0  0  0  0  0  0  0  0  0  # atno 17320 bound_to 7965
  145.5323  139.1475  143.3492 LP  0  0  0  0  0  0  0  0  0  0  0  0  # atno 17321 bound_to 7965
  140.7318  143.6842  150.7975 LP  0  0  0  0  0  0  0  0  0  0  0  0  # atno 17342 bound_to 10162
  140.0437  143.5320  152.2706 LP  0  0  0  0  0  0  0  0  0  0  0  0  # atno 17343 bound_to 10162
  156.0436  130.3733  150.1374 LP  0  0  0  0  0  0  0  0  0  0  0  0  # atno 17370 bound_to 10713
  156.9558  130.9789  151.3489 LP  0  0  0  0  0  0  0  0  0  0  0  0  # atno 17371 bound_to 10713
  141.1222  133.9443  157.2708 LP  0  0  0  0  0  0  0  0  0  0  0  0  # atno 17394 bound_to 11000
  139.9499  135.0177  156.8963 LP  0  0  0  0  0  0  0  0  0  0  0  0  # atno 17395 bound_to 11000

$$$$
