AV-unprocessed.smi:2417|AV-procd|sdf|9549|dock5
  -GOLD-   2272013183D 1   1.00000     0.00000
 Structure written by MMmdl.
 38 39  0  0  0  0  0  0  0  0  1 V2000
  152.5450  143.0516  160.1094 C   0  0  0  0  0  0  0  0  0  0  0  0
  152.3555  141.7574  159.3380 C   0  0  0  0  0  0  0  0  0  0  0  0
  151.2051  141.6889  158.5466 N   0  0  0  0  0  0  0  0  0  0  0  0
  150.9599  140.6234  157.8565 C   0  0  0  0  0  0  0  0  0  0  0  0
  151.8274  139.5193  157.8712 N   0  0  0  0  0  0  0  0  0  0  0  0
  151.4323  138.3684  157.0428 C   0  0  0  0  0  0  0  0  0  0  0  0
  152.3988  138.1467  155.8573 C   0  0  1  0  0  0  0  0  0  0  0  0
  152.4675  136.7742  155.5273 O   0  0  0  0  0  0  0  0  0  0  0  0
  151.9842  138.9117  154.5897 C   0  0  0  0  0  0  0  0  0  0  0  0
  150.6465  138.5777  154.2379 O   0  0  0  0  0  0  0  0  0  0  0  0
  149.6662  139.5292  154.4187 C   0  0  0  0  0  0  0  0  0  0  0  0
  148.3656  139.1974  153.9858 C   0  0  0  0  0  0  0  0  0  0  0  0
  147.3020  140.1082  154.1342 C   0  0  0  0  0  0  0  0  0  0  0  0
  147.5309  141.3673  154.7190 C   0  0  0  0  0  0  0  0  0  0  0  0
  146.5100  142.2449  154.8631 F   0  0  0  0  0  0  0  0  0  0  0  0
  148.8238  141.7125  155.1539 C   0  0  0  0  0  0  0  0  0  0  0  0
  149.8875  140.8010  155.0060 C   0  0  0  0  0  0  0  0  0  0  0  0
  152.9659  139.4990  158.6228 C   0  0  0  0  0  0  0  0  0  0  0  0
  153.7105  138.5168  158.6416 O   0  0  0  0  0  0  0  0  0  0  0  0
  153.2328  140.7187  159.4019 C   0  0  0  0  0  0  0  0  0  0  0  0
  154.4987  140.7343  160.2496 C   0  0  0  0  0  0  0  0  0  0  0  0
  153.4763  143.5382  159.8185 H   0  0  0  0  0  0  0  0  0  0  0  0
  152.5734  142.8554  161.1815 H   0  0  0  0  0  0  0  0  0  0  0  0
  151.7295  143.7506  159.9200 H   0  0  0  0  0  0  0  0  0  0  0  0
  150.0728  140.5161  157.2296 H   0  0  0  0  0  0  0  0  0  0  0  0
  151.3306  137.4535  157.6308 H   0  0  0  0  0  0  0  0  0  0  0  0
  150.4265  138.5510  156.6596 H   0  0  0  0  0  0  0  0  0  0  0  0
  153.4065  138.4677  156.1238 H   0  0  0  0  0  0  0  0  0  0  0  0
  151.5863  136.4412  155.4501 H   0  0  0  0  0  0  0  0  0  0  0  0
  152.0409  139.9816  154.7967 H   0  0  0  0  0  0  0  0  0  0  0  0
  152.6730  138.6959  153.7709 H   0  0  0  0  0  0  0  0  0  0  0  0
  148.1808  138.2332  153.5355 H   0  0  0  0  0  0  0  0  0  0  0  0
  146.3110  139.8398  153.7994 H   0  0  0  0  0  0  0  0  0  0  0  0
  149.0010  142.6788  155.6026 H   0  0  0  0  0  0  0  0  0  0  0  0
  150.8644  141.1024  155.3517 H   0  0  0  0  0  0  0  0  0  0  0  0
  154.4659  139.9315  160.9870 H   0  0  0  0  0  0  0  0  0  0  0  0
  154.6434  141.6689  160.7891 H   0  0  0  0  0  0  0  0  0  0  0  0
  155.3756  140.5799  159.6200 H   0  0  0  0  0  0  0  0  0  0  0  0
  1  2  1  0  0  0  0
  1 22  1  0  0  0  0
  1 23  1  0  0  0  0
  1 24  1  0  0  0  0
  2 20  2  0  0  0  0
  2  3  1  0  0  0  0
  3  4  2  0  0  0  0
  4  5  1  0  0  0  0
  4 25  1  0  0  0  0
  5  6  1  0  0  0  0
  5 18  1  0  0  0  0
  6  7  1  0  0  0  0
  6 26  1  0  0  0  0
  6 27  1  0  0  0  0
  7  8  1  0  0  0  0
  7  9  1  0  0  0  0
  7 28  1  0  0  0  0
  8 29  1  0  0  0  0
  9 10  1  0  0  0  0
  9 30  1  0  0  0  0
  9 31  1  0  0  0  0
 10 11  1  0  0  0  0
 11 17  1  0  0  0  0
 11 12  2  0  0  0  0
 12 13  1  0  0  0  0
 12 32  1  0  0  0  0
 13 14  2  0  0  0  0
 13 33  1  0  0  0  0
 14 15  1  0  0  0  0
 14 16  1  0  0  0  0
 16 17  2  0  0  0  0
 16 34  1  0  0  0  0
 17 35  1  0  0  0  0
 18 19  2  0  0  0  0
 18 20  1  0  0  0  0
 20 21  1  0  0  0  0
 21 36  1  0  0  0  0
 21 37  1  0  0  0  0
 21 38  1  0  0  0  0
M  END
> <s_m_source_file>
AV-unprocessed.smi

> <i_m_source_file_index>
2417

> <i_lp_mmshare_version>
43012

> <i_f3d_flags>
0

> <s_epik_input>
W0NIM11jMW5bY0hdbihjKD1PKWMxW0NIM10pW0NIMl1bQ0BIXShbT0hdKVtDSDJdT2MyW2NIXVtjSF1jKEYpW2NIXVtjSF0y

> <s_epik_cmdline>
J2VwaWtfcHl0aG9uJywgJy1waCcsICc3LjAnLCAnLXRuJywgJzgnLCAnLW1hJywgJzIwMCcsICctbWV0YWxfYmluZGluZycsICctaW1hZScsICc8aW5maWxlLm1hZT4nLCAnLW9tYWUnLCAnPG91dGZpbGUubWFlPic=

> <r_lp_tautomer_probability>
1

> <r_epik_Ionization_Penalty>
3.65384e-05

> <r_epik_Ionization_Penalty_Charging>
8.23007e-08

> <r_epik_Ionization_Penalty_Neutral>
3.64561e-05

> <r_epik_State_Penalty>
-0

> <r_epik_Charging_Adjusted_Penalty>
8.23007e-08

> <i_epik_Tot_Q>
0

> <i_epik_Tot_abs_Q>
0

> <r_epik_Metal_State_Penalty>
-0

> <b_epik_Metal_Only>
0

> <s_lp_Force_Field>
OPLS_2005

> <r_lp_Energy>
22.9041

> <b_lp_Chiralities_Consistent>
1

> <s_lp_Variant>
AV-unprocessed.smi:2417-2

> <Gold.Version>
5.8.1

> <Gold.Id.Protein>
6NUR|6NUR_protein|mol2

> <Gold.PLP.Fitness>
42.7382

> <Gold.PLP.PLP>
-41.3072

> <Gold.PLP.part.hbond>
-1.0000

> <Gold.PLP.part.metal>
0.0000

> <Gold.PLP.part.buried>
-1.7377

> <Gold.PLP.part.nonpolar>
-38.4588

> <Gold.PLP.part.repulsive>
0.2849

> <Gold.PLP.ligand.clash>
0.0000

> <Gold.PLP.ligand.torsion>
0.8112

> <Gold.PLP.Chemscore.Hbond>
1.0000

> <Gold.PLP.Chemscore.CHOScore>
0.0000

> <Gold.PLP.Chemscore.Metal>
0.0000

> <Gold.Chemscore.Hbonds>
donor molecule, donor type, donor heavy atom, donor atom, acceptor molecule, acceptor atom, score
      P1  H 10752 10763       L1     8  0.47

> <Gold.PLP.Chemscore.Internal.Correction>
0.0533

> <Gold.Rescore>
     Score         DG    S(hbond)    S(metal)    S(lipo)     H(rot)  DE(clash)    DE(int)     intcor
     11.80     -12.91       0.94        0.00      92.22       2.54       0.09       1.02       ----

> <Gold.Chemscore.Fitness>
11.8044

> <Gold.Chemscore.DG>
-12.9118

> <Gold.Chemscore.ZeroCoef>
-5.4800

> <Gold.Chemscore.Hbond>
0.9380

> <Gold.Chemscore.Metal>
0.0000

> <Gold.Chemscore.Lipo>
92.2195

> <Gold.Chemscore.Internal_Hbond>
0.0000

> <Gold.Chemscore.DEClash>
0.0875

> <Gold.Chemscore.DEInternal>
1.0199

> <Gold.Chemscore.Rot>
2.5355

> <Gold.Chemscore.Internal.Correction>
   9.000000E+99

> <Gold.Chemscore.Hbonds>
donor molecule, donor type, donor heavy atom, donor atom, acceptor molecule, acceptor atom, score
      P1  H 10752 10763       L1     8  0.03

> <Gold.Chemscore.Hbond.Weighted>
-3.1329

> <Gold.Chemscore.Metal.Weighted>
-0.0000

> <Gold.Chemscore.Lipo.Weighted>
-10.7897

> <Gold.Chemscore.Internal_Hbond.Weighted>
0.0000

> <Gold.Chemscore.DEClash.Weighted>
0.0875

> <Gold.Chemscore.DEInternal.Weighted>
1.0199

> <Gold.Chemscore.Rot.Weighted>
6.4908

> <Gold.Chemscore.Internal.Correction.Weighted>
   9.000000E+99

> <Gold.Protein.RotatedTorsions>
[ 6907 6896 6895 6894 ] final  -84.14 input  -60.11 | X-H torsion
[ 7974 7965 7964 7962 ] final  -60.59 input  175.53 | X-H torsion
[ 8008 7997 7996 7995 ] final  162.23 input   59.86 | X-H torsion
[ 10167 10162 10161 10158 ] final   17.25 input  -65.29 | X-H torsion
[ 10718 10713 10712 10709 ] final   99.49 input   66.30 | X-H torsion
[ 10763 10752 10751 10750 ] final   74.19 input  -60.55 | X-H torsion
[ 11005 11000 10999 10996 ] final  -89.22 input  -57.11 | X-H torsion

> <Gold.Protein.ActiveResidues>
 VAL166  LYS551  ARG553  GLY616  TRP617  ASP618  TYR619  PRO620  LYS621  CYS622 
 ASP623  PHE694  ASN695  SER759  ASP760  ASP761  ALA762  ILE779  LEU786  VAL792 
 PHE793  MET794  SER795  GLU796  ALA797  LYS798  CYS799  TRP800  GLU811  SER814 

> <Gold.Protein.RotatedAtoms>
  150.6879  134.3404  159.4865 H   0  0  0  0  0  0  0  0  0  0  0  0  # atno 6907 bound_to 6896
  152.1258  134.9169  160.0570 H   0  0  0  0  0  0  0  0  0  0  0  0  # atno 6908 bound_to 6896
  152.0358  133.3922  159.4353 H   0  0  0  0  0  0  0  0  0  0  0  0  # atno 6909 bound_to 6896
  145.8137  140.8583  143.0168 H   0  0  0  0  0  0  0  0  0  0  0  0  # atno 7974 bound_to 7965
  156.2046  140.1756  156.7827 H   0  0  0  0  0  0  0  0  0  0  0  0  # atno 8008 bound_to 7997
  154.5638  140.0695  156.8890 H   0  0  0  0  0  0  0  0  0  0  0  0  # atno 8009 bound_to 7997
  155.2799  140.3348  155.4261 H   0  0  0  0  0  0  0  0  0  0  0  0  # atno 8010 bound_to 7997
  140.5739  143.9108  150.6735 H   0  0  0  0  0  0  0  0  0  0  0  0  # atno 10167 bound_to 10162
  157.6875  131.0671  150.4957 H   0  0  0  0  0  0  0  0  0  0  0  0  # atno 10718 bound_to 10713
  153.0570  135.5035  154.8005 H   0  0  0  0  0  0  0  0  0  0  0  0  # atno 10763 bound_to 10752
  154.6823  135.2970  154.9598 H   0  0  0  0  0  0  0  0  0  0  0  0  # atno 10764 bound_to 10752
  154.0380  135.6720  153.4840 H   0  0  0  0  0  0  0  0  0  0  0  0  # atno 10765 bound_to 10752
  141.1588  133.7617  156.9564 H   0  0  0  0  0  0  0  0  0  0  0  0  # atno 11005 bound_to 11000
  144.6754  140.0433  143.7480 LP  0  0  0  0  0  0  0  0  0  0  0  0  # atno 17320 bound_to 7965
  145.9749  139.2897  143.1076 LP  0  0  0  0  0  0  0  0  0  0  0  0  # atno 17321 bound_to 7965
  140.2591  143.3537  152.1339 LP  0  0  0  0  0  0  0  0  0  0  0  0  # atno 17342 bound_to 10162
  139.5132  144.6929  151.5710 LP  0  0  0  0  0  0  0  0  0  0  0  0  # atno 17343 bound_to 10162
  156.5281  130.4178  149.6216 LP  0  0  0  0  0  0  0  0  0  0  0  0  # atno 17370 bound_to 10713
  156.3094  130.7220  151.2110 LP  0  0  0  0  0  0  0  0  0  0  0  0  # atno 17371 bound_to 10713
  140.1222  134.9409  157.2220 LP  0  0  0  0  0  0  0  0  0  0  0  0  # atno 17394 bound_to 11000
  140.3057  134.3081  155.7279 LP  0  0  0  0  0  0  0  0  0  0  0  0  # atno 17395 bound_to 11000

$$$$
