AV-unprocessed.smi:1474|AV-procd|sdf|5975|dock6
  -GOLD-   22720 6 63D 1   1.00000     0.00000
 Structure written by MMmdl.
 43 44  0  0  0  0  0  0  0  0  1 V2000
  152.4811  140.0097  158.2961 C   0  0  0  0  0  0  0  0  0  0  0  0
  152.5440  139.9247  156.8833 O   0  0  0  0  0  0  0  0  0  0  0  0
  151.7142  138.8989  156.3640 C   0  0  0  0  0  0  0  0  0  0  0  0
  151.7147  138.9753  154.8344 C   0  0  0  0  0  0  0  0  0  0  0  0
  150.8328  140.0175  154.4285 O   0  0  0  0  0  0  0  0  0  0  0  0
  149.4735  139.8173  154.5529 C   0  0  0  0  0  0  0  0  0  0  0  0
  148.6010  140.8300  154.1068 C   0  0  0  0  0  0  0  0  0  0  0  0
  147.2128  140.6348  154.2345 C   0  0  0  0  0  0  0  0  0  0  0  0
  146.7404  139.4349  154.8091 C   0  0  0  0  0  0  0  0  0  0  0  0
  145.2541  139.1508  154.9737 C   0  0  0  0  0  0  0  0  0  0  0  0
  144.6753  138.3449  153.9032 N   0  0  0  0  0  0  0  0  0  0  0  0
  144.8801  137.0288  153.7363 C   0  0  0  0  0  0  0  0  0  0  0  0
  145.5920  136.3627  154.4885 O   0  0  0  0  0  0  0  0  0  0  0  0
  144.1520  136.3692  152.5496 C   0  0  1  0  0  0  0  0  0  0  0  0
  145.1254  135.8941  151.4548 C   0  0  0  0  0  0  0  0  0  0  0  0
  145.9647  134.6729  151.8762 C   0  0  0  0  0  0  0  0  0  0  0  0
  145.1603  133.5961  152.6202 C   0  0  0  0  0  0  0  0  0  0  0  0
  145.6328  132.4685  152.7447 O   0  0  0  0  0  0  0  0  0  0  0  0
  143.9718  133.9224  153.1576 N   0  0  0  0  0  0  0  0  0  0  0  0
  143.2548  135.1872  152.9814 C   0  0  0  0  0  0  0  0  0  0  0  0
  147.6940  138.4797  155.2185 C   0  0  0  0  0  0  0  0  0  0  0  0
  149.0267  138.6588  155.0986 N   0  0  0  0  0  0  0  0  0  0  0  0
  153.1313  140.8123  158.6444 H   0  0  0  0  0  0  0  0  0  0  0  0
  152.8125  139.0813  158.7630 H   0  0  0  0  0  0  0  0  0  0  0  0
  151.4670  140.2286  158.6328 H   0  0  0  0  0  0  0  0  0  0  0  0
  152.1025  137.9296  156.6801 H   0  0  0  0  0  0  0  0  0  0  0  0
  150.6967  138.9855  156.7486 H   0  0  0  0  0  0  0  0  0  0  0  0
  152.7269  139.1463  154.4640 H   0  0  0  0  0  0  0  0  0  0  0  0
  151.3652  138.0236  154.4311 H   0  0  0  0  0  0  0  0  0  0  0  0
  148.9905  141.7393  153.6731 H   0  0  0  0  0  0  0  0  0  0  0  0
  146.5280  141.3974  153.8943 H   0  0  0  0  0  0  0  0  0  0  0  0
  145.1114  138.6185  155.9141 H   0  0  0  0  0  0  0  0  0  0  0  0
  144.7041  140.0891  155.0651 H   0  0  0  0  0  0  0  0  0  0  0  0
  144.0766  138.8213  153.2444 H   0  0  0  0  0  0  0  0  0  0  0  0
  143.5007  137.1291  152.1144 H   0  0  0  0  0  0  0  0  0  0  0  0
  144.5548  135.6400  150.5605 H   0  0  0  0  0  0  0  0  0  0  0  0
  145.7882  136.7089  151.1604 H   0  0  0  0  0  0  0  0  0  0  0  0
  146.4383  134.2293  150.9998 H   0  0  0  0  0  0  0  0  0  0  0  0
  146.7748  134.9916  152.5328 H   0  0  0  0  0  0  0  0  0  0  0  0
  143.4898  133.2042  153.6789 H   0  0  0  0  0  0  0  0  0  0  0  0
  142.7254  135.4211  153.9062 H   0  0  0  0  0  0  0  0  0  0  0  0
  142.4848  135.0246  152.2264 H   0  0  0  0  0  0  0  0  0  0  0  0
  147.3806  137.5438  155.6574 H   0  0  0  0  0  0  0  0  0  0  0  0
  1  2  1  0  0  0  0
  1 23  1  0  0  0  0
  1 24  1  0  0  0  0
  1 25  1  0  0  0  0
  2  3  1  0  0  0  0
  3  4  1  0  0  0  0
  3 26  1  0  0  0  0
  3 27  1  0  0  0  0
  4  5  1  0  0  0  0
  4 28  1  0  0  0  0
  4 29  1  0  0  0  0
  5  6  1  0  0  0  0
  6 22  1  0  0  0  0
  6  7  2  0  0  0  0
  7  8  1  0  0  0  0
  7 30  1  0  0  0  0
  8  9  2  0  0  0  0
  8 31  1  0  0  0  0
  9 10  1  0  0  0  0
  9 21  1  0  0  0  0
 10 11  1  0  0  0  0
 10 32  1  0  0  0  0
 10 33  1  0  0  0  0
 11 12  1  0  0  0  0
 11 34  1  0  0  0  0
 12 13  2  0  0  0  0
 12 14  1  0  0  0  0
 14 20  1  0  0  0  0
 14 15  1  0  0  0  0
 14 35  1  0  0  0  0
 15 16  1  0  0  0  0
 15 36  1  0  0  0  0
 15 37  1  0  0  0  0
 16 17  1  0  0  0  0
 16 38  1  0  0  0  0
 16 39  1  0  0  0  0
 17 18  2  0  0  0  0
 17 19  1  0  0  0  0
 19 20  1  0  0  0  0
 19 40  1  0  0  0  0
 20 41  1  0  0  0  0
 20 42  1  0  0  0  0
 21 22  2  0  0  0  0
 21 43  1  0  0  0  0
M  END
> <s_m_source_file>
AV-unprocessed.smi

> <i_m_source_file_index>
1474

> <i_lp_mmshare_version>
43012

> <i_f3d_flags>
0

> <s_epik_input>
W0NIM11PW0NIMl1bQ0gyXU9jMVtjSF1bY0hdYyhbY0hdbjEpW0NIMl1bTkhdQyg9TylbQ0BASF0yW0NIMl1bQ0gyXUMoPU8pW05IXVtDSDJdMg==

> <s_epik_cmdline>
J2VwaWtfcHl0aG9uJywgJy1waCcsICc3LjAnLCAnLXRuJywgJzgnLCAnLW1hJywgJzIwMCcsICctbWV0YWxfYmluZGluZycsICctaW1hZScsICc8aW5maWxlLm1hZT4nLCAnLW9tYWUnLCAnPG91dGZpbGUubWFlPic=

> <r_lp_tautomer_probability>
1

> <r_epik_Ionization_Penalty>
6.19599e-05

> <r_epik_Ionization_Penalty_Charging>
0

> <r_epik_Ionization_Penalty_Neutral>
6.19599e-05

> <r_epik_State_Penalty>
-0

> <r_epik_Charging_Adjusted_Penalty>
0

> <i_epik_Tot_Q>
0

> <i_epik_Tot_abs_Q>
0

> <r_epik_Metal_State_Penalty>
-0

> <b_epik_Metal_Only>
0

> <s_lp_Force_Field>
OPLS_2005

> <r_lp_Energy>
8.64292

> <b_lp_Chiralities_Consistent>
1

> <s_lp_Variant>
AV-unprocessed.smi:1474-2

> <Gold.Version>
5.8.1

> <Gold.Id.Protein>
6NUR|6NUR_protein|mol2

> <Gold.PLP.Fitness>
39.7261

> <Gold.PLP.PLP>
-29.0173

> <Gold.PLP.part.hbond>
-4.0000

> <Gold.PLP.part.metal>
0.0000

> <Gold.PLP.part.buried>
-4.8103

> <Gold.PLP.part.nonpolar>
-21.0154

> <Gold.PLP.part.repulsive>
0.3688

> <Gold.PLP.ligand.clash>
0.0000

> <Gold.PLP.ligand.torsion>
0.6231

> <Gold.PLP.Chemscore.Hbond>
3.9440

> <Gold.PLP.Chemscore.CHOScore>
0.0000

> <Gold.PLP.Chemscore.Metal>
0.0000

> <Gold.Chemscore.Hbonds>
donor molecule, donor type, donor heavy atom, donor atom, acceptor molecule, acceptor atom, score
      L1  H    11    34       P1 10175  0.91
      L1  H    19    40       P1 10957  1.00
      P1  H  7989  7998       L1     5  0.91
      P1  H  7997  8010       L1     2  1.00

> <Gold.PLP.Chemscore.Internal.Correction>
0.1229

> <Gold.Rescore>
     Score         DG    S(hbond)    S(metal)    S(lipo)     H(rot)  DE(clash)    DE(int)     intcor
     16.98     -17.71       3.75        0.00      52.62       2.52       0.00       0.72       ----

> <Gold.Chemscore.Fitness>
16.9823

> <Gold.Chemscore.DG>
-17.7071

> <Gold.Chemscore.ZeroCoef>
-5.4800

> <Gold.Chemscore.Hbond>
3.7492

> <Gold.Chemscore.Metal>
0.0000

> <Gold.Chemscore.Lipo>
52.6171

> <Gold.Chemscore.Internal_Hbond>
0.0000

> <Gold.Chemscore.DEClash>
0.0048

> <Gold.Chemscore.DEInternal>
0.7200

> <Gold.Chemscore.Rot>
2.5201

> <Gold.Chemscore.Internal.Correction>
   9.000000E+99

> <Gold.Chemscore.Hbonds>
donor molecule, donor type, donor heavy atom, donor atom, acceptor molecule, acceptor atom, score
      L1  H    11    34       P1 10175  0.90
      L1  H    19    40       P1 10957  0.95
      P1  H  7989  7998       L1     5  0.44
      P1  H  7997  8010       L1     2  0.64

> <Gold.Chemscore.Hbond.Weighted>
-12.5223

> <Gold.Chemscore.Metal.Weighted>
-0.0000

> <Gold.Chemscore.Lipo.Weighted>
-6.1562

> <Gold.Chemscore.Internal_Hbond.Weighted>
0.0000

> <Gold.Chemscore.DEClash.Weighted>
0.0048

> <Gold.Chemscore.DEInternal.Weighted>
0.7200

> <Gold.Chemscore.Rot.Weighted>
6.4514

> <Gold.Chemscore.Internal.Correction.Weighted>
   9.000000E+99

> <Gold.Protein.RotatedTorsions>
[ 6907 6896 6895 6894 ] final  -88.66 input  -60.11 | X-H torsion
[ 7974 7965 7964 7962 ] final   13.65 input  175.53 | X-H torsion
[ 8008 7997 7996 7995 ] final   76.37 input   59.86 | X-H torsion
[ 10167 10162 10161 10158 ] final  169.13 input  -65.29 | X-H torsion
[ 10718 10713 10712 10709 ] final -134.72 input   66.30 | X-H torsion
[ 10763 10752 10751 10750 ] final   -8.87 input  -60.55 | X-H torsion
[ 11005 11000 10999 10996 ] final   55.16 input  -57.11 | X-H torsion

> <Gold.Protein.ActiveResidues>
 VAL166  LYS551  ARG553  GLY616  TRP617  ASP618  TYR619  PRO620  LYS621  CYS622 
 ASP623  PHE694  ASN695  SER759  ASP760  ASP761  ALA762  ILE779  LEU786  VAL792 
 PHE793  MET794  SER795  GLU796  ALA797  LYS798  CYS799  TRP800  GLU811  SER814 

> <Gold.Protein.RotatedAtoms>
  150.6869  134.2707  159.4586 H   0  0  0  0  0  0  0  0  0  0  0  0  # atno 6907 bound_to 6896
  152.0629  134.9580  160.0584 H   0  0  0  0  0  0  0  0  0  0  0  0  # atno 6908 bound_to 6896
  152.1000  133.4210  159.4619 H   0  0  0  0  0  0  0  0  0  0  0  0  # atno 6909 bound_to 6896
  146.2324  139.9156  142.8517 H   0  0  0  0  0  0  0  0  0  0  0  0  # atno 7974 bound_to 7965
  155.8264  140.3468  155.5545 H   0  0  0  0  0  0  0  0  0  0  0  0  # atno 8008 bound_to 7997
  155.8288  140.0924  157.1825 H   0  0  0  0  0  0  0  0  0  0  0  0  # atno 8009 bound_to 7997
  154.4004  140.1416  156.3576 H   0  0  0  0  0  0  0  0  0  0  0  0  # atno 8010 bound_to 7997
  139.4984  144.3739  151.9695 H   0  0  0  0  0  0  0  0  0  0  0  0  # atno 10167 bound_to 10162
  156.2585  130.7195  151.1121 H   0  0  0  0  0  0  0  0  0  0  0  0  # atno 10718 bound_to 10713
  153.4466  135.7014  153.6135 H   0  0  0  0  0  0  0  0  0  0  0  0  # atno 10763 bound_to 10752
  153.4487  135.3763  155.2271 H   0  0  0  0  0  0  0  0  0  0  0  0  # atno 10764 bound_to 10752
  154.8728  135.3991  154.3873 H   0  0  0  0  0  0  0  0  0  0  0  0  # atno 10765 bound_to 10752
  140.0629  134.5577  155.9132 H   0  0  0  0  0  0  0  0  0  0  0  0  # atno 11005 bound_to 11000
  145.2186  140.9926  143.4058 LP  0  0  0  0  0  0  0  0  0  0  0  0  # atno 17320 bound_to 7965
  144.9629  139.3960  143.6347 LP  0  0  0  0  0  0  0  0  0  0  0  0  # atno 17321 bound_to 7965
  140.3176  144.3466  150.6018 LP  0  0  0  0  0  0  0  0  0  0  0  0  # atno 17342 bound_to 10162
  140.5749  143.2177  151.7533 LP  0  0  0  0  0  0  0  0  0  0  0  0  # atno 17343 bound_to 10162
  157.7241  131.0661  150.6007 LP  0  0  0  0  0  0  0  0  0  0  0  0  # atno 17370 bound_to 10713
  156.6093  130.4375  149.5865 LP  0  0  0  0  0  0  0  0  0  0  0  0  # atno 17371 bound_to 10713
  141.1981  133.6599  156.5773 LP  0  0  0  0  0  0  0  0  0  0  0  0  # atno 17394 bound_to 11000
  140.3743  134.7579  157.4619 LP  0  0  0  0  0  0  0  0  0  0  0  0  # atno 17395 bound_to 11000

$$$$
