AV-unprocessed.smi:249|AV-procd|sdf|1916|dock5
  -GOLD-   2262021 13D 1   1.00000     0.00000
 Structure written by MMmdl.
 64 67  0  0  0  0  0  0  0  0  2 V2000
  146.4141  130.1253  152.6099 C   0  0  0  0  0  0  0  0  0  0  0  0
  147.1946  130.9027  153.6810 C   0  0  0  0  0  0  0  0  0  0  0  0
  148.4538  131.5140  153.1620 N   0  3  2  0  0  0  0  0  0  0  0  0
  149.6436  131.2865  154.0306 C   0  0  0  0  0  0  0  0  0  0  0  0
  149.5963  132.1425  155.3108 C   0  0  0  0  0  0  0  0  0  0  0  0
  149.4506  133.6373  154.9644 C   0  0  2  0  0  0  0  0  0  0  0  0
  149.4080  134.4900  156.1579 N   0  0  0  0  0  0  0  0  0  0  0  0
  149.5875  133.8981  157.4835 C   0  0  0  0  0  0  0  0  0  0  0  0
  149.8895  135.7481  155.9848 C   0  0  0  0  0  0  0  0  0  0  0  0
  149.9648  136.2743  154.7330 N   0  0  0  0  0  0  0  0  0  0  0  0
  150.4160  137.5187  154.5502 C   0  0  0  0  0  0  0  0  0  0  0  0
  150.8323  138.3973  155.4637 N   0  0  0  0  0  0  0  0  0  0  0  0
  150.7635  137.8750  156.7212 C   0  0  0  0  0  0  0  0  0  0  0  0
  150.3153  136.5690  157.0671 C   0  0  0  0  0  0  0  0  0  0  0  0
  150.4086  136.3852  158.4420 N   0  0  0  0  0  0  0  0  0  0  0  0
  150.8757  137.5206  158.8844 C   0  0  0  0  0  0  0  0  0  0  0  0
  151.0916  138.4812  157.9219 N   0  0  0  0  0  0  0  0  0  0  0  0
  151.6052  139.8222  158.1398 C   0  0  0  0  0  0  0  0  0  0  0  0
  150.5224  140.9159  158.3613 C   0  0  2  0  0  0  0  0  0  0  0  0
  149.7175  141.0998  157.0515 C   0  0  0  0  0  0  0  0  0  0  0  0
  148.8431  142.2066  157.1337 O   0  0  0  0  0  0  0  0  0  0  0  0
  151.1003  142.2741  158.8636 C   0  0  2  0  0  0  0  0  0  0  0  0
  151.6354  143.2132  157.7910 C   0  0  0  0  0  0  0  0  0  0  0  0
  152.5427  144.1560  158.5742 C   0  0  0  0  0  0  0  0  0  0  0  0
  153.0122  143.4111  159.6890 O   0  0  0  0  0  0  0  0  0  0  0  0
  152.3592  142.1488  159.7328 C   0  0  0  0  0  0  0  0  0  0  0  0
  148.2440  133.8581  154.0314 C   0  0  0  0  0  0  0  0  0  0  0  0
  148.3516  132.9572  152.7834 C   0  0  2  0  0  0  0  0  0  0  0  0
  147.2501  133.2480  151.7484 C   0  0  0  0  0  0  0  0  0  0  0  0
  145.4347  129.8338  152.9902 H   0  0  0  0  0  0  0  0  0  0  0  0
  146.9224  129.2087  152.3126 H   0  0  0  0  0  0  0  0  0  0  0  0
  146.2525  130.7316  151.7181 H   0  0  0  0  0  0  0  0  0  0  0  0
  146.5268  131.6840  154.0381 H   0  0  0  0  0  0  0  0  0  0  0  0
  147.3957  130.2603  154.5379 H   0  0  0  0  0  0  0  0  0  0  0  0
  149.7598  130.2333  154.2801 H   0  0  0  0  0  0  0  0  0  0  0  0
  150.5370  131.5466  153.4609 H   0  0  0  0  0  0  0  0  0  0  0  0
  148.7753  131.8127  155.9474 H   0  0  0  0  0  0  0  0  0  0  0  0
  150.5089  131.9823  155.8863 H   0  0  0  0  0  0  0  0  0  0  0  0
  150.3324  133.9033  154.3823 H   0  0  0  0  0  0  0  0  0  0  0  0
  149.3665  134.6266  158.2647 H   0  0  0  0  0  0  0  0  0  0  0  0
  150.6113  133.5500  157.6227 H   0  0  0  0  0  0  0  0  0  0  0  0
  148.9162  133.0542  157.6349 H   0  0  0  0  0  0  0  0  0  0  0  0
  150.4439  137.8609  153.5262 H   0  0  0  0  0  0  0  0  0  0  0  0
  151.0628  137.6943  159.9341 H   0  0  0  0  0  0  0  0  0  0  0  0
  152.2838  139.7987  158.9934 H   0  0  0  0  0  0  0  0  0  0  0  0
  152.2199  140.0626  157.2721 H   0  0  0  0  0  0  0  0  0  0  0  0
  149.8191  140.5615  159.1156 H   0  0  0  0  0  0  0  0  0  0  0  0
  150.3714  141.2901  156.2019 H   0  0  0  0  0  0  0  0  0  0  0  0
  149.1438  140.2019  156.8196 H   0  0  0  0  0  0  0  0  0  0  0  0
  149.0984  142.8412  156.4816 H   0  0  0  0  0  0  0  0  0  0  0  0
  150.3376  142.8006  159.4394 H   0  0  0  0  0  0  0  0  0  0  0  0
  152.2199  142.6578  157.0560 H   0  0  0  0  0  0  0  0  0  0  0  0
  150.8619  143.7680  157.2639 H   0  0  0  0  0  0  0  0  0  0  0  0
  153.3686  144.5316  157.9697 H   0  0  0  0  0  0  0  0  0  0  0  0
  151.9764  145.0116  158.9440 H   0  0  0  0  0  0  0  0  0  0  0  0
  152.1343  141.8733  160.7633 H   0  0  0  0  0  0  0  0  0  0  0  0
  153.0377  141.3995  159.3220 H   0  0  0  0  0  0  0  0  0  0  0  0
  147.3059  133.6565  154.5478 H   0  0  0  0  0  0  0  0  0  0  0  0
  148.2088  134.9053  153.7282 H   0  0  0  0  0  0  0  0  0  0  0  0
  149.2918  133.2024  152.2862 H   0  0  0  0  0  0  0  0  0  0  0  0
  147.3570  134.2575  151.3503 H   0  0  0  0  0  0  0  0  0  0  0  0
  146.2506  133.1837  152.1785 H   0  0  0  0  0  0  0  0  0  0  0  0
  147.3053  132.5579  150.9060 H   0  0  0  0  0  0  0  0  0  0  0  0
  148.6455  131.0236  152.3000 H   0  0  0  0  0  0  0  0  0  0  0  0
  1  2  1  0  0  0  0
  1 30  1  0  0  0  0
  1 31  1  0  0  0  0
  1 32  1  0  0  0  0
  2  3  1  0  0  0  0
  2 33  1  0  0  0  0
  2 34  1  0  0  0  0
  3 28  1  0  0  0  0
  3  4  1  0  0  0  0
  3 64  1  0  0  0  0
  4  5  1  0  0  0  0
  4 35  1  0  0  0  0
  4 36  1  0  0  0  0
  5  6  1  0  0  0  0
  5 37  1  0  0  0  0
  5 38  1  0  0  0  0
  6  7  1  0  0  0  0
  6 27  1  0  0  0  0
  6 39  1  0  0  0  0
  7  8  1  0  0  0  0
  7  9  1  0  0  0  0
  8 40  1  0  0  0  0
  8 41  1  0  0  0  0
  8 42  1  0  0  0  0
  9 14  1  0  0  0  0
  9 10  2  0  0  0  0
 10 11  1  0  0  0  0
 11 12  2  0  0  0  0
 11 43  1  0  0  0  0
 12 13  1  0  0  0  0
 13 17  1  0  0  0  0
 13 14  2  0  0  0  0
 14 15  1  0  0  0  0
 15 16  2  0  0  0  0
 16 17  1  0  0  0  0
 16 44  1  0  0  0  0
 17 18  1  0  0  0  0
 18 19  1  0  0  0  0
 18 45  1  0  0  0  0
 18 46  1  0  0  0  0
 19 20  1  0  0  0  0
 19 22  1  0  0  0  0
 19 47  1  0  0  0  0
 20 21  1  0  0  0  0
 20 48  1  0  0  0  0
 20 49  1  0  0  0  0
 21 50  1  0  0  0  0
 22 26  1  0  0  0  0
 22 23  1  0  0  0  0
 22 51  1  0  0  0  0
 23 24  1  0  0  0  0
 23 52  1  0  0  0  0
 23 53  1  0  0  0  0
 24 25  1  0  0  0  0
 24 54  1  0  0  0  0
 24 55  1  0  0  0  0
 25 26  1  0  0  0  0
 26 56  1  0  0  0  0
 26 57  1  0  0  0  0
 27 28  1  0  0  0  0
 27 58  1  0  0  0  0
 27 59  1  0  0  0  0
 28 29  1  0  0  0  0
 28 60  1  0  0  0  0
 29 61  1  0  0  0  0
 29 62  1  0  0  0  0
 29 63  1  0  0  0  0
M  CHG  1   3   1
M  END
> <s_m_source_file>
AV-unprocessed.smi

> <i_m_source_file_index>
249

> <i_lp_mmshare_version>
43012

> <i_f3d_flags>
0

> <s_epik_input>
W0NIM11bQ0gyXU4xW0NIMl1bQ0gyXVtDQEhdKFtDSDJdW0NASF0xW0NIM10pTihbQ0gzXSljKG5bY0hdbjIpYyhjMjMpbltjSF1uM1tDSDJdW0NASF0oW0NIMl1bT0hdKVtDQEBIXTRbQ0gyXVtDSDJdT1tDSDJdNA==

> <s_epik_cmdline>
J2VwaWtfcHl0aG9uJywgJy1waCcsICc3LjAnLCAnLXRuJywgJzgnLCAnLW1hJywgJzIwMCcsICctbWV0YWxfYmluZGluZycsICctaW1hZScsICc8aW5maWxlLm1hZT4nLCAnLW9tYWUnLCAnPG91dGZpbGUubWFlPic=

> <r_lp_tautomer_probability>
1

> <r_epik_Ionization_Penalty>
0.00294688

> <r_epik_Ionization_Penalty_Charging>
0.00169971

> <r_epik_Ionization_Penalty_Neutral>
0.00124717

> <r_epik_State_Penalty>
-0

> <r_epik_Charging_Adjusted_Penalty>
0.00169971

> <i_epik_Tot_Q>
1

> <i_epik_Tot_abs_Q>
1

> <r_epik_Metal_State_Penalty>
-0

> <b_epik_Metal_Only>
0

> <s_lp_Force_Field>
OPLS_2005

> <r_lp_Energy>
55.1027

> <b_lp_Chiralities_Consistent>
1

> <s_lp_Variant>
AV-unprocessed.smi:249-19

> <Gold.Version>
5.8.1

> <Gold.Id.Protein>
6NUR|6NUR_protein|mol2

> <Gold.PLP.Fitness>
50.4351

> <Gold.PLP.PLP>
-43.5209

> <Gold.PLP.part.hbond>
-3.0000

> <Gold.PLP.part.metal>
0.0000

> <Gold.PLP.part.buried>
-6.4733

> <Gold.PLP.part.nonpolar>
-36.9577

> <Gold.PLP.part.repulsive>
1.2675

> <Gold.PLP.ligand.clash>
0.0000

> <Gold.PLP.ligand.torsion>
2.1450

> <Gold.PLP.Chemscore.Hbond>
2.9051

> <Gold.PLP.Chemscore.CHOScore>
0.4192

> <Gold.PLP.Chemscore.Metal>
0.0000

> <Gold.Chemscore.Hbonds>
donor molecule, donor type, donor heavy atom, donor atom, acceptor molecule, acceptor atom, score
      L1  H     3    64       P1 10747  0.99
      L1  H    21    50       P1  8028  0.90
      P1  H  6896  6909       L1    15  0.94
      L1  C    11    43       P1  7948  0.31
      L1  C    11    43       P1  7949  0.08

> <Gold.PLP.Chemscore.Internal.Correction>
1.2316

> <Gold.Rescore>
     Score         DG    S(hbond)    S(metal)    S(lipo)     H(rot)  DE(clash)    DE(int)     intcor
     15.69     -19.22       2.39        0.00     107.13       2.65       0.30       3.23       ----

> <Gold.Chemscore.Fitness>
15.6904

> <Gold.Chemscore.DG>
-19.2195

> <Gold.Chemscore.ZeroCoef>
-5.4800

> <Gold.Chemscore.Hbond>
2.3930

> <Gold.Chemscore.Metal>
0.0000

> <Gold.Chemscore.Lipo>
107.1347

> <Gold.Chemscore.Internal_Hbond>
0.0000

> <Gold.Chemscore.DEClash>
0.3019

> <Gold.Chemscore.DEInternal>
3.2272

> <Gold.Chemscore.Rot>
2.6515

> <Gold.Chemscore.Internal.Correction>
   9.000000E+99

> <Gold.Chemscore.Hbonds>
donor molecule, donor type, donor heavy atom, donor atom, acceptor molecule, acceptor atom, score
      L1  H     3    64       P1 10747  0.80
      L1  H    21    50       P1  8028  0.83
      P1  H  6896  6909       L1    15  0.61

> <Gold.Chemscore.Hbond.Weighted>
-7.9927

> <Gold.Chemscore.Metal.Weighted>
-0.0000

> <Gold.Chemscore.Lipo.Weighted>
-12.5348

> <Gold.Chemscore.Internal_Hbond.Weighted>
0.0000

> <Gold.Chemscore.DEClash.Weighted>
0.3019

> <Gold.Chemscore.DEInternal.Weighted>
3.2272

> <Gold.Chemscore.Rot.Weighted>
6.7880

> <Gold.Chemscore.Internal.Correction.Weighted>
   9.000000E+99

> <Gold.Protein.RotatedTorsions>
[ 6907 6896 6895 6894 ] final   75.17 input  -60.11 | X-H torsion
[ 7974 7965 7964 7962 ] final -143.30 input  175.53 | X-H torsion
[ 8008 7997 7996 7995 ] final  123.46 input   59.86 | X-H torsion
[ 10167 10162 10161 10158 ] final  170.95 input  -65.29 | X-H torsion
[ 10718 10713 10712 10709 ] final -133.27 input   66.30 | X-H torsion
[ 10763 10752 10751 10750 ] final   43.54 input  -60.55 | X-H torsion
[ 11005 11000 10999 10996 ] final  -14.92 input  -57.11 | X-H torsion

> <Gold.Protein.ActiveResidues>
 VAL166  LYS551  ARG553  GLY616  TRP617  ASP618  TYR619  PRO620  LYS621  CYS622 
 ASP623  PHE694  ASN695  SER759  ASP760  ASP761  ALA762  ILE779  LEU786  VAL792 
 PHE793  MET794  SER795  GLU796  ALA797  LYS798  CYS799  TRP800  GLU811  SER814 

> <Gold.Protein.RotatedAtoms>
  152.5013  134.4160  159.9464 H   0  0  0  0  0  0  0  0  0  0  0  0  # atno 6907 bound_to 6896
  151.4131  133.3715  159.2754 H   0  0  0  0  0  0  0  0  0  0  0  0  # atno 6908 bound_to 6896
  150.9277  134.8715  159.7590 H   0  0  0  0  0  0  0  0  0  0  0  0  # atno 6909 bound_to 6896
  144.8380  140.5852  143.5471 H   0  0  0  0  0  0  0  0  0  0  0  0  # atno 7974 bound_to 7965
  156.2766  140.2762  156.1630 H   0  0  0  0  0  0  0  0  0  0  0  0  # atno 8008 bound_to 7997
  155.0734  140.0387  157.2633 H   0  0  0  0  0  0  0  0  0  0  0  0  # atno 8009 bound_to 7997
  154.7022  140.2651  155.6714 H   0  0  0  0  0  0  0  0  0  0  0  0  # atno 8010 bound_to 7997
  139.5033  144.3540  151.9893 H   0  0  0  0  0  0  0  0  0  0  0  0  # atno 10167 bound_to 10162
  156.2432  130.7108  151.0978 H   0  0  0  0  0  0  0  0  0  0  0  0  # atno 10718 bound_to 10713
  152.9858  135.6098  154.3128 H   0  0  0  0  0  0  0  0  0  0  0  0  # atno 10763 bound_to 10752
  154.2843  135.2776  155.2685 H   0  0  0  0  0  0  0  0  0  0  0  0  # atno 10764 bound_to 10752
  154.5010  135.5867  153.6587 H   0  0  0  0  0  0  0  0  0  0  0  0  # atno 10765 bound_to 10752
  140.7914  133.8285  155.9383 H   0  0  0  0  0  0  0  0  0  0  0  0  # atno 11005 bound_to 11000
  145.4754  139.1500  143.3791 LP  0  0  0  0  0  0  0  0  0  0  0  0  # atno 17320 bound_to 7965
  146.2676  140.4889  142.8827 LP  0  0  0  0  0  0  0  0  0  0  0  0  # atno 17321 bound_to 7965
  140.2977  144.3682  150.6069 LP  0  0  0  0  0  0  0  0  0  0  0  0  # atno 17342 bound_to 10162
  140.5898  143.2168  151.7274 LP  0  0  0  0  0  0  0  0  0  0  0  0  # atno 17343 bound_to 10162
  157.7184  131.0696  150.6235 LP  0  0  0  0  0  0  0  0  0  0  0  0  # atno 17370 bound_to 10713
  156.6310  130.4432  149.5787 LP  0  0  0  0  0  0  0  0  0  0  0  0  # atno 17371 bound_to 10713
  140.9386  134.1930  157.4814 LP  0  0  0  0  0  0  0  0  0  0  0  0  # atno 17394 bound_to 11000
  139.8731  134.9862  156.5316 LP  0  0  0  0  0  0  0  0  0  0  0  0  # atno 17395 bound_to 11000

$$$$
