AV-unprocessed.smi:229|AV-procd|sdf|1750|dock1
  -GOLD-   2262020273D 1   1.00000     0.00000
 Structure written by MMmdl.
 58 62  0  0  0  0  0  0  0  0  1 V2000
  147.4127  132.8640  152.4753 C   0  0  0  0  0  0  0  0  0  0  0  0
  148.3416  131.9246  153.2556 C   0  0  0  0  0  0  0  0  0  0  0  0
  149.3834  132.6589  154.1156 C   0  0  1  0  0  0  0  0  0  0  0  0
  148.9768  134.1086  154.4389 C   0  0  0  0  0  0  0  0  0  0  0  0
  149.9248  134.6987  155.3750 N   0  0  0  0  0  0  0  0  0  0  0  0
  149.8573  136.0499  155.4767 C   0  0  0  0  0  0  0  0  0  0  0  0
  148.7173  136.7040  155.1265 N   0  0  0  0  0  0  0  0  0  0  0  0
  148.6474  138.0353  155.2184 C   0  0  0  0  0  0  0  0  0  0  0  0
  149.5816  138.8935  155.6316 N   0  0  0  0  0  0  0  0  0  0  0  0
  150.7238  138.2427  155.9938 C   0  0  0  0  0  0  0  0  0  0  0  0
  150.9452  136.8375  155.9476 C   0  0  0  0  0  0  0  0  0  0  0  0
  152.2237  136.5450  156.4092 N   0  0  0  0  0  0  0  0  0  0  0  0
  152.7272  137.7099  156.7146 C   0  0  0  0  0  0  0  0  0  0  0  0
  151.8925  138.7827  156.5013 N   0  0  0  0  0  0  0  0  0  0  0  0
  152.1881  140.1779  156.7722 C   0  0  0  0  0  0  0  0  0  0  0  0
  152.4191  140.4655  158.2711 C   0  0  1  0  0  0  0  0  0  0  0  0
  153.6295  139.8338  158.6381 O   0  0  0  0  0  0  0  0  0  0  0  0
  152.5032  141.9675  158.6240 C   0  0  2  0  0  0  0  0  0  0  0  0
  152.7516  142.2685  160.1030 C   0  0  0  0  0  0  0  0  0  0  0  0
  152.2387  143.6905  160.2627 C   0  0  0  0  0  0  0  0  0  0  0  0
  151.3113  143.8836  159.0602 C   0  0  0  0  0  0  0  0  0  0  0  0
  151.2524  142.6118  158.4306 O   0  0  0  0  0  0  0  0  0  0  0  0
  150.0635  133.9237  156.6033 C   0  0  0  0  0  0  0  0  0  0  0  0
  150.4461  132.4635  156.2853 C   0  0  1  0  0  0  0  0  0  0  0  0
  151.8989  132.2726  155.8600 C   0  0  0  0  0  0  0  0  0  0  0  0
  152.1385  130.8095  156.1991 C   0  0  0  0  0  0  0  0  0  0  0  0
  151.4587  130.6305  157.4324 O   0  0  0  0  0  0  0  0  0  0  0  0
  150.3790  131.5578  157.5255 C   0  0  0  0  0  0  0  0  0  0  0  0
  149.5210  131.9238  155.3331 O   0  0  0  0  0  0  0  0  0  0  0  0
  146.7347  132.2947  151.8393 H   0  0  0  0  0  0  0  0  0  0  0  0
  147.9820  133.5370  151.8337 H   0  0  0  0  0  0  0  0  0  0  0  0
  146.8024  133.4717  153.1432 H   0  0  0  0  0  0  0  0  0  0  0  0
  147.7487  131.2570  153.8816 H   0  0  0  0  0  0  0  0  0  0  0  0
  148.8624  131.2862  152.5411 H   0  0  0  0  0  0  0  0  0  0  0  0
  150.3305  132.6572  153.5773 H   0  0  0  0  0  0  0  0  0  0  0  0
  148.9199  134.6904  153.5201 H   0  0  0  0  0  0  0  0  0  0  0  0
  147.9823  134.1287  154.8872 H   0  0  0  0  0  0  0  0  0  0  0  0
  147.7079  138.4760  154.9190 H   0  0  0  0  0  0  0  0  0  0  0  0
  153.7244  137.8188  157.1153 H   0  0  0  0  0  0  0  0  0  0  0  0
  153.0714  140.4543  156.1946 H   0  0  0  0  0  0  0  0  0  0  0  0
  151.3667  140.7862  156.3911 H   0  0  0  0  0  0  0  0  0  0  0  0
  151.6213  140.0056  158.8558 H   0  0  0  0  0  0  0  0  0  0  0  0
  153.4491  138.9272  158.8331 H   0  0  0  0  0  0  0  0  0  0  0  0
  153.2631  142.4606  158.0144 H   0  0  0  0  0  0  0  0  0  0  0  0
  152.1629  141.5943  160.7267 H   0  0  0  0  0  0  0  0  0  0  0  0
  153.7990  142.1631  160.3870 H   0  0  0  0  0  0  0  0  0  0  0  0
  151.7159  143.8203  161.2107 H   0  0  0  0  0  0  0  0  0  0  0  0
  153.0581  144.4095  160.2282 H   0  0  0  0  0  0  0  0  0  0  0  0
  150.3148  144.2190  159.3484 H   0  0  0  0  0  0  0  0  0  0  0  0
  151.7282  144.6120  158.3634 H   0  0  0  0  0  0  0  0  0  0  0  0
  150.8132  134.3741  157.2554 H   0  0  0  0  0  0  0  0  0  0  0  0
  149.1145  133.9459  157.1414 H   0  0  0  0  0  0  0  0  0  0  0  0
  152.1107  132.5085  154.8186 H   0  0  0  0  0  0  0  0  0  0  0  0
  152.5533  132.8942  156.4726 H   0  0  0  0  0  0  0  0  0  0  0  0
  151.6924  130.1612  155.4437 H   0  0  0  0  0  0  0  0  0  0  0  0
  153.1968  130.5623  156.2836 H   0  0  0  0  0  0  0  0  0  0  0  0
  150.5184  132.1339  158.4409 H   0  0  0  0  0  0  0  0  0  0  0  0
  149.4228  131.0397  157.6080 H   0  0  0  0  0  0  0  0  0  0  0  0
  1  2  1  0  0  0  0
  1 30  1  0  0  0  0
  1 31  1  0  0  0  0
  1 32  1  0  0  0  0
  2  3  1  0  0  0  0
  2 33  1  0  0  0  0
  2 34  1  0  0  0  0
  3 29  1  0  0  0  0
  3  4  1  0  0  0  0
  3 35  1  0  0  0  0
  4  5  1  0  0  0  0
  4 36  1  0  0  0  0
  4 37  1  0  0  0  0
  5  6  1  0  0  0  0
  5 23  1  0  0  0  0
  6 11  1  0  0  0  0
  6  7  2  0  0  0  0
  7  8  1  0  0  0  0
  8  9  2  0  0  0  0
  8 38  1  0  0  0  0
  9 10  1  0  0  0  0
 10 14  1  0  0  0  0
 10 11  2  0  0  0  0
 11 12  1  0  0  0  0
 12 13  2  0  0  0  0
 13 14  1  0  0  0  0
 13 39  1  0  0  0  0
 14 15  1  0  0  0  0
 15 16  1  0  0  0  0
 15 40  1  0  0  0  0
 15 41  1  0  0  0  0
 16 17  1  0  0  0  0
 16 18  1  0  0  0  0
 16 42  1  0  0  0  0
 17 43  1  0  0  0  0
 18 22  1  0  0  0  0
 18 19  1  0  0  0  0
 18 44  1  0  0  0  0
 19 20  1  0  0  0  0
 19 45  1  0  0  0  0
 19 46  1  0  0  0  0
 20 21  1  0  0  0  0
 20 47  1  0  0  0  0
 20 48  1  0  0  0  0
 21 22  1  0  0  0  0
 21 49  1  0  0  0  0
 21 50  1  0  0  0  0
 23 24  1  0  0  0  0
 23 51  1  0  0  0  0
 23 52  1  0  0  0  0
 24 28  1  0  0  0  0
 24 25  1  0  0  0  0
 24 29  1  0  0  0  0
 25 26  1  0  0  0  0
 25 53  1  0  0  0  0
 25 54  1  0  0  0  0
 26 27  1  0  0  0  0
 26 55  1  0  0  0  0
 26 56  1  0  0  0  0
 27 28  1  0  0  0  0
 28 57  1  0  0  0  0
 28 58  1  0  0  0  0
M  END
> <s_m_source_file>
AV-unprocessed.smi

> <i_m_source_file_index>
229

> <i_lp_mmshare_version>
43012

> <i_f3d_flags>
0

> <s_epik_input>
W0NIMl0xT1tDSDJdW0NIMl1bQ0BdMTJbQ0gyXU4oW0NIMl1bQ0BIXShPMilbQ0gyXVtDSDNdKWMobltjSF1uMyljKGMzNCluW2NIXW40W0NIMl1bQ0BIXShbT0hdKVtDQEBIXTVbQ0gyXVtDSDJdW0NIMl1PNQ==

> <s_epik_cmdline>
J2VwaWtfcHl0aG9uJywgJy1waCcsICc3LjAnLCAnLXRuJywgJzgnLCAnLW1hJywgJzIwMCcsICctbWV0YWxfYmluZGluZycsICctaW1hZScsICc8aW5maWxlLm1hZT4nLCAnLW9tYWUnLCAnPG91dGZpbGUubWFlPic=

> <r_lp_tautomer_probability>
1

> <r_epik_Ionization_Penalty>
0.00318402

> <r_epik_Ionization_Penalty_Charging>
0

> <r_epik_Ionization_Penalty_Neutral>
0.00318402

> <r_epik_State_Penalty>
0.00215642

> <r_epik_Charging_Adjusted_Penalty>
0.00215642

> <i_epik_Tot_Q>
0

> <i_epik_Tot_abs_Q>
0

> <r_epik_Metal_State_Penalty>
-0

> <b_epik_Metal_Only>
0

> <s_lp_Force_Field>
OPLS_2005

> <r_lp_Energy>
55.6403

> <b_lp_Chiralities_Consistent>
1

> <s_lp_Variant>
AV-unprocessed.smi:229-4

> <Gold.Version>
5.8.1

> <Gold.Id.Protein>
6NUR|6NUR_protein|mol2

> <Gold.PLP.Fitness>
42.6102

> <Gold.PLP.PLP>
-38.2352

> <Gold.PLP.part.hbond>
-2.0000

> <Gold.PLP.part.metal>
0.0000

> <Gold.PLP.part.buried>
-4.1978

> <Gold.PLP.part.nonpolar>
-31.3881

> <Gold.PLP.part.repulsive>
0.3096

> <Gold.PLP.ligand.clash>
0.0000

> <Gold.PLP.ligand.torsion>
0.9654

> <Gold.PLP.Chemscore.Hbond>
1.9920

> <Gold.PLP.Chemscore.CHOScore>
0.0000

> <Gold.PLP.Chemscore.Metal>
0.0000

> <Gold.Chemscore.Hbonds>
donor molecule, donor type, donor heavy atom, donor atom, acceptor molecule, acceptor atom, score
      P1  H  7997  8008       L1    17  0.98
      P1  H 10752 10765       L1    12  1.00

> <Gold.PLP.Chemscore.Internal.Correction>
0.3298

> <Gold.Rescore>
     Score         DG    S(hbond)    S(metal)    S(lipo)     H(rot)  DE(clash)    DE(int)     intcor
     14.08     -15.91       1.42        0.00     102.42       2.46       0.02       1.81       ----

> <Gold.Chemscore.Fitness>
14.0790

> <Gold.Chemscore.DG>
-15.9131

> <Gold.Chemscore.ZeroCoef>
-5.4800

> <Gold.Chemscore.Hbond>
1.4209

> <Gold.Chemscore.Metal>
0.0000

> <Gold.Chemscore.Lipo>
102.4156

> <Gold.Chemscore.Internal_Hbond>
0.0000

> <Gold.Chemscore.DEClash>
0.0204

> <Gold.Chemscore.DEInternal>
1.8137

> <Gold.Chemscore.Rot>
2.4591

> <Gold.Chemscore.Internal.Correction>
   9.000000E+99

> <Gold.Chemscore.Hbonds>
donor molecule, donor type, donor heavy atom, donor atom, acceptor molecule, acceptor atom, score
      P1  H  7997  8008       L1    17  0.60
      P1  H 10752 10765       L1    12  0.69

> <Gold.Chemscore.Hbond.Weighted>
-4.7458

> <Gold.Chemscore.Metal.Weighted>
-0.0000

> <Gold.Chemscore.Lipo.Weighted>
-11.9826

> <Gold.Chemscore.Internal_Hbond.Weighted>
0.0000

> <Gold.Chemscore.DEClash.Weighted>
0.0204

> <Gold.Chemscore.DEInternal.Weighted>
1.8137

> <Gold.Chemscore.Rot.Weighted>
6.2953

> <Gold.Chemscore.Internal.Correction.Weighted>
   9.000000E+99

> <Gold.Protein.RotatedTorsions>
[ 6907 6896 6895 6894 ] final   65.48 input  -60.11 | X-H torsion
[ 7974 7965 7964 7962 ] final   -8.59 input  175.53 | X-H torsion
[ 8008 7997 7996 7995 ] final -112.29 input   59.86 | X-H torsion
[ 10167 10162 10161 10158 ] final   13.61 input  -65.29 | X-H torsion
[ 10718 10713 10712 10709 ] final  123.81 input   66.30 | X-H torsion
[ 10763 10752 10751 10750 ] final -147.62 input  -60.55 | X-H torsion
[ 11005 11000 10999 10996 ] final  170.22 input  -57.11 | X-H torsion

> <Gold.Protein.ActiveResidues>
 VAL166  LYS551  ARG553  GLY616  TRP617  ASP618  TYR619  PRO620  LYS621  CYS622 
 ASP623  PHE694  ASN695  SER759  ASP760  ASP761  ALA762  ILE779  LEU786  VAL792 
 PHE793  MET794  SER795  GLU796  ALA797  LYS798  CYS799  TRP800  GLU811  SER814 

> <Gold.Protein.RotatedAtoms>
  152.4410  134.5590  159.9888 H   0  0  0  0  0  0  0  0  0  0  0  0  # atno 6907 bound_to 6896
  151.5687  133.3387  159.2993 H   0  0  0  0  0  0  0  0  0  0  0  0  # atno 6908 bound_to 6896
  150.8317  134.7606  159.6923 H   0  0  0  0  0  0  0  0  0  0  0  0  # atno 6909 bound_to 6896
  146.2276  140.2491  142.8346 H   0  0  0  0  0  0  0  0  0  0  0  0  # atno 7974 bound_to 7965
  155.0029  140.0394  157.2367 H   0  0  0  0  0  0  0  0  0  0  0  0  # atno 8008 bound_to 7997
  154.7528  140.2770  155.6256 H   0  0  0  0  0  0  0  0  0  0  0  0  # atno 8009 bound_to 7997
  156.2888  140.2643  156.2285 H   0  0  0  0  0  0  0  0  0  0  0  0  # atno 8010 bound_to 7997
  140.5991  143.8642  150.6947 H   0  0  0  0  0  0  0  0  0  0  0  0  # atno 10167 bound_to 10162
  157.5635  131.1088  150.8495 H   0  0  0  0  0  0  0  0  0  0  0  0  # atno 10718 bound_to 10713
  154.8276  135.3355  154.6846 H   0  0  0  0  0  0  0  0  0  0  0  0  # atno 10763 bound_to 10752
  153.7470  135.6942  153.4958 H   0  0  0  0  0  0  0  0  0  0  0  0  # atno 10764 bound_to 10752
  153.2203  135.4451  155.0432 H   0  0  0  0  0  0  0  0  0  0  0  0  # atno 10765 bound_to 10752
  140.3060  134.7556  157.3954 H   0  0  0  0  0  0  0  0  0  0  0  0  # atno 11005 bound_to 11000
  144.9425  140.8094  143.5621 LP  0  0  0  0  0  0  0  0  0  0  0  0  # atno 17320 bound_to 7965
  145.2444  139.2058  143.4975 LP  0  0  0  0  0  0  0  0  0  0  0  0  # atno 17321 bound_to 7965
  140.2183  143.3829  152.1663 LP  0  0  0  0  0  0  0  0  0  0  0  0  # atno 17342 bound_to 10162
  139.5278  144.7124  151.5165 LP  0  0  0  0  0  0  0  0  0  0  0  0  # atno 17343 bound_to 10162
  156.8986  130.5238  149.5283 LP  0  0  0  0  0  0  0  0  0  0  0  0  # atno 17370 bound_to 10713
  156.0686  130.5723  150.9338 LP  0  0  0  0  0  0  0  0  0  0  0  0  # atno 17371 bound_to 10713
  140.1066  134.5401  155.8303 LP  0  0  0  0  0  0  0  0  0  0  0  0  # atno 17394 bound_to 11000
  141.2118  133.6711  156.6611 LP  0  0  0  0  0  0  0  0  0  0  0  0  # atno 17395 bound_to 11000

$$$$
