AV-unprocessed.smi:160|AV-procd|sdf|1351|dock3
  -GOLD-   2262019 53D 1   1.00000     0.00000
 Structure written by MMmdl.
 29 30  0  0  0  0  0  0  0  0  1 V2000
  150.1204  133.7251  155.3976 N   0  0  0  0  0  0  0  0  0  0  0  0
  150.3428  134.2296  156.6159 C   0  0  0  0  0  0  0  0  0  0  0  0
  150.0692  133.6127  157.6441 O   0  0  0  0  0  0  0  0  0  0  0  0
  150.9485  135.6050  156.6646 C   0  0  0  0  0  0  0  0  0  0  0  0
  151.2412  136.2064  157.8554 N   0  0  0  0  0  0  0  0  0  0  0  0
  151.7329  137.3498  157.3955 C   0  0  0  0  0  0  0  0  0  0  0  0
  151.7536  137.4417  156.0617 N   0  0  0  0  0  0  0  0  0  0  0  0
  152.2115  138.5723  155.1871 C   0  0  2  0  0  0  0  0  0  0  0  0
  152.3723  139.6904  156.0039 O   0  0  0  0  0  0  0  0  0  0  0  0
  151.3494  140.6599  155.7693 C   0  0  2  0  0  0  0  0  0  0  0  0
  150.7300  141.1011  157.1053 C   0  0  0  0  0  0  0  0  0  0  0  0
  150.2277  139.9815  157.8031 O   0  0  0  0  0  0  0  0  0  0  0  0
  150.3401  139.9904  154.8228 C   0  0  1  0  0  0  0  0  0  0  0  0
  149.8270  140.9290  153.8989 O   0  0  0  0  0  0  0  0  0  0  0  0
  151.1815  138.9451  154.1077 C   0  0  2  0  0  0  0  0  0  0  0  0
  150.3914  137.8575  153.6616 O   0  0  0  0  0  0  0  0  0  0  0  0
  151.2256  136.2973  155.5588 N   0  0  0  0  0  0  0  0  0  0  0  0
  153.1651  138.2309  154.7825 H   0  0  0  0  0  0  0  0  0  0  0  0
  151.8140  141.5075  155.2612 H   0  0  0  0  0  0  0  0  0  0  0  0
  149.5264  139.5265  155.3824 H   0  0  0  0  0  0  0  0  0  0  0  0
  151.7230  139.3894  153.2709 H   0  0  0  0  0  0  0  0  0  0  0  0
  149.7156  132.8056  155.2995 H   0  0  0  0  0  0  0  0  0  0  0  0
  150.3602  134.2701  154.5819 H   0  0  0  0  0  0  0  0  0  0  0  0
  152.0869  138.1367  158.0451 H   0  0  0  0  0  0  0  0  0  0  0  0
  151.4905  141.5625  157.7360 H   0  0  0  0  0  0  0  0  0  0  0  0
  149.9424  141.8398  156.9559 H   0  0  0  0  0  0  0  0  0  0  0  0
  149.7125  140.2888  158.5334 H   0  0  0  0  0  0  0  0  0  0  0  0
  149.6129  140.4726  153.0994 H   0  0  0  0  0  0  0  0  0  0  0  0
  150.8668  137.3958  152.9880 H   0  0  0  0  0  0  0  0  0  0  0  0
  1  2  1  0  0  0  0
  1 22  1  0  0  0  0
  1 23  1  0  0  0  0
  2  3  2  0  0  0  0
  2  4  1  0  0  0  0
  4 17  2  0  0  0  0
  4  5  1  0  0  0  0
  5  6  2  0  0  0  0
  6  7  1  0  0  0  0
  6 24  1  0  0  0  0
  7  8  1  0  0  0  0
  7 17  1  0  0  0  0
  8 18  1  0  0  0  0
  8 15  1  0  0  0  0
  8  9  1  0  0  0  0
  9 10  1  0  0  0  0
 10 19  1  0  0  0  0
 10 11  1  0  0  0  0
 10 13  1  0  0  0  0
 11 12  1  0  0  0  0
 11 25  1  0  0  0  0
 11 26  1  0  0  0  0
 12 27  1  0  0  0  0
 13 20  1  0  0  0  0
 13 14  1  0  0  0  0
 13 15  1  0  0  0  0
 14 28  1  0  0  0  0
 15 21  1  0  0  0  0
 15 16  1  0  0  0  0
 16 29  1  0  0  0  0
M  END
> <s_m_source_file>
AV-unprocessed.smi

> <i_m_source_file_index>
160

> <i_lp_mmshare_version>
43012

> <i_f3d_flags>
0

> <s_epik_input>
W05IMl1DKD1PKWMxbltjSF1uKG4xKVtDQEBIXTJPW0NASF0oW0NIMl1bT0hdKVtDQEBIXShbT0hdKVtDQEhdMltPSF0=

> <s_epik_cmdline>
J2VwaWtfcHl0aG9uJywgJy1waCcsICc3LjAnLCAnLXRuJywgJzgnLCAnLW1hJywgJzIwMCcsICctbWV0YWxfYmluZGluZycsICctaW1hZScsICc8aW5maWxlLm1hZT4nLCAnLW9tYWUnLCAnPG91dGZpbGUubWFlPic=

> <r_lp_tautomer_probability>
1

> <r_epik_Ionization_Penalty>
1.06932e-05

> <r_epik_Ionization_Penalty_Charging>
0

> <r_epik_Ionization_Penalty_Neutral>
1.06932e-05

> <r_epik_State_Penalty>
-0

> <r_epik_Charging_Adjusted_Penalty>
0

> <i_epik_Tot_Q>
0

> <i_epik_Tot_abs_Q>
0

> <r_epik_Metal_State_Penalty>
0.0142097

> <b_epik_Metal_Only>
0

> <s_epik_Chemistry_Notes>
This compound contains an acetal/aminal-like group ( X-CH(R)-Y where X, Y are N, S, or O) that may be acid/base labile, releasing an aldehyde.

> <s_lp_Force_Field>
OPLS_2005

> <r_lp_Energy>
40.6447

> <b_lp_Chiralities_Consistent>
1

> <s_lp_Variant>
AV-unprocessed.smi:160-9

> <Gold.Version>
5.8.1

> <Gold.Id.Protein>
6NUR|6NUR_protein|mol2

> <Gold.PLP.Fitness>
39.4955

> <Gold.PLP.PLP>
-24.6327

> <Gold.PLP.part.hbond>
-8.5133

> <Gold.PLP.part.metal>
0.0000

> <Gold.PLP.part.buried>
-0.9409

> <Gold.PLP.part.nonpolar>
-14.2048

> <Gold.PLP.part.repulsive>
0.1497

> <Gold.PLP.ligand.clash>
0.0000

> <Gold.PLP.ligand.torsion>
0.2839

> <Gold.PLP.Chemscore.Hbond>
5.1387

> <Gold.PLP.Chemscore.CHOScore>
0.0000

> <Gold.PLP.Chemscore.Metal>
0.0000

> <Gold.Chemscore.Hbonds>
donor molecule, donor type, donor heavy atom, donor atom, acceptor molecule, acceptor atom, score
      L1  H    14    28       P1  7957  1.00
      L1  H    16    29       P1  7949  0.76
      P1  H  6896  6907       L1     3  1.00
      P1  H  6896  6908       L1     5  0.12
      P1  H  7997  8010       L1     9  0.94
      P1  H 10752 10763       L1    17  0.77

> <Gold.PLP.Chemscore.Internal.Correction>
0.0148

> <Gold.Rescore>
     Score         DG    S(hbond)    S(metal)    S(lipo)     H(rot)  DE(clash)    DE(int)     intcor
      8.86     -10.77       3.73        0.00      27.49       4.06       0.05       1.87       ----

> <Gold.Chemscore.Fitness>
8.8559

> <Gold.Chemscore.DG>
-10.7717

> <Gold.Chemscore.ZeroCoef>
-5.4800

> <Gold.Chemscore.Hbond>
3.7332

> <Gold.Chemscore.Metal>
0.0000

> <Gold.Chemscore.Lipo>
27.4897

> <Gold.Chemscore.Internal_Hbond>
0.0000

> <Gold.Chemscore.DEClash>
0.0460

> <Gold.Chemscore.DEInternal>
1.8698

> <Gold.Chemscore.Rot>
4.0600

> <Gold.Chemscore.Internal.Correction>
   9.000000E+99

> <Gold.Chemscore.Hbonds>
donor molecule, donor type, donor heavy atom, donor atom, acceptor molecule, acceptor atom, score
      L1  H    14    28       P1  7957  0.97
      L1  H    16    29       P1  7949  0.12
      P1  H  6896  6907       L1     3  0.96
      P1  H  6896  6908       L1     5  0.12
      P1  H  7997  8010       L1     9  0.62
      P1  H 10752 10763       L1    17  0.09

> <Gold.Chemscore.Hbond.Weighted>
-12.4690

> <Gold.Chemscore.Metal.Weighted>
-0.0000

> <Gold.Chemscore.Lipo.Weighted>
-3.2163

> <Gold.Chemscore.Internal_Hbond.Weighted>
0.0000

> <Gold.Chemscore.DEClash.Weighted>
0.0460

> <Gold.Chemscore.DEInternal.Weighted>
1.8698

> <Gold.Chemscore.Rot.Weighted>
10.3936

> <Gold.Chemscore.Internal.Correction.Weighted>
   9.000000E+99

> <Gold.Protein.RotatedTorsions>
[ 6907 6896 6895 6894 ] final -132.66 input  -60.11 | X-H torsion
[ 7974 7965 7964 7962 ] final  -67.22 input  175.53 | X-H torsion
[ 8008 7997 7996 7995 ] final   92.45 input   59.86 | X-H torsion
[ 10167 10162 10161 10158 ] final  -25.02 input  -65.29 | X-H torsion
[ 10718 10713 10712 10709 ] final  -26.30 input   66.30 | X-H torsion
[ 10763 10752 10751 10750 ] final   66.04 input  -60.55 | X-H torsion
[ 11005 11000 10999 10996 ] final  162.77 input  -57.11 | X-H torsion

> <Gold.Protein.ActiveResidues>
 VAL166  LYS551  ARG553  GLY616  TRP617  ASP618  TYR619  PRO620  LYS621  CYS622 
 ASP623  PHE694  ASN695  SER759  ASP760  ASP761  ALA762  ILE779  LEU786  VAL792 
 PHE793  MET794  SER795  GLU796  ALA797  LYS798  CYS799  TRP800  GLU811  SER814 

> <Gold.Protein.RotatedAtoms>
  150.9650  133.6405  159.2747 H   0  0  0  0  0  0  0  0  0  0  0  0  # atno 6907 bound_to 6896
  151.3714  135.0922  159.9476 H   0  0  0  0  0  0  0  0  0  0  0  0  # atno 6908 bound_to 6896
  152.5162  133.9203  159.7586 H   0  0  0  0  0  0  0  0  0  0  0  0  # atno 6909 bound_to 6896
  145.7319  140.8993  143.0576 H   0  0  0  0  0  0  0  0  0  0  0  0  # atno 7974 bound_to 7965
  156.0355  140.3325  155.7187 H   0  0  0  0  0  0  0  0  0  0  0  0  # atno 8008 bound_to 7997
  155.5821  140.0638  157.2798 H   0  0  0  0  0  0  0  0  0  0  0  0  # atno 8009 bound_to 7997
  154.4371  140.1842  156.0975 H   0  0  0  0  0  0  0  0  0  0  0  0  # atno 8010 bound_to 7997
  140.7287  143.4301  151.0815 H   0  0  0  0  0  0  0  0  0  0  0  0  # atno 10167 bound_to 10162
  156.4530  130.4488  149.6978 H   0  0  0  0  0  0  0  0  0  0  0  0  # atno 10718 bound_to 10713
  153.0122  135.5335  154.6761 H   0  0  0  0  0  0  0  0  0  0  0  0  # atno 10763 bound_to 10752
  154.5933  135.2861  155.0615 H   0  0  0  0  0  0  0  0  0  0  0  0  # atno 10764 bound_to 10752
  154.1699  135.6533  153.5059 H   0  0  0  0  0  0  0  0  0  0  0  0  # atno 10765 bound_to 10752
  140.2290  134.8138  157.3298 H   0  0  0  0  0  0  0  0  0  0  0  0  # atno 11005 bound_to 11000
  144.6891  139.9342  143.7473 LP  0  0  0  0  0  0  0  0  0  0  0  0  # atno 17320 bound_to 7965
  146.0530  139.3529  143.0628 LP  0  0  0  0  0  0  0  0  0  0  0  0  # atno 17321 bound_to 7965
  139.7957  143.8155  152.3157 LP  0  0  0  0  0  0  0  0  0  0  0  0  # atno 17342 bound_to 10162
  139.8154  144.7318  150.9642 LP  0  0  0  0  0  0  0  0  0  0  0  0  # atno 17343 bound_to 10162
  156.3796  130.7572  151.2564 LP  0  0  0  0  0  0  0  0  0  0  0  0  # atno 17370 bound_to 10713
  157.7502  131.0299  150.4114 LP  0  0  0  0  0  0  0  0  0  0  0  0  # atno 17371 bound_to 10713
  140.1770  134.4537  155.7796 LP  0  0  0  0  0  0  0  0  0  0  0  0  # atno 17394 bound_to 11000
  141.2219  133.6966  156.7804 LP  0  0  0  0  0  0  0  0  0  0  0  0  # atno 17395 bound_to 11000

$$$$
