AV-unprocessed.smi:283|AV-procd|sdf|2125|dock6
  -GOLD-   2262021433D 1   1.00000     0.00000
 Structure written by MMmdl.
 48 51  0  0  0  0  0  0  0  0  1 V2000
  151.9340  144.9604  160.1987 C   0  0  0  0  0  0  0  0  0  0  0  0
  151.8765  143.4946  159.7308 C   0  0  2  0  0  0  0  0  0  0  0  0
  150.4960  143.0171  159.6554 N   0  0  0  0  0  0  0  0  0  0  0  0
  149.9400  142.6296  158.4858 C   0  0  0  0  0  0  0  0  0  0  0  0
  150.7062  142.2530  157.4290 N   0  0  0  0  0  0  0  0  0  0  0  0
  150.1283  141.8757  156.2849 C   0  0  0  0  0  0  0  0  0  0  0  0
  148.8283  141.8036  155.9913 N   0  0  0  0  0  0  0  0  0  0  0  0
  148.0528  142.1750  157.0511 C   0  0  0  0  0  0  0  0  0  0  0  0
  148.5308  142.5951  158.3239 C   0  0  0  0  0  0  0  0  0  0  0  0
  147.4586  142.8921  159.1549 N   0  0  0  0  0  0  0  0  0  0  0  0
  146.4097  142.6609  158.4117 C   0  0  0  0  0  0  0  0  0  0  0  0
  146.6759  142.2326  157.1299 N   0  0  0  0  0  0  0  0  0  0  0  0
  145.6882  141.9012  156.0584 C   0  0  2  0  0  0  0  0  0  0  0  0
  145.9779  142.6835  154.9407 O   0  0  0  0  0  0  0  0  0  0  0  0
  144.7671  143.1651  154.3685 C   0  0  2  0  0  0  0  0  0  0  0  0
  145.0461  144.4375  153.5538 C   0  0  0  0  0  0  0  0  0  0  0  0
  143.8418  144.9483  153.0236 O   0  0  0  0  0  0  0  0  0  0  0  0
  143.8986  143.4081  155.6037 C   0  0  1  0  0  0  0  0  0  0  0  0
  142.5166  143.4905  155.3052 O   0  0  0  0  0  0  0  0  0  0  0  0
  144.2564  142.2325  156.5104 C   0  0  1  0  0  0  0  0  0  0  0  0
  143.3999  141.1220  156.3120 O   0  0  0  0  0  0  0  0  0  0  0  0
  152.7496  142.6270  160.6363 C   0  0  0  0  0  0  0  0  0  0  0  0
  153.1309  143.1002  161.9143 C   0  0  0  0  0  0  0  0  0  0  0  0
  153.9447  142.3196  162.7566 C   0  0  0  0  0  0  0  0  0  0  0  0
  154.3932  141.0577  162.3281 C   0  0  0  0  0  0  0  0  0  0  0  0
  154.0306  140.5811  161.0551 C   0  0  0  0  0  0  0  0  0  0  0  0
  153.2164  141.3584  160.2068 C   0  0  0  0  0  0  0  0  0  0  0  0
  152.8213  140.7283  158.6455 Cl  0  0  0  0  0  0  0  0  0  0  0  0
  145.8494  140.8432  155.8452 H   0  0  0  0  0  0  0  0  0  0  0  0
  144.3200  142.3837  153.7507 H   0  0  0  0  0  0  0  0  0  0  0  0
  144.2016  144.3386  156.0839 H   0  0  0  0  0  0  0  0  0  0  0  0
  144.2274  142.5145  157.5640 H   0  0  0  0  0  0  0  0  0  0  0  0
  152.9610  145.3264  160.2092 H   0  0  0  0  0  0  0  0  0  0  0  0
  151.5343  145.0690  161.2075 H   0  0  0  0  0  0  0  0  0  0  0  0
  151.3635  145.6202  159.5456 H   0  0  0  0  0  0  0  0  0  0  0  0
  152.2859  143.4327  158.7233 H   0  0  0  0  0  0  0  0  0  0  0  0
  149.9657  143.0879  160.5118 H   0  0  0  0  0  0  0  0  0  0  0  0
  150.8034  141.5926  155.4911 H   0  0  0  0  0  0  0  0  0  0  0  0
  145.4040  142.8034  158.7797 H   0  0  0  0  0  0  0  0  0  0  0  0
  145.4726  145.2089  154.1955 H   0  0  0  0  0  0  0  0  0  0  0  0
  145.7642  144.2479  152.7552 H   0  0  0  0  0  0  0  0  0  0  0  0
  143.1794  144.2768  153.0819 H   0  0  0  0  0  0  0  0  0  0  0  0
  142.3764  143.1464  154.4363 H   0  0  0  0  0  0  0  0  0  0  0  0
  142.9047  141.2644  155.5199 H   0  0  0  0  0  0  0  0  0  0  0  0
  152.8068  144.0711  162.2589 H   0  0  0  0  0  0  0  0  0  0  0  0
  154.2276  142.6910  163.7305 H   0  0  0  0  0  0  0  0  0  0  0  0
  155.0189  140.4581  162.9726 H   0  0  0  0  0  0  0  0  0  0  0  0
  154.3831  139.6145  160.7263 H   0  0  0  0  0  0  0  0  0  0  0  0
  1  2  1  0  0  0  0
  1 33  1  0  0  0  0
  1 34  1  0  0  0  0
  1 35  1  0  0  0  0
  2  3  1  0  0  0  0
  2 22  1  0  0  0  0
  2 36  1  0  0  0  0
  3  4  1  0  0  0  0
  3 37  1  0  0  0  0
  4  9  1  0  0  0  0
  4  5  2  0  0  0  0
  5  6  1  0  0  0  0
  6  7  2  0  0  0  0
  6 38  1  0  0  0  0
  7  8  1  0  0  0  0
  8 12  1  0  0  0  0
  8  9  2  0  0  0  0
  9 10  1  0  0  0  0
 10 11  2  0  0  0  0
 11 12  1  0  0  0  0
 11 39  1  0  0  0  0
 12 13  1  0  0  0  0
 13 29  1  0  0  0  0
 13 20  1  0  0  0  0
 13 14  1  0  0  0  0
 14 15  1  0  0  0  0
 15 30  1  0  0  0  0
 15 16  1  0  0  0  0
 15 18  1  0  0  0  0
 16 17  1  0  0  0  0
 16 40  1  0  0  0  0
 16 41  1  0  0  0  0
 17 42  1  0  0  0  0
 18 31  1  0  0  0  0
 18 19  1  0  0  0  0
 18 20  1  0  0  0  0
 19 43  1  0  0  0  0
 20 32  1  0  0  0  0
 20 21  1  0  0  0  0
 21 44  1  0  0  0  0
 22 27  1  0  0  0  0
 22 23  2  0  0  0  0
 23 24  1  0  0  0  0
 23 45  1  0  0  0  0
 24 25  2  0  0  0  0
 24 46  1  0  0  0  0
 25 26  1  0  0  0  0
 25 47  1  0  0  0  0
 26 27  2  0  0  0  0
 26 48  1  0  0  0  0
 27 28  1  0  0  0  0
M  END
> <s_m_source_file>
AV-unprocessed.smi

> <i_m_source_file_index>
283

> <i_lp_mmshare_version>
43012

> <i_f3d_flags>
0

> <s_epik_input>
Q2xjMVtjSF1bY0hdW2NIXVtjSF1jMVtDQEhdKFtDSDNdKVtOSF1jKG5bY0hdbjIpYyhjMjMpbltjSF1uM1tDQEBIXTRPW0NASF0oW0NIMl1bT0hdKVtDQEBIXShbT0hdKVtDQEhdNFtPSF0=

> <s_epik_cmdline>
J2VwaWtfcHl0aG9uJywgJy1waCcsICc3LjAnLCAnLXRuJywgJzgnLCAnLW1hJywgJzIwMCcsICctbWV0YWxfYmluZGluZycsICctaW1hZScsICc8aW5maWxlLm1hZT4nLCAnLW9tYWUnLCAnPG91dGZpbGUubWFlPic=

> <r_lp_tautomer_probability>
1

> <r_epik_Ionization_Penalty>
0.000266407

> <r_epik_Ionization_Penalty_Charging>
0

> <r_epik_Ionization_Penalty_Neutral>
0.000266407

> <r_epik_State_Penalty>
-0

> <r_epik_Charging_Adjusted_Penalty>
0

> <i_epik_Tot_Q>
0

> <i_epik_Tot_abs_Q>
0

> <r_epik_Metal_State_Penalty>
-0

> <b_epik_Metal_Only>
0

> <s_epik_Chemistry_Notes>
This compound contains an acetal/aminal-like group ( X-CH(R)-Y where X, Y are N, S, or O) that may be acid/base labile, releasing an aldehyde.

> <s_lp_Force_Field>
OPLS_2005

> <r_lp_Energy>
47.4388

> <b_lp_Chiralities_Consistent>
1

> <s_lp_Variant>
AV-unprocessed.smi:283-1

> <Gold.Version>
5.8.1

> <Gold.Id.Protein>
6NUR|6NUR_protein|mol2

> <Gold.PLP.Fitness>
48.8939

> <Gold.PLP.PLP>
-44.0013

> <Gold.PLP.part.hbond>
-3.0000

> <Gold.PLP.part.metal>
0.0000

> <Gold.PLP.part.buried>
-3.6314

> <Gold.PLP.part.nonpolar>
-40.2633

> <Gold.PLP.part.repulsive>
3.1984

> <Gold.PLP.ligand.clash>
0.0000

> <Gold.PLP.ligand.torsion>
0.6115

> <Gold.PLP.Chemscore.Hbond>
1.9913

> <Gold.PLP.Chemscore.CHOScore>
0.0000

> <Gold.PLP.Chemscore.Metal>
0.0000

> <Gold.Chemscore.Hbonds>
donor molecule, donor type, donor heavy atom, donor atom, acceptor molecule, acceptor atom, score
      L1  H    17    42       P1 10174  0.69
      L1  H    19    43       P1 10174  0.06

> <Gold.PLP.Chemscore.Internal.Correction>
0.1419

> <Gold.Rescore>
     Score         DG    S(hbond)    S(metal)    S(lipo)     H(rot)  DE(clash)    DE(int)     intcor
      8.56     -15.27       1.95        0.00     117.68       4.10       5.08       1.63       ----

> <Gold.Chemscore.Fitness>
8.5559

> <Gold.Chemscore.DG>
-15.2745

> <Gold.Chemscore.ZeroCoef>
-5.4800

> <Gold.Chemscore.Hbond>
1.9504

> <Gold.Chemscore.Metal>
0.0000

> <Gold.Chemscore.Lipo>
117.6751

> <Gold.Chemscore.Internal_Hbond>
0.0000

> <Gold.Chemscore.DEClash>
5.0849

> <Gold.Chemscore.DEInternal>
1.6336

> <Gold.Chemscore.Rot>
4.0968

> <Gold.Chemscore.Internal.Correction>
   9.000000E+99

> <Gold.Chemscore.Hbonds>
donor molecule, donor type, donor heavy atom, donor atom, acceptor molecule, acceptor atom, score
      L1  H    17    42       P1 10174  0.66
      L1  H    19    43       P1 10174  0.11

> <Gold.Chemscore.Hbond.Weighted>
-6.5144

> <Gold.Chemscore.Metal.Weighted>
-0.0000

> <Gold.Chemscore.Lipo.Weighted>
-13.7680

> <Gold.Chemscore.Internal_Hbond.Weighted>
0.0000

> <Gold.Chemscore.DEClash.Weighted>
5.0849

> <Gold.Chemscore.DEInternal.Weighted>
1.6336

> <Gold.Chemscore.Rot.Weighted>
10.4879

> <Gold.Chemscore.Internal.Correction.Weighted>
   9.000000E+99

> <Gold.Protein.RotatedTorsions>
[ 6907 6896 6895 6894 ] final  -31.02 input  -60.11 | X-H torsion
[ 7974 7965 7964 7962 ] final  124.38 input  175.53 | X-H torsion
[ 8008 7997 7996 7995 ] final  168.70 input   59.86 | X-H torsion
[ 10167 10162 10161 10158 ] final  -62.67 input  -65.29 | X-H torsion
[ 10718 10713 10712 10709 ] final  119.33 input   66.30 | X-H torsion
[ 10763 10752 10751 10750 ] final   37.97 input  -60.55 | X-H torsion
[ 11005 11000 10999 10996 ] final  -72.57 input  -57.11 | X-H torsion

> <Gold.Protein.ActiveResidues>
 VAL166  LYS551  ARG553  GLY616  TRP617  ASP618  TYR619  PRO620  LYS621  CYS622 
 ASP623  PHE694  ASN695  SER759  ASP760  ASP761  ALA762  ILE779  LEU786  VAL792 
 PHE793  MET794  SER795  GLU796  ALA797  LYS798  CYS799  TRP800  GLU811  SER814 

> <Gold.Protein.RotatedAtoms>
  151.0976  134.9953  159.8433 H   0  0  0  0  0  0  0  0  0  0  0  0  # atno 6907 bound_to 6896
  152.5434  134.1989  159.8714 H   0  0  0  0  0  0  0  0  0  0  0  0  # atno 6908 bound_to 6896
  151.2029  133.4556  159.2630 H   0  0  0  0  0  0  0  0  0  0  0  0  # atno 6909 bound_to 6896
  145.0851  139.3628  143.4889 H   0  0  0  0  0  0  0  0  0  0  0  0  # atno 7974 bound_to 7965
  156.1523  140.1583  156.8749 H   0  0  0  0  0  0  0  0  0  0  0  0  # atno 8008 bound_to 7997
  154.5082  140.0807  156.7974 H   0  0  0  0  0  0  0  0  0  0  0  0  # atno 8009 bound_to 7997
  155.3871  140.3408  155.4252 H   0  0  0  0  0  0  0  0  0  0  0  0  # atno 8010 bound_to 7997
  140.5923  143.2344  151.6112 H   0  0  0  0  0  0  0  0  0  0  0  0  # atno 10167 bound_to 10162
  157.5969  131.1057  150.7881 H   0  0  0  0  0  0  0  0  0  0  0  0  # atno 10718 bound_to 10713
  153.0018  135.6262  154.2231 H   0  0  0  0  0  0  0  0  0  0  0  0  # atno 10763 bound_to 10752
  154.1973  135.2806  155.3004 H   0  0  0  0  0  0  0  0  0  0  0  0  # atno 10764 bound_to 10752
  154.5711  135.5676  153.7155 H   0  0  0  0  0  0  0  0  0  0  0  0  # atno 10765 bound_to 10752
  141.1610  133.6851  156.7079 H   0  0  0  0  0  0  0  0  0  0  0  0  # atno 11005 bound_to 11000
  146.3531  140.0659  142.8626 LP  0  0  0  0  0  0  0  0  0  0  0  0  # atno 17320 bound_to 7965
  145.1132  140.9418  143.4644 LP  0  0  0  0  0  0  0  0  0  0  0  0  # atno 17321 bound_to 7965
  139.5235  144.3130  152.0977 LP  0  0  0  0  0  0  0  0  0  0  0  0  # atno 17342 bound_to 10162
  140.2296  144.4382  150.6306 LP  0  0  0  0  0  0  0  0  0  0  0  0  # atno 17343 bound_to 10162
  156.8289  130.5009  149.5334 LP  0  0  0  0  0  0  0  0  0  0  0  0  # atno 17370 bound_to 10713
  156.1033  130.5986  150.9930 LP  0  0  0  0  0  0  0  0  0  0  0  0  # atno 17371 bound_to 10713
  140.2910  134.8241  157.4016 LP  0  0  0  0  0  0  0  0  0  0  0  0  # atno 17394 bound_to 11000
  140.1347  134.5049  155.8078 LP  0  0  0  0  0  0  0  0  0  0  0  0  # atno 17395 bound_to 11000

$$$$
