AV-unprocessed.smi:1264|AV-procd|sdf|5313|dock10
  -GOLD-   22720 4443D 1   1.00000     0.00000
 Structure written by MMmdl.
 43 43  0  0  0  0  0  0  0  0  1 V2000
  146.2746  146.1739  160.1687 C   0  0  0  0  0  0  0  0  0  0  0  0
  147.3873  145.3905  159.6544 N   0  0  0  0  0  0  0  0  0  0  0  0
  147.8665  144.2856  160.2431 C   0  0  0  0  0  0  0  0  0  0  0  0
  147.3968  143.8216  161.2840 O   0  0  0  0  0  0  0  0  0  0  0  0
  149.0413  143.5908  159.5336 C   0  0  2  0  0  0  0  0  0  0  0  0
  150.2045  144.6073  159.4429 C   0  0  0  0  0  0  0  0  0  0  0  0
  151.5092  144.0634  158.8167 C   0  0  0  0  0  0  0  0  0  0  0  0
  152.1567  142.9584  159.6683 C   0  0  0  0  0  0  0  0  0  0  0  0
  152.5071  145.2063  158.5748 C   0  0  0  0  0  0  0  0  0  0  0  0
  148.6415  143.2102  158.1796 N   0  0  0  0  0  0  0  0  0  0  0  0
  148.4584  141.9526  157.7490 C   0  0  0  0  0  0  0  0  0  0  0  0
  148.6527  140.9589  158.4492 O   0  0  0  0  0  0  0  0  0  0  0  0
  147.9631  141.7916  156.3128 C   0  0  0  0  0  0  0  0  0  0  0  0
  148.9624  140.9806  155.5289 C   0  0  0  0  0  0  0  0  0  0  0  0
  148.7148  140.0075  154.5169 C   0  0  0  0  0  0  0  0  0  0  0  0
  147.4016  139.5309  153.9654 C   0  0  0  0  0  0  0  0  0  0  0  0
  149.8367  139.4892  154.0462 N   0  0  0  0  0  0  0  0  0  0  0  0
  150.8723  140.1137  154.7475 O   0  0  0  0  0  0  0  0  0  0  0  0
  150.3266  140.9928  155.6254 C   0  0  0  0  0  0  0  0  0  0  0  0
  151.2763  141.7600  156.4815 C   0  0  0  0  0  0  0  0  0  0  0  0
  146.1039  147.0406  159.5305 H   0  0  0  0  0  0  0  0  0  0  0  0
  146.4830  146.5297  161.1785 H   0  0  0  0  0  0  0  0  0  0  0  0
  145.3602  145.5799  160.1904 H   0  0  0  0  0  0  0  0  0  0  0  0
  147.8232  145.7089  158.8010 H   0  0  0  0  0  0  0  0  0  0  0  0
  149.3445  142.7126  160.1060 H   0  0  0  0  0  0  0  0  0  0  0  0
  149.8765  145.4732  158.8645 H   0  0  0  0  0  0  0  0  0  0  0  0
  150.4316  144.9879  160.4404 H   0  0  0  0  0  0  0  0  0  0  0  0
  151.2766  143.6363  157.8407 H   0  0  0  0  0  0  0  0  0  0  0  0
  152.3709  143.3094  160.6781 H   0  0  0  0  0  0  0  0  0  0  0  0
  153.0963  142.6246  159.2271 H   0  0  0  0  0  0  0  0  0  0  0  0
  151.5138  142.0818  159.7469 H   0  0  0  0  0  0  0  0  0  0  0  0
  152.7967  145.6849  159.5110 H   0  0  0  0  0  0  0  0  0  0  0  0
  152.0797  145.9725  157.9274 H   0  0  0  0  0  0  0  0  0  0  0  0
  153.4150  144.8416  158.0932 H   0  0  0  0  0  0  0  0  0  0  0  0
  148.4494  143.9639  157.5359 H   0  0  0  0  0  0  0  0  0  0  0  0
  146.9778  141.3239  156.3090 H   0  0  0  0  0  0  0  0  0  0  0  0
  147.8259  142.7826  155.8785 H   0  0  0  0  0  0  0  0  0  0  0  0
  146.5790  140.1731  154.2791 H   0  0  0  0  0  0  0  0  0  0  0  0
  147.1794  138.5196  154.3062 H   0  0  0  0  0  0  0  0  0  0  0  0
  147.4127  139.5198  152.8751 H   0  0  0  0  0  0  0  0  0  0  0  0
  150.8446  141.9536  157.4637 H   0  0  0  0  0  0  0  0  0  0  0  0
  151.5189  142.7188  156.0230 H   0  0  0  0  0  0  0  0  0  0  0  0
  152.2054  141.2083  156.6266 H   0  0  0  0  0  0  0  0  0  0  0  0
  1  2  1  0  0  0  0
  1 21  1  0  0  0  0
  1 22  1  0  0  0  0
  1 23  1  0  0  0  0
  2  3  1  0  0  0  0
  2 24  1  0  0  0  0
  3  4  2  0  0  0  0
  3  5  1  0  0  0  0
  5  6  1  0  0  0  0
  5 10  1  0  0  0  0
  5 25  1  0  0  0  0
  6  7  1  0  0  0  0
  6 26  1  0  0  0  0
  6 27  1  0  0  0  0
  7  8  1  0  0  0  0
  7  9  1  0  0  0  0
  7 28  1  0  0  0  0
  8 29  1  0  0  0  0
  8 30  1  0  0  0  0
  8 31  1  0  0  0  0
  9 32  1  0  0  0  0
  9 33  1  0  0  0  0
  9 34  1  0  0  0  0
 10 11  1  0  0  0  0
 10 35  1  0  0  0  0
 11 12  2  0  0  0  0
 11 13  1  0  0  0  0
 13 14  1  0  0  0  0
 13 36  1  0  0  0  0
 13 37  1  0  0  0  0
 14 19  2  0  0  0  0
 14 15  1  0  0  0  0
 15 16  1  0  0  0  0
 15 17  2  0  0  0  0
 16 38  1  0  0  0  0
 16 39  1  0  0  0  0
 16 40  1  0  0  0  0
 17 18  1  0  0  0  0
 18 19  1  0  0  0  0
 19 20  1  0  0  0  0
 20 41  1  0  0  0  0
 20 42  1  0  0  0  0
 20 43  1  0  0  0  0
M  END
> <s_m_source_file>
AV-unprocessed.smi

> <i_m_source_file_index>
1264

> <i_lp_mmshare_version>
43012

> <i_f3d_flags>
0

> <s_epik_input>
W0NIM11bTkhdQyg9TylbQ0BIXShbQ0gyXVtDSF0oW0NIM10pW0NIM10pW05IXUMoPU8pW0NIMl1jMWMoW0NIM10pbm9jMVtDSDNd

> <s_epik_cmdline>
J2VwaWtfcHl0aG9uJywgJy1waCcsICc3LjAnLCAnLXRuJywgJzgnLCAnLW1hJywgJzIwMCcsICctbWV0YWxfYmluZGluZycsICctaW1hZScsICc8aW5maWxlLm1hZT4nLCAnLW9tYWUnLCAnPG91dGZpbGUubWFlPic=

> <r_lp_tautomer_probability>
1

> <r_epik_Ionization_Penalty>
6.00781e-08

> <r_epik_Ionization_Penalty_Charging>
0

> <r_epik_Ionization_Penalty_Neutral>
6.00781e-08

> <r_epik_State_Penalty>
-0

> <r_epik_Charging_Adjusted_Penalty>
0

> <i_epik_Tot_Q>
0

> <i_epik_Tot_abs_Q>
0

> <r_epik_Metal_State_Penalty>
-0

> <b_epik_Metal_Only>
0

> <s_lp_Force_Field>
OPLS_2005

> <r_lp_Energy>
-0.565017

> <b_lp_Chiralities_Consistent>
1

> <s_lp_Variant>
AV-unprocessed.smi:1264-1

> <Gold.Version>
5.8.1

> <Gold.Id.Protein>
6NUR|6NUR_protein|mol2

> <Gold.PLP.Fitness>
39.8387

> <Gold.PLP.PLP>
-31.6446

> <Gold.PLP.part.hbond>
-6.2160

> <Gold.PLP.part.metal>
0.0000

> <Gold.PLP.part.buried>
-3.5255

> <Gold.PLP.part.nonpolar>
-23.6449

> <Gold.PLP.part.repulsive>
1.8281

> <Gold.PLP.ligand.clash>
0.0000

> <Gold.PLP.ligand.torsion>
0.4669

> <Gold.PLP.Chemscore.Hbond>
3.0142

> <Gold.PLP.Chemscore.CHOScore>
0.0000

> <Gold.PLP.Chemscore.Metal>
0.0000

> <Gold.Chemscore.Hbonds>
donor molecule, donor type, donor heavy atom, donor atom, acceptor molecule, acceptor atom, score
      L1  H     2    24       P1  8029  1.00
      L1  H    10    35       P1  8028  0.09
      P1  H  6933  6944       L1     4  0.95
      P1  H  7989  7998       L1    18  1.00

> <Gold.PLP.Chemscore.Internal.Correction>
0.0853

> <Gold.Rescore>
     Score         DG    S(hbond)    S(metal)    S(lipo)     H(rot)  DE(clash)    DE(int)     intcor
     15.34     -16.56       1.84        0.00      88.08       2.09       0.83       0.39       ----

> <Gold.Chemscore.Fitness>
15.3364

> <Gold.Chemscore.DG>
-16.5623

> <Gold.Chemscore.ZeroCoef>
-5.4800

> <Gold.Chemscore.Hbond>
1.8371

> <Gold.Chemscore.Metal>
0.0000

> <Gold.Chemscore.Lipo>
88.0762

> <Gold.Chemscore.Internal_Hbond>
0.0000

> <Gold.Chemscore.DEClash>
0.8341

> <Gold.Chemscore.DEInternal>
0.3918

> <Gold.Chemscore.Rot>
2.0931

> <Gold.Chemscore.Internal.Correction>
   9.000000E+99

> <Gold.Chemscore.Hbonds>
donor molecule, donor type, donor heavy atom, donor atom, acceptor molecule, acceptor atom, score
      L1  H     2    24       P1  8029  0.91
      P1  H  6933  6944       L1     4  0.22
      P1  H  7989  7998       L1    18  0.21

> <Gold.Chemscore.Hbond.Weighted>
-6.1358

> <Gold.Chemscore.Metal.Weighted>
-0.0000

> <Gold.Chemscore.Lipo.Weighted>
-10.3049

> <Gold.Chemscore.Internal_Hbond.Weighted>
0.0000

> <Gold.Chemscore.DEClash.Weighted>
0.8341

> <Gold.Chemscore.DEInternal.Weighted>
0.3918

> <Gold.Chemscore.Rot.Weighted>
5.3584

> <Gold.Chemscore.Internal.Correction.Weighted>
   9.000000E+99

> <Gold.Protein.RotatedTorsions>
[ 6907 6896 6895 6894 ] final -121.78 input  -60.11 | X-H torsion
[ 7974 7965 7964 7962 ] final   35.88 input  175.53 | X-H torsion
[ 8008 7997 7996 7995 ] final   37.67 input   59.86 | X-H torsion
[ 10167 10162 10161 10158 ] final -115.75 input  -65.29 | X-H torsion
[ 10718 10713 10712 10709 ] final   49.73 input   66.30 | X-H torsion
[ 10763 10752 10751 10750 ] final  -90.65 input  -60.55 | X-H torsion
[ 11005 11000 10999 10996 ] final  -98.44 input  -57.11 | X-H torsion

> <Gold.Protein.ActiveResidues>
 VAL166  LYS551  ARG553  GLY616  TRP617  ASP618  TYR619  PRO620  LYS621  CYS622 
 ASP623  PHE694  ASN695  SER759  ASP760  ASP761  ALA762  ILE779  LEU786  VAL792 
 PHE793  MET794  SER795  GLU796  ALA797  LYS798  CYS799  TRP800  GLU811  SER814 

> <Gold.Protein.RotatedAtoms>
  150.8515  133.7779  159.3023 H   0  0  0  0  0  0  0  0  0  0  0  0  # atno 6907 bound_to 6896
  151.5450  135.1066  159.9945 H   0  0  0  0  0  0  0  0  0  0  0  0  # atno 6908 bound_to 6896
  152.4556  133.7674  159.6836 H   0  0  0  0  0  0  0  0  0  0  0  0  # atno 6909 bound_to 6896
  146.1251  139.6087  142.9264 H   0  0  0  0  0  0  0  0  0  0  0  0  # atno 7974 bound_to 7965
  155.2076  140.3321  155.4333 H   0  0  0  0  0  0  0  0  0  0  0  0  # atno 8008 bound_to 7997
  156.2383  140.1883  156.7108 H   0  0  0  0  0  0  0  0  0  0  0  0  # atno 8009 bound_to 7997
  154.6099  140.0610  156.9466 H   0  0  0  0  0  0  0  0  0  0  0  0  # atno 8010 bound_to 7997
  140.0867  143.4737  152.1894 H   0  0  0  0  0  0  0  0  0  0  0  0  # atno 10167 bound_to 10162
  157.4815  130.8318  149.8098 H   0  0  0  0  0  0  0  0  0  0  0  0  # atno 10718 bound_to 10713
  154.6680  135.5296  153.8102 H   0  0  0  0  0  0  0  0  0  0  0  0  # atno 10763 bound_to 10752
  153.0483  135.6522  154.0769 H   0  0  0  0  0  0  0  0  0  0  0  0  # atno 10764 bound_to 10752
  154.0671  135.2957  155.3294 H   0  0  0  0  0  0  0  0  0  0  0  0  # atno 10765 bound_to 10752
  141.1344  133.8245  157.0840 H   0  0  0  0  0  0  0  0  0  0  0  0  # atno 11005 bound_to 11000
  145.5382  141.0422  143.2345 LP  0  0  0  0  0  0  0  0  0  0  0  0  # atno 17320 bound_to 7965
  144.7635  139.6901  143.7225 LP  0  0  0  0  0  0  0  0  0  0  0  0  # atno 17321 bound_to 7965
  139.5748  144.7481  151.3794 LP  0  0  0  0  0  0  0  0  0  0  0  0  # atno 17342 bound_to 10162
  140.7050  143.7538  150.7466 LP  0  0  0  0  0  0  0  0  0  0  0  0  # atno 17343 bound_to 10162
  156.0124  130.3827  150.2221 LP  0  0  0  0  0  0  0  0  0  0  0  0  # atno 17370 bound_to 10713
  157.0407  131.0034  151.3284 LP  0  0  0  0  0  0  0  0  0  0  0  0  # atno 17371 bound_to 10713
  140.0434  134.9843  157.1004 LP  0  0  0  0  0  0  0  0  0  0  0  0  # atno 17394 bound_to 11000
  140.4100  134.1991  155.7163 LP  0  0  0  0  0  0  0  0  0  0  0  0  # atno 17395 bound_to 11000

$$$$
