AV-unprocessed.smi:33|AV-procd|sdf|209|dock3
  -GOLD-   2262015503D 1   1.00000     0.00000
 Structure written by MMmdl.
 67 72  0  0  0  0  0  0  0  0  1 V2000
  150.4557  140.8246  158.4068 O   0  0  0  0  0  0  0  0  0  0  0  0
  150.9530  141.8467  157.9294 C   0  0  0  0  0  0  0  0  0  0  0  0
  151.1722  142.0249  156.6120 O   0  0  0  0  0  0  0  0  0  0  0  0
  150.8224  141.0064  155.6890 C   0  0  0  0  0  0  0  0  0  0  0  0
  149.3011  141.0046  155.4828 C   0  0  2  0  0  0  0  0  0  0  0  0
  148.6964  140.0237  156.3337 O   0  0  0  0  0  0  0  0  0  0  0  0
  148.1577  138.9783  155.5790 C   0  0  2  0  0  0  0  0  0  0  0  0
  148.4980  137.6755  156.2301 N   0  0  0  0  0  0  0  0  0  0  0  0
  149.7606  137.1894  156.4878 C   0  0  0  0  0  0  0  0  0  0  0  0
  149.8063  136.0292  157.0837 N   0  0  0  0  0  0  0  0  0  0  0  0
  148.4714  135.6835  157.2441 C   0  0  0  0  0  0  0  0  0  0  0  0
  147.8039  134.5646  157.8118 C   0  0  0  0  0  0  0  0  0  0  0  0
  148.4641  133.5180  158.3619 N   0  0  0  0  0  0  0  0  0  0  0  0
  149.3922  132.7739  157.4967 C   0  0  0  0  0  0  0  0  0  0  0  0
  150.3160  132.1350  158.0048 O   0  0  0  0  0  0  0  0  0  0  0  0
  149.2600  132.8361  156.0010 C   0  0  0  0  0  0  0  0  0  0  0  0
  149.9265  133.8479  155.2754 C   0  0  0  0  0  0  0  0  0  0  0  0
  149.8163  133.9063  153.8726 C   0  0  0  0  0  0  0  0  0  0  0  0
  149.0543  132.9431  153.1845 C   0  0  0  0  0  0  0  0  0  0  0  0
  148.4112  131.9145  153.8988 C   0  0  0  0  0  0  0  0  0  0  0  0
  148.5204  131.8554  155.3018 C   0  0  0  0  0  0  0  0  0  0  0  0
  148.1804  133.2166  159.7726 C   0  0  0  0  0  0  0  0  0  0  0  0
  148.3360  132.0682  160.1918 O   0  0  0  0  0  0  0  0  0  0  0  0
  147.6617  134.2866  160.6912 C   0  0  0  0  0  0  0  0  0  0  0  0
  146.7215  133.9637  161.6944 C   0  0  0  0  0  0  0  0  0  0  0  0
  146.2452  134.9601  162.5684 C   0  0  0  0  0  0  0  0  0  0  0  0
  146.7191  136.2812  162.4568 C   0  0  0  0  0  0  0  0  0  0  0  0
  147.6779  136.6039  161.4777 C   0  0  0  0  0  0  0  0  0  0  0  0
  148.1546  135.6082  160.6035 C   0  0  0  0  0  0  0  0  0  0  0  0
  146.4457  134.5593  157.8019 N   0  0  0  0  0  0  0  0  0  0  0  0
  145.7832  135.5896  157.2687 C   0  0  0  0  0  0  0  0  0  0  0  0
  146.2750  136.6971  156.7093 N   0  0  0  0  0  0  0  0  0  0  0  0
  147.6389  136.7079  156.7142 C   0  0  0  0  0  0  0  0  0  0  0  0
  148.7832  139.0753  154.1910 C   0  0  1  0  0  0  0  0  0  0  0  0
  147.9693  138.5566  153.1582 O   0  0  0  0  0  0  0  0  0  0  0  0
  148.9155  140.5834  154.0627 C   0  0  1  0  0  0  0  0  0  0  0  0
  147.7362  141.1435  153.7780 F   0  0  0  0  0  0  0  0  0  0  0  0
  151.3733  143.0176  158.7516 C   0  0  0  0  0  0  0  0  0  0  0  0
  151.3654  144.3082  158.1727 C   0  0  0  0  0  0  0  0  0  0  0  0
  151.7559  145.4337  158.9240 C   0  0  0  0  0  0  0  0  0  0  0  0
  152.1599  145.2822  160.2632 C   0  0  0  0  0  0  0  0  0  0  0  0
  152.1731  144.0034  160.8502 C   0  0  0  0  0  0  0  0  0  0  0  0
  151.7828  142.8765  160.1005 C   0  0  0  0  0  0  0  0  0  0  0  0
  151.3260  141.2087  154.7432 H   0  0  0  0  0  0  0  0  0  0  0  0
  151.1628  140.0285  156.0287 H   0  0  0  0  0  0  0  0  0  0  0  0
  148.9048  141.9946  155.7125 H   0  0  0  0  0  0  0  0  0  0  0  0
  147.0681  139.0374  155.5793 H   0  0  0  0  0  0  0  0  0  0  0  0
  150.6562  137.7323  156.2229 H   0  0  0  0  0  0  0  0  0  0  0  0
  150.5131  134.5935  155.7928 H   0  0  0  0  0  0  0  0  0  0  0  0
  150.3168  134.6909  153.3246 H   0  0  0  0  0  0  0  0  0  0  0  0
  148.9689  132.9892  152.1088 H   0  0  0  0  0  0  0  0  0  0  0  0
  147.8340  131.1699  153.3709 H   0  0  0  0  0  0  0  0  0  0  0  0
  148.0260  131.0587  155.8387 H   0  0  0  0  0  0  0  0  0  0  0  0
  146.3517  132.9530  161.7901 H   0  0  0  0  0  0  0  0  0  0  0  0
  145.5173  134.7101  163.3259 H   0  0  0  0  0  0  0  0  0  0  0  0
  146.3533  137.0448  163.1272 H   0  0  0  0  0  0  0  0  0  0  0  0
  148.0497  137.6149  161.3980 H   0  0  0  0  0  0  0  0  0  0  0  0
  148.8948  135.8662  159.8596 H   0  0  0  0  0  0  0  0  0  0  0  0
  144.7055  135.5187  157.2947 H   0  0  0  0  0  0  0  0  0  0  0  0
  149.7661  138.6008  154.1905 H   0  0  0  0  0  0  0  0  0  0  0  0
  148.3593  137.7552  152.8436 H   0  0  0  0  0  0  0  0  0  0  0  0
  149.6249  140.8993  153.2970 H   0  0  0  0  0  0  0  0  0  0  0  0
  151.0587  144.4496  157.1463 H   0  0  0  0  0  0  0  0  0  0  0  0
  151.7448  146.4143  158.4715 H   0  0  0  0  0  0  0  0  0  0  0  0
  152.4591  146.1454  160.8391 H   0  0  0  0  0  0  0  0  0  0  0  0
  152.4832  143.8857  161.8782 H   0  0  0  0  0  0  0  0  0  0  0  0
  151.8050  141.9096  160.5817 H   0  0  0  0  0  0  0  0  0  0  0  0
  1  2  2  0  0  0  0
  2  3  1  0  0  0  0
  2 38  1  0  0  0  0
  3  4  1  0  0  0  0
  4  5  1  0  0  0  0
  4 44  1  0  0  0  0
  4 45  1  0  0  0  0
  5 36  1  0  0  0  0
  5  6  1  0  0  0  0
  5 46  1  0  0  0  0
  6  7  1  0  0  0  0
  7  8  1  0  0  0  0
  7 34  1  0  0  0  0
  7 47  1  0  0  0  0
  8 33  1  0  0  0  0
  8  9  1  0  0  0  0
  9 10  2  0  0  0  0
  9 48  1  0  0  0  0
 10 11  1  0  0  0  0
 11 33  2  0  0  0  0
 11 12  1  0  0  0  0
 12 13  1  0  0  0  0
 12 30  2  0  0  0  0
 13 14  1  0  0  0  0
 13 22  1  0  0  0  0
 14 15  2  0  0  0  0
 14 16  1  0  0  0  0
 16 21  1  0  0  0  0
 16 17  2  0  0  0  0
 17 18  1  0  0  0  0
 17 49  1  0  0  0  0
 18 19  2  0  0  0  0
 18 50  1  0  0  0  0
 19 20  1  0  0  0  0
 19 51  1  0  0  0  0
 20 21  2  0  0  0  0
 20 52  1  0  0  0  0
 21 53  1  0  0  0  0
 22 23  2  0  0  0  0
 22 24  1  0  0  0  0
 24 29  1  0  0  0  0
 24 25  2  0  0  0  0
 25 26  1  0  0  0  0
 25 54  1  0  0  0  0
 26 27  2  0  0  0  0
 26 55  1  0  0  0  0
 27 28  1  0  0  0  0
 27 56  1  0  0  0  0
 28 29  2  0  0  0  0
 28 57  1  0  0  0  0
 29 58  1  0  0  0  0
 30 31  1  0  0  0  0
 31 32  2  0  0  0  0
 31 59  1  0  0  0  0
 32 33  1  0  0  0  0
 34 35  1  0  0  0  0
 34 36  1  0  0  0  0
 34 60  1  0  0  0  0
 35 61  1  0  0  0  0
 36 37  1  0  0  0  0
 36 62  1  0  0  0  0
 38 43  1  0  0  0  0
 38 39  2  0  0  0  0
 39 40  1  0  0  0  0
 39 63  1  0  0  0  0
 40 41  2  0  0  0  0
 40 64  1  0  0  0  0
 41 42  1  0  0  0  0
 41 65  1  0  0  0  0
 42 43  2  0  0  0  0
 42 66  1  0  0  0  0
 43 67  1  0  0  0  0
M  END
> <s_m_source_file>
AV-unprocessed.smi

> <i_m_source_file_index>
33

> <i_lp_mmshare_version>
43012

> <i_f3d_flags>
0

> <s_epik_input>
W2NIXTFbY0hdW2NIXVtjSF1bY0hdYzFDKD1PKU9bQ0gyXVtDQEBIXTJPW0NASF0oW0NAQEhdKFtPSF0pW0NAQEhdMkYpbihbY0hdbjMpYyhjMzQpbltjSF1uYzROKEMoPU8pYzVbY0hdW2NIXVtjSF1bY0hdW2NIXTUpQyg9TyljNltjSF1bY0hdW2NIXVtjSF1bY0hdNg==

> <s_epik_cmdline>
J2VwaWtfcHl0aG9uJywgJy1waCcsICc3LjAnLCAnLXRuJywgJzgnLCAnLW1hJywgJzIwMCcsICctbWV0YWxfYmluZGluZycsICctaW1hZScsICc8aW5maWxlLm1hZT4nLCAnLW9tYWUnLCAnPG91dGZpbGUubWFlPic=

> <r_lp_tautomer_probability>
1

> <r_epik_Ionization_Penalty>
0.00067664

> <r_epik_Ionization_Penalty_Charging>
0

> <r_epik_Ionization_Penalty_Neutral>
0.00067664

> <r_epik_State_Penalty>
0.000428095

> <r_epik_Charging_Adjusted_Penalty>
0.000428095

> <i_epik_Tot_Q>
0

> <i_epik_Tot_abs_Q>
0

> <r_epik_Metal_State_Penalty>
-0

> <b_epik_Metal_Only>
0

> <s_epik_Chemistry_Notes>
This compound has an ester and may undergo hydrolysis at high or low pH. This compound contains an acetal/aminal-like group ( X-CH(R)-Y where X, Y are N, S, or O) that may be acid/base labile, releasing an aldehyde.

> <s_lp_Force_Field>
OPLS_2005

> <r_lp_Energy>
71.9351

> <b_lp_Chiralities_Consistent>
1

> <s_lp_Variant>
AV-unprocessed.smi:33-11

> <Gold.Version>
5.8.1

> <Gold.Id.Protein>
6NUR|6NUR_protein|mol2

> <Gold.PLP.Fitness>
65.2165

> <Gold.PLP.PLP>
-63.4191

> <Gold.PLP.part.hbond>
-3.0000

> <Gold.PLP.part.metal>
0.0000

> <Gold.PLP.part.buried>
-4.1061

> <Gold.PLP.part.nonpolar>
-56.0543

> <Gold.PLP.part.repulsive>
0.0778

> <Gold.PLP.ligand.clash>
0.0000

> <Gold.PLP.ligand.torsion>
4.4732

> <Gold.PLP.Chemscore.Hbond>
2.0000

> <Gold.PLP.Chemscore.CHOScore>
0.0000

> <Gold.PLP.Chemscore.Metal>
0.0000

> <Gold.Chemscore.Hbonds>
donor molecule, donor type, donor heavy atom, donor atom, acceptor molecule, acceptor atom, score
      L1  H    35    61       P1  7948  1.00
      P1  H  6896  6908       L1    15  1.00

> <Gold.PLP.Chemscore.Internal.Correction>
4.7439

> <Gold.Rescore>
     Score         DG    S(hbond)    S(metal)    S(lipo)     H(rot)  DE(clash)    DE(int)     intcor
     15.06     -24.36       1.55        0.00     172.45       2.52       0.18       9.12       ----

> <Gold.Chemscore.Fitness>
15.0551

> <Gold.Chemscore.DG>
-24.3566

> <Gold.Chemscore.ZeroCoef>
-5.4800

> <Gold.Chemscore.Hbond>
1.5460

> <Gold.Chemscore.Metal>
0.0000

> <Gold.Chemscore.Lipo>
172.4466

> <Gold.Chemscore.Internal_Hbond>
0.0000

> <Gold.Chemscore.DEClash>
0.1826

> <Gold.Chemscore.DEInternal>
9.1189

> <Gold.Chemscore.Rot>
2.5247

> <Gold.Chemscore.Internal.Correction>
   9.000000E+99

> <Gold.Chemscore.Hbonds>
donor molecule, donor type, donor heavy atom, donor atom, acceptor molecule, acceptor atom, score
      L1  H    35    61       P1  7948  1.00
      P1  H  6896  6908       L1    15  0.49

> <Gold.Chemscore.Hbond.Weighted>
-5.1636

> <Gold.Chemscore.Metal.Weighted>
-0.0000

> <Gold.Chemscore.Lipo.Weighted>
-20.1762

> <Gold.Chemscore.Internal_Hbond.Weighted>
0.0000

> <Gold.Chemscore.DEClash.Weighted>
0.1826

> <Gold.Chemscore.DEInternal.Weighted>
9.1189

> <Gold.Chemscore.Rot.Weighted>
6.4633

> <Gold.Chemscore.Internal.Correction.Weighted>
   9.000000E+99

> <Gold.Protein.RotatedTorsions>
[ 6907 6896 6895 6894 ] final   87.18 input  -60.11 | X-H torsion
[ 7974 7965 7964 7962 ] final   80.13 input  175.53 | X-H torsion
[ 8008 7997 7996 7995 ] final -143.89 input   59.86 | X-H torsion
[ 10167 10162 10161 10158 ] final  104.79 input  -65.29 | X-H torsion
[ 10718 10713 10712 10709 ] final  129.57 input   66.30 | X-H torsion
[ 10763 10752 10751 10750 ] final    4.33 input  -60.55 | X-H torsion
[ 11005 11000 10999 10996 ] final -117.52 input  -57.11 | X-H torsion

> <Gold.Protein.ActiveResidues>
 VAL166  LYS551  ARG553  GLY616  TRP617  ASP618  TYR619  PRO620  LYS621  CYS622 
 ASP623  PHE694  ASN695  SER759  ASP760  ASP761  ALA762  ILE779  LEU786  VAL792 
 PHE793  MET794  SER795  GLU796  ALA797  LYS798  CYS799  TRP800  GLU811  SER814 

> <Gold.Protein.RotatedAtoms>
  152.5407  134.2316  159.8826 H   0  0  0  0  0  0  0  0  0  0  0  0  # atno 6907 bound_to 6896
  151.2288  133.4455  159.2610 H   0  0  0  0  0  0  0  0  0  0  0  0  # atno 6908 bound_to 6896
  151.0736  134.9827  159.8377 H   0  0  0  0  0  0  0  0  0  0  0  0  # atno 6909 bound_to 6896
  145.6553  139.2457  143.1954 H   0  0  0  0  0  0  0  0  0  0  0  0  # atno 7974 bound_to 7965
  155.5180  140.0589  157.2912 H   0  0  0  0  0  0  0  0  0  0  0  0  # atno 8008 bound_to 7997
  154.4528  140.1957  156.0415 H   0  0  0  0  0  0  0  0  0  0  0  0  # atno 8009 bound_to 7997
  156.0738  140.3256  155.7613 H   0  0  0  0  0  0  0  0  0  0  0  0  # atno 8010 bound_to 7997
  139.7147  144.7070  151.0969 H   0  0  0  0  0  0  0  0  0  0  0  0  # atno 10167 bound_to 10162
  157.5142  131.1097  150.9248 H   0  0  0  0  0  0  0  0  0  0  0  0  # atno 10718 bound_to 10713
  153.2726  135.6933  153.7466 H   0  0  0  0  0  0  0  0  0  0  0  0  # atno 10763 bound_to 10752
  153.6483  135.3381  155.3093 H   0  0  0  0  0  0  0  0  0  0  0  0  # atno 10764 bound_to 10752
  154.8469  135.4448  154.1753 H   0  0  0  0  0  0  0  0  0  0  0  0  # atno 10765 bound_to 10752
  141.0349  133.9925  157.3086 H   0  0  0  0  0  0  0  0  0  0  0  0  # atno 11005 bound_to 11000
  146.1170  140.7357  142.9476 LP  0  0  0  0  0  0  0  0  0  0  0  0  # atno 17320 bound_to 7965
  144.7108  140.4031  143.7082 LP  0  0  0  0  0  0  0  0  0  0  0  0  # atno 17321 bound_to 7965
  140.7741  143.5246  150.9496 LP  0  0  0  0  0  0  0  0  0  0  0  0  # atno 17342 bound_to 10162
  139.8931  143.6928  152.3142 LP  0  0  0  0  0  0  0  0  0  0  0  0  # atno 17343 bound_to 10162
  156.9879  130.5552  149.5301 LP  0  0  0  0  0  0  0  0  0  0  0  0  # atno 17370 bound_to 10713
  156.0309  130.5400  150.8532 LP  0  0  0  0  0  0  0  0  0  0  0  0  # atno 17371 bound_to 10713
  139.9234  135.0201  156.8146 LP  0  0  0  0  0  0  0  0  0  0  0  0  # atno 17394 bound_to 11000
  140.6340  133.9879  155.7675 LP  0  0  0  0  0  0  0  0  0  0  0  0  # atno 17395 bound_to 11000

$$$$
