AV-unprocessed.smi:481|AV-procd|sdf|2680|dock2
  -GOLD-   2262023103D 1   1.00000     0.00000
 Structure written by MMmdl.
 43 45  0  0  0  0  0  0  0  0  1 V2000
  150.5868  134.9962  155.6188 C   0  0  0  0  0  0  0  0  0  0  0  0
  151.5151  136.0574  155.4786 O   0  0  0  0  0  0  0  0  0  0  0  0
  151.3453  137.0601  156.4657 C   0  0  0  0  0  0  0  0  0  0  0  0
  152.0166  138.3509  155.9819 C   0  0  0  0  0  0  0  0  0  0  0  0
  152.2434  139.2828  157.0809 N   0  0  0  0  0  0  0  0  0  0  0  0
  152.9260  139.0600  158.2327 C   0  0  0  0  0  0  0  0  0  0  0  0
  153.5011  137.8116  158.4677 N   0  0  0  0  0  0  0  0  0  0  0  0
  154.1697  137.5738  159.5823 N   0  0  0  0  0  0  0  0  0  0  0  0
  153.5122  137.7164  160.6769 C   0  0  0  0  0  0  0  0  0  0  0  0
  154.1212  137.4893  161.9964 C   0  0  0  0  0  0  0  0  0  0  0  0
  153.4000  136.8982  163.0613 C   0  0  0  0  0  0  0  0  0  0  0  0
  154.0152  136.6957  164.3121 C   0  0  0  0  0  0  0  0  0  0  0  0
  155.3543  137.0810  164.5106 C   0  0  0  0  0  0  0  0  0  0  0  0
  156.0784  137.6694  163.4569 C   0  0  0  0  0  0  0  0  0  0  0  0
  155.4643  137.8724  162.2054 C   0  0  0  0  0  0  0  0  0  0  0  0
  152.9742  140.1074  159.0650 N   0  0  0  0  0  0  0  0  0  0  0  0
  152.2514  141.0756  158.3832 C   0  0  0  0  0  0  0  0  0  0  0  0
  151.7981  140.5988  157.1966 C   0  0  0  0  0  0  0  0  0  0  0  0
  150.9877  141.4080  156.2793 C   0  0  0  0  0  0  0  0  0  0  0  0
  150.5519  140.9871  155.2097 O   0  0  0  0  0  0  0  0  0  0  0  0
  150.7665  142.6647  156.7369 N   0  0  0  0  0  0  0  0  0  0  0  0
  151.1992  143.2106  157.9153 C   0  0  0  0  0  0  0  0  0  0  0  0
  150.9154  144.3770  158.1867 O   0  0  0  0  0  0  0  0  0  0  0  0
  151.9419  142.4140  158.7518 N   0  0  0  0  0  0  0  0  0  0  0  0
  152.4442  142.8968  160.0397 C   0  0  0  0  0  0  0  0  0  0  0  0
  150.2171  143.2669  156.1413 H   0  0  0  0  0  0  0  0  0  0  0  0
  150.7572  134.2545  154.8384 H   0  0  0  0  0  0  0  0  0  0  0  0
  149.5606  135.3537  155.5248 H   0  0  0  0  0  0  0  0  0  0  0  0
  150.6979  134.5002  156.5838 H   0  0  0  0  0  0  0  0  0  0  0  0
  150.2829  137.2317  156.6463 H   0  0  0  0  0  0  0  0  0  0  0  0
  151.7927  136.7362  157.4072 H   0  0  0  0  0  0  0  0  0  0  0  0
  152.9677  138.1217  155.5004 H   0  0  0  0  0  0  0  0  0  0  0  0
  151.4108  138.8370  155.2181 H   0  0  0  0  0  0  0  0  0  0  0  0
  153.3877  137.0902  157.7702 H   0  0  0  0  0  0  0  0  0  0  0  0
  152.4625  138.0164  160.6500 H   0  0  0  0  0  0  0  0  0  0  0  0
  152.3710  136.5944  162.9326 H   0  0  0  0  0  0  0  0  0  0  0  0
  153.4581  136.2444  165.1198 H   0  0  0  0  0  0  0  0  0  0  0  0
  155.8253  136.9256  165.4702 H   0  0  0  0  0  0  0  0  0  0  0  0
  157.1059  137.9661  163.6080 H   0  0  0  0  0  0  0  0  0  0  0  0
  156.0346  138.3257  161.4070 H   0  0  0  0  0  0  0  0  0  0  0  0
  152.1850  143.9332  160.2580 H   0  0  0  0  0  0  0  0  0  0  0  0
  153.5316  142.8197  160.0671 H   0  0  0  0  0  0  0  0  0  0  0  0
  152.0448  142.2829  160.8476 H   0  0  0  0  0  0  0  0  0  0  0  0
  1  2  1  0  0  0  0
  1 27  1  0  0  0  0
  1 28  1  0  0  0  0
  1 29  1  0  0  0  0
  2  3  1  0  0  0  0
  3  4  1  0  0  0  0
  3 30  1  0  0  0  0
  3 31  1  0  0  0  0
  4  5  1  0  0  0  0
  4 32  1  0  0  0  0
  4 33  1  0  0  0  0
  5 18  1  0  0  0  0
  5  6  1  0  0  0  0
  6  7  1  0  0  0  0
  6 16  2  0  0  0  0
  7  8  1  0  0  0  0
  7 34  1  0  0  0  0
  8  9  2  0  0  0  0
  9 10  1  0  0  0  0
  9 35  1  0  0  0  0
 10 15  1  0  0  0  0
 10 11  2  0  0  0  0
 11 12  1  0  0  0  0
 11 36  1  0  0  0  0
 12 13  2  0  0  0  0
 12 37  1  0  0  0  0
 13 14  1  0  0  0  0
 13 38  1  0  0  0  0
 14 15  2  0  0  0  0
 14 39  1  0  0  0  0
 15 40  1  0  0  0  0
 16 17  1  0  0  0  0
 17 24  1  0  0  0  0
 17 18  2  0  0  0  0
 18 19  1  0  0  0  0
 19 20  2  0  0  0  0
 19 21  1  0  0  0  0
 21 26  1  0  0  0  0
 21 22  1  0  0  0  0
 22 23  2  0  0  0  0
 22 24  1  0  0  0  0
 24 25  1  0  0  0  0
 25 41  1  0  0  0  0
 25 42  1  0  0  0  0
 25 43  1  0  0  0  0
M  END
> <s_m_source_file>
AV-unprocessed.smi

> <i_m_source_file_index>
481

> <i_lp_mmshare_version>
43012

> <i_f3d_flags>
0

> <s_epik_input>
W0NIM11uMWMoPU8pW25IXWMoPU8pYyhjMTIpbihbQ0gyXVtDSDJdT1tDSDNdKWMobjIpW05IXS9OPVtDSF0vYzNbY0hdW2NIXVtjSF1bY0hdW2NIXTM=

> <s_epik_cmdline>
J2VwaWtfcHl0aG9uJywgJy1waCcsICc3LjAnLCAnLXRuJywgJzgnLCAnLW1hJywgJzIwMCcsICctbWV0YWxfYmluZGluZycsICctaW1hZScsICc8aW5maWxlLm1hZT4nLCAnLW9tYWUnLCAnPG91dGZpbGUubWFlPic=

> <r_epik_Ionization_Penalty>
0.000595515

> <r_epik_Ionization_Penalty_Charging>
0.000305988

> <r_epik_Ionization_Penalty_Neutral>
0.000289528

> <r_epik_State_Penalty>
0.000184189

> <r_epik_Charging_Adjusted_Penalty>
0.000490177

> <i_epik_Tot_Q>
0

> <i_epik_Tot_abs_Q>
0

> <r_epik_Metal_State_Penalty>
0.173754

> <b_epik_Metal_Only>
0

> <s_epik_Chemistry_Notes>
This compound has an imine and may undergo hydrolysis.

> <s_lp_Force_Field>
OPLS_2005

> <r_lp_Energy>
32.4826

> <b_lp_Chiralities_Consistent>
1

> <s_lp_Variant>
AV-unprocessed.smi:481-1

> <Gold.Version>
5.8.1

> <Gold.Id.Protein>
6NUR|6NUR_protein|mol2

> <Gold.PLP.Fitness>
47.5436

> <Gold.PLP.PLP>
-40.6619

> <Gold.PLP.part.hbond>
-3.0000

> <Gold.PLP.part.metal>
0.0000

> <Gold.PLP.part.buried>
-5.7899

> <Gold.PLP.part.nonpolar>
-32.4054

> <Gold.PLP.part.repulsive>
0.4882

> <Gold.PLP.ligand.clash>
0.0000

> <Gold.PLP.ligand.torsion>
0.7260

> <Gold.PLP.Chemscore.Hbond>
2.7360

> <Gold.PLP.Chemscore.CHOScore>
0.0000

> <Gold.PLP.Chemscore.Metal>
0.0000

> <Gold.Chemscore.Hbonds>
donor molecule, donor type, donor heavy atom, donor atom, acceptor molecule, acceptor atom, score
      L1  H    21    26       P1  8028  1.00
      P1  H  7989  7998       L1    20  0.74
      P1  H 10752 10764       L1     2  1.00

> <Gold.PLP.Chemscore.Internal.Correction>
0.1258

> <Gold.Rescore>
     Score         DG    S(hbond)    S(metal)    S(lipo)     H(rot)  DE(clash)    DE(int)     intcor
     18.94     -19.77       2.58        0.00      82.15       1.54       0.06       0.78       ----

> <Gold.Chemscore.Fitness>
18.9432

> <Gold.Chemscore.DG>
-19.7746

> <Gold.Chemscore.ZeroCoef>
-5.4800

> <Gold.Chemscore.Hbond>
2.5828

> <Gold.Chemscore.Metal>
0.0000

> <Gold.Chemscore.Lipo>
82.1537

> <Gold.Chemscore.Internal_Hbond>
0.0000

> <Gold.Chemscore.DEClash>
0.0551

> <Gold.Chemscore.DEInternal>
0.7762

> <Gold.Chemscore.Rot>
1.5406

> <Gold.Chemscore.Internal.Correction>
   9.000000E+99

> <Gold.Chemscore.Hbonds>
donor molecule, donor type, donor heavy atom, donor atom, acceptor molecule, acceptor atom, score
      L1  H    21    26       P1  8028  0.93
      P1  H  7989  7998       L1    20  0.69
      P1  H 10752 10764       L1     2  0.82

> <Gold.Chemscore.Hbond.Weighted>
-8.6266

> <Gold.Chemscore.Metal.Weighted>
-0.0000

> <Gold.Chemscore.Lipo.Weighted>
-9.6120

> <Gold.Chemscore.Internal_Hbond.Weighted>
0.0000

> <Gold.Chemscore.DEClash.Weighted>
0.0551

> <Gold.Chemscore.DEInternal.Weighted>
0.7762

> <Gold.Chemscore.Rot.Weighted>
3.9440

> <Gold.Chemscore.Internal.Correction.Weighted>
   9.000000E+99

> <Gold.Protein.RotatedTorsions>
[ 6907 6896 6895 6894 ] final -151.08 input  -60.11 | X-H torsion
[ 7974 7965 7964 7962 ] final -135.91 input  175.53 | X-H torsion
[ 8008 7997 7996 7995 ] final  -15.17 input   59.86 | X-H torsion
[ 10167 10162 10161 10158 ] final   67.45 input  -65.29 | X-H torsion
[ 10718 10713 10712 10709 ] final  130.69 input   66.30 | X-H torsion
[ 10763 10752 10751 10750 ] final  -40.65 input  -60.55 | X-H torsion
[ 11005 11000 10999 10996 ] final  125.84 input  -57.11 | X-H torsion

> <Gold.Protein.ActiveResidues>
 VAL166  LYS551  ARG553  GLY616  TRP617  ASP618  TYR619  PRO620  LYS621  CYS622 
 ASP623  PHE694  ASN695  SER759  ASP760  ASP761  ALA762  ILE779  LEU786  VAL792 
 PHE793  MET794  SER795  GLU796  ALA797  LYS798  CYS799  TRP800  GLU811  SER814 

> <Gold.Protein.RotatedAtoms>
  151.2078  133.4573  159.2597 H   0  0  0  0  0  0  0  0  0  0  0  0  # atno 6907 bound_to 6896
  151.1006  134.9970  159.8457 H   0  0  0  0  0  0  0  0  0  0  0  0  # atno 6908 bound_to 6896
  152.5443  134.2005  159.8763 H   0  0  0  0  0  0  0  0  0  0  0  0  # atno 6909 bound_to 6896
  144.8973  140.6723  143.5107 H   0  0  0  0  0  0  0  0  0  0  0  0  # atno 7974 bound_to 7965
  154.5151  140.2203  155.9081 H   0  0  0  0  0  0  0  0  0  0  0  0  # atno 8008 bound_to 7997
  156.1598  140.3144  155.8753 H   0  0  0  0  0  0  0  0  0  0  0  0  # atno 8009 bound_to 7997
  155.3774  140.0470  157.3035 H   0  0  0  0  0  0  0  0  0  0  0  0  # atno 8010 bound_to 7997
  140.0894  144.5001  150.7109 H   0  0  0  0  0  0  0  0  0  0  0  0  # atno 10167 bound_to 10162
  157.5038  131.1095  150.9390 H   0  0  0  0  0  0  0  0  0  0  0  0  # atno 10718 bound_to 10713
  153.9494  135.6752  153.4744 H   0  0  0  0  0  0  0  0  0  0  0  0  # atno 10763 bound_to 10752
  153.0892  135.4883  154.8653 H   0  0  0  0  0  0  0  0  0  0  0  0  # atno 10764 bound_to 10752
  154.7334  135.3143  154.8812 H   0  0  0  0  0  0  0  0  0  0  0  0  # atno 10765 bound_to 10752
  139.9426  134.9633  156.8618 H   0  0  0  0  0  0  0  0  0  0  0  0  # atno 11005 bound_to 11000
  145.3678  139.1666  143.4348 LP  0  0  0  0  0  0  0  0  0  0  0  0  # atno 17320 bound_to 7965
  146.3088  140.3747  142.8677 LP  0  0  0  0  0  0  0  0  0  0  0  0  # atno 17321 bound_to 7965
  140.7036  143.2452  151.4791 LP  0  0  0  0  0  0  0  0  0  0  0  0  # atno 17342 bound_to 10162
  139.5733  144.1877  152.1868 LP  0  0  0  0  0  0  0  0  0  0  0  0  # atno 17343 bound_to 10162
  157.0052  130.5615  149.5315 LP  0  0  0  0  0  0  0  0  0  0  0  0  # atno 17370 bound_to 10713
  156.0245  130.5340  150.8369 LP  0  0  0  0  0  0  0  0  0  0  0  0  # atno 17371 bound_to 10713
  140.5913  134.0259  155.7501 LP  0  0  0  0  0  0  0  0  0  0  0  0  # atno 17394 bound_to 11000
  141.1066  133.9683  157.2985 LP  0  0  0  0  0  0  0  0  0  0  0  0  # atno 17395 bound_to 11000

$$$$
