AV-unprocessed.smi:2572|AV-procd|sdf|10110|dock3
  -GOLD-   2272014123D 1   1.00000     0.00000
 Structure written by MMmdl.
 38 39  0  0  0  0  0  0  0  0  1 V2000
  149.4353  135.7382  158.1019 C   0  0  0  0  0  0  0  0  0  0  0  0
  149.6023  135.8585  156.6906 O   0  0  0  0  0  0  0  0  0  0  0  0
  150.4064  136.8916  156.2416 C   0  0  0  0  0  0  0  0  0  0  0  0
  151.8103  136.8741  156.5946 C   0  0  0  0  0  0  0  0  0  0  0  0
  152.6073  137.8743  156.1609 C   0  0  0  0  0  0  0  0  0  0  0  0
  152.0913  138.9718  155.3435 C   0  0  0  0  0  0  0  0  0  0  0  0
  152.7970  139.8912  154.9290 O   0  0  0  0  0  0  0  0  0  0  0  0
  150.7535  138.8816  155.0810 N   0  0  0  0  0  0  0  0  0  0  0  0
  150.0678  139.8905  154.2648 C   0  0  0  0  0  0  0  0  0  0  0  0
  149.4638  141.0192  155.1286 C   0  0  2  0  0  0  0  0  0  0  0  0
  149.1006  142.0948  154.2847 O   0  0  0  0  0  0  0  0  0  0  0  0
  150.4754  141.5493  156.1619 C   0  0  0  0  0  0  0  0  0  0  0  0
  149.8148  142.2079  157.3847 C   0  0  0  0  0  0  0  0  0  0  0  0
  150.8374  142.8141  158.3268 C   0  0  0  0  0  0  0  0  0  0  0  0
  150.9028  144.2132  158.4970 C   0  0  0  0  0  0  0  0  0  0  0  0
  151.8470  144.7750  159.3787 C   0  0  0  0  0  0  0  0  0  0  0  0
  152.7278  143.9402  160.0934 C   0  0  0  0  0  0  0  0  0  0  0  0
  152.6654  142.5432  159.9254 C   0  0  0  0  0  0  0  0  0  0  0  0
  151.7221  141.9808  159.0434 C   0  0  0  0  0  0  0  0  0  0  0  0
  149.9302  137.8589  155.5226 N   0  0  0  0  0  0  0  0  0  0  0  0
  148.7816  134.8916  158.3113 H   0  0  0  0  0  0  0  0  0  0  0  0
  148.9671  136.6250  158.5329 H   0  0  0  0  0  0  0  0  0  0  0  0
  150.3834  135.5507  158.6091 H   0  0  0  0  0  0  0  0  0  0  0  0
  152.2031  136.0681  157.1966 H   0  0  0  0  0  0  0  0  0  0  0  0
  153.6550  137.8651  156.4232 H   0  0  0  0  0  0  0  0  0  0  0  0
  150.8068  140.3160  153.5835 H   0  0  0  0  0  0  0  0  0  0  0  0
  149.3123  139.4504  153.6111 H   0  0  0  0  0  0  0  0  0  0  0  0
  148.5765  140.6596  155.6515 H   0  0  0  0  0  0  0  0  0  0  0  0
  149.0020  142.8728  154.8120 H   0  0  0  0  0  0  0  0  0  0  0  0
  151.0893  140.7184  156.5125 H   0  0  0  0  0  0  0  0  0  0  0  0
  151.1608  142.2519  155.6855 H   0  0  0  0  0  0  0  0  0  0  0  0
  149.1203  142.9871  157.0690 H   0  0  0  0  0  0  0  0  0  0  0  0
  149.2218  141.4726  157.9299 H   0  0  0  0  0  0  0  0  0  0  0  0
  150.2275  144.8584  157.9545 H   0  0  0  0  0  0  0  0  0  0  0  0
  151.8939  145.8463  159.5079 H   0  0  0  0  0  0  0  0  0  0  0  0
  153.4505  144.3709  160.7709 H   0  0  0  0  0  0  0  0  0  0  0  0
  153.3403  141.9026  160.4736 H   0  0  0  0  0  0  0  0  0  0  0  0
  151.6777  140.9083  158.9204 H   0  0  0  0  0  0  0  0  0  0  0  0
  1  2  1  0  0  0  0
  1 21  1  0  0  0  0
  1 22  1  0  0  0  0
  1 23  1  0  0  0  0
  2  3  1  0  0  0  0
  3 20  2  0  0  0  0
  3  4  1  0  0  0  0
  4  5  2  0  0  0  0
  4 24  1  0  0  0  0
  5  6  1  0  0  0  0
  5 25  1  0  0  0  0
  6  7  2  0  0  0  0
  6  8  1  0  0  0  0
  8  9  1  0  0  0  0
  8 20  1  0  0  0  0
  9 10  1  0  0  0  0
  9 26  1  0  0  0  0
  9 27  1  0  0  0  0
 10 11  1  0  0  0  0
 10 12  1  0  0  0  0
 10 28  1  0  0  0  0
 11 29  1  0  0  0  0
 12 13  1  0  0  0  0
 12 30  1  0  0  0  0
 12 31  1  0  0  0  0
 13 14  1  0  0  0  0
 13 32  1  0  0  0  0
 13 33  1  0  0  0  0
 14 19  1  0  0  0  0
 14 15  2  0  0  0  0
 15 16  1  0  0  0  0
 15 34  1  0  0  0  0
 16 17  2  0  0  0  0
 16 35  1  0  0  0  0
 17 18  1  0  0  0  0
 17 36  1  0  0  0  0
 18 19  2  0  0  0  0
 18 37  1  0  0  0  0
 19 38  1  0  0  0  0
M  END
> <s_m_source_file>
AV-unprocessed.smi

> <i_m_source_file_index>
2572

> <i_lp_mmshare_version>
43012

> <i_f3d_flags>
0

> <s_epik_input>
W0NIM11PYzFbY0hdW2NIXWMoPU8pbihuMSlbQ0gyXVtDQEhdKFtPSF0pW0NIMl1bQ0gyXWMyW2NIXVtjSF1bY0hdW2NIXVtjSF0y

> <s_epik_cmdline>
J2VwaWtfcHl0aG9uJywgJy1waCcsICc3LjAnLCAnLXRuJywgJzgnLCAnLW1hJywgJzIwMCcsICctbWV0YWxfYmluZGluZycsICctaW1hZScsICc8aW5maWxlLm1hZT4nLCAnLW9tYWUnLCAnPG91dGZpbGUubWFlPic=

> <r_lp_tautomer_probability>
1

> <r_epik_Ionization_Penalty>
8.48543e-06

> <r_epik_Ionization_Penalty_Charging>
6.90219e-06

> <r_epik_Ionization_Penalty_Neutral>
1.58323e-06

> <r_epik_State_Penalty>
-0

> <r_epik_Charging_Adjusted_Penalty>
6.90219e-06

> <i_epik_Tot_Q>
0

> <i_epik_Tot_abs_Q>
0

> <r_epik_Metal_State_Penalty>
-0

> <b_epik_Metal_Only>
0

> <s_lp_Force_Field>
OPLS_2005

> <r_lp_Energy>
29.9707

> <b_lp_Chiralities_Consistent>
1

> <s_lp_Variant>
AV-unprocessed.smi:2572-1

> <Gold.Version>
5.8.1

> <Gold.Id.Protein>
6NUR|6NUR_protein|mol2

> <Gold.PLP.Fitness>
45.6125

> <Gold.PLP.PLP>
-38.8569

> <Gold.PLP.part.hbond>
-4.0925

> <Gold.PLP.part.metal>
0.0000

> <Gold.PLP.part.buried>
-0.5264

> <Gold.PLP.part.nonpolar>
-33.7145

> <Gold.PLP.part.repulsive>
0.1138

> <Gold.PLP.ligand.clash>
0.0000

> <Gold.PLP.ligand.torsion>
0.7911

> <Gold.PLP.Chemscore.Hbond>
2.7534

> <Gold.PLP.Chemscore.CHOScore>
0.0000

> <Gold.PLP.Chemscore.Metal>
0.0000

> <Gold.Chemscore.Hbonds>
donor molecule, donor type, donor heavy atom, donor atom, acceptor molecule, acceptor atom, score
      L1  H    11    29       P1  8028  1.00
      P1  H  7989  7998       L1     7  0.42
      P1  H  7997  8008       L1     7  1.00
      P1  H  8011  8017       L1    11  0.29

> <Gold.PLP.Chemscore.Internal.Correction>
0.0776

> <Gold.Rescore>
     Score         DG    S(hbond)    S(metal)    S(lipo)     H(rot)  DE(clash)    DE(int)     intcor
     18.32     -19.46       2.45        0.00     104.76       2.52       0.23       0.90       ----

> <Gold.Chemscore.Fitness>
18.3201

> <Gold.Chemscore.DG>
-19.4565

> <Gold.Chemscore.ZeroCoef>
-5.4800

> <Gold.Chemscore.Hbond>
2.4473

> <Gold.Chemscore.Metal>
0.0000

> <Gold.Chemscore.Lipo>
104.7573

> <Gold.Chemscore.Internal_Hbond>
0.0000

> <Gold.Chemscore.DEClash>
0.2325

> <Gold.Chemscore.DEInternal>
0.9038

> <Gold.Chemscore.Rot>
2.5212

> <Gold.Chemscore.Internal.Correction>
   9.000000E+99

> <Gold.Chemscore.Hbonds>
donor molecule, donor type, donor heavy atom, donor atom, acceptor molecule, acceptor atom, score
      L1  H    11    29       P1  8028  0.94
      P1  H  7989  7998       L1     7  0.25
      P1  H  7997  8008       L1     7  0.90
      P1  H  8011  8017       L1    11  0.25

> <Gold.Chemscore.Hbond.Weighted>
-8.1741

> <Gold.Chemscore.Metal.Weighted>
-0.0000

> <Gold.Chemscore.Lipo.Weighted>
-12.2566

> <Gold.Chemscore.Internal_Hbond.Weighted>
0.0000

> <Gold.Chemscore.DEClash.Weighted>
0.2325

> <Gold.Chemscore.DEInternal.Weighted>
0.9038

> <Gold.Chemscore.Rot.Weighted>
6.4543

> <Gold.Chemscore.Internal.Correction.Weighted>
   9.000000E+99

> <Gold.Protein.RotatedTorsions>
[ 6907 6896 6895 6894 ] final -178.09 input  -60.11 | X-H torsion
[ 7974 7965 7964 7962 ] final  -99.62 input  175.53 | X-H torsion
[ 8008 7997 7996 7995 ] final  -18.68 input   59.86 | X-H torsion
[ 10167 10162 10161 10158 ] final -107.58 input  -65.29 | X-H torsion
[ 10718 10713 10712 10709 ] final    4.43 input   66.30 | X-H torsion
[ 10763 10752 10751 10750 ] final   37.76 input  -60.55 | X-H torsion
[ 11005 11000 10999 10996 ] final  163.76 input  -57.11 | X-H torsion

> <Gold.Protein.ActiveResidues>
 VAL166  LYS551  ARG553  GLY616  TRP617  ASP618  TYR619  PRO620  LYS621  CYS622 
 ASP623  PHE694  ASN695  SER759  ASP760  ASP761  ALA762  ILE779  LEU786  VAL792 
 PHE793  MET794  SER795  GLU796  ALA797  LYS798  CYS799  TRP800  GLU811  SER814 

> <Gold.Protein.RotatedAtoms>
  151.6316  133.3331  159.3109 H   0  0  0  0  0  0  0  0  0  0  0  0  # atno 6907 bound_to 6896
  150.8053  134.7178  159.6650 H   0  0  0  0  0  0  0  0  0  0  0  0  # atno 6908 bound_to 6896
  152.4148  134.6065  160.0065 H   0  0  0  0  0  0  0  0  0  0  0  0  # atno 6909 bound_to 6896
  145.3052  140.9387  143.2801 H   0  0  0  0  0  0  0  0  0  0  0  0  # atno 7974 bound_to 7965
  154.4889  140.2109  155.9593 H   0  0  0  0  0  0  0  0  0  0  0  0  # atno 8008 bound_to 7997
  156.1276  140.3202  155.8269 H   0  0  0  0  0  0  0  0  0  0  0  0  # atno 8009 bound_to 7997
  155.4355  140.0506  157.3005 H   0  0  0  0  0  0  0  0  0  0  0  0  # atno 8010 bound_to 7997
  140.1754  143.4009  152.1322 H   0  0  0  0  0  0  0  0  0  0  0  0  # atno 10167 bound_to 10162
  156.8926  130.5693  149.5649 H   0  0  0  0  0  0  0  0  0  0  0  0  # atno 10718 bound_to 10713
  153.0025  135.6268  154.2196 H   0  0  0  0  0  0  0  0  0  0  0  0  # atno 10763 bound_to 10752
  154.1939  135.2807  155.3014 H   0  0  0  0  0  0  0  0  0  0  0  0  # atno 10764 bound_to 10752
  154.5737  135.5668  153.7179 H   0  0  0  0  0  0  0  0  0  0  0  0  # atno 10765 bound_to 10752
  140.2390  134.8065  157.3392 H   0  0  0  0  0  0  0  0  0  0  0  0  # atno 11005 bound_to 11000
  144.9061  139.4588  143.6609 LP  0  0  0  0  0  0  0  0  0  0  0  0  # atno 17320 bound_to 7965
  146.3138  139.7842  142.8999 LP  0  0  0  0  0  0  0  0  0  0  0  0  # atno 17321 bound_to 7965
  139.5319  144.7168  151.5026 LP  0  0  0  0  0  0  0  0  0  0  0  0  # atno 17342 bound_to 10162
  140.6555  143.8609  150.6830 LP  0  0  0  0  0  0  0  0  0  0  0  0  # atno 17343 bound_to 10162
  156.0622  130.5672  150.9215 LP  0  0  0  0  0  0  0  0  0  0  0  0  # atno 17370 bound_to 10713
  157.6075  131.0938  150.8854 LP  0  0  0  0  0  0  0  0  0  0  0  0  # atno 17371 bound_to 10713
  140.1672  134.4654  155.7855 LP  0  0  0  0  0  0  0  0  0  0  0  0  # atno 17394 bound_to 11000
  141.2212  133.6926  156.7646 LP  0  0  0  0  0  0  0  0  0  0  0  0  # atno 17395 bound_to 11000

$$$$
