AV-unprocessed.smi:2032|AV-procd|sdf|8252|dock5
  -GOLD-   2272010523D 1   1.00000     0.00000
 Structure written by MMmdl.
 42 43  0  0  0  0  0  0  0  0  3 V2000
  148.8878  141.4258  154.7577 C   0  0  0  0  0  0  0  0  0  0  0  0
  149.4325  140.0200  155.0334 C   0  0  1  0  0  0  0  0  0  0  0  0
  148.8430  138.9724  154.0648 C   0  0  0  0  0  0  0  0  0  0  0  0
  149.4313  137.6251  154.3022 N   0  3  2  0  0  0  0  0  0  0  0  0
  148.9592  136.9182  155.5427 C   0  0  2  0  0  0  0  0  0  0  0  0
  148.5804  135.4450  155.2534 C   0  0  0  0  0  0  0  0  0  0  0  0
  147.7609  137.6496  156.2110 C   0  0  0  0  0  0  0  0  0  0  0  0
  147.9231  137.8070  157.6535 N   0  0  0  0  0  0  0  0  0  0  0  0
  147.1715  137.2133  158.5918 C   0  0  0  0  0  0  0  0  0  0  0  0
  146.2669  136.4442  158.2578 O   0  0  0  0  0  0  0  0  0  0  0  0
  147.5088  137.5545  159.8553 N   0  5  0  0  0  0  0  0  0  0  0  0
  147.4077  136.6508  160.8435 C   0  0  0  0  0  0  0  0  0  0  0  0
  147.5221  136.9685  162.1379 N   0  0  0  0  0  0  0  0  0  0  0  0
  147.3783  135.8741  162.9928 C   0  0  0  0  0  0  0  0  0  0  0  0
  147.1406  134.6971  162.3338 C   0  0  0  0  0  0  0  0  0  0  0  0
  147.0888  134.9297  160.6098 S   0  0  0  0  0  0  0  0  0  0  0  0
  150.9082  137.7454  154.1570 C   0  0  0  0  0  0  0  0  0  0  0  0
  151.4797  138.8057  155.1235 C   0  0  1  0  0  0  0  0  0  0  0  0
  152.9899  138.9938  154.9412 C   0  0  0  0  0  0  0  0  0  0  0  0
  150.8472  140.0563  154.8657 O   0  0  0  0  0  0  0  0  0  0  0  0
  147.8048  141.4575  154.8798 H   0  0  0  0  0  0  0  0  0  0  0  0
  149.1200  141.7480  153.7422 H   0  0  0  0  0  0  0  0  0  0  0  0
  149.3199  142.1533  155.4452 H   0  0  0  0  0  0  0  0  0  0  0  0
  149.1961  139.7616  156.0664 H   0  0  0  0  0  0  0  0  0  0  0  0
  147.7566  138.9710  154.0967 H   0  0  0  0  0  0  0  0  0  0  0  0
  149.0838  139.2657  153.0417 H   0  0  0  0  0  0  0  0  0  0  0  0
  149.7796  136.9006  156.2588 H   0  0  0  0  0  0  0  0  0  0  0  0
  148.1482  134.9535  156.1244 H   0  0  0  0  0  0  0  0  0  0  0  0
  149.4462  134.8397  154.9884 H   0  0  0  0  0  0  0  0  0  0  0  0
  147.8521  135.3745  154.4451 H   0  0  0  0  0  0  0  0  0  0  0  0
  147.6063  138.6492  155.8091 H   0  0  0  0  0  0  0  0  0  0  0  0
  146.8387  137.0967  156.0310 H   0  0  0  0  0  0  0  0  0  0  0  0
  148.6566  138.4247  157.9694 H   0  0  0  0  0  0  0  0  0  0  0  0
  147.4587  136.0249  164.0590 H   0  0  0  0  0  0  0  0  0  0  0  0
  146.9917  133.7140  162.7539 H   0  0  0  0  0  0  0  0  0  0  0  0
  151.4179  136.7907  154.2675 H   0  0  0  0  0  0  0  0  0  0  0  0
  151.1201  138.0515  153.1314 H   0  0  0  0  0  0  0  0  0  0  0  0
  151.2960  138.5157  156.1587 H   0  0  0  0  0  0  0  0  0  0  0  0
  153.5277  138.0674  155.1442 H   0  0  0  0  0  0  0  0  0  0  0  0
  153.3727  139.7550  155.6214 H   0  0  0  0  0  0  0  0  0  0  0  0
  153.2304  139.3049  153.9241 H   0  0  0  0  0  0  0  0  0  0  0  0
  149.1210  137.0441  153.5367 H   0  0  0  0  0  0  0  0  0  0  0  0
  1  2  1  0  0  0  0
  1 21  1  0  0  0  0
  1 22  1  0  0  0  0
  1 23  1  0  0  0  0
  2 20  1  0  0  0  0
  2  3  1  0  0  0  0
  2 24  1  0  0  0  0
  3  4  1  0  0  0  0
  3 25  1  0  0  0  0
  3 26  1  0  0  0  0
  4  5  1  0  0  0  0
  4 17  1  0  0  0  0
  4 42  1  0  0  0  0
  5  6  1  0  0  0  0
  5  7  1  0  0  0  0
  5 27  1  0  0  0  0
  6 28  1  0  0  0  0
  6 29  1  0  0  0  0
  6 30  1  0  0  0  0
  7  8  1  0  0  0  0
  7 31  1  0  0  0  0
  7 32  1  0  0  0  0
  8  9  1  0  0  0  0
  8 33  1  0  0  0  0
  9 10  2  0  0  0  0
  9 11  1  0  0  0  0
 11 12  1  0  0  0  0
 12 16  1  0  0  0  0
 12 13  2  0  0  0  0
 13 14  1  0  0  0  0
 14 15  2  0  0  0  0
 14 34  1  0  0  0  0
 15 16  1  0  0  0  0
 15 35  1  0  0  0  0
 17 18  1  0  0  0  0
 17 36  1  0  0  0  0
 17 37  1  0  0  0  0
 18 19  1  0  0  0  0
 18 20  1  0  0  0  0
 18 38  1  0  0  0  0
 19 39  1  0  0  0  0
 19 40  1  0  0  0  0
 19 41  1  0  0  0  0
M  CHG  1   4   1
M  CHG  1  11  -1
M  END
> <s_m_source_file>
AV-unprocessed.smi

> <i_m_source_file_index>
2032

> <i_lp_mmshare_version>
43012

> <i_f3d_flags>
0

> <s_epik_input>
W0NIM11bQ0BASF0xW0NIMl1OKFtDSDJdW0NASF0oTzEpW0NIM10pW0NASF0oW0NIM10pW0NIMl1bTkhdQyg9TylbTkhdYzJuW2NIXVtjSF1zMg==

> <s_epik_cmdline>
J2VwaWtfcHl0aG9uJywgJy1waCcsICc3LjAnLCAnLXRuJywgJzgnLCAnLW1hJywgJzIwMCcsICctbWV0YWxfYmluZGluZycsICctaW1hZScsICc8aW5maWxlLm1hZT4nLCAnLW9tYWUnLCAnPG91dGZpbGUubWFlPic=

> <r_lp_tautomer_probability>
0.999

> <r_epik_Ionization_Penalty>
6.71699

> <r_epik_Ionization_Penalty_Charging>
5.88592

> <r_epik_Ionization_Penalty_Neutral>
0.831074

> <r_epik_State_Penalty>
6.08365

> <r_epik_Charging_Adjusted_Penalty>
11.9696

> <i_epik_Tot_Q>
0

> <i_epik_Tot_abs_Q>
2

> <r_epik_Metal_State_Penalty>
2.0947

> <b_epik_Metal_Only>
1

> <s_lp_Force_Field>
OPLS_2005

> <r_lp_Energy>
10.9101

> <b_lp_Chiralities_Consistent>
1

> <s_lp_Variant>
AV-unprocessed.smi:2032-22

> <Gold.Version>
5.8.1

> <Gold.Id.Protein>
6NUR|6NUR_protein|mol2

> <Gold.PLP.Fitness>
46.7111

> <Gold.PLP.PLP>
-34.9928

> <Gold.PLP.part.hbond>
-4.5407

> <Gold.PLP.part.metal>
0.0000

> <Gold.PLP.part.buried>
-3.6198

> <Gold.PLP.part.nonpolar>
-28.3973

> <Gold.PLP.part.repulsive>
0.1234

> <Gold.PLP.ligand.clash>
0.2339

> <Gold.PLP.ligand.torsion>
2.1863

> <Gold.PLP.Chemscore.Hbond>
5.4180

> <Gold.PLP.Chemscore.CHOScore>
0.0000

> <Gold.PLP.Chemscore.Metal>
0.0000

> <Gold.Chemscore.Hbonds>
donor molecule, donor type, donor heavy atom, donor atom, acceptor molecule, acceptor atom, score
      L1  H     4    42       P1  7948  2.00
      P1  H  6931  6943       L1    13  0.85
      P1  H  6934  6947       L1    11  1.39
      P1  H  7989  7998       L1    20  1.00

> <Gold.PLP.Chemscore.Internal.Correction>
0.0708

> <Gold.Rescore>
     Score         DG    S(hbond)    S(metal)    S(lipo)     H(rot)  DE(clash)    DE(int)     intcor
     14.89     -18.34       2.39        0.00      76.33       1.58       0.20       3.24       ----

> <Gold.Chemscore.Fitness>
14.8945

> <Gold.Chemscore.DG>
-18.3429

> <Gold.Chemscore.ZeroCoef>
-5.4800

> <Gold.Chemscore.Hbond>
2.3876

> <Gold.Chemscore.Metal>
0.0000

> <Gold.Chemscore.Lipo>
76.3319

> <Gold.Chemscore.Internal_Hbond>
0.0000

> <Gold.Chemscore.DEClash>
0.2039

> <Gold.Chemscore.DEInternal>
3.2445

> <Gold.Chemscore.Rot>
1.5791

> <Gold.Chemscore.Internal.Correction>
   9.000000E+99

> <Gold.Chemscore.Hbonds>
donor molecule, donor type, donor heavy atom, donor atom, acceptor molecule, acceptor atom, score
      L1  H     4    42       P1  7948  1.00
      P1  H  6931  6943       L1    13  0.14
      P1  H  6934  6947       L1    11  0.12
      P1  H  7989  7998       L1    20  0.74

> <Gold.Chemscore.Hbond.Weighted>
-7.9746

> <Gold.Chemscore.Metal.Weighted>
-0.0000

> <Gold.Chemscore.Lipo.Weighted>
-8.9308

> <Gold.Chemscore.Internal_Hbond.Weighted>
0.0000

> <Gold.Chemscore.DEClash.Weighted>
0.2039

> <Gold.Chemscore.DEInternal.Weighted>
3.2445

> <Gold.Chemscore.Rot.Weighted>
4.0425

> <Gold.Chemscore.Internal.Correction.Weighted>
   9.000000E+99

> <Gold.Protein.RotatedTorsions>
[ 6907 6896 6895 6894 ] final  -51.92 input  -60.11 | X-H torsion
[ 7974 7965 7964 7962 ] final  -26.67 input  175.53 | X-H torsion
[ 8008 7997 7996 7995 ] final  -39.45 input   59.86 | X-H torsion
[ 10167 10162 10161 10158 ] final   66.97 input  -65.29 | X-H torsion
[ 10718 10713 10712 10709 ] final -144.80 input   66.30 | X-H torsion
[ 10763 10752 10751 10750 ] final   68.32 input  -60.55 | X-H torsion
[ 11005 11000 10999 10996 ] final  154.69 input  -57.11 | X-H torsion

> <Gold.Protein.ActiveResidues>
 VAL166  LYS551  ARG553  GLY616  TRP617  ASP618  TYR619  PRO620  LYS621  CYS622 
 ASP623  PHE694  ASN695  SER759  ASP760  ASP761  ALA762  ILE779  LEU786  VAL792 
 PHE793  MET794  SER795  GLU796  ALA797  LYS798  CYS799  TRP800  GLU811  SER814 

> <Gold.Protein.RotatedAtoms>
  150.8566  134.7906  159.7049 H   0  0  0  0  0  0  0  0  0  0  0  0  # atno 6907 bound_to 6896
  152.4615  134.5169  159.9780 H   0  0  0  0  0  0  0  0  0  0  0  0  # atno 6908 bound_to 6896
  151.5280  133.3416  159.2949 H   0  0  0  0  0  0  0  0  0  0  0  0  # atno 6909 bound_to 6896
  146.1410  140.5051  142.8652 H   0  0  0  0  0  0  0  0  0  0  0  0  # atno 7974 bound_to 7965
  154.4023  140.1551  156.2866 H   0  0  0  0  0  0  0  0  0  0  0  0  # atno 8008 bound_to 7997
  155.8822  140.3443  155.5874 H   0  0  0  0  0  0  0  0  0  0  0  0  # atno 8009 bound_to 7997
  155.7654  140.0823  157.2125 H   0  0  0  0  0  0  0  0  0  0  0  0  # atno 8010 bound_to 7997
  140.0946  144.4958  150.7076 H   0  0  0  0  0  0  0  0  0  0  0  0  # atno 10167 bound_to 10162
  156.3746  130.7805  151.1990 H   0  0  0  0  0  0  0  0  0  0  0  0  # atno 10718 bound_to 10713
  153.0229  135.5252  154.7115 H   0  0  0  0  0  0  0  0  0  0  0  0  # atno 10763 bound_to 10752
  154.6196  135.2887  155.0343 H   0  0  0  0  0  0  0  0  0  0  0  0  # atno 10764 bound_to 10752
  154.1334  135.6589  153.4979 H   0  0  0  0  0  0  0  0  0  0  0  0  # atno 10765 bound_to 10752
  140.1512  134.8673  157.2457 H   0  0  0  0  0  0  0  0  0  0  0  0  # atno 11005 bound_to 11000
  144.7792  140.5804  143.6617 LP  0  0  0  0  0  0  0  0  0  0  0  0  # atno 17320 bound_to 7965
  145.5048  139.1481  143.3637 LP  0  0  0  0  0  0  0  0  0  0  0  0  # atno 17321 bound_to 7965
  140.7010  143.2435  151.4864 LP  0  0  0  0  0  0  0  0  0  0  0  0  # atno 17342 bound_to 10162
  139.5705  144.1939  152.1829 LP  0  0  0  0  0  0  0  0  0  0  0  0  # atno 17343 bound_to 10162
  157.7487  131.0362  150.4399 LP  0  0  0  0  0  0  0  0  0  0  0  0  # atno 17370 bound_to 10713
  156.4632  130.4036  149.6563 LP  0  0  0  0  0  0  0  0  0  0  0  0  # atno 17371 bound_to 10713
  140.2602  134.3580  155.7409 LP  0  0  0  0  0  0  0  0  0  0  0  0  # atno 17394 bound_to 11000
  141.2199  133.7365  156.9068 LP  0  0  0  0  0  0  0  0  0  0  0  0  # atno 17395 bound_to 11000

$$$$
