AV-unprocessed.smi:2467|AV-procd|sdf|9728|dock6
  -GOLD-   2272013373D 1   1.00000     0.00000
 Structure written by MMmdl.
 46 47  0  0  0  0  0  0  0  0  1 V2000
  152.8122  139.3189  154.4028 C   0  0  0  0  0  0  0  0  0  0  0  0
  151.2967  139.0841  154.4982 C   0  0  0  0  0  0  0  0  0  0  0  0
  150.4154  140.2749  154.0363 C   0  0  0  0  0  0  0  0  0  0  0  0
  150.3310  141.3464  155.1574 C   0  0  0  0  0  0  0  0  0  0  0  0
  150.0050  140.8262  156.5637 C   0  0  0  0  0  0  0  0  0  0  0  0
  149.0008  139.8109  153.5759 C   0  0  1  0  0  0  0  0  0  0  0  0
  148.1661  139.1806  154.7196 C   0  0  0  0  0  0  0  0  0  0  0  0
  146.7962  138.6979  154.2179 C   0  0  2  0  0  0  0  0  0  0  0  0
  146.9754  137.5365  153.3516 N   0  0  0  0  0  0  0  0  0  0  0  0
  146.0407  136.6347  153.0155 C   0  0  0  0  0  0  0  0  0  0  0  0
  144.8786  136.7011  153.4124 O   0  0  0  0  0  0  0  0  0  0  0  0
  146.4478  135.6354  152.2027 N   0  0  0  0  0  0  0  0  0  0  0  0
  145.7458  134.5217  151.6496 C   0  0  0  0  0  0  0  0  0  0  0  0
  146.5776  133.4993  151.1389 C   0  0  0  0  0  0  0  0  0  0  0  0
  145.9980  132.3508  150.5653 C   0  0  0  0  0  0  0  0  0  0  0  0
  144.5964  132.2510  150.5154 C   0  0  0  0  0  0  0  0  0  0  0  0
  143.8384  133.3107  151.0446 C   0  0  0  0  0  0  0  0  0  0  0  0
  144.3932  134.4112  151.5944 N   0  0  0  0  0  0  0  0  0  0  0  0
  146.0869  139.8499  153.4858 C   0  0  0  0  0  0  0  0  0  0  0  0
  147.0126  140.5027  152.4465 C   0  0  0  0  0  0  0  0  0  0  0  0
  148.2323  140.9015  153.0654 O   0  0  0  0  0  0  0  0  0  0  0  0
  153.3545  138.3940  154.6000 H   0  0  0  0  0  0  0  0  0  0  0  0
  153.1602  140.0522  155.1294 H   0  0  0  0  0  0  0  0  0  0  0  0
  153.0976  139.6617  153.4080 H   0  0  0  0  0  0  0  0  0  0  0  0
  151.0852  138.2135  153.8771 H   0  0  0  0  0  0  0  0  0  0  0  0
  151.0348  138.8003  155.5184 H   0  0  0  0  0  0  0  0  0  0  0  0
  150.9208  140.7187  153.1773 H   0  0  0  0  0  0  0  0  0  0  0  0
  151.2652  141.9080  155.1973 H   0  0  0  0  0  0  0  0  0  0  0  0
  149.5574  142.0711  154.9087 H   0  0  0  0  0  0  0  0  0  0  0  0
  149.8499  141.6575  157.2516 H   0  0  0  0  0  0  0  0  0  0  0  0
  150.8184  140.2256  156.9700 H   0  0  0  0  0  0  0  0  0  0  0  0
  149.0956  140.2252  156.5635 H   0  0  0  0  0  0  0  0  0  0  0  0
  149.1314  139.0952  152.7623 H   0  0  0  0  0  0  0  0  0  0  0  0
  148.6889  138.3541  155.1966 H   0  0  0  0  0  0  0  0  0  0  0  0
  148.0157  139.9255  155.5022 H   0  0  0  0  0  0  0  0  0  0  0  0
  146.1964  138.3950  155.0779 H   0  0  0  0  0  0  0  0  0  0  0  0
  147.9024  137.3990  152.9735 H   0  0  0  0  0  0  0  0  0  0  0  0
  147.4196  135.6890  151.9335 H   0  0  0  0  0  0  0  0  0  0  0  0
  147.6534  133.5899  151.1842 H   0  0  0  0  0  0  0  0  0  0  0  0
  146.6191  131.5602  150.1708 H   0  0  0  0  0  0  0  0  0  0  0  0
  144.1152  131.3860  150.0837 H   0  0  0  0  0  0  0  0  0  0  0  0
  142.7590  133.2762  151.0270 H   0  0  0  0  0  0  0  0  0  0  0  0
  145.1660  139.5059  153.0135 H   0  0  0  0  0  0  0  0  0  0  0  0
  145.7913  140.6045  154.2155 H   0  0  0  0  0  0  0  0  0  0  0  0
  147.2146  139.8223  151.6179 H   0  0  0  0  0  0  0  0  0  0  0  0
  146.5311  141.3830  152.0208 H   0  0  0  0  0  0  0  0  0  0  0  0
  1  2  1  0  0  0  0
  1 22  1  0  0  0  0
  1 23  1  0  0  0  0
  1 24  1  0  0  0  0
  2  3  1  0  0  0  0
  2 25  1  0  0  0  0
  2 26  1  0  0  0  0
  3  4  1  0  0  0  0
  3  6  1  0  0  0  0
  3 27  1  0  0  0  0
  4  5  1  0  0  0  0
  4 28  1  0  0  0  0
  4 29  1  0  0  0  0
  5 30  1  0  0  0  0
  5 31  1  0  0  0  0
  5 32  1  0  0  0  0
  6 21  1  0  0  0  0
  6  7  1  0  0  0  0
  6 33  1  0  0  0  0
  7  8  1  0  0  0  0
  7 34  1  0  0  0  0
  7 35  1  0  0  0  0
  8  9  1  0  0  0  0
  8 19  1  0  0  0  0
  8 36  1  0  0  0  0
  9 10  1  0  0  0  0
  9 37  1  0  0  0  0
 10 11  2  0  0  0  0
 10 12  1  0  0  0  0
 12 13  1  0  0  0  0
 12 38  1  0  0  0  0
 13 18  1  0  0  0  0
 13 14  2  0  0  0  0
 14 15  1  0  0  0  0
 14 39  1  0  0  0  0
 15 16  2  0  0  0  0
 15 40  1  0  0  0  0
 16 17  1  0  0  0  0
 16 41  1  0  0  0  0
 17 18  2  0  0  0  0
 17 42  1  0  0  0  0
 19 20  1  0  0  0  0
 19 43  1  0  0  0  0
 19 44  1  0  0  0  0
 20 21  1  0  0  0  0
 20 45  1  0  0  0  0
 20 46  1  0  0  0  0
M  END
> <s_m_source_file>
AV-unprocessed.smi

> <i_m_source_file_index>
2467

> <i_lp_mmshare_version>
43012

> <i_f3d_flags>
0

> <s_epik_input>
W0NIM11bQ0gyXVtDSF0oW0NIMl1bQ0gzXSlbQ0BASF0xW0NIMl1bQ0BIXShbQ0gyXVtDSDJdTzEpW05IXUMoPU8pW05IXWMyW2NIXVtjSF1bY0hdW2NIXW4y

> <s_epik_cmdline>
J2VwaWtfcHl0aG9uJywgJy1waCcsICc3LjAnLCAnLXRuJywgJzgnLCAnLW1hJywgJzIwMCcsICctbWV0YWxfYmluZGluZycsICctaW1hZScsICc8aW5maWxlLm1hZT4nLCAnLW9tYWUnLCAnPG91dGZpbGUubWFlPic=

> <r_lp_tautomer_probability>
1

> <r_epik_Ionization_Penalty>
4.80427e-05

> <r_epik_Ionization_Penalty_Charging>
0

> <r_epik_Ionization_Penalty_Neutral>
4.80427e-05

> <r_epik_State_Penalty>
-0

> <r_epik_Charging_Adjusted_Penalty>
0

> <i_epik_Tot_Q>
0

> <i_epik_Tot_abs_Q>
0

> <r_epik_Metal_State_Penalty>
-0

> <b_epik_Metal_Only>
0

> <s_lp_Force_Field>
OPLS_2005

> <r_lp_Energy>
20.8854

> <b_lp_Chiralities_Consistent>
1

> <s_lp_Variant>
AV-unprocessed.smi:2467-4

> <Gold.Version>
5.8.1

> <Gold.Id.Protein>
6NUR|6NUR_protein|mol2

> <Gold.PLP.Fitness>
41.3816

> <Gold.PLP.PLP>
-34.0443

> <Gold.PLP.part.hbond>
-2.0000

> <Gold.PLP.part.metal>
0.0000

> <Gold.PLP.part.buried>
-3.2602

> <Gold.PLP.part.nonpolar>
-29.4860

> <Gold.PLP.part.repulsive>
0.3662

> <Gold.PLP.ligand.clash>
0.0000

> <Gold.PLP.ligand.torsion>
0.6507

> <Gold.PLP.Chemscore.Hbond>
1.8800

> <Gold.PLP.Chemscore.CHOScore>
0.9851

> <Gold.PLP.Chemscore.Metal>
0.0000

> <Gold.Chemscore.Hbonds>
donor molecule, donor type, donor heavy atom, donor atom, acceptor molecule, acceptor atom, score
      L1  H     9    37       P1  7948  0.86
      L1  H    12    38       P1  7948  1.00
      P1  H  8011  8017       L1    21  0.34
      L1  C    17    42       P1 10186  0.94

> <Gold.PLP.Chemscore.Internal.Correction>
0.0435

> <Gold.Rescore>
     Score         DG    S(hbond)    S(metal)    S(lipo)     H(rot)  DE(clash)    DE(int)     intcor
     16.46     -17.54       1.82        0.00      83.65       1.49       0.16       0.91       ----

> <Gold.Chemscore.Fitness>
16.4631

> <Gold.Chemscore.DG>
-17.5354

> <Gold.Chemscore.ZeroCoef>
-5.4800

> <Gold.Chemscore.Hbond>
1.8179

> <Gold.Chemscore.Metal>
0.0000

> <Gold.Chemscore.Lipo>
83.6463

> <Gold.Chemscore.Internal_Hbond>
0.0000

> <Gold.Chemscore.DEClash>
0.1646

> <Gold.Chemscore.DEInternal>
0.9077

> <Gold.Chemscore.Rot>
1.4856

> <Gold.Chemscore.Internal.Correction>
   9.000000E+99

> <Gold.Chemscore.Hbonds>
donor molecule, donor type, donor heavy atom, donor atom, acceptor molecule, acceptor atom, score
      L1  H     9    37       P1  7948  0.86
      L1  H    12    38       P1  7948  0.98
      P1  H  8011  8017       L1    21  0.17

> <Gold.Chemscore.Hbond.Weighted>
-6.0718

> <Gold.Chemscore.Metal.Weighted>
-0.0000

> <Gold.Chemscore.Lipo.Weighted>
-9.7866

> <Gold.Chemscore.Internal_Hbond.Weighted>
0.0000

> <Gold.Chemscore.DEClash.Weighted>
0.1646

> <Gold.Chemscore.DEInternal.Weighted>
0.9077

> <Gold.Chemscore.Rot.Weighted>
3.8031

> <Gold.Chemscore.Internal.Correction.Weighted>
   9.000000E+99

> <Gold.Protein.RotatedTorsions>
[ 6907 6896 6895 6894 ] final  133.67 input  -60.11 | X-H torsion
[ 7974 7965 7964 7962 ] final   57.48 input  175.53 | X-H torsion
[ 8008 7997 7996 7995 ] final   17.99 input   59.86 | X-H torsion
[ 10167 10162 10161 10158 ] final   75.67 input  -65.29 | X-H torsion
[ 10718 10713 10712 10709 ] final   61.80 input   66.30 | X-H torsion
[ 10763 10752 10751 10750 ] final  171.80 input  -60.55 | X-H torsion
[ 11005 11000 10999 10996 ] final  103.54 input  -57.11 | X-H torsion

> <Gold.Protein.ActiveResidues>
 VAL166  LYS551  ARG553  GLY616  TRP617  ASP618  TYR619  PRO620  LYS621  CYS622 
 ASP623  PHE694  ASN695  SER759  ASP760  ASP761  ALA762  ILE779  LEU786  VAL792 
 PHE793  MET794  SER795  GLU796  ALA797  LYS798  CYS799  TRP800  GLU811  SER814 

> <Gold.Protein.RotatedAtoms>
  152.3195  133.5838  159.5734 H   0  0  0  0  0  0  0  0  0  0  0  0  # atno 6907 bound_to 6896
  150.7364  134.0033  159.3654 H   0  0  0  0  0  0  0  0  0  0  0  0  # atno 6908 bound_to 6896
  151.7918  135.0734  160.0439 H   0  0  0  0  0  0  0  0  0  0  0  0  # atno 6909 bound_to 6896
  145.9286  139.3788  143.0435 H   0  0  0  0  0  0  0  0  0  0  0  0  # atno 7974 bound_to 7965
  154.8995  140.2998  155.5325 H   0  0  0  0  0  0  0  0  0  0  0  0  # atno 8008 bound_to 7997
  156.3019  140.2409  156.3956 H   0  0  0  0  0  0  0  0  0  0  0  0  # atno 8009 bound_to 7997
  154.8536  140.0408  157.1609 H   0  0  0  0  0  0  0  0  0  0  0  0  # atno 8010 bound_to 7997
  140.0004  144.5690  150.7742 H   0  0  0  0  0  0  0  0  0  0  0  0  # atno 10167 bound_to 10162
  157.5854  130.9015  149.9506 H   0  0  0  0  0  0  0  0  0  0  0  0  # atno 10718 bound_to 10713
  154.4171  135.2757  155.2000 H   0  0  0  0  0  0  0  0  0  0  0  0  # atno 10763 bound_to 10752
  154.3961  135.6055  153.5874 H   0  0  0  0  0  0  0  0  0  0  0  0  # atno 10764 bound_to 10752
  152.9832  135.5915  154.4461 H   0  0  0  0  0  0  0  0  0  0  0  0  # atno 10765 bound_to 10752
  139.8784  134.9267  156.5226 H   0  0  0  0  0  0  0  0  0  0  0  0  # atno 11005 bound_to 11000
  145.8456  140.9557  143.0776 LP  0  0  0  0  0  0  0  0  0  0  0  0  # atno 17320 bound_to 7965
  144.6762  140.0341  143.7482 LP  0  0  0  0  0  0  0  0  0  0  0  0  # atno 17321 bound_to 7965
  140.7421  143.2827  151.3552 LP  0  0  0  0  0  0  0  0  0  0  0  0  # atno 17342 bound_to 10162
  139.6275  144.0785  152.2447 LP  0  0  0  0  0  0  0  0  0  0  0  0  # atno 17343 bound_to 10162
  156.0903  130.3664  150.0408 LP  0  0  0  0  0  0  0  0  0  0  0  0  # atno 17370 bound_to 10713
  156.8540  130.9469  151.3623 LP  0  0  0  0  0  0  0  0  0  0  0  0  # atno 17371 bound_to 10713
  140.8440  133.8183  155.9102 LP  0  0  0  0  0  0  0  0  0  0  0  0  # atno 17394 bound_to 11000
  140.9210  134.2142  157.4926 LP  0  0  0  0  0  0  0  0  0  0  0  0  # atno 17395 bound_to 11000

$$$$
