AV-unprocessed.smi:2309|AV-procd|sdf|9253|dock6
  -GOLD-   2272012473D 1   1.00000     0.00000
 Structure written by MMmdl.
 34 35  0  0  0  0  0  0  0  0  1 V2000
  152.2810  143.6996  161.6101 C   0  0  0  0  0  0  0  0  0  0  0  0
  151.9945  143.2250  160.1963 C   0  0  0  0  0  0  0  0  0  0  0  0
  151.1679  144.0571  159.4361 N   0  0  0  0  0  0  0  0  0  0  0  0
  150.8689  143.7323  158.2213 C   0  0  0  0  0  0  0  0  0  0  0  0
  151.3556  142.5540  157.6299 N   0  0  0  0  0  0  0  0  0  0  0  0
  150.9351  142.2980  156.2413 C   0  0  0  0  0  0  0  0  0  0  0  0
  150.4191  140.8552  156.0397 C   0  0  2  0  0  0  0  0  0  0  0  0
  151.4746  140.0597  155.5347 O   0  0  0  0  0  0  0  0  0  0  0  0
  149.2029  140.8413  155.1148 C   0  0  0  0  0  0  0  0  0  0  0  0
  148.2581  141.8924  155.1758 C   0  0  0  0  0  0  0  0  0  0  0  0
  147.1269  141.8916  154.3379 C   0  0  0  0  0  0  0  0  0  0  0  0
  145.9876  143.1842  154.4253 Cl  0  0  0  0  0  0  0  0  0  0  0  0
  146.9244  140.8350  153.4317 C   0  0  0  0  0  0  0  0  0  0  0  0
  147.8503  139.7776  153.3711 C   0  0  0  0  0  0  0  0  0  0  0  0
  148.9836  139.7722  154.2090 C   0  0  0  0  0  0  0  0  0  0  0  0
  150.0719  138.4319  154.1085 Cl  0  0  0  0  0  0  0  0  0  0  0  0
  152.1671  141.6866  158.3011 C   0  0  0  0  0  0  0  0  0  0  0  0
  152.5893  140.6547  157.7760 O   0  0  0  0  0  0  0  0  0  0  0  0
  152.4983  142.0693  159.6835 C   0  0  0  0  0  0  0  0  0  0  0  0
  153.4021  141.1235  160.4649 C   0  0  0  0  0  0  0  0  0  0  0  0
  151.9477  142.9590  162.3376 H   0  0  0  0  0  0  0  0  0  0  0  0
  151.7648  144.6357  161.8272 H   0  0  0  0  0  0  0  0  0  0  0  0
  153.3496  143.8682  161.7465 H   0  0  0  0  0  0  0  0  0  0  0  0
  150.2241  144.3437  157.5874 H   0  0  0  0  0  0  0  0  0  0  0  0
  150.1366  143.0006  155.9930 H   0  0  0  0  0  0  0  0  0  0  0  0
  151.7226  142.5288  155.5215 H   0  0  0  0  0  0  0  0  0  0  0  0
  150.1422  140.4148  156.9969 H   0  0  0  0  0  0  0  0  0  0  0  0
  151.6277  139.3465  156.1354 H   0  0  0  0  0  0  0  0  0  0  0  0
  148.3927  142.7075  155.8719 H   0  0  0  0  0  0  0  0  0  0  0  0
  146.0573  140.8308  152.7876 H   0  0  0  0  0  0  0  0  0  0  0  0
  147.6865  138.9634  152.6803 H   0  0  0  0  0  0  0  0  0  0  0  0
  154.3559  141.0032  159.9501 H   0  0  0  0  0  0  0  0  0  0  0  0
  152.9358  140.1411  160.5473 H   0  0  0  0  0  0  0  0  0  0  0  0
  153.6170  141.4703  161.4744 H   0  0  0  0  0  0  0  0  0  0  0  0
  1  2  1  0  0  0  0
  1 21  1  0  0  0  0
  1 22  1  0  0  0  0
  1 23  1  0  0  0  0
  2 19  2  0  0  0  0
  2  3  1  0  0  0  0
  3  4  2  0  0  0  0
  4  5  1  0  0  0  0
  4 24  1  0  0  0  0
  5  6  1  0  0  0  0
  5 17  1  0  0  0  0
  6  7  1  0  0  0  0
  6 25  1  0  0  0  0
  6 26  1  0  0  0  0
  7  8  1  0  0  0  0
  7  9  1  0  0  0  0
  7 27  1  0  0  0  0
  8 28  1  0  0  0  0
  9 15  1  0  0  0  0
  9 10  2  0  0  0  0
 10 11  1  0  0  0  0
 10 29  1  0  0  0  0
 11 12  1  0  0  0  0
 11 13  2  0  0  0  0
 13 14  1  0  0  0  0
 13 30  1  0  0  0  0
 14 15  2  0  0  0  0
 14 31  1  0  0  0  0
 15 16  1  0  0  0  0
 17 18  2  0  0  0  0
 17 19  1  0  0  0  0
 19 20  1  0  0  0  0
 20 32  1  0  0  0  0
 20 33  1  0  0  0  0
 20 34  1  0  0  0  0
M  END
> <s_m_source_file>
AV-unprocessed.smi

> <i_m_source_file_index>
2309

> <i_lp_mmshare_version>
43012

> <i_f3d_flags>
0

> <s_epik_input>
W0NIM11jMW5bY0hdbihjKD1PKWMxW0NIM10pW0NIMl1bQ0BIXShbT0hdKWMyW2NIXWMoQ2wpW2NIXVtjSF1jMkNs

> <s_epik_cmdline>
J2VwaWtfcHl0aG9uJywgJy1waCcsICc3LjAnLCAnLXRuJywgJzgnLCAnLW1hJywgJzIwMCcsICctbWV0YWxfYmluZGluZycsICctaW1hZScsICc8aW5maWxlLm1hZT4nLCAnLW9tYWUnLCAnPG91dGZpbGUubWFlPic=

> <r_lp_tautomer_probability>
1

> <r_epik_Ionization_Penalty>
5.09224e-05

> <r_epik_Ionization_Penalty_Charging>
7.56727e-08

> <r_epik_Ionization_Penalty_Neutral>
5.08468e-05

> <r_epik_State_Penalty>
-0

> <r_epik_Charging_Adjusted_Penalty>
7.56727e-08

> <i_epik_Tot_Q>
0

> <i_epik_Tot_abs_Q>
0

> <r_epik_Metal_State_Penalty>
-0

> <b_epik_Metal_Only>
0

> <s_lp_Force_Field>
OPLS_2005

> <r_lp_Energy>
19.5674

> <b_lp_Chiralities_Consistent>
1

> <s_lp_Variant>
AV-unprocessed.smi:2309-1

> <Gold.Version>
5.8.1

> <Gold.Id.Protein>
6NUR|6NUR_protein|mol2

> <Gold.PLP.Fitness>
47.1174

> <Gold.PLP.PLP>
-43.3428

> <Gold.PLP.part.hbond>
-1.8197

> <Gold.PLP.part.metal>
0.0000

> <Gold.PLP.part.buried>
2.3717

> <Gold.PLP.part.nonpolar>
-42.6911

> <Gold.PLP.part.repulsive>
0.0781

> <Gold.PLP.ligand.clash>
0.0000

> <Gold.PLP.ligand.torsion>
1.3233

> <Gold.PLP.Chemscore.Hbond>
1.1373

> <Gold.PLP.Chemscore.CHOScore>
1.0000

> <Gold.PLP.Chemscore.Metal>
0.0000

> <Gold.Chemscore.Hbonds>
donor molecule, donor type, donor heavy atom, donor atom, acceptor molecule, acceptor atom, score
      P1  H  7989  7998       L1     8  0.60
      P1  H  7997  8010       L1    18  0.52
      L1  C     4    24       P1  8028  1.00
      L1  C     4    24       P1  8029  0.02

> <Gold.PLP.Chemscore.Internal.Correction>
0.0094

> <Gold.Rescore>
     Score         DG    S(hbond)    S(metal)    S(lipo)     H(rot)  DE(clash)    DE(int)     intcor
     10.51     -16.62       1.13        0.00     105.14       1.93       0.13       5.97       ----

> <Gold.Chemscore.Fitness>
10.5123

> <Gold.Chemscore.DG>
-16.6156

> <Gold.Chemscore.ZeroCoef>
-5.4800

> <Gold.Chemscore.Hbond>
1.1275

> <Gold.Chemscore.Metal>
0.0000

> <Gold.Chemscore.Lipo>
105.1399

> <Gold.Chemscore.Internal_Hbond>
0.0000

> <Gold.Chemscore.DEClash>
0.1296

> <Gold.Chemscore.DEInternal>
5.9736

> <Gold.Chemscore.Rot>
1.9265

> <Gold.Chemscore.Internal.Correction>
   9.000000E+99

> <Gold.Chemscore.Hbonds>
donor molecule, donor type, donor heavy atom, donor atom, acceptor molecule, acceptor atom, score
      P1  H  7989  7998       L1     8  0.15
      P1  H  7997  8010       L1    18  0.52

> <Gold.Chemscore.Hbond.Weighted>
-3.7660

> <Gold.Chemscore.Metal.Weighted>
-0.0000

> <Gold.Chemscore.Lipo.Weighted>
-12.3014

> <Gold.Chemscore.Internal_Hbond.Weighted>
0.0000

> <Gold.Chemscore.DEClash.Weighted>
0.1296

> <Gold.Chemscore.DEInternal.Weighted>
5.9736

> <Gold.Chemscore.Rot.Weighted>
4.9317

> <Gold.Chemscore.Internal.Correction.Weighted>
   9.000000E+99

> <Gold.Protein.RotatedTorsions>
[ 6907 6896 6895 6894 ] final  128.81 input  -60.11 | X-H torsion
[ 7974 7965 7964 7962 ] final -150.82 input  175.53 | X-H torsion
[ 8008 7997 7996 7995 ] final   50.46 input   59.86 | X-H torsion
[ 10167 10162 10161 10158 ] final -156.31 input  -65.29 | X-H torsion
[ 10718 10713 10712 10709 ] final  128.99 input   66.30 | X-H torsion
[ 10763 10752 10751 10750 ] final -136.86 input  -60.55 | X-H torsion
[ 11005 11000 10999 10996 ] final  -35.88 input  -57.11 | X-H torsion

> <Gold.Protein.ActiveResidues>
 VAL166  LYS551  ARG553  GLY616  TRP617  ASP618  TYR619  PRO620  LYS621  CYS622 
 ASP623  PHE694  ASN695  SER759  ASP760  ASP761  ALA762  ILE779  LEU786  VAL792 
 PHE793  MET794  SER795  GLU796  ALA797  LYS798  CYS799  TRP800  GLU811  SER814 

> <Gold.Protein.RotatedAtoms>
  152.3684  133.6387  159.6067 H   0  0  0  0  0  0  0  0  0  0  0  0  # atno 6907 bound_to 6896
  150.7651  133.9310  159.3436 H   0  0  0  0  0  0  0  0  0  0  0  0  # atno 6908 bound_to 6896
  151.7137  135.0909  160.0323 H   0  0  0  0  0  0  0  0  0  0  0  0  # atno 6909 bound_to 6896
  144.7885  140.4881  143.5789 H   0  0  0  0  0  0  0  0  0  0  0  0  # atno 7974 bound_to 7965
  155.4191  140.3445  155.4270 H   0  0  0  0  0  0  0  0  0  0  0  0  # atno 8008 bound_to 7997
  156.1403  140.1540  156.8961 H   0  0  0  0  0  0  0  0  0  0  0  0  # atno 8009 bound_to 7997
  154.4966  140.0826  156.7689 H   0  0  0  0  0  0  0  0  0  0  0  0  # atno 8010 bound_to 7997
  139.6861  143.9500  152.2361 H   0  0  0  0  0  0  0  0  0  0  0  0  # atno 10167 bound_to 10162
  157.5195  131.1098  150.9175 H   0  0  0  0  0  0  0  0  0  0  0  0  # atno 10718 bound_to 10713
  154.8675  135.3660  154.5129 H   0  0  0  0  0  0  0  0  0  0  0  0  # atno 10763 bound_to 10752
  153.5763  135.7019  153.5487 H   0  0  0  0  0  0  0  0  0  0  0  0  # atno 10764 bound_to 10752
  153.3497  135.4075  155.1599 H   0  0  0  0  0  0  0  0  0  0  0  0  # atno 10765 bound_to 10752
  140.9831  133.7045  156.1719 H   0  0  0  0  0  0  0  0  0  0  0  0  # atno 11005 bound_to 11000
  145.5856  139.1492  143.3211 LP  0  0  0  0  0  0  0  0  0  0  0  0  # atno 17320 bound_to 7965
  146.2128  140.5984  142.9052 LP  0  0  0  0  0  0  0  0  0  0  0  0  # atno 17321 bound_to 7965
  139.9303  144.6745  150.8370 LP  0  0  0  0  0  0  0  0  0  0  0  0  # atno 17342 bound_to 10162
  140.7668  143.3313  151.2403 LP  0  0  0  0  0  0  0  0  0  0  0  0  # atno 17343 bound_to 10162
  156.9790  130.5520  149.5295 LP  0  0  0  0  0  0  0  0  0  0  0  0  # atno 17370 bound_to 10713
  156.0343  130.5432  150.8614 LP  0  0  0  0  0  0  0  0  0  0  0  0  # atno 17371 bound_to 10713
  140.7156  134.4415  157.5578 LP  0  0  0  0  0  0  0  0  0  0  0  0  # atno 17394 bound_to 11000
  139.8959  134.8673  156.2112 LP  0  0  0  0  0  0  0  0  0  0  0  0  # atno 17395 bound_to 11000

$$$$
