AV-unprocessed.smi:377|AV-procd|sdf|2456|dock4
  -GOLD-   2262022393D 1   1.00000     0.00000
 Structure written by MMmdl.
 33 34  0  0  0  0  0  0  0  0  1 V2000
  146.9998  142.5114  154.0516 C   0  0  0  0  0  0  0  0  0  0  0  0
  147.3039  141.1340  153.4480 C   0  0  0  0  0  0  0  0  0  0  0  0
  148.6392  140.6735  153.8097 N   0  0  0  0  0  0  0  0  0  0  0  0
  149.1796  140.7571  155.0346 C   0  0  0  0  0  0  0  0  0  0  0  0
  148.5892  141.2460  155.9995 O   0  0  0  0  0  0  0  0  0  0  0  0
  150.6035  140.1964  155.1751 C   0  0  0  0  0  0  0  0  0  0  0  0
  151.1342  140.2646  156.5545 N   0  0  0  0  0  0  0  0  0  0  0  0
  151.4485  139.0535  157.2228 C   0  0  0  0  0  0  0  0  0  0  0  0
  151.3114  137.9648  156.6621 O   0  0  0  0  0  0  0  0  0  0  0  0
  151.9195  139.1981  158.5983 C   0  0  0  0  0  0  0  0  0  0  0  0
  152.2156  138.0017  159.3141 C   0  0  0  0  0  0  0  0  0  0  0  0
  152.4521  137.0168  159.8742 N   0  0  0  0  0  0  0  0  0  0  0  0
  152.0595  140.4162  159.1605 C   0  0  0  0  0  0  0  0  0  0  0  0
  151.7862  141.5827  158.4800 N   0  0  0  0  0  0  0  0  0  0  0  0
  151.7887  142.8565  159.1423 C   0  0  0  0  0  0  0  0  0  0  0  0
  152.5669  144.0176  158.5546 C   0  0  0  0  0  0  0  0  0  0  0  0
  153.0597  143.3376  159.8084 C   0  0  0  0  0  0  0  0  0  0  0  0
  151.2637  141.5336  157.1693 C   0  0  0  0  0  0  0  0  0  0  0  0
  150.9202  142.5621  156.5806 O   0  0  0  0  0  0  0  0  0  0  0  0
  145.9857  142.8262  153.8050 H   0  0  0  0  0  0  0  0  0  0  0  0
  147.6836  143.2718  153.6725 H   0  0  0  0  0  0  0  0  0  0  0  0
  147.0873  142.4932  155.1383 H   0  0  0  0  0  0  0  0  0  0  0  0
  146.5823  140.4045  153.8162 H   0  0  0  0  0  0  0  0  0  0  0  0
  147.1920  141.1601  152.3630 H   0  0  0  0  0  0  0  0  0  0  0  0
  149.1931  140.2592  153.0742 H   0  0  0  0  0  0  0  0  0  0  0  0
  150.6077  139.1696  154.8062 H   0  0  0  0  0  0  0  0  0  0  0  0
  151.2551  140.7284  154.4800 H   0  0  0  0  0  0  0  0  0  0  0  0
  152.4042  140.4833  160.1825 H   0  0  0  0  0  0  0  0  0  0  0  0
  150.8607  143.1179  159.6480 H   0  0  0  0  0  0  0  0  0  0  0  0
  153.1352  143.8478  157.6421 H   0  0  0  0  0  0  0  0  0  0  0  0
  152.1357  145.0113  158.6563 H   0  0  0  0  0  0  0  0  0  0  0  0
  152.9602  143.8805  160.7461 H   0  0  0  0  0  0  0  0  0  0  0  0
  153.9510  142.7191  159.7213 H   0  0  0  0  0  0  0  0  0  0  0  0
  1  2  1  0  0  0  0
  1 20  1  0  0  0  0
  1 21  1  0  0  0  0
  1 22  1  0  0  0  0
  2  3  1  0  0  0  0
  2 23  1  0  0  0  0
  2 24  1  0  0  0  0
  3  4  1  0  0  0  0
  3 25  1  0  0  0  0
  4  5  2  0  0  0  0
  4  6  1  0  0  0  0
  6  7  1  0  0  0  0
  6 26  1  0  0  0  0
  6 27  1  0  0  0  0
  7 18  1  0  0  0  0
  7  8  1  0  0  0  0
  8  9  2  0  0  0  0
  8 10  1  0  0  0  0
 10 11  1  0  0  0  0
 10 13  2  0  0  0  0
 11 12  3  0  0  0  0
 13 14  1  0  0  0  0
 13 28  1  0  0  0  0
 14 15  1  0  0  0  0
 14 18  1  0  0  0  0
 15 17  1  0  0  0  0
 15 16  1  0  0  0  0
 15 29  1  0  0  0  0
 16 17  1  0  0  0  0
 16 30  1  0  0  0  0
 16 31  1  0  0  0  0
 17 32  1  0  0  0  0
 17 33  1  0  0  0  0
 18 19  2  0  0  0  0
M  END
> <s_m_source_file>
AV-unprocessed.smi

> <i_m_source_file_index>
377

> <i_lp_mmshare_version>
43012

> <i_f3d_flags>
0

> <s_epik_input>
W0NIM11bQ0gyXVtOSF1DKD1PKVtDSDJdbjFjKD1PKWMoQyNOKVtjSF1uKGMxPU8pW0NIXTJbQ0gyXVtDSDJdMg==

> <s_epik_cmdline>
J2VwaWtfcHl0aG9uJywgJy1waCcsICc3LjAnLCAnLXRuJywgJzgnLCAnLW1hJywgJzIwMCcsICctbWV0YWxfYmluZGluZycsICctaW1hZScsICc8aW5maWxlLm1hZT4nLCAnLW9tYWUnLCAnPG91dGZpbGUubWFlPic=

> <r_lp_tautomer_probability>
1

> <r_epik_Ionization_Penalty>
1.81858e-08

> <r_epik_Ionization_Penalty_Charging>
8.22213e-11

> <r_epik_Ionization_Penalty_Neutral>
1.81036e-08

> <r_epik_State_Penalty>
-0

> <r_epik_Charging_Adjusted_Penalty>
8.22213e-11

> <i_epik_Tot_Q>
0

> <i_epik_Tot_abs_Q>
0

> <r_epik_Metal_State_Penalty>
-0

> <b_epik_Metal_Only>
0

> <s_lp_Force_Field>
OPLS_2005

> <r_lp_Energy>
28.0616

> <b_lp_Chiralities_Consistent>
1

> <s_lp_Variant>
AV-unprocessed.smi:377-1

> <Gold.Version>
5.8.1

> <Gold.Id.Protein>
6NUR|6NUR_protein|mol2

> <Gold.PLP.Fitness>
42.6605

> <Gold.PLP.PLP>
-36.8783

> <Gold.PLP.part.hbond>
-2.0000

> <Gold.PLP.part.metal>
0.0000

> <Gold.PLP.part.buried>
-4.1350

> <Gold.PLP.part.nonpolar>
-31.1073

> <Gold.PLP.part.repulsive>
0.3659

> <Gold.PLP.ligand.clash>
0.0000

> <Gold.PLP.ligand.torsion>
0.2143

> <Gold.PLP.Chemscore.Hbond>
2.0000

> <Gold.PLP.Chemscore.CHOScore>
0.0000

> <Gold.PLP.Chemscore.Metal>
0.0000

> <Gold.Chemscore.Hbonds>
donor molecule, donor type, donor heavy atom, donor atom, acceptor molecule, acceptor atom, score
      L1  H     3    25       P1  7957  1.00
      P1  H  6896  6908       L1    12  1.00

> <Gold.PLP.Chemscore.Internal.Correction>
0.2107

> <Gold.Rescore>
     Score         DG    S(hbond)    S(metal)    S(lipo)     H(rot)  DE(clash)    DE(int)     intcor
     14.85     -15.32       1.95        0.00      69.71       1.89       0.05       0.42       ----

> <Gold.Chemscore.Fitness>
14.8485

> <Gold.Chemscore.DG>
-15.3171

> <Gold.Chemscore.ZeroCoef>
-5.4800

> <Gold.Chemscore.Hbond>
1.9525

> <Gold.Chemscore.Metal>
0.0000

> <Gold.Chemscore.Lipo>
69.7116

> <Gold.Chemscore.Internal_Hbond>
0.0000

> <Gold.Chemscore.DEClash>
0.0486

> <Gold.Chemscore.DEInternal>
0.4199

> <Gold.Chemscore.Rot>
1.8908

> <Gold.Chemscore.Internal.Correction>
   9.000000E+99

> <Gold.Chemscore.Hbonds>
donor molecule, donor type, donor heavy atom, donor atom, acceptor molecule, acceptor atom, score
      L1  H     3    25       P1  7957  0.93
      P1  H  6896  6908       L1    12  0.97

> <Gold.Chemscore.Hbond.Weighted>
-6.5214

> <Gold.Chemscore.Metal.Weighted>
-0.0000

> <Gold.Chemscore.Lipo.Weighted>
-8.1563

> <Gold.Chemscore.Internal_Hbond.Weighted>
0.0000

> <Gold.Chemscore.DEClash.Weighted>
0.0486

> <Gold.Chemscore.DEInternal.Weighted>
0.4199

> <Gold.Chemscore.Rot.Weighted>
4.8406

> <Gold.Chemscore.Internal.Correction.Weighted>
   9.000000E+99

> <Gold.Protein.RotatedTorsions>
[ 6907 6896 6895 6894 ] final -100.62 input  -60.11 | X-H torsion
[ 7974 7965 7964 7962 ] final  153.03 input  175.53 | X-H torsion
[ 8008 7997 7996 7995 ] final   76.49 input   59.86 | X-H torsion
[ 10167 10162 10161 10158 ] final   77.19 input  -65.29 | X-H torsion
[ 10718 10713 10712 10709 ] final  129.80 input   66.30 | X-H torsion
[ 10763 10752 10751 10750 ] final   36.72 input  -60.55 | X-H torsion
[ 11005 11000 10999 10996 ] final  -86.31 input  -57.11 | X-H torsion

> <Gold.Protein.ActiveResidues>
 VAL166  LYS551  ARG553  GLY616  TRP617  ASP618  TYR619  PRO620  LYS621  CYS622 
 ASP623  PHE694  ASN695  SER759  ASP760  ASP761  ALA762  ILE779  LEU786  VAL792 
 PHE793  MET794  SER795  GLU796  ALA797  LYS798  CYS799  TRP800  GLU811  SER814 

> <Gold.Protein.RotatedAtoms>
  150.7123  134.0858  159.3913 H   0  0  0  0  0  0  0  0  0  0  0  0  # atno 6907 bound_to 6896
  151.8843  135.0439  160.0501 H   0  0  0  0  0  0  0  0  0  0  0  0  # atno 6908 bound_to 6896
  152.2542  133.5206  159.5380 H   0  0  0  0  0  0  0  0  0  0  0  0  # atno 6909 bound_to 6896
  144.8182  139.6746  143.6112 H   0  0  0  0  0  0  0  0  0  0  0  0  # atno 7974 bound_to 7965
  155.8281  140.3467  155.5555 H   0  0  0  0  0  0  0  0  0  0  0  0  # atno 8008 bound_to 7997
  155.8272  140.0921  157.1834 H   0  0  0  0  0  0  0  0  0  0  0  0  # atno 8009 bound_to 7997
  154.4004  140.1419  156.3557 H   0  0  0  0  0  0  0  0  0  0  0  0  # atno 8010 bound_to 7997
  139.9842  144.5804  150.7874 H   0  0  0  0  0  0  0  0  0  0  0  0  # atno 10167 bound_to 10162
  157.5121  131.1097  150.9278 H   0  0  0  0  0  0  0  0  0  0  0  0  # atno 10718 bound_to 10713
  153.0065  135.6298  154.2031 H   0  0  0  0  0  0  0  0  0  0  0  0  # atno 10763 bound_to 10752
  154.1774  135.2815  155.3064 H   0  0  0  0  0  0  0  0  0  0  0  0  # atno 10764 bound_to 10752
  154.5861  135.5632  153.7292 H   0  0  0  0  0  0  0  0  0  0  0  0  # atno 10765 bound_to 10752
  141.1631  133.7447  156.9143 H   0  0  0  0  0  0  0  0  0  0  0  0  # atno 11005 bound_to 11000
  146.2486  139.6152  142.9442 LP  0  0  0  0  0  0  0  0  0  0  0  0  # atno 17320 bound_to 7965
  145.5165  141.0433  143.2459 LP  0  0  0  0  0  0  0  0  0  0  0  0  # atno 17321 bound_to 7965
  140.7478  143.2912  151.3325 LP  0  0  0  0  0  0  0  0  0  0  0  0  # atno 17342 bound_to 10162
  139.6387  144.0580  152.2537 LP  0  0  0  0  0  0  0  0  0  0  0  0  # atno 17343 bound_to 10162
  156.9915  130.5565  149.5304 LP  0  0  0  0  0  0  0  0  0  0  0  0  # atno 17370 bound_to 10713
  156.0296  130.5388  150.8498 LP  0  0  0  0  0  0  0  0  0  0  0  0  # atno 17371 bound_to 10713
  140.1495  134.9239  157.2574 LP  0  0  0  0  0  0  0  0  0  0  0  0  # atno 17394 bound_to 11000
  140.2739  134.3428  155.7364 LP  0  0  0  0  0  0  0  0  0  0  0  0  # atno 17395 bound_to 11000

$$$$
