AV-unprocessed.smi:3028|AV-procd|sdf|11520|dock6
  -GOLD-   2272016463D 1   1.00000     0.00000
 Structure written by MMmdl.
 48 49  0  0  0  0  0  0  0  0  2 V2000
  150.9901  142.8396  157.7311 C   0  0  0  0  0  0  0  0  0  0  0  0
  150.4535  141.6166  157.0448 C   0  0  0  0  0  0  0  0  0  0  0  0
  149.7516  140.5239  157.6280 C   0  0  0  0  0  0  0  0  0  0  0  0
  149.4133  139.6000  156.7438 N   0  0  0  0  0  0  0  0  0  0  0  0
  149.8844  140.0672  155.5662 N   0  0  0  0  0  0  0  0  0  0  0  0
  149.6976  139.2969  154.3430 C   0  0  1  0  0  0  0  0  0  0  0  0
  150.4547  137.9581  154.4440 C   0  0  0  0  0  0  0  0  0  0  0  0
  148.1988  139.1053  153.9879 C   0  0  1  0  0  0  0  0  0  0  0  0
  147.3724  140.3991  154.1434 C   0  0  0  0  0  0  0  0  0  0  0  0
  148.0765  138.5902  152.6054 N   0  3  0  0  0  0  0  0  0  0  0  0
  146.7347  138.7173  151.9962 C   0  0  0  0  0  0  0  0  0  0  0  0
  145.8812  137.4598  152.2121 C   0  0  0  0  0  0  0  0  0  0  0  0
  144.7664  137.5530  152.7240 O   0  0  0  0  0  0  0  0  0  0  0  0
  146.3654  136.2643  151.8357 N   0  0  0  0  0  0  0  0  0  0  0  0
  145.7180  134.9590  151.9528 C   0  0  0  0  0  0  0  0  0  0  0  0
  146.6858  133.8617  151.4844 C   0  0  0  0  0  0  0  0  0  0  0  0
  145.9847  132.4939  151.4524 C   0  0  0  0  0  0  0  0  0  0  0  0
  144.8352  132.5576  150.6153 O   0  0  0  0  0  0  0  0  0  0  0  0
  143.8576  133.4802  151.0834 C   0  0  0  0  0  0  0  0  0  0  0  0
  144.4401  134.9032  151.0979 C   0  0  0  0  0  0  0  0  0  0  0  0
  150.5187  141.2824  155.7218 C   0  0  0  0  0  0  0  0  0  0  0  0
  151.0836  142.6920  158.8072 H   0  0  0  0  0  0  0  0  0  0  0  0
  150.3404  143.7019  157.5803 H   0  0  0  0  0  0  0  0  0  0  0  0
  151.9777  143.1112  157.3582 H   0  0  0  0  0  0  0  0  0  0  0  0
  149.4800  140.3762  158.6629 H   0  0  0  0  0  0  0  0  0  0  0  0
  150.1594  139.8751  153.5408 H   0  0  0  0  0  0  0  0  0  0  0  0
  150.4409  137.4158  153.4986 H   0  0  0  0  0  0  0  0  0  0  0  0
  150.0207  137.3077  155.2044 H   0  0  0  0  0  0  0  0  0  0  0  0
  151.5004  138.1207  154.7069 H   0  0  0  0  0  0  0  0  0  0  0  0
  147.7885  138.3561  154.6675 H   0  0  0  0  0  0  0  0  0  0  0  0
  147.3831  140.7669  155.1693 H   0  0  0  0  0  0  0  0  0  0  0  0
  146.3260  140.2443  153.8817 H   0  0  0  0  0  0  0  0  0  0  0  0
  147.7590  141.1930  153.5034 H   0  0  0  0  0  0  0  0  0  0  0  0
  148.7552  139.0536  152.0182 H   0  0  0  0  0  0  0  0  0  0  0  0
  146.2283  139.5741  152.4419 H   0  0  0  0  0  0  0  0  0  0  0  0
  146.8313  138.9051  150.9275 H   0  0  0  0  0  0  0  0  0  0  0  0
  147.2864  136.2600  151.4206 H   0  0  0  0  0  0  0  0  0  0  0  0
  145.4618  134.7529  152.9925 H   0  0  0  0  0  0  0  0  0  0  0  0
  147.0571  134.0943  150.4851 H   0  0  0  0  0  0  0  0  0  0  0  0
  147.5571  133.8189  152.1391 H   0  0  0  0  0  0  0  0  0  0  0  0
  146.6629  131.7349  151.0622 H   0  0  0  0  0  0  0  0  0  0  0  0
  145.6997  132.1789  152.4574 H   0  0  0  0  0  0  0  0  0  0  0  0
  142.9903  133.4378  150.4244 H   0  0  0  0  0  0  0  0  0  0  0  0
  143.5155  133.1897  152.0780 H   0  0  0  0  0  0  0  0  0  0  0  0
  143.6937  135.6040  151.4717 H   0  0  0  0  0  0  0  0  0  0  0  0
  144.6652  135.2065  150.0742 H   0  0  0  0  0  0  0  0  0  0  0  0
  150.9603  141.8056  154.8863 H   0  0  0  0  0  0  0  0  0  0  0  0
  148.2961  137.6045  152.6234 H   0  0  0  0  0  0  0  0  0  0  0  0
  1  2  1  0  0  0  0
  1 22  1  0  0  0  0
  1 23  1  0  0  0  0
  1 24  1  0  0  0  0
  2 21  2  0  0  0  0
  2  3  1  0  0  0  0
  3  4  2  0  0  0  0
  3 25  1  0  0  0  0
  4  5  1  0  0  0  0
  5  6  1  0  0  0  0
  5 21  1  0  0  0  0
  6  7  1  0  0  0  0
  6  8  1  0  0  0  0
  6 26  1  0  0  0  0
  7 27  1  0  0  0  0
  7 28  1  0  0  0  0
  7 29  1  0  0  0  0
  8  9  1  0  0  0  0
  8 10  1  0  0  0  0
  8 30  1  0  0  0  0
  9 31  1  0  0  0  0
  9 32  1  0  0  0  0
  9 33  1  0  0  0  0
 10 11  1  0  0  0  0
 10 34  1  0  0  0  0
 10 48  1  0  0  0  0
 11 12  1  0  0  0  0
 11 35  1  0  0  0  0
 11 36  1  0  0  0  0
 12 13  2  0  0  0  0
 12 14  1  0  0  0  0
 14 15  1  0  0  0  0
 14 37  1  0  0  0  0
 15 20  1  0  0  0  0
 15 16  1  0  0  0  0
 15 38  1  0  0  0  0
 16 17  1  0  0  0  0
 16 39  1  0  0  0  0
 16 40  1  0  0  0  0
 17 18  1  0  0  0  0
 17 41  1  0  0  0  0
 17 42  1  0  0  0  0
 18 19  1  0  0  0  0
 19 20  1  0  0  0  0
 19 43  1  0  0  0  0
 19 44  1  0  0  0  0
 20 45  1  0  0  0  0
 20 46  1  0  0  0  0
 21 47  1  0  0  0  0
M  CHG  1  10   1
M  END
> <s_m_source_file>
AV-unprocessed.smi

> <i_m_source_file_index>
3028

> <i_lp_mmshare_version>
43012

> <i_f3d_flags>
0

> <s_epik_input>
W0NIM11jMVtjSF1ubihbY0hdMSlbQ0BIXShbQ0gzXSlbQ0BIXShbQ0gzXSlbTkhdW0NIMl1DKD1PKVtOSF1bQ0hdMltDSDJdW0NIMl1PW0NIMl1bQ0gyXTI=

> <s_epik_cmdline>
J2VwaWtfcHl0aG9uJywgJy1waCcsICc3LjAnLCAnLXRuJywgJzgnLCAnLW1hJywgJzIwMCcsICctbWV0YWxfYmluZGluZycsICctaW1hZScsICc8aW5maWxlLm1hZT4nLCAnLW9tYWUnLCAnPG91dGZpbGUubWFlPic=

> <r_lp_tautomer_probability>
1

> <r_epik_Ionization_Penalty>
0.151514

> <r_epik_Ionization_Penalty_Charging>
0.151494

> <r_epik_Ionization_Penalty_Neutral>
1.95502e-05

> <r_epik_State_Penalty>
0.141395

> <r_epik_Charging_Adjusted_Penalty>
0.292889

> <i_epik_Tot_Q>
1

> <i_epik_Tot_abs_Q>
1

> <r_epik_Metal_State_Penalty>
0.141632

> <b_epik_Metal_Only>
0

> <s_lp_Force_Field>
OPLS_2005

> <r_lp_Energy>
16.118

> <b_lp_Chiralities_Consistent>
1

> <s_lp_Variant>
AV-unprocessed.smi:3028-4

> <Gold.Version>
5.8.1

> <Gold.Id.Protein>
6NUR|6NUR_protein|mol2

> <Gold.PLP.Fitness>
49.4716

> <Gold.PLP.PLP>
-38.9804

> <Gold.PLP.part.hbond>
-2.9498

> <Gold.PLP.part.metal>
0.0000

> <Gold.PLP.part.buried>
-5.3349

> <Gold.PLP.part.nonpolar>
-32.1452

> <Gold.PLP.part.repulsive>
0.4829

> <Gold.PLP.ligand.clash>
0.0000

> <Gold.PLP.ligand.torsion>
0.5925

> <Gold.PLP.Chemscore.Hbond>
3.8233

> <Gold.PLP.Chemscore.CHOScore>
0.0000

> <Gold.PLP.Chemscore.Metal>
0.0000

> <Gold.Chemscore.Hbonds>
donor molecule, donor type, donor heavy atom, donor atom, acceptor molecule, acceptor atom, score
      L1  H    10    34       P1  7957  1.00
      L1  H    10    48       P1  7948  1.92
      L1  H    14    37       P1  7948  0.86

> <Gold.PLP.Chemscore.Internal.Correction>
0.2065

> <Gold.Rescore>
     Score         DG    S(hbond)    S(metal)    S(lipo)     H(rot)  DE(clash)    DE(int)     intcor
     18.96     -19.72       2.78        0.00      85.91       1.99       0.13       0.63       ----

> <Gold.Chemscore.Fitness>
18.9555

> <Gold.Chemscore.DG>
-19.7179

> <Gold.Chemscore.ZeroCoef>
-5.4800

> <Gold.Chemscore.Hbond>
2.7786

> <Gold.Chemscore.Metal>
0.0000

> <Gold.Chemscore.Lipo>
85.9074

> <Gold.Chemscore.Internal_Hbond>
0.0000

> <Gold.Chemscore.DEClash>
0.1300

> <Gold.Chemscore.DEInternal>
0.6324

> <Gold.Chemscore.Rot>
1.9897

> <Gold.Chemscore.Internal.Correction>
   9.000000E+99

> <Gold.Chemscore.Hbonds>
donor molecule, donor type, donor heavy atom, donor atom, acceptor molecule, acceptor atom, score
      L1  H    10    34       P1  7957  0.90
      L1  H    10    48       P1  7948  0.92
      L1  H    14    37       P1  7948  0.85

> <Gold.Chemscore.Hbond.Weighted>
-9.2804

> <Gold.Chemscore.Metal.Weighted>
-0.0000

> <Gold.Chemscore.Lipo.Weighted>
-10.0512

> <Gold.Chemscore.Internal_Hbond.Weighted>
0.0000

> <Gold.Chemscore.DEClash.Weighted>
0.1300

> <Gold.Chemscore.DEInternal.Weighted>
0.6324

> <Gold.Chemscore.Rot.Weighted>
5.0936

> <Gold.Chemscore.Internal.Correction.Weighted>
   9.000000E+99

> <Gold.Protein.RotatedTorsions>
[ 6907 6896 6895 6894 ] final  163.06 input  -60.11 | X-H torsion
[ 7974 7965 7964 7962 ] final -162.99 input  175.53 | X-H torsion
[ 8008 7997 7996 7995 ] final -166.87 input   59.86 | X-H torsion
[ 10167 10162 10161 10158 ] final  154.34 input  -65.29 | X-H torsion
[ 10718 10713 10712 10709 ] final  -42.20 input   66.30 | X-H torsion
[ 10763 10752 10751 10750 ] final -160.65 input  -60.55 | X-H torsion
[ 11005 11000 10999 10996 ] final  145.33 input  -57.11 | X-H torsion

> <Gold.Protein.ActiveResidues>
 VAL166  LYS551  ARG553  GLY616  TRP617  ASP618  TYR619  PRO620  LYS621  CYS622 
 ASP623  PHE694  ASN695  SER759  ASP760  ASP761  ALA762  ILE779  LEU786  VAL792 
 PHE793  MET794  SER795  GLU796  ALA797  LYS798  CYS799  TRP800  GLU811  SER814 

> <Gold.Protein.RotatedAtoms>
  151.9310  133.3611  159.3930 H   0  0  0  0  0  0  0  0  0  0  0  0  # atno 6907 bound_to 6896
  150.7017  134.4537  159.5357 H   0  0  0  0  0  0  0  0  0  0  0  0  # atno 6908 bound_to 6896
  152.2178  134.8442  160.0540 H   0  0  0  0  0  0  0  0  0  0  0  0  # atno 6909 bound_to 6896
  144.7340  140.3173  143.6177 H   0  0  0  0  0  0  0  0  0  0  0  0  # atno 7974 bound_to 7965
  155.8698  140.0991  157.1558 H   0  0  0  0  0  0  0  0  0  0  0  0  # atno 8008 bound_to 7997
  154.3996  140.1349  156.4126 H   0  0  0  0  0  0  0  0  0  0  0  0  # atno 8009 bound_to 7997
  155.7763  140.3459  155.5276 H   0  0  0  0  0  0  0  0  0  0  0  0  # atno 8010 bound_to 7997
  139.4823  144.5195  151.7899 H   0  0  0  0  0  0  0  0  0  0  0  0  # atno 10167 bound_to 10162
  156.2621  130.4198  149.8530 H   0  0  0  0  0  0  0  0  0  0  0  0  # atno 10718 bound_to 10713
  154.7372  135.3060  154.8791 H   0  0  0  0  0  0  0  0  0  0  0  0  # atno 10763 bound_to 10752
  153.9616  135.6752  153.4749 H   0  0  0  0  0  0  0  0  0  0  0  0  # atno 10764 bound_to 10752
  153.0974  135.4929  154.8726 H   0  0  0  0  0  0  0  0  0  0  0  0  # atno 10765 bound_to 10752
  140.0703  134.9155  157.1334 H   0  0  0  0  0  0  0  0  0  0  0  0  # atno 11005 bound_to 11000
  145.7604  139.1823  143.2270 LP  0  0  0  0  0  0  0  0  0  0  0  0  # atno 17320 bound_to 7965
  146.0990  140.7566  142.9558 LP  0  0  0  0  0  0  0  0  0  0  0  0  # atno 17321 bound_to 7965
  140.4707  144.1591  150.5917 LP  0  0  0  0  0  0  0  0  0  0  0  0  # atno 17342 bound_to 10162
  140.4385  143.2537  151.9504 LP  0  0  0  0  0  0  0  0  0  0  0  0  # atno 17343 bound_to 10162
  156.6041  130.8559  151.3439 LP  0  0  0  0  0  0  0  0  0  0  0  0  # atno 17370 bound_to 10713
  157.7254  130.9616  150.1614 LP  0  0  0  0  0  0  0  0  0  0  0  0  # atno 17371 bound_to 10713
  140.3636  134.2467  155.7184 LP  0  0  0  0  0  0  0  0  0  0  0  0  # atno 17394 bound_to 11000
  141.2009  133.7975  157.0465 LP  0  0  0  0  0  0  0  0  0  0  0  0  # atno 17395 bound_to 11000

$$$$
