AV-unprocessed.smi:2298|AV-procd|sdf|9224|dock7
  -GOLD-   2272012443D 1   1.00000     0.00000
 Structure written by MMmdl.
 37 38  0  0  0  0  0  0  0  0  1 V2000
  152.5722  135.4407  156.7125 C   0  0  0  0  0  0  0  0  0  0  0  0
  151.8235  134.3603  155.9550 C   0  0  0  0  0  0  0  0  0  0  0  0
  152.2392  133.0948  156.1794 N   0  0  0  0  0  0  0  0  0  0  0  0
  151.6123  132.0960  155.5253 C   0  0  0  0  0  0  0  0  0  0  0  0
  150.5479  132.3053  154.6282 C   0  0  0  0  0  0  0  0  0  0  0  0
  150.0982  133.6286  154.4018 C   0  0  0  0  0  0  0  0  0  0  0  0
  149.0428  133.9606  153.5054 N   0  0  0  0  0  0  0  0  0  0  0  0
  147.8935  133.3050  153.2681 C   0  0  0  0  0  0  0  0  0  0  0  0
  147.5400  132.2601  153.8141 O   0  0  0  0  0  0  0  0  0  0  0  0
  147.1519  133.9469  152.3534 N   0  0  0  0  0  0  0  0  0  0  0  0
  145.8465  133.5085  151.8683 C   0  0  1  0  0  0  0  0  0  0  0  0
  145.2549  134.5792  150.9319 C   0  0  0  0  0  0  0  0  0  0  0  0
  143.9034  134.1325  150.3514 C   0  0  0  0  0  0  0  0  0  0  0  0
  144.0315  132.7812  149.6272 C   0  0  2  0  0  0  0  0  0  0  0  0
  142.7617  132.3695  149.1675 O   0  0  0  0  0  0  0  0  0  0  0  0
  144.6146  131.7062  150.5603 C   0  0  0  0  0  0  0  0  0  0  0  0
  145.9652  132.1518  151.1434 C   0  0  0  0  0  0  0  0  0  0  0  0
  150.7629  134.6810  155.0749 C   0  0  0  0  0  0  0  0  0  0  0  0
  150.2862  136.3287  154.8322 Cl  0  0  0  0  0  0  0  0  0  0  0  0
  145.1704  133.3954  152.7185 H   0  0  0  0  0  0  0  0  0  0  0  0
  144.6811  132.8971  148.7586 H   0  0  0  0  0  0  0  0  0  0  0  0
  151.8893  135.9915  157.3594 H   0  0  0  0  0  0  0  0  0  0  0  0
  153.0317  136.1428  156.0165 H   0  0  0  0  0  0  0  0  0  0  0  0
  153.3619  135.0201  157.3366 H   0  0  0  0  0  0  0  0  0  0  0  0
  151.9750  131.0971  155.7177 H   0  0  0  0  0  0  0  0  0  0  0  0
  150.1131  131.4532  154.1301 H   0  0  0  0  0  0  0  0  0  0  0  0
  149.1520  134.8433  153.0280 H   0  0  0  0  0  0  0  0  0  0  0  0
  147.5174  134.8021  151.9604 H   0  0  0  0  0  0  0  0  0  0  0  0
  145.1290  135.5188  151.4710 H   0  0  0  0  0  0  0  0  0  0  0  0
  145.9490  134.7817  150.1147 H   0  0  0  0  0  0  0  0  0  0  0  0
  143.1726  134.0544  151.1577 H   0  0  0  0  0  0  0  0  0  0  0  0
  143.5274  134.8920  149.6649 H   0  0  0  0  0  0  0  0  0  0  0  0
  142.1524  133.0816  149.2883 H   0  0  0  0  0  0  0  0  0  0  0  0
  143.9193  131.5046  151.3766 H   0  0  0  0  0  0  0  0  0  0  0  0
  144.7388  130.7671  150.0198 H   0  0  0  0  0  0  0  0  0  0  0  0
  146.6989  132.2253  150.3392 H   0  0  0  0  0  0  0  0  0  0  0  0
  146.3350  131.3885  151.8291 H   0  0  0  0  0  0  0  0  0  0  0  0
  1  2  1  0  0  0  0
  1 22  1  0  0  0  0
  1 23  1  0  0  0  0
  1 24  1  0  0  0  0
  2 18  1  0  0  0  0
  2  3  2  0  0  0  0
  3  4  1  0  0  0  0
  4  5  2  0  0  0  0
  4 25  1  0  0  0  0
  5  6  1  0  0  0  0
  5 26  1  0  0  0  0
  6  7  1  0  0  0  0
  6 18  2  0  0  0  0
  7  8  1  0  0  0  0
  7 27  1  0  0  0  0
  8  9  2  0  0  0  0
  8 10  1  0  0  0  0
 10 11  1  0  0  0  0
 10 28  1  0  0  0  0
 11 20  1  0  0  0  0
 11 17  1  0  0  0  0
 11 12  1  0  0  0  0
 12 13  1  0  0  0  0
 12 29  1  0  0  0  0
 12 30  1  0  0  0  0
 13 14  1  0  0  0  0
 13 31  1  0  0  0  0
 13 32  1  0  0  0  0
 14 21  1  0  0  0  0
 14 15  1  0  0  0  0
 14 16  1  0  0  0  0
 15 33  1  0  0  0  0
 16 17  1  0  0  0  0
 16 34  1  0  0  0  0
 16 35  1  0  0  0  0
 17 36  1  0  0  0  0
 17 37  1  0  0  0  0
 18 19  1  0  0  0  0
M  END
> <s_m_source_file>
AV-unprocessed.smi

> <i_m_source_file_index>
2298

> <i_lp_mmshare_version>
43012

> <i_f3d_flags>
0

> <s_epik_input>
W0NIM11jMW5bY0hdW2NIXWMoYzFDbClbTkhdQyg9TylbTkhdW0NASF0yW0NIMl1bQ0gyXVtDQEhdKFtPSF0pW0NIMl1bQ0gyXTI=

> <s_epik_cmdline>
J2VwaWtfcHl0aG9uJywgJy1waCcsICc3LjAnLCAnLXRuJywgJzgnLCAnLW1hJywgJzIwMCcsICctbWV0YWxfYmluZGluZycsICctaW1hZScsICc8aW5maWxlLm1hZT4nLCAnLW9tYWUnLCAnPG91dGZpbGUubWFlPic=

> <r_epik_Ionization_Penalty>
0.00999805

> <r_epik_Ionization_Penalty_Charging>
0

> <r_epik_Ionization_Penalty_Neutral>
0.00999805

> <r_epik_State_Penalty>
0.00759022

> <r_epik_Charging_Adjusted_Penalty>
0.00759022

> <i_epik_Tot_Q>
0

> <i_epik_Tot_abs_Q>
0

> <r_epik_Metal_State_Penalty>
0.00746447

> <b_epik_Metal_Only>
0

> <s_lp_Force_Field>
OPLS_2005

> <r_lp_Energy>
13.5765

> <b_lp_Chiralities_Consistent>
1

> <s_lp_Variant>
AV-unprocessed.smi:2298-1

> <Gold.Version>
5.8.1

> <Gold.Id.Protein>
6NUR|6NUR_protein|mol2

> <Gold.PLP.Fitness>
46.2147

> <Gold.PLP.PLP>
-34.7669

> <Gold.PLP.part.hbond>
-6.0000

> <Gold.PLP.part.metal>
0.0000

> <Gold.PLP.part.buried>
-4.5602

> <Gold.PLP.part.nonpolar>
-25.3400

> <Gold.PLP.part.repulsive>
0.0564

> <Gold.PLP.ligand.clash>
0.0000

> <Gold.PLP.ligand.torsion>
0.2991

> <Gold.PLP.Chemscore.Hbond>
4.0141

> <Gold.PLP.Chemscore.CHOScore>
0.0000

> <Gold.PLP.Chemscore.Metal>
0.0000

> <Gold.Chemscore.Hbonds>
donor molecule, donor type, donor heavy atom, donor atom, acceptor molecule, acceptor atom, score
      L1  H     7    27       P1  7948  0.50
      L1  H    10    28       P1  7948  1.00
      L1  H    15    33       P1 10186  1.00
      P1  H 10785 10796       L1    15  0.31

> <Gold.PLP.Chemscore.Internal.Correction>
0.0036

> <Gold.Rescore>
     Score         DG    S(hbond)    S(metal)    S(lipo)     H(rot)  DE(clash)    DE(int)     intcor
     20.46     -20.98       3.04        0.00      76.86       1.42       0.09       0.43       ----

> <Gold.Chemscore.Fitness>
20.4647

> <Gold.Chemscore.DG>
-20.9800

> <Gold.Chemscore.ZeroCoef>
-5.4800

> <Gold.Chemscore.Hbond>
3.0365

> <Gold.Chemscore.Metal>
0.0000

> <Gold.Chemscore.Lipo>
76.8617

> <Gold.Chemscore.Internal_Hbond>
0.0000

> <Gold.Chemscore.DEClash>
0.0885

> <Gold.Chemscore.DEInternal>
0.4268

> <Gold.Chemscore.Rot>
1.4199

> <Gold.Chemscore.Internal.Correction>
   9.000000E+99

> <Gold.Chemscore.Hbonds>
donor molecule, donor type, donor heavy atom, donor atom, acceptor molecule, acceptor atom, score
      L1  H     7    27       P1  7948  0.02
      L1  H    10    28       P1  7948  0.69
      L1  H    15    33       P1 10186  1.00
      P1  H 10785 10796       L1    15  0.08

> <Gold.Chemscore.Hbond.Weighted>
-10.1421

> <Gold.Chemscore.Metal.Weighted>
-0.0000

> <Gold.Chemscore.Lipo.Weighted>
-8.9928

> <Gold.Chemscore.Internal_Hbond.Weighted>
0.0000

> <Gold.Chemscore.DEClash.Weighted>
0.0885

> <Gold.Chemscore.DEInternal.Weighted>
0.4268

> <Gold.Chemscore.Rot.Weighted>
3.6349

> <Gold.Chemscore.Internal.Correction.Weighted>
   9.000000E+99

> <Gold.Protein.RotatedTorsions>
[ 6907 6896 6895 6894 ] final -158.99 input  -60.11 | X-H torsion
[ 7974 7965 7964 7962 ] final  138.16 input  175.53 | X-H torsion
[ 8008 7997 7996 7995 ] final  -91.54 input   59.86 | X-H torsion
[ 10167 10162 10161 10158 ] final  -62.82 input  -65.29 | X-H torsion
[ 10718 10713 10712 10709 ] final -112.70 input   66.30 | X-H torsion
[ 10763 10752 10751 10750 ] final -143.60 input  -60.55 | X-H torsion
[ 11005 11000 10999 10996 ] final  -97.25 input  -57.11 | X-H torsion

> <Gold.Protein.ActiveResidues>
 VAL166  LYS551  ARG553  GLY616  TRP617  ASP618  TYR619  PRO620  LYS621  CYS622 
 ASP623  PHE694  ASN695  SER759  ASP760  ASP761  ALA762  ILE779  LEU786  VAL792 
 PHE793  MET794  SER795  GLU796  ALA797  LYS798  CYS799  TRP800  GLU811  SER814 

> <Gold.Protein.RotatedAtoms>
  151.3267  133.4017  159.2658 H   0  0  0  0  0  0  0  0  0  0  0  0  # atno 6907 bound_to 6896
  150.9989  134.9307  159.7953 H   0  0  0  0  0  0  0  0  0  0  0  0  # atno 6908 bound_to 6896
  152.5269  134.3232  159.9208 H   0  0  0  0  0  0  0  0  0  0  0  0  # atno 6909 bound_to 6896
  144.9398  139.4944  143.5577 H   0  0  0  0  0  0  0  0  0  0  0  0  # atno 7974 bound_to 7965
  154.7120  140.0518  157.0559 H   0  0  0  0  0  0  0  0  0  0  0  0  # atno 8008 bound_to 7997
  155.0541  140.3182  155.4663 H   0  0  0  0  0  0  0  0  0  0  0  0  # atno 8009 bound_to 7997
  156.2792  140.2110  156.5667 H   0  0  0  0  0  0  0  0  0  0  0  0  # atno 8010 bound_to 7997
  140.5913  143.2342  151.6133 H   0  0  0  0  0  0  0  0  0  0  0  0  # atno 10167 bound_to 10162
  156.0721  130.5934  150.8543 H   0  0  0  0  0  0  0  0  0  0  0  0  # atno 10718 bound_to 10713
  154.8463  135.3463  154.6214 H   0  0  0  0  0  0  0  0  0  0  0  0  # atno 10763 bound_to 10752
  153.6822  135.6979  153.5119 H   0  0  0  0  0  0  0  0  0  0  0  0  # atno 10764 bound_to 10752
  153.2659  135.4308  155.0896 H   0  0  0  0  0  0  0  0  0  0  0  0  # atno 10765 bound_to 10752
  141.1385  133.8157  157.0681 H   0  0  0  0  0  0  0  0  0  0  0  0  # atno 11005 bound_to 11000
  146.3281  139.8409  142.8890 LP  0  0  0  0  0  0  0  0  0  0  0  0  # atno 17320 bound_to 7965
  145.3009  141.0194  143.3609 LP  0  0  0  0  0  0  0  0  0  0  0  0  # atno 17321 bound_to 7965
  139.5229  144.3148  152.0961 LP  0  0  0  0  0  0  0  0  0  0  0  0  # atno 17342 bound_to 10162
  140.2313  144.4365  150.6299 LP  0  0  0  0  0  0  0  0  0  0  0  0  # atno 17343 bound_to 10162
  157.5798  131.0946  150.9289 LP  0  0  0  0  0  0  0  0  0  0  0  0  # atno 17370 bound_to 10713
  156.9487  130.5411  149.5282 LP  0  0  0  0  0  0  0  0  0  0  0  0  # atno 17371 bound_to 10713
  140.0529  134.9796  157.1168 LP  0  0  0  0  0  0  0  0  0  0  0  0  # atno 17394 bound_to 11000
  140.3963  134.2130  155.7164 LP  0  0  0  0  0  0  0  0  0  0  0  0  # atno 17395 bound_to 11000

$$$$
