AV-unprocessed.smi:107|AV-procd|sdf|1019|dock1
  -GOLD-   2262018 23D 1   1.00000     0.00000
 Structure written by MMmdl.
 31 32  0  0  0  0  0  0  0  0  1 V2000
  151.4934  144.7724  158.2236 C   0  0  0  0  0  0  0  0  0  0  0  0
  151.5039  143.2528  158.2399 C   0  0  0  0  0  0  0  0  0  0  0  0
  150.5628  142.5112  157.6016 C   0  0  0  0  0  0  0  0  0  0  0  0
  150.5411  141.1220  157.5951 N   0  0  0  0  0  0  0  0  0  0  0  0
  149.4046  140.3563  156.9477 C   0  0  2  0  0  0  0  0  0  0  0  0
  149.8465  139.3910  155.8314 C   0  0  0  0  0  0  0  0  0  0  0  0
  149.1128  139.9153  154.6046 C   0  0  2  0  0  0  0  0  0  0  0  0
  149.9747  140.6830  153.7863 O   0  0  0  0  0  0  0  0  0  0  0  0
  147.9739  140.7534  155.2078 C   0  0  2  0  0  0  0  0  0  0  0  0
  147.3835  141.8686  154.3274 C   0  0  0  0  0  0  0  0  0  0  0  0
  148.3787  142.8145  153.9996 O   0  0  0  0  0  0  0  0  0  0  0  0
  148.5294  141.2900  156.3995 O   0  0  0  0  0  0  0  0  0  0  0  0
  151.4835  140.4245  158.3834 C   0  0  0  0  0  0  0  0  0  0  0  0
  151.4790  139.2013  158.5160 O   0  0  0  0  0  0  0  0  0  0  0  0
  152.4601  141.1833  159.0264 N   0  0  0  0  0  0  0  0  0  0  0  0
  152.5577  142.5758  158.9989 C   0  0  0  0  0  0  0  0  0  0  0  0
  153.4760  143.1330  159.5979 O   0  0  0  0  0  0  0  0  0  0  0  0
  153.1488  140.6838  159.5699 H   0  0  0  0  0  0  0  0  0  0  0  0
  150.6656  145.1653  157.6326 H   0  0  0  0  0  0  0  0  0  0  0  0
  152.4208  145.1555  157.7962 H   0  0  0  0  0  0  0  0  0  0  0  0
  151.3954  145.1635  159.2369 H   0  0  0  0  0  0  0  0  0  0  0  0
  149.7804  143.0431  157.0841 H   0  0  0  0  0  0  0  0  0  0  0  0
  148.8968  139.7988  157.7360 H   0  0  0  0  0  0  0  0  0  0  0  0
  150.9284  139.3226  155.7175 H   0  0  0  0  0  0  0  0  0  0  0  0
  149.4829  138.3945  156.0863 H   0  0  0  0  0  0  0  0  0  0  0  0
  148.7203  139.0988  153.9979 H   0  0  0  0  0  0  0  0  0  0  0  0
  149.6907  140.5949  152.8890 H   0  0  0  0  0  0  0  0  0  0  0  0
  147.1719  140.0787  155.5140 H   0  0  0  0  0  0  0  0  0  0  0  0
  146.9973  141.4429  153.4011 H   0  0  0  0  0  0  0  0  0  0  0  0
  146.5475  142.3674  154.8183 H   0  0  0  0  0  0  0  0  0  0  0  0
  148.5284  143.3657  154.7529 H   0  0  0  0  0  0  0  0  0  0  0  0
  1  2  1  0  0  0  0
  1 19  1  0  0  0  0
  1 20  1  0  0  0  0
  1 21  1  0  0  0  0
  2 16  1  0  0  0  0
  2  3  2  0  0  0  0
  3  4  1  0  0  0  0
  3 22  1  0  0  0  0
  4  5  1  0  0  0  0
  4 13  1  0  0  0  0
  5 12  1  0  0  0  0
  5  6  1  0  0  0  0
  5 23  1  0  0  0  0
  6  7  1  0  0  0  0
  6 24  1  0  0  0  0
  6 25  1  0  0  0  0
  7  8  1  0  0  0  0
  7  9  1  0  0  0  0
  7 26  1  0  0  0  0
  8 27  1  0  0  0  0
  9 10  1  0  0  0  0
  9 12  1  0  0  0  0
  9 28  1  0  0  0  0
 10 11  1  0  0  0  0
 10 29  1  0  0  0  0
 10 30  1  0  0  0  0
 11 31  1  0  0  0  0
 13 14  2  0  0  0  0
 13 15  1  0  0  0  0
 15 18  1  0  0  0  0
 15 16  1  0  0  0  0
 16 17  2  0  0  0  0
M  END
> <s_m_source_file>
AV-unprocessed.smi

> <i_m_source_file_index>
107

> <i_lp_mmshare_version>
43012

> <i_f3d_flags>
0

> <s_epik_input>
Tz1jMVtuSF1jKD1PKW4oW2NIXWMxW0NIM10pW0NAQEhdMltDSDJdW0NAQEhdKFtPSF0pW0NASF0oTzIpW0NIMl1bT0hd

> <s_epik_cmdline>
J2VwaWtfcHl0aG9uJywgJy1waCcsICc3LjAnLCAnLXRuJywgJzgnLCAnLW1hJywgJzIwMCcsICctbWV0YWxfYmluZGluZycsICctaW1hZScsICc8aW5maWxlLm1hZT4nLCAnLW9tYWUnLCAnPG91dGZpbGUubWFlPic=

> <r_lp_tautomer_probability>
0.999537

> <r_epik_Ionization_Penalty>
0.00121888

> <r_epik_Ionization_Penalty_Charging>
0.00121876

> <r_epik_Ionization_Penalty_Neutral>
1.19946e-07

> <r_epik_State_Penalty>
0.000805124

> <r_epik_Charging_Adjusted_Penalty>
0.00202389

> <i_epik_Tot_Q>
0

> <i_epik_Tot_abs_Q>
0

> <r_epik_Metal_State_Penalty>
0.662472

> <b_epik_Metal_Only>
0

> <s_epik_Chemistry_Notes>
This compound contains an acetal/aminal-like group ( X-CH(R)-Y where X, Y are N, S, or O) that may be acid/base labile, releasing an aldehyde.

> <s_lp_Force_Field>
OPLS_2005

> <r_lp_Energy>
26.1821

> <b_lp_Chiralities_Consistent>
1

> <s_lp_Variant>
AV-unprocessed.smi:107-7

> <Gold.Version>
5.8.1

> <Gold.Id.Protein>
6NUR|6NUR_protein|mol2

> <Gold.PLP.Fitness>
40.0852

> <Gold.PLP.PLP>
-29.7769

> <Gold.PLP.part.hbond>
-5.3851

> <Gold.PLP.part.metal>
0.0000

> <Gold.PLP.part.buried>
-3.5877

> <Gold.PLP.part.nonpolar>
-20.5750

> <Gold.PLP.part.repulsive>
0.1924

> <Gold.PLP.ligand.clash>
0.0000

> <Gold.PLP.ligand.torsion>
0.0681

> <Gold.PLP.Chemscore.Hbond>
2.4480

> <Gold.PLP.Chemscore.CHOScore>
1.0000

> <Gold.PLP.Chemscore.Metal>
0.0000

> <Gold.Chemscore.Hbonds>
donor molecule, donor type, donor heavy atom, donor atom, acceptor molecule, acceptor atom, score
      L1  H     8    27       P1  7957  1.00
      L1  H    11    31       P1  8028  1.00
      P1  H  7989  7998       L1     8  0.46
      L1  C     3    22       P1  8028  1.00

> <Gold.PLP.Chemscore.Internal.Correction>
0.1006

> <Gold.Rescore>
     Score         DG    S(hbond)    S(metal)    S(lipo)     H(rot)  DE(clash)    DE(int)     intcor
     11.48     -11.57       2.09        0.00      52.07       2.73       0.03       0.07       ----

> <Gold.Chemscore.Fitness>
11.4795

> <Gold.Chemscore.DG>
-11.5733

> <Gold.Chemscore.ZeroCoef>
-5.4800

> <Gold.Chemscore.Hbond>
2.0893

> <Gold.Chemscore.Metal>
0.0000

> <Gold.Chemscore.Lipo>
52.0685

> <Gold.Chemscore.Internal_Hbond>
0.0000

> <Gold.Chemscore.DEClash>
0.0270

> <Gold.Chemscore.DEInternal>
0.0668

> <Gold.Chemscore.Rot>
2.7253

> <Gold.Chemscore.Internal.Correction>
   9.000000E+99

> <Gold.Chemscore.Hbonds>
donor molecule, donor type, donor heavy atom, donor atom, acceptor molecule, acceptor atom, score
      L1  H     8    27       P1  7957  1.00
      L1  H    11    31       P1  8028  0.99
      P1  H  7989  7998       L1     8  0.08
      P1  H  8011  8017       L1    11  0.03

> <Gold.Chemscore.Hbond.Weighted>
-6.9781

> <Gold.Chemscore.Metal.Weighted>
-0.0000

> <Gold.Chemscore.Lipo.Weighted>
-6.0920

> <Gold.Chemscore.Internal_Hbond.Weighted>
0.0000

> <Gold.Chemscore.DEClash.Weighted>
0.0270

> <Gold.Chemscore.DEInternal.Weighted>
0.0668

> <Gold.Chemscore.Rot.Weighted>
6.9769

> <Gold.Chemscore.Internal.Correction.Weighted>
   9.000000E+99

> <Gold.Protein.RotatedTorsions>
[ 6907 6896 6895 6894 ] final  170.93 input  -60.11 | X-H torsion
[ 7974 7965 7964 7962 ] final  -68.07 input  175.53 | X-H torsion
[ 8008 7997 7996 7995 ] final  -14.98 input   59.86 | X-H torsion
[ 10167 10162 10161 10158 ] final   83.37 input  -65.29 | X-H torsion
[ 10718 10713 10712 10709 ] final   96.93 input   66.30 | X-H torsion
[ 10763 10752 10751 10750 ] final  -82.09 input  -60.55 | X-H torsion
[ 11005 11000 10999 10996 ] final  -96.75 input  -57.11 | X-H torsion

> <Gold.Protein.ActiveResidues>
 VAL166  LYS551  ARG553  GLY616  TRP617  ASP618  TYR619  PRO620  LYS621  CYS622 
 ASP623  PHE694  ASN695  SER759  ASP760  ASP761  ALA762  ILE779  LEU786  VAL792 
 PHE793  MET794  SER795  GLU796  ALA797  LYS798  CYS799  TRP800  GLU811  SER814 

> <Gold.Protein.RotatedAtoms>
  151.8083  133.3378  159.3547 H   0  0  0  0  0  0  0  0  0  0  0  0  # atno 6907 bound_to 6896
  150.7335  134.5688  159.5889 H   0  0  0  0  0  0  0  0  0  0  0  0  # atno 6908 bound_to 6896
  152.3093  134.7518  160.0391 H   0  0  0  0  0  0  0  0  0  0  0  0  # atno 6909 bound_to 6896
  145.7212  140.9038  143.0629 H   0  0  0  0  0  0  0  0  0  0  0  0  # atno 7974 bound_to 7965
  154.5167  140.2208  155.9053 H   0  0  0  0  0  0  0  0  0  0  0  0  # atno 8008 bound_to 7997
  156.1615  140.3141  155.8781 H   0  0  0  0  0  0  0  0  0  0  0  0  # atno 8009 bound_to 7997
  155.3741  140.0468  157.3035 H   0  0  0  0  0  0  0  0  0  0  0  0  # atno 8010 bound_to 7997
  139.9191  144.6224  150.8459 H   0  0  0  0  0  0  0  0  0  0  0  0  # atno 10167 bound_to 10162
  157.6920  131.0593  150.4566 H   0  0  0  0  0  0  0  0  0  0  0  0  # atno 10718 bound_to 10713
  154.5716  135.5603  153.7100 H   0  0  0  0  0  0  0  0  0  0  0  0  # atno 10763 bound_to 10752
  153.0050  135.6298  154.2107 H   0  0  0  0  0  0  0  0  0  0  0  0  # atno 10764 bound_to 10752
  154.2046  135.2876  155.2959 H   0  0  0  0  0  0  0  0  0  0  0  0  # atno 10765 bound_to 10752
  141.1401  133.8120  157.0613 H   0  0  0  0  0  0  0  0  0  0  0  0  # atno 11005 bound_to 11000
  144.6916  139.9205  143.7467 LP  0  0  0  0  0  0  0  0  0  0  0  0  # atno 17320 bound_to 7965
  146.0624  139.3617  143.0573 LP  0  0  0  0  0  0  0  0  0  0  0  0  # atno 17321 bound_to 7965
  140.7667  143.3310  151.2410 LP  0  0  0  0  0  0  0  0  0  0  0  0  # atno 17342 bound_to 10162
  139.6877  143.9745  152.2843 LP  0  0  0  0  0  0  0  0  0  0  0  0  # atno 17343 bound_to 10162
  156.4913  130.4096  149.6405 LP  0  0  0  0  0  0  0  0  0  0  0  0  # atno 17370 bound_to 10713
  156.3414  130.7384  151.2330 LP  0  0  0  0  0  0  0  0  0  0  0  0  # atno 17371 bound_to 10713
  140.0570  134.9775  157.1237 LP  0  0  0  0  0  0  0  0  0  0  0  0  # atno 17394 bound_to 11000
  140.3905  134.2189  155.7166 LP  0  0  0  0  0  0  0  0  0  0  0  0  # atno 17395 bound_to 11000

$$$$
