AV-unprocessed.smi:1604|AV-procd|sdf|6448|dock4
  -GOLD-   22720 7103D 1   1.00000     0.00000
 Structure written by MMmdl.
 46 48  0  0  0  0  0  0  0  0  1 V2000
  145.1808  137.6863  153.0988 O   0  0  0  0  0  0  0  0  0  0  0  0
  146.2819  137.2832  152.7243 C   0  0  0  0  0  0  0  0  0  0  0  0
  147.4456  137.9329  152.8918 N   0  0  0  0  0  0  0  0  0  0  0  0
  147.6590  139.2305  153.4376 C   0  0  0  0  0  0  0  0  0  0  0  0
  146.7814  140.3120  153.1815 C   0  0  0  0  0  0  0  0  0  0  0  0
  147.0342  141.5587  153.7808 C   0  0  0  0  0  0  0  0  0  0  0  0
  148.1515  141.6779  154.6251 C   0  0  0  0  0  0  0  0  0  0  0  0
  148.9868  140.6537  154.8918 N   0  0  0  0  0  0  0  0  0  0  0  0
  148.7510  139.4464  154.3221 C   0  0  0  0  0  0  0  0  0  0  0  0
  149.6585  138.4022  154.6022 N   0  0  0  0  0  0  0  0  0  0  0  0
  151.0288  138.6730  154.1769 C   0  0  0  0  0  0  0  0  0  0  0  0
  151.9392  137.9867  155.1959 C   0  0  0  0  0  0  0  0  0  0  0  0
  151.0994  138.0010  156.4668 C   0  0  0  0  0  0  0  0  0  0  0  0
  149.6830  137.7938  155.9322 C   0  0  0  0  0  0  0  0  0  0  0  0
  146.4657  136.1260  152.0717 N   0  0  0  0  0  0  0  0  0  0  0  0
  145.4135  135.1660  151.7307 C   0  0  1  0  0  0  0  0  0  0  0  0
  146.0674  134.0326  150.9074 C   0  0  0  0  0  0  0  0  0  0  0  0
  145.0734  133.2464  150.0349 C   0  0  0  0  0  0  0  0  0  0  0  0
  144.0209  132.4436  150.8141 C   0  0  0  0  0  0  0  0  0  0  0  0
  143.0858  133.3158  151.6688 C   0  0  0  0  0  0  0  0  0  0  0  0
  143.7236  133.7600  152.9011 N   0  0  0  0  0  0  0  0  0  0  0  0
  144.7889  134.5679  153.0127 C   0  0  0  0  0  0  0  0  0  0  0  0
  145.2618  134.8226  154.1204 O   0  0  0  0  0  0  0  0  0  0  0  0
  148.2561  137.5073  152.4665 H   0  0  0  0  0  0  0  0  0  0  0  0
  145.9120  140.2032  152.5514 H   0  0  0  0  0  0  0  0  0  0  0  0
  146.3828  142.4011  153.6022 H   0  0  0  0  0  0  0  0  0  0  0  0
  148.3781  142.6189  155.1039 H   0  0  0  0  0  0  0  0  0  0  0  0
  151.2125  138.2997  153.1694 H   0  0  0  0  0  0  0  0  0  0  0  0
  151.2137  139.7486  154.1744 H   0  0  0  0  0  0  0  0  0  0  0  0
  152.1276  136.9566  154.8906 H   0  0  0  0  0  0  0  0  0  0  0  0
  152.9008  138.4874  155.3109 H   0  0  0  0  0  0  0  0  0  0  0  0
  151.3981  137.2388  157.1870 H   0  0  0  0  0  0  0  0  0  0  0  0
  151.1757  138.9757  156.9504 H   0  0  0  0  0  0  0  0  0  0  0  0
  148.9324  138.1763  156.6234 H   0  0  0  0  0  0  0  0  0  0  0  0
  149.4852  136.7285  155.8105 H   0  0  0  0  0  0  0  0  0  0  0  0
  147.4071  135.8757  151.8079 H   0  0  0  0  0  0  0  0  0  0  0  0
  144.6462  135.6673  151.1379 H   0  0  0  0  0  0  0  0  0  0  0  0
  146.8074  134.4662  150.2327 H   0  0  0  0  0  0  0  0  0  0  0  0
  146.6259  133.3515  151.5520 H   0  0  0  0  0  0  0  0  0  0  0  0
  144.5726  133.9316  149.3498 H   0  0  0  0  0  0  0  0  0  0  0  0
  145.6361  132.5571  149.4048 H   0  0  0  0  0  0  0  0  0  0  0  0
  143.4154  131.8922  150.0940 H   0  0  0  0  0  0  0  0  0  0  0  0
  144.5058  131.6894  151.4356 H   0  0  0  0  0  0  0  0  0  0  0  0
  142.7118  134.1695  151.1016 H   0  0  0  0  0  0  0  0  0  0  0  0
  142.2114  132.7303  151.9537 H   0  0  0  0  0  0  0  0  0  0  0  0
  143.3352  133.3951  153.7589 H   0  0  0  0  0  0  0  0  0  0  0  0
  1  2  2  0  0  0  0
  2  3  1  0  0  0  0
  2 15  1  0  0  0  0
  3  4  1  0  0  0  0
  3 24  1  0  0  0  0
  4  9  1  0  0  0  0
  4  5  2  0  0  0  0
  5  6  1  0  0  0  0
  5 25  1  0  0  0  0
  6  7  2  0  0  0  0
  6 26  1  0  0  0  0
  7  8  1  0  0  0  0
  7 27  1  0  0  0  0
  8  9  2  0  0  0  0
  9 10  1  0  0  0  0
 10 14  1  0  0  0  0
 10 11  1  0  0  0  0
 11 12  1  0  0  0  0
 11 28  1  0  0  0  0
 11 29  1  0  0  0  0
 12 13  1  0  0  0  0
 12 30  1  0  0  0  0
 12 31  1  0  0  0  0
 13 14  1  0  0  0  0
 13 32  1  0  0  0  0
 13 33  1  0  0  0  0
 14 34  1  0  0  0  0
 14 35  1  0  0  0  0
 15 16  1  0  0  0  0
 15 36  1  0  0  0  0
 16 22  1  0  0  0  0
 16 17  1  0  0  0  0
 16 37  1  0  0  0  0
 17 18  1  0  0  0  0
 17 38  1  0  0  0  0
 17 39  1  0  0  0  0
 18 19  1  0  0  0  0
 18 40  1  0  0  0  0
 18 41  1  0  0  0  0
 19 20  1  0  0  0  0
 19 42  1  0  0  0  0
 19 43  1  0  0  0  0
 20 21  1  0  0  0  0
 20 44  1  0  0  0  0
 20 45  1  0  0  0  0
 21 22  1  0  0  0  0
 21 46  1  0  0  0  0
 22 23  2  0  0  0  0
M  END
> <s_m_source_file>
AV-unprocessed.smi

> <i_m_source_file_index>
1604

> <i_lp_mmshare_version>
43012

> <i_f3d_flags>
0

> <s_epik_input>
Tz1DMVtOSF1bQ0gyXVtDSDJdW0NIMl1bQ0gyXVtDQEhdMVtOSF1DKD1PKVtOSF1jMltjSF1bY0hdW2NIXW5jMk4zW0NIMl1bQ0gyXVtDSDJdW0NIMl0z

> <s_epik_cmdline>
J2VwaWtfcHl0aG9uJywgJy1waCcsICc3LjAnLCAnLXRuJywgJzgnLCAnLW1hJywgJzIwMCcsICctbWV0YWxfYmluZGluZycsICctaW1hZScsICc8aW5maWxlLm1hZT4nLCAnLW9tYWUnLCAnPG91dGZpbGUubWFlPic=

> <r_lp_tautomer_probability>
1

> <r_epik_Ionization_Penalty>
0.0837267

> <r_epik_Ionization_Penalty_Charging>
0

> <r_epik_Ionization_Penalty_Neutral>
0.0837267

> <r_epik_State_Penalty>
0.0738331

> <r_epik_Charging_Adjusted_Penalty>
0.0738331

> <i_epik_Tot_Q>
0

> <i_epik_Tot_abs_Q>
0

> <r_epik_Metal_State_Penalty>
0.0646802

> <b_epik_Metal_Only>
0

> <s_lp_Force_Field>
OPLS_2005

> <r_lp_Energy>
39.7297

> <b_lp_Chiralities_Consistent>
1

> <s_lp_Variant>
AV-unprocessed.smi:1604-2

> <Gold.Version>
5.8.1

> <Gold.Id.Protein>
6NUR|6NUR_protein|mol2

> <Gold.PLP.Fitness>
43.5494

> <Gold.PLP.PLP>
-32.4542

> <Gold.PLP.part.hbond>
-2.6496

> <Gold.PLP.part.metal>
0.0000

> <Gold.PLP.part.buried>
-1.7784

> <Gold.PLP.part.nonpolar>
-27.8765

> <Gold.PLP.part.repulsive>
0.6617

> <Gold.PLP.ligand.clash>
0.0000

> <Gold.PLP.ligand.torsion>
0.4317

> <Gold.PLP.Chemscore.Hbond>
2.9360

> <Gold.PLP.Chemscore.CHOScore>
1.0000

> <Gold.PLP.Chemscore.Metal>
0.0000

> <Gold.Chemscore.Hbonds>
donor molecule, donor type, donor heavy atom, donor atom, acceptor molecule, acceptor atom, score
      L1  H     3    24       P1  7948  1.00
      L1  H    15    36       P1  7948  0.99
      L1  H    21    46       P1 10957  0.94
      L1  C     7    27       P1  8028  1.00

> <Gold.PLP.Chemscore.Internal.Correction>
0.1505

> <Gold.Rescore>
     Score         DG    S(hbond)    S(metal)    S(lipo)     H(rot)  DE(clash)    DE(int)     intcor
     20.27     -21.56       2.87        0.00      82.82       1.25       0.13       1.15       ----

> <Gold.Chemscore.Fitness>
20.2700

> <Gold.Chemscore.DG>
-21.5575

> <Gold.Chemscore.ZeroCoef>
-5.4800

> <Gold.Chemscore.Hbond>
2.8677

> <Gold.Chemscore.Metal>
0.0000

> <Gold.Chemscore.Lipo>
82.8160

> <Gold.Chemscore.Internal_Hbond>
0.0000

> <Gold.Chemscore.DEClash>
0.1339

> <Gold.Chemscore.DEInternal>
1.1536

> <Gold.Chemscore.Rot>
1.2461

> <Gold.Chemscore.Internal.Correction>
   9.000000E+99

> <Gold.Chemscore.Hbonds>
donor molecule, donor type, donor heavy atom, donor atom, acceptor molecule, acceptor atom, score
      L1  H     3    24       P1  7948  0.91
      L1  H    15    36       P1  7948  0.90
      L1  H    21    46       P1 10957  0.84

> <Gold.Chemscore.Hbond.Weighted>
-9.5780

> <Gold.Chemscore.Metal.Weighted>
-0.0000

> <Gold.Chemscore.Lipo.Weighted>
-9.6895

> <Gold.Chemscore.Internal_Hbond.Weighted>
0.0000

> <Gold.Chemscore.DEClash.Weighted>
0.1339

> <Gold.Chemscore.DEInternal.Weighted>
1.1536

> <Gold.Chemscore.Rot.Weighted>
3.1899

> <Gold.Chemscore.Internal.Correction.Weighted>
   9.000000E+99

> <Gold.Protein.RotatedTorsions>
[ 6907 6896 6895 6894 ] final   93.95 input  -60.11 | X-H torsion
[ 7974 7965 7964 7962 ] final    1.83 input  175.53 | X-H torsion
[ 8008 7997 7996 7995 ] final   89.24 input   59.86 | X-H torsion
[ 10167 10162 10161 10158 ] final  122.90 input  -65.29 | X-H torsion
[ 10718 10713 10712 10709 ] final  -23.79 input   66.30 | X-H torsion
[ 10763 10752 10751 10750 ] final   19.44 input  -60.55 | X-H torsion
[ 11005 11000 10999 10996 ] final -154.80 input  -57.11 | X-H torsion

> <Gold.Protein.ActiveResidues>
 VAL166  LYS551  ARG553  GLY616  TRP617  ASP618  TYR619  PRO620  LYS621  CYS622 
 ASP623  PHE694  ASN695  SER759  ASP760  ASP761  ALA762  ILE779  LEU786  VAL792 
 PHE793  MET794  SER795  GLU796  ALA797  LYS798  CYS799  TRP800  GLU811  SER814 

> <Gold.Protein.RotatedAtoms>
  152.5451  134.1268  159.8421 H   0  0  0  0  0  0  0  0  0  0  0  0  # atno 6907 bound_to 6896
  151.1318  133.5024  159.2606 H   0  0  0  0  0  0  0  0  0  0  0  0  # atno 6908 bound_to 6896
  151.1667  135.0309  159.8788 H   0  0  0  0  0  0  0  0  0  0  0  0  # atno 6909 bound_to 6896
  146.2442  140.0927  142.8351 H   0  0  0  0  0  0  0  0  0  0  0  0  # atno 7974 bound_to 7965
  155.9976  140.3363  155.6814 H   0  0  0  0  0  0  0  0  0  0  0  0  # atno 8008 bound_to 7997
  155.6335  140.0687  157.2659 H   0  0  0  0  0  0  0  0  0  0  0  0  # atno 8009 bound_to 7997
  154.4239  140.1755  156.1484 H   0  0  0  0  0  0  0  0  0  0  0  0  # atno 8010 bound_to 7997
  139.5831  144.6995  151.3477 H   0  0  0  0  0  0  0  0  0  0  0  0  # atno 10167 bound_to 10162
  156.4862  130.4556  149.6782 H   0  0  0  0  0  0  0  0  0  0  0  0  # atno 10718 bound_to 10713
  153.1162  135.6708  153.9414 H   0  0  0  0  0  0  0  0  0  0  0  0  # atno 10763 bound_to 10752
  153.8943  135.3043  155.3449 H   0  0  0  0  0  0  0  0  0  0  0  0  # atno 10764 bound_to 10752
  154.7578  135.5003  153.9485 H   0  0  0  0  0  0  0  0  0  0  0  0  # atno 10765 bound_to 10752
  140.6934  134.4016  157.5217 H   0  0  0  0  0  0  0  0  0  0  0  0  # atno 11005 bound_to 11000
  145.0636  140.9105  143.4924 LP  0  0  0  0  0  0  0  0  0  0  0  0  # atno 17320 bound_to 7965
  145.1048  139.2798  143.5668 LP  0  0  0  0  0  0  0  0  0  0  0  0  # atno 17321 bound_to 7965
  140.7107  143.7398  150.7562 LP  0  0  0  0  0  0  0  0  0  0  0  0  # atno 17342 bound_to 10162
  140.0936  143.4854  152.2465 LP  0  0  0  0  0  0  0  0  0  0  0  0  # atno 17343 bound_to 10162
  156.3471  130.7413  151.2367 LP  0  0  0  0  0  0  0  0  0  0  0  0  # atno 17370 bound_to 10713
  157.7478  131.0387  150.4517 LP  0  0  0  0  0  0  0  0  0  0  0  0  # atno 17371 bound_to 10713
  139.8917  134.8773  156.2307 LP  0  0  0  0  0  0  0  0  0  0  0  0  # atno 17394 bound_to 11000
  141.0223  133.7034  156.1288 LP  0  0  0  0  0  0  0  0  0  0  0  0  # atno 17395 bound_to 11000

$$$$
