AV-unprocessed.smi:762|AV-procd|sdf|3633|dock3
  -GOLD-   22720 1 23D 1   1.00000     0.00000
 Structure written by MMmdl.
 42 44  0  0  0  0  0  0  0  0  1 V2000
  144.5307  136.0333  153.1450 O   0  0  0  0  0  0  0  0  0  0  0  0
  145.5716  136.2126  152.5128 C   0  0  0  0  0  0  0  0  0  0  0  0
  145.6778  135.7358  151.0642 C   0  0  0  0  0  0  0  0  0  0  0  0
  145.3519  134.2683  150.8480 C   0  0  0  0  0  0  0  0  0  0  0  0
  144.3156  133.8712  150.0840 C   0  0  0  0  0  0  0  0  0  0  0  0
  143.9134  132.4217  149.8810 C   0  0  0  0  0  0  0  0  0  0  0  0
  144.5532  131.4895  150.9232 C   0  0  0  0  0  0  0  0  0  0  0  0
  146.0368  131.8213  151.1253 C   0  0  0  0  0  0  0  0  0  0  0  0
  146.2327  133.2741  151.5964 C   0  0  0  0  0  0  0  0  0  0  0  0
  146.6563  136.8096  153.0298 N   0  0  0  0  0  0  0  0  0  0  0  0
  146.7625  137.3122  154.3938 C   0  0  0  0  0  0  0  0  0  0  0  0
  147.0318  138.8261  154.4213 C   0  0  0  0  0  0  0  0  0  0  0  0
  148.4533  139.1160  154.3799 N   0  0  0  0  0  0  0  0  0  0  0  0
  149.4721  138.2572  154.2220 C   0  0  0  0  0  0  0  0  0  0  0  0
  150.6842  138.8095  154.2433 N   0  0  0  0  0  0  0  0  0  0  0  0
  150.4489  140.1558  154.4386 N   0  0  0  0  0  0  0  0  0  0  0  0
  149.1179  140.2837  154.4998 C   0  0  0  0  0  0  0  0  0  0  0  0
  148.4226  141.5862  154.7372 C   0  0  0  0  0  0  0  0  0  0  0  0
  147.2723  141.6914  155.7141 C   0  0  0  0  0  0  0  0  0  0  0  0
  147.0154  141.8246  154.2358 C   0  0  0  0  0  0  0  0  0  0  0  0
  144.9831  136.3371  150.4761 H   0  0  0  0  0  0  0  0  0  0  0  0
  146.6680  135.9507  150.6599 H   0  0  0  0  0  0  0  0  0  0  0  0
  143.7153  134.6077  149.5698 H   0  0  0  0  0  0  0  0  0  0  0  0
  142.8273  132.3403  149.9290 H   0  0  0  0  0  0  0  0  0  0  0  0
  144.2107  132.1256  148.8746 H   0  0  0  0  0  0  0  0  0  0  0  0
  144.0305  131.5940  151.8751 H   0  0  0  0  0  0  0  0  0  0  0  0
  144.4333  130.4497  150.6176 H   0  0  0  0  0  0  0  0  0  0  0  0
  146.4846  131.1344  151.8441 H   0  0  0  0  0  0  0  0  0  0  0  0
  146.5667  131.6703  150.1839 H   0  0  0  0  0  0  0  0  0  0  0  0
  147.2805  133.5531  151.4814 H   0  0  0  0  0  0  0  0  0  0  0  0
  146.0004  133.3538  152.6589 H   0  0  0  0  0  0  0  0  0  0  0  0
  147.4694  136.9125  152.4395 H   0  0  0  0  0  0  0  0  0  0  0  0
  145.8537  137.0728  154.9489 H   0  0  0  0  0  0  0  0  0  0  0  0
  147.5747  136.7781  154.8867 H   0  0  0  0  0  0  0  0  0  0  0  0
  146.5387  139.3191  153.5830 H   0  0  0  0  0  0  0  0  0  0  0  0
  146.6239  139.2719  155.3293 H   0  0  0  0  0  0  0  0  0  0  0  0
  149.3226  137.1954  154.0910 H   0  0  0  0  0  0  0  0  0  0  0  0
  149.1280  142.4134  154.6871 H   0  0  0  0  0  0  0  0  0  0  0  0
  146.9288  140.7796  156.1979 H   0  0  0  0  0  0  0  0  0  0  0  0
  147.2112  142.5931  156.3200 H   0  0  0  0  0  0  0  0  0  0  0  0
  146.7804  142.8155  153.8528 H   0  0  0  0  0  0  0  0  0  0  0  0
  146.5057  141.0003  153.7404 H   0  0  0  0  0  0  0  0  0  0  0  0
  1  2  2  0  0  0  0
  2  3  1  0  0  0  0
  2 10  1  0  0  0  0
  3  4  1  0  0  0  0
  3 21  1  0  0  0  0
  3 22  1  0  0  0  0
  4  9  1  0  0  0  0
  4  5  2  0  0  0  0
  5  6  1  0  0  0  0
  5 23  1  0  0  0  0
  6  7  1  0  0  0  0
  6 24  1  0  0  0  0
  6 25  1  0  0  0  0
  7  8  1  0  0  0  0
  7 26  1  0  0  0  0
  7 27  1  0  0  0  0
  8  9  1  0  0  0  0
  8 28  1  0  0  0  0
  8 29  1  0  0  0  0
  9 30  1  0  0  0  0
  9 31  1  0  0  0  0
 10 11  1  0  0  0  0
 10 32  1  0  0  0  0
 11 12  1  0  0  0  0
 11 33  1  0  0  0  0
 11 34  1  0  0  0  0
 12 13  1  0  0  0  0
 12 35  1  0  0  0  0
 12 36  1  0  0  0  0
 13 17  1  0  0  0  0
 13 14  1  0  0  0  0
 14 15  2  0  0  0  0
 14 37  1  0  0  0  0
 15 16  1  0  0  0  0
 16 17  2  0  0  0  0
 17 18  1  0  0  0  0
 18 20  1  0  0  0  0
 18 19  1  0  0  0  0
 18 38  1  0  0  0  0
 19 20  1  0  0  0  0
 19 39  1  0  0  0  0
 19 40  1  0  0  0  0
 20 41  1  0  0  0  0
 20 42  1  0  0  0  0
M  END
> <s_m_source_file>
AV-unprocessed.smi

> <i_m_source_file_index>
762

> <i_lp_mmshare_version>
43012

> <i_f3d_flags>
0

> <s_epik_input>
W0NIMl0xW0NIMl1bQ0gyXVtDSDJdW0NIXT1DMVtDSDJdQyg9TylbTkhdW0NIMl1bQ0gyXW4yW2NIXW5uYzJbQ0hdM1tDSDJdW0NIMl0z

> <s_epik_cmdline>
J2VwaWtfcHl0aG9uJywgJy1waCcsICc3LjAnLCAnLXRuJywgJzgnLCAnLW1hJywgJzIwMCcsICctbWV0YWxfYmluZGluZycsICctaW1hZScsICc8aW5maWxlLm1hZT4nLCAnLW9tYWUnLCAnPG91dGZpbGUubWFlPic=

> <r_lp_tautomer_probability>
1

> <r_epik_Ionization_Penalty>
0.000270947

> <r_epik_Ionization_Penalty_Charging>
0

> <r_epik_Ionization_Penalty_Neutral>
0.000270947

> <r_epik_State_Penalty>
-0

> <r_epik_Charging_Adjusted_Penalty>
0

> <i_epik_Tot_Q>
0

> <i_epik_Tot_abs_Q>
0

> <r_epik_Metal_State_Penalty>
-0

> <b_epik_Metal_Only>
0

> <s_lp_Force_Field>
OPLS_2005

> <r_lp_Energy>
11.3747

> <b_lp_Chiralities_Consistent>
1

> <s_lp_Variant>
AV-unprocessed.smi:762-1

> <Gold.Version>
5.8.1

> <Gold.Id.Protein>
6NUR|6NUR_protein|mol2

> <Gold.PLP.Fitness>
44.8085

> <Gold.PLP.PLP>
-37.9114

> <Gold.PLP.part.hbond>
-2.0000

> <Gold.PLP.part.metal>
0.0000

> <Gold.PLP.part.buried>
-5.6450

> <Gold.PLP.part.nonpolar>
-31.4405

> <Gold.PLP.part.repulsive>
0.4154

> <Gold.PLP.ligand.clash>
0.0000

> <Gold.PLP.ligand.torsion>
0.8320

> <Gold.PLP.Chemscore.Hbond>
2.0000

> <Gold.PLP.Chemscore.CHOScore>
0.7872

> <Gold.PLP.Chemscore.Metal>
0.0000

> <Gold.Chemscore.Hbonds>
donor molecule, donor type, donor heavy atom, donor atom, acceptor molecule, acceptor atom, score
      L1  H    10    32       P1  7948  0.96
      P1  H  7989  7998       L1    16  1.00
      L1  C    14    37       P1  7948  0.82

> <Gold.PLP.Chemscore.Internal.Correction>
0.1997

> <Gold.Rescore>
     Score         DG    S(hbond)    S(metal)    S(lipo)     H(rot)  DE(clash)    DE(int)     intcor
     13.84     -15.69       1.89        0.00      79.17       2.10       0.00       1.85       ----

> <Gold.Chemscore.Fitness>
13.8359

> <Gold.Chemscore.DG>
-15.6860

> <Gold.Chemscore.ZeroCoef>
-5.4800

> <Gold.Chemscore.Hbond>
1.8943

> <Gold.Chemscore.Metal>
0.0000

> <Gold.Chemscore.Lipo>
79.1691

> <Gold.Chemscore.Internal_Hbond>
0.0000

> <Gold.Chemscore.DEClash>
0.0029

> <Gold.Chemscore.DEInternal>
1.8472

> <Gold.Chemscore.Rot>
2.1031

> <Gold.Chemscore.Internal.Correction>
   9.000000E+99

> <Gold.Chemscore.Hbonds>
donor molecule, donor type, donor heavy atom, donor atom, acceptor molecule, acceptor atom, score
      L1  H    10    32       P1  7948  0.92
      P1  H  7989  7998       L1    16  0.39

> <Gold.Chemscore.Hbond.Weighted>
-6.3271

> <Gold.Chemscore.Metal.Weighted>
-0.0000

> <Gold.Chemscore.Lipo.Weighted>
-9.2628

> <Gold.Chemscore.Internal_Hbond.Weighted>
0.0000

> <Gold.Chemscore.DEClash.Weighted>
0.0029

> <Gold.Chemscore.DEInternal.Weighted>
1.8472

> <Gold.Chemscore.Rot.Weighted>
5.3838

> <Gold.Chemscore.Internal.Correction.Weighted>
   9.000000E+99

> <Gold.Protein.RotatedTorsions>
[ 6907 6896 6895 6894 ] final -165.91 input  -60.11 | X-H torsion
[ 7974 7965 7964 7962 ] final   83.13 input  175.53 | X-H torsion
[ 8008 7997 7996 7995 ] final  -47.00 input   59.86 | X-H torsion
[ 10167 10162 10161 10158 ] final   93.51 input  -65.29 | X-H torsion
[ 10718 10713 10712 10709 ] final  150.37 input   66.30 | X-H torsion
[ 10763 10752 10751 10750 ] final -134.03 input  -60.55 | X-H torsion
[ 11005 11000 10999 10996 ] final  -32.31 input  -57.11 | X-H torsion

> <Gold.Protein.ActiveResidues>
 VAL166  LYS551  ARG553  GLY616  TRP617  ASP618  TYR619  PRO620  LYS621  CYS622 
 ASP623  PHE694  ASN695  SER759  ASP760  ASP761  ALA762  ILE779  LEU786  VAL792 
 PHE793  MET794  SER795  GLU796  ALA797  LYS798  CYS799  TRP800  GLU811  SER814 

> <Gold.Protein.RotatedAtoms>
  151.4352  133.3659  159.2773 H   0  0  0  0  0  0  0  0  0  0  0  0  # atno 6907 bound_to 6896
  150.9197  134.8616  159.7491 H   0  0  0  0  0  0  0  0  0  0  0  0  # atno 6908 bound_to 6896
  152.4975  134.4288  159.9557 H   0  0  0  0  0  0  0  0  0  0  0  0  # atno 6909 bound_to 6896
  145.6159  139.2377  143.2166 H   0  0  0  0  0  0  0  0  0  0  0  0  # atno 7974 bound_to 7965
  154.4012  140.1357  156.4103 H   0  0  0  0  0  0  0  0  0  0  0  0  # atno 8008 bound_to 7997
  155.7740  140.3483  155.5242 H   0  0  0  0  0  0  0  0  0  0  0  0  # atno 8009 bound_to 7997
  155.8739  140.0976  157.1522 H   0  0  0  0  0  0  0  0  0  0  0  0  # atno 8010 bound_to 7997
  139.8173  144.6747  150.9564 H   0  0  0  0  0  0  0  0  0  0  0  0  # atno 10167 bound_to 10162
  157.2843  131.0841  151.1509 H   0  0  0  0  0  0  0  0  0  0  0  0  # atno 10718 bound_to 10713
  154.8725  135.3747  154.4669 H   0  0  0  0  0  0  0  0  0  0  0  0  # atno 10763 bound_to 10752
  153.5333  135.7027  153.5677 H   0  0  0  0  0  0  0  0  0  0  0  0  # atno 10764 bound_to 10752
  153.3872  135.3981  155.1863 H   0  0  0  0  0  0  0  0  0  0  0  0  # atno 10765 bound_to 10752
  140.9541  133.7203  156.1266 H   0  0  0  0  0  0  0  0  0  0  0  0  # atno 11005 bound_to 11000
  146.1468  140.6981  142.9341 LP  0  0  0  0  0  0  0  0  0  0  0  0  # atno 17320 bound_to 7965
  144.7250  140.4497  143.6979 LP  0  0  0  0  0  0  0  0  0  0  0  0  # atno 17321 bound_to 7965
  140.7815  143.4126  151.0968 LP  0  0  0  0  0  0  0  0  0  0  0  0  # atno 17342 bound_to 10162
  139.7789  143.8384  152.3134 LP  0  0  0  0  0  0  0  0  0  0  0  0  # atno 17343 bound_to 10162
  157.2931  130.6806  149.6124 LP  0  0  0  0  0  0  0  0  0  0  0  0  # atno 17370 bound_to 10713
  155.9665  130.4415  150.5342 LP  0  0  0  0  0  0  0  0  0  0  0  0  # atno 17371 bound_to 10713
  140.7561  134.3991  157.5533 LP  0  0  0  0  0  0  0  0  0  0  0  0  # atno 17394 bound_to 11000
  139.8857  134.8931  156.2630 LP  0  0  0  0  0  0  0  0  0  0  0  0  # atno 17395 bound_to 11000

$$$$
