AV-unprocessed.smi:171|AV-procd|sdf|1417|dock7
  -GOLD-   2262019183D 1   1.00000     0.00000
 Structure written by MMmdl.
 56 59  0  0  0  0  0  0  0  0  1 V2000
  149.6351  142.3680  158.2494 C   0  0  0  0  0  0  0  0  0  0  0  0
  150.9121  142.6276  157.4324 C   0  0  0  0  0  0  0  0  0  0  0  0
  151.2139  144.1326  157.3713 C   0  0  0  0  0  0  0  0  0  0  0  0
  150.8399  142.0303  156.0072 C   0  0  0  0  0  0  0  0  0  0  0  0
  150.3026  140.5807  155.9196 C   0  0  1  0  0  0  0  0  0  0  0  0
  149.9505  140.2275  154.4567 C   0  0  0  0  0  0  0  0  0  0  0  0
  148.9907  140.7732  153.9161 O   0  0  0  0  0  0  0  0  0  0  0  0
  150.7009  139.3243  153.8001 N   0  0  0  0  0  0  0  0  0  0  0  0
  151.8481  138.6016  154.3496 C   0  0  0  0  0  0  0  0  0  0  0  0
  152.3894  139.2379  155.6412 C   0  0  0  0  0  0  0  0  0  0  0  0
  151.2824  139.6491  156.4986 N   0  0  0  0  0  0  0  0  0  0  0  0
  150.8497  138.6991  157.3646 C   0  0  0  0  0  0  0  0  0  0  0  0
  151.6144  138.3448  158.4311 N   0  0  0  0  0  0  0  0  0  0  0  0
  151.1831  137.4142  159.2875 C   0  0  0  0  0  0  0  0  0  0  0  0
  150.0395  136.7266  159.2667 N   0  0  0  0  0  0  0  0  0  0  0  0
  149.2674  137.0816  158.1997 C   0  0  0  0  0  0  0  0  0  0  0  0
  149.5943  138.0506  157.2104 C   0  0  0  0  0  0  0  0  0  0  0  0
  148.5737  138.1362  156.2724 N   0  0  0  0  0  0  0  0  0  0  0  0
  147.6915  137.2673  156.6848 C   0  0  0  0  0  0  0  0  0  0  0  0
  148.0222  136.5950  157.8406 N   0  0  0  0  0  0  0  0  0  0  0  0
  147.2326  135.5734  158.5131 C   0  0  0  0  0  0  0  0  0  0  0  0
  146.5917  136.0423  159.8429 C   0  0  2  0  0  0  0  0  0  0  0  0
  146.0066  137.3176  159.6362 O   0  0  0  0  0  0  0  0  0  0  0  0
  147.5761  136.1486  161.0168 C   0  0  0  0  0  0  0  0  0  0  0  0
  147.0595  135.1400  162.0396 C   0  0  0  0  0  0  0  0  0  0  0  0
  145.6716  135.0638  161.7668 O   0  0  0  0  0  0  0  0  0  0  0  0
  145.5314  135.0390  160.3550 C   0  0  1  0  0  0  0  0  0  0  0  0
  144.0727  135.2891  159.9391 C   0  0  0  0  0  0  0  0  0  0  0  0
  148.7535  142.7637  157.7444 H   0  0  0  0  0  0  0  0  0  0  0  0
  149.6956  142.8397  159.2305 H   0  0  0  0  0  0  0  0  0  0  0  0
  149.4759  141.3031  158.4184 H   0  0  0  0  0  0  0  0  0  0  0  0
  151.7442  142.1630  157.9628 H   0  0  0  0  0  0  0  0  0  0  0  0
  150.4188  144.6757  156.8592 H   0  0  0  0  0  0  0  0  0  0  0  0
  152.1457  144.3266  156.8396 H   0  0  0  0  0  0  0  0  0  0  0  0
  151.3147  144.5548  158.3716 H   0  0  0  0  0  0  0  0  0  0  0  0
  150.2180  142.6798  155.3891 H   0  0  0  0  0  0  0  0  0  0  0  0
  151.8352  142.0709  155.5618 H   0  0  0  0  0  0  0  0  0  0  0  0
  149.3669  140.5465  156.4788 H   0  0  0  0  0  0  0  0  0  0  0  0
  150.4471  139.1127  152.8461 H   0  0  0  0  0  0  0  0  0  0  0  0
  151.5240  137.5806  154.5542 H   0  0  0  0  0  0  0  0  0  0  0  0
  152.6350  138.5372  153.5978 H   0  0  0  0  0  0  0  0  0  0  0  0
  153.0693  138.5491  156.1440 H   0  0  0  0  0  0  0  0  0  0  0  0
  152.9821  140.1201  155.3983 H   0  0  0  0  0  0  0  0  0  0  0  0
  151.8499  137.1888  160.1067 H   0  0  0  0  0  0  0  0  0  0  0  0
  146.7668  137.0929  156.1542 H   0  0  0  0  0  0  0  0  0  0  0  0
  146.4590  135.2347  157.8228 H   0  0  0  0  0  0  0  0  0  0  0  0
  147.8757  134.7112  158.6931 H   0  0  0  0  0  0  0  0  0  0  0  0
  145.5120  137.2901  158.8310 H   0  0  0  0  0  0  0  0  0  0  0  0
  148.6081  135.9293  160.7461 H   0  0  0  0  0  0  0  0  0  0  0  0
  147.5664  137.1489  161.4528 H   0  0  0  0  0  0  0  0  0  0  0  0
  147.5153  134.1610  161.8829 H   0  0  0  0  0  0  0  0  0  0  0  0
  147.2517  135.4465  163.0681 H   0  0  0  0  0  0  0  0  0  0  0  0
  145.8085  134.0326  160.0355 H   0  0  0  0  0  0  0  0  0  0  0  0
  143.9735  135.3084  158.8535 H   0  0  0  0  0  0  0  0  0  0  0  0
  143.6959  136.2342  160.3307 H   0  0  0  0  0  0  0  0  0  0  0  0
  143.4236  134.4989  160.3165 H   0  0  0  0  0  0  0  0  0  0  0  0
  1  2  1  0  0  0  0
  1 29  1  0  0  0  0
  1 30  1  0  0  0  0
  1 31  1  0  0  0  0
  2  3  1  0  0  0  0
  2  4  1  0  0  0  0
  2 32  1  0  0  0  0
  3 33  1  0  0  0  0
  3 34  1  0  0  0  0
  3 35  1  0  0  0  0
  4  5  1  0  0  0  0
  4 36  1  0  0  0  0
  4 37  1  0  0  0  0
  5 11  1  0  0  0  0
  5  6  1  0  0  0  0
  5 38  1  0  0  0  0
  6  7  2  0  0  0  0
  6  8  1  0  0  0  0
  8  9  1  0  0  0  0
  8 39  1  0  0  0  0
  9 10  1  0  0  0  0
  9 40  1  0  0  0  0
  9 41  1  0  0  0  0
 10 11  1  0  0  0  0
 10 42  1  0  0  0  0
 10 43  1  0  0  0  0
 11 12  1  0  0  0  0
 12 17  1  0  0  0  0
 12 13  2  0  0  0  0
 13 14  1  0  0  0  0
 14 15  2  0  0  0  0
 14 44  1  0  0  0  0
 15 16  1  0  0  0  0
 16 20  1  0  0  0  0
 16 17  2  0  0  0  0
 17 18  1  0  0  0  0
 18 19  2  0  0  0  0
 19 20  1  0  0  0  0
 19 45  1  0  0  0  0
 20 21  1  0  0  0  0
 21 22  1  0  0  0  0
 21 46  1  0  0  0  0
 21 47  1  0  0  0  0
 22 27  1  0  0  0  0
 22 23  1  0  0  0  0
 22 24  1  0  0  0  0
 23 48  1  0  0  0  0
 24 25  1  0  0  0  0
 24 49  1  0  0  0  0
 24 50  1  0  0  0  0
 25 26  1  0  0  0  0
 25 51  1  0  0  0  0
 25 52  1  0  0  0  0
 26 27  1  0  0  0  0
 27 28  1  0  0  0  0
 27 53  1  0  0  0  0
 28 54  1  0  0  0  0
 28 55  1  0  0  0  0
 28 56  1  0  0  0  0
M  END
> <s_m_source_file>
AV-unprocessed.smi

> <i_m_source_file_index>
171

> <i_lp_mmshare_version>
43012

> <i_f3d_flags>
0

> <s_epik_input>
W0NIM11bQ0hdKFtDSDNdKVtDSDJdW0NAQEhdMUMoPU8pW05IXVtDSDJdW0NIMl1OMWMobltjSF1uMiljKGMyMyluW2NIXW4zW0NIMl1bQ0BAXTQoW09IXSlbQ0gyXVtDSDJdT1tDQEhdNFtDSDNd

> <s_epik_cmdline>
J2VwaWtfcHl0aG9uJywgJy1waCcsICc3LjAnLCAnLXRuJywgJzgnLCAnLW1hJywgJzIwMCcsICctbWV0YWxfYmluZGluZycsICctaW1hZScsICc8aW5maWxlLm1hZT4nLCAnLW9tYWUnLCAnPG91dGZpbGUubWFlPic=

> <r_lp_tautomer_probability>
1

> <r_epik_Ionization_Penalty>
0.000670584

> <r_epik_Ionization_Penalty_Charging>
0

> <r_epik_Ionization_Penalty_Neutral>
0.000670584

> <r_epik_State_Penalty>
0.000304767

> <r_epik_Charging_Adjusted_Penalty>
0.000304767

> <i_epik_Tot_Q>
0

> <i_epik_Tot_abs_Q>
0

> <r_epik_Metal_State_Penalty>
-0

> <b_epik_Metal_Only>
0

> <s_lp_Force_Field>
OPLS_2005

> <r_lp_Energy>
42.7698

> <b_lp_Chiralities_Consistent>
1

> <s_lp_Variant>
AV-unprocessed.smi:171-4

> <Gold.Version>
5.8.1

> <Gold.Id.Protein>
6NUR|6NUR_protein|mol2

> <Gold.PLP.Fitness>
46.6368

> <Gold.PLP.PLP>
-40.4721

> <Gold.PLP.part.hbond>
-3.0000

> <Gold.PLP.part.metal>
0.0000

> <Gold.PLP.part.buried>
-6.5889

> <Gold.PLP.part.nonpolar>
-32.0407

> <Gold.PLP.part.repulsive>
1.2876

> <Gold.PLP.ligand.clash>
0.0000

> <Gold.PLP.ligand.torsion>
1.3666

> <Gold.PLP.Chemscore.Hbond>
2.8632

> <Gold.PLP.Chemscore.CHOScore>
0.0000

> <Gold.PLP.Chemscore.Metal>
0.0000

> <Gold.Chemscore.Hbonds>
donor molecule, donor type, donor heavy atom, donor atom, acceptor molecule, acceptor atom, score
      L1  H     8    39       P1  7957  0.72
      P1  H  6896  6909       L1    15  0.79
      P1  H  6934  6947       L1    23  0.02
      P1  H  8011  8017       L1     7  0.03

> <Gold.PLP.Chemscore.Internal.Correction>
0.3085

> <Gold.Rescore>
     Score         DG    S(hbond)    S(metal)    S(lipo)     H(rot)  DE(clash)    DE(int)     intcor
     12.74     -16.22       1.86        0.00      88.89       2.29       0.07       3.40       ----

> <Gold.Chemscore.Fitness>
12.7384

> <Gold.Chemscore.DG>
-16.2150

> <Gold.Chemscore.ZeroCoef>
-5.4800

> <Gold.Chemscore.Hbond>
1.8576

> <Gold.Chemscore.Metal>
0.0000

> <Gold.Chemscore.Lipo>
88.8909

> <Gold.Chemscore.Internal_Hbond>
0.0000

> <Gold.Chemscore.DEClash>
0.0717

> <Gold.Chemscore.DEInternal>
3.4049

> <Gold.Chemscore.Rot>
2.2928

> <Gold.Chemscore.Internal.Correction>
   9.000000E+99

> <Gold.Chemscore.Hbonds>
donor molecule, donor type, donor heavy atom, donor atom, acceptor molecule, acceptor atom, score
      L1  H     8    39       P1  7957  0.38
      P1  H  6896  6909       L1    15  0.13
      P1  H  6934  6947       L1    23  0.07
      P1  H  8011  8017       L1     7  0.06

> <Gold.Chemscore.Hbond.Weighted>
-6.2043

> <Gold.Chemscore.Metal.Weighted>
-0.0000

> <Gold.Chemscore.Lipo.Weighted>
-10.4002

> <Gold.Chemscore.Internal_Hbond.Weighted>
0.0000

> <Gold.Chemscore.DEClash.Weighted>
0.0717

> <Gold.Chemscore.DEInternal.Weighted>
3.4049

> <Gold.Chemscore.Rot.Weighted>
5.8696

> <Gold.Chemscore.Internal.Correction.Weighted>
   9.000000E+99

> <Gold.Protein.RotatedTorsions>
[ 6907 6896 6895 6894 ] final   70.82 input  -60.11 | X-H torsion
[ 7974 7965 7964 7962 ] final -130.44 input  175.53 | X-H torsion
[ 8008 7997 7996 7995 ] final -179.09 input   59.86 | X-H torsion
[ 10167 10162 10161 10158 ] final  -84.08 input  -65.29 | X-H torsion
[ 10718 10713 10712 10709 ] final   69.72 input   66.30 | X-H torsion
[ 10763 10752 10751 10750 ] final  -14.34 input  -60.55 | X-H torsion
[ 11005 11000 10999 10996 ] final  -90.29 input  -57.11 | X-H torsion

> <Gold.Protein.ActiveResidues>
 VAL166  LYS551  ARG553  GLY616  TRP617  ASP618  TYR619  PRO620  LYS621  CYS622 
 ASP623  PHE694  ASN695  SER759  ASP760  ASP761  ALA762  ILE779  LEU786  VAL792 
 PHE793  MET794  SER795  GLU796  ALA797  LYS798  CYS799  TRP800  GLU811  SER814 

> <Gold.Protein.RotatedAtoms>
  152.4773  134.4811  159.9665 H   0  0  0  0  0  0  0  0  0  0  0  0  # atno 6907 bound_to 6896
  151.4824  133.3537  159.2848 H   0  0  0  0  0  0  0  0  0  0  0  0  # atno 6908 bound_to 6896
  150.8820  134.8239  159.7293 H   0  0  0  0  0  0  0  0  0  0  0  0  # atno 6909 bound_to 6896
  144.9474  140.7307  143.4809 H   0  0  0  0  0  0  0  0  0  0  0  0  # atno 7974 bound_to 7965
  156.0264  140.1272  157.0304 H   0  0  0  0  0  0  0  0  0  0  0  0  # atno 8008 bound_to 7997
  154.4332  140.1058  156.6107 H   0  0  0  0  0  0  0  0  0  0  0  0  # atno 8009 bound_to 7997
  155.5870  140.3469  155.4558 H   0  0  0  0  0  0  0  0  0  0  0  0  # atno 8010 bound_to 7997
  140.4167  143.2601  151.8946 H   0  0  0  0  0  0  0  0  0  0  0  0  # atno 10167 bound_to 10162
  157.6361  130.9440  150.0552 H   0  0  0  0  0  0  0  0  0  0  0  0  # atno 10718 bound_to 10713
  153.5268  135.7015  153.5703 H   0  0  0  0  0  0  0  0  0  0  0  0  # atno 10763 bound_to 10752
  153.3728  135.3940  155.1801 H   0  0  0  0  0  0  0  0  0  0  0  0  # atno 10764 bound_to 10752
  154.8689  135.3816  154.4762 H   0  0  0  0  0  0  0  0  0  0  0  0  # atno 10765 bound_to 10752
  141.1568  133.7683  156.9717 H   0  0  0  0  0  0  0  0  0  0  0  0  # atno 11005 bound_to 11000
  145.2896  139.1888  143.4747 LP  0  0  0  0  0  0  0  0  0  0  0  0  # atno 17320 bound_to 7965
  146.3309  140.2871  142.8613 LP  0  0  0  0  0  0  0  0  0  0  0  0  # atno 17321 bound_to 7965
  139.4782  144.5481  151.8428 LP  0  0  0  0  0  0  0  0  0  0  0  0  # atno 17342 bound_to 10162
  140.4579  144.1763  150.5903 LP  0  0  0  0  0  0  0  0  0  0  0  0  # atno 17343 bound_to 10162
  156.1601  130.3644  149.9311 LP  0  0  0  0  0  0  0  0  0  0  0  0  # atno 17370 bound_to 10713
  156.7311  130.9043  151.3626 LP  0  0  0  0  0  0  0  0  0  0  0  0  # atno 17371 bound_to 10713
  140.1125  134.9468  157.2086 LP  0  0  0  0  0  0  0  0  0  0  0  0  # atno 17394 bound_to 11000
  140.3176  134.2953  155.7253 LP  0  0  0  0  0  0  0  0  0  0  0  0  # atno 17395 bound_to 11000

$$$$
