AV-unprocessed.smi:243|AV-procd|sdf|1848|dock1
  -GOLD-   2262020463D 1   1.00000     0.00000
 Structure written by MMmdl.
 58 61  0  0  0  0  0  0  0  0  2 V2000
  147.3336  127.7421  151.1378 C   0  0  0  0  0  0  0  0  0  0  0  0
  146.5360  128.8298  151.8722 C   0  0  0  0  0  0  0  0  0  0  0  0
  147.4096  129.8799  152.4541 N   0  3  2  0  0  0  0  0  0  0  0  0
  148.3379  129.3357  153.4775 C   0  0  0  0  0  0  0  0  0  0  0  0
  149.3328  130.4065  153.9519 C   0  0  0  0  0  0  0  0  0  0  0  0
  148.5882  131.6493  154.4860 C   0  0  1  0  0  0  0  0  0  0  0  0
  149.4198  132.6874  155.1224 N   0  0  0  0  0  0  0  0  0  0  0  0
  150.5576  132.2363  155.9164 C   0  0  0  0  0  0  0  0  0  0  0  0
  148.9285  133.9198  155.4263 C   0  0  0  0  0  0  0  0  0  0  0  0
  147.5829  134.0982  155.3968 N   0  0  0  0  0  0  0  0  0  0  0  0
  147.0471  135.2930  155.6597 C   0  0  0  0  0  0  0  0  0  0  0  0
  147.6657  136.4347  155.9619 N   0  0  0  0  0  0  0  0  0  0  0  0
  149.0191  136.2729  155.9789 C   0  0  0  0  0  0  0  0  0  0  0  0
  149.7292  135.0654  155.7195 C   0  0  0  0  0  0  0  0  0  0  0  0
  151.0964  135.2980  155.8308 N   0  0  0  0  0  0  0  0  0  0  0  0
  151.1873  136.5640  156.1328 C   0  0  0  0  0  0  0  0  0  0  0  0
  149.9862  137.2239  156.2530 N   0  0  0  0  0  0  0  0  0  0  0  0
  149.7899  138.6276  156.5800 C   0  0  0  0  0  0  0  0  0  0  0  0
  150.6996  139.5909  155.7765 C   0  0  1  0  0  0  0  0  0  0  0  0
  150.3912  139.4931  154.3990 O   0  0  0  0  0  0  0  0  0  0  0  0
  150.5495  141.0340  156.2296 C   0  0  0  0  0  0  0  0  0  0  0  0
  151.5251  141.1268  157.4016 C   0  0  0  0  0  0  0  0  0  0  0  0
  152.5308  140.1474  157.1582 O   0  0  0  0  0  0  0  0  0  0  0  0
  152.2031  139.3837  156.0023 C   0  0  0  0  0  0  0  0  0  0  0  0
  147.6017  132.1887  153.4157 C   0  0  1  0  0  0  0  0  0  0  0  0
  148.2639  132.8529  152.1919 C   0  0  0  0  0  0  0  0  0  0  0  0
  146.6551  131.0532  152.9722 C   0  0  0  0  0  0  0  0  0  0  0  0
  146.6716  126.9432  150.8033 H   0  0  0  0  0  0  0  0  0  0  0  0
  148.0846  127.2954  151.7902 H   0  0  0  0  0  0  0  0  0  0  0  0
  147.8413  128.1290  150.2548 H   0  0  0  0  0  0  0  0  0  0  0  0
  145.7961  129.2813  151.2096 H   0  0  0  0  0  0  0  0  0  0  0  0
  145.9771  128.3437  152.6729 H   0  0  0  0  0  0  0  0  0  0  0  0
  147.7644  128.9519  154.3227 H   0  0  0  0  0  0  0  0  0  0  0  0
  148.8940  128.4938  153.0633 H   0  0  0  0  0  0  0  0  0  0  0  0
  149.9651  129.9843  154.7340 H   0  0  0  0  0  0  0  0  0  0  0  0
  149.9895  130.6685  153.1225 H   0  0  0  0  0  0  0  0  0  0  0  0
  147.9689  131.2771  155.3037 H   0  0  0  0  0  0  0  0  0  0  0  0
  151.2337  133.0624  156.1408 H   0  0  0  0  0  0  0  0  0  0  0  0
  151.1282  131.4850  155.3700 H   0  0  0  0  0  0  0  0  0  0  0  0
  150.2293  131.7919  156.8560 H   0  0  0  0  0  0  0  0  0  0  0  0
  145.9689  135.3416  155.6199 H   0  0  0  0  0  0  0  0  0  0  0  0
  152.1390  137.0531  156.2822 H   0  0  0  0  0  0  0  0  0  0  0  0
  148.7406  138.8719  156.4081 H   0  0  0  0  0  0  0  0  0  0  0  0
  149.9558  138.7517  157.6506 H   0  0  0  0  0  0  0  0  0  0  0  0
  149.4689  139.3075  154.3114 H   0  0  0  0  0  0  0  0  0  0  0  0
  150.8754  141.7161  155.4423 H   0  0  0  0  0  0  0  0  0  0  0  0
  149.5286  141.3047  156.5012 H   0  0  0  0  0  0  0  0  0  0  0  0
  151.9577  142.1228  157.4985 H   0  0  0  0  0  0  0  0  0  0  0  0
  151.0244  140.8851  158.3395 H   0  0  0  0  0  0  0  0  0  0  0  0
  152.5014  138.3415  156.1063 H   0  0  0  0  0  0  0  0  0  0  0  0
  152.7729  139.7988  155.1693 H   0  0  0  0  0  0  0  0  0  0  0  0
  146.9770  132.9494  153.8848 H   0  0  0  0  0  0  0  0  0  0  0  0
  148.9619  132.1854  151.6874 H   0  0  0  0  0  0  0  0  0  0  0  0
  148.8052  133.7543  152.4677 H   0  0  0  0  0  0  0  0  0  0  0  0
  147.5136  133.1535  151.4603 H   0  0  0  0  0  0  0  0  0  0  0  0
  145.9690  131.4333  152.2160 H   0  0  0  0  0  0  0  0  0  0  0  0
  146.0366  130.7359  153.8135 H   0  0  0  0  0  0  0  0  0  0  0  0
  147.9909  130.2154  151.6992 H   0  0  0  0  0  0  0  0  0  0  0  0
  1  2  1  0  0  0  0
  1 28  1  0  0  0  0
  1 29  1  0  0  0  0
  1 30  1  0  0  0  0
  2  3  1  0  0  0  0
  2 31  1  0  0  0  0
  2 32  1  0  0  0  0
  3 27  1  0  0  0  0
  3  4  1  0  0  0  0
  3 58  1  0  0  0  0
  4  5  1  0  0  0  0
  4 33  1  0  0  0  0
  4 34  1  0  0  0  0
  5  6  1  0  0  0  0
  5 35  1  0  0  0  0
  5 36  1  0  0  0  0
  6  7  1  0  0  0  0
  6 25  1  0  0  0  0
  6 37  1  0  0  0  0
  7  8  1  0  0  0  0
  7  9  1  0  0  0  0
  8 38  1  0  0  0  0
  8 39  1  0  0  0  0
  8 40  1  0  0  0  0
  9 14  1  0  0  0  0
  9 10  2  0  0  0  0
 10 11  1  0  0  0  0
 11 12  2  0  0  0  0
 11 41  1  0  0  0  0
 12 13  1  0  0  0  0
 13 17  1  0  0  0  0
 13 14  2  0  0  0  0
 14 15  1  0  0  0  0
 15 16  2  0  0  0  0
 16 17  1  0  0  0  0
 16 42  1  0  0  0  0
 17 18  1  0  0  0  0
 18 19  1  0  0  0  0
 18 43  1  0  0  0  0
 18 44  1  0  0  0  0
 19 24  1  0  0  0  0
 19 20  1  0  0  0  0
 19 21  1  0  0  0  0
 20 45  1  0  0  0  0
 21 22  1  0  0  0  0
 21 46  1  0  0  0  0
 21 47  1  0  0  0  0
 22 23  1  0  0  0  0
 22 48  1  0  0  0  0
 22 49  1  0  0  0  0
 23 24  1  0  0  0  0
 24 50  1  0  0  0  0
 24 51  1  0  0  0  0
 25 26  1  0  0  0  0
 25 27  1  0  0  0  0
 25 52  1  0  0  0  0
 26 53  1  0  0  0  0
 26 54  1  0  0  0  0
 26 55  1  0  0  0  0
 27 56  1  0  0  0  0
 27 57  1  0  0  0  0
M  CHG  1   3   1
M  END
> <s_m_source_file>
AV-unprocessed.smi

> <i_m_source_file_index>
243

> <i_lp_mmshare_version>
43012

> <i_f3d_flags>
0

> <s_epik_input>
W0NIM11bQ0gyXU4xW0NIMl1bQ0gyXVtDQEhdKFtDQEBIXShbQ0gzXSlbQ0gyXTEpTihbQ0gzXSljKG5bY0hdbjIpYyhjMjMpbltjSF1uM1tDSDJdW0NAQF00KFtPSF0pW0NIMl1bQ0gyXU9bQ0gyXTQ=

> <s_epik_cmdline>
J2VwaWtfcHl0aG9uJywgJy1waCcsICc3LjAnLCAnLXRuJywgJzgnLCAnLW1hJywgJzIwMCcsICctbWV0YWxfYmluZGluZycsICctaW1hZScsICc8aW5maWxlLm1hZT4nLCAnLW9tYWUnLCAnPG91dGZpbGUubWFlPic=

> <r_lp_tautomer_probability>
1

> <r_epik_Ionization_Penalty>
0.00253099

> <r_epik_Ionization_Penalty_Charging>
0.00137877

> <r_epik_Ionization_Penalty_Neutral>
0.00115221

> <r_epik_State_Penalty>
-0

> <r_epik_Charging_Adjusted_Penalty>
0.00137877

> <i_epik_Tot_Q>
1

> <i_epik_Tot_abs_Q>
1

> <r_epik_Metal_State_Penalty>
-0

> <b_epik_Metal_Only>
0

> <s_lp_Force_Field>
OPLS_2005

> <r_lp_Energy>
50.8982

> <b_lp_Chiralities_Consistent>
1

> <s_lp_Variant>
AV-unprocessed.smi:243-1

> <Gold.Version>
5.8.1

> <Gold.Id.Protein>
6NUR|6NUR_protein|mol2

> <Gold.PLP.Fitness>
47.6380

> <Gold.PLP.PLP>
-39.7001

> <Gold.PLP.part.hbond>
-5.0000

> <Gold.PLP.part.metal>
0.0000

> <Gold.PLP.part.buried>
-0.5056

> <Gold.PLP.part.nonpolar>
-33.8296

> <Gold.PLP.part.repulsive>
0.1899

> <Gold.PLP.ligand.clash>
0.0000

> <Gold.PLP.ligand.torsion>
0.9992

> <Gold.PLP.Chemscore.Hbond>
3.0524

> <Gold.PLP.Chemscore.CHOScore>
0.0000

> <Gold.PLP.Chemscore.Metal>
0.0000

> <Gold.Chemscore.Hbonds>
donor molecule, donor type, donor heavy atom, donor atom, acceptor molecule, acceptor atom, score
      L1  H     3    58       P1 10747  1.00
      P1  H  7989  7998       L1    20  0.94
      P1  H  7997  8008       L1    23  0.45
      P1  H 10752 10763       L1    15  0.23

> <Gold.PLP.Chemscore.Internal.Correction>
0.7791

> <Gold.Rescore>
     Score         DG    S(hbond)    S(metal)    S(lipo)     H(rot)  DE(clash)    DE(int)     intcor
     13.09     -17.11       1.93        0.00      93.29       2.24       0.12       3.91       ----

> <Gold.Chemscore.Fitness>
13.0895

> <Gold.Chemscore.DG>
-17.1148

> <Gold.Chemscore.ZeroCoef>
-5.4800

> <Gold.Chemscore.Hbond>
1.9308

> <Gold.Chemscore.Metal>
0.0000

> <Gold.Chemscore.Lipo>
93.2917

> <Gold.Chemscore.Internal_Hbond>
0.0000

> <Gold.Chemscore.DEClash>
0.1194

> <Gold.Chemscore.DEInternal>
3.9060

> <Gold.Chemscore.Rot>
2.2379

> <Gold.Chemscore.Internal.Correction>
   9.000000E+99

> <Gold.Chemscore.Hbonds>
donor molecule, donor type, donor heavy atom, donor atom, acceptor molecule, acceptor atom, score
      L1  H     3    58       P1 10747  0.99
      P1  H  7989  7998       L1    20  0.45
      P1  H  7997  8008       L1    23  0.02

> <Gold.Chemscore.Hbond.Weighted>
-6.4488

> <Gold.Chemscore.Metal.Weighted>
-0.0000

> <Gold.Chemscore.Lipo.Weighted>
-10.9151

> <Gold.Chemscore.Internal_Hbond.Weighted>
0.0000

> <Gold.Chemscore.DEClash.Weighted>
0.1194

> <Gold.Chemscore.DEInternal.Weighted>
3.9060

> <Gold.Chemscore.Rot.Weighted>
5.7291

> <Gold.Chemscore.Internal.Correction.Weighted>
   9.000000E+99

> <Gold.Protein.RotatedTorsions>
[ 6907 6896 6895 6894 ] final -153.96 input  -60.11 | X-H torsion
[ 7974 7965 7964 7962 ] final  119.17 input  175.53 | X-H torsion
[ 8008 7997 7996 7995 ] final  -58.70 input   59.86 | X-H torsion
[ 10167 10162 10161 10158 ] final   94.36 input  -65.29 | X-H torsion
[ 10718 10713 10712 10709 ] final   28.94 input   66.30 | X-H torsion
[ 10763 10752 10751 10750 ] final   85.78 input  -60.55 | X-H torsion
[ 11005 11000 10999 10996 ] final -105.78 input  -57.11 | X-H torsion

> <Gold.Protein.ActiveResidues>
 VAL166  LYS551  ARG553  GLY616  TRP617  ASP618  TYR619  PRO620  LYS621  CYS622 
 ASP623  PHE694  ASN695  SER759  ASP760  ASP761  ALA762  ILE779  LEU786  VAL792 
 PHE793  MET794  SER795  GLU796  ALA797  LYS798  CYS799  TRP800  GLU811  SER814 

> <Gold.Protein.RotatedAtoms>
  151.2504  133.4353  159.2610 H   0  0  0  0  0  0  0  0  0  0  0  0  # atno 6907 bound_to 6896
  151.0623  134.9744  159.8277 H   0  0  0  0  0  0  0  0  0  0  0  0  # atno 6908 bound_to 6896
  152.5400  134.2454  159.8931 H   0  0  0  0  0  0  0  0  0  0  0  0  # atno 6909 bound_to 6896
  145.1463  139.3237  143.4590 H   0  0  0  0  0  0  0  0  0  0  0  0  # atno 7974 bound_to 7965
  154.4320  140.1078  156.5998 H   0  0  0  0  0  0  0  0  0  0  0  0  # atno 8008 bound_to 7997
  155.5923  140.3492  155.4551 H   0  0  0  0  0  0  0  0  0  0  0  0  # atno 8009 bound_to 7997
  156.0237  140.1245  157.0320 H   0  0  0  0  0  0  0  0  0  0  0  0  # atno 8010 bound_to 7997
  139.8091  144.6781  150.9664 H   0  0  0  0  0  0  0  0  0  0  0  0  # atno 10167 bound_to 10162
  157.2400  130.7065  149.6354 H   0  0  0  0  0  0  0  0  0  0  0  0  # atno 10718 bound_to 10713
  153.1507  135.4604  154.9632 H   0  0  0  0  0  0  0  0  0  0  0  0  # atno 10763 bound_to 10752
  154.7822  135.3192  154.7966 H   0  0  0  0  0  0  0  0  0  0  0  0  # atno 10764 bound_to 10752
  153.8472  135.6925  153.4850 H   0  0  0  0  0  0  0  0  0  0  0  0  # atno 10765 bound_to 10752
  141.1037  133.8837  157.1776 H   0  0  0  0  0  0  0  0  0  0  0  0  # atno 11005 bound_to 11000
  146.3499  140.1520  142.8592 LP  0  0  0  0  0  0  0  0  0  0  0  0  # atno 17320 bound_to 7965
  145.0478  140.8995  143.5014 LP  0  0  0  0  0  0  0  0  0  0  0  0  # atno 17321 bound_to 7965
  140.7818  143.4204  151.0851 LP  0  0  0  0  0  0  0  0  0  0  0  0  # atno 17342 bound_to 10162
  139.7871  143.8271  152.3146 LP  0  0  0  0  0  0  0  0  0  0  0  0  # atno 17343 bound_to 10162
  155.9670  130.4461  150.5527 LP  0  0  0  0  0  0  0  0  0  0  0  0  # atno 17370 bound_to 10713
  157.3388  131.0713  151.1804 LP  0  0  0  0  0  0  0  0  0  0  0  0  # atno 17371 bound_to 10713
  139.9898  135.0069  156.9948 LP  0  0  0  0  0  0  0  0  0  0  0  0  # atno 17394 bound_to 11000
  140.4958  134.1147  155.7241 LP  0  0  0  0  0  0  0  0  0  0  0  0  # atno 17395 bound_to 11000

$$$$
