AV-unprocessed.smi:2725|AV-procd|sdf|10516|dock8
  -GOLD-   2272014553D 1   1.00000     0.00000
 Structure written by MMmdl.
 44 45  0  0  0  0  0  0  0  0  1 V2000
  150.7419  141.0940  154.3739 O   0  0  0  0  0  0  0  0  0  0  0  0
  150.1227  141.5569  155.3314 C   0  0  0  0  0  0  0  0  0  0  0  0
  150.8739  142.0617  156.5653 C   0  0  0  0  0  0  0  0  0  0  0  0
  150.5103  143.5139  156.9249 C   0  0  0  0  0  0  0  0  0  0  0  0
  151.4397  144.1201  157.9910 C   0  0  0  0  0  0  0  0  0  0  0  0
  151.9927  143.1083  158.9999 C   0  0  0  0  0  0  0  0  0  0  0  0
  152.4067  143.9373  160.2218 C   0  0  0  0  0  0  0  0  0  0  0  0
  151.6541  145.2722  160.1149 C   0  0  0  0  0  0  0  0  0  0  0  0
  150.7509  145.1542  158.8837 C   0  0  0  0  0  0  0  0  0  0  0  0
  148.7860  141.6649  155.3660 N   0  0  0  0  0  0  0  0  0  0  0  0
  147.8725  141.2853  154.2885 C   0  0  1  0  0  0  0  0  0  0  0  0
  147.8103  139.7481  154.1595 C   0  0  0  0  0  0  0  0  0  0  0  0
  148.7461  139.2893  153.2070 O   0  0  0  0  0  0  0  0  0  0  0  0
  146.4758  141.8794  154.5704 C   0  0  0  0  0  0  0  0  0  0  0  0
  145.9640  141.6021  155.9753 C   0  0  0  0  0  0  0  0  0  0  0  0
  144.6541  141.9690  156.3530 C   0  0  0  0  0  0  0  0  0  0  0  0
  144.2284  141.6821  157.6642 C   0  0  0  0  0  0  0  0  0  0  0  0
  145.1242  141.0443  158.5438 C   0  0  0  0  0  0  0  0  0  0  0  0
  146.4110  140.7194  158.0703 C   0  0  0  0  0  0  0  0  0  0  0  0
  146.8290  140.9901  156.8149 N   0  0  0  0  0  0  0  0  0  0  0  0
  150.6383  141.3971  157.3967 H   0  0  0  0  0  0  0  0  0  0  0  0
  151.9494  141.9826  156.3987 H   0  0  0  0  0  0  0  0  0  0  0  0
  150.5622  144.1271  156.0239 H   0  0  0  0  0  0  0  0  0  0  0  0
  149.4765  143.5677  157.2695 H   0  0  0  0  0  0  0  0  0  0  0  0
  152.2802  144.6099  157.4962 H   0  0  0  0  0  0  0  0  0  0  0  0
  151.2090  142.4066  159.2887 H   0  0  0  0  0  0  0  0  0  0  0  0
  152.8217  142.5254  158.5966 H   0  0  0  0  0  0  0  0  0  0  0  0
  152.1707  143.4133  161.1486 H   0  0  0  0  0  0  0  0  0  0  0  0
  153.4826  144.1160  160.2137 H   0  0  0  0  0  0  0  0  0  0  0  0
  151.0798  145.4945  161.0149 H   0  0  0  0  0  0  0  0  0  0  0  0
  152.3683  146.0844  159.9750 H   0  0  0  0  0  0  0  0  0  0  0  0
  150.6053  146.1110  158.3813 H   0  0  0  0  0  0  0  0  0  0  0  0
  149.7690  144.7885  159.1880 H   0  0  0  0  0  0  0  0  0  0  0  0
  148.3683  142.0598  156.1958 H   0  0  0  0  0  0  0  0  0  0  0  0
  148.2154  141.7206  153.3473 H   0  0  0  0  0  0  0  0  0  0  0  0
  147.9732  139.2519  155.1170 H   0  0  0  0  0  0  0  0  0  0  0  0
  146.8267  139.4349  153.8075 H   0  0  0  0  0  0  0  0  0  0  0  0
  148.6907  139.8388  152.4402 H   0  0  0  0  0  0  0  0  0  0  0  0
  146.4943  142.9589  154.4143 H   0  0  0  0  0  0  0  0  0  0  0  0
  145.7563  141.4847  153.8516 H   0  0  0  0  0  0  0  0  0  0  0  0
  143.9883  142.4551  155.6553 H   0  0  0  0  0  0  0  0  0  0  0  0
  143.2328  141.9464  157.9891 H   0  0  0  0  0  0  0  0  0  0  0  0
  144.8322  140.8094  159.5566 H   0  0  0  0  0  0  0  0  0  0  0  0
  147.1237  140.2300  158.7175 H   0  0  0  0  0  0  0  0  0  0  0  0
  1  2  2  0  0  0  0
  2  3  1  0  0  0  0
  2 10  1  0  0  0  0
  3  4  1  0  0  0  0
  3 21  1  0  0  0  0
  3 22  1  0  0  0  0
  4  5  1  0  0  0  0
  4 23  1  0  0  0  0
  4 24  1  0  0  0  0
  5  9  1  0  0  0  0
  5  6  1  0  0  0  0
  5 25  1  0  0  0  0
  6  7  1  0  0  0  0
  6 26  1  0  0  0  0
  6 27  1  0  0  0  0
  7  8  1  0  0  0  0
  7 28  1  0  0  0  0
  7 29  1  0  0  0  0
  8  9  1  0  0  0  0
  8 30  1  0  0  0  0
  8 31  1  0  0  0  0
  9 32  1  0  0  0  0
  9 33  1  0  0  0  0
 10 11  1  0  0  0  0
 10 34  1  0  0  0  0
 11 12  1  0  0  0  0
 11 14  1  0  0  0  0
 11 35  1  0  0  0  0
 12 13  1  0  0  0  0
 12 36  1  0  0  0  0
 12 37  1  0  0  0  0
 13 38  1  0  0  0  0
 14 15  1  0  0  0  0
 14 39  1  0  0  0  0
 14 40  1  0  0  0  0
 15 20  1  0  0  0  0
 15 16  2  0  0  0  0
 16 17  1  0  0  0  0
 16 41  1  0  0  0  0
 17 18  2  0  0  0  0
 17 42  1  0  0  0  0
 18 19  1  0  0  0  0
 18 43  1  0  0  0  0
 19 20  2  0  0  0  0
 19 44  1  0  0  0  0
M  END
> <s_m_source_file>
AV-unprocessed.smi

> <i_m_source_file_index>
2725

> <i_lp_mmshare_version>
43012

> <i_f3d_flags>
0

> <s_epik_input>
W0NIMl0xW0NIMl1bQ0gyXVtDSDJdW0NIXTFbQ0gyXVtDSDJdQyg9TylbTkhdW0NASF0oW0NIMl1bT0hdKVtDSDJdYzJbY0hdW2NIXVtjSF1bY0hdbjI=

> <s_epik_cmdline>
J2VwaWtfcHl0aG9uJywgJy1waCcsICc3LjAnLCAnLXRuJywgJzgnLCAnLW1hJywgJzIwMCcsICctbWV0YWxfYmluZGluZycsICctaW1hZScsICc8aW5maWxlLm1hZT4nLCAnLW9tYWUnLCAnPG91dGZpbGUubWFlPic=

> <r_epik_Ionization_Penalty>
0.0257016

> <r_epik_Ionization_Penalty_Charging>
0

> <r_epik_Ionization_Penalty_Neutral>
0.0257016

> <r_epik_State_Penalty>
0.0209381

> <r_epik_Charging_Adjusted_Penalty>
0.0209381

> <i_epik_Tot_Q>
0

> <i_epik_Tot_abs_Q>
0

> <r_epik_Metal_State_Penalty>
0.0200649

> <b_epik_Metal_Only>
0

> <s_lp_Force_Field>
OPLS_2005

> <r_lp_Energy>
24.1231

> <b_lp_Chiralities_Consistent>
1

> <s_lp_Variant>
AV-unprocessed.smi:2725-2

> <Gold.Version>
5.8.1

> <Gold.Id.Protein>
6NUR|6NUR_protein|mol2

> <Gold.PLP.Fitness>
49.9772

> <Gold.PLP.PLP>
-46.2296

> <Gold.PLP.part.hbond>
-2.5368

> <Gold.PLP.part.metal>
0.0000

> <Gold.PLP.part.buried>
-6.5036

> <Gold.PLP.part.nonpolar>
-38.1199

> <Gold.PLP.part.repulsive>
0.2555

> <Gold.PLP.ligand.clash>
0.0000

> <Gold.PLP.ligand.torsion>
1.1112

> <Gold.PLP.Chemscore.Hbond>
1.9600

> <Gold.PLP.Chemscore.CHOScore>
0.0000

> <Gold.PLP.Chemscore.Metal>
0.0000

> <Gold.Chemscore.Hbonds>
donor molecule, donor type, donor heavy atom, donor atom, acceptor molecule, acceptor atom, score
      L1  H    13    38       P1  7957  0.69
      P1  H  7989  7998       L1     1  0.18

> <Gold.PLP.Chemscore.Internal.Correction>
0.0899

> <Gold.Rescore>
     Score         DG    S(hbond)    S(metal)    S(lipo)     H(rot)  DE(clash)    DE(int)     intcor
     15.46     -18.35       1.87        0.00     109.89       2.44       0.03       2.86       ----

> <Gold.Chemscore.Fitness>
15.4631

> <Gold.Chemscore.DG>
-18.3476

> <Gold.Chemscore.ZeroCoef>
-5.4800

> <Gold.Chemscore.Hbond>
1.8746

> <Gold.Chemscore.Metal>
0.0000

> <Gold.Chemscore.Lipo>
109.8880

> <Gold.Chemscore.Internal_Hbond>
0.0000

> <Gold.Chemscore.DEClash>
0.0291

> <Gold.Chemscore.DEInternal>
2.8555

> <Gold.Chemscore.Rot>
2.4416

> <Gold.Chemscore.Internal.Correction>
   9.000000E+99

> <Gold.Chemscore.Hbonds>
donor molecule, donor type, donor heavy atom, donor atom, acceptor molecule, acceptor atom, score
      L1  H    13    38       P1  7957  0.67
      P1  H  7989  7998       L1     1  0.18

> <Gold.Chemscore.Hbond.Weighted>
-6.2613

> <Gold.Chemscore.Metal.Weighted>
-0.0000

> <Gold.Chemscore.Lipo.Weighted>
-12.8569

> <Gold.Chemscore.Internal_Hbond.Weighted>
0.0000

> <Gold.Chemscore.DEClash.Weighted>
0.0291

> <Gold.Chemscore.DEInternal.Weighted>
2.8555

> <Gold.Chemscore.Rot.Weighted>
6.2505

> <Gold.Chemscore.Internal.Correction.Weighted>
   9.000000E+99

> <Gold.Protein.RotatedTorsions>
[ 6907 6896 6895 6894 ] final  -40.74 input  -60.11 | X-H torsion
[ 7974 7965 7964 7962 ] final  142.19 input  175.53 | X-H torsion
[ 8008 7997 7996 7995 ] final  -47.86 input   59.86 | X-H torsion
[ 10167 10162 10161 10158 ] final   76.10 input  -65.29 | X-H torsion
[ 10718 10713 10712 10709 ] final -110.06 input   66.30 | X-H torsion
[ 10763 10752 10751 10750 ] final  -71.41 input  -60.55 | X-H torsion
[ 11005 11000 10999 10996 ] final  -88.77 input  -57.11 | X-H torsion

> <Gold.Protein.ActiveResidues>
 VAL166  LYS551  ARG553  GLY616  TRP617  ASP618  TYR619  PRO620  LYS621  CYS622 
 ASP623  PHE694  ASN695  SER759  ASP760  ASP761  ALA762  ILE779  LEU786  VAL792 
 PHE793  MET794  SER795  GLU796  ALA797  LYS798  CYS799  TRP800  GLU811  SER814 

> <Gold.Protein.RotatedAtoms>
  150.9749  134.9116  159.7809 H   0  0  0  0  0  0  0  0  0  0  0  0  # atno 6907 bound_to 6896
  152.5203  134.3489  159.9254 H   0  0  0  0  0  0  0  0  0  0  0  0  # atno 6908 bound_to 6896
  151.3497  133.3889  159.2713 H   0  0  0  0  0  0  0  0  0  0  0  0  # atno 6909 bound_to 6896
  144.9029  139.5398  143.5745 H   0  0  0  0  0  0  0  0  0  0  0  0  # atno 7974 bound_to 7965
  154.4021  140.1336  156.4244 H   0  0  0  0  0  0  0  0  0  0  0  0  # atno 8008 bound_to 7997
  155.7612  140.3486  155.5178 H   0  0  0  0  0  0  0  0  0  0  0  0  # atno 8009 bound_to 7997
  155.8857  140.0995  157.1444 H   0  0  0  0  0  0  0  0  0  0  0  0  # atno 8010 bound_to 7997
  139.9958  144.5723  150.7779 H   0  0  0  0  0  0  0  0  0  0  0  0  # atno 10167 bound_to 10162
  156.0570  130.5796  150.8185 H   0  0  0  0  0  0  0  0  0  0  0  0  # atno 10718 bound_to 10713
  154.4314  135.5963  153.6071 H   0  0  0  0  0  0  0  0  0  0  0  0  # atno 10763 bound_to 10752
  152.9799  135.5976  154.3834 H   0  0  0  0  0  0  0  0  0  0  0  0  # atno 10764 bound_to 10752
  154.3673  135.2841  155.2265 H   0  0  0  0  0  0  0  0  0  0  0  0  # atno 10765 bound_to 10752
  141.1596  133.7589  156.9499 H   0  0  0  0  0  0  0  0  0  0  0  0  # atno 11005 bound_to 11000
  146.3118  139.7774  142.9014 LP  0  0  0  0  0  0  0  0  0  0  0  0  # atno 17320 bound_to 7965
  145.3585  141.0321  143.3298 LP  0  0  0  0  0  0  0  0  0  0  0  0  # atno 17321 bound_to 7965
  140.7437  143.2850  151.3488 LP  0  0  0  0  0  0  0  0  0  0  0  0  # atno 17342 bound_to 10162
  139.6307  144.0727  152.2473 LP  0  0  0  0  0  0  0  0  0  0  0  0  # atno 17343 bound_to 10162
  157.5549  131.0944  150.9643 LP  0  0  0  0  0  0  0  0  0  0  0  0  # atno 17370 bound_to 10713
  156.9895  130.5557  149.5302 LP  0  0  0  0  0  0  0  0  0  0  0  0  # atno 17371 bound_to 10713
  140.1264  134.9384  157.2276 LP  0  0  0  0  0  0  0  0  0  0  0  0  # atno 17394 bound_to 11000
  140.3007  134.3135  155.7290 LP  0  0  0  0  0  0  0  0  0  0  0  0  # atno 17395 bound_to 11000

$$$$
