AV-unprocessed.smi:3181|AV-procd|sdf|12138|dock2
  -GOLD-   2272017573D 1   1.00000     0.00000
 Structure written by MMmdl.
 42 43  0  0  0  0  0  0  0  0  2 V2000
  148.7784  141.0955  155.0714 C   0  0  0  0  0  0  0  0  0  0  0  0
  149.8429  141.0807  156.1807 C   0  0  1  0  0  0  0  0  0  0  0  0
  151.2359  140.6705  155.6550 C   0  0  0  0  0  0  0  0  0  0  0  0
  151.3341  139.2532  155.3589 N   0  0  0  0  0  0  0  0  0  0  0  0
  152.1383  138.3135  155.8591 C   0  0  0  0  0  0  0  0  0  0  0  0
  151.9342  137.1079  155.3476 N   0  0  0  0  0  0  0  0  0  0  0  0
  150.9141  137.3946  154.4851 C   0  0  0  0  0  0  0  0  0  0  0  0
  150.5137  138.6660  154.4565 N   0  0  0  0  0  0  0  0  0  0  0  0
  149.9117  142.4164  156.8157 N   0  3  0  0  0  0  0  0  0  0  0  0
  151.2142  142.7906  157.4137 C   0  0  1  0  0  0  0  0  0  0  0  0
  151.4653  144.3113  157.3453 C   0  0  0  0  0  0  0  0  0  0  0  0
  152.7835  144.6985  158.0377 C   0  0  0  0  0  0  0  0  0  0  0  0
  152.8495  144.2085  159.4984 C   0  0  1  0  0  0  0  0  0  0  0  0
  151.9262  145.0332  160.4184 C   0  0  0  0  0  0  0  0  0  0  0  0
  152.6021  142.6796  159.5540 C   0  0  1  0  0  0  0  0  0  0  0  0
  152.7051  142.0973  160.9734 C   0  0  0  0  0  0  0  0  0  0  0  0
  151.2741  142.2955  158.8711 C   0  0  0  0  0  0  0  0  0  0  0  0
  148.6477  140.1083  154.6278 H   0  0  0  0  0  0  0  0  0  0  0  0
  149.0471  141.7868  154.2718 H   0  0  0  0  0  0  0  0  0  0  0  0
  147.8086  141.4020  155.4643 H   0  0  0  0  0  0  0  0  0  0  0  0
  149.5201  140.3505  156.9245 H   0  0  0  0  0  0  0  0  0  0  0  0
  151.4737  141.2268  154.7470 H   0  0  0  0  0  0  0  0  0  0  0  0
  152.0129  140.9166  156.3792 H   0  0  0  0  0  0  0  0  0  0  0  0
  152.8900  138.5143  156.6082 H   0  0  0  0  0  0  0  0  0  0  0  0
  150.4525  136.6438  153.8605 H   0  0  0  0  0  0  0  0  0  0  0  0
  149.6395  143.1185  156.1427 H   0  0  0  0  0  0  0  0  0  0  0  0
  151.9996  142.2772  156.8564 H   0  0  0  0  0  0  0  0  0  0  0  0
  151.5078  144.6426  156.3075 H   0  0  0  0  0  0  0  0  0  0  0  0
  150.6345  144.8483  157.8042 H   0  0  0  0  0  0  0  0  0  0  0  0
  153.6155  144.2676  157.4790 H   0  0  0  0  0  0  0  0  0  0  0  0
  152.9235  145.7793  157.9952 H   0  0  0  0  0  0  0  0  0  0  0  0
  153.8676  144.3878  159.8472 H   0  0  0  0  0  0  0  0  0  0  0  0
  150.8720  144.8843  160.1878 H   0  0  0  0  0  0  0  0  0  0  0  0
  152.1343  146.0991  160.3212 H   0  0  0  0  0  0  0  0  0  0  0  0
  152.0746  144.7776  161.4672 H   0  0  0  0  0  0  0  0  0  0  0  0
  153.4019  142.2120  158.9774 H   0  0  0  0  0  0  0  0  0  0  0  0
  151.8889  142.4363  161.6113 H   0  0  0  0  0  0  0  0  0  0  0  0
  153.6441  142.3830  161.4485 H   0  0  0  0  0  0  0  0  0  0  0  0
  152.6686  141.0077  160.9504 H   0  0  0  0  0  0  0  0  0  0  0  0
  150.4339  142.6994  159.4375 H   0  0  0  0  0  0  0  0  0  0  0  0
  151.1572  141.2109  158.8896 H   0  0  0  0  0  0  0  0  0  0  0  0
  149.2346  142.4204  157.5652 H   0  0  0  0  0  0  0  0  0  0  0  0
  1  2  1  0  0  0  0
  1 18  1  0  0  0  0
  1 19  1  0  0  0  0
  1 20  1  0  0  0  0
  2  3  1  0  0  0  0
  2  9  1  0  0  0  0
  2 21  1  0  0  0  0
  3  4  1  0  0  0  0
  3 22  1  0  0  0  0
  3 23  1  0  0  0  0
  4  8  1  0  0  0  0
  4  5  1  0  0  0  0
  5  6  2  0  0  0  0
  5 24  1  0  0  0  0
  6  7  1  0  0  0  0
  7  8  2  0  0  0  0
  7 25  1  0  0  0  0
  9 10  1  0  0  0  0
  9 26  1  0  0  0  0
  9 42  1  0  0  0  0
 10 17  1  0  0  0  0
 10 11  1  0  0  0  0
 10 27  1  0  0  0  0
 11 12  1  0  0  0  0
 11 28  1  0  0  0  0
 11 29  1  0  0  0  0
 12 13  1  0  0  0  0
 12 30  1  0  0  0  0
 12 31  1  0  0  0  0
 13 14  1  0  0  0  0
 13 15  1  0  0  0  0
 13 32  1  0  0  0  0
 14 33  1  0  0  0  0
 14 34  1  0  0  0  0
 14 35  1  0  0  0  0
 15 16  1  0  0  0  0
 15 17  1  0  0  0  0
 15 36  1  0  0  0  0
 16 37  1  0  0  0  0
 16 38  1  0  0  0  0
 16 39  1  0  0  0  0
 17 40  1  0  0  0  0
 17 41  1  0  0  0  0
M  CHG  1   9   1
M  END
> <s_m_source_file>
AV-unprocessed.smi

> <i_m_source_file_index>
3181

> <i_lp_mmshare_version>
43012

> <i_f3d_flags>
0

> <s_epik_input>
bjFbY0hdbltjSF1uMVtDSDJdW0NAQEhdKFtDSDNdKVtOSF1bQ0BASF0yW0NIMl1bQ0gyXVtDQEBIXShbQ0gzXSlbQ0BASF0oW0NIM10pW0NIMl0y

> <s_epik_cmdline>
J2VwaWtfcHl0aG9uJywgJy1waCcsICc3LjAnLCAnLXRuJywgJzgnLCAnLW1hJywgJzIwMCcsICctbWV0YWxfYmluZGluZycsICctaW1hZScsICc8aW5maWxlLm1hZT4nLCAnLW9tYWUnLCAnPG91dGZpbGUubWFlPic=

> <r_lp_tautomer_probability>
1

> <r_epik_Ionization_Penalty>
0.000617007

> <r_epik_Ionization_Penalty_Charging>
0.000616215

> <r_epik_Ionization_Penalty_Neutral>
7.92544e-07

> <r_epik_State_Penalty>
0.000388807

> <r_epik_Charging_Adjusted_Penalty>
0.00100502

> <i_epik_Tot_Q>
1

> <i_epik_Tot_abs_Q>
1

> <r_epik_Metal_State_Penalty>
-0

> <b_epik_Metal_Only>
0

> <s_lp_Force_Field>
OPLS_2005

> <r_lp_Energy>
21.3144

> <b_lp_Chiralities_Consistent>
1

> <s_lp_Variant>
AV-unprocessed.smi:3181-4

> <Gold.Version>
5.8.1

> <Gold.Id.Protein>
6NUR|6NUR_protein|mol2

> <Gold.PLP.Fitness>
53.6949

> <Gold.PLP.PLP>
-43.5436

> <Gold.PLP.part.hbond>
-2.0000

> <Gold.PLP.part.metal>
0.0000

> <Gold.PLP.part.buried>
-2.7609

> <Gold.PLP.part.nonpolar>
-38.4606

> <Gold.PLP.part.repulsive>
0.2837

> <Gold.PLP.ligand.clash>
0.0000

> <Gold.PLP.ligand.torsion>
0.8407

> <Gold.PLP.Chemscore.Hbond>
2.9120

> <Gold.PLP.Chemscore.CHOScore>
1.0081

> <Gold.PLP.Chemscore.Metal>
0.0000

> <Gold.Chemscore.Hbonds>
donor molecule, donor type, donor heavy atom, donor atom, acceptor molecule, acceptor atom, score
      L1  H     9    26       P1  8028  2.00
      P1  H 10752 10765       L1     6  0.94
      L1  C     7    25       P1  7948  0.60
      L1  C     7    25       P1  7949  0.38

> <Gold.PLP.Chemscore.Internal.Correction>
0.0724

> <Gold.Rescore>
     Score         DG    S(hbond)    S(metal)    S(lipo)     H(rot)  DE(clash)    DE(int)     intcor
     18.38     -19.46       1.90        0.00     111.24       2.11       0.41       0.66       ----

> <Gold.Chemscore.Fitness>
18.3808

> <Gold.Chemscore.DG>
-19.4557

> <Gold.Chemscore.ZeroCoef>
-5.4800

> <Gold.Chemscore.Hbond>
1.9045

> <Gold.Chemscore.Metal>
0.0000

> <Gold.Chemscore.Lipo>
111.2386

> <Gold.Chemscore.Internal_Hbond>
0.0000

> <Gold.Chemscore.DEClash>
0.4125

> <Gold.Chemscore.DEInternal>
0.6624

> <Gold.Chemscore.Rot>
2.1095

> <Gold.Chemscore.Internal.Correction>
   9.000000E+99

> <Gold.Chemscore.Hbonds>
donor molecule, donor type, donor heavy atom, donor atom, acceptor molecule, acceptor atom, score
      L1  H     9    26       P1  8028  0.97
      P1  H 10752 10765       L1     6  0.54

> <Gold.Chemscore.Hbond.Weighted>
-6.3611

> <Gold.Chemscore.Metal.Weighted>
-0.0000

> <Gold.Chemscore.Lipo.Weighted>
-13.0149

> <Gold.Chemscore.Internal_Hbond.Weighted>
0.0000

> <Gold.Chemscore.DEClash.Weighted>
0.4125

> <Gold.Chemscore.DEInternal.Weighted>
0.6624

> <Gold.Chemscore.Rot.Weighted>
5.4003

> <Gold.Chemscore.Internal.Correction.Weighted>
   9.000000E+99

> <Gold.Protein.RotatedTorsions>
[ 6907 6896 6895 6894 ] final  156.58 input  -60.11 | X-H torsion
[ 7974 7965 7964 7962 ] final  -30.01 input  175.53 | X-H torsion
[ 8008 7997 7996 7995 ] final  -23.75 input   59.86 | X-H torsion
[ 10167 10162 10161 10158 ] final  -83.62 input  -65.29 | X-H torsion
[ 10718 10713 10712 10709 ] final  107.45 input   66.30 | X-H torsion
[ 10763 10752 10751 10750 ] final  176.11 input  -60.55 | X-H torsion
[ 11005 11000 10999 10996 ] final  -11.09 input  -57.11 | X-H torsion

> <Gold.Protein.ActiveResidues>
 VAL166  LYS551  ARG553  GLY616  TRP617  ASP618  TYR619  PRO620  LYS621  CYS622 
 ASP623  PHE694  ASN695  SER759  ASP760  ASP761  ALA762  ILE779  LEU786  VAL792 
 PHE793  MET794  SER795  GLU796  ALA797  LYS798  CYS799  TRP800  GLU811  SER814 

> <Gold.Protein.RotatedAtoms>
  152.0277  133.3924  159.4283 H   0  0  0  0  0  0  0  0  0  0  0  0  # atno 6907 bound_to 6896
  150.6885  134.3556  159.4937 H   0  0  0  0  0  0  0  0  0  0  0  0  # atno 6908 bound_to 6896
  152.1338  134.9114  160.0608 H   0  0  0  0  0  0  0  0  0  0  0  0  # atno 6909 bound_to 6896
  146.1175  140.5485  142.8750 H   0  0  0  0  0  0  0  0  0  0  0  0  # atno 7974 bound_to 7965
  154.4568  140.1972  156.0358 H   0  0  0  0  0  0  0  0  0  0  0  0  # atno 8008 bound_to 7997
  156.0761  140.3278  155.7607 H   0  0  0  0  0  0  0  0  0  0  0  0  # atno 8009 bound_to 7997
  155.5186  140.0568  157.2901 H   0  0  0  0  0  0  0  0  0  0  0  0  # atno 8010 bound_to 7997
  140.4209  143.2585  151.8890 H   0  0  0  0  0  0  0  0  0  0  0  0  # atno 10167 bound_to 10162
  157.6627  131.0873  150.6159 H   0  0  0  0  0  0  0  0  0  0  0  0  # atno 10718 bound_to 10713
  154.4767  135.2773  155.1602 H   0  0  0  0  0  0  0  0  0  0  0  0  # atno 10763 bound_to 10752
  154.3329  135.6186  153.5563 H   0  0  0  0  0  0  0  0  0  0  0  0  # atno 10764 bound_to 10752
  152.9870  135.5770  154.5159 H   0  0  0  0  0  0  0  0  0  0  0  0  # atno 10765 bound_to 10752
  140.7516  133.8587  155.9050 H   0  0  0  0  0  0  0  0  0  0  0  0  # atno 11005 bound_to 11000
  144.7566  140.5322  143.6764 LP  0  0  0  0  0  0  0  0  0  0  0  0  # atno 17320 bound_to 7965
  145.5537  139.1477  143.3380 LP  0  0  0  0  0  0  0  0  0  0  0  0  # atno 17321 bound_to 7965
  139.4782  144.5438  151.8489 LP  0  0  0  0  0  0  0  0  0  0  0  0  # atno 17342 bound_to 10162
  140.4534  144.1823  150.5899 LP  0  0  0  0  0  0  0  0  0  0  0  0  # atno 17343 bound_to 10162
  156.6461  130.4472  149.5735 LP  0  0  0  0  0  0  0  0  0  0  0  0  # atno 17370 bound_to 10713
  156.2173  130.6715  151.1332 LP  0  0  0  0  0  0  0  0  0  0  0  0  # atno 17371 bound_to 10713
  140.9745  134.1487  157.4548 LP  0  0  0  0  0  0  0  0  0  0  0  0  # atno 17394 bound_to 11000
  139.8786  134.9990  156.5930 LP  0  0  0  0  0  0  0  0  0  0  0  0  # atno 17395 bound_to 11000

$$$$
