AV-unprocessed.smi:1605|AV-procd|sdf|6457|dock10
  -GOLD-   22720 7113D 1   1.00000     0.00000
 Structure written by MMmdl.
 52 54  0  0  0  0  0  0  0  0  3 V2000
  145.9852  133.3982  156.7163 C   0  0  0  0  0  0  0  0  0  0  0  0
  147.1995  133.3567  155.9828 O   0  0  0  0  0  0  0  0  0  0  0  0
  147.0970  133.8355  154.6464 C   0  0  2  0  0  0  0  0  0  0  0  0
  148.4485  133.5996  153.9548 C   0  0  0  0  0  0  0  0  0  0  0  0
  149.5556  134.4862  154.5521 C   0  0  0  0  0  0  0  0  0  0  0  0
  149.1859  135.9239  154.4961 N   0  3  2  0  0  0  0  0  0  0  0  0
  150.2912  136.8087  154.9473 C   0  0  0  0  0  0  0  0  0  0  0  0
  149.9076  138.3013  154.9079 C   0  0  2  0  0  0  0  0  0  0  0  0
  149.4310  138.6098  153.6125 O   0  0  0  0  0  0  0  0  0  0  0  0
  151.1066  139.2091  155.2454 C   0  0  0  0  0  0  0  0  0  0  0  0
  150.6983  140.5228  155.7655 N   0  0  0  0  0  0  0  0  0  0  0  0
  149.8686  141.4521  155.2171 C   0  0  0  0  0  0  0  0  0  0  0  0
  149.8030  142.5045  156.0785 N   0  3  0  0  0  0  0  0  0  0  0  0
  150.5995  142.2437  157.1954 C   0  0  0  0  0  0  0  0  0  0  0  0
  150.8530  143.0061  158.3294 C   0  0  0  0  0  0  0  0  0  0  0  0
  151.7192  142.4524  159.2988 C   0  0  0  0  0  0  0  0  0  0  0  0
  152.0183  143.2605  160.5502 C   0  0  0  0  0  0  0  0  0  0  0  0
  152.2989  141.1708  159.1122 C   0  0  0  0  0  0  0  0  0  0  0  0
  153.2230  140.5816  160.1645 C   0  0  0  0  0  0  0  0  0  0  0  0
  152.0322  140.4130  157.9494 C   0  0  0  0  0  0  0  0  0  0  0  0
  151.1754  140.9723  157.0037 C   0  0  0  0  0  0  0  0  0  0  0  0
  147.9006  136.1858  155.1975 C   0  0  0  0  0  0  0  0  0  0  0  0
  146.7613  135.3385  154.6060 C   0  0  0  0  0  0  0  0  0  0  0  0
  146.1482  132.9774  157.7084 H   0  0  0  0  0  0  0  0  0  0  0  0
  145.2086  132.8080  156.2287 H   0  0  0  0  0  0  0  0  0  0  0  0
  145.6220  134.4172  156.8459 H   0  0  0  0  0  0  0  0  0  0  0  0
  146.3330  133.2676  154.1129 H   0  0  0  0  0  0  0  0  0  0  0  0
  148.7288  132.5487  154.0323 H   0  0  0  0  0  0  0  0  0  0  0  0
  148.3522  133.8122  152.8892 H   0  0  0  0  0  0  0  0  0  0  0  0
  149.7544  134.2005  155.5863 H   0  0  0  0  0  0  0  0  0  0  0  0
  150.4791  134.3220  153.9956 H   0  0  0  0  0  0  0  0  0  0  0  0
  150.5967  136.5159  155.9532 H   0  0  0  0  0  0  0  0  0  0  0  0
  151.1672  136.6626  154.3127 H   0  0  0  0  0  0  0  0  0  0  0  0
  149.1096  138.5091  155.6203 H   0  0  0  0  0  0  0  0  0  0  0  0
  149.1667  137.8062  153.1902 H   0  0  0  0  0  0  0  0  0  0  0  0
  151.7201  138.7392  156.0152 H   0  0  0  0  0  0  0  0  0  0  0  0
  151.7577  139.3466  154.3819 H   0  0  0  0  0  0  0  0  0  0  0  0
  149.3545  141.3705  154.2703 H   0  0  0  0  0  0  0  0  0  0  0  0
  150.4070  143.9807  158.4655 H   0  0  0  0  0  0  0  0  0  0  0  0
  151.6664  142.7352  161.4381 H   0  0  0  0  0  0  0  0  0  0  0  0
  151.5291  144.2344  160.5227 H   0  0  0  0  0  0  0  0  0  0  0  0
  153.0903  143.4310  160.6508 H   0  0  0  0  0  0  0  0  0  0  0  0
  153.5631  139.5843  159.8839 H   0  0  0  0  0  0  0  0  0  0  0  0
  152.7090  140.4990  161.1225 H   0  0  0  0  0  0  0  0  0  0  0  0
  154.1046  141.2094  160.2960 H   0  0  0  0  0  0  0  0  0  0  0  0
  152.4804  139.4407  157.8089 H   0  0  0  0  0  0  0  0  0  0  0  0
  148.0137  135.9696  156.2611 H   0  0  0  0  0  0  0  0  0  0  0  0
  147.6330  137.2388  155.1192 H   0  0  0  0  0  0  0  0  0  0  0  0
  146.5923  135.6403  153.5715 H   0  0  0  0  0  0  0  0  0  0  0  0
  145.8293  135.5457  155.1308 H   0  0  0  0  0  0  0  0  0  0  0  0
  149.0396  136.1359  153.5190 H   0  0  0  0  0  0  0  0  0  0  0  0
  149.2521  143.3378  155.9149 H   0  0  0  0  0  0  0  0  0  0  0  0
  1  2  1  0  0  0  0
  1 24  1  0  0  0  0
  1 25  1  0  0  0  0
  1 26  1  0  0  0  0
  2  3  1  0  0  0  0
  3 23  1  0  0  0  0
  3  4  1  0  0  0  0
  3 27  1  0  0  0  0
  4  5  1  0  0  0  0
  4 28  1  0  0  0  0
  4 29  1  0  0  0  0
  5  6  1  0  0  0  0
  5 30  1  0  0  0  0
  5 31  1  0  0  0  0
  6  7  1  0  0  0  0
  6 22  1  0  0  0  0
  6 51  1  0  0  0  0
  7  8  1  0  0  0  0
  7 32  1  0  0  0  0
  7 33  1  0  0  0  0
  8  9  1  0  0  0  0
  8 10  1  0  0  0  0
  8 34  1  0  0  0  0
  9 35  1  0  0  0  0
 10 11  1  0  0  0  0
 10 36  1  0  0  0  0
 10 37  1  0  0  0  0
 11 21  1  0  0  0  0
 11 12  1  0  0  0  0
 12 13  2  0  0  0  0
 12 38  1  0  0  0  0
 13 14  1  0  0  0  0
 13 52  1  0  0  0  0
 14 21  2  0  0  0  0
 14 15  1  0  0  0  0
 15 16  2  0  0  0  0
 15 39  1  0  0  0  0
 16 17  1  0  0  0  0
 16 18  1  0  0  0  0
 17 40  1  0  0  0  0
 17 41  1  0  0  0  0
 17 42  1  0  0  0  0
 18 19  1  0  0  0  0
 18 20  2  0  0  0  0
 19 43  1  0  0  0  0
 19 44  1  0  0  0  0
 19 45  1  0  0  0  0
 20 21  1  0  0  0  0
 20 46  1  0  0  0  0
 22 23  1  0  0  0  0
 22 47  1  0  0  0  0
 22 48  1  0  0  0  0
 23 49  1  0  0  0  0
 23 50  1  0  0  0  0
M  CHG  1   6   1
M  CHG  1  13   1
M  END
> <s_m_source_file>
AV-unprocessed.smi

> <i_m_source_file_index>
1605

> <i_lp_mmshare_version>
43012

> <i_f3d_flags>
0

> <s_epik_input>
W0NIM11PW0NIXTFbQ0gyXVtDSDJdTihbQ0gyXVtDSDJdMSlbQ0gyXVtDQEhdKFtPSF0pW0NIMl1uKFtjSF1uMiljKGMyMylbY0hdYyhbQ0gzXSljKFtjSF0zKVtDSDNd

> <s_epik_cmdline>
J2VwaWtfcHl0aG9uJywgJy1waCcsICc3LjAnLCAnLXRuJywgJzgnLCAnLW1hJywgJzIwMCcsICctbWV0YWxfYmluZGluZycsICctaW1hZScsICc8aW5maWxlLm1hZT4nLCAnLW9tYWUnLCAnPG91dGZpbGUubWFlPic=

> <r_epik_Ionization_Penalty>
1.19848

> <r_epik_Ionization_Penalty_Charging>
1.19848

> <r_epik_Ionization_Penalty_Neutral>
1.67134e-06

> <r_epik_State_Penalty>
1.2782

> <r_epik_Charging_Adjusted_Penalty>
2.47668

> <i_epik_Tot_Q>
2

> <i_epik_Tot_abs_Q>
2

> <r_epik_Metal_State_Penalty>
5.29544

> <b_epik_Metal_Only>
0

> <s_lp_Force_Field>
OPLS_2005

> <r_lp_Energy>
31.9375

> <b_lp_Chiralities_Consistent>
1

> <s_lp_Variant>
AV-unprocessed.smi:1605-7

> <Gold.Version>
5.8.1

> <Gold.Id.Protein>
6NUR|6NUR_protein|mol2

> <Gold.PLP.Fitness>
56.3837

> <Gold.PLP.PLP>
-41.9756

> <Gold.PLP.part.hbond>
-3.9373

> <Gold.PLP.part.metal>
0.0000

> <Gold.PLP.part.buried>
-3.1488

> <Gold.PLP.part.nonpolar>
-34.1172

> <Gold.PLP.part.repulsive>
0.1463

> <Gold.PLP.ligand.clash>
0.0000

> <Gold.PLP.ligand.torsion>
0.3300

> <Gold.PLP.Chemscore.Hbond>
5.0000

> <Gold.PLP.Chemscore.CHOScore>
0.0000

> <Gold.PLP.Chemscore.Metal>
0.0000

> <Gold.Chemscore.Hbonds>
donor molecule, donor type, donor heavy atom, donor atom, acceptor molecule, acceptor atom, score
      L1  H     6    51       P1  7948  2.00
      L1  H     9    35       P1  7948  0.98
      L1  H    13    52       P1  8028  1.62

> <Gold.PLP.Chemscore.Internal.Correction>
0.0682

> <Gold.Rescore>
     Score         DG    S(hbond)    S(metal)    S(lipo)     H(rot)  DE(clash)    DE(int)     intcor
     21.32     -21.79       2.94        0.00     105.32       2.28       0.18       0.28       ----

> <Gold.Chemscore.Fitness>
21.3232

> <Gold.Chemscore.DG>
-21.7855

> <Gold.Chemscore.ZeroCoef>
-5.4800

> <Gold.Chemscore.Hbond>
2.9432

> <Gold.Chemscore.Metal>
0.0000

> <Gold.Chemscore.Lipo>
105.3165

> <Gold.Chemscore.Internal_Hbond>
0.0000

> <Gold.Chemscore.DEClash>
0.1833

> <Gold.Chemscore.DEInternal>
0.2789

> <Gold.Chemscore.Rot>
2.2839

> <Gold.Chemscore.Internal.Correction>
   9.000000E+99

> <Gold.Chemscore.Hbonds>
donor molecule, donor type, donor heavy atom, donor atom, acceptor molecule, acceptor atom, score
      L1  H     6    51       P1  7948  0.97
      L1  H     9    35       P1  7948  0.90
      L1  H    13    52       P1  8028  0.78

> <Gold.Chemscore.Hbond.Weighted>
-9.8303

> <Gold.Chemscore.Metal.Weighted>
-0.0000

> <Gold.Chemscore.Lipo.Weighted>
-12.3220

> <Gold.Chemscore.Internal_Hbond.Weighted>
0.0000

> <Gold.Chemscore.DEClash.Weighted>
0.1833

> <Gold.Chemscore.DEInternal.Weighted>
0.2789

> <Gold.Chemscore.Rot.Weighted>
5.8469

> <Gold.Chemscore.Internal.Correction.Weighted>
   9.000000E+99

> <Gold.Protein.RotatedTorsions>
[ 6907 6896 6895 6894 ] final  126.49 input  -60.11 | X-H torsion
[ 7974 7965 7964 7962 ] final  -25.98 input  175.53 | X-H torsion
[ 8008 7997 7996 7995 ] final   91.64 input   59.86 | X-H torsion
[ 10167 10162 10161 10158 ] final -151.92 input  -65.29 | X-H torsion
[ 10718 10713 10712 10709 ] final  -68.21 input   66.30 | X-H torsion
[ 10763 10752 10751 10750 ] final  138.63 input  -60.55 | X-H torsion
[ 11005 11000 10999 10996 ] final   39.24 input  -57.11 | X-H torsion

> <Gold.Protein.ActiveResidues>
 VAL166  LYS551  ARG553  GLY616  TRP617  ASP618  TYR619  PRO620  LYS621  CYS622 
 ASP623  PHE694  ASN695  SER759  ASP760  ASP761  ALA762  ILE779  LEU786  VAL792 
 PHE793  MET794  SER795  GLU796  ALA797  LYS798  CYS799  TRP800  GLU811  SER814 

> <Gold.Protein.RotatedAtoms>
  152.3899  133.6663  159.6228 H   0  0  0  0  0  0  0  0  0  0  0  0  # atno 6907 bound_to 6896
  150.7809  133.8972  159.3339 H   0  0  0  0  0  0  0  0  0  0  0  0  # atno 6908 bound_to 6896
  151.6761  135.0970  160.0258 H   0  0  0  0  0  0  0  0  0  0  0  0  # atno 6909 bound_to 6896
  146.1456  140.4959  142.8633 H   0  0  0  0  0  0  0  0  0  0  0  0  # atno 7974 bound_to 7965
  156.0261  140.3335  155.7090 H   0  0  0  0  0  0  0  0  0  0  0  0  # atno 8008 bound_to 7997
  155.5952  140.0650  157.2765 H   0  0  0  0  0  0  0  0  0  0  0  0  # atno 8009 bound_to 7997
  154.4335  140.1820  156.1104 H   0  0  0  0  0  0  0  0  0  0  0  0  # atno 8010 bound_to 7997
  139.7226  143.8934  152.2508 H   0  0  0  0  0  0  0  0  0  0  0  0  # atno 10167 bound_to 10162
  156.0517  130.4291  150.1967 H   0  0  0  0  0  0  0  0  0  0  0  0  # atno 10718 bound_to 10713
  153.8928  135.3031  155.3447 H   0  0  0  0  0  0  0  0  0  0  0  0  # atno 10763 bound_to 10752
  154.7708  135.4887  153.9648 H   0  0  0  0  0  0  0  0  0  0  0  0  # atno 10764 bound_to 10752
  153.1288  135.6799  153.9312 H   0  0  0  0  0  0  0  0  0  0  0  0  # atno 10765 bound_to 10752
  140.2047  134.3828  155.8078 H   0  0  0  0  0  0  0  0  0  0  0  0  # atno 11005 bound_to 11000
  144.7842  140.5902  143.6585 LP  0  0  0  0  0  0  0  0  0  0  0  0  # atno 17320 bound_to 7965
  145.4946  139.1486  143.3691 LP  0  0  0  0  0  0  0  0  0  0  0  0  # atno 17321 bound_to 7965
  139.8834  144.7005  150.8852 LP  0  0  0  0  0  0  0  0  0  0  0  0  # atno 17342 bound_to 10162
  140.7756  143.3643  151.1768 LP  0  0  0  0  0  0  0  0  0  0  0  0  # atno 17343 bound_to 10162
  157.0050  130.9933  151.3381 LP  0  0  0  0  0  0  0  0  0  0  0  0  # atno 17370 bound_to 10713
  157.5449  130.8144  149.8074 LP  0  0  0  0  0  0  0  0  0  0  0  0  # atno 17371 bound_to 10713
  141.2227  133.7112  156.8317 LP  0  0  0  0  0  0  0  0  0  0  0  0  # atno 17394 bound_to 11000
  140.2016  134.8893  157.3175 LP  0  0  0  0  0  0  0  0  0  0  0  0  # atno 17395 bound_to 11000

$$$$
