AV-unprocessed.smi:837|AV-procd|sdf|3899|dock2
  -GOLD-   22720 1353D 1   1.00000     0.00000
 Structure written by MMmdl.
 50 52  0  0  0  0  0  0  0  0  2 V2000
  150.0275  141.9482  155.6305 C   0  0  0  0  0  0  0  0  0  0  0  0
  151.1371  141.6970  156.6746 C   0  0  1  0  0  0  0  0  0  0  0  0
  150.8253  142.4652  157.9773 C   0  0  0  0  0  0  0  0  0  0  0  0
  151.9387  142.3011  159.0238 C   0  0  0  0  0  0  0  0  0  0  0  0
  152.2090  140.8211  159.3276 C   0  0  0  0  0  0  0  0  0  0  0  0
  152.5351  140.0460  158.0409 C   0  0  0  0  0  0  0  0  0  0  0  0
  151.4198  140.1928  156.9780 C   0  0  1  0  0  0  0  0  0  0  0  0
  150.2209  139.4770  157.3827 N   0  0  0  0  0  0  0  0  0  0  0  0
  149.9159  138.4648  156.5615 C   0  0  0  0  0  0  0  0  0  0  0  0
  148.9472  137.7168  156.6874 O   0  0  0  0  0  0  0  0  0  0  0  0
  150.8381  138.4202  155.5828 N   0  0  0  0  0  0  0  0  0  0  0  0
  150.8053  137.4708  154.4634 C   0  0  0  0  0  0  0  0  0  0  0  0
  150.6764  136.0127  154.9249 C   0  0  0  0  0  0  0  0  0  0  0  0
  151.5472  135.4916  155.6229 O   0  0  0  0  0  0  0  0  0  0  0  0
  149.5749  135.3632  154.5209 N   0  0  0  0  0  0  0  0  0  0  0  0
  149.2712  133.9634  154.8041 C   0  0  0  0  0  0  0  0  0  0  0  0
  148.4266  133.2931  153.7003 C   0  0  0  0  0  0  0  0  0  0  0  0
  147.9969  131.8753  154.0385 C   0  0  0  0  0  0  0  0  0  0  0  0
  148.9467  130.8312  154.1016 C   0  0  0  0  0  0  0  0  0  0  0  0
  148.5173  129.5223  154.4030 C   0  0  0  0  0  0  0  0  0  0  0  0
  147.1471  129.2864  154.6362 C   0  0  0  0  0  0  0  0  0  0  0  0
  146.2677  130.3101  154.5693 N   0  3  0  0  0  0  0  0  0  0  0  0
  146.6391  131.5778  154.2842 C   0  0  0  0  0  0  0  0  0  0  0  0
  151.7561  139.3855  155.7301 C   0  0  0  0  0  0  0  0  0  0  0  0
  152.7150  139.6194  154.9941 O   0  0  0  0  0  0  0  0  0  0  0  0
  149.0666  141.5511  155.9583 H   0  0  0  0  0  0  0  0  0  0  0  0
  150.2644  141.4954  154.6677 H   0  0  0  0  0  0  0  0  0  0  0  0
  149.8963  143.0159  155.4540 H   0  0  0  0  0  0  0  0  0  0  0  0
  152.0540  142.1250  156.2656 H   0  0  0  0  0  0  0  0  0  0  0  0
  150.6923  143.5256  157.7600 H   0  0  0  0  0  0  0  0  0  0  0  0
  149.8793  142.1192  158.3957 H   0  0  0  0  0  0  0  0  0  0  0  0
  152.8528  142.7718  158.6599 H   0  0  0  0  0  0  0  0  0  0  0  0
  151.6661  142.8236  159.9410 H   0  0  0  0  0  0  0  0  0  0  0  0
  153.0359  140.7328  160.0327 H   0  0  0  0  0  0  0  0  0  0  0  0
  151.3396  140.3807  159.8170 H   0  0  0  0  0  0  0  0  0  0  0  0
  153.4787  140.4161  157.6366 H   0  0  0  0  0  0  0  0  0  0  0  0
  152.7010  138.9947  158.2818 H   0  0  0  0  0  0  0  0  0  0  0  0
  149.6846  139.7302  158.1999 H   0  0  0  0  0  0  0  0  0  0  0  0
  149.9750  137.6953  153.7922 H   0  0  0  0  0  0  0  0  0  0  0  0
  151.7111  137.5870  153.8653 H   0  0  0  0  0  0  0  0  0  0  0  0
  148.9045  135.8717  153.9623 H   0  0  0  0  0  0  0  0  0  0  0  0
  150.1922  133.4033  154.9737 H   0  0  0  0  0  0  0  0  0  0  0  0
  148.7201  133.9395  155.7445 H   0  0  0  0  0  0  0  0  0  0  0  0
  147.5379  133.8939  153.5023 H   0  0  0  0  0  0  0  0  0  0  0  0
  148.9887  133.2775  152.7658 H   0  0  0  0  0  0  0  0  0  0  0  0
  149.9924  131.0268  153.9116 H   0  0  0  0  0  0  0  0  0  0  0  0
  149.2299  128.7115  154.4495 H   0  0  0  0  0  0  0  0  0  0  0  0
  146.7314  128.3174  154.8714 H   0  0  0  0  0  0  0  0  0  0  0  0
  145.8438  132.3087  154.2566 H   0  0  0  0  0  0  0  0  0  0  0  0
  145.2804  130.1175  154.7403 H   0  0  0  0  0  0  0  0  0  0  0  0
  1  2  1  0  0  0  0
  1 26  1  0  0  0  0
  1 27  1  0  0  0  0
  1 28  1  0  0  0  0
  2  7  1  0  0  0  0
  2  3  1  0  0  0  0
  2 29  1  0  0  0  0
  3  4  1  0  0  0  0
  3 30  1  0  0  0  0
  3 31  1  0  0  0  0
  4  5  1  0  0  0  0
  4 32  1  0  0  0  0
  4 33  1  0  0  0  0
  5  6  1  0  0  0  0
  5 34  1  0  0  0  0
  5 35  1  0  0  0  0
  6  7  1  0  0  0  0
  6 36  1  0  0  0  0
  6 37  1  0  0  0  0
  7 24  1  0  0  0  0
  7  8  1  0  0  0  0
  8  9  1  0  0  0  0
  8 38  1  0  0  0  0
  9 10  2  0  0  0  0
  9 11  1  0  0  0  0
 11 12  1  0  0  0  0
 11 24  1  0  0  0  0
 12 13  1  0  0  0  0
 12 39  1  0  0  0  0
 12 40  1  0  0  0  0
 13 14  2  0  0  0  0
 13 15  1  0  0  0  0
 15 16  1  0  0  0  0
 15 41  1  0  0  0  0
 16 17  1  0  0  0  0
 16 42  1  0  0  0  0
 16 43  1  0  0  0  0
 17 18  1  0  0  0  0
 17 44  1  0  0  0  0
 17 45  1  0  0  0  0
 18 23  1  0  0  0  0
 18 19  2  0  0  0  0
 19 20  1  0  0  0  0
 19 46  1  0  0  0  0
 20 21  2  0  0  0  0
 20 47  1  0  0  0  0
 21 22  1  0  0  0  0
 21 48  1  0  0  0  0
 22 23  2  0  0  0  0
 22 50  1  0  0  0  0
 23 49  1  0  0  0  0
 24 25  2  0  0  0  0
M  CHG  1  22   1
M  END
> <s_m_source_file>
AV-unprocessed.smi

> <i_m_source_file_index>
837

> <i_lp_mmshare_version>
43012

> <i_f3d_flags>
0

> <s_epik_input>
W0NIMl0xW0NIMl1bQ0gyXVtDSDJdW0NAQEhdKFtDSDNdKVtDQEBdMTJbTkhdQyg9TylOKEMyPU8pW0NIMl1DKD1PKVtOSF1bQ0gyXVtDSDJdYzNbY0hdW2NIXVtjSF1uW2NIXTM=

> <s_epik_cmdline>
J2VwaWtfcHl0aG9uJywgJy1waCcsICc3LjAnLCAnLXRuJywgJzgnLCAnLW1hJywgJzIwMCcsICctbWV0YWxfYmluZGluZycsICctaW1hZScsICc8aW5maWxlLm1hZT4nLCAnLW9tYWUnLCAnPG91dGZpbGUubWFlPic=

> <r_lp_tautomer_probability>
1

> <r_epik_Ionization_Penalty>
2.28139

> <r_epik_Ionization_Penalty_Charging>
2.28135

> <r_epik_Ionization_Penalty_Neutral>
4.65525e-05

> <r_epik_State_Penalty>
2.43066

> <r_epik_Charging_Adjusted_Penalty>
4.71201

> <i_epik_Tot_Q>
1

> <i_epik_Tot_abs_Q>
1

> <r_epik_Metal_State_Penalty>
2.4646

> <b_epik_Metal_Only>
0

> <s_lp_Force_Field>
OPLS_2005

> <r_lp_Energy>
30.2127

> <b_lp_Chiralities_Consistent>
1

> <s_lp_Variant>
AV-unprocessed.smi:837-8

> <Gold.Version>
5.8.1

> <Gold.Id.Protein>
6NUR|6NUR_protein|mol2

> <Gold.PLP.Fitness>
51.3789

> <Gold.PLP.PLP>
-37.6929

> <Gold.PLP.part.hbond>
-4.9310

> <Gold.PLP.part.metal>
0.0000

> <Gold.PLP.part.buried>
-2.1965

> <Gold.PLP.part.nonpolar>
-30.8400

> <Gold.PLP.part.repulsive>
0.1527

> <Gold.PLP.ligand.clash>
0.0000

> <Gold.PLP.ligand.torsion>
0.3440

> <Gold.PLP.Chemscore.Hbond>
4.7740

> <Gold.PLP.Chemscore.CHOScore>
0.0000

> <Gold.PLP.Chemscore.Metal>
0.0000

> <Gold.Chemscore.Hbonds>
donor molecule, donor type, donor heavy atom, donor atom, acceptor molecule, acceptor atom, score
      L1  H    15    41       P1  7948  0.42
      L1  H    22    50       P1 10956  1.79
      P1  H  7989  7998       L1    25  0.31
      P1  H  7997  8010       L1    25  0.99
      P1  H 10752 10763       L1    14  1.00

> <Gold.PLP.Chemscore.Internal.Correction>
0.0518

> <Gold.Rescore>
     Score         DG    S(hbond)    S(metal)    S(lipo)     H(rot)  DE(clash)    DE(int)     intcor
     17.97     -19.99       2.69        0.00      90.14       1.96       0.58       1.43       ----

> <Gold.Chemscore.Fitness>
17.9737

> <Gold.Chemscore.DG>
-19.9858

> <Gold.Chemscore.ZeroCoef>
-5.4800

> <Gold.Chemscore.Hbond>
2.6905

> <Gold.Chemscore.Metal>
0.0000

> <Gold.Chemscore.Lipo>
90.1440

> <Gold.Chemscore.Internal_Hbond>
0.0000

> <Gold.Chemscore.DEClash>
0.5773

> <Gold.Chemscore.DEInternal>
1.4348

> <Gold.Chemscore.Rot>
1.9638

> <Gold.Chemscore.Internal.Correction>
   9.000000E+99

> <Gold.Chemscore.Hbonds>
donor molecule, donor type, donor heavy atom, donor atom, acceptor molecule, acceptor atom, score
      L1  H    15    41       P1  7948  0.41
      L1  H    22    50       P1 10956  0.52
      P1  H  7989  7998       L1    25  0.07
      P1  H  7997  8010       L1    25  0.87
      P1  H 10752 10763       L1    14  0.90

> <Gold.Chemscore.Hbond.Weighted>
-8.9864

> <Gold.Chemscore.Metal.Weighted>
-0.0000

> <Gold.Chemscore.Lipo.Weighted>
-10.5468

> <Gold.Chemscore.Internal_Hbond.Weighted>
0.0000

> <Gold.Chemscore.DEClash.Weighted>
0.5773

> <Gold.Chemscore.DEInternal.Weighted>
1.4348

> <Gold.Chemscore.Rot.Weighted>
5.0274

> <Gold.Chemscore.Internal.Correction.Weighted>
   9.000000E+99

> <Gold.Protein.RotatedTorsions>
[ 6907 6896 6895 6894 ] final  130.51 input  -60.11 | X-H torsion
[ 7974 7965 7964 7962 ] final   52.32 input  175.53 | X-H torsion
[ 8008 7997 7996 7995 ] final  105.07 input   59.86 | X-H torsion
[ 10167 10162 10161 10158 ] final  111.65 input  -65.29 | X-H torsion
[ 10718 10713 10712 10709 ] final  -41.86 input   66.30 | X-H torsion
[ 10763 10752 10751 10750 ] final   82.47 input  -60.55 | X-H torsion
[ 11005 11000 10999 10996 ] final  138.80 input  -57.11 | X-H torsion

> <Gold.Protein.ActiveResidues>
 VAL166  LYS551  ARG553  GLY616  TRP617  ASP618  TYR619  PRO620  LYS621  CYS622 
 ASP623  PHE694  ASN695  SER759  ASP760  ASP761  ALA762  ILE779  LEU786  VAL792 
 PHE793  MET794  SER795  GLU796  ALA797  LYS798  CYS799  TRP800  GLU811  SER814 

> <Gold.Protein.RotatedAtoms>
  152.3519  133.6190  159.5950 H   0  0  0  0  0  0  0  0  0  0  0  0  # atno 6907 bound_to 6896
  150.7543  133.9561  159.3509 H   0  0  0  0  0  0  0  0  0  0  0  0  # atno 6908 bound_to 6896
  151.7411  135.0855  160.0367 H   0  0  0  0  0  0  0  0  0  0  0  0  # atno 6909 bound_to 6896
  145.9825  139.4256  143.0123 H   0  0  0  0  0  0  0  0  0  0  0  0  # atno 7974 bound_to 7965
  156.1628  140.3137  155.8836 H   0  0  0  0  0  0  0  0  0  0  0  0  # atno 8008 bound_to 7997
  155.3748  140.0484  157.3062 H   0  0  0  0  0  0  0  0  0  0  0  0  # atno 8009 bound_to 7997
  154.5163  140.2182  155.9071 H   0  0  0  0  0  0  0  0  0  0  0  0  # atno 8010 bound_to 7997
  139.6595  144.7129  151.1893 H   0  0  0  0  0  0  0  0  0  0  0  0  # atno 10167 bound_to 10162
  156.2658  130.4201  149.8492 H   0  0  0  0  0  0  0  0  0  0  0  0  # atno 10718 bound_to 10713
  153.1205  135.4727  154.9188 H   0  0  0  0  0  0  0  0  0  0  0  0  # atno 10763 bound_to 10752
  154.7571  135.3121  154.8451 H   0  0  0  0  0  0  0  0  0  0  0  0  # atno 10764 bound_to 10752
  153.9017  135.6874  153.4808 H   0  0  0  0  0  0  0  0  0  0  0  0  # atno 10765 bound_to 10752
  140.0209  134.9397  157.0472 H   0  0  0  0  0  0  0  0  0  0  0  0  # atno 11005 bound_to 11000
  145.7749  140.9881  143.1130 LP  0  0  0  0  0  0  0  0  0  0  0  0  # atno 17320 bound_to 7965
  144.6865  139.9493  143.7477 LP  0  0  0  0  0  0  0  0  0  0  0  0  # atno 17321 bound_to 7965
  140.7574  143.6018  150.8693 LP  0  0  0  0  0  0  0  0  0  0  0  0  # atno 17342 bound_to 10162
  139.9674  143.6096  152.2984 LP  0  0  0  0  0  0  0  0  0  0  0  0  # atno 17343 bound_to 10162
  156.5991  130.8539  151.3427 LP  0  0  0  0  0  0  0  0  0  0  0  0  # atno 17370 bound_to 10713
  157.7267  130.9632  150.1666 LP  0  0  0  0  0  0  0  0  0  0  0  0  # atno 17371 bound_to 10713
  140.4389  134.1702  155.7172 LP  0  0  0  0  0  0  0  0  0  0  0  0  # atno 17394 bound_to 11000
  141.1773  133.8487  157.1378 LP  0  0  0  0  0  0  0  0  0  0  0  0  # atno 17395 bound_to 11000

$$$$
