AV-unprocessed.smi:338|AV-procd|sdf|2377|dock10
  -GOLD-   2262022303D 1   1.00000     0.00000
 Structure written by MMmdl.
 42 44  0  0  0  0  0  0  0  0  2 V2000
  147.7077  128.7493  152.6275 C   0  0  0  0  0  0  0  0  0  0  0  0
  148.7448  129.3800  153.5551 C   0  0  0  0  0  0  0  0  0  0  0  0
  149.4540  128.6401  154.2364 O   0  0  0  0  0  0  0  0  0  0  0  0
  148.8426  130.8678  153.5809 C   0  0  0  0  0  0  0  0  0  0  0  0
  149.7869  131.5353  154.3953 C   0  0  0  0  0  0  0  0  0  0  0  0
  149.8566  132.9402  154.3964 C   0  0  0  0  0  0  0  0  0  0  0  0
  148.9859  133.6911  153.5864 C   0  0  0  0  0  0  0  0  0  0  0  0
  148.0367  133.0510  152.7661 C   0  0  0  0  0  0  0  0  0  0  0  0
  147.2234  133.8628  152.0046 O   0  0  0  0  0  0  0  0  0  0  0  0
  146.2455  133.2511  151.1737 C   0  0  0  0  0  0  0  0  0  0  0  0
  145.1263  134.2656  150.8999 C   0  0  1  0  0  0  0  0  0  0  0  0
  144.3856  133.8331  149.7756 O   0  0  0  0  0  0  0  0  0  0  0  0
  144.1818  134.4399  152.1060 C   0  0  0  0  0  0  0  0  0  0  0  0
  143.8061  135.8405  152.3351 N   0  0  0  0  0  0  0  0  0  0  0  0
  144.4830  136.9866  152.0530 C   0  0  0  0  0  0  0  0  0  0  0  0
  143.7108  138.0310  152.4637 N   0  3  0  0  0  0  0  0  0  0  0  0
  142.5236  137.5445  153.0161 C   0  0  0  0  0  0  0  0  0  0  0  0
  141.4330  138.2103  153.5672 C   0  0  0  0  0  0  0  0  0  0  0  0
  140.3767  137.4069  154.0451 C   0  0  0  0  0  0  0  0  0  0  0  0
  140.4290  135.9997  153.9658 C   0  0  0  0  0  0  0  0  0  0  0  0
  141.5395  135.3350  153.4050 C   0  0  0  0  0  0  0  0  0  0  0  0
  142.5787  136.1371  152.9354 C   0  0  0  0  0  0  0  0  0  0  0  0
  147.9734  131.6344  152.7694 C   0  0  0  0  0  0  0  0  0  0  0  0
  146.7018  129.0576  152.9130 H   0  0  0  0  0  0  0  0  0  0  0  0
  147.7586  127.6615  152.6817 H   0  0  0  0  0  0  0  0  0  0  0  0
  147.8874  129.0468  151.5943 H   0  0  0  0  0  0  0  0  0  0  0  0
  150.4706  130.9895  155.0281 H   0  0  0  0  0  0  0  0  0  0  0  0
  150.5803  133.4436  155.0205 H   0  0  0  0  0  0  0  0  0  0  0  0
  149.0469  134.7695  153.5950 H   0  0  0  0  0  0  0  0  0  0  0  0
  146.7080  132.9531  150.2311 H   0  0  0  0  0  0  0  0  0  0  0  0
  145.8350  132.3582  151.6488 H   0  0  0  0  0  0  0  0  0  0  0  0
  145.5770  135.2247  150.6430 H   0  0  0  0  0  0  0  0  0  0  0  0
  144.7782  134.2010  148.9984 H   0  0  0  0  0  0  0  0  0  0  0  0
  143.2618  133.8739  151.9528 H   0  0  0  0  0  0  0  0  0  0  0  0
  144.6346  134.0531  153.0199 H   0  0  0  0  0  0  0  0  0  0  0  0
  145.4574  137.0544  151.5910 H   0  0  0  0  0  0  0  0  0  0  0  0
  141.3902  139.2877  153.6299 H   0  0  0  0  0  0  0  0  0  0  0  0
  139.5089  137.8796  154.4819 H   0  0  0  0  0  0  0  0  0  0  0  0
  139.6006  135.4178  154.3431 H   0  0  0  0  0  0  0  0  0  0  0  0
  141.5726  134.2569  153.3488 H   0  0  0  0  0  0  0  0  0  0  0  0
  147.2560  131.1191  152.1490 H   0  0  0  0  0  0  0  0  0  0  0  0
  143.9778  139.0029  152.3734 H   0  0  0  0  0  0  0  0  0  0  0  0
  1  2  1  0  0  0  0
  1 24  1  0  0  0  0
  1 25  1  0  0  0  0
  1 26  1  0  0  0  0
  2  3  2  0  0  0  0
  2  4  1  0  0  0  0
  4 23  1  0  0  0  0
  4  5  2  0  0  0  0
  5  6  1  0  0  0  0
  5 27  1  0  0  0  0
  6  7  2  0  0  0  0
  6 28  1  0  0  0  0
  7  8  1  0  0  0  0
  7 29  1  0  0  0  0
  8  9  1  0  0  0  0
  8 23  2  0  0  0  0
  9 10  1  0  0  0  0
 10 11  1  0  0  0  0
 10 30  1  0  0  0  0
 10 31  1  0  0  0  0
 11 12  1  0  0  0  0
 11 13  1  0  0  0  0
 11 32  1  0  0  0  0
 12 33  1  0  0  0  0
 13 14  1  0  0  0  0
 13 34  1  0  0  0  0
 13 35  1  0  0  0  0
 14 22  1  0  0  0  0
 14 15  1  0  0  0  0
 15 16  2  0  0  0  0
 15 36  1  0  0  0  0
 16 17  1  0  0  0  0
 16 42  1  0  0  0  0
 17 22  2  0  0  0  0
 17 18  1  0  0  0  0
 18 19  2  0  0  0  0
 18 37  1  0  0  0  0
 19 20  1  0  0  0  0
 19 38  1  0  0  0  0
 20 21  2  0  0  0  0
 20 39  1  0  0  0  0
 21 22  1  0  0  0  0
 21 40  1  0  0  0  0
 23 41  1  0  0  0  0
M  CHG  1  16   1
M  END
> <s_m_source_file>
AV-unprocessed.smi

> <i_m_source_file_index>
338

> <i_lp_mmshare_version>
43012

> <i_f3d_flags>
0

> <s_epik_input>
W0NIM11DKD1PKWMxW2NIXVtjSF1bY0hdYyhbY0hdMSlPW0NIMl1bQ0BIXShbT0hdKVtDSDJdbihbY0hdbjIpYyhjMjMpW2NIXVtjSF1bY0hdW2NIXTM=

> <s_epik_cmdline>
J2VwaWtfcHl0aG9uJywgJy1waCcsICc3LjAnLCAnLXRuJywgJzgnLCAnLW1hJywgJzIwMCcsICctbWV0YWxfYmluZGluZycsICctaW1hZScsICc8aW5maWxlLm1hZT4nLCAnLW9tYWUnLCAnPG91dGZpbGUubWFlPic=

> <r_lp_tautomer_probability>
0.99995

> <r_epik_Ionization_Penalty>
1.35015

> <r_epik_Ionization_Penalty_Charging>
1.35015

> <r_epik_Ionization_Penalty_Neutral>
2.3993e-06

> <r_epik_State_Penalty>
1.42814

> <r_epik_Charging_Adjusted_Penalty>
2.77829

> <i_epik_Tot_Q>
1

> <i_epik_Tot_abs_Q>
1

> <r_epik_Metal_State_Penalty>
5.46522

> <b_epik_Metal_Only>
0

> <s_lp_Force_Field>
OPLS_2005

> <r_lp_Energy>
25.8652

> <b_lp_Chiralities_Consistent>
1

> <s_lp_Variant>
AV-unprocessed.smi:338-4

> <Gold.Version>
5.8.1

> <Gold.Id.Protein>
6NUR|6NUR_protein|mol2

> <Gold.PLP.Fitness>
49.5203

> <Gold.PLP.PLP>
-42.8352

> <Gold.PLP.part.hbond>
-2.7695

> <Gold.PLP.part.metal>
0.0000

> <Gold.PLP.part.buried>
-2.9807

> <Gold.PLP.part.nonpolar>
-38.2810

> <Gold.PLP.part.repulsive>
1.2186

> <Gold.PLP.ligand.clash>
0.0000

> <Gold.PLP.ligand.torsion>
1.2114

> <Gold.PLP.Chemscore.Hbond>
3.0000

> <Gold.PLP.Chemscore.CHOScore>
0.0000

> <Gold.PLP.Chemscore.Metal>
0.0000

> <Gold.Chemscore.Hbonds>
donor molecule, donor type, donor heavy atom, donor atom, acceptor molecule, acceptor atom, score
      L1  H    12    33       P1  7921  1.00
      L1  H    16    42       P1 10175  1.69

> <Gold.PLP.Chemscore.Internal.Correction>
0.1079

> <Gold.Rescore>
     Score         DG    S(hbond)    S(metal)    S(lipo)     H(rot)  DE(clash)    DE(int)     intcor
     14.96     -16.21       1.99        0.00      89.28       2.48       0.06       1.19       ----

> <Gold.Chemscore.Fitness>
14.9633

> <Gold.Chemscore.DG>
-16.2139

> <Gold.Chemscore.ZeroCoef>
-5.4800

> <Gold.Chemscore.Hbond>
1.9903

> <Gold.Chemscore.Metal>
0.0000

> <Gold.Chemscore.Lipo>
89.2792

> <Gold.Chemscore.Internal_Hbond>
0.0000

> <Gold.Chemscore.DEClash>
0.0579

> <Gold.Chemscore.DEInternal>
1.1926

> <Gold.Chemscore.Rot>
2.4842

> <Gold.Chemscore.Internal.Correction>
   9.000000E+99

> <Gold.Chemscore.Hbonds>
donor molecule, donor type, donor heavy atom, donor atom, acceptor molecule, acceptor atom, score
      L1  H    12    33       P1  7921  0.94
      L1  H    16    42       P1 10175  0.79

> <Gold.Chemscore.Hbond.Weighted>
-6.6476

> <Gold.Chemscore.Metal.Weighted>
-0.0000

> <Gold.Chemscore.Lipo.Weighted>
-10.4457

> <Gold.Chemscore.Internal_Hbond.Weighted>
0.0000

> <Gold.Chemscore.DEClash.Weighted>
0.0579

> <Gold.Chemscore.DEInternal.Weighted>
1.1926

> <Gold.Chemscore.Rot.Weighted>
6.3594

> <Gold.Chemscore.Internal.Correction.Weighted>
   9.000000E+99

> <Gold.Protein.RotatedTorsions>
[ 6907 6896 6895 6894 ] final -122.37 input  -60.11 | X-H torsion
[ 7974 7965 7964 7962 ] final  -72.33 input  175.53 | X-H torsion
[ 8008 7997 7996 7995 ] final  136.64 input   59.86 | X-H torsion
[ 10167 10162 10161 10158 ] final  128.48 input  -65.29 | X-H torsion
[ 10718 10713 10712 10709 ] final   51.32 input   66.30 | X-H torsion
[ 10763 10752 10751 10750 ] final   -5.12 input  -60.55 | X-H torsion
[ 11005 11000 10999 10996 ] final  100.48 input  -57.11 | X-H torsion

> <Gold.Protein.ActiveResidues>
 VAL166  LYS551  ARG553  GLY616  TRP617  ASP618  TYR619  PRO620  LYS621  CYS622 
 ASP623  PHE694  ASN695  SER759  ASP760  ASP761  ALA762  ILE779  LEU786  VAL792 
 PHE793  MET794  SER795  GLU796  ALA797  LYS798  CYS799  TRP800  GLU811  SER814 

> <Gold.Protein.RotatedAtoms>
  150.8569  133.7701  159.3005 H   0  0  0  0  0  0  0  0  0  0  0  0  # atno 6907 bound_to 6896
  151.5356  135.1067  159.9923 H   0  0  0  0  0  0  0  0  0  0  0  0  # atno 6908 bound_to 6896
  152.4597  133.7752  159.6876 H   0  0  0  0  0  0  0  0  0  0  0  0  # atno 6909 bound_to 6896
  145.6665  140.9235  143.0905 H   0  0  0  0  0  0  0  0  0  0  0  0  # atno 7974 bound_to 7965
  156.3004  140.2440  156.3779 H   0  0  0  0  0  0  0  0  0  0  0  0  # atno 8008 bound_to 7997
  154.8728  140.0415  157.1754 H   0  0  0  0  0  0  0  0  0  0  0  0  # atno 8009 bound_to 7997
  154.8778  140.2944  155.5447 H   0  0  0  0  0  0  0  0  0  0  0  0  # atno 8010 bound_to 7997
  139.5525  144.6824  151.4281 H   0  0  0  0  0  0  0  0  0  0  0  0  # atno 10167 bound_to 10162
  157.4970  130.8413  149.8270 H   0  0  0  0  0  0  0  0  0  0  0  0  # atno 10718 bound_to 10713
  153.3942  135.7003  153.6473 H   0  0  0  0  0  0  0  0  0  0  0  0  # atno 10763 bound_to 10752
  153.5033  135.3647  155.2551 H   0  0  0  0  0  0  0  0  0  0  0  0  # atno 10764 bound_to 10752
  154.8705  135.4117  154.3264 H   0  0  0  0  0  0  0  0  0  0  0  0  # atno 10765 bound_to 10752
  139.8771  134.9142  156.4763 H   0  0  0  0  0  0  0  0  0  0  0  0  # atno 11005 bound_to 11000
  144.7071  139.8517  143.7426 LP  0  0  0  0  0  0  0  0  0  0  0  0  # atno 17320 bound_to 7965
  146.1081  139.4083  143.0305 LP  0  0  0  0  0  0  0  0  0  0  0  0  # atno 17321 bound_to 7965
  140.6791  143.8123  150.7097 LP  0  0  0  0  0  0  0  0  0  0  0  0  # atno 17342 bound_to 10162
  140.1571  143.4307  152.2092 LP  0  0  0  0  0  0  0  0  0  0  0  0  # atno 17343 bound_to 10162
  156.0206  130.3797  150.1973 LP  0  0  0  0  0  0  0  0  0  0  0  0  # atno 17370 bound_to 10713
  157.0163  130.9966  151.3352 LP  0  0  0  0  0  0  0  0  0  0  0  0  # atno 17371 bound_to 10713
  140.8759  133.7953  155.9414 LP  0  0  0  0  0  0  0  0  0  0  0  0  # atno 17394 bound_to 11000
  140.8904  134.2502  157.5097 LP  0  0  0  0  0  0  0  0  0  0  0  0  # atno 17395 bound_to 11000

$$$$
