AV-unprocessed.smi:3187|AV-procd|sdf|12182|dock2
  -GOLD-   2272018 23D 1   1.00000     0.00000
 Structure written by MMmdl.
 42 43  0  0  0  0  0  0  0  0  3 V2000
  154.2534  140.4768  160.3150 C   0  0  0  0  0  0  0  0  0  0  0  0
  153.4963  141.7804  160.5028 C   0  0  0  0  0  0  0  0  0  0  0  0
  153.3131  142.3124  161.7272 C   0  0  0  0  0  0  0  0  0  0  0  0
  152.6085  143.6283  162.0008 C   0  0  0  0  0  0  0  0  0  0  0  0
  151.9235  144.2114  160.7547 C   0  0  0  0  0  0  0  0  0  0  0  0
  152.7680  143.9838  159.4882 C   0  0  2  0  0  0  0  0  0  0  0  0
  152.2252  144.7811  158.2902 C   0  0  0  0  0  0  0  0  0  0  0  0
  152.9998  142.4640  159.2261 C   0  0  2  0  0  0  0  0  0  0  0  0
  151.7673  141.7077  158.6662 C   0  0  0  0  0  0  0  0  0  0  0  0
  152.1164  140.3737  158.1367 N   0  3  0  0  0  0  0  0  0  0  0  0
  151.0840  139.7816  157.2639 C   0  0  0  0  0  0  0  0  0  0  0  0
  150.8116  140.6760  156.0461 C   0  0  0  0  0  0  0  0  0  0  0  0
  149.8050  140.0945  155.1546 N   0  0  0  0  0  0  0  0  0  0  0  0
  148.6104  140.6521  154.7758 C   0  0  0  0  0  0  0  0  0  0  0  0
  148.0058  139.7497  153.9386 C   0  0  0  0  0  0  0  0  0  0  0  0
  148.8557  138.6802  153.8423 N   0  3  0  0  0  0  0  0  0  0  0  0
  149.9492  138.8914  154.5827 C   0  0  0  0  0  0  0  0  0  0  0  0
  155.1154  140.6308  159.6656 H   0  0  0  0  0  0  0  0  0  0  0  0
  153.6214  139.7095  159.8702 H   0  0  0  0  0  0  0  0  0  0  0  0
  154.6189  140.0914  161.2676 H   0  0  0  0  0  0  0  0  0  0  0  0
  153.7064  141.8035  162.5954 H   0  0  0  0  0  0  0  0  0  0  0  0
  151.8805  143.4922  162.8009 H   0  0  0  0  0  0  0  0  0  0  0  0
  153.3567  144.3294  162.3718 H   0  0  0  0  0  0  0  0  0  0  0  0
  150.9395  143.7589  160.6319 H   0  0  0  0  0  0  0  0  0  0  0  0
  151.7460  145.2764  160.9097 H   0  0  0  0  0  0  0  0  0  0  0  0
  153.7516  144.4103  159.6943 H   0  0  0  0  0  0  0  0  0  0  0  0
  151.1870  144.5309  158.0725 H   0  0  0  0  0  0  0  0  0  0  0  0
  152.8190  144.6021  157.3935 H   0  0  0  0  0  0  0  0  0  0  0  0
  152.2598  145.8519  158.4933 H   0  0  0  0  0  0  0  0  0  0  0  0
  153.8092  142.3789  158.4992 H   0  0  0  0  0  0  0  0  0  0  0  0
  151.0238  141.5506  159.4468 H   0  0  0  0  0  0  0  0  0  0  0  0
  151.2748  142.2960  157.8922 H   0  0  0  0  0  0  0  0  0  0  0  0
  152.9714  140.4614  157.6059 H   0  0  0  0  0  0  0  0  0  0  0  0
  151.4102  138.7927  156.9386 H   0  0  0  0  0  0  0  0  0  0  0  0
  150.1666  139.6465  157.8388 H   0  0  0  0  0  0  0  0  0  0  0  0
  150.4492  141.6557  156.3614 H   0  0  0  0  0  0  0  0  0  0  0  0
  151.7243  140.8403  155.4713 H   0  0  0  0  0  0  0  0  0  0  0  0
  148.2865  141.6246  155.1187 H   0  0  0  0  0  0  0  0  0  0  0  0
  147.0598  139.7881  153.4176 H   0  0  0  0  0  0  0  0  0  0  0  0
  150.7832  138.2209  154.6941 H   0  0  0  0  0  0  0  0  0  0  0  0
  152.2836  139.7535  158.9165 H   0  0  0  0  0  0  0  0  0  0  0  0
  148.6842  137.8496  153.2888 H   0  0  0  0  0  0  0  0  0  0  0  0
  1  2  1  0  0  0  0
  1 18  1  0  0  0  0
  1 19  1  0  0  0  0
  1 20  1  0  0  0  0
  2  8  1  0  0  0  0
  2  3  2  0  0  0  0
  3  4  1  0  0  0  0
  3 21  1  0  0  0  0
  4  5  1  0  0  0  0
  4 22  1  0  0  0  0
  4 23  1  0  0  0  0
  5  6  1  0  0  0  0
  5 24  1  0  0  0  0
  5 25  1  0  0  0  0
  6  7  1  0  0  0  0
  6  8  1  0  0  0  0
  6 26  1  0  0  0  0
  7 27  1  0  0  0  0
  7 28  1  0  0  0  0
  7 29  1  0  0  0  0
  8  9  1  0  0  0  0
  8 30  1  0  0  0  0
  9 10  1  0  0  0  0
  9 31  1  0  0  0  0
  9 32  1  0  0  0  0
 10 11  1  0  0  0  0
 10 33  1  0  0  0  0
 10 41  1  0  0  0  0
 11 12  1  0  0  0  0
 11 34  1  0  0  0  0
 11 35  1  0  0  0  0
 12 13  1  0  0  0  0
 12 36  1  0  0  0  0
 12 37  1  0  0  0  0
 13 17  1  0  0  0  0
 13 14  1  0  0  0  0
 14 15  2  0  0  0  0
 14 38  1  0  0  0  0
 15 16  1  0  0  0  0
 15 39  1  0  0  0  0
 16 17  2  0  0  0  0
 16 42  1  0  0  0  0
 17 40  1  0  0  0  0
M  CHG  1  10   1
M  CHG  1  16   1
M  END
> <s_m_source_file>
AV-unprocessed.smi

> <i_m_source_file_index>
3187

> <i_lp_mmshare_version>
43012

> <i_f3d_flags>
0

> <s_epik_input>
W0NIM11DMT1bQ0hdW0NIMl1bQ0gyXVtDQEBIXShbQ0gzXSlbQ0BIXTFbQ0gyXVtOSF1bQ0gyXVtDSDJdbjJbY0hdW2NIXW5bY0hdMg==

> <s_epik_cmdline>
J2VwaWtfcHl0aG9uJywgJy1waCcsICc3LjAnLCAnLXRuJywgJzgnLCAnLW1hJywgJzIwMCcsICctbWV0YWxfYmluZGluZycsICctaW1hZScsICc8aW5maWxlLm1hZT4nLCAnLW9tYWUnLCAnPG91dGZpbGUubWFlPic=

> <r_lp_tautomer_probability>
1

> <r_epik_Ionization_Penalty>
1.51066

> <r_epik_Ionization_Penalty_Charging>
0.0026721

> <r_epik_Ionization_Penalty_Neutral>
1.50798

> <r_epik_State_Penalty>
1.12593

> <r_epik_Charging_Adjusted_Penalty>
1.12861

> <i_epik_Tot_Q>
2

> <i_epik_Tot_abs_Q>
2

> <r_epik_Metal_State_Penalty>
5.12155

> <b_epik_Metal_Only>
0

> <s_lp_Force_Field>
OPLS_2005

> <r_lp_Energy>
26.0631

> <b_lp_Chiralities_Consistent>
1

> <s_lp_Variant>
AV-unprocessed.smi:3187-8

> <Gold.Version>
5.8.1

> <Gold.Id.Protein>
6NUR|6NUR_protein|mol2

> <Gold.PLP.Fitness>
54.6574

> <Gold.PLP.PLP>
-48.7761

> <Gold.PLP.part.hbond>
-2.0000

> <Gold.PLP.part.metal>
0.0000

> <Gold.PLP.part.buried>
-1.8623

> <Gold.PLP.part.nonpolar>
-44.4885

> <Gold.PLP.part.repulsive>
0.1588

> <Gold.PLP.ligand.clash>
0.0000

> <Gold.PLP.ligand.torsion>
0.1341

> <Gold.PLP.Chemscore.Hbond>
2.0000

> <Gold.PLP.Chemscore.CHOScore>
0.0000

> <Gold.PLP.Chemscore.Metal>
0.0000

> <Gold.Chemscore.Hbonds>
donor molecule, donor type, donor heavy atom, donor atom, acceptor molecule, acceptor atom, score
      L1  H    16    42       P1  7948  1.37

> <Gold.PLP.Chemscore.Internal.Correction>
0.1495

> <Gold.Rescore>
     Score         DG    S(hbond)    S(metal)    S(lipo)     H(rot)  DE(clash)    DE(int)     intcor
     18.13     -18.31       0.99        0.00     124.57       1.97       0.02       0.16       ----

> <Gold.Chemscore.Fitness>
18.1318

> <Gold.Chemscore.DG>
-18.3143

> <Gold.Chemscore.ZeroCoef>
-5.4800

> <Gold.Chemscore.Hbond>
0.9912

> <Gold.Chemscore.Metal>
0.0000

> <Gold.Chemscore.Lipo>
124.5727

> <Gold.Chemscore.Internal_Hbond>
0.0000

> <Gold.Chemscore.DEClash>
0.0178

> <Gold.Chemscore.DEInternal>
0.1647

> <Gold.Chemscore.Rot>
1.9732

> <Gold.Chemscore.Internal.Correction>
   9.000000E+99

> <Gold.Chemscore.Hbonds>
donor molecule, donor type, donor heavy atom, donor atom, acceptor molecule, acceptor atom, score
      L1  H    16    42       P1  7948  0.68

> <Gold.Chemscore.Hbond.Weighted>
-3.3107

> <Gold.Chemscore.Metal.Weighted>
-0.0000

> <Gold.Chemscore.Lipo.Weighted>
-14.5750

> <Gold.Chemscore.Internal_Hbond.Weighted>
0.0000

> <Gold.Chemscore.DEClash.Weighted>
0.0178

> <Gold.Chemscore.DEInternal.Weighted>
0.1647

> <Gold.Chemscore.Rot.Weighted>
5.0514

> <Gold.Chemscore.Internal.Correction.Weighted>
   9.000000E+99

> <Gold.Protein.RotatedTorsions>
[ 6907 6896 6895 6894 ] final  -53.19 input  -60.11 | X-H torsion
[ 7974 7965 7964 7962 ] final -111.43 input  175.53 | X-H torsion
[ 8008 7997 7996 7995 ] final  -16.33 input   59.86 | X-H torsion
[ 10167 10162 10161 10158 ] final   56.18 input  -65.29 | X-H torsion
[ 10718 10713 10712 10709 ] final    5.43 input   66.30 | X-H torsion
[ 10763 10752 10751 10750 ] final  -18.96 input  -60.55 | X-H torsion
[ 11005 11000 10999 10996 ] final  175.73 input  -57.11 | X-H torsion

> <Gold.Protein.ActiveResidues>
 VAL166  LYS551  ARG553  GLY616  TRP617  ASP618  TYR619  PRO620  LYS621  CYS622 
 ASP623  PHE694  ASN695  SER759  ASP760  ASP761  ALA762  ILE779  LEU786  VAL792 
 PHE793  MET794  SER795  GLU796  ALA797  LYS798  CYS799  TRP800  GLU811  SER814 

> <Gold.Protein.RotatedAtoms>
  150.8449  134.7754  159.6961 H   0  0  0  0  0  0  0  0  0  0  0  0  # atno 6907 bound_to 6896
  152.4528  134.5354  159.9833 H   0  0  0  0  0  0  0  0  0  0  0  0  # atno 6908 bound_to 6896
  151.5486  133.3383  159.2984 H   0  0  0  0  0  0  0  0  0  0  0  0  # atno 6909 bound_to 6896
  145.1561  140.8854  143.3618 H   0  0  0  0  0  0  0  0  0  0  0  0  # atno 7974 bound_to 7965
  154.5061  140.2172  155.9248 H   0  0  0  0  0  0  0  0  0  0  0  0  # atno 8008 bound_to 7997
  156.1495  140.3164  155.8592 H   0  0  0  0  0  0  0  0  0  0  0  0  # atno 8009 bound_to 7997
  155.3966  140.0481  157.3029 H   0  0  0  0  0  0  0  0  0  0  0  0  # atno 8010 bound_to 7997
  140.2115  144.3883  150.6487 H   0  0  0  0  0  0  0  0  0  0  0  0  # atno 10167 bound_to 10162
  156.9073  130.5743  149.5647 H   0  0  0  0  0  0  0  0  0  0  0  0  # atno 10718 bound_to 10713
  153.5974  135.7000  153.5398 H   0  0  0  0  0  0  0  0  0  0  0  0  # atno 10763 bound_to 10752
  153.3126  135.4097  155.1348 H   0  0  0  0  0  0  0  0  0  0  0  0  # atno 10764 bound_to 10752
  154.8589  135.3676  154.5509 H   0  0  0  0  0  0  0  0  0  0  0  0  # atno 10765 bound_to 10752
  140.3654  134.7076  157.4358 H   0  0  0  0  0  0  0  0  0  0  0  0  # atno 11005 bound_to 11000
  145.0379  139.3285  143.5991 LP  0  0  0  0  0  0  0  0  0  0  0  0  # atno 17320 bound_to 7965
  146.3488  139.9742  142.8703 LP  0  0  0  0  0  0  0  0  0  0  0  0  # atno 17321 bound_to 7965
  140.6320  143.2189  151.6476 LP  0  0  0  0  0  0  0  0  0  0  0  0  # atno 17342 bound_to 10162
  139.5178  144.3304  152.0831 LP  0  0  0  0  0  0  0  0  0  0  0  0  # atno 17343 bound_to 10162
  156.0553  130.5615  150.9078 LP  0  0  0  0  0  0  0  0  0  0  0  0  # atno 17370 bound_to 10713
  157.5989  131.0942  150.8993 LP  0  0  0  0  0  0  0  0  0  0  0  0  # atno 17371 bound_to 10713
  140.0593  134.6018  155.8767 LP  0  0  0  0  0  0  0  0  0  0  0  0  # atno 17394 bound_to 11000
  141.1971  133.6595  156.5725 LP  0  0  0  0  0  0  0  0  0  0  0  0  # atno 17395 bound_to 11000

$$$$
