AV-unprocessed.smi:515|AV-procd|sdf|2782|dock5
  -GOLD-   2262023253D 1   1.00000     0.00000
 Structure written by MMmdl.
 46 48  0  0  0  0  0  0  0  0  2 V2000
  147.8835  144.3567  157.6831 C   0  0  0  0  0  0  0  0  0  0  0  0
  148.9086  143.2807  158.0485 C   0  0  0  0  0  0  0  0  0  0  0  0
  148.2212  142.1054  158.4428 O   0  0  0  0  0  0  0  0  0  0  0  0
  149.0614  141.1791  159.1102 C   0  0  0  0  0  0  0  0  0  0  0  0
  148.7006  139.7609  158.6521 C   0  0  0  0  0  0  0  0  0  0  0  0
  149.7282  138.7979  159.0341 N   0  0  0  0  0  0  0  0  0  0  0  0
  149.5672  137.6656  159.7690 C   0  0  0  0  0  0  0  0  0  0  0  0
  148.2321  137.2389  160.3217 C   0  0  0  0  0  0  0  0  0  0  0  0
  148.2744  136.0879  161.2249 N   0  0  0  0  0  0  0  0  0  0  0  0
  148.4278  136.5105  162.6121 C   0  0  0  0  0  0  0  0  0  0  0  0
  148.4795  135.3101  163.5731 C   0  0  0  0  0  0  0  0  0  0  0  0
  147.3072  134.5178  163.4111 O   0  0  0  0  0  0  0  0  0  0  0  0
  147.1387  134.0502  162.0764 C   0  0  0  0  0  0  0  0  0  0  0  0
  147.0819  135.2490  161.1145 C   0  0  0  0  0  0  0  0  0  0  0  0
  150.7048  136.9960  159.9863 N   0  0  0  0  0  0  0  0  0  0  0  0
  151.6573  137.7558  159.3257 C   0  0  0  0  0  0  0  0  0  0  0  0
  151.0959  138.8515  158.7517 C   0  0  0  0  0  0  0  0  0  0  0  0
  151.8605  139.8708  158.0001 C   0  0  0  0  0  0  0  0  0  0  0  0
  151.3040  140.8579  157.5231 O   0  0  0  0  0  0  0  0  0  0  0  0
  153.1952  139.5663  157.9290 N   0  5  0  0  0  0  0  0  0  0  0  0
  153.8054  138.4635  158.4880 C   0  0  0  0  0  0  0  0  0  0  0  0
  155.0156  138.2631  158.3751 O   0  0  0  0  0  0  0  0  0  0  0  0
  153.0581  137.5555  159.1918 N   0  0  0  0  0  0  0  0  0  0  0  0
  153.6795  136.3762  159.8009 C   0  0  0  0  0  0  0  0  0  0  0  0
  148.3784  145.2760  157.3698 H   0  0  0  0  0  0  0  0  0  0  0  0
  147.2450  144.5933  158.5345 H   0  0  0  0  0  0  0  0  0  0  0  0
  147.2433  144.0256  156.8649 H   0  0  0  0  0  0  0  0  0  0  0  0
  149.5507  143.0720  157.1914 H   0  0  0  0  0  0  0  0  0  0  0  0
  149.5454  143.6347  158.8607 H   0  0  0  0  0  0  0  0  0  0  0  0
  150.1077  141.3923  158.8864 H   0  0  0  0  0  0  0  0  0  0  0  0
  148.9299  141.2691  160.1898 H   0  0  0  0  0  0  0  0  0  0  0  0
  147.7410  139.4663  159.0720 H   0  0  0  0  0  0  0  0  0  0  0  0
  148.5589  139.7283  157.5728 H   0  0  0  0  0  0  0  0  0  0  0  0
  147.8170  138.0993  160.8478 H   0  0  0  0  0  0  0  0  0  0  0  0
  147.5494  137.0171  159.5024 H   0  0  0  0  0  0  0  0  0  0  0  0
  149.3399  137.0983  162.7213 H   0  0  0  0  0  0  0  0  0  0  0  0
  147.6004  137.1635  162.8941 H   0  0  0  0  0  0  0  0  0  0  0  0
  149.3659  134.7024  163.3848 H   0  0  0  0  0  0  0  0  0  0  0  0
  148.5395  135.6530  164.6062 H   0  0  0  0  0  0  0  0  0  0  0  0
  147.9589  133.3815  161.8109 H   0  0  0  0  0  0  0  0  0  0  0  0
  146.2185  133.4696  162.0145 H   0  0  0  0  0  0  0  0  0  0  0  0
  146.1916  135.8413  161.3309 H   0  0  0  0  0  0  0  0  0  0  0  0
  146.9668  134.8802  160.0957 H   0  0  0  0  0  0  0  0  0  0  0  0
  154.1339  135.7466  159.0346 H   0  0  0  0  0  0  0  0  0  0  0  0
  152.9661  135.7604  160.3485 H   0  0  0  0  0  0  0  0  0  0  0  0
  154.4580  136.6740  160.5047 H   0  0  0  0  0  0  0  0  0  0  0  0
  1  2  1  0  0  0  0
  1 25  1  0  0  0  0
  1 26  1  0  0  0  0
  1 27  1  0  0  0  0
  2  3  1  0  0  0  0
  2 28  1  0  0  0  0
  2 29  1  0  0  0  0
  3  4  1  0  0  0  0
  4  5  1  0  0  0  0
  4 30  1  0  0  0  0
  4 31  1  0  0  0  0
  5  6  1  0  0  0  0
  5 32  1  0  0  0  0
  5 33  1  0  0  0  0
  6 17  1  0  0  0  0
  6  7  1  0  0  0  0
  7  8  1  0  0  0  0
  7 15  2  0  0  0  0
  8  9  1  0  0  0  0
  8 34  1  0  0  0  0
  8 35  1  0  0  0  0
  9 14  1  0  0  0  0
  9 10  1  0  0  0  0
 10 11  1  0  0  0  0
 10 36  1  0  0  0  0
 10 37  1  0  0  0  0
 11 12  1  0  0  0  0
 11 38  1  0  0  0  0
 11 39  1  0  0  0  0
 12 13  1  0  0  0  0
 13 14  1  0  0  0  0
 13 40  1  0  0  0  0
 13 41  1  0  0  0  0
 14 42  1  0  0  0  0
 14 43  1  0  0  0  0
 15 16  1  0  0  0  0
 16 23  1  0  0  0  0
 16 17  2  0  0  0  0
 17 18  1  0  0  0  0
 18 19  2  0  0  0  0
 18 20  1  0  0  0  0
 20 21  1  0  0  0  0
 21 22  2  0  0  0  0
 21 23  1  0  0  0  0
 23 24  1  0  0  0  0
 24 44  1  0  0  0  0
 24 45  1  0  0  0  0
 24 46  1  0  0  0  0
M  CHG  1  20  -1
M  END
> <s_m_source_file>
AV-unprocessed.smi

> <i_m_source_file_index>
515

> <i_lp_mmshare_version>
43012

> <i_f3d_flags>
0

> <s_epik_input>
W0NIM11uMWMoPU8pW25IXWMoPU8pYyhjMTIpbihbQ0gyXVtDSDJdT1tDSDJdW0NIM10pYyhuMilbQ0gyXU4zW0NIMl1bQ0gyXU9bQ0gyXVtDSDJdMw==

> <s_epik_cmdline>
J2VwaWtfcHl0aG9uJywgJy1waCcsICc3LjAnLCAnLXRuJywgJzgnLCAnLW1hJywgJzIwMCcsICctbWV0YWxfYmluZGluZycsICctaW1hZScsICc8aW5maWxlLm1hZT4nLCAnLW9tYWUnLCAnPG91dGZpbGUubWFlPic=

> <r_epik_Ionization_Penalty>
4.8833

> <r_epik_Ionization_Penalty_Charging>
0.035962

> <r_epik_Ionization_Penalty_Neutral>
4.84734

> <r_epik_State_Penalty>
4.83718

> <r_epik_Charging_Adjusted_Penalty>
4.87314

> <i_epik_Tot_Q>
-1

> <i_epik_Tot_abs_Q>
1

> <r_epik_Metal_State_Penalty>
1.06056

> <b_epik_Metal_Only>
1

> <s_lp_Force_Field>
OPLS_2005

> <r_lp_Energy>
45.1348

> <b_lp_Chiralities_Consistent>
1

> <s_lp_Variant>
AV-unprocessed.smi:515-3

> <Gold.Version>
5.8.1

> <Gold.Id.Protein>
6NUR|6NUR_protein|mol2

> <Gold.PLP.Fitness>
44.8861

> <Gold.PLP.PLP>
-37.5829

> <Gold.PLP.part.hbond>
-3.5495

> <Gold.PLP.part.metal>
0.0000

> <Gold.PLP.part.buried>
-6.1273

> <Gold.PLP.part.nonpolar>
-28.6290

> <Gold.PLP.part.repulsive>
0.0197

> <Gold.PLP.ligand.clash>
0.0000

> <Gold.PLP.ligand.torsion>
0.8693

> <Gold.PLP.Chemscore.Hbond>
3.0000

> <Gold.PLP.Chemscore.CHOScore>
0.0000

> <Gold.PLP.Chemscore.Metal>
0.0000

> <Gold.Chemscore.Hbonds>
donor molecule, donor type, donor heavy atom, donor atom, acceptor molecule, acceptor atom, score
      P1  H  6896  6908       L1    15  1.00
      P1  H  7997  8008       L1    20  1.60

> <Gold.PLP.Chemscore.Internal.Correction>
0.0418

> <Gold.Rescore>
     Score         DG    S(hbond)    S(metal)    S(lipo)     H(rot)  DE(clash)    DE(int)     intcor
     10.43     -12.55       1.74        0.00      56.77       2.10       0.00       2.12       ----

> <Gold.Chemscore.Fitness>
10.4275

> <Gold.Chemscore.DG>
-12.5509

> <Gold.Chemscore.ZeroCoef>
-5.4800

> <Gold.Chemscore.Hbond>
1.7372

> <Gold.Chemscore.Metal>
0.0000

> <Gold.Chemscore.Lipo>
56.7721

> <Gold.Chemscore.Internal_Hbond>
0.0000

> <Gold.Chemscore.DEClash>
0.0029

> <Gold.Chemscore.DEInternal>
2.1205

> <Gold.Chemscore.Rot>
2.0991

> <Gold.Chemscore.Internal.Correction>
   9.000000E+99

> <Gold.Chemscore.Hbonds>
donor molecule, donor type, donor heavy atom, donor atom, acceptor molecule, acceptor atom, score
      P1  H  6896  6908       L1    15  0.78
      P1  H  7997  8008       L1    20  0.12

> <Gold.Chemscore.Hbond.Weighted>
-5.8023

> <Gold.Chemscore.Metal.Weighted>
-0.0000

> <Gold.Chemscore.Lipo.Weighted>
-6.6423

> <Gold.Chemscore.Internal_Hbond.Weighted>
0.0000

> <Gold.Chemscore.DEClash.Weighted>
0.0029

> <Gold.Chemscore.DEInternal.Weighted>
2.1205

> <Gold.Chemscore.Rot.Weighted>
5.3737

> <Gold.Chemscore.Internal.Correction.Weighted>
   9.000000E+99

> <Gold.Protein.RotatedTorsions>
[ 6907 6896 6895 6894 ] final -146.60 input  -60.11 | X-H torsion
[ 7974 7965 7964 7962 ] final   51.11 input  175.53 | X-H torsion
[ 8008 7997 7996 7995 ] final  -79.94 input   59.86 | X-H torsion
[ 10167 10162 10161 10158 ] final    8.09 input  -65.29 | X-H torsion
[ 10718 10713 10712 10709 ] final -145.90 input   66.30 | X-H torsion
[ 10763 10752 10751 10750 ] final   68.52 input  -60.55 | X-H torsion
[ 11005 11000 10999 10996 ] final -128.06 input  -57.11 | X-H torsion

> <Gold.Protein.ActiveResidues>
 VAL166  LYS551  ARG553  GLY616  TRP617  ASP618  TYR619  PRO620  LYS621  CYS622 
 ASP623  PHE694  ASN695  SER759  ASP760  ASP761  ALA762  ILE779  LEU786  VAL792 
 PHE793  MET794  SER795  GLU796  ALA797  LYS798  CYS799  TRP800  GLU811  SER814 

> <Gold.Protein.RotatedAtoms>
  151.1440  133.4952  159.2596 H   0  0  0  0  0  0  0  0  0  0  0  0  # atno 6907 bound_to 6896
  151.1625  135.0279  159.8726 H   0  0  0  0  0  0  0  0  0  0  0  0  # atno 6908 bound_to 6896
  152.5463  134.1312  159.8493 H   0  0  0  0  0  0  0  0  0  0  0  0  # atno 6909 bound_to 6896
  145.9946  139.4375  143.0052 H   0  0  0  0  0  0  0  0  0  0  0  0  # atno 7974 bound_to 7965
  154.5834  140.0670  156.9137 H   0  0  0  0  0  0  0  0  0  0  0  0  # atno 8008 bound_to 7997
  155.2422  140.3345  155.4273 H   0  0  0  0  0  0  0  0  0  0  0  0  # atno 8009 bound_to 7997
  156.2206  140.1797  156.7471 H   0  0  0  0  0  0  0  0  0  0  0  0  # atno 8010 bound_to 7997
  140.6334  143.7942  150.7326 H   0  0  0  0  0  0  0  0  0  0  0  0  # atno 10167 bound_to 10162
  156.3881  130.7872  151.2071 H   0  0  0  0  0  0  0  0  0  0  0  0  # atno 10718 bound_to 10713
  153.0239  135.5244  154.7147 H   0  0  0  0  0  0  0  0  0  0  0  0  # atno 10763 bound_to 10752
  154.6219  135.2890  155.0318 H   0  0  0  0  0  0  0  0  0  0  0  0  # atno 10764 bound_to 10752
  154.1301  135.6594  153.4973 H   0  0  0  0  0  0  0  0  0  0  0  0  # atno 10765 bound_to 10752
  140.9547  134.1017  157.4027 H   0  0  0  0  0  0  0  0  0  0  0  0  # atno 11005 bound_to 11000
  145.7579  140.9947  143.1215 LP  0  0  0  0  0  0  0  0  0  0  0  0  # atno 17320 bound_to 7965
  144.6899  139.9294  143.7471 LP  0  0  0  0  0  0  0  0  0  0  0  0  # atno 17321 bound_to 7965
  140.1558  143.4318  152.2101 LP  0  0  0  0  0  0  0  0  0  0  0  0  # atno 17342 bound_to 10162
  139.5546  144.7363  151.4332 LP  0  0  0  0  0  0  0  0  0  0  0  0  # atno 17343 bound_to 10162
  157.7497  131.0324  150.4223 LP  0  0  0  0  0  0  0  0  0  0  0  0  # atno 17370 bound_to 10713
  156.4480  130.4005  149.6654 LP  0  0  0  0  0  0  0  0  0  0  0  0  # atno 17371 bound_to 10713
  139.8858  135.0076  156.6461 LP  0  0  0  0  0  0  0  0  0  0  0  0  # atno 17394 bound_to 11000
  140.7552  133.8863  155.8377 LP  0  0  0  0  0  0  0  0  0  0  0  0  # atno 17395 bound_to 11000

$$$$
