AV-unprocessed.smi:699|AV-procd|sdf|3400|dock5
  -GOLD-   22720 0383D 1   1.00000     0.00000
 Structure written by MMmdl.
 34 35  0  0  0  0  0  0  0  0  1 V2000
  147.3401  137.8501  150.3895 N   0  0  0  0  0  0  0  0  0  0  0  0
  146.3132  138.6842  150.2090 C   0  0  0  0  0  0  0  0  0  0  0  0
  145.9433  139.0252  149.0867 O   0  0  0  0  0  0  0  0  0  0  0  0
  145.5991  139.1986  151.4779 C   0  0  1  0  0  0  0  0  0  0  0  0
  144.1462  138.7032  151.5310 C   0  0  0  0  0  0  0  0  0  0  0  0
  144.1894  137.3461  152.2404 C   0  0  0  0  0  0  0  0  0  0  0  0
  145.4315  137.3763  153.1411 C   0  0  0  0  0  0  0  0  0  0  0  0
  146.1850  138.6796  152.8173 C   0  0  1  0  0  0  0  0  0  0  0  0
  147.6338  138.4684  152.8123 N   0  0  0  0  0  0  0  0  0  0  0  0
  148.5347  139.3101  153.3393 C   0  0  0  0  0  0  0  0  0  0  0  0
  148.2280  140.3634  153.8971 O   0  0  0  0  0  0  0  0  0  0  0  0
  149.7852  138.8433  153.1774 N   0  0  0  0  0  0  0  0  0  0  0  0
  151.0199  139.4163  153.5899 C   0  0  0  0  0  0  0  0  0  0  0  0
  150.9646  140.6099  154.3393 C   0  0  0  0  0  0  0  0  0  0  0  0
  152.1693  141.1982  154.7730 C   0  0  0  0  0  0  0  0  0  0  0  0
  153.3855  140.6742  154.5141 N   0  0  0  0  0  0  0  0  0  0  0  0
  153.4374  139.5258  153.8070 C   0  0  0  0  0  0  0  0  0  0  0  0
  152.2938  138.8562  153.3270 C   0  0  0  0  0  0  0  0  0  0  0  0
  147.8363  137.4864  149.5890 H   0  0  0  0  0  0  0  0  0  0  0  0
  147.6161  137.5843  151.3237 H   0  0  0  0  0  0  0  0  0  0  0  0
  145.6199  140.2897  151.4642 H   0  0  0  0  0  0  0  0  0  0  0  0
  143.5512  139.4029  152.1197 H   0  0  0  0  0  0  0  0  0  0  0  0
  143.6762  138.6351  150.5487 H   0  0  0  0  0  0  0  0  0  0  0  0
  143.2765  137.1566  152.8056 H   0  0  0  0  0  0  0  0  0  0  0  0
  144.2872  136.5454  151.5064 H   0  0  0  0  0  0  0  0  0  0  0  0
  145.1578  137.3423  154.1959 H   0  0  0  0  0  0  0  0  0  0  0  0
  146.0459  136.4972  152.9409 H   0  0  0  0  0  0  0  0  0  0  0  0
  145.9396  139.4050  153.5957 H   0  0  0  0  0  0  0  0  0  0  0  0
  147.9687  137.6260  152.3678 H   0  0  0  0  0  0  0  0  0  0  0  0
  149.8602  137.9360  152.7414 H   0  0  0  0  0  0  0  0  0  0  0  0
  150.0180  141.0731  154.5770 H   0  0  0  0  0  0  0  0  0  0  0  0
  152.1548  142.1142  155.3448 H   0  0  0  0  0  0  0  0  0  0  0  0
  154.4221  139.1232  153.6220 H   0  0  0  0  0  0  0  0  0  0  0  0
  152.4218  137.9336  152.7833 H   0  0  0  0  0  0  0  0  0  0  0  0
  1  2  1  0  0  0  0
  1 19  1  0  0  0  0
  1 20  1  0  0  0  0
  2  3  2  0  0  0  0
  2  4  1  0  0  0  0
  4  8  1  0  0  0  0
  4  5  1  0  0  0  0
  4 21  1  0  0  0  0
  5  6  1  0  0  0  0
  5 22  1  0  0  0  0
  5 23  1  0  0  0  0
  6  7  1  0  0  0  0
  6 24  1  0  0  0  0
  6 25  1  0  0  0  0
  7  8  1  0  0  0  0
  7 26  1  0  0  0  0
  7 27  1  0  0  0  0
  8  9  1  0  0  0  0
  8 28  1  0  0  0  0
  9 10  1  0  0  0  0
  9 29  1  0  0  0  0
 10 11  2  0  0  0  0
 10 12  1  0  0  0  0
 12 13  1  0  0  0  0
 12 30  1  0  0  0  0
 13 18  1  0  0  0  0
 13 14  2  0  0  0  0
 14 15  1  0  0  0  0
 14 31  1  0  0  0  0
 15 16  2  0  0  0  0
 15 32  1  0  0  0  0
 16 17  1  0  0  0  0
 17 18  2  0  0  0  0
 17 33  1  0  0  0  0
 18 34  1  0  0  0  0
M  END
> <s_m_source_file>
AV-unprocessed.smi

> <i_m_source_file_index>
699

> <i_lp_mmshare_version>
43012

> <i_f3d_flags>
0

> <s_epik_input>
W05IMl1DKD1PKVtDQEBIXTFbQ0gyXVtDSDJdW0NIMl1bQ0BIXTFbTkhdQyg9TylbTkhdYzJbY0hdW2NIXW5bY0hdW2NIXTI=

> <s_epik_cmdline>
J2VwaWtfcHl0aG9uJywgJy1waCcsICc3LjAnLCAnLXRuJywgJzgnLCAnLW1hJywgJzIwMCcsICctbWV0YWxfYmluZGluZycsICctaW1hZScsICc8aW5maWxlLm1hZT4nLCAnLW9tYWUnLCAnPG91dGZpbGUubWFlPic=

> <r_epik_Ionization_Penalty>
0.113907

> <r_epik_Ionization_Penalty_Charging>
0

> <r_epik_Ionization_Penalty_Neutral>
0.113907

> <r_epik_State_Penalty>
0.103543

> <r_epik_Charging_Adjusted_Penalty>
0.103543

> <i_epik_Tot_Q>
0

> <i_epik_Tot_abs_Q>
0

> <r_epik_Metal_State_Penalty>
0.0867106

> <b_epik_Metal_Only>
0

> <s_lp_Force_Field>
OPLS_2005

> <r_lp_Energy>
19.4222

> <b_lp_Chiralities_Consistent>
1

> <s_lp_Variant>
AV-unprocessed.smi:699-2

> <Gold.Version>
5.8.1

> <Gold.Id.Protein>
6NUR|6NUR_protein|mol2

> <Gold.PLP.Fitness>
39.5998

> <Gold.PLP.PLP>
-27.2658

> <Gold.PLP.part.hbond>
-3.7339

> <Gold.PLP.part.metal>
0.0000

> <Gold.PLP.part.buried>
0.1395

> <Gold.PLP.part.nonpolar>
-24.6940

> <Gold.PLP.part.repulsive>
1.3055

> <Gold.PLP.ligand.clash>
0.0000

> <Gold.PLP.ligand.torsion>
0.2785

> <Gold.PLP.Chemscore.Hbond>
2.5783

> <Gold.PLP.Chemscore.CHOScore>
1.7129

> <Gold.PLP.Chemscore.Metal>
0.0000

> <Gold.Chemscore.Hbonds>
donor molecule, donor type, donor heavy atom, donor atom, acceptor molecule, acceptor atom, score
      L1  H     1    20       P1  7948  0.53
      L1  H     9    29       P1  7948  1.00
      L1  H    12    30       P1  7948  0.91
      P1  H  7997  8009       L1    16  0.42

> <Gold.PLP.Chemscore.Internal.Correction>
0.0176

> <Gold.Rescore>
     Score         DG    S(hbond)    S(metal)    S(lipo)     H(rot)  DE(clash)    DE(int)     intcor
     13.41     -18.31       2.46        0.00      72.09       1.49       1.41       3.49       ----

> <Gold.Chemscore.Fitness>
13.4108

> <Gold.Chemscore.DG>
-18.3105

> <Gold.Chemscore.ZeroCoef>
-5.4800

> <Gold.Chemscore.Hbond>
2.4577

> <Gold.Chemscore.Metal>
0.0000

> <Gold.Chemscore.Lipo>
72.0863

> <Gold.Chemscore.Internal_Hbond>
0.0000

> <Gold.Chemscore.DEClash>
1.4122

> <Gold.Chemscore.DEInternal>
3.4876

> <Gold.Chemscore.Rot>
1.4892

> <Gold.Chemscore.Internal.Correction>
   9.000000E+99

> <Gold.Chemscore.Hbonds>
donor molecule, donor type, donor heavy atom, donor atom, acceptor molecule, acceptor atom, score
      L1  H     1    20       P1  7948  0.52
      L1  H     9    29       P1  7948  1.00
      L1  H    12    30       P1  7948  0.29
      P1  H  7997  8009       L1    16  0.11

> <Gold.Chemscore.Hbond.Weighted>
-8.2087

> <Gold.Chemscore.Metal.Weighted>
-0.0000

> <Gold.Chemscore.Lipo.Weighted>
-8.4341

> <Gold.Chemscore.Internal_Hbond.Weighted>
0.0000

> <Gold.Chemscore.DEClash.Weighted>
1.4122

> <Gold.Chemscore.DEInternal.Weighted>
3.4876

> <Gold.Chemscore.Rot.Weighted>
3.8123

> <Gold.Chemscore.Internal.Correction.Weighted>
   9.000000E+99

> <Gold.Protein.RotatedTorsions>
[ 6907 6896 6895 6894 ] final  164.52 input  -60.11 | X-H torsion
[ 7974 7965 7964 7962 ] final -169.83 input  175.53 | X-H torsion
[ 8008 7997 7996 7995 ] final -156.34 input   59.86 | X-H torsion
[ 10167 10162 10161 10158 ] final   96.09 input  -65.29 | X-H torsion
[ 10718 10713 10712 10709 ] final -177.87 input   66.30 | X-H torsion
[ 10763 10752 10751 10750 ] final   17.05 input  -60.55 | X-H torsion
[ 11005 11000 10999 10996 ] final -161.60 input  -57.11 | X-H torsion

> <Gold.Protein.ActiveResidues>
 VAL166  LYS551  ARG553  GLY616  TRP617  ASP618  TYR619  PRO620  LYS621  CYS622 
 ASP623  PHE694  ASN695  SER759  ASP760  ASP761  ALA762  ILE779  LEU786  VAL792 
 PHE793  MET794  SER795  GLU796  ALA797  LYS798  CYS799  TRP800  GLU811  SER814 

> <Gold.Protein.RotatedAtoms>
  151.9085  133.3555  159.3855 H   0  0  0  0  0  0  0  0  0  0  0  0  # atno 6907 bound_to 6896
  150.7063  134.4756  159.5455 H   0  0  0  0  0  0  0  0  0  0  0  0  # atno 6908 bound_to 6896
  152.2357  134.8278  160.0518 H   0  0  0  0  0  0  0  0  0  0  0  0  # atno 6909 bound_to 6896
  144.7179  140.2162  143.6321 H   0  0  0  0  0  0  0  0  0  0  0  0  # atno 7974 bound_to 7965
  155.7157  140.0784  157.2352 H   0  0  0  0  0  0  0  0  0  0  0  0  # atno 8008 bound_to 7997
  154.4052  140.1622  156.2400 H   0  0  0  0  0  0  0  0  0  0  0  0  # atno 8009 bound_to 7997
  155.9242  140.3395  155.6200 H   0  0  0  0  0  0  0  0  0  0  0  0  # atno 8010 bound_to 7997
  139.7927  144.6845  150.9870 H   0  0  0  0  0  0  0  0  0  0  0  0  # atno 10167 bound_to 10162
  156.8358  130.9669  151.3103 H   0  0  0  0  0  0  0  0  0  0  0  0  # atno 10718 bound_to 10713
  153.1374  135.6753  153.9080 H   0  0  0  0  0  0  0  0  0  0  0  0  # atno 10763 bound_to 10752
  153.8548  135.3089  155.3436 H   0  0  0  0  0  0  0  0  0  0  0  0  # atno 10764 bound_to 10752
  154.7759  135.4914  153.9827 H   0  0  0  0  0  0  0  0  0  0  0  0  # atno 10765 bound_to 10752
  140.6186  134.4774  157.5222 H   0  0  0  0  0  0  0  0  0  0  0  0  # atno 11005 bound_to 11000
  145.8544  139.2191  143.1753 LP  0  0  0  0  0  0  0  0  0  0  0  0  # atno 17320 bound_to 7965
  146.0231  140.8329  142.9913 LP  0  0  0  0  0  0  0  0  0  0  0  0  # atno 17321 bound_to 7965
  140.7820  143.4363  151.0618 LP  0  0  0  0  0  0  0  0  0  0  0  0  # atno 17342 bound_to 10162
  139.8039  143.8045  152.3165 LP  0  0  0  0  0  0  0  0  0  0  0  0  # atno 17343 bound_to 10162
  157.6382  130.8784  149.9398 LP  0  0  0  0  0  0  0  0  0  0  0  0  # atno 17370 bound_to 10713
  156.0908  130.3663  150.0399 LP  0  0  0  0  0  0  0  0  0  0  0  0  # atno 17371 bound_to 10713
  139.9162  134.8241  156.1357 LP  0  0  0  0  0  0  0  0  0  0  0  0  # atno 17394 bound_to 11000
  141.0758  133.6776  156.2233 LP  0  0  0  0  0  0  0  0  0  0  0  0  # atno 17395 bound_to 11000

$$$$
