AV-unprocessed.smi:1|AV-procd|sdf|4|dock8
  -GOLD-   2262015 83D 1   1.00000     0.00000
 Structure written by MMmdl.
 57 62  0  0  0  0  0  0  0  0  1 V2000
  153.0114  140.4385  159.6446 O   0  0  0  0  0  0  0  0  0  0  0  0
  152.5396  141.2592  158.8570 C   0  0  0  0  0  0  0  0  0  0  0  0
  152.0912  140.8857  157.5271 N   0  0  0  0  0  0  0  0  0  0  0  0
  152.1563  139.6719  156.9314 C   0  0  0  0  0  0  0  0  0  0  0  0
  153.0089  139.4058  155.9071 N   0  0  0  0  0  0  0  0  0  0  0  0
  153.0409  138.1883  155.3582 C   0  0  0  0  0  0  0  0  0  0  0  0
  152.3211  137.1110  155.6774 N   0  0  0  0  0  0  0  0  0  0  0  0
  151.4591  137.3688  156.7027 C   0  0  0  0  0  0  0  0  0  0  0  0
  151.3181  138.6156  157.3744 C   0  0  0  0  0  0  0  0  0  0  0  0
  150.3464  138.5115  158.3604 N   0  0  0  0  0  0  0  0  0  0  0  0
  149.9405  137.2735  158.2738 C   0  0  0  0  0  0  0  0  0  0  0  0
  150.5638  136.5110  157.3107 N   0  0  0  0  0  0  0  0  0  0  0  0
  150.3046  135.0747  156.9872 C   0  0  1  0  0  0  0  0  0  0  0  0
  148.9821  134.9290  156.5616 O   0  0  0  0  0  0  0  0  0  0  0  0
  148.9338  134.4608  155.2162 C   0  0  2  0  0  0  0  0  0  0  0  0
  147.6974  133.5851  154.9828 C   0  0  0  0  0  0  0  0  0  0  0  0
  147.5793  133.3120  153.5966 O   0  0  0  0  0  0  0  0  0  0  0  0
  146.8104  134.0964  152.8177 C   0  0  0  0  0  0  0  0  0  0  0  0
  146.5730  135.2807  153.0650 O   0  0  0  0  0  0  0  0  0  0  0  0
  146.2737  133.3806  151.6243 C   0  0  0  0  0  0  0  0  0  0  0  0
  145.2922  134.0093  150.8228 C   0  0  0  0  0  0  0  0  0  0  0  0
  144.7656  133.3579  149.6905 C   0  0  0  0  0  0  0  0  0  0  0  0
  145.2143  132.0698  149.3457 C   0  0  0  0  0  0  0  0  0  0  0  0
  146.1905  131.4335  150.1345 C   0  0  0  0  0  0  0  0  0  0  0  0
  146.7185  132.0832  151.2674 C   0  0  0  0  0  0  0  0  0  0  0  0
  150.2655  133.7382  155.0208 C   0  0  2  0  0  0  0  0  0  0  0  0
  150.2242  132.4239  155.5529 O   0  0  0  0  0  0  0  0  0  0  0  0
  151.6433  132.1499  156.3905 S   0  0  0  0  0  0  0  0  0  0  0  0
  151.2976  131.7868  157.7732 O   0  0  0  0  0  0  0  0  0  0  0  0
  152.5247  131.3255  155.5502 O   0  0  0  0  0  0  0  0  0  0  0  0
  152.2327  133.7138  156.3892 O   0  0  0  0  0  0  0  0  0  0  0  0
  151.2299  134.5693  155.8702 C   0  0  2  0  0  0  0  0  0  0  0  0
  152.3189  142.6917  159.2475 C   0  0  0  0  0  0  0  0  0  0  0  0
  152.3103  143.0591  160.6120 C   0  0  0  0  0  0  0  0  0  0  0  0
  152.1162  144.4027  160.9877 C   0  0  0  0  0  0  0  0  0  0  0  0
  151.9370  145.3915  160.0020 C   0  0  0  0  0  0  0  0  0  0  0  0
  151.9568  145.0366  158.6400 C   0  0  0  0  0  0  0  0  0  0  0  0
  152.1506  143.6933  158.2630 C   0  0  0  0  0  0  0  0  0  0  0  0
  151.6865  141.6269  156.9740 H   0  0  0  0  0  0  0  0  0  0  0  0
  153.7456  138.0582  154.5502 H   0  0  0  0  0  0  0  0  0  0  0  0
  149.1708  136.8778  158.9208 H   0  0  0  0  0  0  0  0  0  0  0  0
  150.4373  134.5468  157.9324 H   0  0  0  0  0  0  0  0  0  0  0  0
  148.9060  135.3181  154.5440 H   0  0  0  0  0  0  0  0  0  0  0  0
  147.8052  132.6415  155.5194 H   0  0  0  0  0  0  0  0  0  0  0  0
  146.7997  134.0790  155.3575 H   0  0  0  0  0  0  0  0  0  0  0  0
  144.9323  134.9983  151.0681 H   0  0  0  0  0  0  0  0  0  0  0  0
  144.0163  133.8478  149.0864 H   0  0  0  0  0  0  0  0  0  0  0  0
  144.8104  131.5704  148.4773 H   0  0  0  0  0  0  0  0  0  0  0  0
  146.5362  130.4447  149.8708 H   0  0  0  0  0  0  0  0  0  0  0  0
  147.4669  131.5665  151.8505 H   0  0  0  0  0  0  0  0  0  0  0  0
  150.5659  133.6904  153.9737 H   0  0  0  0  0  0  0  0  0  0  0  0
  151.6531  135.3966  155.3000 H   0  0  0  0  0  0  0  0  0  0  0  0
  152.4469  142.3121  161.3808 H   0  0  0  0  0  0  0  0  0  0  0  0
  152.1055  144.6742  162.0330 H   0  0  0  0  0  0  0  0  0  0  0  0
  151.7882  146.4217  160.2901 H   0  0  0  0  0  0  0  0  0  0  0  0
  151.8255  145.7957  157.8830 H   0  0  0  0  0  0  0  0  0  0  0  0
  152.1713  143.4446  157.2119 H   0  0  0  0  0  0  0  0  0  0  0  0
  1  2  2  0  0  0  0
  2  3  1  0  0  0  0
  2 33  1  0  0  0  0
  3  4  1  0  0  0  0
  3 39  1  0  0  0  0
  4  9  1  0  0  0  0
  4  5  2  0  0  0  0
  5  6  1  0  0  0  0
  6  7  2  0  0  0  0
  6 40  1  0  0  0  0
  7  8  1  0  0  0  0
  8 12  1  0  0  0  0
  8  9  2  0  0  0  0
  9 10  1  0  0  0  0
 10 11  2  0  0  0  0
 11 12  1  0  0  0  0
 11 41  1  0  0  0  0
 12 13  1  0  0  0  0
 13 32  1  0  0  0  0
 13 14  1  0  0  0  0
 13 42  1  0  0  0  0
 14 15  1  0  0  0  0
 15 16  1  0  0  0  0
 15 26  1  0  0  0  0
 15 43  1  0  0  0  0
 16 17  1  0  0  0  0
 16 44  1  0  0  0  0
 16 45  1  0  0  0  0
 17 18  1  0  0  0  0
 18 19  2  0  0  0  0
 18 20  1  0  0  0  0
 20 25  1  0  0  0  0
 20 21  2  0  0  0  0
 21 22  1  0  0  0  0
 21 46  1  0  0  0  0
 22 23  2  0  0  0  0
 22 47  1  0  0  0  0
 23 24  1  0  0  0  0
 23 48  1  0  0  0  0
 24 25  2  0  0  0  0
 24 49  1  0  0  0  0
 25 50  1  0  0  0  0
 26 32  1  0  0  0  0
 26 27  1  0  0  0  0
 26 51  1  0  0  0  0
 27 28  1  0  0  0  0
 28 29  2  0  0  0  0
 28 30  2  0  0  0  0
 28 31  1  0  0  0  0
 31 32  1  0  0  0  0
 32 52  1  0  0  0  0
 33 38  1  0  0  0  0
 33 34  2  0  0  0  0
 34 35  1  0  0  0  0
 34 53  1  0  0  0  0
 35 36  2  0  0  0  0
 35 54  1  0  0  0  0
 36 37  1  0  0  0  0
 36 55  1  0  0  0  0
 37 38  2  0  0  0  0
 37 56  1  0  0  0  0
 38 57  1  0  0  0  0
M  END
> <s_m_source_file>
AV-unprocessed.smi

> <i_m_source_file_index>
1

> <i_lp_mmshare_version>
43012

> <i_f3d_flags>
0

> <s_epik_input>
W2NIXTFbY0hdW2NIXVtjSF1bY0hdYzFDKD1PKVtOSF1jKG5bY0hdbjIpYyhjMjMpbltjSF1uM1tDQEBIXShbQ0BIXShbQ0BIXTQ1KU9TKE81KSg9Tyk9TylPW0NASF00W0NIMl1PQyg9TyljNltjSF1bY0hdW2NIXVtjSF1bY0hdNg==

> <s_epik_cmdline>
J2VwaWtfcHl0aG9uJywgJy1waCcsICc3LjAnLCAnLXRuJywgJzgnLCAnLW1hJywgJzIwMCcsICctbWV0YWxfYmluZGluZycsICctaW1hZScsICc8aW5maWxlLm1hZT4nLCAnLW9tYWUnLCAnPG91dGZpbGUubWFlPic=

> <r_lp_tautomer_probability>
1

> <r_epik_Ionization_Penalty>
0.00195722

> <r_epik_Ionization_Penalty_Charging>
0

> <r_epik_Ionization_Penalty_Neutral>
0.00195722

> <r_epik_State_Penalty>
0.00633741

> <r_epik_Charging_Adjusted_Penalty>
0.00633741

> <i_epik_Tot_Q>
0

> <i_epik_Tot_abs_Q>
0

> <r_epik_Metal_State_Penalty>
0.341185

> <b_epik_Metal_Only>
0

> <s_epik_Chemistry_Notes>
This compound has an ester and may undergo hydrolysis at high or low pH. This compound contains an acetal/aminal-like group ( X-CH(R)-Y where X, Y are N, S, or O) that may be acid/base labile, releasing an aldehyde.

> <s_lp_Force_Field>
OPLS_2005

> <r_lp_Energy>
46.3459

> <b_lp_Chiralities_Consistent>
1

> <s_lp_Variant>
AV-unprocessed.smi:1-4

> <Gold.Version>
5.8.1

> <Gold.Id.Protein>
6NUR|6NUR_protein|mol2

> <Gold.PLP.Fitness>
65.2238

> <Gold.PLP.PLP>
-59.5986

> <Gold.PLP.part.hbond>
-3.0167

> <Gold.PLP.part.metal>
0.0000

> <Gold.PLP.part.buried>
-9.1065

> <Gold.PLP.part.nonpolar>
-48.8367

> <Gold.PLP.part.repulsive>
0.4525

> <Gold.PLP.ligand.clash>
0.0000

> <Gold.PLP.ligand.torsion>
1.5276

> <Gold.PLP.Chemscore.Hbond>
2.8221

> <Gold.PLP.Chemscore.CHOScore>
0.0000

> <Gold.PLP.Chemscore.Metal>
0.0000

> <Gold.Chemscore.Hbonds>
donor molecule, donor type, donor heavy atom, donor atom, acceptor molecule, acceptor atom, score
      P1  H  6896  6907       L1    29  0.71
      P1  H  7997  8009       L1     5  1.00
      P1  H 10752 10763       L1     7  0.83

> <Gold.PLP.Chemscore.Internal.Correction>
0.2140

> <Gold.Rescore>
     Score         DG    S(hbond)    S(metal)    S(lipo)     H(rot)  DE(clash)    DE(int)     intcor
     20.52     -23.48       1.99        0.00     143.73       2.13       0.14       2.82       ----

> <Gold.Chemscore.Fitness>
20.5175

> <Gold.Chemscore.DG>
-23.4797

> <Gold.Chemscore.ZeroCoef>
-5.4800

> <Gold.Chemscore.Hbond>
1.9893

> <Gold.Chemscore.Metal>
0.0000

> <Gold.Chemscore.Lipo>
143.7328

> <Gold.Chemscore.Internal_Hbond>
0.0000

> <Gold.Chemscore.DEClash>
0.1408

> <Gold.Chemscore.DEInternal>
2.8215

> <Gold.Chemscore.Rot>
2.1333

> <Gold.Chemscore.Internal.Correction>
   9.000000E+99

> <Gold.Chemscore.Hbonds>
donor molecule, donor type, donor heavy atom, donor atom, acceptor molecule, acceptor atom, score
      P1  H  6896  6907       L1    29  0.67
      P1  H  7997  8009       L1     5  0.82
      P1  H 10752 10763       L1     7  0.65

> <Gold.Chemscore.Hbond.Weighted>
-6.6444

> <Gold.Chemscore.Metal.Weighted>
-0.0000

> <Gold.Chemscore.Lipo.Weighted>
-16.8167

> <Gold.Chemscore.Internal_Hbond.Weighted>
0.0000

> <Gold.Chemscore.DEClash.Weighted>
0.1408

> <Gold.Chemscore.DEInternal.Weighted>
2.8215

> <Gold.Chemscore.Rot.Weighted>
5.4614

> <Gold.Chemscore.Internal.Correction.Weighted>
   9.000000E+99

> <Gold.Protein.RotatedTorsions>
[ 6907 6896 6895 6894 ] final -154.80 input  -60.11 | X-H torsion
[ 7974 7965 7964 7962 ] final -162.23 input  175.53 | X-H torsion
[ 8008 7997 7996 7995 ] final -139.91 input   59.86 | X-H torsion
[ 10167 10162 10161 10158 ] final  -84.90 input  -65.29 | X-H torsion
[ 10718 10713 10712 10709 ] final   87.69 input   66.30 | X-H torsion
[ 10763 10752 10751 10750 ] final   75.72 input  -60.55 | X-H torsion
[ 11005 11000 10999 10996 ] final -178.93 input  -57.11 | X-H torsion

> <Gold.Protein.ActiveResidues>
 VAL166  LYS551  ARG553  GLY616  TRP617  ASP618  TYR619  PRO620  LYS621  CYS622 
 ASP623  PHE694  ASN695  SER759  ASP760  ASP761  ALA762  ILE779  LEU786  VAL792 
 PHE793  MET794  SER795  GLU796  ALA797  LYS798  CYS799  TRP800  GLU811  SER814 

> <Gold.Protein.RotatedAtoms>
  151.2629  133.4293  159.2616 H   0  0  0  0  0  0  0  0  0  0  0  0  # atno 6907 bound_to 6896
  151.0514  134.9676  159.8224 H   0  0  0  0  0  0  0  0  0  0  0  0  # atno 6908 bound_to 6896
  152.5383  134.2583  159.8978 H   0  0  0  0  0  0  0  0  0  0  0  0  # atno 6909 bound_to 6896
  144.7364  140.3283  143.6158 H   0  0  0  0  0  0  0  0  0  0  0  0  # atno 7974 bound_to 7965
  155.4527  140.0540  157.2999 H   0  0  0  0  0  0  0  0  0  0  0  0  # atno 8008 bound_to 7997
  154.4770  140.2065  155.9809 H   0  0  0  0  0  0  0  0  0  0  0  0  # atno 8009 bound_to 7997
  156.1148  140.3198  155.8128 H   0  0  0  0  0  0  0  0  0  0  0  0  # atno 8010 bound_to 7997
  140.4089  143.2631  151.9044 H   0  0  0  0  0  0  0  0  0  0  0  0  # atno 10167 bound_to 10162
  157.6942  131.0265  150.3162 H   0  0  0  0  0  0  0  0  0  0  0  0  # atno 10718 bound_to 10713
  153.0674  135.4978  154.8230 H   0  0  0  0  0  0  0  0  0  0  0  0  # atno 10763 bound_to 10752
  154.6974  135.2995  154.9394 H   0  0  0  0  0  0  0  0  0  0  0  0  # atno 10764 bound_to 10752
  154.0129  135.6752  153.4819 H   0  0  0  0  0  0  0  0  0  0  0  0  # atno 10765 bound_to 10752
  140.4242  134.6577  157.4680 H   0  0  0  0  0  0  0  0  0  0  0  0  # atno 11005 bound_to 11000
  145.7498  139.1790  143.2328 LP  0  0  0  0  0  0  0  0  0  0  0  0  # atno 17320 bound_to 7965
  146.1070  140.7475  142.9522 LP  0  0  0  0  0  0  0  0  0  0  0  0  # atno 17321 bound_to 7965
  139.4783  144.5557  151.8317 LP  0  0  0  0  0  0  0  0  0  0  0  0  # atno 17342 bound_to 10162
  140.4659  144.1655  150.5912 LP  0  0  0  0  0  0  0  0  0  0  0  0  # atno 17343 bound_to 10162
  156.3656  130.3854  149.7216 LP  0  0  0  0  0  0  0  0  0  0  0  0  # atno 17370 bound_to 10713
  156.4648  130.7969  151.2988 LP  0  0  0  0  0  0  0  0  0  0  0  0  # atno 17371 bound_to 10713
  140.0179  134.6592  155.9283 LP  0  0  0  0  0  0  0  0  0  0  0  0  # atno 17394 bound_to 11000
  141.1772  133.6541  156.4874 LP  0  0  0  0  0  0  0  0  0  0  0  0  # atno 17395 bound_to 11000

$$$$
