AV-unprocessed.smi:160|AV-procd|sdf|1348|dock1
  -GOLD-   2262019 53D 1   1.00000     0.00000
 Structure written by MMmdl.
 29 30  0  0  0  0  0  0  0  0  1 V2000
  152.3166  144.7242  159.9147 N   0  0  0  0  0  0  0  0  0  0  0  0
  152.0007  143.4762  160.2759 C   0  0  0  0  0  0  0  0  0  0  0  0
  151.9718  143.1180  161.4523 O   0  0  0  0  0  0  0  0  0  0  0  0
  151.6695  142.5262  159.1583 C   0  0  0  0  0  0  0  0  0  0  0  0
  151.5358  141.1860  159.3864 N   0  0  0  0  0  0  0  0  0  0  0  0
  151.2538  140.7917  158.1514 C   0  0  0  0  0  0  0  0  0  0  0  0
  151.2236  141.7814  157.2532 N   0  0  0  0  0  0  0  0  0  0  0  0
  150.9458  141.7293  155.7800 C   0  0  1  0  0  0  0  0  0  0  0  0
  151.1885  140.4297  155.3298 O   0  0  0  0  0  0  0  0  0  0  0  0
  149.9528  139.7468  155.1461 C   0  0  2  0  0  0  0  0  0  0  0  0
  150.1185  138.5262  154.2242 C   0  0  0  0  0  0  0  0  0  0  0  0
  148.8732  137.8870  154.0405 O   0  0  0  0  0  0  0  0  0  0  0  0
  149.0351  140.8593  154.6203 C   0  0  2  0  0  0  0  0  0  0  0  0
  149.2367  141.0724  153.2345 O   0  0  0  0  0  0  0  0  0  0  0  0
  149.4825  142.0819  155.4150 C   0  0  1  0  0  0  0  0  0  0  0  0
  148.6307  142.2779  156.5308 O   0  0  0  0  0  0  0  0  0  0  0  0
  151.4987  142.9411  157.9022 N   0  0  0  0  0  0  0  0  0  0  0  0
  151.6748  142.4130  155.3435 H   0  0  0  0  0  0  0  0  0  0  0  0
  149.5712  139.4258  156.1171 H   0  0  0  0  0  0  0  0  0  0  0  0
  147.9813  140.6210  154.7733 H   0  0  0  0  0  0  0  0  0  0  0  0
  149.4671  142.9908  154.8116 H   0  0  0  0  0  0  0  0  0  0  0  0
  152.5459  145.4101  160.6188 H   0  0  0  0  0  0  0  0  0  0  0  0
  152.3204  144.9725  158.9358 H   0  0  0  0  0  0  0  0  0  0  0  0
  151.0681  139.7589  157.8951 H   0  0  0  0  0  0  0  0  0  0  0  0
  150.4695  138.8430  153.2416 H   0  0  0  0  0  0  0  0  0  0  0  0
  150.8498  137.8215  154.6212 H   0  0  0  0  0  0  0  0  0  0  0  0
  148.9049  137.3902  153.2372 H   0  0  0  0  0  0  0  0  0  0  0  0
  148.7893  140.3906  152.7571 H   0  0  0  0  0  0  0  0  0  0  0  0
  148.4750  143.2044  156.6319 H   0  0  0  0  0  0  0  0  0  0  0  0
  1  2  1  0  0  0  0
  1 22  1  0  0  0  0
  1 23  1  0  0  0  0
  2  3  2  0  0  0  0
  2  4  1  0  0  0  0
  4 17  2  0  0  0  0
  4  5  1  0  0  0  0
  5  6  2  0  0  0  0
  6  7  1  0  0  0  0
  6 24  1  0  0  0  0
  7  8  1  0  0  0  0
  7 17  1  0  0  0  0
  8 18  1  0  0  0  0
  8 15  1  0  0  0  0
  8  9  1  0  0  0  0
  9 10  1  0  0  0  0
 10 19  1  0  0  0  0
 10 11  1  0  0  0  0
 10 13  1  0  0  0  0
 11 12  1  0  0  0  0
 11 25  1  0  0  0  0
 11 26  1  0  0  0  0
 12 27  1  0  0  0  0
 13 20  1  0  0  0  0
 13 14  1  0  0  0  0
 13 15  1  0  0  0  0
 14 28  1  0  0  0  0
 15 21  1  0  0  0  0
 15 16  1  0  0  0  0
 16 29  1  0  0  0  0
M  END
> <s_m_source_file>
AV-unprocessed.smi

> <i_m_source_file_index>
160

> <i_lp_mmshare_version>
43012

> <i_f3d_flags>
0

> <s_epik_input>
W05IMl1DKD1PKWMxbltjSF1uKG4xKVtDQEBIXTJPW0NASF0oW0NIMl1bT0hdKVtDQEBIXShbT0hdKVtDQEhdMltPSF0=

> <s_epik_cmdline>
J2VwaWtfcHl0aG9uJywgJy1waCcsICc3LjAnLCAnLXRuJywgJzgnLCAnLW1hJywgJzIwMCcsICctbWV0YWxfYmluZGluZycsICctaW1hZScsICc8aW5maWxlLm1hZT4nLCAnLW9tYWUnLCAnPG91dGZpbGUubWFlPic=

> <r_lp_tautomer_probability>
1

> <r_epik_Ionization_Penalty>
1.06932e-05

> <r_epik_Ionization_Penalty_Charging>
0

> <r_epik_Ionization_Penalty_Neutral>
1.06932e-05

> <r_epik_State_Penalty>
-0

> <r_epik_Charging_Adjusted_Penalty>
0

> <i_epik_Tot_Q>
0

> <i_epik_Tot_abs_Q>
0

> <r_epik_Metal_State_Penalty>
0.0142097

> <b_epik_Metal_Only>
0

> <s_epik_Chemistry_Notes>
This compound contains an acetal/aminal-like group ( X-CH(R)-Y where X, Y are N, S, or O) that may be acid/base labile, releasing an aldehyde.

> <s_lp_Force_Field>
OPLS_2005

> <r_lp_Energy>
42.6819

> <b_lp_Chiralities_Consistent>
1

> <s_lp_Variant>
AV-unprocessed.smi:160-6

> <Gold.Version>
5.8.1

> <Gold.Id.Protein>
6NUR|6NUR_protein|mol2

> <Gold.PLP.Fitness>
40.1080

> <Gold.PLP.PLP>
-29.0787

> <Gold.PLP.part.hbond>
-6.3265

> <Gold.PLP.part.metal>
0.0000

> <Gold.PLP.part.buried>
-3.4682

> <Gold.PLP.part.nonpolar>
-18.7900

> <Gold.PLP.part.repulsive>
0.2987

> <Gold.PLP.ligand.clash>
0.0000

> <Gold.PLP.ligand.torsion>
0.6727

> <Gold.PLP.Chemscore.Hbond>
4.1228

> <Gold.PLP.Chemscore.CHOScore>
0.0000

> <Gold.PLP.Chemscore.Metal>
0.0000

> <Gold.Chemscore.Hbonds>
donor molecule, donor type, donor heavy atom, donor atom, acceptor molecule, acceptor atom, score
      L1  H    12    27       P1  7948  1.00
      L1  H    14    28       P1  7957  0.24
      L1  H    16    29       P1  8028  0.74
      P1  H  7989  7998       L1     9  0.82
      P1  H  8011  8017       L1    14  1.00

> <Gold.PLP.Chemscore.Internal.Correction>
0.0061

> <Gold.Rescore>
     Score         DG    S(hbond)    S(metal)    S(lipo)     H(rot)  DE(clash)    DE(int)     intcor
      9.15     -10.38       3.51        0.00      30.44       4.06       0.59       0.64       ----

> <Gold.Chemscore.Fitness>
9.1500

> <Gold.Chemscore.DG>
-10.3778

> <Gold.Chemscore.ZeroCoef>
-5.4800

> <Gold.Chemscore.Hbond>
3.5120

> <Gold.Chemscore.Metal>
0.0000

> <Gold.Chemscore.Lipo>
30.4377

> <Gold.Chemscore.Internal_Hbond>
0.0000

> <Gold.Chemscore.DEClash>
0.5868

> <Gold.Chemscore.DEInternal>
0.6410

> <Gold.Chemscore.Rot>
4.0600

> <Gold.Chemscore.Internal.Correction>
   9.000000E+99

> <Gold.Chemscore.Hbonds>
donor molecule, donor type, donor heavy atom, donor atom, acceptor molecule, acceptor atom, score
      L1  H    12    27       P1  7948  1.00
      L1  H    14    28       P1  7957  0.24
      L1  H    16    29       P1  8028  0.43
      P1  H  6933  6945       L1     3  0.01
      P1  H  7989  7998       L1     9  0.04
      P1  H  8011  8017       L1    14  0.94

> <Gold.Chemscore.Hbond.Weighted>
-11.7302

> <Gold.Chemscore.Metal.Weighted>
-0.0000

> <Gold.Chemscore.Lipo.Weighted>
-3.5612

> <Gold.Chemscore.Internal_Hbond.Weighted>
0.0000

> <Gold.Chemscore.DEClash.Weighted>
0.5868

> <Gold.Chemscore.DEInternal.Weighted>
0.6410

> <Gold.Chemscore.Rot.Weighted>
10.3936

> <Gold.Chemscore.Internal.Correction.Weighted>
   9.000000E+99

> <Gold.Protein.RotatedTorsions>
[ 6907 6896 6895 6894 ] final  -58.15 input  -60.11 | X-H torsion
[ 7974 7965 7964 7962 ] final -176.29 input  175.53 | X-H torsion
[ 8008 7997 7996 7995 ] final -100.68 input   59.86 | X-H torsion
[ 10167 10162 10161 10158 ] final   46.13 input  -65.29 | X-H torsion
[ 10718 10713 10712 10709 ] final  -21.99 input   66.30 | X-H torsion
[ 10763 10752 10751 10750 ] final  -31.06 input  -60.55 | X-H torsion
[ 11005 11000 10999 10996 ] final -112.54 input  -57.11 | X-H torsion

> <Gold.Protein.ActiveResidues>
 VAL166  LYS551  ARG553  GLY616  TRP617  ASP618  TYR619  PRO620  LYS621  CYS622 
 ASP623  PHE694  ASN695  SER759  ASP760  ASP761  ALA762  ILE779  LEU786  VAL792 
 PHE793  MET794  SER795  GLU796  ALA797  LYS798  CYS799  TRP800  GLU811  SER814 

> <Gold.Protein.RotatedAtoms>
  150.8029  134.7135  159.6616 H   0  0  0  0  0  0  0  0  0  0  0  0  # atno 6907 bound_to 6896
  152.4147  134.6059  160.0022 H   0  0  0  0  0  0  0  0  0  0  0  0  # atno 6908 bound_to 6896
  151.6292  133.3296  159.3141 H   0  0  0  0  0  0  0  0  0  0  0  0  # atno 6909 bound_to 6896
  144.7127  140.1192  143.6406 H   0  0  0  0  0  0  0  0  0  0  0  0  # atno 7974 bound_to 7965
  154.8319  140.0439  157.1483 H   0  0  0  0  0  0  0  0  0  0  0  0  # atno 8008 bound_to 7997
  154.9142  140.3018  155.5230 H   0  0  0  0  0  0  0  0  0  0  0  0  # atno 8009 bound_to 7997
  156.2987  140.2352  156.4185 H   0  0  0  0  0  0  0  0  0  0  0  0  # atno 8010 bound_to 7997
  140.3171  144.2751  150.6189 H   0  0  0  0  0  0  0  0  0  0  0  0  # atno 10167 bound_to 10162
  156.5107  130.4609  149.6650 H   0  0  0  0  0  0  0  0  0  0  0  0  # atno 10718 bound_to 10713
  153.7912  135.6897  153.4871 H   0  0  0  0  0  0  0  0  0  0  0  0  # atno 10763 bound_to 10752
  153.1748  135.4528  154.9949 H   0  0  0  0  0  0  0  0  0  0  0  0  # atno 10764 bound_to 10752
  154.8044  135.3350  154.7408 H   0  0  0  0  0  0  0  0  0  0  0  0  # atno 10765 bound_to 10752
  141.0669  133.9444  157.2561 H   0  0  0  0  0  0  0  0  0  0  0  0  # atno 11005 bound_to 11000
  145.9386  139.2653  143.1282 LP  0  0  0  0  0  0  0  0  0  0  0  0  # atno 17320 bound_to 7965
  145.9448  140.8953  143.0289 LP  0  0  0  0  0  0  0  0  0  0  0  0  # atno 17321 bound_to 7965
  140.5517  143.2205  151.7916 LP  0  0  0  0  0  0  0  0  0  0  0  0  # atno 17342 bound_to 10162
  139.4882  144.4468  151.9701 LP  0  0  0  0  0  0  0  0  0  0  0  0  # atno 17343 bound_to 10162
  156.3243  130.7297  151.2215 LP  0  0  0  0  0  0  0  0  0  0  0  0  # atno 17370 bound_to 10713
  157.7451  131.0447  150.4806 LP  0  0  0  0  0  0  0  0  0  0  0  0  # atno 17371 bound_to 10713
  139.9485  135.0180  156.8923 LP  0  0  0  0  0  0  0  0  0  0  0  0  # atno 17394 bound_to 11000
  140.5755  134.0402  155.7445 LP  0  0  0  0  0  0  0  0  0  0  0  0  # atno 17395 bound_to 11000

$$$$
