AV-unprocessed.smi:1389|AV-procd|sdf|5649|dock7
  -GOLD-   22720 5273D 1   1.00000     0.00000
 Structure written by MMmdl.
 52 54  0  0  0  0  0  0  0  0  2 V2000
  149.9971  136.7439  155.6392 C   0  0  0  0  0  0  0  0  0  0  0  0
  149.4618  138.1070  155.1366 C   0  0  1  0  0  0  0  0  0  0  0  0
  150.6300  138.9766  154.5989 C   0  0  0  0  0  0  0  0  0  0  0  0
  151.4862  139.4853  155.6650 N   0  0  0  0  0  0  0  0  0  0  0  0
  151.1987  140.5563  156.4156 C   0  0  0  0  0  0  0  0  0  0  0  0
  150.1692  141.2184  156.2845 O   0  0  0  0  0  0  0  0  0  0  0  0
  152.1621  140.7894  157.3226 N   0  0  0  0  0  0  0  0  0  0  0  0
  152.1945  141.7990  158.3257 C   0  0  0  0  0  0  0  0  0  0  0  0
  151.5210  143.0332  158.1530 C   0  0  0  0  0  0  0  0  0  0  0  0
  151.6370  144.0272  159.1395 C   0  0  0  0  0  0  0  0  0  0  0  0
  152.4382  143.7591  160.2614 C   0  0  0  0  0  0  0  0  0  0  0  0
  153.0979  142.5963  160.4339 N   0  0  0  0  0  0  0  0  0  0  0  0
  152.9850  141.6216  159.4979 C   0  0  0  0  0  0  0  0  0  0  0  0
  153.6896  140.4198  159.7416 N   0  0  0  0  0  0  0  0  0  0  0  0
  152.9434  139.1649  159.7212 C   0  0  0  0  0  0  0  0  0  0  0  0
  153.5610  138.2744  160.8047 C   0  0  0  0  0  0  0  0  0  0  0  0
  154.9517  138.8668  161.0087 C   0  0  0  0  0  0  0  0  0  0  0  0
  154.7055  140.3563  160.7872 C   0  0  0  0  0  0  0  0  0  0  0  0
  148.3669  137.9144  154.1268 N   0  3  0  0  0  0  0  0  0  0  0  0
  147.2072  137.1460  154.6606 C   0  0  0  0  0  0  0  0  0  0  0  0
  146.1275  136.9366  153.5863 C   0  0  0  0  0  0  0  0  0  0  0  0
  145.6989  138.1949  153.0914 O   0  0  0  0  0  0  0  0  0  0  0  0
  146.7655  138.8906  152.4663 C   0  0  0  0  0  0  0  0  0  0  0  0
  147.8803  139.1706  153.4892 C   0  0  0  0  0  0  0  0  0  0  0  0
  150.8325  136.8573  156.3295 H   0  0  0  0  0  0  0  0  0  0  0  0
  150.3425  136.1266  154.8093 H   0  0  0  0  0  0  0  0  0  0  0  0
  149.2478  136.1785  156.1904 H   0  0  0  0  0  0  0  0  0  0  0  0
  149.0320  138.6362  155.9888 H   0  0  0  0  0  0  0  0  0  0  0  0
  151.2293  138.4008  153.8911 H   0  0  0  0  0  0  0  0  0  0  0  0
  150.2569  139.8557  154.0737 H   0  0  0  0  0  0  0  0  0  0  0  0
  152.3499  138.9926  155.8405 H   0  0  0  0  0  0  0  0  0  0  0  0
  152.9031  140.1055  157.3753 H   0  0  0  0  0  0  0  0  0  0  0  0
  150.9370  143.2426  157.2697 H   0  0  0  0  0  0  0  0  0  0  0  0
  151.1342  144.9769  159.0318 H   0  0  0  0  0  0  0  0  0  0  0  0
  152.5586  144.4996  161.0382 H   0  0  0  0  0  0  0  0  0  0  0  0
  151.8765  139.3171  159.8908 H   0  0  0  0  0  0  0  0  0  0  0  0
  153.0686  138.6984  158.7439 H   0  0  0  0  0  0  0  0  0  0  0  0
  152.9858  138.3666  161.7268 H   0  0  0  0  0  0  0  0  0  0  0  0
  153.5823  137.2207  160.5259 H   0  0  0  0  0  0  0  0  0  0  0  0
  155.3725  138.6463  161.9901 H   0  0  0  0  0  0  0  0  0  0  0  0
  155.6355  138.4837  160.2499 H   0  0  0  0  0  0  0  0  0  0  0  0
  155.6156  140.8785  160.4906 H   0  0  0  0  0  0  0  0  0  0  0  0
  154.3378  140.8035  161.7118 H   0  0  0  0  0  0  0  0  0  0  0  0
  147.5125  136.1625  155.0114 H   0  0  0  0  0  0  0  0  0  0  0  0
  146.7814  137.6740  155.5153 H   0  0  0  0  0  0  0  0  0  0  0  0
  146.5015  136.3144  152.7713 H   0  0  0  0  0  0  0  0  0  0  0  0
  145.2698  136.4169  154.0139 H   0  0  0  0  0  0  0  0  0  0  0  0
  147.1471  138.3151  151.6211 H   0  0  0  0  0  0  0  0  0  0  0  0
  146.3840  139.8289  152.0631 H   0  0  0  0  0  0  0  0  0  0  0  0
  147.5202  139.8558  154.2581 H   0  0  0  0  0  0  0  0  0  0  0  0
  148.6830  139.6723  152.9512 H   0  0  0  0  0  0  0  0  0  0  0  0
  148.7623  137.3599  153.3808 H   0  0  0  0  0  0  0  0  0  0  0  0
  1  2  1  0  0  0  0
  1 25  1  0  0  0  0
  1 26  1  0  0  0  0
  1 27  1  0  0  0  0
  2  3  1  0  0  0  0
  2 19  1  0  0  0  0
  2 28  1  0  0  0  0
  3  4  1  0  0  0  0
  3 29  1  0  0  0  0
  3 30  1  0  0  0  0
  4  5  1  0  0  0  0
  4 31  1  0  0  0  0
  5  6  2  0  0  0  0
  5  7  1  0  0  0  0
  7  8  1  0  0  0  0
  7 32  1  0  0  0  0
  8 13  1  0  0  0  0
  8  9  2  0  0  0  0
  9 10  1  0  0  0  0
  9 33  1  0  0  0  0
 10 11  2  0  0  0  0
 10 34  1  0  0  0  0
 11 12  1  0  0  0  0
 11 35  1  0  0  0  0
 12 13  2  0  0  0  0
 13 14  1  0  0  0  0
 14 18  1  0  0  0  0
 14 15  1  0  0  0  0
 15 16  1  0  0  0  0
 15 36  1  0  0  0  0
 15 37  1  0  0  0  0
 16 17  1  0  0  0  0
 16 38  1  0  0  0  0
 16 39  1  0  0  0  0
 17 18  1  0  0  0  0
 17 40  1  0  0  0  0
 17 41  1  0  0  0  0
 18 42  1  0  0  0  0
 18 43  1  0  0  0  0
 19 24  1  0  0  0  0
 19 20  1  0  0  0  0
 19 52  1  0  0  0  0
 20 21  1  0  0  0  0
 20 44  1  0  0  0  0
 20 45  1  0  0  0  0
 21 22  1  0  0  0  0
 21 46  1  0  0  0  0
 21 47  1  0  0  0  0
 22 23  1  0  0  0  0
 23 24  1  0  0  0  0
 23 48  1  0  0  0  0
 23 49  1  0  0  0  0
 24 50  1  0  0  0  0
 24 51  1  0  0  0  0
M  CHG  1  19   1
M  END
> <s_m_source_file>
AV-unprocessed.smi

> <i_m_source_file_index>
1389

> <i_lp_mmshare_version>
43012

> <i_f3d_flags>
0

> <s_epik_input>
W0NIMl0xW0NIMl1PW0NIMl1bQ0gyXU4xW0NASF0oW0NIM10pW0NIMl1bTkhdQyg9TylbTkhdYzJbY0hdW2NIXVtjSF1uYzJOM1tDSDJdW0NIMl1bQ0gyXVtDSDJdMw==

> <s_epik_cmdline>
J2VwaWtfcHl0aG9uJywgJy1waCcsICc3LjAnLCAnLXRuJywgJzgnLCAnLW1hJywgJzIwMCcsICctbWV0YWxfYmluZGluZycsICctaW1hZScsICc8aW5maWxlLm1hZT4nLCAnLW9tYWUnLCAnPG91dGZpbGUubWFlPic=

> <r_lp_tautomer_probability>
1

> <r_epik_Ionization_Penalty>
0.686

> <r_epik_Ionization_Penalty_Charging>
0.602531

> <r_epik_Ionization_Penalty_Neutral>
0.08347

> <r_epik_State_Penalty>
0.679975

> <r_epik_Charging_Adjusted_Penalty>
1.28251

> <i_epik_Tot_Q>
1

> <i_epik_Tot_abs_Q>
1

> <r_epik_Metal_State_Penalty>
0.679055

> <b_epik_Metal_Only>
0

> <s_lp_Force_Field>
OPLS_2005

> <r_lp_Energy>
49.8528

> <b_lp_Chiralities_Consistent>
1

> <s_lp_Variant>
AV-unprocessed.smi:1389-4

> <Gold.Version>
5.8.1

> <Gold.Id.Protein>
6NUR|6NUR_protein|mol2

> <Gold.PLP.Fitness>
41.6566

> <Gold.PLP.PLP>
-36.5027

> <Gold.PLP.part.hbond>
-1.0000

> <Gold.PLP.part.metal>
0.0000

> <Gold.PLP.part.buried>
-4.4670

> <Gold.PLP.part.nonpolar>
-31.4253

> <Gold.PLP.part.repulsive>
0.5444

> <Gold.PLP.ligand.clash>
0.0000

> <Gold.PLP.ligand.torsion>
0.6093

> <Gold.PLP.Chemscore.Hbond>
2.0000

> <Gold.PLP.Chemscore.CHOScore>
0.0000

> <Gold.PLP.Chemscore.Metal>
0.0000

> <Gold.Chemscore.Hbonds>
donor molecule, donor type, donor heavy atom, donor atom, acceptor molecule, acceptor atom, score
      L1  H    19    52       P1  7948  2.00

> <Gold.PLP.Chemscore.Internal.Correction>
0.3725

> <Gold.Rescore>
     Score         DG    S(hbond)    S(metal)    S(lipo)     H(rot)  DE(clash)    DE(int)     intcor
     14.40     -16.41       1.00        0.00     100.63       1.63       0.11       1.90       ----

> <Gold.Chemscore.Fitness>
14.3989

> <Gold.Chemscore.DG>
-16.4122

> <Gold.Chemscore.ZeroCoef>
-5.4800

> <Gold.Chemscore.Hbond>
0.9978

> <Gold.Chemscore.Metal>
0.0000

> <Gold.Chemscore.Lipo>
100.6329

> <Gold.Chemscore.Internal_Hbond>
0.0000

> <Gold.Chemscore.DEClash>
0.1145

> <Gold.Chemscore.DEInternal>
1.8988

> <Gold.Chemscore.Rot>
1.6307

> <Gold.Chemscore.Internal.Correction>
   9.000000E+99

> <Gold.Chemscore.Hbonds>
donor molecule, donor type, donor heavy atom, donor atom, acceptor molecule, acceptor atom, score
      L1  H    19    52       P1  7948  1.00

> <Gold.Chemscore.Hbond.Weighted>
-3.3327

> <Gold.Chemscore.Metal.Weighted>
-0.0000

> <Gold.Chemscore.Lipo.Weighted>
-11.7741

> <Gold.Chemscore.Internal_Hbond.Weighted>
0.0000

> <Gold.Chemscore.DEClash.Weighted>
0.1145

> <Gold.Chemscore.DEInternal.Weighted>
1.8988

> <Gold.Chemscore.Rot.Weighted>
4.1746

> <Gold.Chemscore.Internal.Correction.Weighted>
   9.000000E+99

> <Gold.Protein.RotatedTorsions>
[ 6907 6896 6895 6894 ] final   88.20 input  -60.11 | X-H torsion
[ 7974 7965 7964 7962 ] final  -81.26 input  175.53 | X-H torsion
[ 8008 7997 7996 7995 ] final   79.37 input   59.86 | X-H torsion
[ 10167 10162 10161 10158 ] final   30.10 input  -65.29 | X-H torsion
[ 10718 10713 10712 10709 ] final  161.54 input   66.30 | X-H torsion
[ 10763 10752 10751 10750 ] final  -31.96 input  -60.55 | X-H torsion
[ 11005 11000 10999 10996 ] final  -63.99 input  -57.11 | X-H torsion

> <Gold.Protein.ActiveResidues>
 VAL166  LYS551  ARG553  GLY616  TRP617  ASP618  TYR619  PRO620  LYS621  CYS622 
 ASP623  PHE694  ASN695  SER759  ASP760  ASP761  ALA762  ILE779  LEU786  VAL792 
 PHE793  MET794  SER795  GLU796  ALA797  LYS798  CYS799  TRP800  GLU811  SER814 

> <Gold.Protein.RotatedAtoms>
  152.5422  134.2158  159.8767 H   0  0  0  0  0  0  0  0  0  0  0  0  # atno 6907 bound_to 6896
  151.2138  133.4534  159.2606 H   0  0  0  0  0  0  0  0  0  0  0  0  # atno 6908 bound_to 6896
  151.0871  134.9906  159.8440 H   0  0  0  0  0  0  0  0  0  0  0  0  # atno 6909 bound_to 6896
  145.5490  140.9499  143.1509 H   0  0  0  0  0  0  0  0  0  0  0  0  # atno 7974 bound_to 7965
  155.8687  140.3450  155.5806 H   0  0  0  0  0  0  0  0  0  0  0  0  # atno 8008 bound_to 7997
  155.7852  140.0864  157.2057 H   0  0  0  0  0  0  0  0  0  0  0  0  # atno 8009 bound_to 7997
  154.4016  140.1493  156.3085 H   0  0  0  0  0  0  0  0  0  0  0  0  # atno 8010 bound_to 7997
  140.4707  144.0766  150.6236 H   0  0  0  0  0  0  0  0  0  0  0  0  # atno 10167 bound_to 10162
  157.1351  131.0526  151.2353 H   0  0  0  0  0  0  0  0  0  0  0  0  # atno 10718 bound_to 10713
  153.8060  135.6886  153.4848 H   0  0  0  0  0  0  0  0  0  0  0  0  # atno 10763 bound_to 10752
  153.1658  135.4562  154.9834 H   0  0  0  0  0  0  0  0  0  0  0  0  # atno 10764 bound_to 10752
  154.7987  135.3329  154.7545 H   0  0  0  0  0  0  0  0  0  0  0  0  # atno 10765 bound_to 10752
  141.1411  133.6659  156.5764 H   0  0  0  0  0  0  0  0  0  0  0  0  # atno 11005 bound_to 11000
  144.7539  139.7124  143.7262 LP  0  0  0  0  0  0  0  0  0  0  0  0  # atno 17320 bound_to 7965
  146.1929  139.5180  142.9793 LP  0  0  0  0  0  0  0  0  0  0  0  0  # atno 17321 bound_to 7965
  140.3980  143.2718  151.9981 LP  0  0  0  0  0  0  0  0  0  0  0  0  # atno 17342 bound_to 10162
  139.4818  144.6021  151.7586 LP  0  0  0  0  0  0  0  0  0  0  0  0  # atno 17343 bound_to 10162
  157.4357  130.7516  149.7027 LP  0  0  0  0  0  0  0  0  0  0  0  0  # atno 17370 bound_to 10713
  155.9800  130.4034  150.3555 LP  0  0  0  0  0  0  0  0  0  0  0  0  # atno 17371 bound_to 10713
  140.3872  134.7472  157.4699 LP  0  0  0  0  0  0  0  0  0  0  0  0  # atno 17394 bound_to 11000
  140.0593  134.6018  155.8768 LP  0  0  0  0  0  0  0  0  0  0  0  0  # atno 17395 bound_to 11000

$$$$
