AV-unprocessed.smi:204|AV-procd|sdf|1599|dock9
  -GOLD-   2262019503D 1   1.00000     0.00000
 Structure written by MMmdl.
 53 56  0  0  0  0  0  0  0  0  1 V2000
  154.8702  138.4708  160.7310 C   0  0  0  0  0  0  0  0  0  0  0  0
  154.8131  139.7933  159.9740 C   0  0  0  0  0  0  0  0  0  0  0  0
  155.2719  139.8745  158.8350 O   0  0  0  0  0  0  0  0  0  0  0  0
  154.2462  140.8226  160.6185 N   0  0  0  0  0  0  0  0  0  0  0  0
  154.0942  142.1605  160.0601 C   0  0  0  0  0  0  0  0  0  0  0  0
  152.6912  142.3716  159.4614 C   0  0  1  0  0  0  0  0  0  0  0  0
  152.4147  143.8461  159.0966 C   0  0  0  0  0  0  0  0  0  0  0  0
  151.0197  143.9961  158.4711 C   0  0  0  0  0  0  0  0  0  0  0  0
  150.8509  143.0589  157.2655 C   0  0  0  0  0  0  0  0  0  0  0  0
  151.1619  141.6773  157.6351 N   0  0  0  0  0  0  0  0  0  0  0  0
  150.7528  140.6897  156.7976 C   0  0  0  0  0  0  0  0  0  0  0  0
  150.7898  140.8838  155.4519 N   0  0  0  0  0  0  0  0  0  0  0  0
  150.3988  139.9159  154.6180 C   0  0  0  0  0  0  0  0  0  0  0  0
  149.9378  138.6990  154.9109 N   0  0  0  0  0  0  0  0  0  0  0  0
  149.8872  138.4991  156.2587 C   0  0  0  0  0  0  0  0  0  0  0  0
  150.2760  139.4308  157.2630 C   0  0  0  0  0  0  0  0  0  0  0  0
  150.0819  138.8749  158.5221 N   0  0  0  0  0  0  0  0  0  0  0  0
  149.6216  137.6792  158.2759 C   0  0  0  0  0  0  0  0  0  0  0  0
  149.4575  137.3750  156.9431 N   0  0  0  0  0  0  0  0  0  0  0  0
  148.9570  136.1240  156.3931 C   0  0  0  0  0  0  0  0  0  0  0  0
  150.0071  135.3175  155.6005 C   0  0  0  0  0  0  0  0  0  0  0  0
  149.3403  134.1771  154.8111 C   0  0  0  0  0  0  0  0  0  0  0  0
  148.4440  134.6752  153.8379 O   0  0  0  0  0  0  0  0  0  0  0  0
  151.0149  136.1410  154.7856 C   0  0  0  0  0  0  0  0  0  0  0  0
  152.1364  135.4332  155.3545 O   0  0  0  0  0  0  0  0  0  0  0  0
  151.2654  134.9098  156.3794 C   0  0  0  0  0  0  0  0  0  0  0  0
  152.4877  141.4789  158.2210 C   0  0  0  0  0  0  0  0  0  0  0  0
  153.8753  138.1820  161.0715 H   0  0  0  0  0  0  0  0  0  0  0  0
  155.5224  138.5586  161.6003 H   0  0  0  0  0  0  0  0  0  0  0  0
  155.2558  137.6747  160.0930 H   0  0  0  0  0  0  0  0  0  0  0  0
  153.8976  140.6709  161.5538 H   0  0  0  0  0  0  0  0  0  0  0  0
  154.2866  142.9009  160.8383 H   0  0  0  0  0  0  0  0  0  0  0  0
  154.8503  142.3079  159.2869 H   0  0  0  0  0  0  0  0  0  0  0  0
  151.9599  142.0654  160.2115 H   0  0  0  0  0  0  0  0  0  0  0  0
  152.4851  144.4830  159.9786 H   0  0  0  0  0  0  0  0  0  0  0  0
  153.1704  144.2012  158.3946 H   0  0  0  0  0  0  0  0  0  0  0  0
  150.2588  143.7678  159.2185 H   0  0  0  0  0  0  0  0  0  0  0  0
  150.8545  145.0299  158.1664 H   0  0  0  0  0  0  0  0  0  0  0  0
  149.8272  143.1286  156.8948 H   0  0  0  0  0  0  0  0  0  0  0  0
  151.5112  143.3724  156.4553 H   0  0  0  0  0  0  0  0  0  0  0  0
  150.4646  140.1503  153.5657 H   0  0  0  0  0  0  0  0  0  0  0  0
  149.3761  136.9843  159.0659 H   0  0  0  0  0  0  0  0  0  0  0  0
  148.5662  135.5302  157.2204 H   0  0  0  0  0  0  0  0  0  0  0  0
  148.0928  136.3495  155.7672 H   0  0  0  0  0  0  0  0  0  0  0  0
  150.0773  133.5365  154.3270 H   0  0  0  0  0  0  0  0  0  0  0  0
  148.7750  133.5289  155.4816 H   0  0  0  0  0  0  0  0  0  0  0  0
  148.9358  134.8957  153.0615 H   0  0  0  0  0  0  0  0  0  0  0  0
  150.9328  136.0053  153.7066 H   0  0  0  0  0  0  0  0  0  0  0  0
  151.0425  137.2000  155.0437 H   0  0  0  0  0  0  0  0  0  0  0  0
  151.3919  135.4378  157.3262 H   0  0  0  0  0  0  0  0  0  0  0  0
  151.3769  133.8336  156.5168 H   0  0  0  0  0  0  0  0  0  0  0  0
  153.2381  141.7154  157.4653 H   0  0  0  0  0  0  0  0  0  0  0  0
  152.6475  140.4374  158.4975 H   0  0  0  0  0  0  0  0  0  0  0  0
  1  2  1  0  0  0  0
  1 28  1  0  0  0  0
  1 29  1  0  0  0  0
  1 30  1  0  0  0  0
  2  3  2  0  0  0  0
  2  4  1  0  0  0  0
  4  5  1  0  0  0  0
  4 31  1  0  0  0  0
  5  6  1  0  0  0  0
  5 32  1  0  0  0  0
  5 33  1  0  0  0  0
  6 27  1  0  0  0  0
  6  7  1  0  0  0  0
  6 34  1  0  0  0  0
  7  8  1  0  0  0  0
  7 35  1  0  0  0  0
  7 36  1  0  0  0  0
  8  9  1  0  0  0  0
  8 37  1  0  0  0  0
  8 38  1  0  0  0  0
  9 10  1  0  0  0  0
  9 39  1  0  0  0  0
  9 40  1  0  0  0  0
 10 11  1  0  0  0  0
 10 27  1  0  0  0  0
 11 16  1  0  0  0  0
 11 12  2  0  0  0  0
 12 13  1  0  0  0  0
 13 14  2  0  0  0  0
 13 41  1  0  0  0  0
 14 15  1  0  0  0  0
 15 19  1  0  0  0  0
 15 16  2  0  0  0  0
 16 17  1  0  0  0  0
 17 18  2  0  0  0  0
 18 19  1  0  0  0  0
 18 42  1  0  0  0  0
 19 20  1  0  0  0  0
 20 21  1  0  0  0  0
 20 43  1  0  0  0  0
 20 44  1  0  0  0  0
 21 26  1  0  0  0  0
 21 22  1  0  0  0  0
 21 24  1  0  0  0  0
 22 23  1  0  0  0  0
 22 45  1  0  0  0  0
 22 46  1  0  0  0  0
 23 47  1  0  0  0  0
 24 25  1  0  0  0  0
 24 48  1  0  0  0  0
 24 49  1  0  0  0  0
 25 26  1  0  0  0  0
 26 50  1  0  0  0  0
 26 51  1  0  0  0  0
 27 52  1  0  0  0  0
 27 53  1  0  0  0  0
M  END
> <s_m_source_file>
AV-unprocessed.smi

> <i_m_source_file_index>
204

> <i_lp_mmshare_version>
43012

> <i_f3d_flags>
0

> <s_epik_input>
W0NIM11DKD1PKVtOSF1bQ0gyXVtDQEBIXTFbQ0gyXVtDSDJdW0NIMl1OKFtDSDJdMSljKG5bY0hdbjIpYyhjMjMpbltjSF1uM1tDSDJdQzQoW0NIMl1bT0hdKVtDSDJdT1tDSDJdNA==

> <s_epik_cmdline>
J2VwaWtfcHl0aG9uJywgJy1waCcsICc3LjAnLCAnLXRuJywgJzgnLCAnLW1hJywgJzIwMCcsICctbWV0YWxfYmluZGluZycsICctaW1hZScsICc8aW5maWxlLm1hZT4nLCAnLW9tYWUnLCAnPG91dGZpbGUubWFlPic=

> <r_lp_tautomer_probability>
1

> <r_epik_Ionization_Penalty>
0.00166599

> <r_epik_Ionization_Penalty_Charging>
0

> <r_epik_Ionization_Penalty_Neutral>
0.00166599

> <r_epik_State_Penalty>
0.000989951

> <r_epik_Charging_Adjusted_Penalty>
0.000989951

> <i_epik_Tot_Q>
0

> <i_epik_Tot_abs_Q>
0

> <r_epik_Metal_State_Penalty>
-0

> <b_epik_Metal_Only>
0

> <s_lp_Force_Field>
OPLS_2005

> <r_lp_Energy>
35.563

> <b_lp_Chiralities_Consistent>
1

> <s_lp_Variant>
AV-unprocessed.smi:204-2

> <Gold.Version>
5.8.1

> <Gold.Id.Protein>
6NUR|6NUR_protein|mol2

> <Gold.PLP.Fitness>
46.6580

> <Gold.PLP.PLP>
-35.9568

> <Gold.PLP.part.hbond>
-4.0412

> <Gold.PLP.part.metal>
0.0000

> <Gold.PLP.part.buried>
-2.3626

> <Gold.PLP.part.nonpolar>
-29.8522

> <Gold.PLP.part.repulsive>
0.3251

> <Gold.PLP.ligand.clash>
0.0000

> <Gold.PLP.ligand.torsion>
1.0509

> <Gold.PLP.Chemscore.Hbond>
3.0000

> <Gold.PLP.Chemscore.CHOScore>
1.0000

> <Gold.PLP.Chemscore.Metal>
0.0000

> <Gold.Chemscore.Hbonds>
donor molecule, donor type, donor heavy atom, donor atom, acceptor molecule, acceptor atom, score
      L1  H    23    47       P1  7948  0.65
      P1  H  7997  8010       L1     3  0.89
      L1  C    13    41       P1  7957  0.96

> <Gold.PLP.Chemscore.Internal.Correction>
0.8030

> <Gold.Rescore>
     Score         DG    S(hbond)    S(metal)    S(lipo)     H(rot)  DE(clash)    DE(int)     intcor
     14.43     -16.62       2.96        0.00      83.42       3.33       0.04       2.15       ----

> <Gold.Chemscore.Fitness>
14.4307

> <Gold.Chemscore.DG>
-16.6211

> <Gold.Chemscore.ZeroCoef>
-5.4800

> <Gold.Chemscore.Hbond>
2.9629

> <Gold.Chemscore.Metal>
0.0000

> <Gold.Chemscore.Lipo>
83.4191

> <Gold.Chemscore.Internal_Hbond>
0.0000

> <Gold.Chemscore.DEClash>
0.0376

> <Gold.Chemscore.DEInternal>
2.1527

> <Gold.Chemscore.Rot>
3.3261

> <Gold.Chemscore.Internal.Correction>
   9.000000E+99

> <Gold.Chemscore.Hbonds>
donor molecule, donor type, donor heavy atom, donor atom, acceptor molecule, acceptor atom, score
      L1  H    23    47       P1  7948  0.11
      P1  H  7997  8010       L1     3  0.84

> <Gold.Chemscore.Hbond.Weighted>
-9.8959

> <Gold.Chemscore.Metal.Weighted>
-0.0000

> <Gold.Chemscore.Lipo.Weighted>
-9.7600

> <Gold.Chemscore.Internal_Hbond.Weighted>
0.0000

> <Gold.Chemscore.DEClash.Weighted>
0.0376

> <Gold.Chemscore.DEInternal.Weighted>
2.1527

> <Gold.Chemscore.Rot.Weighted>
8.5149

> <Gold.Chemscore.Internal.Correction.Weighted>
   9.000000E+99

> <Gold.Protein.RotatedTorsions>
[ 6907 6896 6895 6894 ] final  156.07 input  -60.11 | X-H torsion
[ 7974 7965 7964 7962 ] final  -59.53 input  175.53 | X-H torsion
[ 8008 7997 7996 7995 ] final  -19.12 input   59.86 | X-H torsion
[ 10167 10162 10161 10158 ] final   78.16 input  -65.29 | X-H torsion
[ 10718 10713 10712 10709 ] final  -34.36 input   66.30 | X-H torsion
[ 10763 10752 10751 10750 ] final   81.07 input  -60.55 | X-H torsion
[ 11005 11000 10999 10996 ] final  -26.79 input  -57.11 | X-H torsion

> <Gold.Protein.ActiveResidues>
 VAL166  LYS551  ARG553  GLY616  TRP617  ASP618  TYR619  PRO620  LYS621  CYS622 
 ASP623  PHE694  ASN695  SER759  ASP760  ASP761  ALA762  ILE779  LEU786  VAL792 
 PHE793  MET794  SER795  GLU796  ALA797  LYS798  CYS799  TRP800  GLU811  SER814 

> <Gold.Protein.RotatedAtoms>
  152.0350  133.3953  159.4312 H   0  0  0  0  0  0  0  0  0  0  0  0  # atno 6907 bound_to 6896
  150.6879  134.3478  159.4905 H   0  0  0  0  0  0  0  0  0  0  0  0  # atno 6908 bound_to 6896
  152.1269  134.9163  160.0611 H   0  0  0  0  0  0  0  0  0  0  0  0  # atno 6909 bound_to 6896
  145.8264  140.8507  143.0106 H   0  0  0  0  0  0  0  0  0  0  0  0  # atno 7974 bound_to 7965
  154.4858  140.2097  155.9658 H   0  0  0  0  0  0  0  0  0  0  0  0  # atno 8008 bound_to 7997
  156.1234  140.3209  155.8211 H   0  0  0  0  0  0  0  0  0  0  0  0  # atno 8009 bound_to 7997
  155.4427  140.0511  157.2999 H   0  0  0  0  0  0  0  0  0  0  0  0  # atno 8010 bound_to 7997
  139.9739  144.5875  150.7961 H   0  0  0  0  0  0  0  0  0  0  0  0  # atno 10167 bound_to 10162
  156.3515  130.4309  149.7700 H   0  0  0  0  0  0  0  0  0  0  0  0  # atno 10718 bound_to 10713
  153.1086  135.4779  154.8994 H   0  0  0  0  0  0  0  0  0  0  0  0  # atno 10763 bound_to 10752
  154.7456  135.3093  154.8653 H   0  0  0  0  0  0  0  0  0  0  0  0  # atno 10764 bound_to 10752
  153.9248  135.6851  153.4800 H   0  0  0  0  0  0  0  0  0  0  0  0  # atno 10765 bound_to 10752
  140.9061  133.7492  156.0608 H   0  0  0  0  0  0  0  0  0  0  0  0  # atno 11005 bound_to 11000
  144.6743  140.0608  143.7476 LP  0  0  0  0  0  0  0  0  0  0  0  0  # atno 17320 bound_to 7965
  145.9619  139.2806  143.1150 LP  0  0  0  0  0  0  0  0  0  0  0  0  # atno 17321 bound_to 7965
  140.7512  143.2969  151.3181 LP  0  0  0  0  0  0  0  0  0  0  0  0  # atno 17342 bound_to 10162
  139.6460  144.0450  152.2591 LP  0  0  0  0  0  0  0  0  0  0  0  0  # atno 17343 bound_to 10162
  156.4898  130.8080  151.3090 LP  0  0  0  0  0  0  0  0  0  0  0  0  # atno 17370 bound_to 10713
  157.7462  130.9979  150.2832 LP  0  0  0  0  0  0  0  0  0  0  0  0  # atno 17371 bound_to 10713
  140.8169  134.3334  157.5394 LP  0  0  0  0  0  0  0  0  0  0  0  0  # atno 17394 bound_to 11000
  139.8749  134.9287  156.3457 LP  0  0  0  0  0  0  0  0  0  0  0  0  # atno 17395 bound_to 11000

$$$$
