AV-unprocessed.smi:1794|AV-procd|sdf|7236|dock6
  -GOLD-   22720 8483D 1   1.00000     0.00000
 Structure written by MMmdl.
 55 57  0  0  0  0  0  0  0  0  4 V2000
  149.2845  134.6570  154.8451 C   0  0  0  0  0  0  0  0  0  0  0  0
  148.1262  133.7141  154.4049 C   0  0  0  0  0  0  0  0  0  0  0  0
  148.7864  132.3609  153.9888 C   0  0  0  0  0  0  0  0  0  0  0  0
  147.1127  133.4472  155.5767 C   0  0  0  0  0  0  0  0  0  0  0  0
  147.7368  132.7433  156.6996 N   0  5  0  0  0  0  0  0  0  0  0  0
  148.0720  133.3214  157.8826 C   0  0  0  0  0  0  0  0  0  0  0  0
  149.1934  133.6806  158.2593 O   0  0  0  0  0  0  0  0  0  0  0  0
  147.0068  133.4666  158.6886 N   0  0  0  0  0  0  0  0  0  0  0  0
  146.9560  133.9781  160.0151 C   0  0  0  0  0  0  0  0  0  0  0  0
  147.7923  135.0501  160.4171 C   0  0  0  0  0  0  0  0  0  0  0  0
  147.7349  135.5281  161.7397 C   0  0  0  0  0  0  0  0  0  0  0  0
  146.8362  134.9304  162.6395 C   0  0  0  0  0  0  0  0  0  0  0  0
  146.0372  133.9275  162.2201 N   0  3  0  0  0  0  0  0  0  0  0  0
  146.0348  133.4329  160.9563 C   0  0  0  0  0  0  0  0  0  0  0  0
  145.1300  132.3866  160.6620 N   0  0  0  0  0  0  0  0  0  0  0  0
  145.1642  131.1423  161.4211 C   0  0  0  0  0  0  0  0  0  0  0  0
  143.8715  130.4190  161.0533 C   0  0  0  0  0  0  0  0  0  0  0  0
  142.8878  131.5724  160.8784 C   0  0  0  0  0  0  0  0  0  0  0  0
  143.7504  132.7013  160.3041 C   0  0  0  0  0  0  0  0  0  0  0  0
  147.3410  134.3289  153.2606 N   0  3  0  0  0  0  0  0  0  0  0  0
  146.6134  133.3721  152.3685 C   0  0  0  0  0  0  0  0  0  0  0  0
  146.0741  134.0915  151.1238 C   0  0  0  0  0  0  0  0  0  0  0  0
  145.1876  135.1224  151.5321 O   0  0  0  0  0  0  0  0  0  0  0  0
  145.8528  136.1004  152.3176 C   0  0  0  0  0  0  0  0  0  0  0  0
  146.4293  135.4620  153.5945 C   0  0  0  0  0  0  0  0  0  0  0  0
  149.9369  134.1881  155.5843 H   0  0  0  0  0  0  0  0  0  0  0  0
  148.9412  135.5960  155.2834 H   0  0  0  0  0  0  0  0  0  0  0  0
  149.9203  134.9103  153.9961 H   0  0  0  0  0  0  0  0  0  0  0  0
  149.3389  131.8903  154.8048 H   0  0  0  0  0  0  0  0  0  0  0  0
  149.5266  132.5023  153.2008 H   0  0  0  0  0  0  0  0  0  0  0  0
  148.0618  131.6265  153.6308 H   0  0  0  0  0  0  0  0  0  0  0  0
  146.6915  134.3993  155.9008 H   0  0  0  0  0  0  0  0  0  0  0  0
  146.2665  132.8829  155.1826 H   0  0  0  0  0  0  0  0  0  0  0  0
  146.1520  133.0524  158.3474 H   0  0  0  0  0  0  0  0  0  0  0  0
  148.4763  135.5166  159.7238 H   0  0  0  0  0  0  0  0  0  0  0  0
  148.3727  136.3402  162.0573 H   0  0  0  0  0  0  0  0  0  0  0  0
  146.7251  135.2272  163.6723 H   0  0  0  0  0  0  0  0  0  0  0  0
  146.0448  130.5483  161.1739 H   0  0  0  0  0  0  0  0  0  0  0  0
  145.1769  131.3509  162.4918 H   0  0  0  0  0  0  0  0  0  0  0  0
  143.9957  129.8897  160.1073 H   0  0  0  0  0  0  0  0  0  0  0  0
  143.5574  129.6975  161.8083 H   0  0  0  0  0  0  0  0  0  0  0  0
  142.0422  131.3186  160.2386 H   0  0  0  0  0  0  0  0  0  0  0  0
  142.4954  131.8695  161.8519 H   0  0  0  0  0  0  0  0  0  0  0  0
  143.4368  133.6733  160.6876 H   0  0  0  0  0  0  0  0  0  0  0  0
  143.6655  132.7191  159.2168 H   0  0  0  0  0  0  0  0  0  0  0  0
  147.2580  132.5556  152.0441 H   0  0  0  0  0  0  0  0  0  0  0  0
  145.7764  132.9216  152.9033 H   0  0  0  0  0  0  0  0  0  0  0  0
  146.8875  134.4998  150.5218 H   0  0  0  0  0  0  0  0  0  0  0  0
  145.5293  133.3901  150.4917 H   0  0  0  0  0  0  0  0  0  0  0  0
  146.6421  136.5752  151.7326 H   0  0  0  0  0  0  0  0  0  0  0  0
  145.1407  136.8831  152.5799 H   0  0  0  0  0  0  0  0  0  0  0  0
  145.6231  135.1072  154.2383 H   0  0  0  0  0  0  0  0  0  0  0  0
  146.9501  136.2561  154.1268 H   0  0  0  0  0  0  0  0  0  0  0  0
  148.0552  134.7465  152.6809 H   0  0  0  0  0  0  0  0  0  0  0  0
  145.3881  133.5211  162.8936 H   0  0  0  0  0  0  0  0  0  0  0  0
  1  2  1  0  0  0  0
  1 26  1  0  0  0  0
  1 27  1  0  0  0  0
  1 28  1  0  0  0  0
  2  3  1  0  0  0  0
  2  4  1  0  0  0  0
  2 20  1  0  0  0  0
  3 29  1  0  0  0  0
  3 30  1  0  0  0  0
  3 31  1  0  0  0  0
  4  5  1  0  0  0  0
  4 32  1  0  0  0  0
  4 33  1  0  0  0  0
  5  6  1  0  0  0  0
  6  7  2  0  0  0  0
  6  8  1  0  0  0  0
  8  9  1  0  0  0  0
  8 34  1  0  0  0  0
  9 14  1  0  0  0  0
  9 10  2  0  0  0  0
 10 11  1  0  0  0  0
 10 35  1  0  0  0  0
 11 12  2  0  0  0  0
 11 36  1  0  0  0  0
 12 13  1  0  0  0  0
 12 37  1  0  0  0  0
 13 14  2  0  0  0  0
 13 55  1  0  0  0  0
 14 15  1  0  0  0  0
 15 19  1  0  0  0  0
 15 16  1  0  0  0  0
 16 17  1  0  0  0  0
 16 38  1  0  0  0  0
 16 39  1  0  0  0  0
 17 18  1  0  0  0  0
 17 40  1  0  0  0  0
 17 41  1  0  0  0  0
 18 19  1  0  0  0  0
 18 42  1  0  0  0  0
 18 43  1  0  0  0  0
 19 44  1  0  0  0  0
 19 45  1  0  0  0  0
 20 25  1  0  0  0  0
 20 21  1  0  0  0  0
 20 54  1  0  0  0  0
 21 22  1  0  0  0  0
 21 46  1  0  0  0  0
 21 47  1  0  0  0  0
 22 23  1  0  0  0  0
 22 48  1  0  0  0  0
 22 49  1  0  0  0  0
 23 24  1  0  0  0  0
 24 25  1  0  0  0  0
 24 50  1  0  0  0  0
 24 51  1  0  0  0  0
 25 52  1  0  0  0  0
 25 53  1  0  0  0  0
M  CHG  1   5  -1
M  CHG  1  13   1
M  CHG  1  20   1
M  END
> <s_m_source_file>
AV-unprocessed.smi

> <i_m_source_file_index>
1794

> <i_lp_mmshare_version>
43012

> <i_f3d_flags>
0

> <s_epik_input>
W0NIMl0xW0NIMl1PW0NIMl1bQ0gyXU4xQyhbQ0gzXSkoW0NIM10pW0NIMl1bTkhdQyg9TylbTkhdYzJbY0hdW2NIXVtjSF1uYzJOM1tDSDJdW0NIMl1bQ0gyXVtDSDJdMw==

> <s_epik_cmdline>
J2VwaWtfcHl0aG9uJywgJy1waCcsICc3LjAnLCAnLXRuJywgJzgnLCAnLW1hJywgJzIwMCcsICctbWV0YWxfYmluZGluZycsICctaW1hZScsICc8aW5maWxlLm1hZT4nLCAnLW9tYWUnLCAnPG91dGZpbGUubWFlPic=

> <r_lp_tautomer_probability>
0.999994

> <r_epik_Ionization_Penalty>
8.57565

> <r_epik_Ionization_Penalty_Charging>
8.57565

> <r_epik_Ionization_Penalty_Neutral>
3.55275e-06

> <r_epik_State_Penalty>
8.56988

> <r_epik_Charging_Adjusted_Penalty>
17.1455

> <i_epik_Tot_Q>
1

> <i_epik_Tot_abs_Q>
3

> <r_epik_Metal_State_Penalty>
4.56715

> <b_epik_Metal_Only>
1

> <s_lp_Force_Field>
OPLS_2005

> <r_lp_Energy>
59.2957

> <b_lp_Chiralities_Consistent>
1

> <s_lp_Variant>
AV-unprocessed.smi:1794-5

> <Gold.Version>
5.8.1

> <Gold.Id.Protein>
6NUR|6NUR_protein|mol2

> <Gold.PLP.Fitness>
37.8665

> <Gold.PLP.PLP>
-32.0998

> <Gold.PLP.part.hbond>
-2.0000

> <Gold.PLP.part.metal>
0.0000

> <Gold.PLP.part.buried>
-3.7593

> <Gold.PLP.part.nonpolar>
-25.9257

> <Gold.PLP.part.repulsive>
0.2525

> <Gold.PLP.ligand.clash>
0.0000

> <Gold.PLP.ligand.torsion>
1.9211

> <Gold.PLP.Chemscore.Hbond>
3.0000

> <Gold.PLP.Chemscore.CHOScore>
0.0000

> <Gold.PLP.Chemscore.Metal>
0.0000

> <Gold.Chemscore.Hbonds>
donor molecule, donor type, donor heavy atom, donor atom, acceptor molecule, acceptor atom, score
      L1  H    20    54       P1  7948  2.00
      P1  H  6896  6909       L1     7  1.00

> <Gold.PLP.Chemscore.Internal.Correction>
0.6089

> <Gold.Rescore>
     Score         DG    S(hbond)    S(metal)    S(lipo)     H(rot)  DE(clash)    DE(int)     intcor
     13.84     -16.42       1.98        0.00      72.05       1.60       0.00       2.58       ----

> <Gold.Chemscore.Fitness>
13.8421

> <Gold.Chemscore.DG>
-16.4187

> <Gold.Chemscore.ZeroCoef>
-5.4800

> <Gold.Chemscore.Hbond>
1.9809

> <Gold.Chemscore.Metal>
0.0000

> <Gold.Chemscore.Lipo>
72.0488

> <Gold.Chemscore.Internal_Hbond>
0.0000

> <Gold.Chemscore.DEClash>
0.0000

> <Gold.Chemscore.DEInternal>
2.5766

> <Gold.Chemscore.Rot>
1.6044

> <Gold.Chemscore.Internal.Correction>
   9.000000E+99

> <Gold.Chemscore.Hbonds>
donor molecule, donor type, donor heavy atom, donor atom, acceptor molecule, acceptor atom, score
      L1  H    20    54       P1  7948  0.69
      P1  H  6896  6909       L1     7  1.00

> <Gold.Chemscore.Hbond.Weighted>
-6.6162

> <Gold.Chemscore.Metal.Weighted>
-0.0000

> <Gold.Chemscore.Lipo.Weighted>
-8.4297

> <Gold.Chemscore.Internal_Hbond.Weighted>
0.0000

> <Gold.Chemscore.DEClash.Weighted>
0.0000

> <Gold.Chemscore.DEInternal.Weighted>
2.5766

> <Gold.Chemscore.Rot.Weighted>
4.1072

> <Gold.Chemscore.Internal.Correction.Weighted>
   9.000000E+99

> <Gold.Protein.RotatedTorsions>
[ 6907 6896 6895 6894 ] final    1.07 input  -60.11 | X-H torsion
[ 7974 7965 7964 7962 ] final  174.75 input  175.53 | X-H torsion
[ 8008 7997 7996 7995 ] final  135.68 input   59.86 | X-H torsion
[ 10167 10162 10161 10158 ] final   94.44 input  -65.29 | X-H torsion
[ 10718 10713 10712 10709 ] final   29.79 input   66.30 | X-H torsion
[ 10763 10752 10751 10750 ] final -100.50 input  -60.55 | X-H torsion
[ 11005 11000 10999 10996 ] final  -15.68 input  -57.11 | X-H torsion

> <Gold.Protein.ActiveResidues>
 VAL166  LYS551  ARG553  GLY616  TRP617  ASP618  TYR619  PRO620  LYS621  CYS622 
 ASP623  PHE694  ASN695  SER759  ASP760  ASP761  ALA762  ILE779  LEU786  VAL792 
 PHE793  MET794  SER795  GLU796  ALA797  LYS798  CYS799  TRP800  GLU811  SER814 

> <Gold.Protein.RotatedAtoms>
  151.5867  135.1055  160.0029 H   0  0  0  0  0  0  0  0  0  0  0  0  # atno 6907 bound_to 6896
  152.4327  133.7302  159.6593 H   0  0  0  0  0  0  0  0  0  0  0  0  # atno 6908 bound_to 6896
  150.8221  133.8164  159.3157 H   0  0  0  0  0  0  0  0  0  0  0  0  # atno 6909 bound_to 6896
  144.7215  139.9844  143.6439 H   0  0  0  0  0  0  0  0  0  0  0  0  # atno 7974 bound_to 7965
  156.3003  140.2464  156.3621 H   0  0  0  0  0  0  0  0  0  0  0  0  # atno 8008 bound_to 7997
  154.8868  140.0410  157.1834 H   0  0  0  0  0  0  0  0  0  0  0  0  # atno 8009 bound_to 7997
  154.8639  140.2925  155.5526 H   0  0  0  0  0  0  0  0  0  0  0  0  # atno 8010 bound_to 7997
  139.8084  144.6784  150.9673 H   0  0  0  0  0  0  0  0  0  0  0  0  # atno 10167 bound_to 10162
  157.2512  130.7116  149.6406 H   0  0  0  0  0  0  0  0  0  0  0  0  # atno 10718 bound_to 10713
  154.7584  135.4933  153.9418 H   0  0  0  0  0  0  0  0  0  0  0  0  # atno 10763 bound_to 10752
  153.1222  135.6734  153.9324 H   0  0  0  0  0  0  0  0  0  0  0  0  # atno 10764 bound_to 10752
  153.9052  135.3105  155.3427 H   0  0  0  0  0  0  0  0  0  0  0  0  # atno 10765 bound_to 10752
  140.7991  133.8228  155.9452 H   0  0  0  0  0  0  0  0  0  0  0  0  # atno 11005 bound_to 11000
  146.0462  139.3467  143.0667 LP  0  0  0  0  0  0  0  0  0  0  0  0  # atno 17320 bound_to 7965
  145.8273  140.9649  143.0867 LP  0  0  0  0  0  0  0  0  0  0  0  0  # atno 17321 bound_to 7965
  140.7818  143.4210  151.0841 LP  0  0  0  0  0  0  0  0  0  0  0  0  # atno 17342 bound_to 10162
  139.7878  143.8262  152.3147 LP  0  0  0  0  0  0  0  0  0  0  0  0  # atno 17343 bound_to 10162
  155.9666  130.4427  150.5391 LP  0  0  0  0  0  0  0  0  0  0  0  0  # atno 17370 bound_to 10713
  157.3276  131.0693  151.1885 LP  0  0  0  0  0  0  0  0  0  0  0  0  # atno 17371 bound_to 10713
  140.9313  134.2018  157.4862 LP  0  0  0  0  0  0  0  0  0  0  0  0  # atno 17394 bound_to 11000
  139.8723  134.9834  156.5195 LP  0  0  0  0  0  0  0  0  0  0  0  0  # atno 17395 bound_to 11000

$$$$
