AV-unprocessed.smi:1428|AV-procd|sdf|5813|dock2
  -GOLD-   22720 5463D 1   1.00000     0.00000
 Structure written by MMmdl.
 43 44  0  0  0  0  0  0  0  0  1 V2000
  152.0558  138.6890  154.7478 C   0  0  0  0  0  0  0  0  0  0  0  0
  150.7645  138.3581  154.2486 O   0  0  0  0  0  0  0  0  0  0  0  0
  149.8137  139.3575  154.1645 C   0  0  0  0  0  0  0  0  0  0  0  0
  150.2029  140.6383  154.3852 N   0  0  0  0  0  0  0  0  0  0  0  0
  149.2772  141.6155  154.2987 C   0  0  0  0  0  0  0  0  0  0  0  0
  147.9277  141.3724  153.9847 C   0  0  0  0  0  0  0  0  0  0  0  0
  147.5213  140.0448  153.7550 C   0  0  0  0  0  0  0  0  0  0  0  0
  148.4786  139.0062  153.8564 C   0  0  0  0  0  0  0  0  0  0  0  0
  148.1817  137.6350  153.6229 N   0  0  0  0  0  0  0  0  0  0  0  0
  147.0276  137.0862  153.2078 C   0  0  0  0  0  0  0  0  0  0  0  0
  145.9827  137.7008  152.9937 O   0  0  0  0  0  0  0  0  0  0  0  0
  147.1469  135.7584  153.0681 N   0  0  0  0  0  0  0  0  0  0  0  0
  146.0812  134.8591  152.6362 C   0  0  0  0  0  0  0  0  0  0  0  0
  146.6801  133.5202  152.1834 C   0  0  0  0  0  0  0  0  0  0  0  0
  145.5963  132.5949  151.6038 C   0  0  0  0  0  0  0  0  0  0  0  0
  144.9206  133.2368  150.4711 N   0  0  0  0  0  0  0  0  0  0  0  0
  143.9774  132.2741  149.8559 C   0  0  0  0  0  0  0  0  0  0  0  0
  143.3241  132.7572  148.5554 C   0  0  0  0  0  0  0  0  0  0  0  0
  142.0961  132.3056  148.2870 N   0  0  0  0  0  0  0  0  0  0  0  0
  143.9176  133.5325  147.8093 O   0  0  0  0  0  0  0  0  0  0  0  0
  144.2547  134.4713  150.9127 C   0  0  0  0  0  0  0  0  0  0  0  0
  145.2840  135.4694  151.4711 C   0  0  0  0  0  0  0  0  0  0  0  0
  152.6831  137.7980  154.7433 H   0  0  0  0  0  0  0  0  0  0  0  0
  152.0044  139.0523  155.7752 H   0  0  0  0  0  0  0  0  0  0  0  0
  152.5448  139.4398  154.1253 H   0  0  0  0  0  0  0  0  0  0  0  0
  149.6244  142.6222  154.4789 H   0  0  0  0  0  0  0  0  0  0  0  0
  147.2214  142.1865  153.9160 H   0  0  0  0  0  0  0  0  0  0  0  0
  146.4926  139.8537  153.4919 H   0  0  0  0  0  0  0  0  0  0  0  0
  148.9245  136.9900  153.8500 H   0  0  0  0  0  0  0  0  0  0  0  0
  148.0423  135.3380  153.2702 H   0  0  0  0  0  0  0  0  0  0  0  0
  145.4067  134.6702  153.4736 H   0  0  0  0  0  0  0  0  0  0  0  0
  147.4511  133.6902  151.4298 H   0  0  0  0  0  0  0  0  0  0  0  0
  147.1725  133.0292  153.0235 H   0  0  0  0  0  0  0  0  0  0  0  0
  146.0665  131.6669  151.2757 H   0  0  0  0  0  0  0  0  0  0  0  0
  144.8738  132.3279  152.3774 H   0  0  0  0  0  0  0  0  0  0  0  0
  144.5026  131.3458  149.6263 H   0  0  0  0  0  0  0  0  0  0  0  0
  143.1947  132.0170  150.5725 H   0  0  0  0  0  0  0  0  0  0  0  0
  141.6253  132.6034  147.4448 H   0  0  0  0  0  0  0  0  0  0  0  0
  141.6413  131.6743  148.9303 H   0  0  0  0  0  0  0  0  0  0  0  0
  143.7352  134.9528  150.0844 H   0  0  0  0  0  0  0  0  0  0  0  0
  143.4998  134.2435  151.6674 H   0  0  0  0  0  0  0  0  0  0  0  0
  144.7721  136.3751  151.7984 H   0  0  0  0  0  0  0  0  0  0  0  0
  145.9635  135.7710  150.6723 H   0  0  0  0  0  0  0  0  0  0  0  0
  1  2  1  0  0  0  0
  1 23  1  0  0  0  0
  1 24  1  0  0  0  0
  1 25  1  0  0  0  0
  2  3  1  0  0  0  0
  3  8  1  0  0  0  0
  3  4  2  0  0  0  0
  4  5  1  0  0  0  0
  5  6  2  0  0  0  0
  5 26  1  0  0  0  0
  6  7  1  0  0  0  0
  6 27  1  0  0  0  0
  7  8  2  0  0  0  0
  7 28  1  0  0  0  0
  8  9  1  0  0  0  0
  9 10  1  0  0  0  0
  9 29  1  0  0  0  0
 10 11  2  0  0  0  0
 10 12  1  0  0  0  0
 12 13  1  0  0  0  0
 12 30  1  0  0  0  0
 13 22  1  0  0  0  0
 13 14  1  0  0  0  0
 13 31  1  0  0  0  0
 14 15  1  0  0  0  0
 14 32  1  0  0  0  0
 14 33  1  0  0  0  0
 15 16  1  0  0  0  0
 15 34  1  0  0  0  0
 15 35  1  0  0  0  0
 16 17  1  0  0  0  0
 16 21  1  0  0  0  0
 17 18  1  0  0  0  0
 17 36  1  0  0  0  0
 17 37  1  0  0  0  0
 18 19  1  0  0  0  0
 18 20  2  0  0  0  0
 19 38  1  0  0  0  0
 19 39  1  0  0  0  0
 21 22  1  0  0  0  0
 21 40  1  0  0  0  0
 21 41  1  0  0  0  0
 22 42  1  0  0  0  0
 22 43  1  0  0  0  0
M  END
> <s_m_source_file>
AV-unprocessed.smi

> <i_m_source_file_index>
1428

> <i_lp_mmshare_version>
43012

> <i_f3d_flags>
0

> <s_epik_input>
W0NIM11PYzFuW2NIXVtjSF1bY0hdYzFbTkhdQyg9TylbTkhdW0NIXTJbQ0gyXVtDSDJdTihbQ0gyXVtDSDJdMilbQ0gyXUMoPU8pW05IMl0=

> <s_epik_cmdline>
J2VwaWtfcHl0aG9uJywgJy1waCcsICc3LjAnLCAnLXRuJywgJzgnLCAnLW1hJywgJzIwMCcsICctbWV0YWxfYmluZGluZycsICctaW1hZScsICc8aW5maWxlLm1hZT4nLCAnLW9tYWUnLCAnPG91dGZpbGUubWFlPic=

> <r_lp_tautomer_probability>
1

> <r_epik_Ionization_Penalty>
0.16483

> <r_epik_Ionization_Penalty_Charging>
0

> <r_epik_Ionization_Penalty_Neutral>
0.16483

> <r_epik_State_Penalty>
0.154069

> <r_epik_Charging_Adjusted_Penalty>
0.154069

> <i_epik_Tot_Q>
0

> <i_epik_Tot_abs_Q>
0

> <r_epik_Metal_State_Penalty>
0.171364

> <b_epik_Metal_Only>
0

> <s_lp_Force_Field>
OPLS_2005

> <r_lp_Energy>
13.8311

> <b_lp_Chiralities_Consistent>
1

> <s_lp_Variant>
AV-unprocessed.smi:1428-1

> <Gold.Version>
5.8.1

> <Gold.Id.Protein>
6NUR|6NUR_protein|mol2

> <Gold.PLP.Fitness>
48.1262

> <Gold.PLP.PLP>
-35.7438

> <Gold.PLP.part.hbond>
-6.1156

> <Gold.PLP.part.metal>
0.0000

> <Gold.PLP.part.buried>
-3.0022

> <Gold.PLP.part.nonpolar>
-32.1885

> <Gold.PLP.part.repulsive>
5.8640

> <Gold.PLP.ligand.clash>
0.0000

> <Gold.PLP.ligand.torsion>
0.7146

> <Gold.PLP.Chemscore.Hbond>
3.6000

> <Gold.PLP.Chemscore.CHOScore>
1.0000

> <Gold.PLP.Chemscore.Metal>
0.0000

> <Gold.Chemscore.Hbonds>
donor molecule, donor type, donor heavy atom, donor atom, acceptor molecule, acceptor atom, score
      L1  H    19    38       P1 10195  0.98
      L1  H    19    39       P1 10952  1.00
      P1  H  7918  7932       L1    20  0.51
      P1  H  7989  7998       L1     4  0.82
      L1  C     5    26       P1  8028  1.00

> <Gold.PLP.Chemscore.Internal.Correction>
0.0117

> <Gold.Rescore>
     Score         DG    S(hbond)    S(metal)    S(lipo)     H(rot)  DE(clash)    DE(int)     intcor
      5.84     -12.58       1.33        0.00      72.90       2.29       3.50       3.23       ----

> <Gold.Chemscore.Fitness>
5.8415

> <Gold.Chemscore.DG>
-12.5770

> <Gold.Chemscore.ZeroCoef>
-5.4800

> <Gold.Chemscore.Hbond>
1.3301

> <Gold.Chemscore.Metal>
0.0000

> <Gold.Chemscore.Lipo>
72.9023

> <Gold.Chemscore.Internal_Hbond>
0.0000

> <Gold.Chemscore.DEClash>
3.5034

> <Gold.Chemscore.DEInternal>
3.2321

> <Gold.Chemscore.Rot>
2.2949

> <Gold.Chemscore.Internal.Correction>
   9.000000E+99

> <Gold.Chemscore.Hbonds>
donor molecule, donor type, donor heavy atom, donor atom, acceptor molecule, acceptor atom, score
      L1  H     9    29       P1  7948  0.01
      L1  H    12    30       P1  7948  0.02
      L1  H    19    38       P1 10195  0.78
      L1  H    19    39       P1 10952  1.00
      P1  H  7918  7932       L1    20  0.52
      P1  H  7989  7998       L1     4  0.44

> <Gold.Chemscore.Hbond.Weighted>
-4.4425

> <Gold.Chemscore.Metal.Weighted>
-0.0000

> <Gold.Chemscore.Lipo.Weighted>
-8.5296

> <Gold.Chemscore.Internal_Hbond.Weighted>
0.0000

> <Gold.Chemscore.DEClash.Weighted>
3.5034

> <Gold.Chemscore.DEInternal.Weighted>
3.2321

> <Gold.Chemscore.Rot.Weighted>
5.8750

> <Gold.Chemscore.Internal.Correction.Weighted>
   9.000000E+99

> <Gold.Protein.RotatedTorsions>
[ 6907 6896 6895 6894 ] final  -49.33 input  -60.11 | X-H torsion
[ 7974 7965 7964 7962 ] final  -94.96 input  175.53 | X-H torsion
[ 8008 7997 7996 7995 ] final  163.26 input   59.86 | X-H torsion
[ 10167 10162 10161 10158 ] final -100.10 input  -65.29 | X-H torsion
[ 10718 10713 10712 10709 ] final  113.99 input   66.30 | X-H torsion
[ 10763 10752 10751 10750 ] final  158.39 input  -60.55 | X-H torsion
[ 11005 11000 10999 10996 ] final   63.85 input  -57.11 | X-H torsion

> <Gold.Protein.ActiveResidues>
 VAL166  LYS551  ARG553  GLY616  TRP617  ASP618  TYR619  PRO620  LYS621  CYS622 
 ASP623  PHE694  ASN695  SER759  ASP760  ASP761  ALA762  ILE779  LEU786  VAL792 
 PHE793  MET794  SER795  GLU796  ALA797  LYS798  CYS799  TRP800  GLU811  SER814 

> <Gold.Protein.RotatedAtoms>
  150.8816  134.8207  159.7228 H   0  0  0  0  0  0  0  0  0  0  0  0  # atno 6907 bound_to 6896
  152.4781  134.4788  159.9669 H   0  0  0  0  0  0  0  0  0  0  0  0  # atno 6908 bound_to 6896
  151.4862  133.3496  159.2881 H   0  0  0  0  0  0  0  0  0  0  0  0  # atno 6909 bound_to 6896
  145.3663  140.9499  143.2472 H   0  0  0  0  0  0  0  0  0  0  0  0  # atno 7974 bound_to 7965
  156.1970  140.1728  156.7977 H   0  0  0  0  0  0  0  0  0  0  0  0  # atno 8008 bound_to 7997
  154.5542  140.0711  156.8748 H   0  0  0  0  0  0  0  0  0  0  0  0  # atno 8009 bound_to 7997
  155.2970  140.3359  155.4252 H   0  0  0  0  0  0  0  0  0  0  0  0  # atno 8010 bound_to 7997
  140.2554  143.3443  152.0675 H   0  0  0  0  0  0  0  0  0  0  0  0  # atno 10167 bound_to 10162
  157.6307  131.0992  150.7121 H   0  0  0  0  0  0  0  0  0  0  0  0  # atno 10718 bound_to 10713
  154.2154  135.2784  155.2944 H   0  0  0  0  0  0  0  0  0  0  0  0  # atno 10763 bound_to 10752
  154.5745  135.5608  153.7130 H   0  0  0  0  0  0  0  0  0  0  0  0  # atno 10764 bound_to 10752
  153.0054  135.6329  154.2293 H   0  0  0  0  0  0  0  0  0  0  0  0  # atno 10765 bound_to 10752
  139.9998  134.6461  155.9950 H   0  0  0  0  0  0  0  0  0  0  0  0  # atno 11005 bound_to 11000
  144.8609  139.5179  143.6813 LP  0  0  0  0  0  0  0  0  0  0  0  0  # atno 17320 bound_to 7965
  146.2905  139.7125  142.9164 LP  0  0  0  0  0  0  0  0  0  0  0  0  # atno 17321 bound_to 7965
  139.5033  144.6752  151.6145 LP  0  0  0  0  0  0  0  0  0  0  0  0  # atno 17342 bound_to 10162
  140.6008  143.9614  150.6385 LP  0  0  0  0  0  0  0  0  0  0  0  0  # atno 17343 bound_to 10162
  156.7461  130.4754  149.5466 LP  0  0  0  0  0  0  0  0  0  0  0  0  # atno 17370 bound_to 10713
  156.1508  130.6308  151.0593 LP  0  0  0  0  0  0  0  0  0  0  0  0  # atno 17371 bound_to 10713
  141.1633  133.6538  156.4391 LP  0  0  0  0  0  0  0  0  0  0  0  0  # atno 17394 bound_to 11000
  140.4750  134.6718  157.5146 LP  0  0  0  0  0  0  0  0  0  0  0  0  # atno 17395 bound_to 11000

$$$$
