AV-unprocessed.smi:645|AV-procd|sdf|3160|dock4
  -GOLD-   22720 0 83D 1   1.00000     0.00000
 Structure written by MMmdl.
 23 24  0  0  0  0  0  0  0  0  1 V2000
  145.7962  135.4333  154.3157 C   0  0  0  0  0  0  0  0  0  0  0  0
  145.4933  135.7206  152.8312 C   0  0  2  0  0  0  0  0  0  0  0  0
  145.2253  134.4374  152.0290 C   0  0  0  0  0  0  0  0  0  0  0  0
  146.2326  133.4687  151.7986 C   0  0  0  0  0  0  0  0  0  0  0  0
  145.9114  132.3125  151.0598 C   0  0  0  0  0  0  0  0  0  0  0  0
  144.6845  132.0703  150.5540 N   0  0  0  0  0  0  0  0  0  0  0  0
  143.7231  132.9908  150.7734 C   0  0  0  0  0  0  0  0  0  0  0  0
  143.9397  134.1785  151.4991 C   0  0  0  0  0  0  0  0  0  0  0  0
  146.5455  136.5558  152.2655 N   0  0  0  0  0  0  0  0  0  0  0  0
  146.0955  137.7337  151.8134 C   0  0  0  0  0  0  0  0  0  0  0  0
  146.7702  138.6050  151.2703 O   0  0  0  0  0  0  0  0  0  0  0  0
  144.7856  137.7961  152.0669 N   0  0  0  0  0  0  0  0  0  0  0  0
  144.3325  136.7002  152.6733 C   0  0  0  0  0  0  0  0  0  0  0  0
  143.1804  136.4997  153.0557 O   0  0  0  0  0  0  0  0  0  0  0  0
  144.9722  134.9166  154.8084 H   0  0  0  0  0  0  0  0  0  0  0  0
  145.9783  136.3536  154.8729 H   0  0  0  0  0  0  0  0  0  0  0  0
  146.6839  134.8083  154.4181 H   0  0  0  0  0  0  0  0  0  0  0  0
  147.2383  133.5906  152.1716 H   0  0  0  0  0  0  0  0  0  0  0  0
  146.6630  131.5602  150.8710 H   0  0  0  0  0  0  0  0  0  0  0  0
  142.7500  132.7754  150.3580 H   0  0  0  0  0  0  0  0  0  0  0  0
  143.1286  134.8779  151.6373 H   0  0  0  0  0  0  0  0  0  0  0  0
  147.5055  136.2508  152.1988 H   0  0  0  0  0  0  0  0  0  0  0  0
  144.2071  138.5915  151.8392 H   0  0  0  0  0  0  0  0  0  0  0  0
  1  2  1  0  0  0  0
  1 15  1  0  0  0  0
  1 16  1  0  0  0  0
  1 17  1  0  0  0  0
  2 13  1  0  0  0  0
  2  3  1  0  0  0  0
  2  9  1  0  0  0  0
  3  8  1  0  0  0  0
  3  4  2  0  0  0  0
  4  5  1  0  0  0  0
  4 18  1  0  0  0  0
  5  6  2  0  0  0  0
  5 19  1  0  0  0  0
  6  7  1  0  0  0  0
  7  8  2  0  0  0  0
  7 20  1  0  0  0  0
  8 21  1  0  0  0  0
  9 10  1  0  0  0  0
  9 22  1  0  0  0  0
 10 11  2  0  0  0  0
 10 12  1  0  0  0  0
 12 13  1  0  0  0  0
 12 23  1  0  0  0  0
 13 14  2  0  0  0  0
M  END
> <s_m_source_file>
AV-unprocessed.smi

> <i_m_source_file_index>
645

> <i_lp_mmshare_version>
43012

> <i_f3d_flags>
0

> <s_epik_input>
Tz1DMVtOSF1DKD1PKVtOSF1bQ0BAXTEoW0NIM10pYzJbY0hdW2NIXW5bY0hdW2NIXTI=

> <s_epik_cmdline>
J2VwaWtfcHl0aG9uJywgJy1waCcsICc3LjAnLCAnLXRuJywgJzgnLCAnLW1hJywgJzIwMCcsICctbWV0YWxfYmluZGluZycsICctaW1hZScsICc8aW5maWxlLm1hZT4nLCAnLW9tYWUnLCAnPG91dGZpbGUubWFlPic=

> <r_lp_tautomer_probability>
1

> <r_epik_Ionization_Penalty>
0.0327402

> <r_epik_Ionization_Penalty_Charging>
0

> <r_epik_Ionization_Penalty_Neutral>
0.0327402

> <r_epik_State_Penalty>
0.022996

> <r_epik_Charging_Adjusted_Penalty>
0.022996

> <i_epik_Tot_Q>
0

> <i_epik_Tot_abs_Q>
0

> <r_epik_Metal_State_Penalty>
0.426243

> <b_epik_Metal_Only>
0

> <s_lp_Force_Field>
OPLS_2005

> <r_lp_Energy>
18.0362

> <b_lp_Chiralities_Consistent>
1

> <s_lp_Variant>
AV-unprocessed.smi:645-2

> <Gold.Version>
5.8.1

> <Gold.Id.Protein>
6NUR|6NUR_protein|mol2

> <Gold.PLP.Fitness>
35.3726

> <Gold.PLP.PLP>
-21.5587

> <Gold.PLP.part.hbond>
-3.5241

> <Gold.PLP.part.metal>
0.0000

> <Gold.PLP.part.buried>
-4.1667

> <Gold.PLP.part.nonpolar>
-15.5258

> <Gold.PLP.part.repulsive>
0.9098

> <Gold.PLP.ligand.clash>
0.0000

> <Gold.PLP.ligand.torsion>
0.1775

> <Gold.PLP.Chemscore.Hbond>
2.7189

> <Gold.PLP.Chemscore.CHOScore>
1.9645

> <Gold.PLP.Chemscore.Metal>
0.0000

> <Gold.Chemscore.Hbonds>
donor molecule, donor type, donor heavy atom, donor atom, acceptor molecule, acceptor atom, score
      L1  H     9    22       P1  7948  0.84
      L1  H    12    23       P1 10175  0.90
      P1  H  7954  7966       L1    11  0.86
      L1  C     5    19       P1 10747  1.00
      L1  C     7    20       P1 10186  0.97

> <Gold.PLP.Chemscore.Internal.Correction>
0.1187

> <Gold.Rescore>
     Score         DG    S(hbond)    S(metal)    S(lipo)     H(rot)  DE(clash)    DE(int)     intcor
     14.25     -16.00       2.73        0.00      33.94       1.00       0.29       1.46       ----

> <Gold.Chemscore.Fitness>
14.2460

> <Gold.Chemscore.DG>
-16.0046

> <Gold.Chemscore.ZeroCoef>
-5.4800

> <Gold.Chemscore.Hbond>
2.7285

> <Gold.Chemscore.Metal>
0.0000

> <Gold.Chemscore.Lipo>
33.9441

> <Gold.Chemscore.Internal_Hbond>
0.0000

> <Gold.Chemscore.DEClash>
0.2950

> <Gold.Chemscore.DEInternal>
1.4636

> <Gold.Chemscore.Rot>
1.0000

> <Gold.Chemscore.Internal.Correction>
   9.000000E+99

> <Gold.Chemscore.Hbonds>
donor molecule, donor type, donor heavy atom, donor atom, acceptor molecule, acceptor atom, score
      L1  H     9    22       P1  7948  0.84
      L1  H    12    23       P1 10175  0.83
      P1  H  7954  7966       L1    11  0.74

> <Gold.Chemscore.Hbond.Weighted>
-9.1132

> <Gold.Chemscore.Metal.Weighted>
-0.0000

> <Gold.Chemscore.Lipo.Weighted>
-3.9715

> <Gold.Chemscore.Internal_Hbond.Weighted>
0.0000

> <Gold.Chemscore.DEClash.Weighted>
0.2950

> <Gold.Chemscore.DEInternal.Weighted>
1.4636

> <Gold.Chemscore.Rot.Weighted>
2.5600

> <Gold.Chemscore.Internal.Correction.Weighted>
   9.000000E+99

> <Gold.Protein.RotatedTorsions>
[ 6907 6896 6895 6894 ] final -178.95 input  -60.11 | X-H torsion
[ 7974 7965 7964 7962 ] final    3.15 input  175.53 | X-H torsion
[ 8008 7997 7996 7995 ] final -178.18 input   59.86 | X-H torsion
[ 10167 10162 10161 10158 ] final   88.10 input  -65.29 | X-H torsion
[ 10718 10713 10712 10709 ] final   71.64 input   66.30 | X-H torsion
[ 10763 10752 10751 10750 ] final  136.22 input  -60.55 | X-H torsion
[ 11005 11000 10999 10996 ] final -134.44 input  -57.11 | X-H torsion

> <Gold.Protein.ActiveResidues>
 VAL166  LYS551  ARG553  GLY616  TRP617  ASP618  TYR619  PRO620  LYS621  CYS622 
 ASP623  PHE694  ASN695  SER759  ASP760  ASP761  ALA762  ILE779  LEU786  VAL792 
 PHE793  MET794  SER795  GLU796  ALA797  LYS798  CYS799  TRP800  GLU811  SER814 

> <Gold.Protein.RotatedAtoms>
  151.6455  133.3323  159.3139 H   0  0  0  0  0  0  0  0  0  0  0  0  # atno 6907 bound_to 6896
  150.7986  134.7068  159.6590 H   0  0  0  0  0  0  0  0  0  0  0  0  # atno 6908 bound_to 6896
  152.4076  134.6184  160.0096 H   0  0  0  0  0  0  0  0  0  0  0  0  # atno 6909 bound_to 6896
  146.2445  140.0729  142.8361 H   0  0  0  0  0  0  0  0  0  0  0  0  # atno 7974 bound_to 7965
  156.0158  140.1250  157.0408 H   0  0  0  0  0  0  0  0  0  0  0  0  # atno 8008 bound_to 7997
  154.4292  140.1078  156.5963 H   0  0  0  0  0  0  0  0  0  0  0  0  # atno 8009 bound_to 7997
  155.6015  140.3470  155.4597 H   0  0  0  0  0  0  0  0  0  0  0  0  # atno 8010 bound_to 7997
  139.8706  144.6495  150.8953 H   0  0  0  0  0  0  0  0  0  0  0  0  # atno 10167 bound_to 10162
  157.6461  130.9538  150.0817 H   0  0  0  0  0  0  0  0  0  0  0  0  # atno 10718 bound_to 10713
  153.8529  135.3077  155.3433 H   0  0  0  0  0  0  0  0  0  0  0  0  # atno 10763 bound_to 10752
  154.7883  135.4797  153.9998 H   0  0  0  0  0  0  0  0  0  0  0  0  # atno 10764 bound_to 10752
  153.1507  135.6842  153.8980 H   0  0  0  0  0  0  0  0  0  0  0  0  # atno 10765 bound_to 10752
  140.8990  134.1715  157.4474 H   0  0  0  0  0  0  0  0  0  0  0  0  # atno 11005 bound_to 11000
  145.0800  140.9214  143.4831 LP  0  0  0  0  0  0  0  0  0  0  0  0  # atno 17320 bound_to 7965
  145.0880  139.2911  143.5749 LP  0  0  0  0  0  0  0  0  0  0  0  0  # atno 17321 bound_to 7965
  140.7761  143.3667  151.1726 LP  0  0  0  0  0  0  0  0  0  0  0  0  # atno 17342 bound_to 10162
  139.7287  143.9107  152.3012 LP  0  0  0  0  0  0  0  0  0  0  0  0  # atno 17343 bound_to 10162
  156.1791  130.3649  149.9059 LP  0  0  0  0  0  0  0  0  0  0  0  0  # atno 17370 bound_to 10713
  156.7016  130.8935  151.3600 LP  0  0  0  0  0  0  0  0  0  0  0  0  # atno 17371 bound_to 10713
  139.8739  134.9890  156.5438 LP  0  0  0  0  0  0  0  0  0  0  0  0  # atno 17394 bound_to 11000
  140.8253  133.8321  155.8934 LP  0  0  0  0  0  0  0  0  0  0  0  0  # atno 17395 bound_to 11000

$$$$
