AV-unprocessed.smi:1962|AV-procd|sdf|7922|dock5
  -GOLD-   2272010 93D 1   1.00000     0.00000
 Structure written by MMmdl.
 36 37  0  0  0  0  0  0  0  0  1 V2000
  144.7938  134.9992  153.1462 C   0  0  0  0  0  0  0  0  0  0  0  0
  145.5196  135.6980  151.9886 C   0  0  2  0  0  0  0  0  0  0  0  0
  146.1744  134.6760  151.0355 C   0  0  0  0  0  0  0  0  0  0  0  0
  145.3440  133.5042  150.8169 N   0  0  0  0  0  0  0  0  0  0  0  0
  145.7166  132.1765  150.8258 C   0  0  0  0  0  0  0  0  0  0  0  0
  144.5929  131.4379  150.5897 C   0  0  0  0  0  0  0  0  0  0  0  0
  143.5694  132.4159  150.4452 C   0  0  0  0  0  0  0  0  0  0  0  0
  144.0224  133.6518  150.5779 N   0  0  0  0  0  0  0  0  0  0  0  0
  146.5215  136.6105  152.5375 N   0  0  0  0  0  0  0  0  0  0  0  0
  146.2702  137.6978  153.2909 C   0  0  0  0  0  0  0  0  0  0  0  0
  145.1357  138.0283  153.6375 O   0  0  0  0  0  0  0  0  0  0  0  0
  147.4553  138.5089  153.6763 C   0  0  0  0  0  0  0  0  0  0  0  0
  148.5438  137.9233  154.0675 N   0  0  0  0  0  0  0  0  0  0  0  0
  149.6738  138.6347  154.4161 N   0  0  0  0  0  0  0  0  0  0  0  0
  150.8847  137.8295  154.5621 C   0  0  0  0  0  0  0  0  0  0  0  0
  149.7042  139.9717  154.6417 C   0  0  0  0  0  0  0  0  0  0  0  0
  150.7251  140.5930  154.9367 O   0  0  0  0  0  0  0  0  0  0  0  0
  148.3664  140.7106  154.5438 C   0  0  0  0  0  0  0  0  0  0  0  0
  147.3887  140.0199  153.5723 C   0  0  0  0  0  0  0  0  0  0  0  0
  144.0211  134.3257  152.7750 H   0  0  0  0  0  0  0  0  0  0  0  0
  144.3099  135.7246  153.8011 H   0  0  0  0  0  0  0  0  0  0  0  0
  145.4845  134.4115  153.7520 H   0  0  0  0  0  0  0  0  0  0  0  0
  144.7686  136.2603  151.4309 H   0  0  0  0  0  0  0  0  0  0  0  0
  146.4028  135.1392  150.0740 H   0  0  0  0  0  0  0  0  0  0  0  0
  147.1247  134.3366  151.4492 H   0  0  0  0  0  0  0  0  0  0  0  0
  146.7375  131.8720  151.0037 H   0  0  0  0  0  0  0  0  0  0  0  0
  144.5133  130.3625  150.5314 H   0  0  0  0  0  0  0  0  0  0  0  0
  142.5182  132.2658  150.2484 H   0  0  0  0  0  0  0  0  0  0  0  0
  147.4845  136.4220  152.2983 H   0  0  0  0  0  0  0  0  0  0  0  0
  151.2927  137.9253  155.5694 H   0  0  0  0  0  0  0  0  0  0  0  0
  151.6469  138.1528  153.8515 H   0  0  0  0  0  0  0  0  0  0  0  0
  150.6962  136.7697  154.3826 H   0  0  0  0  0  0  0  0  0  0  0  0
  147.9327  140.7362  155.5440 H   0  0  0  0  0  0  0  0  0  0  0  0
  148.5301  141.7466  154.2453 H   0  0  0  0  0  0  0  0  0  0  0  0
  147.6091  140.3188  152.5469 H   0  0  0  0  0  0  0  0  0  0  0  0
  146.3805  140.3769  153.7866 H   0  0  0  0  0  0  0  0  0  0  0  0
  1  2  1  0  0  0  0
  1 20  1  0  0  0  0
  1 21  1  0  0  0  0
  1 22  1  0  0  0  0
  2  3  1  0  0  0  0
  2  9  1  0  0  0  0
  2 23  1  0  0  0  0
  3  4  1  0  0  0  0
  3 24  1  0  0  0  0
  3 25  1  0  0  0  0
  4  8  1  0  0  0  0
  4  5  1  0  0  0  0
  5  6  2  0  0  0  0
  5 26  1  0  0  0  0
  6  7  1  0  0  0  0
  6 27  1  0  0  0  0
  7  8  2  0  0  0  0
  7 28  1  0  0  0  0
  9 10  1  0  0  0  0
  9 29  1  0  0  0  0
 10 11  2  0  0  0  0
 10 12  1  0  0  0  0
 12 19  1  0  0  0  0
 12 13  2  0  0  0  0
 13 14  1  0  0  0  0
 14 15  1  0  0  0  0
 14 16  1  0  0  0  0
 15 30  1  0  0  0  0
 15 31  1  0  0  0  0
 15 32  1  0  0  0  0
 16 17  2  0  0  0  0
 16 18  1  0  0  0  0
 18 19  1  0  0  0  0
 18 33  1  0  0  0  0
 18 34  1  0  0  0  0
 19 35  1  0  0  0  0
 19 36  1  0  0  0  0
M  END
> <s_m_source_file>
AV-unprocessed.smi

> <i_m_source_file_index>
1962

> <i_lp_mmshare_version>
43012

> <i_f3d_flags>
0

> <s_epik_input>
bjFbY0hdW2NIXVtjSF1uMVtDSDJdW0NAQEhdKFtDSDNdKVtOSF1DKD1PKUMyPU5OKFtDSDNdKUMoPU8pW0NIMl1bQ0gyXTI=

> <s_epik_cmdline>
J2VwaWtfcHl0aG9uJywgJy1waCcsICc3LjAnLCAnLXRuJywgJzgnLCAnLW1hJywgJzIwMCcsICctbWV0YWxfYmluZGluZycsICctaW1hZScsICc8aW5maWxlLm1hZT4nLCAnLW9tYWUnLCAnPG91dGZpbGUubWFlPic=

> <r_lp_tautomer_probability>
1

> <r_epik_Ionization_Penalty>
9.43868e-05

> <r_epik_Ionization_Penalty_Charging>
0

> <r_epik_Ionization_Penalty_Neutral>
9.43868e-05

> <r_epik_State_Penalty>
-0

> <r_epik_Charging_Adjusted_Penalty>
0

> <i_epik_Tot_Q>
0

> <i_epik_Tot_abs_Q>
0

> <r_epik_Metal_State_Penalty>
0.0732556

> <b_epik_Metal_Only>
0

> <s_epik_Chemistry_Notes>
This compound has an imine and may undergo hydrolysis.

> <s_lp_Force_Field>
OPLS_2005

> <r_lp_Energy>
16.0967

> <b_lp_Chiralities_Consistent>
1

> <s_lp_Variant>
AV-unprocessed.smi:1962-1

> <Gold.Version>
5.8.1

> <Gold.Id.Protein>
6NUR|6NUR_protein|mol2

> <Gold.PLP.Fitness>
39.0591

> <Gold.PLP.PLP>
-28.7829

> <Gold.PLP.part.hbond>
-2.0000

> <Gold.PLP.part.metal>
0.0000

> <Gold.PLP.part.buried>
-5.2299

> <Gold.PLP.part.nonpolar>
-25.4357

> <Gold.PLP.part.repulsive>
3.6700

> <Gold.PLP.ligand.clash>
0.0000

> <Gold.PLP.ligand.torsion>
1.1119

> <Gold.PLP.Chemscore.Hbond>
1.9920

> <Gold.PLP.Chemscore.CHOScore>
2.1550

> <Gold.PLP.Chemscore.Metal>
0.0000

> <Gold.Chemscore.Hbonds>
donor molecule, donor type, donor heavy atom, donor atom, acceptor molecule, acceptor atom, score
      L1  H     9    29       P1  7948  1.00
      P1  H  7989  7998       L1    17  0.98
      L1  C     5    26       P1 10747  0.92
      L1  C     7    28       P1 10186  0.42
      L1  C     7    28       P1 10952  0.72

> <Gold.PLP.Chemscore.Internal.Correction>
0.0590

> <Gold.Rescore>
     Score         DG    S(hbond)    S(metal)    S(lipo)     H(rot)  DE(clash)    DE(int)     intcor
     13.48     -15.33       1.83        0.00      65.36       1.53       0.76       1.09       ----

> <Gold.Chemscore.Fitness>
13.4776

> <Gold.Chemscore.DG>
-15.3322

> <Gold.Chemscore.ZeroCoef>
-5.4800

> <Gold.Chemscore.Hbond>
1.8294

> <Gold.Chemscore.Metal>
0.0000

> <Gold.Chemscore.Lipo>
65.3582

> <Gold.Chemscore.Internal_Hbond>
0.0000

> <Gold.Chemscore.DEClash>
0.7647

> <Gold.Chemscore.DEInternal>
1.0899

> <Gold.Chemscore.Rot>
1.5254

> <Gold.Chemscore.Internal.Correction>
   9.000000E+99

> <Gold.Chemscore.Hbonds>
donor molecule, donor type, donor heavy atom, donor atom, acceptor molecule, acceptor atom, score
      L1  H     9    29       P1  7948  0.93
      P1  H  7989  7998       L1    17  0.65

> <Gold.Chemscore.Hbond.Weighted>
-6.1103

> <Gold.Chemscore.Metal.Weighted>
-0.0000

> <Gold.Chemscore.Lipo.Weighted>
-7.6469

> <Gold.Chemscore.Internal_Hbond.Weighted>
0.0000

> <Gold.Chemscore.DEClash.Weighted>
0.7647

> <Gold.Chemscore.DEInternal.Weighted>
1.0899

> <Gold.Chemscore.Rot.Weighted>
3.9051

> <Gold.Chemscore.Internal.Correction.Weighted>
   9.000000E+99

> <Gold.Protein.RotatedTorsions>
[ 6907 6896 6895 6894 ] final   57.65 input  -60.11 | X-H torsion
[ 7974 7965 7964 7962 ] final -170.42 input  175.53 | X-H torsion
[ 8008 7997 7996 7995 ] final  -54.63 input   59.86 | X-H torsion
[ 10167 10162 10161 10158 ] final  -42.00 input  -65.29 | X-H torsion
[ 10718 10713 10712 10709 ] final -140.46 input   66.30 | X-H torsion
[ 10763 10752 10751 10750 ] final -175.62 input  -60.55 | X-H torsion
[ 11005 11000 10999 10996 ] final   65.04 input  -57.11 | X-H torsion

> <Gold.Protein.ActiveResidues>
 VAL166  LYS551  ARG553  GLY616  TRP617  ASP618  TYR619  PRO620  LYS621  CYS622 
 ASP623  PHE694  ASN695  SER759  ASP760  ASP761  ALA762  ILE779  LEU786  VAL792 
 PHE793  MET794  SER795  GLU796  ALA797  LYS798  CYS799  TRP800  GLU811  SER814 

> <Gold.Protein.RotatedAtoms>
  152.3751  134.6675  160.0162 H   0  0  0  0  0  0  0  0  0  0  0  0  # atno 6907 bound_to 6896
  151.6956  133.3305  159.3261 H   0  0  0  0  0  0  0  0  0  0  0  0  # atno 6908 bound_to 6896
  150.7703  134.6596  159.6377 H   0  0  0  0  0  0  0  0  0  0  0  0  # atno 6909 bound_to 6896
  144.7170  140.2075  143.6331 H   0  0  0  0  0  0  0  0  0  0  0  0  # atno 7974 bound_to 7965
  154.4169  140.1172  156.5347 H   0  0  0  0  0  0  0  0  0  0  0  0  # atno 8008 bound_to 7997
  155.6570  140.3496  155.4749 H   0  0  0  0  0  0  0  0  0  0  0  0  # atno 8009 bound_to 7997
  155.9745  140.1148  157.0772 H   0  0  0  0  0  0  0  0  0  0  0  0  # atno 8010 bound_to 7997
  140.6984  143.3062  151.3146 H   0  0  0  0  0  0  0  0  0  0  0  0  # atno 10167 bound_to 10162
  156.3225  130.7542  151.1643 H   0  0  0  0  0  0  0  0  0  0  0  0  # atno 10718 bound_to 10713
  154.5821  135.2837  155.0721 H   0  0  0  0  0  0  0  0  0  0  0  0  # atno 10763 bound_to 10752
  154.2054  135.6417  153.5103 H   0  0  0  0  0  0  0  0  0  0  0  0  # atno 10764 bound_to 10752
  153.0092  135.5479  154.6479 H   0  0  0  0  0  0  0  0  0  0  0  0  # atno 10765 bound_to 10752
  139.9920  134.6577  156.0075 H   0  0  0  0  0  0  0  0  0  0  0  0  # atno 11005 bound_to 11000
  145.8622  139.2228  143.1710 LP  0  0  0  0  0  0  0  0  0  0  0  0  # atno 17320 bound_to 7965
  146.0163  140.8389  142.9946 LP  0  0  0  0  0  0  0  0  0  0  0  0  # atno 17321 bound_to 7965
  139.6469  144.0434  152.2597 LP  0  0  0  0  0  0  0  0  0  0  0  0  # atno 17342 bound_to 10162
  139.9958  144.6329  150.7773 LP  0  0  0  0  0  0  0  0  0  0  0  0  # atno 17343 bound_to 10162
  157.7415  131.0503  150.5095 LP  0  0  0  0  0  0  0  0  0  0  0  0  # atno 17370 bound_to 10713
  156.5249  130.4171  149.6231 LP  0  0  0  0  0  0  0  0  0  0  0  0  # atno 17371 bound_to 10713
  141.1573  133.6541  156.4204 LP  0  0  0  0  0  0  0  0  0  0  0  0  # atno 17394 bound_to 11000
  140.4891  134.6592  157.5203 LP  0  0  0  0  0  0  0  0  0  0  0  0  # atno 17395 bound_to 11000

$$$$
