AV-unprocessed.smi:2489|AV-procd|sdf|9803|dock3
  -GOLD-   2272013433D 1   1.00000     0.00000
 Structure written by MMmdl.
 34 35  0  0  0  0  0  0  0  0  2 V2000
  153.5742  142.2386  161.2833 C   0  0  0  0  0  0  0  0  0  0  0  0
  153.4395  141.7668  159.9505 O   0  0  0  0  0  0  0  0  0  0  0  0
  152.6058  142.4580  159.0980 C   0  0  0  0  0  0  0  0  0  0  0  0
  152.4538  143.8415  159.3247 C   0  0  0  0  0  0  0  0  0  0  0  0
  151.6075  144.5956  158.4909 C   0  0  0  0  0  0  0  0  0  0  0  0
  150.9527  143.9921  157.4772 N   0  3  0  0  0  0  0  0  0  0  0  0
  151.0647  142.6744  157.1962 C   0  0  0  0  0  0  0  0  0  0  0  0
  150.2998  142.1811  156.1053 N   0  0  0  0  0  0  0  0  0  0  0  0
  150.3354  140.9624  155.5340 C   0  0  0  0  0  0  0  0  0  0  0  0
  151.0726  140.0449  155.8952 O   0  0  0  0  0  0  0  0  0  0  0  0
  149.3720  140.7456  154.3589 C   0  0  2  0  0  0  0  0  0  0  0  0
  148.3219  141.8489  154.1862 C   0  0  0  0  0  0  0  0  0  0  0  0
  147.1820  141.0905  153.5450 C   0  0  0  0  0  0  0  0  0  0  0  0
  147.2467  139.7549  154.2815 C   0  0  1  0  0  0  0  0  0  0  0  0
  146.6606  138.5775  153.4951 C   0  0  0  0  0  0  0  0  0  0  0  0
  148.6299  139.5387  154.5493 O   0  0  0  0  0  0  0  0  0  0  0  0
  151.8933  141.8702  158.0201 C   0  0  0  0  0  0  0  0  0  0  0  0
  154.2494  141.5812  161.8309 H   0  0  0  0  0  0  0  0  0  0  0  0
  152.6169  142.2370  161.8063 H   0  0  0  0  0  0  0  0  0  0  0  0
  153.9993  143.2427  161.3097 H   0  0  0  0  0  0  0  0  0  0  0  0
  152.9803  144.3202  160.1375 H   0  0  0  0  0  0  0  0  0  0  0  0
  151.4357  145.6562  158.6038 H   0  0  0  0  0  0  0  0  0  0  0  0
  149.7007  142.8558  155.6518 H   0  0  0  0  0  0  0  0  0  0  0  0
  149.9491  140.6404  153.4392 H   0  0  0  0  0  0  0  0  0  0  0  0
  148.0036  142.2541  155.1484 H   0  0  0  0  0  0  0  0  0  0  0  0
  148.6751  142.6743  153.5672 H   0  0  0  0  0  0  0  0  0  0  0  0
  146.2194  141.5913  153.6535 H   0  0  0  0  0  0  0  0  0  0  0  0
  147.3789  140.9545  152.4805 H   0  0  0  0  0  0  0  0  0  0  0  0
  146.7367  139.8508  155.2412 H   0  0  0  0  0  0  0  0  0  0  0  0
  145.6073  138.7441  153.2683 H   0  0  0  0  0  0  0  0  0  0  0  0
  146.7358  137.6520  154.0663 H   0  0  0  0  0  0  0  0  0  0  0  0
  147.1877  138.4303  152.5520 H   0  0  0  0  0  0  0  0  0  0  0  0
  151.9698  140.8113  157.8352 H   0  0  0  0  0  0  0  0  0  0  0  0
  150.3461  144.5651  156.8899 H   0  0  0  0  0  0  0  0  0  0  0  0
  1  2  1  0  0  0  0
  1 18  1  0  0  0  0
  1 19  1  0  0  0  0
  1 20  1  0  0  0  0
  2  3  1  0  0  0  0
  3 17  1  0  0  0  0
  3  4  2  0  0  0  0
  4  5  1  0  0  0  0
  4 21  1  0  0  0  0
  5  6  2  0  0  0  0
  5 22  1  0  0  0  0
  6  7  1  0  0  0  0
  6 34  1  0  0  0  0
  7  8  1  0  0  0  0
  7 17  2  0  0  0  0
  8  9  1  0  0  0  0
  8 23  1  0  0  0  0
  9 10  2  0  0  0  0
  9 11  1  0  0  0  0
 11 16  1  0  0  0  0
 11 12  1  0  0  0  0
 11 24  1  0  0  0  0
 12 13  1  0  0  0  0
 12 25  1  0  0  0  0
 12 26  1  0  0  0  0
 13 14  1  0  0  0  0
 13 27  1  0  0  0  0
 13 28  1  0  0  0  0
 14 15  1  0  0  0  0
 14 16  1  0  0  0  0
 14 29  1  0  0  0  0
 15 30  1  0  0  0  0
 15 31  1  0  0  0  0
 15 32  1  0  0  0  0
 17 33  1  0  0  0  0
M  CHG  1   6   1
M  END
> <s_m_source_file>
AV-unprocessed.smi

> <i_m_source_file_index>
2489

> <i_lp_mmshare_version>
43012

> <i_f3d_flags>
0

> <s_epik_input>
W0NIM11PYzFbY0hdW2NIXW5jKFtjSF0xKVtOSF1DKD1PKVtDQEBIXTJbQ0gyXVtDSDJdW0NASF0oTzIpW0NIM10=

> <s_epik_cmdline>
J2VwaWtfcHl0aG9uJywgJy1waCcsICc3LjAnLCAnLXRuJywgJzgnLCAnLW1hJywgJzIwMCcsICctbWV0YWxfYmluZGluZycsICctaW1hZScsICc8aW5maWxlLm1hZT4nLCAnLW9tYWUnLCAnPG91dGZpbGUubWFlPic=

> <r_epik_Ionization_Penalty>
1.58956

> <r_epik_Ionization_Penalty_Charging>
1.1784

> <r_epik_Ionization_Penalty_Neutral>
0.411158

> <r_epik_State_Penalty>
1.31089

> <r_epik_Charging_Adjusted_Penalty>
2.48928

> <i_epik_Tot_Q>
1

> <i_epik_Tot_abs_Q>
1

> <r_epik_Metal_State_Penalty>
5.00213

> <b_epik_Metal_Only>
0

> <s_lp_Force_Field>
OPLS_2005

> <r_lp_Energy>
32.4976

> <b_lp_Chiralities_Consistent>
1

> <s_lp_Variant>
AV-unprocessed.smi:2489-9

> <Gold.Version>
5.8.1

> <Gold.Id.Protein>
6NUR|6NUR_protein|mol2

> <Gold.PLP.Fitness>
45.3852

> <Gold.PLP.PLP>
-37.7221

> <Gold.PLP.part.hbond>
-2.0000

> <Gold.PLP.part.metal>
0.0000

> <Gold.PLP.part.buried>
-4.5492

> <Gold.PLP.part.nonpolar>
-31.5155

> <Gold.PLP.part.repulsive>
0.2302

> <Gold.PLP.ligand.clash>
0.0000

> <Gold.PLP.ligand.torsion>
0.6107

> <Gold.PLP.Chemscore.Hbond>
2.9600

> <Gold.PLP.Chemscore.CHOScore>
0.0000

> <Gold.PLP.Chemscore.Metal>
0.0000

> <Gold.Chemscore.Hbonds>
donor molecule, donor type, donor heavy atom, donor atom, acceptor molecule, acceptor atom, score
      L1  H     6    34       P1  8028  2.00
      L1  H     8    23       P1  8028  0.95

> <Gold.PLP.Chemscore.Internal.Correction>
0.0045

> <Gold.Rescore>
     Score         DG    S(hbond)    S(metal)    S(lipo)     H(rot)  DE(clash)    DE(int)     intcor
     16.54     -18.29       1.68        0.00      88.68       1.24       0.01       1.74       ----

> <Gold.Chemscore.Fitness>
16.5394

> <Gold.Chemscore.DG>
-18.2931

> <Gold.Chemscore.ZeroCoef>
-5.4800

> <Gold.Chemscore.Hbond>
1.6807

> <Gold.Chemscore.Metal>
0.0000

> <Gold.Chemscore.Lipo>
88.6841

> <Gold.Chemscore.Internal_Hbond>
0.0000

> <Gold.Chemscore.DEClash>
0.0106

> <Gold.Chemscore.DEInternal>
1.7431

> <Gold.Chemscore.Rot>
1.2409

> <Gold.Chemscore.Internal.Correction>
   9.000000E+99

> <Gold.Chemscore.Hbonds>
donor molecule, donor type, donor heavy atom, donor atom, acceptor molecule, acceptor atom, score
      L1  H     6    34       P1  8028  0.79
      L1  H     8    23       P1  8028  0.85

> <Gold.Chemscore.Hbond.Weighted>
-5.6137

> <Gold.Chemscore.Metal.Weighted>
-0.0000

> <Gold.Chemscore.Lipo.Weighted>
-10.3760

> <Gold.Chemscore.Internal_Hbond.Weighted>
0.0000

> <Gold.Chemscore.DEClash.Weighted>
0.0106

> <Gold.Chemscore.DEInternal.Weighted>
1.7431

> <Gold.Chemscore.Rot.Weighted>
3.1767

> <Gold.Chemscore.Internal.Correction.Weighted>
   9.000000E+99

> <Gold.Protein.RotatedTorsions>
[ 6907 6896 6895 6894 ] final  -52.82 input  -60.11 | X-H torsion
[ 7974 7965 7964 7962 ] final -107.22 input  175.53 | X-H torsion
[ 8008 7997 7996 7995 ] final -156.02 input   59.86 | X-H torsion
[ 10167 10162 10161 10158 ] final -161.50 input  -65.29 | X-H torsion
[ 10718 10713 10712 10709 ] final   16.94 input   66.30 | X-H torsion
[ 10763 10752 10751 10750 ] final   -8.79 input  -60.55 | X-H torsion
[ 11005 11000 10999 10996 ] final -136.02 input  -57.11 | X-H torsion

> <Gold.Protein.ActiveResidues>
 VAL166  LYS551  ARG553  GLY616  TRP617  ASP618  TYR619  PRO620  LYS621  CYS622 
 ASP623  PHE694  ASN695  SER759  ASP760  ASP761  ALA762  ILE779  LEU786  VAL792 
 PHE793  MET794  SER795  GLU796  ALA797  LYS798  CYS799  TRP800  GLU811  SER814 

> <Gold.Protein.RotatedAtoms>
  150.8483  134.7799  159.6987 H   0  0  0  0  0  0  0  0  0  0  0  0  # atno 6907 bound_to 6896
  152.4554  134.5300  159.9818 H   0  0  0  0  0  0  0  0  0  0  0  0  # atno 6908 bound_to 6896
  151.5426  133.3392  159.2974 H   0  0  0  0  0  0  0  0  0  0  0  0  # atno 6909 bound_to 6896
  145.2081  140.9085  143.3330 H   0  0  0  0  0  0  0  0  0  0  0  0  # atno 7974 bound_to 7965
  155.7108  140.0778  157.2372 H   0  0  0  0  0  0  0  0  0  0  0  0  # atno 8008 bound_to 7997
  154.4059  140.1630  156.2347 H   0  0  0  0  0  0  0  0  0  0  0  0  # atno 8009 bound_to 7997
  155.9285  140.3393  155.6232 H   0  0  0  0  0  0  0  0  0  0  0  0  # atno 8010 bound_to 7997
  139.6461  144.0170  152.2128 H   0  0  0  0  0  0  0  0  0  0  0  0  # atno 10167 bound_to 10162
  157.0750  130.6364  149.5814 H   0  0  0  0  0  0  0  0  0  0  0  0  # atno 10718 bound_to 10713
  153.4455  135.7014  153.6141 H   0  0  0  0  0  0  0  0  0  0  0  0  # atno 10763 bound_to 10752
  153.4498  135.3761  155.2277 H   0  0  0  0  0  0  0  0  0  0  0  0  # atno 10764 bound_to 10752
  154.8728  135.3994  154.3860 H   0  0  0  0  0  0  0  0  0  0  0  0  # atno 10765 bound_to 10752
  140.8844  134.1891  157.4570 H   0  0  0  0  0  0  0  0  0  0  0  0  # atno 11005 bound_to 11000
  144.9882  139.3715  143.6228 LP  0  0  0  0  0  0  0  0  0  0  0  0  # atno 17320 bound_to 7965
  146.3403  139.9053  142.8788 LP  0  0  0  0  0  0  0  0  0  0  0  0  # atno 17321 bound_to 7965
  139.9872  144.6387  150.7847 LP  0  0  0  0  0  0  0  0  0  0  0  0  # atno 17342 bound_to 10162
  140.7515  143.2974  151.3170 LP  0  0  0  0  0  0  0  0  0  0  0  0  # atno 17343 bound_to 10162
  155.9939  130.5002  150.7401 LP  0  0  0  0  0  0  0  0  0  0  0  0  # atno 17370 bound_to 10713
  157.4847  131.0905  151.0496 LP  0  0  0  0  0  0  0  0  0  0  0  0  # atno 17371 bound_to 10713
  139.8723  134.9831  156.5184 LP  0  0  0  0  0  0  0  0  0  0  0  0  # atno 17394 bound_to 11000
  140.8423  133.8195  155.9087 LP  0  0  0  0  0  0  0  0  0  0  0  0  # atno 17395 bound_to 11000

$$$$
