AV-unprocessed.smi:558|AV-procd|sdf|2923|dock9
  -GOLD-   2262023413D 1   1.00000     0.00000
 Structure written by MMmdl.
 36 37  0  0  0  0  0  0  0  0  1 V2000
  153.4661  141.4524  162.2013 C   0  0  0  0  0  0  0  0  0  0  0  0
  152.8821  142.4758  161.2728 C   0  0  0  0  0  0  0  0  0  0  0  0
  152.4461  143.7958  161.5756 C   0  0  0  0  0  0  0  0  0  0  0  0
  152.0060  144.2893  160.3798 C   0  0  0  0  0  0  0  0  0  0  0  0
  151.4302  145.6276  160.0494 C   0  0  0  0  0  0  0  0  0  0  0  0
  152.1881  143.2880  159.4406 N   0  0  0  0  0  0  0  0  0  0  0  0
  151.8893  143.2922  158.0169 C   0  0  0  0  0  0  0  0  0  0  0  0
  150.9890  142.1162  157.6335 C   0  0  0  0  0  0  0  0  0  0  0  0
  151.1471  141.0199  158.1697 O   0  0  0  0  0  0  0  0  0  0  0  0
  150.0484  142.3597  156.7076 N   0  0  0  0  0  0  0  0  0  0  0  0
  149.0899  141.3868  156.1940 C   0  0  0  0  0  0  0  0  0  0  0  0
  149.7513  140.3939  155.2207 C   0  0  1  0  0  0  0  0  0  0  0  0
  150.8475  139.5587  155.8494 C   0  0  0  0  0  0  0  0  0  0  0  0
  150.9836  138.4129  154.8511 C   0  0  0  0  0  0  0  0  0  0  0  0
  149.6878  138.2315  154.2870 O   0  0  0  0  0  0  0  0  0  0  0  0
  148.8298  139.2986  154.6803 C   0  0  0  0  0  0  0  0  0  0  0  0
  152.7246  142.1782  159.9940 N   0  0  0  0  0  0  0  0  0  0  0  0
  153.4793  141.8150  163.2293 H   0  0  0  0  0  0  0  0  0  0  0  0
  154.4916  141.2097  161.9221 H   0  0  0  0  0  0  0  0  0  0  0  0
  152.8869  140.5290  162.1831 H   0  0  0  0  0  0  0  0  0  0  0  0
  152.4555  144.3042  162.5285 H   0  0  0  0  0  0  0  0  0  0  0  0
  151.2151  146.1918  160.9569 H   0  0  0  0  0  0  0  0  0  0  0  0
  150.4992  145.5301  159.4913 H   0  0  0  0  0  0  0  0  0  0  0  0
  152.1282  146.2128  159.4509 H   0  0  0  0  0  0  0  0  0  0  0  0
  151.3947  144.2292  157.7549 H   0  0  0  0  0  0  0  0  0  0  0  0
  152.8225  143.2633  157.4534 H   0  0  0  0  0  0  0  0  0  0  0  0
  149.9947  143.2926  156.3253 H   0  0  0  0  0  0  0  0  0  0  0  0
  148.6843  140.8431  157.0475 H   0  0  0  0  0  0  0  0  0  0  0  0
  148.2420  141.8851  155.7210 H   0  0  0  0  0  0  0  0  0  0  0  0
  150.1769  140.9411  154.3778 H   0  0  0  0  0  0  0  0  0  0  0  0
  151.7780  140.1087  155.9926 H   0  0  0  0  0  0  0  0  0  0  0  0
  150.5256  139.1734  156.8181 H   0  0  0  0  0  0  0  0  0  0  0  0
  151.6737  138.6858  154.0518 H   0  0  0  0  0  0  0  0  0  0  0  0
  151.3492  137.4969  155.3157 H   0  0  0  0  0  0  0  0  0  0  0  0
  148.1641  138.9324  155.4632 H   0  0  0  0  0  0  0  0  0  0  0  0
  148.2148  139.6412  153.8477 H   0  0  0  0  0  0  0  0  0  0  0  0
  1  2  1  0  0  0  0
  1 18  1  0  0  0  0
  1 19  1  0  0  0  0
  1 20  1  0  0  0  0
  2 17  2  0  0  0  0
  2  3  1  0  0  0  0
  3  4  2  0  0  0  0
  3 21  1  0  0  0  0
  4  5  1  0  0  0  0
  4  6  1  0  0  0  0
  5 22  1  0  0  0  0
  5 23  1  0  0  0  0
  5 24  1  0  0  0  0
  6  7  1  0  0  0  0
  6 17  1  0  0  0  0
  7  8  1  0  0  0  0
  7 25  1  0  0  0  0
  7 26  1  0  0  0  0
  8  9  2  0  0  0  0
  8 10  1  0  0  0  0
 10 11  1  0  0  0  0
 10 27  1  0  0  0  0
 11 12  1  0  0  0  0
 11 28  1  0  0  0  0
 11 29  1  0  0  0  0
 12 16  1  0  0  0  0
 12 13  1  0  0  0  0
 12 30  1  0  0  0  0
 13 14  1  0  0  0  0
 13 31  1  0  0  0  0
 13 32  1  0  0  0  0
 14 15  1  0  0  0  0
 14 33  1  0  0  0  0
 14 34  1  0  0  0  0
 15 16  1  0  0  0  0
 16 35  1  0  0  0  0
 16 36  1  0  0  0  0
M  END
> <s_m_source_file>
AV-unprocessed.smi

> <i_m_source_file_index>
558

> <i_lp_mmshare_version>
43012

> <i_f3d_flags>
0

> <s_epik_input>
W0NIM11jMVtjSF1jKFtDSDNdKW4objEpW0NIMl1DKD1PKVtOSF1bQ0gyXVtDQEBIXTJbQ0gyXVtDSDJdT1tDSDJdMg==

> <s_epik_cmdline>
J2VwaWtfcHl0aG9uJywgJy1waCcsICc3LjAnLCAnLXRuJywgJzgnLCAnLW1hJywgJzIwMCcsICctbWV0YWxfYmluZGluZycsICctaW1hZScsICc8aW5maWxlLm1hZT4nLCAnLW9tYWUnLCAnPG91dGZpbGUubWFlPic=

> <r_lp_tautomer_probability>
1

> <r_epik_Ionization_Penalty>
0.000376629

> <r_epik_Ionization_Penalty_Charging>
0

> <r_epik_Ionization_Penalty_Neutral>
0.000376629

> <r_epik_State_Penalty>
-0

> <r_epik_Charging_Adjusted_Penalty>
0

> <i_epik_Tot_Q>
0

> <i_epik_Tot_abs_Q>
0

> <r_epik_Metal_State_Penalty>
-0

> <b_epik_Metal_Only>
0

> <s_lp_Force_Field>
OPLS_2005

> <r_lp_Energy>
17.6381

> <b_lp_Chiralities_Consistent>
1

> <s_lp_Variant>
AV-unprocessed.smi:558-2

> <Gold.Version>
5.8.1

> <Gold.Id.Protein>
6NUR|6NUR_protein|mol2

> <Gold.PLP.Fitness>
45.0217

> <Gold.PLP.PLP>
-42.8899

> <Gold.PLP.part.hbond>
-1.0000

> <Gold.PLP.part.metal>
0.0000

> <Gold.PLP.part.buried>
-5.6774

> <Gold.PLP.part.nonpolar>
-36.4719

> <Gold.PLP.part.repulsive>
0.3178

> <Gold.PLP.ligand.clash>
0.0000

> <Gold.PLP.ligand.torsion>
0.4392

> <Gold.PLP.Chemscore.Hbond>
1.0000

> <Gold.PLP.Chemscore.CHOScore>
0.0000

> <Gold.PLP.Chemscore.Metal>
0.0000

> <Gold.Chemscore.Hbonds>
donor molecule, donor type, donor heavy atom, donor atom, acceptor molecule, acceptor atom, score
      L1  H    10    27       P1  8028  0.96

> <Gold.PLP.Chemscore.Internal.Correction>
0.0103

> <Gold.Rescore>
     Score         DG    S(hbond)    S(metal)    S(lipo)     H(rot)  DE(clash)    DE(int)     intcor
     13.23     -16.88       1.00        0.00     102.66       1.54       0.16       3.50       ----

> <Gold.Chemscore.Fitness>
13.2263

> <Gold.Chemscore.DG>
-16.8828

> <Gold.Chemscore.ZeroCoef>
-5.4800

> <Gold.Chemscore.Hbond>
0.9974

> <Gold.Chemscore.Metal>
0.0000

> <Gold.Chemscore.Lipo>
102.6560

> <Gold.Chemscore.Internal_Hbond>
0.0000

> <Gold.Chemscore.DEClash>
0.1559

> <Gold.Chemscore.DEInternal>
3.5006

> <Gold.Chemscore.Rot>
1.5387

> <Gold.Chemscore.Internal.Correction>
   9.000000E+99

> <Gold.Chemscore.Hbonds>
donor molecule, donor type, donor heavy atom, donor atom, acceptor molecule, acceptor atom, score
      L1  H    10    27       P1  8028  0.92

> <Gold.Chemscore.Hbond.Weighted>
-3.3312

> <Gold.Chemscore.Metal.Weighted>
-0.0000

> <Gold.Chemscore.Lipo.Weighted>
-12.0108

> <Gold.Chemscore.Internal_Hbond.Weighted>
0.0000

> <Gold.Chemscore.DEClash.Weighted>
0.1559

> <Gold.Chemscore.DEInternal.Weighted>
3.5006

> <Gold.Chemscore.Rot.Weighted>
3.9392

> <Gold.Chemscore.Internal.Correction.Weighted>
   9.000000E+99

> <Gold.Protein.RotatedTorsions>
[ 6907 6896 6895 6894 ] final  -54.64 input  -60.11 | X-H torsion
[ 7974 7965 7964 7962 ] final    2.28 input  175.53 | X-H torsion
[ 8008 7997 7996 7995 ] final -162.03 input   59.86 | X-H torsion
[ 10167 10162 10161 10158 ] final -175.76 input  -65.29 | X-H torsion
[ 10718 10713 10712 10709 ] final    2.61 input   66.30 | X-H torsion
[ 10763 10752 10751 10750 ] final  173.10 input  -60.55 | X-H torsion
[ 11005 11000 10999 10996 ] final   94.56 input  -57.11 | X-H torsion

> <Gold.Protein.ActiveResidues>
 VAL166  LYS551  ARG553  GLY616  TRP617  ASP618  TYR619  PRO620  LYS621  CYS622 
 ASP623  PHE694  ASN695  SER759  ASP760  ASP761  ALA762  ILE779  LEU786  VAL792 
 PHE793  MET794  SER795  GLU796  ALA797  LYS798  CYS799  TRP800  GLU811  SER814 

> <Gold.Protein.RotatedAtoms>
  150.8320  134.7577  159.6861 H   0  0  0  0  0  0  0  0  0  0  0  0  # atno 6907 bound_to 6896
  152.4423  134.5563  159.9891 H   0  0  0  0  0  0  0  0  0  0  0  0  # atno 6908 bound_to 6896
  151.5721  133.3351  159.3027 H   0  0  0  0  0  0  0  0  0  0  0  0  # atno 6909 bound_to 6896
  146.2443  140.0859  142.8354 H   0  0  0  0  0  0  0  0  0  0  0  0  # atno 7974 bound_to 7965
  155.8009  140.0891  157.1957 H   0  0  0  0  0  0  0  0  0  0  0  0  # atno 8008 bound_to 7997
  154.3982  140.1472  156.3332 H   0  0  0  0  0  0  0  0  0  0  0  0  # atno 8009 bound_to 7997
  155.8463  140.3436  155.5667 H   0  0  0  0  0  0  0  0  0  0  0  0  # atno 8010 bound_to 7997
  139.5564  144.1978  152.1166 H   0  0  0  0  0  0  0  0  0  0  0  0  # atno 10167 bound_to 10162
  156.8655  130.5602  149.5660 H   0  0  0  0  0  0  0  0  0  0  0  0  # atno 10718 bound_to 10713
  154.4354  135.2761  155.1884 H   0  0  0  0  0  0  0  0  0  0  0  0  # atno 10763 bound_to 10752
  154.3773  135.6095  153.5775 H   0  0  0  0  0  0  0  0  0  0  0  0  # atno 10764 bound_to 10752
  152.9838  135.5872  154.4672 H   0  0  0  0  0  0  0  0  0  0  0  0  # atno 10765 bound_to 10752
  139.8797  134.8852  156.3882 H   0  0  0  0  0  0  0  0  0  0  0  0  # atno 11005 bound_to 11000
  145.0692  140.9143  143.4892 LP  0  0  0  0  0  0  0  0  0  0  0  0  # atno 17320 bound_to 7965
  145.0990  139.2836  143.5696 LP  0  0  0  0  0  0  0  0  0  0  0  0  # atno 17321 bound_to 7965
  140.1483  144.5138  150.6702 LP  0  0  0  0  0  0  0  0  0  0  0  0  # atno 17342 bound_to 10162
  140.6837  143.2339  151.5316 LP  0  0  0  0  0  0  0  0  0  0  0  0  # atno 17343 bound_to 10162
  156.0754  130.5777  150.9463 LP  0  0  0  0  0  0  0  0  0  0  0  0  # atno 17370 bound_to 10713
  157.6225  131.0928  150.8595 LP  0  0  0  0  0  0  0  0  0  0  0  0  # atno 17371 bound_to 10713
  140.9351  133.7552  156.0075 LP  0  0  0  0  0  0  0  0  0  0  0  0  # atno 17394 bound_to 11000
  140.8285  134.3206  157.5357 LP  0  0  0  0  0  0  0  0  0  0  0  0  # atno 17395 bound_to 11000

$$$$
