AV-unprocessed.smi:247|AV-procd|sdf|1888|dock6
  -GOLD-   2262020543D 1   1.00000     0.00000
 Structure written by MMmdl.
 61 65  0  0  0  0  0  0  0  0  1 V2000
  147.9284  137.2549  163.2180 O   0  0  0  0  0  0  0  0  0  0  0  0
  148.0740  136.4690  162.0516 C   0  0  0  0  0  0  0  0  0  0  0  0
  146.8131  135.6266  161.7111 C   0  0  0  0  0  0  0  0  0  0  0  0
  146.7478  135.4413  160.1620 C   0  0  0  0  0  0  0  0  0  0  0  0
  147.0894  136.6232  159.3824 N   0  0  0  0  0  0  0  0  0  0  0  0
  146.2092  137.5114  158.8038 C   0  0  0  0  0  0  0  0  0  0  0  0
  146.7585  138.5037  158.1585 N   0  0  0  0  0  0  0  0  0  0  0  0
  148.1209  138.2958  158.3234 C   0  0  0  0  0  0  0  0  0  0  0  0
  149.2809  138.9939  157.9008 C   0  0  0  0  0  0  0  0  0  0  0  0
  149.1991  140.1284  157.1710 N   0  0  0  0  0  0  0  0  0  0  0  0
  148.5898  139.9693  155.8546 C   0  0  0  0  0  0  0  0  0  0  0  0
  149.3281  140.9263  154.9076 C   0  0  0  0  0  0  0  0  0  0  0  0
  150.1386  141.8296  155.8350 C   0  0  0  0  0  0  0  0  0  0  0  0
  150.4293  140.8969  157.0136 C   0  0  1  0  0  0  0  0  0  0  0  0
  150.9141  141.5657  158.3294 C   0  0  2  0  0  0  0  0  0  0  0  0
  150.3390  142.9855  158.5481 C   0  0  0  0  0  0  0  0  0  0  0  0
  150.7617  143.5025  159.8050 O   0  0  0  0  0  0  0  0  0  0  0  0
  152.1724  143.6669  159.8898 C   0  0  0  0  0  0  0  0  0  0  0  0
  152.8592  142.2999  159.7587 C   0  0  0  0  0  0  0  0  0  0  0  0
  152.4524  141.6161  158.4455 C   0  0  1  0  0  0  0  0  0  0  0  0
  153.0010  140.3132  158.4285 O   0  0  0  0  0  0  0  0  0  0  0  0
  150.4927  138.4944  158.2603 N   0  0  0  0  0  0  0  0  0  0  0  0
  150.5615  137.3791  158.9939 C   0  0  0  0  0  0  0  0  0  0  0  0
  149.5645  136.6242  159.4625 N   0  0  0  0  0  0  0  0  0  0  0  0
  148.3487  137.1240  159.0967 C   0  0  0  0  0  0  0  0  0  0  0  0
  146.8704  134.2693  162.4589 C   0  0  0  0  0  0  0  0  0  0  0  0
  145.5510  133.4847  162.3476 C   0  0  0  0  0  0  0  0  0  0  0  0
  144.4790  134.2722  162.8513 O   0  0  0  0  0  0  0  0  0  0  0  0
  144.2749  135.4722  162.1152 C   0  0  0  0  0  0  0  0  0  0  0  0
  145.5321  136.3611  162.1859 C   0  0  0  0  0  0  0  0  0  0  0  0
  147.0118  137.2874  163.4457 H   0  0  0  0  0  0  0  0  0  0  0  0
  148.3193  137.1365  161.2248 H   0  0  0  0  0  0  0  0  0  0  0  0
  148.9393  135.8248  162.2056 H   0  0  0  0  0  0  0  0  0  0  0  0
  147.4049  134.6396  159.8289 H   0  0  0  0  0  0  0  0  0  0  0  0
  145.7443  135.1279  159.8711 H   0  0  0  0  0  0  0  0  0  0  0  0
  145.1372  137.3974  158.8703 H   0  0  0  0  0  0  0  0  0  0  0  0
  148.6352  138.9422  155.4891 H   0  0  0  0  0  0  0  0  0  0  0  0
  147.5380  140.2464  155.9286 H   0  0  0  0  0  0  0  0  0  0  0  0
  150.0043  140.3574  154.2683 H   0  0  0  0  0  0  0  0  0  0  0  0
  148.6500  141.4855  154.2623 H   0  0  0  0  0  0  0  0  0  0  0  0
  151.0427  142.2146  155.3622 H   0  0  0  0  0  0  0  0  0  0  0  0
  149.5256  142.6777  156.1389 H   0  0  0  0  0  0  0  0  0  0  0  0
  151.2068  140.2057  156.6843 H   0  0  0  0  0  0  0  0  0  0  0  0
  150.5529  140.9511  159.1557 H   0  0  0  0  0  0  0  0  0  0  0  0
  150.6436  143.6712  157.7572 H   0  0  0  0  0  0  0  0  0  0  0  0
  149.2498  142.9636  158.5436 H   0  0  0  0  0  0  0  0  0  0  0  0
  152.5192  144.3545  159.1169 H   0  0  0  0  0  0  0  0  0  0  0  0
  152.4169  144.1186  160.8514 H   0  0  0  0  0  0  0  0  0  0  0  0
  153.9423  142.4188  159.8055 H   0  0  0  0  0  0  0  0  0  0  0  0
  152.5757  141.6761  160.6078 H   0  0  0  0  0  0  0  0  0  0  0  0
  152.8708  142.1746  157.6074 H   0  0  0  0  0  0  0  0  0  0  0  0
  152.3867  139.7220  158.8363 H   0  0  0  0  0  0  0  0  0  0  0  0
  151.5580  137.0443  159.2421 H   0  0  0  0  0  0  0  0  0  0  0  0
  147.7045  133.6609  162.1119 H   0  0  0  0  0  0  0  0  0  0  0  0
  147.0597  134.4389  163.5193 H   0  0  0  0  0  0  0  0  0  0  0  0
  145.3464  133.1814  161.3206 H   0  0  0  0  0  0  0  0  0  0  0  0
  145.6151  132.5692  162.9358 H   0  0  0  0  0  0  0  0  0  0  0  0
  143.9990  135.2398  161.0867 H   0  0  0  0  0  0  0  0  0  0  0  0
  143.4258  136.0012  162.5478 H   0  0  0  0  0  0  0  0  0  0  0  0
  145.6432  136.6810  163.2222 H   0  0  0  0  0  0  0  0  0  0  0  0
  145.3772  137.2723  161.6070 H   0  0  0  0  0  0  0  0  0  0  0  0
  1  2  1  0  0  0  0
  1 31  1  0  0  0  0
  2  3  1  0  0  0  0
  2 32  1  0  0  0  0
  2 33  1  0  0  0  0
  3 30  1  0  0  0  0
  3  4  1  0  0  0  0
  3 26  1  0  0  0  0
  4  5  1  0  0  0  0
  4 34  1  0  0  0  0
  4 35  1  0  0  0  0
  5 25  1  0  0  0  0
  5  6  1  0  0  0  0
  6  7  2  0  0  0  0
  6 36  1  0  0  0  0
  7  8  1  0  0  0  0
  8 25  2  0  0  0  0
  8  9  1  0  0  0  0
  9 10  1  0  0  0  0
  9 22  2  0  0  0  0
 10 14  1  0  0  0  0
 10 11  1  0  0  0  0
 11 12  1  0  0  0  0
 11 37  1  0  0  0  0
 11 38  1  0  0  0  0
 12 13  1  0  0  0  0
 12 39  1  0  0  0  0
 12 40  1  0  0  0  0
 13 14  1  0  0  0  0
 13 41  1  0  0  0  0
 13 42  1  0  0  0  0
 14 15  1  0  0  0  0
 14 43  1  0  0  0  0
 15 20  1  0  0  0  0
 15 16  1  0  0  0  0
 15 44  1  0  0  0  0
 16 17  1  0  0  0  0
 16 45  1  0  0  0  0
 16 46  1  0  0  0  0
 17 18  1  0  0  0  0
 18 19  1  0  0  0  0
 18 47  1  0  0  0  0
 18 48  1  0  0  0  0
 19 20  1  0  0  0  0
 19 49  1  0  0  0  0
 19 50  1  0  0  0  0
 20 21  1  0  0  0  0
 20 51  1  0  0  0  0
 21 52  1  0  0  0  0
 22 23  1  0  0  0  0
 23 24  2  0  0  0  0
 23 53  1  0  0  0  0
 24 25  1  0  0  0  0
 26 27  1  0  0  0  0
 26 54  1  0  0  0  0
 26 55  1  0  0  0  0
 27 28  1  0  0  0  0
 27 56  1  0  0  0  0
 27 57  1  0  0  0  0
 28 29  1  0  0  0  0
 29 30  1  0  0  0  0
 29 58  1  0  0  0  0
 29 59  1  0  0  0  0
 30 60  1  0  0  0  0
 30 61  1  0  0  0  0
M  END
> <s_m_source_file>
AV-unprocessed.smi

> <i_m_source_file_index>
247

> <i_lp_mmshare_version>
43012

> <i_f3d_flags>
0

> <s_epik_input>
W0NIMl0xW0NIMl1PW0NIMl1bQ0gyXUMxKFtDSDJdW09IXSlbQ0gyXW4oW2NIXW4yKWMoYzIzKW5bY0hdbmMzTjRbQ0gyXVtDSDJdW0NIMl1bQ0BIXTRbQ0BASF01W0NIMl1PW0NIMl1bQ0gyXVtDQEhdNVtPSF0=

> <s_epik_cmdline>
J2VwaWtfcHl0aG9uJywgJy1waCcsICc3LjAnLCAnLXRuJywgJzgnLCAnLW1hJywgJzIwMCcsICctbWV0YWxfYmluZGluZycsICctaW1hZScsICc8aW5maWxlLm1hZT4nLCAnLW9tYWUnLCAnPG91dGZpbGUubWFlPic=

> <r_lp_tautomer_probability>
1

> <r_epik_Ionization_Penalty>
0.00362597

> <r_epik_Ionization_Penalty_Charging>
0

> <r_epik_Ionization_Penalty_Neutral>
0.00362597

> <r_epik_State_Penalty>
0.00241433

> <r_epik_Charging_Adjusted_Penalty>
0.00241433

> <i_epik_Tot_Q>
0

> <i_epik_Tot_abs_Q>
0

> <r_epik_Metal_State_Penalty>
-0

> <b_epik_Metal_Only>
0

> <s_lp_Force_Field>
OPLS_2005

> <r_lp_Energy>
58.6296

> <b_lp_Chiralities_Consistent>
1

> <s_lp_Variant>
AV-unprocessed.smi:247-1

> <Gold.Version>
5.8.1

> <Gold.Id.Protein>
6NUR|6NUR_protein|mol2

> <Gold.PLP.Fitness>
49.0387

> <Gold.PLP.PLP>
-47.0936

> <Gold.PLP.part.hbond>
-3.4111

> <Gold.PLP.part.metal>
0.0000

> <Gold.PLP.part.buried>
-7.0459

> <Gold.PLP.part.nonpolar>
-35.6623

> <Gold.PLP.part.repulsive>
0.1277

> <Gold.PLP.ligand.clash>
0.0000

> <Gold.PLP.ligand.torsion>
1.9916

> <Gold.PLP.Chemscore.Hbond>
1.9177

> <Gold.PLP.Chemscore.CHOScore>
0.0000

> <Gold.PLP.Chemscore.Metal>
0.0000

> <Gold.Chemscore.Hbonds>
donor molecule, donor type, donor heavy atom, donor atom, acceptor molecule, acceptor atom, score
      P1  H  6896  6907       L1    24  0.37
      P1  H  7997  8009       L1    21  0.68

> <Gold.PLP.Chemscore.Internal.Correction>
0.1753

> <Gold.Rescore>
     Score         DG    S(hbond)    S(metal)    S(lipo)     H(rot)  DE(clash)    DE(int)     intcor
     11.83     -13.32       0.84        0.00     113.63       3.23       0.04       1.44       ----

> <Gold.Chemscore.Fitness>
11.8278

> <Gold.Chemscore.DG>
-13.3159

> <Gold.Chemscore.ZeroCoef>
-5.4800

> <Gold.Chemscore.Hbond>
0.8398

> <Gold.Chemscore.Metal>
0.0000

> <Gold.Chemscore.Lipo>
113.6260

> <Gold.Chemscore.Internal_Hbond>
0.0000

> <Gold.Chemscore.DEClash>
0.0436

> <Gold.Chemscore.DEInternal>
1.4445

> <Gold.Chemscore.Rot>
3.2278

> <Gold.Chemscore.Internal.Correction>
   9.000000E+99

> <Gold.Chemscore.Hbonds>
donor molecule, donor type, donor heavy atom, donor atom, acceptor molecule, acceptor atom, score
      P1  H  6896  6907       L1    24  0.06
      P1  H  7997  8009       L1    21  0.57

> <Gold.Chemscore.Hbond.Weighted>
-2.8049

> <Gold.Chemscore.Metal.Weighted>
-0.0000

> <Gold.Chemscore.Lipo.Weighted>
-13.2942

> <Gold.Chemscore.Internal_Hbond.Weighted>
0.0000

> <Gold.Chemscore.DEClash.Weighted>
0.0436

> <Gold.Chemscore.DEInternal.Weighted>
1.4445

> <Gold.Chemscore.Rot.Weighted>
8.2633

> <Gold.Chemscore.Internal.Correction.Weighted>
   9.000000E+99

> <Gold.Protein.RotatedTorsions>
[ 6907 6896 6895 6894 ] final  -64.07 input  -60.11 | X-H torsion
[ 7974 7965 7964 7962 ] final  -21.07 input  175.53 | X-H torsion
[ 8008 7997 7996 7995 ] final  158.18 input   59.86 | X-H torsion
[ 10167 10162 10161 10158 ] final   16.10 input  -65.29 | X-H torsion
[ 10718 10713 10712 10709 ] final   75.64 input   66.30 | X-H torsion
[ 10763 10752 10751 10750 ] final  158.14 input  -60.55 | X-H torsion
[ 11005 11000 10999 10996 ] final   52.81 input  -57.11 | X-H torsion

> <Gold.Protein.ActiveResidues>
 VAL166  LYS551  ARG553  GLY616  TRP617  ASP618  TYR619  PRO620  LYS621  CYS622 
 ASP623  PHE694  ASN695  SER759  ASP760  ASP761  ALA762  ILE779  LEU786  VAL792 
 PHE793  MET794  SER795  GLU796  ALA797  LYS798  CYS799  TRP800  GLU811  SER814 

> <Gold.Protein.RotatedAtoms>
  150.7609  134.6349  159.6205 H   0  0  0  0  0  0  0  0  0  0  0  0  # atno 6907 bound_to 6896
  152.3615  134.6862  160.0214 H   0  0  0  0  0  0  0  0  0  0  0  0  # atno 6908 bound_to 6896
  151.7250  133.3279  159.3362 H   0  0  0  0  0  0  0  0  0  0  0  0  # atno 6909 bound_to 6896
  146.1753  140.4290  142.8516 H   0  0  0  0  0  0  0  0  0  0  0  0  # atno 7974 bound_to 7965
  156.2318  140.1865  156.7221 H   0  0  0  0  0  0  0  0  0  0  0  0  # atno 8008 bound_to 7997
  154.6037  140.0632  156.9430 H   0  0  0  0  0  0  0  0  0  0  0  0  # atno 8009 bound_to 7997
  155.2132  140.3301  155.4328 H   0  0  0  0  0  0  0  0  0  0  0  0  # atno 8010 bound_to 7997
  140.5821  143.8960  150.6799 H   0  0  0  0  0  0  0  0  0  0  0  0  # atno 10167 bound_to 10162
  157.6642  130.9736  150.1382 H   0  0  0  0  0  0  0  0  0  0  0  0  # atno 10718 bound_to 10713
  154.2113  135.2786  155.2957 H   0  0  0  0  0  0  0  0  0  0  0  0  # atno 10763 bound_to 10752
  154.5776  135.5599  153.7157 H   0  0  0  0  0  0  0  0  0  0  0  0  # atno 10764 bound_to 10752
  153.0063  135.6337  154.2252 H   0  0  0  0  0  0  0  0  0  0  0  0  # atno 10765 bound_to 10752
  140.0819  134.5327  155.8938 H   0  0  0  0  0  0  0  0  0  0  0  0  # atno 11005 bound_to 11000
  144.8227  140.6577  143.6342 LP  0  0  0  0  0  0  0  0  0  0  0  0  # atno 17320 bound_to 7965
  145.4228  139.1561  143.4065 LP  0  0  0  0  0  0  0  0  0  0  0  0  # atno 17321 bound_to 7965
  140.2462  143.3627  152.1445 LP  0  0  0  0  0  0  0  0  0  0  0  0  # atno 17342 bound_to 10162
  139.5176  144.6994  151.5537 LP  0  0  0  0  0  0  0  0  0  0  0  0  # atno 17343 bound_to 10162
  156.2211  130.3674  149.8555 LP  0  0  0  0  0  0  0  0  0  0  0  0  # atno 17370 bound_to 10713
  156.6407  130.8703  151.3513 LP  0  0  0  0  0  0  0  0  0  0  0  0  # atno 17371 bound_to 10713
  141.2049  133.6643  156.6151 LP  0  0  0  0  0  0  0  0  0  0  0  0  # atno 17394 bound_to 11000
  140.3476  134.7796  157.4443 LP  0  0  0  0  0  0  0  0  0  0  0  0  # atno 17395 bound_to 11000

$$$$
