AV-unprocessed.smi:482|AV-procd|sdf|2684|dock2
  -GOLD-   2262023113D 1   1.00000     0.00000
 Structure written by MMmdl.
 28 29  0  0  0  0  0  0  0  0  1 V2000
  154.7195  139.7848  160.8104 C   0  0  0  0  0  0  0  0  0  0  0  0
  153.7460  140.7421  160.2519 N   0  0  0  0  0  0  0  0  0  0  0  0
  153.1767  140.4539  159.0391 C   0  0  0  0  0  0  0  0  0  0  0  0
  153.4119  139.4474  158.3693 O   0  0  0  0  0  0  0  0  0  0  0  0
  152.2253  141.4675  158.5758 C   0  0  0  0  0  0  0  0  0  0  0  0
  151.9338  142.5849  159.2841 C   0  0  0  0  0  0  0  0  0  0  0  0
  150.9995  143.3744  158.6229 N   0  0  0  0  0  0  0  0  0  0  0  0
  150.7730  142.6670  157.5149 C   0  0  0  0  0  0  0  0  0  0  0  0
  151.4658  141.5147  157.4085 N   0  0  0  0  0  0  0  0  0  0  0  0
  151.4012  140.5685  156.3081 C   0  0  0  0  0  0  0  0  0  0  0  0
  150.1930  140.8363  155.3999 C   0  0  0  0  0  0  0  0  0  0  0  0
  150.3370  140.1217  154.1921 O   0  0  0  0  0  0  0  0  0  0  0  0
  152.5795  142.7880  160.5289 N   0  0  0  0  0  0  0  0  0  0  0  0
  152.2432  144.0102  161.2651 C   0  0  0  0  0  0  0  0  0  0  0  0
  153.4808  141.8696  161.0117 C   0  0  0  0  0  0  0  0  0  0  0  0
  154.0401  142.0470  162.0973 O   0  0  0  0  0  0  0  0  0  0  0  0
  154.9225  138.9167  160.1825 H   0  0  0  0  0  0  0  0  0  0  0  0
  154.3658  139.3996  161.7681 H   0  0  0  0  0  0  0  0  0  0  0  0
  155.6805  140.2733  160.9799 H   0  0  0  0  0  0  0  0  0  0  0  0
  150.0795  142.9976  156.7554 H   0  0  0  0  0  0  0  0  0  0  0  0
  152.3255  140.6450  155.7335 H   0  0  0  0  0  0  0  0  0  0  0  0
  151.3721  139.5558  156.7111 H   0  0  0  0  0  0  0  0  0  0  0  0
  149.2657  140.5302  155.8845 H   0  0  0  0  0  0  0  0  0  0  0  0
  150.1081  141.8997  155.1748 H   0  0  0  0  0  0  0  0  0  0  0  0
  149.5243  139.6755  154.0079 H   0  0  0  0  0  0  0  0  0  0  0  0
  152.7603  144.1198  162.2188 H   0  0  0  0  0  0  0  0  0  0  0  0
  151.1728  144.0354  161.4724 H   0  0  0  0  0  0  0  0  0  0  0  0
  152.4867  144.8858  160.6621 H   0  0  0  0  0  0  0  0  0  0  0  0
  1  2  1  0  0  0  0
  1 17  1  0  0  0  0
  1 18  1  0  0  0  0
  1 19  1  0  0  0  0
  2 15  1  0  0  0  0
  2  3  1  0  0  0  0
  3  4  2  0  0  0  0
  3  5  1  0  0  0  0
  5  9  1  0  0  0  0
  5  6  2  0  0  0  0
  6  7  1  0  0  0  0
  6 13  1  0  0  0  0
  7  8  2  0  0  0  0
  8  9  1  0  0  0  0
  8 20  1  0  0  0  0
  9 10  1  0  0  0  0
 10 11  1  0  0  0  0
 10 21  1  0  0  0  0
 10 22  1  0  0  0  0
 11 12  1  0  0  0  0
 11 23  1  0  0  0  0
 11 24  1  0  0  0  0
 12 25  1  0  0  0  0
 13 14  1  0  0  0  0
 13 15  1  0  0  0  0
 14 26  1  0  0  0  0
 14 27  1  0  0  0  0
 14 28  1  0  0  0  0
 15 16  2  0  0  0  0
M  END
> <s_m_source_file>
AV-unprocessed.smi

> <i_m_source_file_index>
482

> <i_lp_mmshare_version>
43012

> <i_f3d_flags>
0

> <s_epik_input>
Tz1jMW4oW0NIM10pYyg9TyluKFtDSDNdKWMoYzEyKW5bY0hdbjJbQ0gyXVtDSDJdW09IXQ==

> <s_epik_cmdline>
J2VwaWtfcHl0aG9uJywgJy1waCcsICc3LjAnLCAnLXRuJywgJzgnLCAnLW1hJywgJzIwMCcsICctbWV0YWxfYmluZGluZycsICctaW1hZScsICc8aW5maWxlLm1hZT4nLCAnLW9tYWUnLCAnPG91dGZpbGUubWFlPic=

> <r_lp_tautomer_probability>
1

> <r_epik_Ionization_Penalty>
1.52212e-06

> <r_epik_Ionization_Penalty_Charging>
3.74189e-09

> <r_epik_Ionization_Penalty_Neutral>
1.51838e-06

> <r_epik_State_Penalty>
-0

> <r_epik_Charging_Adjusted_Penalty>
3.74189e-09

> <i_epik_Tot_Q>
0

> <i_epik_Tot_abs_Q>
0

> <r_epik_Metal_State_Penalty>
-0

> <b_epik_Metal_Only>
0

> <s_lp_Force_Field>
OPLS_2005

> <r_lp_Energy>
31.9253

> <b_lp_Chiralities_Consistent>
1

> <s_lp_Variant>
AV-unprocessed.smi:482-1

> <Gold.Version>
5.8.1

> <Gold.Id.Protein>
6NUR|6NUR_protein|mol2

> <Gold.PLP.Fitness>
45.8691

> <Gold.PLP.PLP>
-37.3013

> <Gold.PLP.part.hbond>
-3.7977

> <Gold.PLP.part.metal>
0.0000

> <Gold.PLP.part.buried>
-3.5595

> <Gold.PLP.part.nonpolar>
-29.2250

> <Gold.PLP.part.repulsive>
0.1107

> <Gold.PLP.ligand.clash>
0.0000

> <Gold.PLP.ligand.torsion>
0.2161

> <Gold.PLP.Chemscore.Hbond>
2.0000

> <Gold.PLP.Chemscore.CHOScore>
1.0000

> <Gold.PLP.Chemscore.Metal>
0.0000

> <Gold.Chemscore.Hbonds>
donor molecule, donor type, donor heavy atom, donor atom, acceptor molecule, acceptor atom, score
      P1  H  7989  7998       L1    12  1.00
      P1  H  7997  8009       L1     4  1.00
      L1  C     8    20       P1  8028  1.00

> <Gold.PLP.Chemscore.Internal.Correction>
0.0001

> <Gold.Rescore>
     Score         DG    S(hbond)    S(metal)    S(lipo)     H(rot)  DE(clash)    DE(int)     intcor
     11.11     -11.43       1.88        0.00      41.56       2.03       0.01       0.30       ----

> <Gold.Chemscore.Fitness>
11.1111

> <Gold.Chemscore.DG>
-11.4257

> <Gold.Chemscore.ZeroCoef>
-5.4800

> <Gold.Chemscore.Hbond>
1.8831

> <Gold.Chemscore.Metal>
0.0000

> <Gold.Chemscore.Lipo>
41.5617

> <Gold.Chemscore.Internal_Hbond>
0.0000

> <Gold.Chemscore.DEClash>
0.0107

> <Gold.Chemscore.DEInternal>
0.3040

> <Gold.Chemscore.Rot>
2.0338

> <Gold.Chemscore.Internal.Correction>
   9.000000E+99

> <Gold.Chemscore.Hbonds>
donor molecule, donor type, donor heavy atom, donor atom, acceptor molecule, acceptor atom, score
      P1  H  7989  7998       L1    12  0.38
      P1  H  7997  8009       L1     4  0.49

> <Gold.Chemscore.Hbond.Weighted>
-6.2895

> <Gold.Chemscore.Metal.Weighted>
-0.0000

> <Gold.Chemscore.Lipo.Weighted>
-4.8627

> <Gold.Chemscore.Internal_Hbond.Weighted>
0.0000

> <Gold.Chemscore.DEClash.Weighted>
0.0107

> <Gold.Chemscore.DEInternal.Weighted>
0.3040

> <Gold.Chemscore.Rot.Weighted>
5.2065

> <Gold.Chemscore.Internal.Correction.Weighted>
   9.000000E+99

> <Gold.Protein.RotatedTorsions>
[ 6907 6896 6895 6894 ] final  -52.25 input  -60.11 | X-H torsion
[ 7974 7965 7964 7962 ] final -126.92 input  175.53 | X-H torsion
[ 8008 7997 7996 7995 ] final  163.83 input   59.86 | X-H torsion
[ 10167 10162 10161 10158 ] final  155.67 input  -65.29 | X-H torsion
[ 10718 10713 10712 10709 ] final  133.95 input   66.30 | X-H torsion
[ 10763 10752 10751 10750 ] final   99.69 input  -60.55 | X-H torsion
[ 11005 11000 10999 10996 ] final  -66.62 input  -57.11 | X-H torsion

> <Gold.Protein.ActiveResidues>
 VAL166  LYS551  ARG553  GLY616  TRP617  ASP618  TYR619  PRO620  LYS621  CYS622 
 ASP623  PHE694  ASN695  SER759  ASP760  ASP761  ALA762  ILE779  LEU786  VAL792 
 PHE793  MET794  SER795  GLU796  ALA797  LYS798  CYS799  TRP800  GLU811  SER814 

> <Gold.Protein.RotatedAtoms>
  150.8535  134.7867  159.7027 H   0  0  0  0  0  0  0  0  0  0  0  0  # atno 6907 bound_to 6896
  152.4593  134.5216  159.9794 H   0  0  0  0  0  0  0  0  0  0  0  0  # atno 6908 bound_to 6896
  151.5333  133.3407  159.2958 H   0  0  0  0  0  0  0  0  0  0  0  0  # atno 6909 bound_to 6896
  144.9824  140.7653  143.4604 H   0  0  0  0  0  0  0  0  0  0  0  0  # atno 7974 bound_to 7965
  156.1927  140.1713  156.8060 H   0  0  0  0  0  0  0  0  0  0  0  0  # atno 8008 bound_to 7997
  154.5491  140.0721  156.8670 H   0  0  0  0  0  0  0  0  0  0  0  0  # atno 8009 bound_to 7997
  155.3064  140.3365  155.4248 H   0  0  0  0  0  0  0  0  0  0  0  0  # atno 8010 bound_to 7997
  139.4821  144.5077  151.8072 H   0  0  0  0  0  0  0  0  0  0  0  0  # atno 10167 bound_to 10162
  157.4722  131.1081  150.9788 H   0  0  0  0  0  0  0  0  0  0  0  0  # atno 10718 bound_to 10713
  153.3045  135.4105  155.1282 H   0  0  0  0  0  0  0  0  0  0  0  0  # atno 10763 bound_to 10752
  154.8559  135.3549  154.5807 H   0  0  0  0  0  0  0  0  0  0  0  0  # atno 10764 bound_to 10752
  153.6233  135.7063  153.5361 H   0  0  0  0  0  0  0  0  0  0  0  0  # atno 10765 bound_to 10752
  141.1487  133.6703  156.6166 H   0  0  0  0  0  0  0  0  0  0  0  0  # atno 11005 bound_to 11000
  145.2402  139.2076  143.4996 LP  0  0  0  0  0  0  0  0  0  0  0  0  # atno 17320 bound_to 7965
  146.3411  140.2296  142.8593 LP  0  0  0  0  0  0  0  0  0  0  0  0  # atno 17321 bound_to 7965
  140.4577  144.1766  150.5903 LP  0  0  0  0  0  0  0  0  0  0  0  0  # atno 17342 bound_to 10162
  140.4518  143.2484  151.9338 LP  0  0  0  0  0  0  0  0  0  0  0  0  # atno 17343 bound_to 10162
  157.0549  130.5802  149.5376 LP  0  0  0  0  0  0  0  0  0  0  0  0  # atno 17370 bound_to 10713
  156.0079  130.5168  150.7891 LP  0  0  0  0  0  0  0  0  0  0  0  0  # atno 17371 bound_to 10713
  140.3572  134.7718  157.4509 LP  0  0  0  0  0  0  0  0  0  0  0  0  # atno 17394 bound_to 11000
  140.0813  134.5727  155.8537 LP  0  0  0  0  0  0  0  0  0  0  0  0  # atno 17395 bound_to 11000

$$$$
