AV-unprocessed.smi:2201|AV-procd|sdf|8928|dock3
  -GOLD-   2272012143D 1   1.00000     0.00000
 Structure written by MMmdl.
 30 30  0  0  0  0  0  0  0  0  2 V2000
  152.3676  142.7513  160.2764 C   0  0  0  0  0  0  0  0  0  0  0  0
  151.7224  143.4740  159.0707 C   0  0  0  0  0  0  0  0  0  0  0  0
  150.8221  144.6062  159.6170 C   0  0  0  0  0  0  0  0  0  0  0  0
  152.8553  144.0770  158.2090 C   0  0  0  0  0  0  0  0  0  0  0  0
  150.8820  142.4730  158.2285 C   0  0  0  0  0  0  0  0  0  0  0  0
  149.6981  142.7193  157.9845 O   0  0  0  0  0  0  0  0  0  0  0  0
  151.5930  141.3826  157.8424 N   0  5  0  0  0  0  0  0  0  0  0  0
  151.2214  140.6992  156.7493 C   0  0  0  0  0  0  0  0  0  0  0  0
  151.7452  139.5145  156.4168 N   0  0  0  0  0  0  0  0  0  0  0  0
  151.2200  138.9810  155.2360 C   0  0  0  0  0  0  0  0  0  0  0  0
  151.7149  137.6596  154.7176 C   0  0  0  0  0  0  0  0  0  0  0  0
  151.2370  136.4947  155.5922 C   0  0  0  0  0  0  0  0  0  0  0  0
  150.2126  135.7606  155.1465 N   0  0  0  0  0  0  0  0  0  0  0  0
  151.7743  136.2725  156.6754 O   0  0  0  0  0  0  0  0  0  0  0  0
  150.2546  139.7752  154.6725 C   0  0  0  0  0  0  0  0  0  0  0  0
  149.9894  141.2233  155.6002 S   0  0  0  0  0  0  0  0  0  0  0  0
  152.9616  143.4397  160.8781 H   0  0  0  0  0  0  0  0  0  0  0  0
  153.0333  141.9484  159.9565 H   0  0  0  0  0  0  0  0  0  0  0  0
  151.6143  142.3168  160.9353 H   0  0  0  0  0  0  0  0  0  0  0  0
  149.9732  144.2068  160.1737 H   0  0  0  0  0  0  0  0  0  0  0  0
  150.4260  145.2367  158.8200 H   0  0  0  0  0  0  0  0  0  0  0  0
  151.3765  145.2590  160.2917 H   0  0  0  0  0  0  0  0  0  0  0  0
  153.5076  144.7143  158.8066 H   0  0  0  0  0  0  0  0  0  0  0  0
  152.4692  144.6920  157.3952 H   0  0  0  0  0  0  0  0  0  0  0  0
  153.4772  143.2976  157.7669 H   0  0  0  0  0  0  0  0  0  0  0  0
  151.3736  137.5035  153.6933 H   0  0  0  0  0  0  0  0  0  0  0  0
  152.8046  137.6435  154.6833 H   0  0  0  0  0  0  0  0  0  0  0  0
  149.8532  135.0039  155.7103 H   0  0  0  0  0  0  0  0  0  0  0  0
  149.7838  135.9846  154.2605 H   0  0  0  0  0  0  0  0  0  0  0  0
  149.6875  139.5993  153.7710 H   0  0  0  0  0  0  0  0  0  0  0  0
  1  2  1  0  0  0  0
  1 17  1  0  0  0  0
  1 18  1  0  0  0  0
  1 19  1  0  0  0  0
  2  3  1  0  0  0  0
  2  4  1  0  0  0  0
  2  5  1  0  0  0  0
  3 20  1  0  0  0  0
  3 21  1  0  0  0  0
  3 22  1  0  0  0  0
  4 23  1  0  0  0  0
  4 24  1  0  0  0  0
  4 25  1  0  0  0  0
  5  6  2  0  0  0  0
  5  7  1  0  0  0  0
  7  8  1  0  0  0  0
  8 16  1  0  0  0  0
  8  9  2  0  0  0  0
  9 10  1  0  0  0  0
 10 11  1  0  0  0  0
 10 15  2  0  0  0  0
 11 12  1  0  0  0  0
 11 26  1  0  0  0  0
 11 27  1  0  0  0  0
 12 13  1  0  0  0  0
 12 14  2  0  0  0  0
 13 28  1  0  0  0  0
 13 29  1  0  0  0  0
 15 16  1  0  0  0  0
 15 30  1  0  0  0  0
M  CHG  1   7  -1
M  END
> <s_m_source_file>
AV-unprocessed.smi

> <i_m_source_file_index>
2201

> <i_lp_mmshare_version>
43012

> <i_f3d_flags>
0

> <s_epik_input>
W0NIM11DKFtDSDNdKShbQ0gzXSlDKD1PKVtOSF1jMW5jKFtjSF1zMSlbQ0gyXUMoPU8pW05IMl0=

> <s_epik_cmdline>
J2VwaWtfcHl0aG9uJywgJy1waCcsICc3LjAnLCAnLXRuJywgJzgnLCAnLW1hJywgJzIwMCcsICctbWV0YWxfYmluZGluZycsICctaW1hZScsICc8aW5maWxlLm1hZT4nLCAnLW9tYWUnLCAnPG91dGZpbGUubWFlPic=

> <r_lp_tautomer_probability>
1

> <r_epik_Ionization_Penalty>
5.6718

> <r_epik_Ionization_Penalty_Charging>
5.12968

> <r_epik_Ionization_Penalty_Neutral>
0.54212

> <r_epik_State_Penalty>
5.12958

> <r_epik_Charging_Adjusted_Penalty>
10.2593

> <i_epik_Tot_Q>
-1

> <i_epik_Tot_abs_Q>
1

> <r_epik_Metal_State_Penalty>
1.2135

> <b_epik_Metal_Only>
1

> <s_lp_Force_Field>
OPLS_2005

> <r_lp_Energy>
3.19374

> <b_lp_Chiralities_Consistent>
1

> <s_lp_Variant>
AV-unprocessed.smi:2201-2

> <Gold.Version>
5.8.1

> <Gold.Id.Protein>
6NUR|6NUR_protein|mol2

> <Gold.PLP.Fitness>
41.8954

> <Gold.PLP.PLP>
-34.1870

> <Gold.PLP.part.hbond>
-2.0000

> <Gold.PLP.part.metal>
0.0000

> <Gold.PLP.part.buried>
-2.0151

> <Gold.PLP.part.nonpolar>
-30.1383

> <Gold.PLP.part.repulsive>
0.5867

> <Gold.PLP.ligand.clash>
0.0000

> <Gold.PLP.ligand.torsion>
0.6031

> <Gold.PLP.Chemscore.Hbond>
1.9920

> <Gold.PLP.Chemscore.CHOScore>
0.9643

> <Gold.PLP.Chemscore.Metal>
0.0000

> <Gold.Chemscore.Hbonds>
donor molecule, donor type, donor heavy atom, donor atom, acceptor molecule, acceptor atom, score
      L1  C    15    30       P1  7957  0.71

> <Gold.PLP.Chemscore.Internal.Correction>
0.0457

> <Gold.Rescore>
     Score         DG    S(hbond)    S(metal)    S(lipo)     H(rot)  DE(clash)    DE(int)     intcor
     10.40     -13.11       0.96        0.00      78.88       1.88       0.34       2.37       ----

> <Gold.Chemscore.Fitness>
10.4043

> <Gold.Chemscore.DG>
-13.1101

> <Gold.Chemscore.ZeroCoef>
-5.4800

> <Gold.Chemscore.Hbond>
0.9623

> <Gold.Chemscore.Metal>
0.0000

> <Gold.Chemscore.Lipo>
78.8832

> <Gold.Chemscore.Internal_Hbond>
0.0000

> <Gold.Chemscore.DEClash>
0.3402

> <Gold.Chemscore.DEInternal>
2.3656

> <Gold.Chemscore.Rot>
1.8802

> <Gold.Chemscore.Internal.Correction>
   9.000000E+99

> <Gold.Chemscore.Hbond.Weighted>
-3.2140

> <Gold.Chemscore.Metal.Weighted>
-0.0000

> <Gold.Chemscore.Lipo.Weighted>
-9.2293

> <Gold.Chemscore.Internal_Hbond.Weighted>
0.0000

> <Gold.Chemscore.DEClash.Weighted>
0.3402

> <Gold.Chemscore.DEInternal.Weighted>
2.3656

> <Gold.Chemscore.Rot.Weighted>
4.8132

> <Gold.Chemscore.Internal.Correction.Weighted>
   9.000000E+99

> <Gold.Protein.RotatedTorsions>
[ 6907 6896 6895 6894 ] final -150.98 input  -60.11 | X-H torsion
[ 7974 7965 7964 7962 ] final   30.75 input  175.53 | X-H torsion
[ 8008 7997 7996 7995 ] final -130.24 input   59.86 | X-H torsion
[ 10167 10162 10161 10158 ] final  -66.27 input  -65.29 | X-H torsion
[ 10718 10713 10712 10709 ] final -174.47 input   66.30 | X-H torsion
[ 10763 10752 10751 10750 ] final  -29.23 input  -60.55 | X-H torsion
[ 11005 11000 10999 10996 ] final -154.86 input  -57.11 | X-H torsion

> <Gold.Protein.ActiveResidues>
 VAL166  LYS551  ARG553  GLY616  TRP617  ASP618  TYR619  PRO620  LYS621  CYS622 
 ASP623  PHE694  ASN695  SER759  ASP760  ASP761  ALA762  ILE779  LEU786  VAL792 
 PHE793  MET794  SER795  GLU796  ALA797  LYS798  CYS799  TRP800  GLU811  SER814 

> <Gold.Protein.RotatedAtoms>
  151.2064  133.4581  159.2597 H   0  0  0  0  0  0  0  0  0  0  0  0  # atno 6907 bound_to 6896
  151.1019  134.9977  159.8462 H   0  0  0  0  0  0  0  0  0  0  0  0  # atno 6908 bound_to 6896
  152.5444  134.1990  159.8757 H   0  0  0  0  0  0  0  0  0  0  0  0  # atno 6909 bound_to 6896
  146.1593  139.6747  142.9045 H   0  0  0  0  0  0  0  0  0  0  0  0  # atno 7974 bound_to 7965
  155.2926  140.0449  157.3024 H   0  0  0  0  0  0  0  0  0  0  0  0  # atno 8008 bound_to 7997
  154.5533  140.2324  155.8418 H   0  0  0  0  0  0  0  0  0  0  0  0  # atno 8009 bound_to 7997
  156.1985  140.3032  155.9484 H   0  0  0  0  0  0  0  0  0  0  0  0  # atno 8010 bound_to 7997
  140.5669  143.2315  151.6616 H   0  0  0  0  0  0  0  0  0  0  0  0  # atno 10167 bound_to 10162
  156.7856  130.9499  151.3120 H   0  0  0  0  0  0  0  0  0  0  0  0  # atno 10718 bound_to 10713
  153.7612  135.6919  153.4925 H   0  0  0  0  0  0  0  0  0  0  0  0  # atno 10763 bound_to 10752
  153.1937  135.4461  155.0180 H   0  0  0  0  0  0  0  0  0  0  0  0  # atno 10764 bound_to 10752
  154.8152  135.3395  154.7127 H   0  0  0  0  0  0  0  0  0  0  0  0  # atno 10765 bound_to 10752
  140.6928  134.4023  157.5217 H   0  0  0  0  0  0  0  0  0  0  0  0  # atno 11005 bound_to 11000
  145.4630  141.0433  143.2741 LP  0  0  0  0  0  0  0  0  0  0  0  0  # atno 17320 bound_to 7965
  144.8005  139.6151  143.7074 LP  0  0  0  0  0  0  0  0  0  0  0  0  # atno 17321 bound_to 7965
  139.5097  144.3566  152.0602 LP  0  0  0  0  0  0  0  0  0  0  0  0  # atno 17342 bound_to 10162
  140.2699  144.3976  150.6155 LP  0  0  0  0  0  0  0  0  0  0  0  0  # atno 17343 bound_to 10162
  157.6625  130.8979  149.9861 LP  0  0  0  0  0  0  0  0  0  0  0  0  # atno 17370 bound_to 10713
  156.1191  130.3646  149.9918 LP  0  0  0  0  0  0  0  0  0  0  0  0  # atno 17371 bound_to 10713
  139.8919  134.8769  156.2299 LP  0  0  0  0  0  0  0  0  0  0  0  0  # atno 17394 bound_to 11000
  141.0228  133.7032  156.1296 LP  0  0  0  0  0  0  0  0  0  0  0  0  # atno 17395 bound_to 11000

$$$$
