AV-unprocessed.smi:344|AV-procd|sdf|2390|dock8
  -GOLD-   2262022323D 1   1.00000     0.00000
 Structure written by MMmdl.
 37 38  0  0  0  0  0  0  0  0  2 V2000
  147.4725  139.0375  152.0132 N   0  0  0  0  0  0  0  0  0  0  0  0
  147.3201  139.5874  153.2216 C   0  0  0  0  0  0  0  0  0  0  0  0
  146.3114  139.4087  153.9014 O   0  0  0  0  0  0  0  0  0  0  0  0
  148.4551  140.4763  153.7365 C   0  0  0  0  0  0  0  0  0  0  0  0
  149.5121  139.6503  154.4111 C   0  0  0  0  0  0  0  0  0  0  0  0
  149.6130  138.2827  154.4168 C   0  0  0  0  0  0  0  0  0  0  0  0
  151.0012  137.7434  155.3173 S   0  0  0  0  0  0  0  0  0  0  0  0
  151.4051  139.4230  155.6795 C   0  0  0  0  0  0  0  0  0  0  0  0
  152.4668  139.8242  156.3955 N   0  5  0  0  0  0  0  0  0  0  0  0
  152.5537  139.4961  157.7070 C   0  0  0  0  0  0  0  0  0  0  0  0
  152.4701  138.3865  158.2355 O   0  0  0  0  0  0  0  0  0  0  0  0
  152.7809  140.7274  158.5890 C   0  0  0  0  0  0  0  0  0  0  0  0
  151.9800  141.9437  158.0891 C   0  0  0  0  0  0  0  0  0  0  0  0
  152.3014  143.2381  158.8570 C   0  0  0  0  0  0  0  0  0  0  0  0
  152.2982  143.0600  160.3770 C   0  0  0  0  0  0  0  0  0  0  0  0
  152.1430  144.4752  160.9434 C   0  0  0  0  0  0  0  0  0  0  0  0
  151.4761  145.3091  159.8389 C   0  0  0  0  0  0  0  0  0  0  0  0
  151.2916  144.3699  158.6413 C   0  0  0  0  0  0  0  0  0  0  0  0
  150.5331  140.2766  155.1323 N   0  0  0  0  0  0  0  0  0  0  0  0
  146.7579  138.4276  151.6438 H   0  0  0  0  0  0  0  0  0  0  0  0
  148.3135  139.2186  151.4830 H   0  0  0  0  0  0  0  0  0  0  0  0
  148.8736  141.0387  152.9008 H   0  0  0  0  0  0  0  0  0  0  0  0
  148.0492  141.2139  154.4299 H   0  0  0  0  0  0  0  0  0  0  0  0
  148.9617  137.5635  153.9432 H   0  0  0  0  0  0  0  0  0  0  0  0
  152.4825  140.4840  159.6095 H   0  0  0  0  0  0  0  0  0  0  0  0
  153.8459  140.9624  158.6336 H   0  0  0  0  0  0  0  0  0  0  0  0
  152.1607  142.0960  157.0238 H   0  0  0  0  0  0  0  0  0  0  0  0
  150.9143  141.7314  158.1875 H   0  0  0  0  0  0  0  0  0  0  0  0
  153.2896  143.5939  158.5609 H   0  0  0  0  0  0  0  0  0  0  0  0
  151.4419  142.4540  160.6773 H   0  0  0  0  0  0  0  0  0  0  0  0
  153.1975  142.5621  160.7410 H   0  0  0  0  0  0  0  0  0  0  0  0
  151.5590  144.4739  161.8643 H   0  0  0  0  0  0  0  0  0  0  0  0
  153.1224  144.8934  161.1787 H   0  0  0  0  0  0  0  0  0  0  0  0
  150.5221  145.7259  160.1641 H   0  0  0  0  0  0  0  0  0  0  0  0
  152.1213  146.1454  159.5671 H   0  0  0  0  0  0  0  0  0  0  0  0
  151.4341  144.8824  157.6894 H   0  0  0  0  0  0  0  0  0  0  0  0
  150.2772  143.9681  158.6489 H   0  0  0  0  0  0  0  0  0  0  0  0
  1  2  1  0  0  0  0
  1 20  1  0  0  0  0
  1 21  1  0  0  0  0
  2  3  2  0  0  0  0
  2  4  1  0  0  0  0
  4  5  1  0  0  0  0
  4 22  1  0  0  0  0
  4 23  1  0  0  0  0
  5 19  1  0  0  0  0
  5  6  2  0  0  0  0
  6  7  1  0  0  0  0
  6 24  1  0  0  0  0
  7  8  1  0  0  0  0
  8  9  1  0  0  0  0
  8 19  2  0  0  0  0
  9 10  1  0  0  0  0
 10 11  2  0  0  0  0
 10 12  1  0  0  0  0
 12 13  1  0  0  0  0
 12 25  1  0  0  0  0
 12 26  1  0  0  0  0
 13 14  1  0  0  0  0
 13 27  1  0  0  0  0
 13 28  1  0  0  0  0
 14 18  1  0  0  0  0
 14 15  1  0  0  0  0
 14 29  1  0  0  0  0
 15 16  1  0  0  0  0
 15 30  1  0  0  0  0
 15 31  1  0  0  0  0
 16 17  1  0  0  0  0
 16 32  1  0  0  0  0
 16 33  1  0  0  0  0
 17 18  1  0  0  0  0
 17 34  1  0  0  0  0
 17 35  1  0  0  0  0
 18 36  1  0  0  0  0
 18 37  1  0  0  0  0
M  CHG  1   9  -1
M  END
> <s_m_source_file>
AV-unprocessed.smi

> <i_m_source_file_index>
344

> <i_lp_mmshare_version>
43012

> <i_f3d_flags>
0

> <s_epik_input>
W05IMl1DKD1PKVtDSDJdYzFbY0hdc2MobjEpW05IXUMoPU8pW0NIMl1bQ0gyXVtDSF0yW0NIMl1bQ0gyXVtDSDJdW0NIMl0y

> <s_epik_cmdline>
J2VwaWtfcHl0aG9uJywgJy1waCcsICc3LjAnLCAnLXRuJywgJzgnLCAnLW1hJywgJzIwMCcsICctbWV0YWxfYmluZGluZycsICctaW1hZScsICc8aW5maWxlLm1hZT4nLCAnLW9tYWUnLCAnPG91dGZpbGUubWFlPic=

> <r_lp_tautomer_probability>
1

> <r_epik_Ionization_Penalty>
5.48595

> <r_epik_Ionization_Penalty_Charging>
4.99802

> <r_epik_Ionization_Penalty_Neutral>
0.48793

> <r_epik_State_Penalty>
4.99789

> <r_epik_Charging_Adjusted_Penalty>
9.99592

> <i_epik_Tot_Q>
-1

> <i_epik_Tot_abs_Q>
1

> <r_epik_Metal_State_Penalty>
1.11866

> <b_epik_Metal_Only>
1

> <s_lp_Force_Field>
OPLS_2005

> <r_lp_Energy>
17.7805

> <b_lp_Chiralities_Consistent>
1

> <s_lp_Variant>
AV-unprocessed.smi:344-2

> <Gold.Version>
5.8.1

> <Gold.Id.Protein>
6NUR|6NUR_protein|mol2

> <Gold.PLP.Fitness>
49.4592

> <Gold.PLP.PLP>
-39.0707

> <Gold.PLP.part.hbond>
-3.4246

> <Gold.PLP.part.metal>
0.0000

> <Gold.PLP.part.buried>
-2.3233

> <Gold.PLP.part.nonpolar>
-33.2164

> <Gold.PLP.part.repulsive>
0.2983

> <Gold.PLP.ligand.clash>
0.0000

> <Gold.PLP.ligand.torsion>
1.9442

> <Gold.PLP.Chemscore.Hbond>
3.6873

> <Gold.PLP.Chemscore.CHOScore>
1.0000

> <Gold.PLP.Chemscore.Metal>
0.0000

> <Gold.Chemscore.Hbonds>
donor molecule, donor type, donor heavy atom, donor atom, acceptor molecule, acceptor atom, score
      L1  H     1    21       P1  7957  0.99
      P1  H  7989  7998       L1    19  0.75
      P1  H  7997  8008       L1     9  1.70
      L1  C     6    24       P1  7948  1.00

> <Gold.PLP.Chemscore.Internal.Correction>
0.2150

> <Gold.Rescore>
     Score         DG    S(hbond)    S(metal)    S(lipo)     H(rot)  DE(clash)    DE(int)     intcor
     14.39     -16.35       1.63        0.00      98.74       2.39       0.00       1.96       ----

> <Gold.Chemscore.Fitness>
14.3898

> <Gold.Chemscore.DG>
-16.3458

> <Gold.Chemscore.ZeroCoef>
-5.4800

> <Gold.Chemscore.Hbond>
1.6269

> <Gold.Chemscore.Metal>
0.0000

> <Gold.Chemscore.Lipo>
98.7371

> <Gold.Chemscore.Internal_Hbond>
0.0000

> <Gold.Chemscore.DEClash>
0.0000

> <Gold.Chemscore.DEInternal>
1.9560

> <Gold.Chemscore.Rot>
2.3907

> <Gold.Chemscore.Internal.Correction>
   9.000000E+99

> <Gold.Chemscore.Hbonds>
donor molecule, donor type, donor heavy atom, donor atom, acceptor molecule, acceptor atom, score
      L1  H     1    21       P1  7957  0.77
      P1  H  7989  7998       L1    19  0.03
      P1  H  7997  8008       L1     9  0.14

> <Gold.Chemscore.Hbond.Weighted>
-5.4337

> <Gold.Chemscore.Metal.Weighted>
-0.0000

> <Gold.Chemscore.Lipo.Weighted>
-11.5522

> <Gold.Chemscore.Internal_Hbond.Weighted>
0.0000

> <Gold.Chemscore.DEClash.Weighted>
0.0000

> <Gold.Chemscore.DEInternal.Weighted>
1.9560

> <Gold.Chemscore.Rot.Weighted>
6.1201

> <Gold.Chemscore.Internal.Correction.Weighted>
   9.000000E+99

> <Gold.Protein.RotatedTorsions>
[ 6907 6896 6895 6894 ] final  115.57 input  -60.11 | X-H torsion
[ 7974 7965 7964 7962 ] final  137.09 input  175.53 | X-H torsion
[ 8008 7997 7996 7995 ] final  -27.37 input   59.86 | X-H torsion
[ 10167 10162 10161 10158 ] final   89.67 input  -65.29 | X-H torsion
[ 10718 10713 10712 10709 ] final -163.92 input   66.30 | X-H torsion
[ 10763 10752 10751 10750 ] final  -22.59 input  -60.55 | X-H torsion
[ 11005 11000 10999 10996 ] final -149.08 input  -57.11 | X-H torsion

> <Gold.Protein.ActiveResidues>
 VAL166  LYS551  ARG553  GLY616  TRP617  ASP618  TYR619  PRO620  LYS621  CYS622 
 ASP623  PHE694  ASN695  SER759  ASP760  ASP761  ALA762  ILE779  LEU786  VAL792 
 PHE793  MET794  SER795  GLU796  ALA797  LYS798  CYS799  TRP800  GLU811  SER814 

> <Gold.Protein.RotatedAtoms>
  152.4733  133.8079  159.6987 H   0  0  0  0  0  0  0  0  0  0  0  0  # atno 6907 bound_to 6896
  150.8734  133.7463  159.2960 H   0  0  0  0  0  0  0  0  0  0  0  0  # atno 6908 bound_to 6896
  151.4990  135.1064  159.9876 H   0  0  0  0  0  0  0  0  0  0  0  0  # atno 6909 bound_to 6896
  144.9501  139.4828  143.5530 H   0  0  0  0  0  0  0  0  0  0  0  0  # atno 7974 bound_to 7965
  154.4381  140.1874  156.0921 H   0  0  0  0  0  0  0  0  0  0  0  0  # atno 8008 bound_to 7997
  156.0358  140.3325  155.7163 H   0  0  0  0  0  0  0  0  0  0  0  0  # atno 8009 bound_to 7997
  155.5773  140.0618  157.2782 H   0  0  0  0  0  0  0  0  0  0  0  0  # atno 8010 bound_to 7997
  139.8550  144.6574  150.9125 H   0  0  0  0  0  0  0  0  0  0  0  0  # atno 10167 bound_to 10162
  156.6316  130.8932  151.2978 H   0  0  0  0  0  0  0  0  0  0  0  0  # atno 10718 bound_to 10713
  153.6544  135.6979  153.5198 H   0  0  0  0  0  0  0  0  0  0  0  0  # atno 10763 bound_to 10752
  153.2681  135.4223  155.0960 H   0  0  0  0  0  0  0  0  0  0  0  0  # atno 10764 bound_to 10752
  154.8468  135.3571  154.6088 H   0  0  0  0  0  0  0  0  0  0  0  0  # atno 10765 bound_to 10752
  140.7545  134.3369  157.5117 H   0  0  0  0  0  0  0  0  0  0  0  0  # atno 11005 bound_to 11000
  146.3318  139.8581  142.8861 LP  0  0  0  0  0  0  0  0  0  0  0  0  # atno 17320 bound_to 7965
  145.2857  141.0152  143.3692 LP  0  0  0  0  0  0  0  0  0  0  0  0  # atno 17321 bound_to 7965
  140.7783  143.3794  151.1504 LP  0  0  0  0  0  0  0  0  0  0  0  0  # atno 17342 bound_to 10162
  139.7429  143.8897  152.3055 LP  0  0  0  0  0  0  0  0  0  0  0  0  # atno 17343 bound_to 10162
  157.7198  130.9544  150.1395 LP  0  0  0  0  0  0  0  0  0  0  0  0  # atno 17370 bound_to 10713
  156.2230  130.3675  149.8533 LP  0  0  0  0  0  0  0  0  0  0  0  0  # atno 17371 bound_to 10713
  139.8781  134.9163  156.3151 LP  0  0  0  0  0  0  0  0  0  0  0  0  # atno 17394 bound_to 11000
  140.9720  133.7321  156.0549 LP  0  0  0  0  0  0  0  0  0  0  0  0  # atno 17395 bound_to 11000

$$$$
