AV-unprocessed.smi:21|AV-procd|sdf|128|dock9
  -GOLD-   2262015313D 1   1.00000     0.00000
 Structure written by MMmdl.
 62 65  0  0  0  0  0  0  0  0  2 V2000
  144.3309  132.3939  150.3037 C   0  0  0  0  0  0  0  0  0  0  0  0
  145.1040  133.0391  151.3034 O   0  0  0  0  0  0  0  0  0  0  0  0
  145.1175  134.4538  151.1858 C   0  0  2  0  0  0  0  0  0  0  0  0
  146.0584  135.1305  152.1761 C   0  0  0  0  0  0  0  0  0  0  0  0
  145.5000  136.5567  152.3025 C   0  0  2  0  0  0  0  0  0  0  0  0
  145.8588  137.2615  153.6378 C   0  0  0  0  0  0  0  0  0  0  0  0
  146.7259  138.4296  153.4704 N   0  0  0  0  0  0  0  0  0  0  0  0
  146.6575  139.1413  152.1970 C   0  0  0  0  0  0  0  0  0  0  0  0
  147.8961  138.4716  154.1648 C   0  0  0  0  0  0  0  0  0  0  0  0
  148.4197  137.3106  154.6430 N   0  0  0  0  0  0  0  0  0  0  0  0
  149.5353  137.3177  155.3771 C   0  0  0  0  0  0  0  0  0  0  0  0
  150.2768  138.3593  155.7539 N   0  0  0  0  0  0  0  0  0  0  0  0
  149.7721  139.5270  155.2652 C   0  0  0  0  0  0  0  0  0  0  0  0
  148.6064  139.6731  154.4593 C   0  0  0  0  0  0  0  0  0  0  0  0
  148.4299  141.0143  154.1361 N   0  0  0  0  0  0  0  0  0  0  0  0
  149.4163  141.6253  154.7320 C   0  0  0  0  0  0  0  0  0  0  0  0
  150.2518  140.8101  155.4603 N   0  0  0  0  0  0  0  0  0  0  0  0
  151.4089  141.2231  156.2332 C   0  0  0  0  0  0  0  0  0  0  0  0
  151.2545  141.0650  157.7726 C   0  0  1  0  0  0  0  0  0  0  0  0
  151.2829  139.5587  158.1305 C   0  0  0  0  0  0  0  0  0  0  0  0
  152.5313  138.9753  157.8177 O   0  0  0  0  0  0  0  0  0  0  0  0
  152.3179  141.8659  158.5854 C   0  0  2  0  0  0  0  0  0  0  0  0
  152.2777  141.6474  160.0912 C   0  0  0  0  0  0  0  0  0  0  0  0
  153.0578  142.8428  160.6183 C   0  0  0  0  0  0  0  0  0  0  0  0
  152.6898  143.9137  159.7643 O   0  0  0  0  0  0  0  0  0  0  0  0
  152.1899  143.3991  158.5344 C   0  0  0  0  0  0  0  0  0  0  0  0
  144.0403  136.4374  152.0056 N   0  3  2  0  0  0  0  0  0  0  0  0
  143.0827  136.9365  153.0206 C   0  0  0  0  0  0  0  0  0  0  0  0
  143.7693  135.0419  151.5909 C   0  0  0  0  0  0  0  0  0  0  0  0
  145.3541  134.7604  150.1651 H   0  0  0  0  0  0  0  0  0  0  0  0
  145.9067  137.1488  151.4816 H   0  0  0  0  0  0  0  0  0  0  0  0
  144.3325  131.3186  150.4811 H   0  0  0  0  0  0  0  0  0  0  0  0
  144.7395  132.5655  149.3074 H   0  0  0  0  0  0  0  0  0  0  0  0
  143.2955  132.7358  150.3221 H   0  0  0  0  0  0  0  0  0  0  0  0
  146.0016  134.6188  153.1382 H   0  0  0  0  0  0  0  0  0  0  0  0
  147.0972  135.1123  151.8457 H   0  0  0  0  0  0  0  0  0  0  0  0
  144.9470  137.6241  154.1127 H   0  0  0  0  0  0  0  0  0  0  0  0
  146.2856  136.5484  154.3384 H   0  0  0  0  0  0  0  0  0  0  0  0
  147.0163  140.1658  152.3050 H   0  0  0  0  0  0  0  0  0  0  0  0
  145.6294  139.1874  151.8372 H   0  0  0  0  0  0  0  0  0  0  0  0
  147.2595  138.6407  151.4379 H   0  0  0  0  0  0  0  0  0  0  0  0
  149.8779  136.3519  155.7184 H   0  0  0  0  0  0  0  0  0  0  0  0
  149.5496  142.6959  154.6736 H   0  0  0  0  0  0  0  0  0  0  0  0
  152.2543  140.6378  155.8704 H   0  0  0  0  0  0  0  0  0  0  0  0
  151.6332  142.2625  155.9900 H   0  0  0  0  0  0  0  0  0  0  0  0
  150.2718  141.4391  158.0621 H   0  0  0  0  0  0  0  0  0  0  0  0
  151.0691  139.4078  159.1890 H   0  0  0  0  0  0  0  0  0  0  0  0
  150.5356  138.9997  157.5694 H   0  0  0  0  0  0  0  0  0  0  0  0
  152.5486  138.7773  156.8937 H   0  0  0  0  0  0  0  0  0  0  0  0
  153.3142  141.5895  158.2363 H   0  0  0  0  0  0  0  0  0  0  0  0
  151.2503  141.6829  160.4567 H   0  0  0  0  0  0  0  0  0  0  0  0
  152.7224  140.7019  160.4028 H   0  0  0  0  0  0  0  0  0  0  0  0
  152.8344  143.0662  161.6616 H   0  0  0  0  0  0  0  0  0  0  0  0
  154.1309  142.6696  160.5272 H   0  0  0  0  0  0  0  0  0  0  0  0
  152.7469  143.8344  157.7064 H   0  0  0  0  0  0  0  0  0  0  0  0
  151.1481  143.7072  158.4414 H   0  0  0  0  0  0  0  0  0  0  0  0
  143.1893  136.4058  153.9677 H   0  0  0  0  0  0  0  0  0  0  0  0
  142.0602  136.7920  152.6704 H   0  0  0  0  0  0  0  0  0  0  0  0
  143.2135  138.0041  153.1962 H   0  0  0  0  0  0  0  0  0  0  0  0
  143.0336  134.9955  150.7875 H   0  0  0  0  0  0  0  0  0  0  0  0
  143.3718  134.4810  152.4390 H   0  0  0  0  0  0  0  0  0  0  0  0
  143.8928  137.0046  151.1828 H   0  0  0  0  0  0  0  0  0  0  0  0
  1  2  1  0  0  0  0
  1 32  1  0  0  0  0
  1 33  1  0  0  0  0
  1 34  1  0  0  0  0
  2  3  1  0  0  0  0
  3 30  1  0  0  0  0
  3 29  1  0  0  0  0
  3  4  1  0  0  0  0
  4  5  1  0  0  0  0
  4 35  1  0  0  0  0
  4 36  1  0  0  0  0
  5 31  1  0  0  0  0
  5  6  1  0  0  0  0
  5 27  1  0  0  0  0
  6  7  1  0  0  0  0
  6 37  1  0  0  0  0
  6 38  1  0  0  0  0
  7  8  1  0  0  0  0
  7  9  1  0  0  0  0
  8 39  1  0  0  0  0
  8 40  1  0  0  0  0
  8 41  1  0  0  0  0
  9 14  1  0  0  0  0
  9 10  2  0  0  0  0
 10 11  1  0  0  0  0
 11 12  2  0  0  0  0
 11 42  1  0  0  0  0
 12 13  1  0  0  0  0
 13 17  1  0  0  0  0
 13 14  2  0  0  0  0
 14 15  1  0  0  0  0
 15 16  2  0  0  0  0
 16 17  1  0  0  0  0
 16 43  1  0  0  0  0
 17 18  1  0  0  0  0
 18 19  1  0  0  0  0
 18 44  1  0  0  0  0
 18 45  1  0  0  0  0
 19 20  1  0  0  0  0
 19 22  1  0  0  0  0
 19 46  1  0  0  0  0
 20 21  1  0  0  0  0
 20 47  1  0  0  0  0
 20 48  1  0  0  0  0
 21 49  1  0  0  0  0
 22 26  1  0  0  0  0
 22 23  1  0  0  0  0
 22 50  1  0  0  0  0
 23 24  1  0  0  0  0
 23 51  1  0  0  0  0
 23 52  1  0  0  0  0
 24 25  1  0  0  0  0
 24 53  1  0  0  0  0
 24 54  1  0  0  0  0
 25 26  1  0  0  0  0
 26 55  1  0  0  0  0
 26 56  1  0  0  0  0
 27 28  1  0  0  0  0
 27 29  1  0  0  0  0
 27 62  1  0  0  0  0
 28 57  1  0  0  0  0
 28 58  1  0  0  0  0
 28 59  1  0  0  0  0
 29 60  1  0  0  0  0
 29 61  1  0  0  0  0
M  CHG  1  27   1
M  END
> <s_m_source_file>
AV-unprocessed.smi

> <i_m_source_file_index>
21

> <i_lp_mmshare_version>
43012

> <i_f3d_flags>
0

> <s_epik_input>
W0NIM11PW0NASF0xW0NIMl1bQ0BIXShOKFtDSDNdKVtDSDJdMSlbQ0gyXU4oW0NIM10pYyhuW2NIXW4yKWMoYzIzKW5bY0hdbjNbQ0gyXVtDQEhdKFtDSDJdW09IXSlbQ0BASF00W0NIMl1bQ0gyXU9bQ0gyXTQ=

> <s_epik_cmdline>
J2VwaWtfcHl0aG9uJywgJy1waCcsICc3LjAnLCAnLXRuJywgJzgnLCAnLW1hJywgJzIwMCcsICctbWV0YWxfYmluZGluZycsICctaW1hZScsICc8aW5maWxlLm1hZT4nLCAnLW9tYWUnLCAnPG91dGZpbGUubWFlPic=

> <r_lp_tautomer_probability>
1

> <r_epik_Ionization_Penalty>
0.0157465

> <r_epik_Ionization_Penalty_Charging>
0.015354

> <r_epik_Ionization_Penalty_Neutral>
0.000392529

> <r_epik_State_Penalty>
0.0120612

> <r_epik_Charging_Adjusted_Penalty>
0.0274152

> <i_epik_Tot_Q>
1

> <i_epik_Tot_abs_Q>
1

> <r_epik_Metal_State_Penalty>
0.0121253

> <b_epik_Metal_Only>
0

> <s_lp_Force_Field>
OPLS_2005

> <r_lp_Energy>
60.6524

> <b_lp_Chiralities_Consistent>
1

> <s_lp_Variant>
AV-unprocessed.smi:21-8

> <Gold.Version>
5.8.1

> <Gold.Id.Protein>
6NUR|6NUR_protein|mol2

> <Gold.PLP.Fitness>
49.5128

> <Gold.PLP.PLP>
-46.3148

> <Gold.PLP.part.hbond>
-1.0000

> <Gold.PLP.part.metal>
0.0000

> <Gold.PLP.part.buried>
-6.1111

> <Gold.PLP.part.nonpolar>
-40.7653

> <Gold.PLP.part.repulsive>
1.0053

> <Gold.PLP.ligand.clash>
0.0000

> <Gold.PLP.ligand.torsion>
1.7650

> <Gold.PLP.Chemscore.Hbond>
1.0000

> <Gold.PLP.Chemscore.CHOScore>
1.0000

> <Gold.PLP.Chemscore.Metal>
0.0000

> <Gold.Chemscore.Hbonds>
donor molecule, donor type, donor heavy atom, donor atom, acceptor molecule, acceptor atom, score
      L1  H    27    62       P1 10171  0.86
      L1  C    16    43       P1  8028  1.00

> <Gold.PLP.Chemscore.Internal.Correction>
0.7281

> <Gold.Rescore>
     Score         DG    S(hbond)    S(metal)    S(lipo)     H(rot)  DE(clash)    DE(int)     intcor
     11.59     -13.82       1.00        0.00     110.01       3.08       0.31       1.91       ----

> <Gold.Chemscore.Fitness>
11.5942

> <Gold.Chemscore.DG>
-13.8164

> <Gold.Chemscore.ZeroCoef>
-5.4800

> <Gold.Chemscore.Hbond>
0.9999

> <Gold.Chemscore.Metal>
0.0000

> <Gold.Chemscore.Lipo>
110.0064

> <Gold.Chemscore.Internal_Hbond>
0.0000

> <Gold.Chemscore.DEClash>
0.3096

> <Gold.Chemscore.DEInternal>
1.9127

> <Gold.Chemscore.Rot>
3.0758

> <Gold.Chemscore.Internal.Correction>
   9.000000E+99

> <Gold.Chemscore.Hbonds>
donor molecule, donor type, donor heavy atom, donor atom, acceptor molecule, acceptor atom, score
      L1  H    27    62       P1 10171  0.84

> <Gold.Chemscore.Hbond.Weighted>
-3.3398

> <Gold.Chemscore.Metal.Weighted>
-0.0000

> <Gold.Chemscore.Lipo.Weighted>
-12.8708

> <Gold.Chemscore.Internal_Hbond.Weighted>
0.0000

> <Gold.Chemscore.DEClash.Weighted>
0.3096

> <Gold.Chemscore.DEInternal.Weighted>
1.9127

> <Gold.Chemscore.Rot.Weighted>
7.8741

> <Gold.Chemscore.Internal.Correction.Weighted>
   9.000000E+99

> <Gold.Protein.RotatedTorsions>
[ 6907 6896 6895 6894 ] final  -72.26 input  -60.11 | X-H torsion
[ 7974 7965 7964 7962 ] final   67.58 input  175.53 | X-H torsion
[ 8008 7997 7996 7995 ] final -120.54 input   59.86 | X-H torsion
[ 10167 10162 10161 10158 ] final -177.97 input  -65.29 | X-H torsion
[ 10718 10713 10712 10709 ] final   50.28 input   66.30 | X-H torsion
[ 10763 10752 10751 10750 ] final   32.21 input  -60.55 | X-H torsion
[ 11005 11000 10999 10996 ] final  -24.00 input  -57.11 | X-H torsion

> <Gold.Protein.ActiveResidues>
 VAL166  LYS551  ARG553  GLY616  TRP617  ASP618  TYR619  PRO620  LYS621  CYS622 
 ASP623  PHE694  ASN695  SER759  ASP760  ASP761  ALA762  ILE779  LEU786  VAL792 
 PHE793  MET794  SER795  GLU796  ALA797  LYS798  CYS799  TRP800  GLU811  SER814 

> <Gold.Protein.RotatedAtoms>
  150.7177  134.5188  159.5643 H   0  0  0  0  0  0  0  0  0  0  0  0  # atno 6907 bound_to 6896
  152.2748  134.7890  160.0416 H   0  0  0  0  0  0  0  0  0  0  0  0  # atno 6908 bound_to 6896
  151.8557  133.3412  159.3724 H   0  0  0  0  0  0  0  0  0  0  0  0  # atno 6909 bound_to 6896
  145.8130  139.3042  143.1088 H   0  0  0  0  0  0  0  0  0  0  0  0  # atno 7974 bound_to 7965
  155.1334  140.0400  157.2780 H   0  0  0  0  0  0  0  0  0  0  0  0  # atno 8008 bound_to 7997
  154.6526  140.2572  155.7171 H   0  0  0  0  0  0  0  0  0  0  0  0  # atno 8009 bound_to 7997
  156.2584  140.2833  156.0966 H   0  0  0  0  0  0  0  0  0  0  0  0  # atno 8010 bound_to 7997
  139.5454  144.2248  152.0978 H   0  0  0  0  0  0  0  0  0  0  0  0  # atno 10167 bound_to 10162
  157.4869  130.8351  149.8157 H   0  0  0  0  0  0  0  0  0  0  0  0  # atno 10718 bound_to 10713
  153.0274  135.6419  154.1319 H   0  0  0  0  0  0  0  0  0  0  0  0  # atno 10763 bound_to 10752
  154.1046  135.2857  155.3245 H   0  0  0  0  0  0  0  0  0  0  0  0  # atno 10764 bound_to 10752
  154.6374  135.5471  153.7813 H   0  0  0  0  0  0  0  0  0  0  0  0  # atno 10765 bound_to 10752
  140.8804  133.7658  156.0295 H   0  0  0  0  0  0  0  0  0  0  0  0  # atno 11005 bound_to 11000
  145.9757  140.8724  143.0140 LP  0  0  0  0  0  0  0  0  0  0  0  0  # atno 17320 bound_to 7965
  144.6755  140.2009  143.7387 LP  0  0  0  0  0  0  0  0  0  0  0  0  # atno 17321 bound_to 7965
  140.1734  144.4914  150.6567 LP  0  0  0  0  0  0  0  0  0  0  0  0  # atno 17342 bound_to 10162
  140.6701  143.2282  151.5647 LP  0  0  0  0  0  0  0  0  0  0  0  0  # atno 17343 bound_to 10162
  156.0151  130.3817  150.2135 LP  0  0  0  0  0  0  0  0  0  0  0  0  # atno 17370 bound_to 10713
  157.0323  131.0011  151.3308 LP  0  0  0  0  0  0  0  0  0  0  0  0  # atno 17371 bound_to 10713
  140.8468  134.3001  157.5291 LP  0  0  0  0  0  0  0  0  0  0  0  0  # atno 17394 bound_to 11000
  139.8719  134.9446  156.3886 LP  0  0  0  0  0  0  0  0  0  0  0  0  # atno 17395 bound_to 11000

$$$$
