AV-unprocessed.smi:3298|AV-procd|sdf|12646|dock3
  -GOLD-   2272018583D 1   1.00000     0.00000
 Structure written by MMmdl.
 36 37  0  0  0  0  0  0  0  0  2 V2000
  147.1158  139.1292  152.8441 C   0  0  0  0  0  0  0  0  0  0  0  0
  148.3583  139.4761  153.6370 C   0  0  0  0  0  0  0  0  0  0  0  0
  148.4858  140.6909  154.3447 C   0  0  0  0  0  0  0  0  0  0  0  0
  149.6746  140.9524  155.0741 C   0  0  0  0  0  0  0  0  0  0  0  0
  149.9194  142.1431  155.8142 N   0  0  0  0  0  0  0  0  0  0  0  0
  150.7202  142.3357  156.8776 C   0  0  0  0  0  0  0  0  0  0  0  0
  151.4186  141.4751  157.4119 O   0  0  0  0  0  0  0  0  0  0  0  0
  150.6767  143.6105  157.2913 N   0  0  0  0  0  0  0  0  0  0  0  0
  151.4238  144.1519  158.4227 C   0  0  2  0  0  0  0  0  0  0  0  0
  152.8952  143.8555  158.3029 C   0  0  0  0  0  0  0  0  0  0  0  0
  153.3571  143.1304  159.3190 C   0  0  0  0  0  0  0  0  0  0  0  0
  152.2873  142.7710  160.3169 C   0  0  1  0  0  0  0  0  0  0  0  0
  152.6624  143.2035  161.7445 C   0  0  0  0  0  0  0  0  0  0  0  0
  151.6386  142.8466  162.6489 O   0  0  0  0  0  0  0  0  0  0  0  0
  151.0221  143.4736  159.7560 C   0  0  0  0  0  0  0  0  0  0  0  0
  150.7043  139.9855  155.0496 C   0  0  0  0  0  0  0  0  0  0  0  0
  150.5223  138.7908  154.3242 C   0  0  0  0  0  0  0  0  0  0  0  0
  149.3696  138.5806  153.6541 N   0  3  0  0  0  0  0  0  0  0  0  0
  151.2811  145.2317  158.4953 H   0  0  0  0  0  0  0  0  0  0  0  0
  152.1587  141.6883  160.2819 H   0  0  0  0  0  0  0  0  0  0  0  0
  146.3731  139.9249  152.9079 H   0  0  0  0  0  0  0  0  0  0  0  0
  146.6649  138.2127  153.2259 H   0  0  0  0  0  0  0  0  0  0  0  0
  147.3648  138.9800  151.7930 H   0  0  0  0  0  0  0  0  0  0  0  0
  147.6724  141.3980  154.3039 H   0  0  0  0  0  0  0  0  0  0  0  0
  149.4531  142.9676  155.4652 H   0  0  0  0  0  0  0  0  0  0  0  0
  150.0796  144.2548  156.7940 H   0  0  0  0  0  0  0  0  0  0  0  0
  153.4897  144.2157  157.4761 H   0  0  0  0  0  0  0  0  0  0  0  0
  154.3809  142.8061  159.4333 H   0  0  0  0  0  0  0  0  0  0  0  0
  153.5855  142.7157  162.0592 H   0  0  0  0  0  0  0  0  0  0  0  0
  152.8320  144.2798  161.7956 H   0  0  0  0  0  0  0  0  0  0  0  0
  151.5322  143.5467  163.2748 H   0  0  0  0  0  0  0  0  0  0  0  0
  150.6510  144.2272  160.4522 H   0  0  0  0  0  0  0  0  0  0  0  0
  150.2139  142.7530  159.6211 H   0  0  0  0  0  0  0  0  0  0  0  0
  151.6280  140.1525  155.5848 H   0  0  0  0  0  0  0  0  0  0  0  0
  151.2588  138.0032  154.2599 H   0  0  0  0  0  0  0  0  0  0  0  0
  149.2581  137.7091  153.1353 H   0  0  0  0  0  0  0  0  0  0  0  0
  1  2  1  0  0  0  0
  1 21  1  0  0  0  0
  1 22  1  0  0  0  0
  1 23  1  0  0  0  0
  2 18  1  0  0  0  0
  2  3  2  0  0  0  0
  3  4  1  0  0  0  0
  3 24  1  0  0  0  0
  4  5  1  0  0  0  0
  4 16  2  0  0  0  0
  5  6  1  0  0  0  0
  5 25  1  0  0  0  0
  6  7  2  0  0  0  0
  6  8  1  0  0  0  0
  8  9  1  0  0  0  0
  8 26  1  0  0  0  0
  9 19  1  0  0  0  0
  9 15  1  0  0  0  0
  9 10  1  0  0  0  0
 10 11  2  0  0  0  0
 10 27  1  0  0  0  0
 11 12  1  0  0  0  0
 11 28  1  0  0  0  0
 12 20  1  0  0  0  0
 12 13  1  0  0  0  0
 12 15  1  0  0  0  0
 13 14  1  0  0  0  0
 13 29  1  0  0  0  0
 13 30  1  0  0  0  0
 14 31  1  0  0  0  0
 15 32  1  0  0  0  0
 15 33  1  0  0  0  0
 16 17  1  0  0  0  0
 16 34  1  0  0  0  0
 17 18  2  0  0  0  0
 17 35  1  0  0  0  0
 18 36  1  0  0  0  0
M  CHG  1  18   1
M  END
> <s_m_source_file>
AV-unprocessed.smi

> <i_m_source_file_index>
3298

> <i_lp_mmshare_version>
43012

> <i_f3d_flags>
0

> <s_epik_input>
W0NIM11jMVtjSF1jKFtjSF1bY0hdbjEpW05IXUMoPU8pW05IXVtDQEBIXTJbQ0hdPVtDSF1bQ0BASF0oW0NIMl0yKVtDSDJdW09IXQ==

> <s_epik_cmdline>
J2VwaWtfcHl0aG9uJywgJy1waCcsICc3LjAnLCAnLXRuJywgJzgnLCAnLW1hJywgJzIwMCcsICctbWV0YWxfYmluZGluZycsICctaW1hZScsICc8aW5maWxlLm1hZT4nLCAnLW9tYWUnLCAnPG91dGZpbGUubWFlPic=

> <r_epik_Ionization_Penalty>
0.443901

> <r_epik_Ionization_Penalty_Charging>
0.443881

> <r_epik_Ionization_Penalty_Neutral>
1.94967e-05

> <r_epik_State_Penalty>
0.446172

> <r_epik_Charging_Adjusted_Penalty>
0.890053

> <i_epik_Tot_Q>
1

> <i_epik_Tot_abs_Q>
1

> <r_epik_Metal_State_Penalty>
0.675842

> <b_epik_Metal_Only>
0

> <s_lp_Force_Field>
OPLS_2005

> <r_lp_Energy>
27.4169

> <b_lp_Chiralities_Consistent>
1

> <s_lp_Variant>
AV-unprocessed.smi:3298-7

> <Gold.Version>
5.8.1

> <Gold.Id.Protein>
6NUR|6NUR_protein|mol2

> <Gold.PLP.Fitness>
57.1039

> <Gold.PLP.PLP>
-42.5182

> <Gold.PLP.part.hbond>
-5.7708

> <Gold.PLP.part.metal>
0.0000

> <Gold.PLP.part.buried>
-1.4569

> <Gold.PLP.part.nonpolar>
-36.2655

> <Gold.PLP.part.repulsive>
0.2367

> <Gold.PLP.ligand.clash>
0.0000

> <Gold.PLP.ligand.torsion>
0.1779

> <Gold.PLP.Chemscore.Hbond>
4.9750

> <Gold.PLP.Chemscore.CHOScore>
0.0000

> <Gold.PLP.Chemscore.Metal>
0.0000

> <Gold.Chemscore.Hbonds>
donor molecule, donor type, donor heavy atom, donor atom, acceptor molecule, acceptor atom, score
      L1  H     5    25       P1  8028  1.00
      L1  H     8    26       P1  8028  1.00
      L1  H    18    36       P1  7948  2.00
      P1  H  6933  6945       L1    14  1.00

> <Gold.PLP.Chemscore.Internal.Correction>
0.0165

> <Gold.Rescore>
     Score         DG    S(hbond)    S(metal)    S(lipo)     H(rot)  DE(clash)    DE(int)     intcor
     21.54     -26.62       3.83        0.00     110.75       1.81       2.24       2.84       ----

> <Gold.Chemscore.Fitness>
21.5363

> <Gold.Chemscore.DG>
-26.6208

> <Gold.Chemscore.ZeroCoef>
-5.4800

> <Gold.Chemscore.Hbond>
3.8343

> <Gold.Chemscore.Metal>
0.0000

> <Gold.Chemscore.Lipo>
110.7505

> <Gold.Chemscore.Internal_Hbond>
0.0000

> <Gold.Chemscore.DEClash>
2.2423

> <Gold.Chemscore.DEInternal>
2.8423

> <Gold.Chemscore.Rot>
1.8061

> <Gold.Chemscore.Internal.Correction>
   9.000000E+99

> <Gold.Chemscore.Hbonds>
donor molecule, donor type, donor heavy atom, donor atom, acceptor molecule, acceptor atom, score
      L1  H     5    25       P1  8028  0.96
      L1  H     8    26       P1  8028  0.94
      L1  H    18    36       P1  7948  0.98
      P1  H  6933  6945       L1    14  0.90

> <Gold.Chemscore.Hbond.Weighted>
-12.8067

> <Gold.Chemscore.Metal.Weighted>
-0.0000

> <Gold.Chemscore.Lipo.Weighted>
-12.9578

> <Gold.Chemscore.Internal_Hbond.Weighted>
0.0000

> <Gold.Chemscore.DEClash.Weighted>
2.2423

> <Gold.Chemscore.DEInternal.Weighted>
2.8423

> <Gold.Chemscore.Rot.Weighted>
4.6237

> <Gold.Chemscore.Internal.Correction.Weighted>
   9.000000E+99

> <Gold.Protein.RotatedTorsions>
[ 6907 6896 6895 6894 ] final  162.36 input  -60.11 | X-H torsion
[ 7974 7965 7964 7962 ] final  -32.55 input  175.53 | X-H torsion
[ 8008 7997 7996 7995 ] final -120.50 input   59.86 | X-H torsion
[ 10167 10162 10161 10158 ] final    3.00 input  -65.29 | X-H torsion
[ 10718 10713 10712 10709 ] final  -15.49 input   66.30 | X-H torsion
[ 10763 10752 10751 10750 ] final  -32.86 input  -60.55 | X-H torsion
[ 11005 11000 10999 10996 ] final  -37.49 input  -57.11 | X-H torsion

> <Gold.Protein.ActiveResidues>
 VAL166  LYS551  ARG553  GLY616  TRP617  ASP618  TYR619  PRO620  LYS621  CYS622 
 ASP623  PHE694  ASN695  SER759  ASP760  ASP761  ALA762  ILE779  LEU786  VAL792 
 PHE793  MET794  SER795  GLU796  ALA797  LYS798  CYS799  TRP800  GLU811  SER814 

> <Gold.Protein.RotatedAtoms>
  151.9416  133.3639  159.3966 H   0  0  0  0  0  0  0  0  0  0  0  0  # atno 6907 bound_to 6896
  150.6997  134.4433  159.5311 H   0  0  0  0  0  0  0  0  0  0  0  0  # atno 6908 bound_to 6896
  152.2091  134.8518  160.0550 H   0  0  0  0  0  0  0  0  0  0  0  0  # atno 6909 bound_to 6896
  146.0981  140.5807  142.8834 H   0  0  0  0  0  0  0  0  0  0  0  0  # atno 7974 bound_to 7965
  155.1329  140.0400  157.2779 H   0  0  0  0  0  0  0  0  0  0  0  0  # atno 8008 bound_to 7997
  154.6530  140.2573  155.7167 H   0  0  0  0  0  0  0  0  0  0  0  0  # atno 8009 bound_to 7997
  156.2585  140.2832  156.0971 H   0  0  0  0  0  0  0  0  0  0  0  0  # atno 8010 bound_to 7997
  140.6607  143.7310  150.7734 H   0  0  0  0  0  0  0  0  0  0  0  0  # atno 10167 bound_to 10162
  156.6010  130.4824  149.6239 H   0  0  0  0  0  0  0  0  0  0  0  0  # atno 10718 bound_to 10713
  153.8206  135.6874  153.4827 H   0  0  0  0  0  0  0  0  0  0  0  0  # atno 10763 bound_to 10752
  153.1571  135.4594  154.9718 H   0  0  0  0  0  0  0  0  0  0  0  0  # atno 10764 bound_to 10752
  154.7929  135.3308  154.7679 H   0  0  0  0  0  0  0  0  0  0  0  0  # atno 10765 bound_to 10752
  140.9956  133.6982  156.1928 H   0  0  0  0  0  0  0  0  0  0  0  0  # atno 11005 bound_to 11000
  144.7411  140.4944  143.6869 LP  0  0  0  0  0  0  0  0  0  0  0  0  # atno 17320 bound_to 7965
  145.5909  139.1495  143.3183 LP  0  0  0  0  0  0  0  0  0  0  0  0  # atno 17321 bound_to 7965
  140.0978  143.4816  152.2442 LP  0  0  0  0  0  0  0  0  0  0  0  0  # atno 17342 bound_to 10162
  139.5841  144.7523  151.3565 LP  0  0  0  0  0  0  0  0  0  0  0  0  # atno 17343 bound_to 10162
  156.2469  130.6884  151.1608 LP  0  0  0  0  0  0  0  0  0  0  0  0  # atno 17370 bound_to 10713
  157.7279  131.0635  150.5843 LP  0  0  0  0  0  0  0  0  0  0  0  0  # atno 17371 bound_to 10713
  140.6971  134.4603  157.5587 LP  0  0  0  0  0  0  0  0  0  0  0  0  # atno 17394 bound_to 11000
  139.9013  134.8550  156.1885 LP  0  0  0  0  0  0  0  0  0  0  0  0  # atno 17395 bound_to 11000

$$$$
