AV-unprocessed.smi:2440|AV-procd|sdf|9616|dock8
  -GOLD-   2272013253D 1   1.00000     0.00000
 Structure written by MMmdl.
 52 54  0  0  0  0  0  0  0  0  2 V2000
  153.1200  141.2553  161.2923 C   0  0  0  0  0  0  0  0  0  0  0  0
  152.5380  142.5778  160.8245 C   0  0  0  0  0  0  0  0  0  0  0  0
  152.3521  143.6311  161.7460 C   0  0  0  0  0  0  0  0  0  0  0  0
  151.8398  144.8334  161.4118 N   0  0  0  0  0  0  0  0  0  0  0  0
  151.4849  145.0297  160.1255 C   0  0  0  0  0  0  0  0  0  0  0  0
  151.6270  144.0502  159.1235 C   0  0  0  0  0  0  0  0  0  0  0  0
  152.1787  142.7937  159.4719 C   0  0  0  0  0  0  0  0  0  0  0  0
  152.3408  141.7301  158.5395 N   0  0  0  0  0  0  0  0  0  0  0  0
  151.5864  141.4322  157.4675 C   0  0  0  0  0  0  0  0  0  0  0  0
  150.6112  142.0769  157.0823 O   0  0  0  0  0  0  0  0  0  0  0  0
  152.0462  140.3376  156.8433 N   0  0  0  0  0  0  0  0  0  0  0  0
  151.4726  139.7356  155.6423 C   0  0  2  0  0  0  0  0  0  0  0  0
  149.9540  139.5556  155.8213 C   0  0  0  0  0  0  0  0  0  0  0  0
  149.3470  138.7737  154.6406 C   0  0  0  0  0  0  0  0  0  0  0  0
  149.9955  137.4415  154.4678 N   0  3  2  0  0  0  0  0  0  0  0  0
  149.6713  136.4201  155.5239 C   0  0  0  0  0  0  0  0  0  0  0  0
  150.4029  135.0740  155.2697 C   0  0  0  0  0  0  0  0  0  0  0  0
  150.0375  133.9897  156.2956 C   0  0  0  0  0  0  0  0  0  0  0  0
  148.5256  133.7528  156.3447 C   0  0  0  0  0  0  0  0  0  0  0  0
  147.7948  135.0623  156.6531 C   0  0  0  0  0  0  0  0  0  0  0  0
  148.1447  136.1549  155.6304 C   0  0  0  0  0  0  0  0  0  0  0  0
  151.4486  137.6442  154.1974 C   0  0  0  0  0  0  0  0  0  0  0  0
  152.1508  138.3833  155.3533 C   0  0  0  0  0  0  0  0  0  0  0  0
  153.3424  141.2748  162.3597 H   0  0  0  0  0  0  0  0  0  0  0  0
  154.0461  141.0377  160.7595 H   0  0  0  0  0  0  0  0  0  0  0  0
  152.4166  140.4424  161.1098 H   0  0  0  0  0  0  0  0  0  0  0  0
  152.6201  143.5072  162.7850 H   0  0  0  0  0  0  0  0  0  0  0  0
  151.0664  145.9964  159.8866 H   0  0  0  0  0  0  0  0  0  0  0  0
  151.2998  144.2760  158.1203 H   0  0  0  0  0  0  0  0  0  0  0  0
  153.1649  141.1631  158.6738 H   0  0  0  0  0  0  0  0  0  0  0  0
  152.8592  139.8828  157.2325 H   0  0  0  0  0  0  0  0  0  0  0  0
  151.6300  140.3828  154.7774 H   0  0  0  0  0  0  0  0  0  0  0  0
  149.7405  139.0407  156.7586 H   0  0  0  0  0  0  0  0  0  0  0  0
  149.4750  140.5327  155.8971 H   0  0  0  0  0  0  0  0  0  0  0  0
  148.2655  138.7007  154.7313 H   0  0  0  0  0  0  0  0  0  0  0  0
  149.5019  139.3463  153.7251 H   0  0  0  0  0  0  0  0  0  0  0  0
  150.0053  136.7999  156.4895 H   0  0  0  0  0  0  0  0  0  0  0  0
  150.1743  134.7139  154.2656 H   0  0  0  0  0  0  0  0  0  0  0  0
  151.4832  135.1972  155.3204 H   0  0  0  0  0  0  0  0  0  0  0  0
  150.5493  133.0588  156.0494 H   0  0  0  0  0  0  0  0  0  0  0  0
  150.3936  134.2854  157.2834 H   0  0  0  0  0  0  0  0  0  0  0  0
  148.1813  133.3508  155.3909 H   0  0  0  0  0  0  0  0  0  0  0  0
  148.2884  133.0049  157.1019 H   0  0  0  0  0  0  0  0  0  0  0  0
  146.7177  134.8917  156.6594 H   0  0  0  0  0  0  0  0  0  0  0  0
  148.0592  135.4015  157.6556 H   0  0  0  0  0  0  0  0  0  0  0  0
  147.6112  137.0516  155.9414 H   0  0  0  0  0  0  0  0  0  0  0  0
  147.7491  135.8757  154.6527 H   0  0  0  0  0  0  0  0  0  0  0  0
  151.9604  136.7145  153.9596 H   0  0  0  0  0  0  0  0  0  0  0  0
  151.5425  138.2435  153.2907 H   0  0  0  0  0  0  0  0  0  0  0  0
  153.1993  138.5453  155.0992 H   0  0  0  0  0  0  0  0  0  0  0  0
  152.1508  137.7602  156.2484 H   0  0  0  0  0  0  0  0  0  0  0  0
  149.6101  137.0619  153.6145 H   0  0  0  0  0  0  0  0  0  0  0  0
  1  2  1  0  0  0  0
  1 24  1  0  0  0  0
  1 25  1  0  0  0  0
  1 26  1  0  0  0  0
  2  7  1  0  0  0  0
  2  3  2  0  0  0  0
  3  4  1  0  0  0  0
  3 27  1  0  0  0  0
  4  5  2  0  0  0  0
  5  6  1  0  0  0  0
  5 28  1  0  0  0  0
  6  7  2  0  0  0  0
  6 29  1  0  0  0  0
  7  8  1  0  0  0  0
  8  9  1  0  0  0  0
  8 30  1  0  0  0  0
  9 10  2  0  0  0  0
  9 11  1  0  0  0  0
 11 12  1  0  0  0  0
 11 31  1  0  0  0  0
 12 23  1  0  0  0  0
 12 13  1  0  0  0  0
 12 32  1  0  0  0  0
 13 14  1  0  0  0  0
 13 33  1  0  0  0  0
 13 34  1  0  0  0  0
 14 15  1  0  0  0  0
 14 35  1  0  0  0  0
 14 36  1  0  0  0  0
 15 16  1  0  0  0  0
 15 22  1  0  0  0  0
 15 52  1  0  0  0  0
 16 21  1  0  0  0  0
 16 17  1  0  0  0  0
 16 37  1  0  0  0  0
 17 18  1  0  0  0  0
 17 38  1  0  0  0  0
 17 39  1  0  0  0  0
 18 19  1  0  0  0  0
 18 40  1  0  0  0  0
 18 41  1  0  0  0  0
 19 20  1  0  0  0  0
 19 42  1  0  0  0  0
 19 43  1  0  0  0  0
 20 21  1  0  0  0  0
 20 44  1  0  0  0  0
 20 45  1  0  0  0  0
 21 46  1  0  0  0  0
 21 47  1  0  0  0  0
 22 23  1  0  0  0  0
 22 48  1  0  0  0  0
 22 49  1  0  0  0  0
 23 50  1  0  0  0  0
 23 51  1  0  0  0  0
M  CHG  1  15   1
M  END
> <s_m_source_file>
AV-unprocessed.smi

> <i_m_source_file_index>
2440

> <i_lp_mmshare_version>
43012

> <i_f3d_flags>
0

> <s_epik_input>
W0NIM11jMVtjSF1uW2NIXVtjSF1jMVtOSF1DKD1PKVtOSF1bQ0hdMltDSDJdW0NIMl1OKFtDSDJdW0NIMl0yKVtDSF0zW0NIMl1bQ0gyXVtDSDJdW0NIMl1bQ0gyXTM=

> <s_epik_cmdline>
J2VwaWtfcHl0aG9uJywgJy1waCcsICc3LjAnLCAnLXRuJywgJzgnLCAnLW1hJywgJzIwMCcsICctbWV0YWxfYmluZGluZycsICctaW1hZScsICc8aW5maWxlLm1hZT4nLCAnLW9tYWUnLCAnPG91dGZpbGUubWFlPic=

> <r_epik_Ionization_Penalty>
0.180356

> <r_epik_Ionization_Penalty_Charging>
0.00171891

> <r_epik_Ionization_Penalty_Neutral>
0.178637

> <r_epik_State_Penalty>
0.173134

> <r_epik_Charging_Adjusted_Penalty>
0.174853

> <i_epik_Tot_Q>
1

> <i_epik_Tot_abs_Q>
1

> <r_epik_Metal_State_Penalty>
0.131816

> <b_epik_Metal_Only>
0

> <s_lp_Force_Field>
OPLS_2005

> <r_lp_Energy>
36.8114

> <b_lp_Chiralities_Consistent>
1

> <s_lp_Variant>
AV-unprocessed.smi:2440-2

> <Gold.Version>
5.8.1

> <Gold.Id.Protein>
6NUR|6NUR_protein|mol2

> <Gold.PLP.Fitness>
46.2642

> <Gold.PLP.PLP>
-40.8892

> <Gold.PLP.part.hbond>
-0.9775

> <Gold.PLP.part.metal>
0.0000

> <Gold.PLP.part.buried>
-4.0093

> <Gold.PLP.part.nonpolar>
-36.7354

> <Gold.PLP.part.repulsive>
2.4658

> <Gold.PLP.ligand.clash>
0.0000

> <Gold.PLP.ligand.torsion>
0.3350

> <Gold.PLP.Chemscore.Hbond>
2.0000

> <Gold.PLP.Chemscore.CHOScore>
0.0000

> <Gold.PLP.Chemscore.Metal>
0.0000

> <Gold.Chemscore.Hbonds>
donor molecule, donor type, donor heavy atom, donor atom, acceptor molecule, acceptor atom, score
      L1  H    15    52       P1  7948  2.00

> <Gold.PLP.Chemscore.Internal.Correction>
0.0449

> <Gold.Rescore>
     Score         DG    S(hbond)    S(metal)    S(lipo)     H(rot)  DE(clash)    DE(int)     intcor
     17.51     -20.06       0.97        0.00     122.61       1.17       0.45       2.10       ----

> <Gold.Chemscore.Fitness>
17.5081

> <Gold.Chemscore.DG>
-20.0589

> <Gold.Chemscore.ZeroCoef>
-5.4800

> <Gold.Chemscore.Hbond>
0.9677

> <Gold.Chemscore.Metal>
0.0000

> <Gold.Chemscore.Lipo>
122.6141

> <Gold.Chemscore.Internal_Hbond>
0.0000

> <Gold.Chemscore.DEClash>
0.4503

> <Gold.Chemscore.DEInternal>
2.1005

> <Gold.Chemscore.Rot>
1.1715

> <Gold.Chemscore.Internal.Correction>
   9.000000E+99

> <Gold.Chemscore.Hbonds>
donor molecule, donor type, donor heavy atom, donor atom, acceptor molecule, acceptor atom, score
      L1  H    15    52       P1  7948  0.78

> <Gold.Chemscore.Hbond.Weighted>
-3.2322

> <Gold.Chemscore.Metal.Weighted>
-0.0000

> <Gold.Chemscore.Lipo.Weighted>
-14.3459

> <Gold.Chemscore.Internal_Hbond.Weighted>
0.0000

> <Gold.Chemscore.DEClash.Weighted>
0.4503

> <Gold.Chemscore.DEInternal.Weighted>
2.1005

> <Gold.Chemscore.Rot.Weighted>
2.9991

> <Gold.Chemscore.Internal.Correction.Weighted>
   9.000000E+99

> <Gold.Protein.RotatedTorsions>
[ 6907 6896 6895 6894 ] final -143.92 input  -60.11 | X-H torsion
[ 7974 7965 7964 7962 ] final -127.96 input  175.53 | X-H torsion
[ 8008 7997 7996 7995 ] final  170.84 input   59.86 | X-H torsion
[ 10167 10162 10161 10158 ] final   81.70 input  -65.29 | X-H torsion
[ 10718 10713 10712 10709 ] final  155.28 input   66.30 | X-H torsion
[ 10763 10752 10751 10750 ] final -135.36 input  -60.55 | X-H torsion
[ 11005 11000 10999 10996 ] final   54.26 input  -57.11 | X-H torsion

> <Gold.Protein.ActiveResidues>
 VAL166  LYS551  ARG553  GLY616  TRP617  ASP618  TYR619  PRO620  LYS621  CYS622 
 ASP623  PHE694  ASN695  SER759  ASP760  ASP761  ALA762  ILE779  LEU786  VAL792 
 PHE793  MET794  SER795  GLU796  ALA797  LYS798  CYS799  TRP800  GLU811  SER814 

> <Gold.Protein.RotatedAtoms>
  151.1070  133.5201  159.2607 H   0  0  0  0  0  0  0  0  0  0  0  0  # atno 6907 bound_to 6896
  151.2010  135.0442  159.8882 H   0  0  0  0  0  0  0  0  0  0  0  0  # atno 6908 bound_to 6896
  152.5447  134.0898  159.8325 H   0  0  0  0  0  0  0  0  0  0  0  0  # atno 6909 bound_to 6896
  144.9718  140.7553  143.4666 H   0  0  0  0  0  0  0  0  0  0  0  0  # atno 7974 bound_to 7965
  156.1328  140.1527  156.9040 H   0  0  0  0  0  0  0  0  0  0  0  0  # atno 8008 bound_to 7997
  154.4922  140.0848  156.7660 H   0  0  0  0  0  0  0  0  0  0  0  0  # atno 8009 bound_to 7997
  155.4225  140.3423  155.4275 H   0  0  0  0  0  0  0  0  0  0  0  0  # atno 8010 bound_to 7997
  139.9365  144.6118  150.8293 H   0  0  0  0  0  0  0  0  0  0  0  0  # atno 10167 bound_to 10162
  157.2205  131.0717  151.1915 H   0  0  0  0  0  0  0  0  0  0  0  0  # atno 10718 bound_to 10713
  154.8704  135.3706  154.4886 H   0  0  0  0  0  0  0  0  0  0  0  0  # atno 10763 bound_to 10752
  153.5534  135.7024  153.5585 H   0  0  0  0  0  0  0  0  0  0  0  0  # atno 10764 bound_to 10752
  153.3694  135.4025  155.1741 H   0  0  0  0  0  0  0  0  0  0  0  0  # atno 10765 bound_to 10752
  140.0701  134.5482  155.9056 H   0  0  0  0  0  0  0  0  0  0  0  0  # atno 11005 bound_to 11000
  145.2548  139.2017  143.4923 LP  0  0  0  0  0  0  0  0  0  0  0  0  # atno 17320 bound_to 7965
  146.3384  140.2467  142.8597 LP  0  0  0  0  0  0  0  0  0  0  0  0  # atno 17321 bound_to 7965
  140.7623  143.3194  151.2656 LP  0  0  0  0  0  0  0  0  0  0  0  0  # atno 17342 bound_to 10162
  139.6739  143.9972  152.2769 LP  0  0  0  0  0  0  0  0  0  0  0  0  # atno 17343 bound_to 10162
  157.3581  130.7117  149.6484 LP  0  0  0  0  0  0  0  0  0  0  0  0  # atno 17370 bound_to 10713
  155.9683  130.4233  150.4557 LP  0  0  0  0  0  0  0  0  0  0  0  0  # atno 17371 bound_to 10713
  141.2008  133.6615  156.5918 LP  0  0  0  0  0  0  0  0  0  0  0  0  # atno 17394 bound_to 11000
  140.3640  134.7663  157.4553 LP  0  0  0  0  0  0  0  0  0  0  0  0  # atno 17395 bound_to 11000

$$$$
