AV-unprocessed.smi:2866|AV-procd|sdf|11020|dock10
  -GOLD-   2272015483D 1   1.00000     0.00000
 Structure written by MMmdl.
 41 43  0  0  0  0  0  0  0  0  1 V2000
  152.8278  143.0235  161.2971 C   0  0  0  0  0  0  0  0  0  0  0  0
  152.2914  142.5790  159.9479 C   0  0  0  0  0  0  0  0  0  0  0  0
  152.7264  141.3480  159.4074 C   0  0  0  0  0  0  0  0  0  0  0  0
  152.2470  140.8955  158.1587 C   0  0  0  0  0  0  0  0  0  0  0  0
  152.5284  139.7377  157.4536 N   0  0  0  0  0  0  0  0  0  0  0  0
  151.7713  139.8922  156.3713 C   0  0  0  0  0  0  0  0  0  0  0  0
  151.0320  141.0151  156.2911 N   0  0  0  0  0  0  0  0  0  0  0  0
  150.1358  141.3932  155.2131 C   0  0  0  0  0  0  0  0  0  0  0  0
  148.6499  141.2494  155.6058 C   0  0  1  0  0  0  0  0  0  0  0  0
  148.2734  142.3073  156.4650 O   0  0  0  0  0  0  0  0  0  0  0  0
  147.6910  141.2486  154.3987 C   0  0  0  0  0  0  0  0  0  0  0  0
  146.6189  142.2198  154.5247 N   0  0  0  0  0  0  0  0  0  0  0  0
  146.2126  143.1713  153.6146 C   0  0  0  0  0  0  0  0  0  0  0  0
  145.1787  143.8591  154.1817 C   0  0  0  0  0  0  0  0  0  0  0  0
  145.0218  143.2559  155.4635 C   0  0  0  0  0  0  0  0  0  0  0  0
  144.0296  143.5998  156.5432 C   0  0  0  0  0  0  0  0  0  0  0  0
  142.7849  143.4199  156.1014 F   0  0  0  0  0  0  0  0  0  0  0  0
  144.2249  142.8177  157.6048 F   0  0  0  0  0  0  0  0  0  0  0  0
  144.1758  144.8735  156.9080 F   0  0  0  0  0  0  0  0  0  0  0  0
  145.8932  142.2759  155.6618 N   0  0  0  0  0  0  0  0  0  0  0  0
  151.3156  141.7163  157.4581 C   0  0  0  0  0  0  0  0  0  0  0  0
  150.8776  142.9444  157.9840 C   0  0  0  0  0  0  0  0  0  0  0  0
  151.3638  143.3801  159.2345 C   0  0  0  0  0  0  0  0  0  0  0  0
  150.8796  144.7049  159.7965 C   0  0  0  0  0  0  0  0  0  0  0  0
  153.5365  142.3002  161.7013 H   0  0  0  0  0  0  0  0  0  0  0  0
  152.0138  143.1315  162.0143 H   0  0  0  0  0  0  0  0  0  0  0  0
  153.3415  143.9810  161.2085 H   0  0  0  0  0  0  0  0  0  0  0  0
  153.4324  140.7368  159.9503 H   0  0  0  0  0  0  0  0  0  0  0  0
  151.7499  139.1449  155.5914 H   0  0  0  0  0  0  0  0  0  0  0  0
  150.3567  142.4197  154.9181 H   0  0  0  0  0  0  0  0  0  0  0  0
  150.3676  140.7668  154.3509 H   0  0  0  0  0  0  0  0  0  0  0  0
  148.5200  140.3195  156.1610 H   0  0  0  0  0  0  0  0  0  0  0  0
  148.5995  143.1175  156.1031 H   0  0  0  0  0  0  0  0  0  0  0  0
  148.2381  141.4627  153.4793 H   0  0  0  0  0  0  0  0  0  0  0  0
  147.2453  140.2607  154.2738 H   0  0  0  0  0  0  0  0  0  0  0  0
  146.6860  143.2777  152.6495 H   0  0  0  0  0  0  0  0  0  0  0  0
  144.6185  144.6738  153.7472 H   0  0  0  0  0  0  0  0  0  0  0  0
  150.1693  143.5436  157.4310 H   0  0  0  0  0  0  0  0  0  0  0  0
  150.1718  145.1885  159.1226 H   0  0  0  0  0  0  0  0  0  0  0  0
  151.7174  145.3864  159.9464 H   0  0  0  0  0  0  0  0  0  0  0  0
  150.3801  144.5540  160.7538 H   0  0  0  0  0  0  0  0  0  0  0  0
  1  2  1  0  0  0  0
  1 25  1  0  0  0  0
  1 26  1  0  0  0  0
  1 27  1  0  0  0  0
  2 23  1  0  0  0  0
  2  3  2  0  0  0  0
  3  4  1  0  0  0  0
  3 28  1  0  0  0  0
  4 21  2  0  0  0  0
  4  5  1  0  0  0  0
  5  6  2  0  0  0  0
  6  7  1  0  0  0  0
  6 29  1  0  0  0  0
  7  8  1  0  0  0  0
  7 21  1  0  0  0  0
  8  9  1  0  0  0  0
  8 30  1  0  0  0  0
  8 31  1  0  0  0  0
  9 10  1  0  0  0  0
  9 11  1  0  0  0  0
  9 32  1  0  0  0  0
 10 33  1  0  0  0  0
 11 12  1  0  0  0  0
 11 34  1  0  0  0  0
 11 35  1  0  0  0  0
 12 20  1  0  0  0  0
 12 13  1  0  0  0  0
 13 14  2  0  0  0  0
 13 36  1  0  0  0  0
 14 15  1  0  0  0  0
 14 37  1  0  0  0  0
 15 16  1  0  0  0  0
 15 20  2  0  0  0  0
 16 17  1  0  0  0  0
 16 18  1  0  0  0  0
 16 19  1  0  0  0  0
 21 22  1  0  0  0  0
 22 23  2  0  0  0  0
 22 38  1  0  0  0  0
 23 24  1  0  0  0  0
 24 39  1  0  0  0  0
 24 40  1  0  0  0  0
 24 41  1  0  0  0  0
M  END
> <s_m_source_file>
AV-unprocessed.smi

> <i_m_source_file_index>
2866

> <i_lp_mmshare_version>
43012

> <i_f3d_flags>
0

> <s_epik_input>
W0NIM11jKFtjSF0xKWMoW0NIM10pW2NIXWMoYzEyKW4oW2NIXW4yKVtDSDJdW0NASF0oW09IXSlbQ0gyXW4zW2NIXVtjSF1jKG4zKUMoRikoRilG

> <s_epik_cmdline>
J2VwaWtfcHl0aG9uJywgJy1waCcsICc3LjAnLCAnLXRuJywgJzgnLCAnLW1hJywgJzIwMCcsICctbWV0YWxfYmluZGluZycsICctaW1hZScsICc8aW5maWxlLm1hZT4nLCAnLW9tYWUnLCAnPG91dGZpbGUubWFlPic=

> <r_lp_tautomer_probability>
1

> <r_epik_Ionization_Penalty>
0.1021

> <r_epik_Ionization_Penalty_Charging>
0

> <r_epik_Ionization_Penalty_Neutral>
0.1021

> <r_epik_State_Penalty>
0.0920694

> <r_epik_Charging_Adjusted_Penalty>
0.0920694

> <i_epik_Tot_Q>
0

> <i_epik_Tot_abs_Q>
0

> <r_epik_Metal_State_Penalty>
0.0784291

> <b_epik_Metal_Only>
0

> <s_lp_Force_Field>
OPLS_2005

> <r_lp_Energy>
10.7654

> <b_lp_Chiralities_Consistent>
1

> <s_lp_Variant>
AV-unprocessed.smi:2866-2

> <Gold.Version>
5.8.1

> <Gold.Id.Protein>
6NUR|6NUR_protein|mol2

> <Gold.PLP.Fitness>
51.5399

> <Gold.PLP.PLP>
-47.7225

> <Gold.PLP.part.hbond>
-2.0000

> <Gold.PLP.part.metal>
0.0000

> <Gold.PLP.part.buried>
-6.5143

> <Gold.PLP.part.nonpolar>
-39.9317

> <Gold.PLP.part.repulsive>
0.1353

> <Gold.PLP.ligand.clash>
0.0000

> <Gold.PLP.ligand.torsion>
1.1074

> <Gold.PLP.Chemscore.Hbond>
2.0000

> <Gold.PLP.Chemscore.CHOScore>
0.0000

> <Gold.PLP.Chemscore.Metal>
0.0000

> <Gold.Chemscore.Hbonds>
donor molecule, donor type, donor heavy atom, donor atom, acceptor molecule, acceptor atom, score
      L1  H    10    33       P1  8028  1.00
      P1  H  7997  8008       L1     5  0.94

> <Gold.PLP.Chemscore.Internal.Correction>
0.0321

> <Gold.Rescore>
     Score         DG    S(hbond)    S(metal)    S(lipo)     H(rot)  DE(clash)    DE(int)     intcor
     14.37     -17.59       1.41        0.00     116.22       2.42       0.36       2.86       ----

> <Gold.Chemscore.Fitness>
14.3687

> <Gold.Chemscore.DG>
-17.5930

> <Gold.Chemscore.ZeroCoef>
-5.4800

> <Gold.Chemscore.Hbond>
1.4137

> <Gold.Chemscore.Metal>
0.0000

> <Gold.Chemscore.Lipo>
116.2186

> <Gold.Chemscore.Internal_Hbond>
0.0000

> <Gold.Chemscore.DEClash>
0.3598

> <Gold.Chemscore.DEInternal>
2.8645

> <Gold.Chemscore.Rot>
2.4243

> <Gold.Chemscore.Internal.Correction>
   9.000000E+99

> <Gold.Chemscore.Hbonds>
donor molecule, donor type, donor heavy atom, donor atom, acceptor molecule, acceptor atom, score
      L1  H    10    33       P1  8028  0.97
      P1  H  7997  8008       L1     5  0.17

> <Gold.Chemscore.Hbond.Weighted>
-4.7217

> <Gold.Chemscore.Metal.Weighted>
-0.0000

> <Gold.Chemscore.Lipo.Weighted>
-13.5976

> <Gold.Chemscore.Internal_Hbond.Weighted>
0.0000

> <Gold.Chemscore.DEClash.Weighted>
0.3598

> <Gold.Chemscore.DEInternal.Weighted>
2.8645

> <Gold.Chemscore.Rot.Weighted>
6.2063

> <Gold.Chemscore.Internal.Correction.Weighted>
   9.000000E+99

> <Gold.Protein.RotatedTorsions>
[ 6907 6896 6895 6894 ] final  -55.49 input  -60.11 | X-H torsion
[ 7974 7965 7964 7962 ] final  104.42 input  175.53 | X-H torsion
[ 8008 7997 7996 7995 ] final  -74.42 input   59.86 | X-H torsion
[ 10167 10162 10161 10158 ] final  -28.34 input  -65.29 | X-H torsion
[ 10718 10713 10712 10709 ] final -119.30 input   66.30 | X-H torsion
[ 10763 10752 10751 10750 ] final   46.02 input  -60.55 | X-H torsion
[ 11005 11000 10999 10996 ] final   82.53 input  -57.11 | X-H torsion

> <Gold.Protein.ActiveResidues>
 VAL166  LYS551  ARG553  GLY616  TRP617  ASP618  TYR619  PRO620  LYS621  CYS622 
 ASP623  PHE694  ASN695  SER759  ASP760  ASP761  ALA762  ILE779  LEU786  VAL792 
 PHE793  MET794  SER795  GLU796  ALA797  LYS798  CYS799  TRP800  GLU811  SER814 

> <Gold.Protein.RotatedAtoms>
  150.8247  134.7472  159.6802 H   0  0  0  0  0  0  0  0  0  0  0  0  # atno 6907 bound_to 6896
  152.4359  134.5684  159.9924 H   0  0  0  0  0  0  0  0  0  0  0  0  # atno 6908 bound_to 6896
  151.5859  133.3334  159.3054 H   0  0  0  0  0  0  0  0  0  0  0  0  # atno 6909 bound_to 6896
  145.3330  139.2482  143.3651 H   0  0  0  0  0  0  0  0  0  0  0  0  # atno 7974 bound_to 7965
  154.5329  140.0761  156.8377 H   0  0  0  0  0  0  0  0  0  0  0  0  # atno 8008 bound_to 7997
  155.3337  140.3403  155.4221 H   0  0  0  0  0  0  0  0  0  0  0  0  # atno 8009 bound_to 7997
  156.1800  140.1649  156.8279 H   0  0  0  0  0  0  0  0  0  0  0  0  # atno 8010 bound_to 7997
  140.7270  143.4018  151.1253 H   0  0  0  0  0  0  0  0  0  0  0  0  # atno 10167 bound_to 10162
  156.1171  130.6294  150.9400 H   0  0  0  0  0  0  0  0  0  0  0  0  # atno 10718 bound_to 10713
  152.9816  135.6021  154.3532 H   0  0  0  0  0  0  0  0  0  0  0  0  # atno 10763 bound_to 10752
  154.3220  135.2769  155.2517 H   0  0  0  0  0  0  0  0  0  0  0  0  # atno 10764 bound_to 10752
  154.4679  135.5949  153.6357 H   0  0  0  0  0  0  0  0  0  0  0  0  # atno 10765 bound_to 10752
  139.9060  134.8078  156.2187 H   0  0  0  0  0  0  0  0  0  0  0  0  # atno 11005 bound_to 11000
  146.3038  140.3911  142.8694 LP  0  0  0  0  0  0  0  0  0  0  0  0  # atno 17320 bound_to 7965
  144.8849  140.7449  143.5963 LP  0  0  0  0  0  0  0  0  0  0  0  0  # atno 17321 bound_to 7965
  139.7638  143.8595  152.3106 LP  0  0  0  0  0  0  0  0  0  0  0  0  # atno 17342 bound_to 10162
  139.8490  144.7173  150.9237 LP  0  0  0  0  0  0  0  0  0  0  0  0  # atno 17343 bound_to 10162
  157.6354  131.0916  150.8358 LP  0  0  0  0  0  0  0  0  0  0  0  0  # atno 17370 bound_to 10713
  156.8460  130.5064  149.5316 LP  0  0  0  0  0  0  0  0  0  0  0  0  # atno 17371 bound_to 10713
  141.0419  133.6933  156.1613 LP  0  0  0  0  0  0  0  0  0  0  0  0  # atno 17394 bound_to 11000
  140.6942  134.4633  157.5588 LP  0  0  0  0  0  0  0  0  0  0  0  0  # atno 17395 bound_to 11000

$$$$
