AV-unprocessed.smi:1538|AV-procd|sdf|6195|dock10
  -GOLD-   22720 6363D 1   1.00000     0.00000
 Structure written by MMmdl.
 36 37  0  0  0  0  0  0  0  0  1 V2000
  152.5170  143.4841  161.0072 C   0  0  0  0  0  0  0  0  0  0  0  0
  152.0768  142.9369  159.7226 N   0  0  0  0  0  0  0  0  0  0  0  0
  151.0127  143.6997  159.0546 C   0  0  0  0  0  0  0  0  0  0  0  0
  150.2830  142.9073  157.9625 C   0  0  0  0  0  0  0  0  0  0  0  0
  151.3008  142.2214  157.0421 C   0  0  2  0  0  0  0  0  0  0  0  0
  150.5905  141.4758  155.9040 C   0  0  0  0  0  0  0  0  0  0  0  0
  151.0839  140.4538  155.4257 O   0  0  0  0  0  0  0  0  0  0  0  0
  149.4306  141.9994  155.4783 N   0  0  0  0  0  0  0  0  0  0  0  0
  148.6087  141.4517  154.4059 C   0  0  0  0  0  0  0  0  0  0  0  0
  147.3418  142.2930  154.1800 C   0  0  0  0  0  0  0  0  0  0  0  0
  146.4324  142.1940  155.3029 N   0  0  0  0  0  0  0  0  0  0  0  0
  146.7045  142.4993  156.6298 C   0  0  0  0  0  0  0  0  0  0  0  0
  145.5470  142.2557  157.3341 C   0  0  0  0  0  0  0  0  0  0  0  0
  144.5561  141.8037  156.4657 N   0  0  0  0  0  0  0  0  0  0  0  0
  145.1539  141.7935  155.2812 C   0  0  0  0  0  0  0  0  0  0  0  0
  152.1801  141.2606  157.8676 C   0  0  0  0  0  0  0  0  0  0  0  0
  152.6856  141.8462  159.1970 C   0  0  0  0  0  0  0  0  0  0  0  0
  153.6205  141.2763  159.7605 O   0  0  0  0  0  0  0  0  0  0  0  0
  153.5886  143.6892  160.9966 H   0  0  0  0  0  0  0  0  0  0  0  0
  152.3122  142.7770  161.8122 H   0  0  0  0  0  0  0  0  0  0  0  0
  152.0122  144.4195  161.2514 H   0  0  0  0  0  0  0  0  0  0  0  0
  150.2828  144.0463  159.7875 H   0  0  0  0  0  0  0  0  0  0  0  0
  151.4636  144.5915  158.6177 H   0  0  0  0  0  0  0  0  0  0  0  0
  149.6346  142.1633  158.4286 H   0  0  0  0  0  0  0  0  0  0  0  0
  149.6331  143.5746  157.3945 H   0  0  0  0  0  0  0  0  0  0  0  0
  151.9426  142.9898  156.6061 H   0  0  0  0  0  0  0  0  0  0  0  0
  149.0954  142.8396  155.9272 H   0  0  0  0  0  0  0  0  0  0  0  0
  149.1922  141.3810  153.4863 H   0  0  0  0  0  0  0  0  0  0  0  0
  148.3343  140.4320  154.6782 H   0  0  0  0  0  0  0  0  0  0  0  0
  147.6007  143.3424  154.0320 H   0  0  0  0  0  0  0  0  0  0  0  0
  146.8147  141.9664  153.2826 H   0  0  0  0  0  0  0  0  0  0  0  0
  147.6716  142.8555  156.9536 H   0  0  0  0  0  0  0  0  0  0  0  0
  145.3525  142.3705  158.3902 H   0  0  0  0  0  0  0  0  0  0  0  0
  144.6494  141.4880  154.3762 H   0  0  0  0  0  0  0  0  0  0  0  0
  151.6270  140.3526  158.1126 H   0  0  0  0  0  0  0  0  0  0  0  0
  153.0392  140.9461  157.2735 H   0  0  0  0  0  0  0  0  0  0  0  0
  1  2  1  0  0  0  0
  1 19  1  0  0  0  0
  1 20  1  0  0  0  0
  1 21  1  0  0  0  0
  2 17  1  0  0  0  0
  2  3  1  0  0  0  0
  3  4  1  0  0  0  0
  3 22  1  0  0  0  0
  3 23  1  0  0  0  0
  4  5  1  0  0  0  0
  4 24  1  0  0  0  0
  4 25  1  0  0  0  0
  5  6  1  0  0  0  0
  5 16  1  0  0  0  0
  5 26  1  0  0  0  0
  6  7  2  0  0  0  0
  6  8  1  0  0  0  0
  8  9  1  0  0  0  0
  8 27  1  0  0  0  0
  9 10  1  0  0  0  0
  9 28  1  0  0  0  0
  9 29  1  0  0  0  0
 10 11  1  0  0  0  0
 10 30  1  0  0  0  0
 10 31  1  0  0  0  0
 11 15  1  0  0  0  0
 11 12  1  0  0  0  0
 12 13  2  0  0  0  0
 12 32  1  0  0  0  0
 13 14  1  0  0  0  0
 13 33  1  0  0  0  0
 14 15  2  0  0  0  0
 15 34  1  0  0  0  0
 16 17  1  0  0  0  0
 16 35  1  0  0  0  0
 16 36  1  0  0  0  0
 17 18  2  0  0  0  0
M  END
> <s_m_source_file>
AV-unprocessed.smi

> <i_m_source_file_index>
1538

> <i_lp_mmshare_version>
43012

> <i_f3d_flags>
0

> <s_epik_input>
W0NIM11OMVtDSDJdW0NIMl1bQ0BIXShbQ0gyXUMxPU8pQyg9TylbTkhdW0NIMl1bQ0gyXW4yW2NIXVtjSF1uW2NIXTI=

> <s_epik_cmdline>
J2VwaWtfcHl0aG9uJywgJy1waCcsICc3LjAnLCAnLXRuJywgJzgnLCAnLW1hJywgJzIwMCcsICctbWV0YWxfYmluZGluZycsICctaW1hZScsICc8aW5maWxlLm1hZT4nLCAnLW9tYWUnLCAnPG91dGZpbGUubWFlPic=

> <r_lp_tautomer_probability>
1

> <r_epik_Ionization_Penalty>
0.590576

> <r_epik_Ionization_Penalty_Charging>
0.590576

> <r_epik_Ionization_Penalty_Neutral>
2.97775e-08

> <r_epik_State_Penalty>
0.604111

> <r_epik_Charging_Adjusted_Penalty>
1.19469

> <i_epik_Tot_Q>
0

> <i_epik_Tot_abs_Q>
0

> <r_epik_Metal_State_Penalty>
0.298544

> <b_epik_Metal_Only>
0

> <s_lp_Force_Field>
OPLS_2005

> <r_lp_Energy>
14.6501

> <b_lp_Chiralities_Consistent>
1

> <s_lp_Variant>
AV-unprocessed.smi:1538-4

> <Gold.Version>
5.8.1

> <Gold.Id.Protein>
6NUR|6NUR_protein|mol2

> <Gold.PLP.Fitness>
42.9527

> <Gold.PLP.PLP>
-34.3934

> <Gold.PLP.part.hbond>
-2.0000

> <Gold.PLP.part.metal>
0.0000

> <Gold.PLP.part.buried>
-4.6234

> <Gold.PLP.part.nonpolar>
-26.3827

> <Gold.PLP.part.repulsive>
0.2454

> <Gold.PLP.ligand.clash>
0.0000

> <Gold.PLP.ligand.torsion>
0.7625

> <Gold.PLP.Chemscore.Hbond>
1.8000

> <Gold.PLP.Chemscore.CHOScore>
1.5585

> <Gold.PLP.Chemscore.Metal>
0.0000

> <Gold.Chemscore.Hbonds>
donor molecule, donor type, donor heavy atom, donor atom, acceptor molecule, acceptor atom, score
      L1  H     8    27       P1  8028  0.85
      P1  H  7989  7998       L1     7  0.94
      L1  C    12    32       P1  8028  0.53
      L1  C    15    34       P1 10175  1.00

> <Gold.PLP.Chemscore.Internal.Correction>
0.0089

> <Gold.Rescore>
     Score         DG    S(hbond)    S(metal)    S(lipo)     H(rot)  DE(clash)    DE(int)     intcor
     11.77     -13.01       1.56        0.00      63.08       1.98       0.45       0.80       ----

> <Gold.Chemscore.Fitness>
11.7703

> <Gold.Chemscore.DG>
-13.0122

> <Gold.Chemscore.ZeroCoef>
-5.4800

> <Gold.Chemscore.Hbond>
1.5617

> <Gold.Chemscore.Metal>
0.0000

> <Gold.Chemscore.Lipo>
63.0817

> <Gold.Chemscore.Internal_Hbond>
0.0000

> <Gold.Chemscore.DEClash>
0.4465

> <Gold.Chemscore.DEInternal>
0.7954

> <Gold.Chemscore.Rot>
1.9782

> <Gold.Chemscore.Internal.Correction>
   9.000000E+99

> <Gold.Chemscore.Hbonds>
donor molecule, donor type, donor heavy atom, donor atom, acceptor molecule, acceptor atom, score
      L1  H     8    27       P1  8028  0.83
      P1  H  7989  7998       L1     7  0.51

> <Gold.Chemscore.Hbond.Weighted>
-5.2159

> <Gold.Chemscore.Metal.Weighted>
-0.0000

> <Gold.Chemscore.Lipo.Weighted>
-7.3806

> <Gold.Chemscore.Internal_Hbond.Weighted>
0.0000

> <Gold.Chemscore.DEClash.Weighted>
0.4465

> <Gold.Chemscore.DEInternal.Weighted>
0.7954

> <Gold.Chemscore.Rot.Weighted>
5.0643

> <Gold.Chemscore.Internal.Correction.Weighted>
   9.000000E+99

> <Gold.Protein.RotatedTorsions>
[ 6907 6896 6895 6894 ] final   60.69 input  -60.11 | X-H torsion
[ 7974 7965 7964 7962 ] final   83.17 input  175.53 | X-H torsion
[ 8008 7997 7996 7995 ] final  -51.13 input   59.86 | X-H torsion
[ 10167 10162 10161 10158 ] final  126.70 input  -65.29 | X-H torsion
[ 10718 10713 10712 10709 ] final  -82.55 input   66.30 | X-H torsion
[ 10763 10752 10751 10750 ] final  130.32 input  -60.55 | X-H torsion
[ 11005 11000 10999 10996 ] final   52.25 input  -57.11 | X-H torsion

> <Gold.Protein.ActiveResidues>
 VAL166  LYS551  ARG553  GLY616  TRP617  ASP618  TYR619  PRO620  LYS621  CYS622 
 ASP623  PHE694  ASN695  SER759  ASP760  ASP761  ALA762  ILE779  LEU786  VAL792 
 PHE793  MET794  SER795  GLU796  ALA797  LYS798  CYS799  TRP800  GLU811  SER814 

> <Gold.Protein.RotatedAtoms>
  152.4025  134.6263  160.0063 H   0  0  0  0  0  0  0  0  0  0  0  0  # atno 6907 bound_to 6896
  151.6464  133.3317  159.3150 H   0  0  0  0  0  0  0  0  0  0  0  0  # atno 6908 bound_to 6896
  150.7923  134.6999  159.6589 H   0  0  0  0  0  0  0  0  0  0  0  0  # atno 6909 bound_to 6896
  145.6154  139.2376  143.2168 H   0  0  0  0  0  0  0  0  0  0  0  0  # atno 7974 bound_to 7965
  154.4076  140.1255  156.4779 H   0  0  0  0  0  0  0  0  0  0  0  0  # atno 8008 bound_to 7997
  155.7115  140.3494  155.4956 H   0  0  0  0  0  0  0  0  0  0  0  0  # atno 8009 bound_to 7997
  155.9296  140.1067  157.1132 H   0  0  0  0  0  0  0  0  0  0  0  0  # atno 8010 bound_to 7997
  139.5617  144.6886  151.4025 H   0  0  0  0  0  0  0  0  0  0  0  0  # atno 10167 bound_to 10162
  156.0031  130.4638  150.4122 H   0  0  0  0  0  0  0  0  0  0  0  0  # atno 10718 bound_to 10713
  153.7561  135.3203  155.3329 H   0  0  0  0  0  0  0  0  0  0  0  0  # atno 10763 bound_to 10752
  154.8246  135.4579  154.0884 H   0  0  0  0  0  0  0  0  0  0  0  0  # atno 10764 bound_to 10752
  153.2101  135.6934  153.8208 H   0  0  0  0  0  0  0  0  0  0  0  0  # atno 10765 bound_to 10752
  140.0865  134.5267  155.8894 H   0  0  0  0  0  0  0  0  0  0  0  0  # atno 11005 bound_to 11000
  146.1472  140.6976  142.9339 LP  0  0  0  0  0  0  0  0  0  0  0  0  # atno 17320 bound_to 7965
  144.7253  140.4503  143.6978 LP  0  0  0  0  0  0  0  0  0  0  0  0  # atno 17321 bound_to 7965
  140.6897  143.7890  150.7237 LP  0  0  0  0  0  0  0  0  0  0  0  0  # atno 17342 bound_to 10162
  140.1369  143.4476  152.2219 LP  0  0  0  0  0  0  0  0  0  0  0  0  # atno 17343 bound_to 10162
  157.2184  131.0476  151.2560 LP  0  0  0  0  0  0  0  0  0  0  0  0  # atno 17370 bound_to 10713
  157.3824  130.7238  149.6639 LP  0  0  0  0  0  0  0  0  0  0  0  0  # atno 17371 bound_to 10713
  141.2064  133.6655  156.6240 LP  0  0  0  0  0  0  0  0  0  0  0  0  # atno 17394 bound_to 11000
  140.3413  134.7846  157.4400 LP  0  0  0  0  0  0  0  0  0  0  0  0  # atno 17395 bound_to 11000

$$$$
