AV-unprocessed.smi:1531|AV-procd|sdf|6156|dock7
  -GOLD-   22720 6303D 1   1.00000     0.00000
 Structure written by MMmdl.
 44 45  0  0  0  0  0  0  0  0  1 V2000
  151.9185  145.7558  159.9669 C   0  0  0  0  0  0  0  0  0  0  0  0
  151.8482  144.7605  158.7999 C   0  0  0  0  0  0  0  0  0  0  0  0
  151.8740  143.2729  159.2292 C   0  0  2  0  0  0  0  0  0  0  0  0
  153.1141  142.9551  160.0972 C   0  0  0  0  0  0  0  0  0  0  0  0
  153.1670  141.4802  160.5219 C   0  0  0  0  0  0  0  0  0  0  0  0
  153.1284  140.5533  159.3016 C   0  0  0  0  0  0  0  0  0  0  0  0
  151.8872  140.8345  158.4457 C   0  0  0  0  0  0  0  0  0  0  0  0
  151.8165  142.3132  158.0100 C   0  0  1  0  0  0  0  0  0  0  0  0
  150.5925  142.5282  157.2392 N   0  0  0  0  0  0  0  0  0  0  0  0
  150.1102  141.7007  156.3010 C   0  0  0  0  0  0  0  0  0  0  0  0
  150.6534  140.6439  155.9795 O   0  0  0  0  0  0  0  0  0  0  0  0
  148.9705  142.1745  155.7721 N   0  0  0  0  0  0  0  0  0  0  0  0
  148.1752  141.5675  154.7683 C   0  0  0  0  0  0  0  0  0  0  0  0
  147.1363  142.1334  153.9765 C   0  0  0  0  0  0  0  0  0  0  0  0
  146.6319  141.2362  153.1426 N   0  0  0  0  0  0  0  0  0  0  0  0
  147.3290  140.0977  153.3841 N   0  0  0  0  0  0  0  0  0  0  0  0
  147.0267  138.8955  152.6281 C   0  0  0  0  0  0  0  0  0  0  0  0
  146.1001  137.9647  153.4123 C   0  0  0  0  0  0  0  0  0  0  0  0
  144.8888  138.4325  153.7247 N   0  0  0  0  0  0  0  0  0  0  0  0
  146.4726  136.8371  153.7290 O   0  0  0  0  0  0  0  0  0  0  0  0
  148.2774  140.2675  154.3740 C   0  0  0  0  0  0  0  0  0  0  0  0
  151.7993  146.7778  159.6068 H   0  0  0  0  0  0  0  0  0  0  0  0
  152.8747  145.7069  160.4867 H   0  0  0  0  0  0  0  0  0  0  0  0
  151.1278  145.5675  160.6935 H   0  0  0  0  0  0  0  0  0  0  0  0
  150.9307  144.9738  158.2520 H   0  0  0  0  0  0  0  0  0  0  0  0
  152.6636  144.9579  158.1030 H   0  0  0  0  0  0  0  0  0  0  0  0
  150.9871  143.0869  159.8372 H   0  0  0  0  0  0  0  0  0  0  0  0
  154.0216  143.2047  159.5460 H   0  0  0  0  0  0  0  0  0  0  0  0
  153.1206  143.5724  160.9949 H   0  0  0  0  0  0  0  0  0  0  0  0
  154.0713  141.2929  161.1018 H   0  0  0  0  0  0  0  0  0  0  0  0
  152.3258  141.2573  161.1797 H   0  0  0  0  0  0  0  0  0  0  0  0
  154.0284  140.6949  158.7018 H   0  0  0  0  0  0  0  0  0  0  0  0
  153.1306  139.5117  159.6238 H   0  0  0  0  0  0  0  0  0  0  0  0
  151.8972  140.1846  157.5698 H   0  0  0  0  0  0  0  0  0  0  0  0
  150.9923  140.5734  159.0125 H   0  0  0  0  0  0  0  0  0  0  0  0
  152.6801  142.5273  157.3769 H   0  0  0  0  0  0  0  0  0  0  0  0
  150.0772  143.3734  157.4360 H   0  0  0  0  0  0  0  0  0  0  0  0
  148.6309  143.0542  156.1326 H   0  0  0  0  0  0  0  0  0  0  0  0
  146.7342  143.1353  153.9705 H   0  0  0  0  0  0  0  0  0  0  0  0
  146.5687  139.1658  151.6752 H   0  0  0  0  0  0  0  0  0  0  0  0
  147.9620  138.3828  152.3993 H   0  0  0  0  0  0  0  0  0  0  0  0
  144.2404  137.8491  154.2341 H   0  0  0  0  0  0  0  0  0  0  0  0
  144.6223  139.3644  153.4427 H   0  0  0  0  0  0  0  0  0  0  0  0
  148.9251  139.4669  154.7002 H   0  0  0  0  0  0  0  0  0  0  0  0
  1  2  1  0  0  0  0
  1 22  1  0  0  0  0
  1 23  1  0  0  0  0
  1 24  1  0  0  0  0
  2  3  1  0  0  0  0
  2 25  1  0  0  0  0
  2 26  1  0  0  0  0
  3  8  1  0  0  0  0
  3  4  1  0  0  0  0
  3 27  1  0  0  0  0
  4  5  1  0  0  0  0
  4 28  1  0  0  0  0
  4 29  1  0  0  0  0
  5  6  1  0  0  0  0
  5 30  1  0  0  0  0
  5 31  1  0  0  0  0
  6  7  1  0  0  0  0
  6 32  1  0  0  0  0
  6 33  1  0  0  0  0
  7  8  1  0  0  0  0
  7 34  1  0  0  0  0
  7 35  1  0  0  0  0
  8  9  1  0  0  0  0
  8 36  1  0  0  0  0
  9 10  1  0  0  0  0
  9 37  1  0  0  0  0
 10 11  2  0  0  0  0
 10 12  1  0  0  0  0
 12 13  1  0  0  0  0
 12 38  1  0  0  0  0
 13 21  2  0  0  0  0
 13 14  1  0  0  0  0
 14 15  2  0  0  0  0
 14 39  1  0  0  0  0
 15 16  1  0  0  0  0
 16 17  1  0  0  0  0
 16 21  1  0  0  0  0
 17 18  1  0  0  0  0
 17 40  1  0  0  0  0
 17 41  1  0  0  0  0
 18 19  1  0  0  0  0
 18 20  2  0  0  0  0
 19 42  1  0  0  0  0
 19 43  1  0  0  0  0
 21 44  1  0  0  0  0
M  END
> <s_m_source_file>
AV-unprocessed.smi

> <i_m_source_file_index>
1531

> <i_lp_mmshare_version>
43012

> <i_f3d_flags>
0

> <s_epik_input>
W0NIM11bQ0gyXVtDQEBIXTFbQ0gyXVtDSDJdW0NIMl1bQ0gyXVtDQEhdMVtOSF1DKD1PKVtOSF1jMltjSF1ubihbY0hdMilbQ0gyXUMoPU8pW05IMl0=

> <s_epik_cmdline>
J2VwaWtfcHl0aG9uJywgJy1waCcsICc3LjAnLCAnLXRuJywgJzgnLCAnLW1hJywgJzIwMCcsICctbWV0YWxfYmluZGluZycsICctaW1hZScsICc8aW5maWxlLm1hZT4nLCAnLW9tYWUnLCAnPG91dGZpbGUubWFlPic=

> <r_lp_tautomer_probability>
1

> <r_epik_Ionization_Penalty>
4.83437e-05

> <r_epik_Ionization_Penalty_Charging>
0

> <r_epik_Ionization_Penalty_Neutral>
4.83437e-05

> <r_epik_State_Penalty>
-0

> <r_epik_Charging_Adjusted_Penalty>
0

> <i_epik_Tot_Q>
0

> <i_epik_Tot_abs_Q>
0

> <r_epik_Metal_State_Penalty>
-0

> <b_epik_Metal_Only>
0

> <s_lp_Force_Field>
OPLS_2005

> <r_lp_Energy>
14.6895

> <b_lp_Chiralities_Consistent>
1

> <s_lp_Variant>
AV-unprocessed.smi:1531-1

> <Gold.Version>
5.8.1

> <Gold.Id.Protein>
6NUR|6NUR_protein|mol2

> <Gold.PLP.Fitness>
48.0163

> <Gold.PLP.PLP>
-44.1137

> <Gold.PLP.part.hbond>
-2.4639

> <Gold.PLP.part.metal>
0.0000

> <Gold.PLP.part.buried>
-4.5922

> <Gold.PLP.part.nonpolar>
-38.1133

> <Gold.PLP.part.repulsive>
0.6979

> <Gold.PLP.ligand.clash>
0.0000

> <Gold.PLP.ligand.torsion>
0.5754

> <Gold.PLP.Chemscore.Hbond>
1.6720

> <Gold.PLP.Chemscore.CHOScore>
0.0000

> <Gold.PLP.Chemscore.Metal>
0.0000

> <Gold.Chemscore.Hbonds>
donor molecule, donor type, donor heavy atom, donor atom, acceptor molecule, acceptor atom, score
      L1  H    12    38       P1  8028  0.67
      L1  H    19    43       P1 10175  1.00

> <Gold.PLP.Chemscore.Internal.Correction>
0.0375

> <Gold.Rescore>
     Score         DG    S(hbond)    S(metal)    S(lipo)     H(rot)  DE(clash)    DE(int)     intcor
     14.56     -20.48       2.25        0.00     110.57       2.13       2.51       3.41       ----

> <Gold.Chemscore.Fitness>
14.5569

> <Gold.Chemscore.DG>
-20.4825

> <Gold.Chemscore.ZeroCoef>
-5.4800

> <Gold.Chemscore.Hbond>
2.2537

> <Gold.Chemscore.Metal>
0.0000

> <Gold.Chemscore.Lipo>
110.5738

> <Gold.Chemscore.Internal_Hbond>
0.0000

> <Gold.Chemscore.DEClash>
2.5109

> <Gold.Chemscore.DEInternal>
3.4146

> <Gold.Chemscore.Rot>
2.1335

> <Gold.Chemscore.Internal.Correction>
   9.000000E+99

> <Gold.Chemscore.Hbonds>
donor molecule, donor type, donor heavy atom, donor atom, acceptor molecule, acceptor atom, score
      L1  H    12    38       P1  8028  0.66
      L1  H    19    43       P1 10175  0.95

> <Gold.Chemscore.Hbond.Weighted>
-7.5272

> <Gold.Chemscore.Metal.Weighted>
-0.0000

> <Gold.Chemscore.Lipo.Weighted>
-12.9371

> <Gold.Chemscore.Internal_Hbond.Weighted>
0.0000

> <Gold.Chemscore.DEClash.Weighted>
2.5109

> <Gold.Chemscore.DEInternal.Weighted>
3.4146

> <Gold.Chemscore.Rot.Weighted>
5.4618

> <Gold.Chemscore.Internal.Correction.Weighted>
   9.000000E+99

> <Gold.Protein.RotatedTorsions>
[ 6907 6896 6895 6894 ] final   43.10 input  -60.11 | X-H torsion
[ 7974 7965 7964 7962 ] final   43.56 input  175.53 | X-H torsion
[ 8008 7997 7996 7995 ] final  173.48 input   59.86 | X-H torsion
[ 10167 10162 10161 10158 ] final  110.45 input  -65.29 | X-H torsion
[ 10718 10713 10712 10709 ] final -170.98 input   66.30 | X-H torsion
[ 10763 10752 10751 10750 ] final -119.78 input  -60.55 | X-H torsion
[ 11005 11000 10999 10996 ] final -158.92 input  -57.11 | X-H torsion

> <Gold.Protein.ActiveResidues>
 VAL166  LYS551  ARG553  GLY616  TRP617  ASP618  TYR619  PRO620  LYS621  CYS622 
 ASP623  PHE694  ASN695  SER759  ASP760  ASP761  ALA762  ILE779  LEU786  VAL792 
 PHE793  MET794  SER795  GLU796  ALA797  LYS798  CYS799  TRP800  GLU811  SER814 

> <Gold.Protein.RotatedAtoms>
  152.2162  134.8456  160.0491 H   0  0  0  0  0  0  0  0  0  0  0  0  # atno 6907 bound_to 6896
  151.9256  133.3592  159.3921 H   0  0  0  0  0  0  0  0  0  0  0  0  # atno 6908 bound_to 6896
  150.6988  134.4515  159.5382 H   0  0  0  0  0  0  0  0  0  0  0  0  # atno 6909 bound_to 6896
  146.0644  139.5172  142.9637 H   0  0  0  0  0  0  0  0  0  0  0  0  # atno 7974 bound_to 7965
  156.1071  140.1459  156.9389 H   0  0  0  0  0  0  0  0  0  0  0  0  # atno 8008 bound_to 7997
  154.4741  140.0900  156.7263 H   0  0  0  0  0  0  0  0  0  0  0  0  # atno 8009 bound_to 7997
  155.4660  140.3440  155.4321 H   0  0  0  0  0  0  0  0  0  0  0  0  # atno 8010 bound_to 7997
  139.6687  144.7126  151.1728 H   0  0  0  0  0  0  0  0  0  0  0  0  # atno 10167 bound_to 10162
  156.7342  130.9318  151.3106 H   0  0  0  0  0  0  0  0  0  0  0  0  # atno 10718 bound_to 10713
  154.8626  135.4226  154.2354 H   0  0  0  0  0  0  0  0  0  0  0  0  # atno 10763 bound_to 10752
  153.3330  135.6989  153.6937 H   0  0  0  0  0  0  0  0  0  0  0  0  # atno 10764 bound_to 10752
  153.5946  135.3548  155.2896 H   0  0  0  0  0  0  0  0  0  0  0  0  # atno 10765 bound_to 10752
  140.6483  134.4478  157.5234 H   0  0  0  0  0  0  0  0  0  0  0  0  # atno 11005 bound_to 11000
  145.6502  141.0265  143.1764 LP  0  0  0  0  0  0  0  0  0  0  0  0  # atno 17320 bound_to 7965
  144.7194  139.8083  143.7387 LP  0  0  0  0  0  0  0  0  0  0  0  0  # atno 17321 bound_to 7965
  140.7609  143.5878  150.8827 LP  0  0  0  0  0  0  0  0  0  0  0  0  # atno 17342 bound_to 10162
  139.9542  143.6237  152.3020 LP  0  0  0  0  0  0  0  0  0  0  0  0  # atno 17343 bound_to 10162
  157.6846  130.9173  150.0353 LP  0  0  0  0  0  0  0  0  0  0  0  0  # atno 17370 bound_to 10713
  156.1508  130.3642  149.9441 LP  0  0  0  0  0  0  0  0  0  0  0  0  # atno 17371 bound_to 10713
  139.9055  134.8459  156.1724 LP  0  0  0  0  0  0  0  0  0  0  0  0  # atno 17394 bound_to 11000
  141.0556  133.6867  156.1853 LP  0  0  0  0  0  0  0  0  0  0  0  0  # atno 17395 bound_to 11000

$$$$
