AV-unprocessed.smi:2124|AV-procd|sdf|8659|dock1
  -GOLD-   2272011403D 1   1.00000     0.00000
 Structure written by MMmdl.
 47 49  0  0  0  0  0  0  0  0  1 V2000
  151.0634  143.3861  157.5559 C   0  0  0  0  0  0  0  0  0  0  0  0
  151.0338  142.0746  156.8018 C   0  0  0  0  0  0  0  0  0  0  0  0
  150.0232  141.9987  155.8573 N   0  0  0  0  0  0  0  0  0  0  0  0
  149.9154  140.8347  155.1168 C   0  0  0  0  0  0  0  0  0  0  0  0
  148.7876  140.8349  154.0999 C   0  0  0  0  0  0  0  0  0  0  0  0
  150.7710  139.7989  155.3086 C   0  0  0  0  0  0  0  0  0  0  0  0
  150.6963  138.5001  154.5067 C   0  0  0  0  0  0  0  0  0  0  0  0
  150.3496  137.2356  155.2973 C   0  0  0  0  0  0  0  0  0  0  0  0
  150.8875  137.0039  156.3805 O   0  0  0  0  0  0  0  0  0  0  0  0
  149.4393  136.4252  154.7367 N   0  0  0  0  0  0  0  0  0  0  0  0
  148.9525  135.1718  155.3086 C   0  0  1  0  0  0  0  0  0  0  0  0
  147.4517  135.0237  155.0063 C   0  0  0  0  0  0  0  0  0  0  0  0
  149.7764  133.9861  154.7545 C   0  0  2  0  0  0  0  0  0  0  0  0
  149.2046  133.3445  153.4700 C   0  0  0  0  0  0  0  0  0  0  0  0
  149.1937  131.8419  153.8078 C   0  0  2  0  0  0  0  0  0  0  0  0
  148.0509  131.5575  154.7997 C   0  0  0  0  0  0  0  0  0  0  0  0
  148.5802  132.1705  156.1088 C   0  0  0  0  0  0  0  0  0  0  0  0
  149.9427  132.7579  155.6854 C   0  0  1  0  0  0  0  0  0  0  0  0
  150.4245  131.7017  154.6958 C   0  0  0  0  0  0  0  0  0  0  0  0
  151.8353  139.9412  156.3298 C   0  0  0  0  0  0  0  0  0  0  0  0
  152.6492  139.0428  156.5397 O   0  0  0  0  0  0  0  0  0  0  0  0
  151.8992  141.1408  157.0568 N   0  0  0  0  0  0  0  0  0  0  0  0
  149.3663  142.7455  155.6821 H   0  0  0  0  0  0  0  0  0  0  0  0
  151.9066  143.4199  158.2470 H   0  0  0  0  0  0  0  0  0  0  0  0
  150.1457  143.5138  158.1308 H   0  0  0  0  0  0  0  0  0  0  0  0
  151.1590  144.2223  156.8626 H   0  0  0  0  0  0  0  0  0  0  0  0
  149.1760  140.6423  153.0996 H   0  0  0  0  0  0  0  0  0  0  0  0
  148.2663  141.7928  154.0777 H   0  0  0  0  0  0  0  0  0  0  0  0
  148.0576  140.0622  154.3419 H   0  0  0  0  0  0  0  0  0  0  0  0
  151.6575  138.3300  154.0220 H   0  0  0  0  0  0  0  0  0  0  0  0
  149.9871  138.6080  153.6850 H   0  0  0  0  0  0  0  0  0  0  0  0
  149.0522  136.6968  153.8446 H   0  0  0  0  0  0  0  0  0  0  0  0
  149.0702  135.1980  156.3927 H   0  0  0  0  0  0  0  0  0  0  0  0
  147.0455  134.1117  155.4438 H   0  0  0  0  0  0  0  0  0  0  0  0
  147.2637  134.9887  153.9326 H   0  0  0  0  0  0  0  0  0  0  0  0
  146.8837  135.8597  155.4160 H   0  0  0  0  0  0  0  0  0  0  0  0
  150.7785  134.3561  154.5300 H   0  0  0  0  0  0  0  0  0  0  0  0
  148.2071  133.7062  153.2170 H   0  0  0  0  0  0  0  0  0  0  0  0
  149.8550  133.5503  152.6191 H   0  0  0  0  0  0  0  0  0  0  0  0
  149.1804  131.1963  152.9292 H   0  0  0  0  0  0  0  0  0  0  0  0
  147.1069  132.0030  154.4834 H   0  0  0  0  0  0  0  0  0  0  0  0
  147.8923  130.4847  154.9153 H   0  0  0  0  0  0  0  0  0  0  0  0
  147.9029  132.9096  156.5354 H   0  0  0  0  0  0  0  0  0  0  0  0
  148.7201  131.3913  156.8589 H   0  0  0  0  0  0  0  0  0  0  0  0
  150.6196  132.9323  156.5222 H   0  0  0  0  0  0  0  0  0  0  0  0
  150.5301  130.7088  155.1367 H   0  0  0  0  0  0  0  0  0  0  0  0
  151.3549  131.9689  154.1917 H   0  0  0  0  0  0  0  0  0  0  0  0
  1 24  1  0  0  0  0
  1 25  1  0  0  0  0
  1 26  1  0  0  0  0
  1  2  1  0  0  0  0
  2  3  1  0  0  0  0
  2 22  2  0  0  0  0
  3  4  1  0  0  0  0
  3 23  1  0  0  0  0
  4  6  2  0  0  0  0
  4  5  1  0  0  0  0
  5 27  1  0  0  0  0
  5 28  1  0  0  0  0
  5 29  1  0  0  0  0
  6 20  1  0  0  0  0
  6  7  1  0  0  0  0
  7  8  1  0  0  0  0
  7 30  1  0  0  0  0
  7 31  1  0  0  0  0
  8  9  2  0  0  0  0
  8 10  1  0  0  0  0
 10 11  1  0  0  0  0
 10 32  1  0  0  0  0
 11 12  1  0  0  0  0
 11 13  1  0  0  0  0
 11 33  1  0  0  0  0
 12 34  1  0  0  0  0
 12 35  1  0  0  0  0
 12 36  1  0  0  0  0
 13 18  1  0  0  0  0
 13 14  1  0  0  0  0
 13 37  1  0  0  0  0
 14 15  1  0  0  0  0
 14 38  1  0  0  0  0
 14 39  1  0  0  0  0
 15 19  1  0  0  0  0
 15 16  1  0  0  0  0
 15 40  1  0  0  0  0
 16 17  1  0  0  0  0
 16 41  1  0  0  0  0
 16 42  1  0  0  0  0
 17 18  1  0  0  0  0
 17 43  1  0  0  0  0
 17 44  1  0  0  0  0
 18 19  1  0  0  0  0
 18 45  1  0  0  0  0
 19 46  1  0  0  0  0
 19 47  1  0  0  0  0
 20 21  2  0  0  0  0
 20 22  1  0  0  0  0
M  END
> <s_m_source_file>
AV-unprocessed.smi

> <i_m_source_file_index>
2124

> <i_lp_mmshare_version>
43012

> <i_f3d_flags>
0

> <s_epik_input>
W0NIM11jMW5jKFtDSDNdKWMoYyg9TylbbkhdMSlbQ0gyXUMoPU8pW05IXVtDQEhdKFtDSDNdKVtDQEhdKFtDSDJdW0NASF0yMylbQ0BIXShbQ0gyXTMpW0NIMl1bQ0gyXTI=

> <s_epik_cmdline>
J2VwaWtfcHl0aG9uJywgJy1waCcsICc3LjAnLCAnLXRuJywgJzgnLCAnLW1hJywgJzIwMCcsICctbWV0YWxfYmluZGluZycsICctaW1hZScsICc8aW5maWxlLm1hZT4nLCAnLW9tYWUnLCAnPG91dGZpbGUubWFlPic=

> <r_lp_tautomer_probability>
0.156392

> <r_epik_Ionization_Penalty>
0.0139374

> <r_epik_Ionization_Penalty_Charging>
0.0138122

> <r_epik_Ionization_Penalty_Neutral>
0.000125146

> <r_epik_State_Penalty>
1.15342

> <r_epik_Charging_Adjusted_Penalty>
1.16723

> <i_epik_Tot_Q>
0

> <i_epik_Tot_abs_Q>
0

> <r_epik_Metal_State_Penalty>
1.3173

> <b_epik_Metal_Only>
0

> <s_lp_Force_Field>
OPLS_2005

> <r_lp_Energy>
55.6294

> <b_lp_Chiralities_Consistent>
1

> <s_lp_Variant>
AV-unprocessed.smi:2124-10

> <Gold.Version>
5.8.1

> <Gold.Id.Protein>
6NUR|6NUR_protein|mol2

> <Gold.PLP.Fitness>
40.5712

> <Gold.PLP.PLP>
-34.5287

> <Gold.PLP.part.hbond>
-3.0000

> <Gold.PLP.part.metal>
0.0000

> <Gold.PLP.part.buried>
-0.0985

> <Gold.PLP.part.nonpolar>
-30.1402

> <Gold.PLP.part.repulsive>
0.1525

> <Gold.PLP.ligand.clash>
0.0000

> <Gold.PLP.ligand.torsion>
1.2983

> <Gold.PLP.Chemscore.Hbond>
2.8713

> <Gold.PLP.Chemscore.CHOScore>
0.0000

> <Gold.PLP.Chemscore.Metal>
0.0000

> <Gold.Chemscore.Hbonds>
donor molecule, donor type, donor heavy atom, donor atom, acceptor molecule, acceptor atom, score
      L1  H     3    23       P1  8028  1.00
      L1  H    10    32       P1  7948  0.88
      P1  H  7997  8010       L1    21  1.00

> <Gold.PLP.Chemscore.Internal.Correction>
0.0253

> <Gold.Rescore>
     Score         DG    S(hbond)    S(metal)    S(lipo)     H(rot)  DE(clash)    DE(int)     intcor
     15.24     -18.44       2.30        0.00      81.24       1.65       0.49       2.71       ----

> <Gold.Chemscore.Fitness>
15.2358

> <Gold.Chemscore.DG>
-18.4395

> <Gold.Chemscore.ZeroCoef>
-5.4800

> <Gold.Chemscore.Hbond>
2.3014

> <Gold.Chemscore.Metal>
0.0000

> <Gold.Chemscore.Lipo>
81.2413

> <Gold.Chemscore.Internal_Hbond>
0.0000

> <Gold.Chemscore.DEClash>
0.4901

> <Gold.Chemscore.DEInternal>
2.7136

> <Gold.Chemscore.Rot>
1.6534

> <Gold.Chemscore.Internal.Correction>
   9.000000E+99

> <Gold.Chemscore.Hbonds>
donor molecule, donor type, donor heavy atom, donor atom, acceptor molecule, acceptor atom, score
      L1  H     3    23       P1  8028  0.89
      L1  H    10    32       P1  7948  0.81
      P1  H  7997  8010       L1    21  0.32

> <Gold.Chemscore.Hbond.Weighted>
-7.6868

> <Gold.Chemscore.Metal.Weighted>
-0.0000

> <Gold.Chemscore.Lipo.Weighted>
-9.5052

> <Gold.Chemscore.Internal_Hbond.Weighted>
0.0000

> <Gold.Chemscore.DEClash.Weighted>
0.4901

> <Gold.Chemscore.DEInternal.Weighted>
2.7136

> <Gold.Chemscore.Rot.Weighted>
4.2326

> <Gold.Chemscore.Internal.Correction.Weighted>
   9.000000E+99

> <Gold.Protein.RotatedTorsions>
[ 6907 6896 6895 6894 ] final -156.65 input  -60.11 | X-H torsion
[ 7974 7965 7964 7962 ] final  -64.23 input  175.53 | X-H torsion
[ 8008 7997 7996 7995 ] final   56.63 input   59.86 | X-H torsion
[ 10167 10162 10161 10158 ] final  152.48 input  -65.29 | X-H torsion
[ 10718 10713 10712 10709 ] final  -72.22 input   66.30 | X-H torsion
[ 10763 10752 10751 10750 ] final  -79.80 input  -60.55 | X-H torsion
[ 11005 11000 10999 10996 ] final   73.99 input  -57.11 | X-H torsion

> <Gold.Protein.ActiveResidues>
 VAL166  LYS551  ARG553  GLY616  TRP617  ASP618  TYR619  PRO620  LYS621  CYS622 
 ASP623  PHE694  ASN695  SER759  ASP760  ASP761  ALA762  ILE779  LEU786  VAL792 
 PHE793  MET794  SER795  GLU796  ALA797  LYS798  CYS799  TRP800  GLU811  SER814 

> <Gold.Protein.RotatedAtoms>
  151.2908  133.4166  159.2632 H   0  0  0  0  0  0  0  0  0  0  0  0  # atno 6907 bound_to 6896
  151.0279  134.9518  159.8105 H   0  0  0  0  0  0  0  0  0  0  0  0  # atno 6908 bound_to 6896
  152.5339  134.2870  159.9081 H   0  0  0  0  0  0  0  0  0  0  0  0  # atno 6909 bound_to 6896
  145.7693  140.8821  143.0388 H   0  0  0  0  0  0  0  0  0  0  0  0  # atno 7974 bound_to 7965
  155.5205  140.3479  155.4406 H   0  0  0  0  0  0  0  0  0  0  0  0  # atno 8008 bound_to 7997
  156.0787  140.1381  156.9766 H   0  0  0  0  0  0  0  0  0  0  0  0  # atno 8009 bound_to 7997
  154.4568  140.0950  156.6755 H   0  0  0  0  0  0  0  0  0  0  0  0  # atno 8010 bound_to 7997
  139.4832  144.5354  151.7654 H   0  0  0  0  0  0  0  0  0  0  0  0  # atno 10167 bound_to 10162
  156.0329  130.4368  150.2561 H   0  0  0  0  0  0  0  0  0  0  0  0  # atno 10718 bound_to 10713
  154.5432  135.5683  153.6858 H   0  0  0  0  0  0  0  0  0  0  0  0  # atno 10763 bound_to 10752
  152.9969  135.6233  154.2473 H   0  0  0  0  0  0  0  0  0  0  0  0  # atno 10764 bound_to 10752
  154.2405  135.2862  155.2835 H   0  0  0  0  0  0  0  0  0  0  0  0  # atno 10765 bound_to 10752
  139.9413  134.7394  156.1093 H   0  0  0  0  0  0  0  0  0  0  0  0  # atno 11005 bound_to 11000
  144.6815  139.9833  143.7483 LP  0  0  0  0  0  0  0  0  0  0  0  0  # atno 17320 bound_to 7965
  146.0186  139.3231  143.0827 LP  0  0  0  0  0  0  0  0  0  0  0  0  # atno 17321 bound_to 7965
  140.4886  144.1344  150.5946 LP  0  0  0  0  0  0  0  0  0  0  0  0  # atno 17342 bound_to 10162
  140.4197  143.2617  151.9730 LP  0  0  0  0  0  0  0  0  0  0  0  0  # atno 17343 bound_to 10162
  157.0662  131.0104  151.3206 LP  0  0  0  0  0  0  0  0  0  0  0  0  # atno 17370 bound_to 10713
  157.5034  130.7893  149.7628 LP  0  0  0  0  0  0  0  0  0  0  0  0  # atno 17371 bound_to 10713
  141.1048  133.6664  156.2838 LP  0  0  0  0  0  0  0  0  0  0  0  0  # atno 17394 bound_to 11000
  140.5945  134.5617  157.5506 LP  0  0  0  0  0  0  0  0  0  0  0  0  # atno 17395 bound_to 11000

$$$$
