AV-unprocessed.smi:3230|AV-procd|sdf|12330|dock8
  -GOLD-   2272018183D 1   1.00000     0.00000
 Structure written by MMmdl.
 40 40  0  0  0  0  0  0  0  0  1 V2000
  150.8069  141.8411  156.3368 C   0  0  0  0  0  0  0  0  0  0  0  0
  150.7094  140.3903  155.8420 C   0  0  0  0  0  0  0  0  0  0  0  0
  149.6400  140.1518  154.7455 C   0  0  0  0  0  0  0  0  0  0  0  0
  148.3261  140.9137  155.0587 C   0  0  0  0  0  0  0  0  0  0  0  0
  147.3997  141.1033  153.8481 C   0  0  0  0  0  0  0  0  0  0  0  0
  149.3984  138.6396  154.4746 C   0  0  1  0  0  0  0  0  0  0  0  0
  148.7458  138.4945  153.2273 O   0  0  0  0  0  0  0  0  0  0  0  0
  150.6975  137.8009  154.4603 C   0  0  0  0  0  0  0  0  0  0  0  0
  150.4254  136.3712  154.3591 N   0  0  0  0  0  0  0  0  0  0  0  0
  150.8408  135.4406  155.2325 C   0  0  0  0  0  0  0  0  0  0  0  0
  151.5136  135.6987  156.2304 O   0  0  0  0  0  0  0  0  0  0  0  0
  150.4421  133.9952  154.9327 C   0  0  0  0  0  0  0  0  0  0  0  0
  149.1126  133.9574  154.2290 C   0  0  0  0  0  0  0  0  0  0  0  0
  148.7827  133.3274  152.9969 C   0  0  0  0  0  0  0  0  0  0  0  0
  147.4564  133.6099  152.8337 C   0  0  0  0  0  0  0  0  0  0  0  0
  146.4674  133.2687  151.7725 C   0  0  0  0  0  0  0  0  0  0  0  0
  147.0041  134.3540  153.8754 O   0  0  0  0  0  0  0  0  0  0  0  0
  148.0667  134.5720  154.7592 N   0  0  0  0  0  0  0  0  0  0  0  0
  151.4804  141.9087  157.1912 H   0  0  0  0  0  0  0  0  0  0  0  0
  149.8339  142.2170  156.6538 H   0  0  0  0  0  0  0  0  0  0  0  0
  151.1961  142.5089  155.5693 H   0  0  0  0  0  0  0  0  0  0  0  0
  151.6876  140.0580  155.4931 H   0  0  0  0  0  0  0  0  0  0  0  0
  150.4837  139.7743  156.7111 H   0  0  0  0  0  0  0  0  0  0  0  0
  150.0381  140.5736  153.8213 H   0  0  0  0  0  0  0  0  0  0  0  0
  147.7547  140.3741  155.8130 H   0  0  0  0  0  0  0  0  0  0  0  0
  148.5533  141.8856  155.4983 H   0  0  0  0  0  0  0  0  0  0  0  0
  146.4578  141.5580  154.1555 H   0  0  0  0  0  0  0  0  0  0  0  0
  147.1656  140.1483  153.3771 H   0  0  0  0  0  0  0  0  0  0  0  0
  147.8390  141.7538  153.0930 H   0  0  0  0  0  0  0  0  0  0  0  0
  148.7444  138.2404  155.2490 H   0  0  0  0  0  0  0  0  0  0  0  0
  149.1789  139.0504  152.5970 H   0  0  0  0  0  0  0  0  0  0  0  0
  151.3862  138.1264  153.6783 H   0  0  0  0  0  0  0  0  0  0  0  0
  151.2282  137.9345  155.4034 H   0  0  0  0  0  0  0  0  0  0  0  0
  149.8741  136.0672  153.5693 H   0  0  0  0  0  0  0  0  0  0  0  0
  151.2187  133.5190  154.3322 H   0  0  0  0  0  0  0  0  0  0  0  0
  150.3894  133.4357  155.8673 H   0  0  0  0  0  0  0  0  0  0  0  0
  149.4201  132.7565  152.3381 H   0  0  0  0  0  0  0  0  0  0  0  0
  146.8934  132.5690  151.0532 H   0  0  0  0  0  0  0  0  0  0  0  0
  146.1579  134.1628  151.2315 H   0  0  0  0  0  0  0  0  0  0  0  0
  145.5786  132.8090  152.2051 H   0  0  0  0  0  0  0  0  0  0  0  0
  1  2  1  0  0  0  0
  1 19  1  0  0  0  0
  1 20  1  0  0  0  0
  1 21  1  0  0  0  0
  2  3  1  0  0  0  0
  2 22  1  0  0  0  0
  2 23  1  0  0  0  0
  3  4  1  0  0  0  0
  3  6  1  0  0  0  0
  3 24  1  0  0  0  0
  4  5  1  0  0  0  0
  4 25  1  0  0  0  0
  4 26  1  0  0  0  0
  5 27  1  0  0  0  0
  5 28  1  0  0  0  0
  5 29  1  0  0  0  0
  6  7  1  0  0  0  0
  6  8  1  0  0  0  0
  6 30  1  0  0  0  0
  7 31  1  0  0  0  0
  8  9  1  0  0  0  0
  8 32  1  0  0  0  0
  8 33  1  0  0  0  0
  9 10  1  0  0  0  0
  9 34  1  0  0  0  0
 10 11  2  0  0  0  0
 10 12  1  0  0  0  0
 12 13  1  0  0  0  0
 12 35  1  0  0  0  0
 12 36  1  0  0  0  0
 13 18  2  0  0  0  0
 13 14  1  0  0  0  0
 14 15  2  0  0  0  0
 14 37  1  0  0  0  0
 15 16  1  0  0  0  0
 15 17  1  0  0  0  0
 16 38  1  0  0  0  0
 16 39  1  0  0  0  0
 16 40  1  0  0  0  0
 17 18  1  0  0  0  0
M  END
> <s_m_source_file>
AV-unprocessed.smi

> <i_m_source_file_index>
3230

> <i_lp_mmshare_version>
43012

> <i_f3d_flags>
0

> <s_epik_input>
W0NIM11bQ0gyXVtDSF0oW0NIMl1bQ0gzXSlbQ0BIXShbT0hdKVtDSDJdW05IXUMoPU8pW0NIMl1jMVtjSF1jKFtDSDNdKW9uMQ==

> <s_epik_cmdline>
J2VwaWtfcHl0aG9uJywgJy1waCcsICc3LjAnLCAnLXRuJywgJzgnLCAnLW1hJywgJzIwMCcsICctbWV0YWxfYmluZGluZycsICctaW1hZScsICc8aW5maWxlLm1hZT4nLCAnLW9tYWUnLCAnPG91dGZpbGUubWFlPic=

> <r_lp_tautomer_probability>
1

> <r_epik_Ionization_Penalty>
2.40054e-07

> <r_epik_Ionization_Penalty_Charging>
0

> <r_epik_Ionization_Penalty_Neutral>
2.40054e-07

> <r_epik_State_Penalty>
-0

> <r_epik_Charging_Adjusted_Penalty>
0

> <i_epik_Tot_Q>
0

> <i_epik_Tot_abs_Q>
0

> <r_epik_Metal_State_Penalty>
-0

> <b_epik_Metal_Only>
0

> <s_lp_Force_Field>
OPLS_2005

> <r_lp_Energy>
9.12341

> <b_lp_Chiralities_Consistent>
1

> <s_lp_Variant>
AV-unprocessed.smi:3230-2

> <Gold.Version>
5.8.1

> <Gold.Id.Protein>
6NUR|6NUR_protein|mol2

> <Gold.PLP.Fitness>
40.2729

> <Gold.PLP.PLP>
-34.9493

> <Gold.PLP.part.hbond>
-4.5390

> <Gold.PLP.part.metal>
0.0000

> <Gold.PLP.part.buried>
-3.4929

> <Gold.PLP.part.nonpolar>
-26.9164

> <Gold.PLP.part.repulsive>
0.2347

> <Gold.PLP.ligand.clash>
0.0000

> <Gold.PLP.ligand.torsion>
0.8869

> <Gold.PLP.Chemscore.Hbond>
2.2718

> <Gold.PLP.Chemscore.CHOScore>
0.0000

> <Gold.PLP.Chemscore.Metal>
0.0000

> <Gold.Chemscore.Hbonds>
donor molecule, donor type, donor heavy atom, donor atom, acceptor molecule, acceptor atom, score
      L1  H     7    31       P1  7957  1.00
      L1  H     9    34       P1  7948  0.75
      P1  H 10752 10763       L1    11  0.54

> <Gold.PLP.Chemscore.Internal.Correction>
0.2821

> <Gold.Rescore>
     Score         DG    S(hbond)    S(metal)    S(lipo)     H(rot)  DE(clash)    DE(int)     intcor
     12.52     -14.94       2.45        0.00      67.15       2.57       0.01       2.41       ----

> <Gold.Chemscore.Fitness>
12.5184

> <Gold.Chemscore.DG>
-14.9399

> <Gold.Chemscore.ZeroCoef>
-5.4800

> <Gold.Chemscore.Hbond>
2.4511

> <Gold.Chemscore.Metal>
0.0000

> <Gold.Chemscore.Lipo>
67.1471

> <Gold.Chemscore.Internal_Hbond>
0.0000

> <Gold.Chemscore.DEClash>
0.0092

> <Gold.Chemscore.DEInternal>
2.4123

> <Gold.Chemscore.Rot>
2.5715

> <Gold.Chemscore.Internal.Correction>
   9.000000E+99

> <Gold.Chemscore.Hbonds>
donor molecule, donor type, donor heavy atom, donor atom, acceptor molecule, acceptor atom, score
      L1  H     7    31       P1  7957  0.99
      L1  H     9    34       P1  7948  0.09
      P1  H 10752 10763       L1    11  0.04

> <Gold.Chemscore.Hbond.Weighted>
-8.1868

> <Gold.Chemscore.Metal.Weighted>
-0.0000

> <Gold.Chemscore.Lipo.Weighted>
-7.8562

> <Gold.Chemscore.Internal_Hbond.Weighted>
0.0000

> <Gold.Chemscore.DEClash.Weighted>
0.0092

> <Gold.Chemscore.DEInternal.Weighted>
2.4123

> <Gold.Chemscore.Rot.Weighted>
6.5831

> <Gold.Chemscore.Internal.Correction.Weighted>
   9.000000E+99

> <Gold.Protein.RotatedTorsions>
[ 6907 6896 6895 6894 ] final -114.16 input  -60.11 | X-H torsion
[ 7974 7965 7964 7962 ] final -169.53 input  175.53 | X-H torsion
[ 8008 7997 7996 7995 ] final  -61.60 input   59.86 | X-H torsion
[ 10167 10162 10161 10158 ] final  130.41 input  -65.29 | X-H torsion
[ 10718 10713 10712 10709 ] final  111.80 input   66.30 | X-H torsion
[ 10763 10752 10751 10750 ] final  103.13 input  -60.55 | X-H torsion
[ 11005 11000 10999 10996 ] final  -99.01 input  -57.11 | X-H torsion

> <Gold.Protein.ActiveResidues>
 VAL166  LYS551  ARG553  GLY616  TRP617  ASP618  TYR619  PRO620  LYS621  CYS622 
 ASP623  PHE694  ASN695  SER759  ASP760  ASP761  ALA762  ILE779  LEU786  VAL792 
 PHE793  MET794  SER795  GLU796  ALA797  LYS798  CYS799  TRP800  GLU811  SER814 

> <Gold.Protein.RotatedAtoms>
  150.7881  133.8841  159.3294 H   0  0  0  0  0  0  0  0  0  0  0  0  # atno 6907 bound_to 6896
  151.6686  135.0977  160.0203 H   0  0  0  0  0  0  0  0  0  0  0  0  # atno 6908 bound_to 6896
  152.3950  133.6695  159.6304 H   0  0  0  0  0  0  0  0  0  0  0  0  # atno 6909 bound_to 6896
  144.7184  140.2207  143.6316 H   0  0  0  0  0  0  0  0  0  0  0  0  # atno 7974 bound_to 7965
  154.4456  140.1014  156.6456 H   0  0  0  0  0  0  0  0  0  0  0  0  # atno 8008 bound_to 7997
  155.5454  140.3484  155.4438 H   0  0  0  0  0  0  0  0  0  0  0  0  # atno 8009 bound_to 7997
  156.0567  140.1317  156.9977 H   0  0  0  0  0  0  0  0  0  0  0  0  # atno 8010 bound_to 7997
  139.5431  144.6749  151.4559 H   0  0  0  0  0  0  0  0  0  0  0  0  # atno 10167 bound_to 10162
  157.6426  131.0957  150.6802 H   0  0  0  0  0  0  0  0  0  0  0  0  # atno 10718 bound_to 10713
  153.3486  135.3987  155.1628 H   0  0  0  0  0  0  0  0  0  0  0  0  # atno 10763 bound_to 10752
  154.8658  135.3651  154.5251 H   0  0  0  0  0  0  0  0  0  0  0  0  # atno 10764 bound_to 10752
  153.5701  135.7079  153.5568 H   0  0  0  0  0  0  0  0  0  0  0  0  # atno 10765 bound_to 10752
  141.1324  133.8289  157.0915 H   0  0  0  0  0  0  0  0  0  0  0  0  # atno 11005 bound_to 11000
  145.8504  139.2173  143.1775 LP  0  0  0  0  0  0  0  0  0  0  0  0  # atno 17320 bound_to 7965
  146.0266  140.8298  142.9897 LP  0  0  0  0  0  0  0  0  0  0  0  0  # atno 17321 bound_to 7965
  140.6669  143.8378  150.6953 LP  0  0  0  0  0  0  0  0  0  0  0  0  # atno 17342 bound_to 10162
  140.1790  143.4131  152.1947 LP  0  0  0  0  0  0  0  0  0  0  0  0  # atno 17343 bound_to 10162
  156.7124  130.4656  149.5544 LP  0  0  0  0  0  0  0  0  0  0  0  0  # atno 17370 bound_to 10713
  156.1721  130.6443  151.0849 LP  0  0  0  0  0  0  0  0  0  0  0  0  # atno 17371 bound_to 10713
  140.0389  134.9864  157.0924 LP  0  0  0  0  0  0  0  0  0  0  0  0  # atno 17394 bound_to 11000
  140.4166  134.1924  155.7163 LP  0  0  0  0  0  0  0  0  0  0  0  0  # atno 17395 bound_to 11000

$$$$
