AV-unprocessed.smi:3200|AV-procd|sdf|12236|dock3
  -GOLD-   2272018 73D 1   1.00000     0.00000
 Structure written by MMmdl.
 38 39  0  0  0  0  0  0  0  0  2 V2000
  153.1491  137.8563  154.5609 C   0  0  0  0  0  0  0  0  0  0  0  0
  152.3587  138.8876  155.2917 C   0  0  0  0  0  0  0  0  0  0  0  0
  152.6282  139.1977  156.5540 N   0  0  0  0  0  0  0  0  0  0  0  0
  151.6816  140.1879  156.8535 O   0  0  0  0  0  0  0  0  0  0  0  0
  150.9384  140.3386  155.7313 C   0  0  0  0  0  0  0  0  0  0  0  0
  149.8635  141.3728  155.7121 C   0  0  0  0  0  0  0  0  0  0  0  0
  149.5120  141.8728  157.1185 C   0  0  0  0  0  0  0  0  0  0  0  0
  150.2952  143.0761  157.4648 N   0  3  0  0  0  0  0  0  0  0  0  0
  150.8858  143.0624  158.8221 C   0  0  1  0  0  0  0  0  0  0  0  0
  151.7597  141.8296  159.0960 C   0  0  0  0  0  0  0  0  0  0  0  0
  152.7663  142.2694  160.1672 C   0  0  0  0  0  0  0  0  0  0  0  0
  152.5715  143.7820  160.3475 C   0  0  0  0  0  0  0  0  0  0  0  0
  151.8003  144.2727  159.1091 C   0  0  0  0  0  0  0  0  0  0  0  0
  152.7896  144.5654  157.9568 C   0  0  0  0  0  0  0  0  0  0  0  0
  150.9892  145.5428  159.4271 C   0  0  0  0  0  0  0  0  0  0  0  0
  151.3272  139.5674  154.7194 N   0  0  0  0  0  0  0  0  0  0  0  0
  154.1290  137.7212  155.0201 H   0  0  0  0  0  0  0  0  0  0  0  0
  153.2961  138.1547  153.5225 H   0  0  0  0  0  0  0  0  0  0  0  0
  152.6242  136.9008  154.5758 H   0  0  0  0  0  0  0  0  0  0  0  0
  150.1933  142.2044  155.0881 H   0  0  0  0  0  0  0  0  0  0  0  0
  148.9817  140.9488  155.2298 H   0  0  0  0  0  0  0  0  0  0  0  0
  148.4479  142.1071  157.1753 H   0  0  0  0  0  0  0  0  0  0  0  0
  149.7089  141.0864  157.8479 H   0  0  0  0  0  0  0  0  0  0  0  0
  151.0395  143.1906  156.7916 H   0  0  0  0  0  0  0  0  0  0  0  0
  150.0712  143.0693  159.5492 H   0  0  0  0  0  0  0  0  0  0  0  0
  151.1676  140.9730  159.4199 H   0  0  0  0  0  0  0  0  0  0  0  0
  152.2968  141.5313  158.1946 H   0  0  0  0  0  0  0  0  0  0  0  0
  152.6078  141.7425  161.1088 H   0  0  0  0  0  0  0  0  0  0  0  0
  153.7822  142.0486  159.8380 H   0  0  0  0  0  0  0  0  0  0  0  0
  151.9749  143.9496  161.2455 H   0  0  0  0  0  0  0  0  0  0  0  0
  153.5162  144.3067  160.4952 H   0  0  0  0  0  0  0  0  0  0  0  0
  153.4964  145.3468  158.2377 H   0  0  0  0  0  0  0  0  0  0  0  0
  152.2738  144.9101  157.0603 H   0  0  0  0  0  0  0  0  0  0  0  0
  153.3734  143.6864  157.6829 H   0  0  0  0  0  0  0  0  0  0  0  0
  151.6441  146.3639  159.7206 H   0  0  0  0  0  0  0  0  0  0  0  0
  150.2857  145.3781  160.2442 H   0  0  0  0  0  0  0  0  0  0  0  0
  150.4146  145.8729  158.5612 H   0  0  0  0  0  0  0  0  0  0  0  0
  149.6803  143.8749  157.4025 H   0  0  0  0  0  0  0  0  0  0  0  0
  1  2  1  0  0  0  0
  1 17  1  0  0  0  0
  1 18  1  0  0  0  0
  1 19  1  0  0  0  0
  2 16  1  0  0  0  0
  2  3  2  0  0  0  0
  3  4  1  0  0  0  0
  4  5  1  0  0  0  0
  5  6  1  0  0  0  0
  5 16  2  0  0  0  0
  6  7  1  0  0  0  0
  6 20  1  0  0  0  0
  6 21  1  0  0  0  0
  7  8  1  0  0  0  0
  7 22  1  0  0  0  0
  7 23  1  0  0  0  0
  8  9  1  0  0  0  0
  8 24  1  0  0  0  0
  8 38  1  0  0  0  0
  9 13  1  0  0  0  0
  9 10  1  0  0  0  0
  9 25  1  0  0  0  0
 10 11  1  0  0  0  0
 10 26  1  0  0  0  0
 10 27  1  0  0  0  0
 11 12  1  0  0  0  0
 11 28  1  0  0  0  0
 11 29  1  0  0  0  0
 12 13  1  0  0  0  0
 12 30  1  0  0  0  0
 12 31  1  0  0  0  0
 13 14  1  0  0  0  0
 13 15  1  0  0  0  0
 14 32  1  0  0  0  0
 14 33  1  0  0  0  0
 14 34  1  0  0  0  0
 15 35  1  0  0  0  0
 15 36  1  0  0  0  0
 15 37  1  0  0  0  0
M  CHG  1   8   1
M  END
> <s_m_source_file>
AV-unprocessed.smi

> <i_m_source_file_index>
3200

> <i_lp_mmshare_version>
43012

> <i_f3d_flags>
0

> <s_epik_input>
W0NIM11jMW5vYyhuMSlbQ0gyXVtDSDJdW05IXVtDQEBIXShDMihbQ0gzXSlbQ0gzXSlbQ0gyXVtDSDJdW0NIMl0y

> <s_epik_cmdline>
J2VwaWtfcHl0aG9uJywgJy1waCcsICc3LjAnLCAnLXRuJywgJzgnLCAnLW1hJywgJzIwMCcsICctbWV0YWxfYmluZGluZycsICctaW1hZScsICc8aW5maWxlLm1hZT4nLCAnLW9tYWUnLCAnPG91dGZpbGUubWFlPic=

> <r_lp_tautomer_probability>
1

> <r_epik_Ionization_Penalty>
0.000953161

> <r_epik_Ionization_Penalty_Charging>
0.000953161

> <r_epik_Ionization_Penalty_Neutral>
4.23223e-13

> <r_epik_State_Penalty>
0.000619331

> <r_epik_Charging_Adjusted_Penalty>
0.00157249

> <i_epik_Tot_Q>
1

> <i_epik_Tot_abs_Q>
1

> <r_epik_Metal_State_Penalty>
-0

> <b_epik_Metal_Only>
0

> <s_lp_Force_Field>
OPLS_2005

> <r_lp_Energy>
25.6419

> <b_lp_Chiralities_Consistent>
1

> <s_lp_Variant>
AV-unprocessed.smi:3200-2

> <Gold.Version>
5.8.1

> <Gold.Id.Protein>
6NUR|6NUR_protein|mol2

> <Gold.PLP.Fitness>
45.9085

> <Gold.PLP.PLP>
-37.9548

> <Gold.PLP.part.hbond>
-3.0000

> <Gold.PLP.part.metal>
0.0000

> <Gold.PLP.part.buried>
0.3930

> <Gold.PLP.part.nonpolar>
-33.8942

> <Gold.PLP.part.repulsive>
0.0937

> <Gold.PLP.ligand.clash>
0.0000

> <Gold.PLP.ligand.torsion>
0.7034

> <Gold.PLP.Chemscore.Hbond>
3.1102

> <Gold.PLP.Chemscore.CHOScore>
0.0000

> <Gold.PLP.Chemscore.Metal>
0.0000

> <Gold.Chemscore.Hbonds>
donor molecule, donor type, donor heavy atom, donor atom, acceptor molecule, acceptor atom, score
      L1  H     8    38       P1  8028  1.00
      P1  H  7989  7998       L1    16  0.95
      P1  H  7997  8009       L1     3  1.00

> <Gold.PLP.Chemscore.Internal.Correction>
0.0300

> <Gold.Rescore>
     Score         DG    S(hbond)    S(metal)    S(lipo)     H(rot)  DE(clash)    DE(int)     intcor
     15.16     -17.57       1.45        0.00     100.94       1.79       0.06       2.36       ----

> <Gold.Chemscore.Fitness>
15.1579

> <Gold.Chemscore.DG>
-17.5746

> <Gold.Chemscore.ZeroCoef>
-5.4800

> <Gold.Chemscore.Hbond>
1.4549

> <Gold.Chemscore.Metal>
0.0000

> <Gold.Chemscore.Lipo>
100.9432

> <Gold.Chemscore.Internal_Hbond>
0.0000

> <Gold.Chemscore.DEClash>
0.0605

> <Gold.Chemscore.DEInternal>
2.3562

> <Gold.Chemscore.Rot>
1.7872

> <Gold.Chemscore.Internal.Correction>
   9.000000E+99

> <Gold.Chemscore.Hbonds>
donor molecule, donor type, donor heavy atom, donor atom, acceptor molecule, acceptor atom, score
      L1  H     8    38       P1  8028  0.29
      P1  H  7989  7998       L1    16  0.21
      P1  H  7997  8009       L1     3  0.22

> <Gold.Chemscore.Hbond.Weighted>
-4.8595

> <Gold.Chemscore.Metal.Weighted>
-0.0000

> <Gold.Chemscore.Lipo.Weighted>
-11.8104

> <Gold.Chemscore.Internal_Hbond.Weighted>
0.0000

> <Gold.Chemscore.DEClash.Weighted>
0.0605

> <Gold.Chemscore.DEInternal.Weighted>
2.3562

> <Gold.Chemscore.Rot.Weighted>
4.5753

> <Gold.Chemscore.Internal.Correction.Weighted>
   9.000000E+99

> <Gold.Protein.RotatedTorsions>
[ 6907 6896 6895 6894 ] final   62.57 input  -60.11 | X-H torsion
[ 7974 7965 7964 7962 ] final  140.50 input  175.53 | X-H torsion
[ 8008 7997 7996 7995 ] final -167.26 input   59.86 | X-H torsion
[ 10167 10162 10161 10158 ] final   23.19 input  -65.29 | X-H torsion
[ 10718 10713 10712 10709 ] final  -26.34 input   66.30 | X-H torsion
[ 10763 10752 10751 10750 ] final   18.59 input  -60.55 | X-H torsion
[ 11005 11000 10999 10996 ] final   -3.67 input  -57.11 | X-H torsion

> <Gold.Protein.ActiveResidues>
 VAL166  LYS551  ARG553  GLY616  TRP617  ASP618  TYR619  PRO620  LYS621  CYS622 
 ASP623  PHE694  ASN695  SER759  ASP760  ASP761  ALA762  ILE779  LEU786  VAL792 
 PHE793  MET794  SER795  GLU796  ALA797  LYS798  CYS799  TRP800  GLU811  SER814 

> <Gold.Protein.RotatedAtoms>
  152.4183  134.6001  159.9997 H   0  0  0  0  0  0  0  0  0  0  0  0  # atno 6907 bound_to 6896
  151.6159  133.3337  159.3085 H   0  0  0  0  0  0  0  0  0  0  0  0  # atno 6908 bound_to 6896
  150.8071  134.7242  159.6720 H   0  0  0  0  0  0  0  0  0  0  0  0  # atno 6909 bound_to 6896
  144.9181  139.5204  143.5677 H   0  0  0  0  0  0  0  0  0  0  0  0  # atno 7974 bound_to 7965
  155.8753  140.1000  157.1523 H   0  0  0  0  0  0  0  0  0  0  0  0  # atno 8008 bound_to 7997
  154.4000  140.1339  156.4191 H   0  0  0  0  0  0  0  0  0  0  0  0  # atno 8009 bound_to 7997
  155.7705  140.3461  155.5247 H   0  0  0  0  0  0  0  0  0  0  0  0  # atno 8010 bound_to 7997
  140.5289  143.9876  150.6455 H   0  0  0  0  0  0  0  0  0  0  0  0  # atno 10167 bound_to 10162
  156.4525  130.4487  149.6981 H   0  0  0  0  0  0  0  0  0  0  0  0  # atno 10718 bound_to 10713
  153.1236  135.6724  153.9294 H   0  0  0  0  0  0  0  0  0  0  0  0  # atno 10763 bound_to 10752
  153.8802  135.3059  155.3446 H   0  0  0  0  0  0  0  0  0  0  0  0  # atno 10764 bound_to 10752
  154.7644  135.4971  153.9606 H   0  0  0  0  0  0  0  0  0  0  0  0  # atno 10765 bound_to 10752
  140.6719  133.9229  155.8500 H   0  0  0  0  0  0  0  0  0  0  0  0  # atno 11005 bound_to 11000
  146.3191  139.8039  142.8960 LP  0  0  0  0  0  0  0  0  0  0  0  0  # atno 17320 bound_to 7965
  145.3342  141.0273  143.3429 LP  0  0  0  0  0  0  0  0  0  0  0  0  # atno 17321 bound_to 7965
  140.3245  143.3116  152.0750 LP  0  0  0  0  0  0  0  0  0  0  0  0  # atno 17342 bound_to 10162
  139.4947  144.6551  151.6590 LP  0  0  0  0  0  0  0  0  0  0  0  0  # atno 17343 bound_to 10162
  156.3801  130.7575  151.2567 LP  0  0  0  0  0  0  0  0  0  0  0  0  # atno 17370 bound_to 10713
  157.7502  131.0298  150.4108 LP  0  0  0  0  0  0  0  0  0  0  0  0  # atno 17371 bound_to 10713
  141.0386  134.0654  157.3930 LP  0  0  0  0  0  0  0  0  0  0  0  0  # atno 17394 bound_to 11000
  139.8979  135.0152  156.7122 LP  0  0  0  0  0  0  0  0  0  0  0  0  # atno 17395 bound_to 11000

$$$$
