AV-unprocessed.smi:290|AV-procd|sdf|2236|dock7
  -GOLD-   2262022103D 1   1.00000     0.00000
 Structure written by MMmdl.
 59 62  0  0  0  0  0  0  0  0  2 V2000
  150.0428  141.9070  156.3773 C   0  0  0  0  0  0  0  0  0  0  0  0
  149.9784  140.9596  155.1695 C   0  0  1  0  0  0  0  0  0  0  0  0
  151.2207  140.2864  154.9727 O   0  0  0  0  0  0  0  0  0  0  0  0
  151.0027  138.9054  154.7085 C   0  0  0  0  0  0  0  0  0  0  0  0
  149.5266  138.7907  154.3419 C   0  0  0  0  0  0  0  0  0  0  0  0
  148.8856  139.8675  155.2066 C   0  0  1  0  0  0  0  0  0  0  0  0
  148.7395  139.3602  156.5227 O   0  0  0  0  0  0  0  0  0  0  0  0
  147.4689  140.3153  154.7609 C   0  0  0  0  0  0  0  0  0  0  0  0
  146.7304  139.3340  153.9810 N   0  0  0  0  0  0  0  0  0  0  0  0
  147.0167  138.9087  152.7031 C   0  0  0  0  0  0  0  0  0  0  0  0
  146.2013  138.0128  152.2179 N   0  0  0  0  0  0  0  0  0  0  0  0
  145.2914  137.7925  153.2447 C   0  0  0  0  0  0  0  0  0  0  0  0
  144.1502  136.9567  153.4023 C   0  0  0  0  0  0  0  0  0  0  0  0
  143.6753  136.1112  152.4627 N   0  0  0  0  0  0  0  0  0  0  0  0
  144.2812  136.2205  151.1393 C   0  0  0  0  0  0  0  0  0  0  0  0
  144.4101  134.7909  150.6105 C   0  0  0  0  0  0  0  0  0  0  0  0
  144.5590  133.9701  151.8956 C   0  0  2  0  0  0  0  0  0  0  0  0
  144.3255  132.5014  151.7613 N   0  3  1  0  0  0  0  0  0  0  0  0
  143.3402  132.1719  150.6996 C   0  0  0  0  0  0  0  0  0  0  0  0
  145.5958  131.7408  151.5993 C   0  0  0  0  0  0  0  0  0  0  0  0
  145.3908  130.2150  151.5475 C   0  0  0  0  0  0  0  0  0  0  0  0
  146.6360  129.5504  151.5640 O   0  0  0  0  0  0  0  0  0  0  0  0
  143.5929  134.7061  152.8527 C   0  0  2  0  0  0  0  0  0  0  0  0
  142.1273  134.2403  152.7650 C   0  0  0  0  0  0  0  0  0  0  0  0
  143.4899  136.9953  154.5846 N   0  0  0  0  0  0  0  0  0  0  0  0
  143.9130  137.8065  155.5592 C   0  0  0  0  0  0  0  0  0  0  0  0
  144.9529  138.6434  155.5562 N   0  0  0  0  0  0  0  0  0  0  0  0
  145.6183  138.6054  154.3659 C   0  0  0  0  0  0  0  0  0  0  0  0
  145.5806  134.1071  152.2533 H   0  0  0  0  0  0  0  0  0  0  0  0
  143.9299  134.5782  153.8829 H   0  0  0  0  0  0  0  0  0  0  0  0
  149.0910  142.4171  156.5259 H   0  0  0  0  0  0  0  0  0  0  0  0
  150.8072  142.6697  156.2283 H   0  0  0  0  0  0  0  0  0  0  0  0
  150.2883  141.3739  157.2960 H   0  0  0  0  0  0  0  0  0  0  0  0
  149.8535  141.5630  154.2718 H   0  0  0  0  0  0  0  0  0  0  0  0
  151.6601  138.5420  153.9184 H   0  0  0  0  0  0  0  0  0  0  0  0
  151.2171  138.3373  155.6145 H   0  0  0  0  0  0  0  0  0  0  0  0
  149.4166  139.0229  153.2832 H   0  0  0  0  0  0  0  0  0  0  0  0
  149.1197  137.7927  154.5091 H   0  0  0  0  0  0  0  0  0  0  0  0
  148.2288  138.5663  156.4847 H   0  0  0  0  0  0  0  0  0  0  0  0
  146.8674  140.5683  155.6352 H   0  0  0  0  0  0  0  0  0  0  0  0
  147.5387  141.2293  154.1693 H   0  0  0  0  0  0  0  0  0  0  0  0
  147.8520  139.2927  152.1355 H   0  0  0  0  0  0  0  0  0  0  0  0
  143.6615  136.8309  150.4821 H   0  0  0  0  0  0  0  0  0  0  0  0
  145.2637  136.6916  151.1951 H   0  0  0  0  0  0  0  0  0  0  0  0
  143.5006  134.5091  150.0781 H   0  0  0  0  0  0  0  0  0  0  0  0
  145.2528  134.6824  149.9269 H   0  0  0  0  0  0  0  0  0  0  0  0
  143.6746  132.5432  149.7300 H   0  0  0  0  0  0  0  0  0  0  0  0
  142.3640  132.6062  150.9139 H   0  0  0  0  0  0  0  0  0  0  0  0
  143.1795  131.0990  150.6114 H   0  0  0  0  0  0  0  0  0  0  0  0
  146.1040  132.0808  150.6957 H   0  0  0  0  0  0  0  0  0  0  0  0
  146.2766  131.9567  152.4224 H   0  0  0  0  0  0  0  0  0  0  0  0
  144.7672  129.8472  152.3609 H   0  0  0  0  0  0  0  0  0  0  0  0
  144.8788  129.9480  150.6227 H   0  0  0  0  0  0  0  0  0  0  0  0
  147.2473  130.0402  151.0343 H   0  0  0  0  0  0  0  0  0  0  0  0
  142.0110  133.2105  153.0979 H   0  0  0  0  0  0  0  0  0  0  0  0
  141.7389  134.3102  151.7489 H   0  0  0  0  0  0  0  0  0  0  0  0
  141.4901  134.8548  153.4020 H   0  0  0  0  0  0  0  0  0  0  0  0
  143.3352  137.7830  156.4715 H   0  0  0  0  0  0  0  0  0  0  0  0
  143.9220  132.1998  152.6371 H   0  0  0  0  0  0  0  0  0  0  0  0
  1  2  1  0  0  0  0
  1 31  1  0  0  0  0
  1 32  1  0  0  0  0
  1 33  1  0  0  0  0
  2  6  1  0  0  0  0
  2  3  1  0  0  0  0
  2 34  1  0  0  0  0
  3  4  1  0  0  0  0
  4  5  1  0  0  0  0
  4 35  1  0  0  0  0
  4 36  1  0  0  0  0
  5  6  1  0  0  0  0
  5 37  1  0  0  0  0
  5 38  1  0  0  0  0
  6  7  1  0  0  0  0
  6  8  1  0  0  0  0
  7 39  1  0  0  0  0
  8  9  1  0  0  0  0
  8 40  1  0  0  0  0
  8 41  1  0  0  0  0
  9 28  1  0  0  0  0
  9 10  1  0  0  0  0
 10 11  2  0  0  0  0
 10 42  1  0  0  0  0
 11 12  1  0  0  0  0
 12 28  2  0  0  0  0
 12 13  1  0  0  0  0
 13 14  1  0  0  0  0
 13 25  2  0  0  0  0
 14 23  1  0  0  0  0
 14 15  1  0  0  0  0
 15 16  1  0  0  0  0
 15 43  1  0  0  0  0
 15 44  1  0  0  0  0
 16 17  1  0  0  0  0
 16 45  1  0  0  0  0
 16 46  1  0  0  0  0
 17 29  1  0  0  0  0
 17 18  1  0  0  0  0
 17 23  1  0  0  0  0
 18 19  1  0  0  0  0
 18 20  1  0  0  0  0
 18 59  1  0  0  0  0
 19 47  1  0  0  0  0
 19 48  1  0  0  0  0
 19 49  1  0  0  0  0
 20 21  1  0  0  0  0
 20 50  1  0  0  0  0
 20 51  1  0  0  0  0
 21 22  1  0  0  0  0
 21 52  1  0  0  0  0
 21 53  1  0  0  0  0
 22 54  1  0  0  0  0
 23 30  1  0  0  0  0
 23 24  1  0  0  0  0
 24 55  1  0  0  0  0
 24 56  1  0  0  0  0
 24 57  1  0  0  0  0
 25 26  1  0  0  0  0
 26 27  2  0  0  0  0
 26 58  1  0  0  0  0
 27 28  1  0  0  0  0
M  CHG  1  18   1
M  END
> <s_m_source_file>
AV-unprocessed.smi

> <i_m_source_file_index>
290

> <i_lp_mmshare_version>
43012

> <i_f3d_flags>
0

> <s_epik_input>
W0NIMl0xW0NIMl1PW0NAQEhdKFtDSDNdKVtDQEBdMShbT0hdKVtDSDJdbihbY0hdbjIpYyhjMjMpbltjSF1uYzNONFtDSDJdW0NIMl1bQ0BIXShbQ0BIXTRbQ0gzXSlOKFtDSDNdKVtDSDJdW0NIMl1bT0hd

> <s_epik_cmdline>
J2VwaWtfcHl0aG9uJywgJy1waCcsICc3LjAnLCAnLXRuJywgJzgnLCAnLW1hJywgJzIwMCcsICctbWV0YWxfYmluZGluZycsICctaW1hZScsICc8aW5maWxlLm1hZT4nLCAnLW9tYWUnLCAnPG91dGZpbGUubWFlPic=

> <r_lp_tautomer_probability>
1

> <r_epik_Ionization_Penalty>
0.0036983

> <r_epik_Ionization_Penalty_Charging>
0.0032725

> <r_epik_Ionization_Penalty_Neutral>
0.000425798

> <r_epik_State_Penalty>
-0

> <r_epik_Charging_Adjusted_Penalty>
0.0032725

> <i_epik_Tot_Q>
1

> <i_epik_Tot_abs_Q>
1

> <r_epik_Metal_State_Penalty>
-0

> <b_epik_Metal_Only>
0

> <s_lp_Force_Field>
OPLS_2005

> <r_lp_Energy>
67.6637

> <b_lp_Chiralities_Consistent>
1

> <s_lp_Variant>
AV-unprocessed.smi:290-22

> <Gold.Version>
5.8.1

> <Gold.Id.Protein>
6NUR|6NUR_protein|mol2

> <Gold.PLP.Fitness>
42.6897

> <Gold.PLP.PLP>
-36.9600

> <Gold.PLP.part.hbond>
-2.0000

> <Gold.PLP.part.metal>
0.0000

> <Gold.PLP.part.buried>
-1.4452

> <Gold.PLP.part.nonpolar>
-34.3517

> <Gold.PLP.part.repulsive>
0.6364

> <Gold.PLP.ligand.clash>
0.0051

> <Gold.PLP.ligand.torsion>
1.7713

> <Gold.PLP.Chemscore.Hbond>
2.0000

> <Gold.PLP.Chemscore.CHOScore>
1.0000

> <Gold.PLP.Chemscore.Metal>
0.0000

> <Gold.Chemscore.Hbonds>
donor molecule, donor type, donor heavy atom, donor atom, acceptor molecule, acceptor atom, score
      L1  H    22    54       P1 10747  0.98
      P1  H  7989  7998       L1     3  1.00
      L1  C    10    42       P1  7957  1.00

> <Gold.PLP.Chemscore.Internal.Correction>
0.2775

> <Gold.Rescore>
     Score         DG    S(hbond)    S(metal)    S(lipo)     H(rot)  DE(clash)    DE(int)     intcor
      5.10     -10.38       1.01        0.00      93.16       3.67       1.27       4.01       ----

> <Gold.Chemscore.Fitness>
5.1045

> <Gold.Chemscore.DG>
-10.3841

> <Gold.Chemscore.ZeroCoef>
-5.4800

> <Gold.Chemscore.Hbond>
1.0147

> <Gold.Chemscore.Metal>
0.0000

> <Gold.Chemscore.Lipo>
93.1587

> <Gold.Chemscore.Internal_Hbond>
0.0000

> <Gold.Chemscore.DEClash>
1.2657

> <Gold.Chemscore.DEInternal>
4.0140

> <Gold.Chemscore.Rot>
3.6658

> <Gold.Chemscore.Internal.Correction>
   9.000000E+99

> <Gold.Chemscore.Hbonds>
donor molecule, donor type, donor heavy atom, donor atom, acceptor molecule, acceptor atom, score
      L1  H    22    54       P1 10747  0.92
      P1  H  7989  7998       L1     3  0.10

> <Gold.Chemscore.Hbond.Weighted>
-3.3889

> <Gold.Chemscore.Metal.Weighted>
-0.0000

> <Gold.Chemscore.Lipo.Weighted>
-10.8996

> <Gold.Chemscore.Internal_Hbond.Weighted>
0.0000

> <Gold.Chemscore.DEClash.Weighted>
1.2657

> <Gold.Chemscore.DEInternal.Weighted>
4.0140

> <Gold.Chemscore.Rot.Weighted>
9.3844

> <Gold.Chemscore.Internal.Correction.Weighted>
   9.000000E+99

> <Gold.Protein.RotatedTorsions>
[ 6907 6896 6895 6894 ] final  -53.60 input  -60.11 | X-H torsion
[ 7974 7965 7964 7962 ] final  140.23 input  175.53 | X-H torsion
[ 8008 7997 7996 7995 ] final  -70.77 input   59.86 | X-H torsion
[ 10167 10162 10161 10158 ] final  -13.82 input  -65.29 | X-H torsion
[ 10718 10713 10712 10709 ] final -116.12 input   66.30 | X-H torsion
[ 10763 10752 10751 10750 ] final   54.14 input  -60.55 | X-H torsion
[ 11005 11000 10999 10996 ] final  102.36 input  -57.11 | X-H torsion

> <Gold.Protein.ActiveResidues>
 VAL166  LYS551  ARG553  GLY616  TRP617  ASP618  TYR619  PRO620  LYS621  CYS622 
 ASP623  PHE694  ASN695  SER759  ASP760  ASP761  ALA762  ILE779  LEU786  VAL792 
 PHE793  MET794  SER795  GLU796  ALA797  LYS798  CYS799  TRP800  GLU811  SER814 

> <Gold.Protein.RotatedAtoms>
  150.8412  134.7705  159.6933 H   0  0  0  0  0  0  0  0  0  0  0  0  # atno 6907 bound_to 6896
  152.4499  134.5412  159.9849 H   0  0  0  0  0  0  0  0  0  0  0  0  # atno 6908 bound_to 6896
  151.5552  133.3373  159.2996 H   0  0  0  0  0  0  0  0  0  0  0  0  # atno 6909 bound_to 6896
  144.9205  139.5174  143.5665 H   0  0  0  0  0  0  0  0  0  0  0  0  # atno 7974 bound_to 7965
  154.5037  140.0828  156.7850 H   0  0  0  0  0  0  0  0  0  0  0  0  # atno 8008 bound_to 7997
  155.3944  140.3434  155.4235 H   0  0  0  0  0  0  0  0  0  0  0  0  # atno 8009 bound_to 7997
  156.1488  140.1552  156.8791 H   0  0  0  0  0  0  0  0  0  0  0  0  # atno 8010 bound_to 7997
  140.7189  143.5387  150.9435 H   0  0  0  0  0  0  0  0  0  0  0  0  # atno 10167 bound_to 10162
  156.0942  130.6118  150.8995 H   0  0  0  0  0  0  0  0  0  0  0  0  # atno 10718 bound_to 10713
  152.9801  135.5755  154.4856 H   0  0  0  0  0  0  0  0  0  0  0  0  # atno 10763 bound_to 10752
  154.4398  135.2775  155.1857 H   0  0  0  0  0  0  0  0  0  0  0  0  # atno 10764 bound_to 10752
  154.3530  135.6205  153.5706 H   0  0  0  0  0  0  0  0  0  0  0  0  # atno 10765 bound_to 10752
  139.8777  134.9221  156.5047 H   0  0  0  0  0  0  0  0  0  0  0  0  # atno 11005 bound_to 11000
  146.3202  139.8081  142.8951 LP  0  0  0  0  0  0  0  0  0  0  0  0  # atno 17320 bound_to 7965
  145.3304  141.0265  143.3450 LP  0  0  0  0  0  0  0  0  0  0  0  0  # atno 17321 bound_to 7965
  139.9109  143.6722  152.3115 LP  0  0  0  0  0  0  0  0  0  0  0  0  # atno 17342 bound_to 10162
  139.7104  144.7621  151.1121 LP  0  0  0  0  0  0  0  0  0  0  0  0  # atno 17343 bound_to 10162
  157.6099  131.0937  150.8814 LP  0  0  0  0  0  0  0  0  0  0  0  0  # atno 17370 bound_to 10713
  156.8955  130.5228  149.5284 LP  0  0  0  0  0  0  0  0  0  0  0  0  # atno 17371 bound_to 10713
  140.8564  133.8093  155.9220 LP  0  0  0  0  0  0  0  0  0  0  0  0  # atno 17394 bound_to 11000
  140.9093  134.2280  157.4995 LP  0  0  0  0  0  0  0  0  0  0  0  0  # atno 17395 bound_to 11000

$$$$
