AV-unprocessed.smi:2411|AV-procd|sdf|9530|dock4
  -GOLD-   2272013163D 1   1.00000     0.00000
 Structure written by MMmdl.
 41 43  0  0  0  0  0  0  0  0  1 V2000
  146.7148  142.1938  153.8507 C   0  0  0  0  0  0  0  0  0  0  0  0
  147.1662  141.7213  155.1526 N   0  0  0  0  0  0  0  0  0  0  0  0
  146.1339  141.5639  156.1697 C   0  0  0  0  0  0  0  0  0  0  0  0
  148.1300  140.6953  155.0738 C   0  0  0  0  0  0  0  0  0  0  0  0
  147.7363  139.4885  154.5985 N   0  0  0  0  0  0  0  0  0  0  0  0
  148.6585  138.5291  154.5067 C   0  0  0  0  0  0  0  0  0  0  0  0
  149.9448  138.6257  154.8421 N   0  0  0  0  0  0  0  0  0  0  0  0
  150.3594  139.8172  155.3202 C   0  0  0  0  0  0  0  0  0  0  0  0
  149.4793  140.9189  155.4550 C   0  0  0  0  0  0  0  0  0  0  0  0
  149.8779  142.1684  156.0043 N   0  0  0  0  0  0  0  0  0  0  0  0
  150.9108  142.4096  156.8268 C   0  0  0  0  0  0  0  0  0  0  0  0
  151.6666  141.5527  157.2848 O   0  0  0  0  0  0  0  0  0  0  0  0
  151.0400  143.7216  157.0664 N   0  0  0  0  0  0  0  0  0  0  0  0
  152.0959  144.3379  157.8664 C   0  0  0  0  0  0  0  0  0  0  0  0
  151.9119  144.3562  159.3837 C   0  0  0  0  0  0  0  0  0  0  0  0
  152.8627  143.4146  160.1154 C   0  0  0  0  0  0  0  0  0  0  0  0
  152.5432  141.9413  160.2057 C   0  0  0  0  0  0  0  0  0  0  0  0
  152.5792  142.7803  161.4618 C   0  0  0  0  0  0  0  0  0  0  0  0
  151.5862  145.6617  160.0883 C   0  0  0  0  0  0  0  0  0  0  0  0
  150.5128  144.6187  159.9270 C   0  0  0  0  0  0  0  0  0  0  0  0
  147.5457  142.5189  153.2251 H   0  0  0  0  0  0  0  0  0  0  0  0
  146.0373  143.0400  153.9675 H   0  0  0  0  0  0  0  0  0  0  0  0
  146.1809  141.4026  153.3230 H   0  0  0  0  0  0  0  0  0  0  0  0
  146.5685  141.2589  157.1224 H   0  0  0  0  0  0  0  0  0  0  0  0
  145.3996  140.8164  155.8668 H   0  0  0  0  0  0  0  0  0  0  0  0
  145.6126  142.5082  156.3274 H   0  0  0  0  0  0  0  0  0  0  0  0
  148.3278  137.5747  154.1252 H   0  0  0  0  0  0  0  0  0  0  0  0
  151.3956  139.8666  155.6178 H   0  0  0  0  0  0  0  0  0  0  0  0
  149.3999  142.9773  155.6346 H   0  0  0  0  0  0  0  0  0  0  0  0
  150.3711  144.3479  156.6428 H   0  0  0  0  0  0  0  0  0  0  0  0
  153.0151  143.7935  157.6496 H   0  0  0  0  0  0  0  0  0  0  0  0
  152.2746  145.3597  157.5272 H   0  0  0  0  0  0  0  0  0  0  0  0
  153.9130  143.6483  159.9515 H   0  0  0  0  0  0  0  0  0  0  0  0
  151.5680  141.6120  159.8520 H   0  0  0  0  0  0  0  0  0  0  0  0
  153.3597  141.2408  160.0426 H   0  0  0  0  0  0  0  0  0  0  0  0
  153.4248  142.6368  162.1313 H   0  0  0  0  0  0  0  0  0  0  0  0
  151.6341  142.9787  161.9597 H   0  0  0  0  0  0  0  0  0  0  0  0
  151.9871  145.8097  161.0891 H   0  0  0  0  0  0  0  0  0  0  0  0
  151.4963  146.5689  159.4955 H   0  0  0  0  0  0  0  0  0  0  0  0
  149.7147  144.8377  159.2209 H   0  0  0  0  0  0  0  0  0  0  0  0
  150.1833  144.0975  160.8214 H   0  0  0  0  0  0  0  0  0  0  0  0
  1  2  1  0  0  0  0
  1 21  1  0  0  0  0
  1 22  1  0  0  0  0
  1 23  1  0  0  0  0
  2  3  1  0  0  0  0
  2  4  1  0  0  0  0
  3 24  1  0  0  0  0
  3 25  1  0  0  0  0
  3 26  1  0  0  0  0
  4  9  1  0  0  0  0
  4  5  2  0  0  0  0
  5  6  1  0  0  0  0
  6  7  2  0  0  0  0
  6 27  1  0  0  0  0
  7  8  1  0  0  0  0
  8  9  2  0  0  0  0
  8 28  1  0  0  0  0
  9 10  1  0  0  0  0
 10 11  1  0  0  0  0
 10 29  1  0  0  0  0
 11 12  2  0  0  0  0
 11 13  1  0  0  0  0
 13 14  1  0  0  0  0
 13 30  1  0  0  0  0
 14 15  1  0  0  0  0
 14 31  1  0  0  0  0
 14 32  1  0  0  0  0
 15 20  1  0  0  0  0
 15 16  1  0  0  0  0
 15 19  1  0  0  0  0
 16 18  1  0  0  0  0
 16 17  1  0  0  0  0
 16 33  1  0  0  0  0
 17 18  1  0  0  0  0
 17 34  1  0  0  0  0
 17 35  1  0  0  0  0
 18 36  1  0  0  0  0
 18 37  1  0  0  0  0
 19 20  1  0  0  0  0
 19 38  1  0  0  0  0
 19 39  1  0  0  0  0
 20 40  1  0  0  0  0
 20 41  1  0  0  0  0
M  END
> <s_m_source_file>
AV-unprocessed.smi

> <i_m_source_file_index>
2411

> <i_lp_mmshare_version>
43012

> <i_f3d_flags>
0

> <s_epik_input>
W0NIM11OKFtDSDNdKWMxbltjSF1uW2NIXWMxW05IXUMoPU8pW05IXVtDSDJdQzIoW0NIMl1bQ0gyXTIpW0NIXTNbQ0gyXVtDSDJdMw==

> <s_epik_cmdline>
J2VwaWtfcHl0aG9uJywgJy1waCcsICc3LjAnLCAnLXRuJywgJzgnLCAnLW1hJywgJzIwMCcsICctbWV0YWxfYmluZGluZycsICctaW1hZScsICc8aW5maWxlLm1hZT4nLCAnLW9tYWUnLCAnPG91dGZpbGUubWFlPic=

> <r_lp_tautomer_probability>
1

> <r_epik_Ionization_Penalty>
0.0183431

> <r_epik_Ionization_Penalty_Charging>
0

> <r_epik_Ionization_Penalty_Neutral>
0.0183431

> <r_epik_State_Penalty>
0.013978

> <r_epik_Charging_Adjusted_Penalty>
0.013978

> <i_epik_Tot_Q>
0

> <i_epik_Tot_abs_Q>
0

> <r_epik_Metal_State_Penalty>
0.0135734

> <b_epik_Metal_Only>
0

> <s_lp_Force_Field>
OPLS_2005

> <r_lp_Energy>
29.7017

> <b_lp_Chiralities_Consistent>
1

> <s_lp_Variant>
AV-unprocessed.smi:2411-1

> <Gold.Version>
5.8.1

> <Gold.Id.Protein>
6NUR|6NUR_protein|mol2

> <Gold.PLP.Fitness>
52.4975

> <Gold.PLP.PLP>
-45.0375

> <Gold.PLP.part.hbond>
-2.0000

> <Gold.PLP.part.metal>
0.0000

> <Gold.PLP.part.buried>
-6.1419

> <Gold.PLP.part.nonpolar>
-38.3192

> <Gold.PLP.part.repulsive>
0.5393

> <Gold.PLP.ligand.clash>
0.0000

> <Gold.PLP.ligand.torsion>
2.1976

> <Gold.PLP.Chemscore.Hbond>
2.0000

> <Gold.PLP.Chemscore.CHOScore>
1.0000

> <Gold.PLP.Chemscore.Metal>
0.0000

> <Gold.Chemscore.Hbonds>
donor molecule, donor type, donor heavy atom, donor atom, acceptor molecule, acceptor atom, score
      L1  H    10    29       P1  8028  1.00
      L1  H    13    30       P1  8028  1.00
      L1  C     6    27       P1  7948  0.58

> <Gold.PLP.Chemscore.Internal.Correction>
2.8553

> <Gold.Rescore>
     Score         DG    S(hbond)    S(metal)    S(lipo)     H(rot)  DE(clash)    DE(int)     intcor
     16.30     -19.76       1.96        0.00     102.65       1.68       0.05       3.41       ----

> <Gold.Chemscore.Fitness>
16.3020

> <Gold.Chemscore.DG>
-19.7626

> <Gold.Chemscore.ZeroCoef>
-5.4800

> <Gold.Chemscore.Hbond>
1.9648

> <Gold.Chemscore.Metal>
0.0000

> <Gold.Chemscore.Lipo>
102.6487

> <Gold.Chemscore.Internal_Hbond>
0.0000

> <Gold.Chemscore.DEClash>
0.0509

> <Gold.Chemscore.DEInternal>
3.4097

> <Gold.Chemscore.Rot>
1.6757

> <Gold.Chemscore.Internal.Correction>
   9.000000E+99

> <Gold.Chemscore.Hbonds>
donor molecule, donor type, donor heavy atom, donor atom, acceptor molecule, acceptor atom, score
      L1  H    10    29       P1  8028  0.98
      L1  H    13    30       P1  8028  0.97

> <Gold.Chemscore.Hbond.Weighted>
-6.5624

> <Gold.Chemscore.Metal.Weighted>
-0.0000

> <Gold.Chemscore.Lipo.Weighted>
-12.0099

> <Gold.Chemscore.Internal_Hbond.Weighted>
0.0000

> <Gold.Chemscore.DEClash.Weighted>
0.0509

> <Gold.Chemscore.DEInternal.Weighted>
3.4097

> <Gold.Chemscore.Rot.Weighted>
4.2897

> <Gold.Chemscore.Internal.Correction.Weighted>
   9.000000E+99

> <Gold.Protein.RotatedTorsions>
[ 6907 6896 6895 6894 ] final -134.99 input  -60.11 | X-H torsion
[ 7974 7965 7964 7962 ] final  148.30 input  175.53 | X-H torsion
[ 8008 7997 7996 7995 ] final  -68.77 input   59.86 | X-H torsion
[ 10167 10162 10161 10158 ] final   42.23 input  -65.29 | X-H torsion
[ 10718 10713 10712 10709 ] final  170.62 input   66.30 | X-H torsion
[ 10763 10752 10751 10750 ] final -136.72 input  -60.55 | X-H torsion
[ 11005 11000 10999 10996 ] final  -59.63 input  -57.11 | X-H torsion

> <Gold.Protein.ActiveResidues>
 VAL166  LYS551  ARG553  GLY616  TRP617  ASP618  TYR619  PRO620  LYS621  CYS622 
 ASP623  PHE694  ASN695  SER759  ASP760  ASP761  ALA762  ILE779  LEU786  VAL792 
 PHE793  MET794  SER795  GLU796  ALA797  LYS798  CYS799  TRP800  GLU811  SER814 

> <Gold.Protein.RotatedAtoms>
  150.9924  133.6136  159.2706 H   0  0  0  0  0  0  0  0  0  0  0  0  # atno 6907 bound_to 6896
  151.3352  135.0850  159.9362 H   0  0  0  0  0  0  0  0  0  0  0  0  # atno 6908 bound_to 6896
  152.5250  133.9546  159.7742 H   0  0  0  0  0  0  0  0  0  0  0  0  # atno 6909 bound_to 6896
  144.8524  139.6136  143.5967 H   0  0  0  0  0  0  0  0  0  0  0  0  # atno 7974 bound_to 7965
  154.4891  140.0866  156.7554 H   0  0  0  0  0  0  0  0  0  0  0  0  # atno 8008 bound_to 7997
  155.4276  140.3448  155.4259 H   0  0  0  0  0  0  0  0  0  0  0  0  # atno 8009 bound_to 7997
  156.1304  140.1499  156.9062 H   0  0  0  0  0  0  0  0  0  0  0  0  # atno 8010 bound_to 7997
  140.3565  144.2284  150.6141 H   0  0  0  0  0  0  0  0  0  0  0  0  # atno 10167 bound_to 10162
  157.0055  131.0189  151.2818 H   0  0  0  0  0  0  0  0  0  0  0  0  # atno 10718 bound_to 10713
  154.8678  135.3664  154.5106 H   0  0  0  0  0  0  0  0  0  0  0  0  # atno 10763 bound_to 10752
  153.5741  135.7020  153.5496 H   0  0  0  0  0  0  0  0  0  0  0  0  # atno 10764 bound_to 10752
  153.3515  135.4070  155.1613 H   0  0  0  0  0  0  0  0  0  0  0  0  # atno 10765 bound_to 10752
  141.1256  133.6617  156.5100 H   0  0  0  0  0  0  0  0  0  0  0  0  # atno 11005 bound_to 11000
  146.2796  139.6842  142.9238 LP  0  0  0  0  0  0  0  0  0  0  0  0  # atno 17320 bound_to 7965
  145.4472  141.0426  143.2824 LP  0  0  0  0  0  0  0  0  0  0  0  0  # atno 17321 bound_to 7965
  140.5169  143.2276  151.8449 LP  0  0  0  0  0  0  0  0  0  0  0  0  # atno 17342 bound_to 10162
  139.4819  144.4883  151.9218 LP  0  0  0  0  0  0  0  0  0  0  0  0  # atno 17343 bound_to 10162
  157.5359  130.8088  149.7971 LP  0  0  0  0  0  0  0  0  0  0  0  0  # atno 17370 bound_to 10713
  156.0155  130.3815  150.2125 LP  0  0  0  0  0  0  0  0  0  0  0  0  # atno 17371 bound_to 10713
  140.4376  134.7045  157.4975 LP  0  0  0  0  0  0  0  0  0  0  0  0  # atno 17394 bound_to 11000
  140.0251  134.6489  155.9185 LP  0  0  0  0  0  0  0  0  0  0  0  0  # atno 17395 bound_to 11000

$$$$
