AV-unprocessed.smi:2769|AV-procd|sdf|10656|dock2
  -GOLD-   2272015103D 1   1.00000     0.00000
 Structure written by MMmdl.
 20 21  0  0  0  0  0  0  0  0  2 V2000
  152.0422  141.2251  159.4921 C   0  0  0  0  0  0  0  0  0  0  0  0
  152.1666  140.4534  158.2230 C   0  0  0  0  0  0  0  0  0  0  0  0
  153.1860  139.6296  158.0141 N   0  0  0  0  0  0  0  0  0  0  0  0
  152.9366  139.1262  156.7295 O   0  0  0  0  0  0  0  0  0  0  0  0
  151.7635  139.6782  156.3370 C   0  0  0  0  0  0  0  0  0  0  0  0
  151.2703  139.4120  154.9542 C   0  0  0  0  0  0  0  0  0  0  0  0
  149.8460  138.9565  154.6634 C   0  0  0  0  0  0  0  0  0  0  0  0
  150.3923  138.3266  153.4618 N   0  3  0  0  0  0  0  0  0  0  0  0
  151.6789  138.1877  154.1428 C   0  0  0  0  0  0  0  0  0  0  0  0
  151.2599  140.5455  157.2115 N   0  0  0  0  0  0  0  0  0  0  0  0
  153.0225  141.3976  159.9378 H   0  0  0  0  0  0  0  0  0  0  0  0
  151.4282  140.6759  160.2062 H   0  0  0  0  0  0  0  0  0  0  0  0
  151.5758  142.1929  159.3063 H   0  0  0  0  0  0  0  0  0  0  0  0
  151.4850  140.3099  154.3679 H   0  0  0  0  0  0  0  0  0  0  0  0
  149.4593  138.2306  155.3821 H   0  0  0  0  0  0  0  0  0  0  0  0
  149.1361  139.7598  154.4642 H   0  0  0  0  0  0  0  0  0  0  0  0
  149.9554  137.4483  153.2203 H   0  0  0  0  0  0  0  0  0  0  0  0
  152.5447  138.3304  153.4956 H   0  0  0  0  0  0  0  0  0  0  0  0
  151.7465  137.2680  154.7281 H   0  0  0  0  0  0  0  0  0  0  0  0
  150.4473  138.9783  152.6920 H   0  0  0  0  0  0  0  0  0  0  0  0
  1  2  1  0  0  0  0
  1 11  1  0  0  0  0
  1 12  1  0  0  0  0
  1 13  1  0  0  0  0
  2 10  1  0  0  0  0
  2  3  2  0  0  0  0
  3  4  1  0  0  0  0
  4  5  1  0  0  0  0
  5  6  1  0  0  0  0
  5 10  2  0  0  0  0
  6  9  1  0  0  0  0
  6  7  1  0  0  0  0
  6 14  1  0  0  0  0
  7  8  1  0  0  0  0
  7 15  1  0  0  0  0
  7 16  1  0  0  0  0
  8  9  1  0  0  0  0
  8 17  1  0  0  0  0
  8 20  1  0  0  0  0
  9 18  1  0  0  0  0
  9 19  1  0  0  0  0
M  CHG  1   8   1
M  END
> <s_m_source_file>
AV-unprocessed.smi

> <i_m_source_file_index>
2769

> <i_lp_mmshare_version>
43012

> <i_f3d_flags>
0

> <s_epik_input>
W0NIM11jMW5vYyhuMSlbQ0hdMltDSDJdW05IXVtDSDJdMg==

> <s_epik_cmdline>
J2VwaWtfcHl0aG9uJywgJy1waCcsICc3LjAnLCAnLXRuJywgJzgnLCAnLW1hJywgJzIwMCcsICctbWV0YWxfYmluZGluZycsICctaW1hZScsICc8aW5maWxlLm1hZT4nLCAnLW9tYWUnLCAnPG91dGZpbGUubWFlPic=

> <r_lp_tautomer_probability>
1

> <r_epik_Ionization_Penalty>
0.0104968

> <r_epik_Ionization_Penalty_Charging>
0.0104968

> <r_epik_Ionization_Penalty_Neutral>
4.87029e-13

> <r_epik_State_Penalty>
0.00803009

> <r_epik_Charging_Adjusted_Penalty>
0.0185269

> <i_epik_Tot_Q>
1

> <i_epik_Tot_abs_Q>
1

> <r_epik_Metal_State_Penalty>
0.00803009

> <b_epik_Metal_Only>
0

> <s_lp_Force_Field>
OPLS_2005

> <r_lp_Energy>
11.9904

> <b_lp_Chiralities_Consistent>
1

> <s_lp_Variant>
AV-unprocessed.smi:2769-1

> <Gold.Version>
5.8.1

> <Gold.Id.Protein>
6NUR|6NUR_protein|mol2

> <Gold.PLP.Fitness>
28.6379

> <Gold.PLP.PLP>
-19.0377

> <Gold.PLP.part.hbond>
-4.5154

> <Gold.PLP.part.metal>
0.0000

> <Gold.PLP.part.buried>
-0.9693

> <Gold.PLP.part.nonpolar>
-12.8995

> <Gold.PLP.part.repulsive>
0.0957

> <Gold.PLP.ligand.clash>
0.0000

> <Gold.PLP.ligand.torsion>
0.3199

> <Gold.PLP.Chemscore.Hbond>
3.3360

> <Gold.PLP.Chemscore.CHOScore>
0.0000

> <Gold.PLP.Chemscore.Metal>
0.0000

> <Gold.Chemscore.Hbonds>
donor molecule, donor type, donor heavy atom, donor atom, acceptor molecule, acceptor atom, score
      L1  H     8    17       P1  7948  1.98
      L1  H     8    20       P1  7957  1.00
      P1  H  7997  8009       L1     4  0.34

> <Gold.PLP.Chemscore.Internal.Correction>
0.2321

> <Gold.Rescore>
     Score         DG    S(hbond)    S(metal)    S(lipo)     H(rot)  DE(clash)    DE(int)     intcor
     12.29     -12.59       1.88        0.00      28.84       1.00       0.03       0.27       ----

> <Gold.Chemscore.Fitness>
12.2921

> <Gold.Chemscore.DG>
-12.5876

> <Gold.Chemscore.ZeroCoef>
-5.4800

> <Gold.Chemscore.Hbond>
1.8844

> <Gold.Chemscore.Metal>
0.0000

> <Gold.Chemscore.Lipo>
28.8364

> <Gold.Chemscore.Internal_Hbond>
0.0000

> <Gold.Chemscore.DEClash>
0.0270

> <Gold.Chemscore.DEInternal>
0.2685

> <Gold.Chemscore.Rot>
1.0000

> <Gold.Chemscore.Internal.Correction>
   9.000000E+99

> <Gold.Chemscore.Hbonds>
donor molecule, donor type, donor heavy atom, donor atom, acceptor molecule, acceptor atom, score
      L1  H     8    17       P1  7948  0.30
      L1  H     8    20       P1  7957  0.27
      P1  H  7997  8009       L1     4  0.01

> <Gold.Chemscore.Hbond.Weighted>
-6.2937

> <Gold.Chemscore.Metal.Weighted>
-0.0000

> <Gold.Chemscore.Lipo.Weighted>
-3.3739

> <Gold.Chemscore.Internal_Hbond.Weighted>
0.0000

> <Gold.Chemscore.DEClash.Weighted>
0.0270

> <Gold.Chemscore.DEInternal.Weighted>
0.2685

> <Gold.Chemscore.Rot.Weighted>
2.5600

> <Gold.Chemscore.Internal.Correction.Weighted>
   9.000000E+99

> <Gold.Protein.RotatedTorsions>
[ 6907 6896 6895 6894 ] final   57.91 input  -60.11 | X-H torsion
[ 7974 7965 7964 7962 ] final   51.66 input  175.53 | X-H torsion
[ 8008 7997 7996 7995 ] final -142.37 input   59.86 | X-H torsion
[ 10167 10162 10161 10158 ] final   20.05 input  -65.29 | X-H torsion
[ 10718 10713 10712 10709 ] final  -59.25 input   66.30 | X-H torsion
[ 10763 10752 10751 10750 ] final  -83.60 input  -60.55 | X-H torsion
[ 11005 11000 10999 10996 ] final  143.86 input  -57.11 | X-H torsion

> <Gold.Protein.ActiveResidues>
 VAL166  LYS551  ARG553  GLY616  TRP617  ASP618  TYR619  PRO620  LYS621  CYS622 
 ASP623  PHE694  ASN695  SER759  ASP760  ASP761  ALA762  ILE779  LEU786  VAL792 
 PHE793  MET794  SER795  GLU796  ALA797  LYS798  CYS799  TRP800  GLU811  SER814 

> <Gold.Protein.RotatedAtoms>
  152.3776  134.6640  160.0154 H   0  0  0  0  0  0  0  0  0  0  0  0  # atno 6907 bound_to 6896
  151.6913  133.3305  159.3251 H   0  0  0  0  0  0  0  0  0  0  0  0  # atno 6908 bound_to 6896
  150.7721  134.6631  159.6395 H   0  0  0  0  0  0  0  0  0  0  0  0  # atno 6909 bound_to 6896
  145.9891  139.4320  143.0085 H   0  0  0  0  0  0  0  0  0  0  0  0  # atno 7974 bound_to 7965
  155.4931  140.0569  157.2950 H   0  0  0  0  0  0  0  0  0  0  0  0  # atno 8008 bound_to 7997
  154.4615  140.1999  156.0182 H   0  0  0  0  0  0  0  0  0  0  0  0  # atno 8009 bound_to 7997
  156.0899  140.3235  155.7806 H   0  0  0  0  0  0  0  0  0  0  0  0  # atno 8010 bound_to 7997
  140.5533  143.9470  150.6592 H   0  0  0  0  0  0  0  0  0  0  0  0  # atno 10167 bound_to 10162
  156.1075  130.4179  150.0690 H   0  0  0  0  0  0  0  0  0  0  0  0  # atno 10718 bound_to 10713
  154.5897  135.5550  153.7266 H   0  0  0  0  0  0  0  0  0  0  0  0  # atno 10763 bound_to 10752
  153.0112  135.6340  154.1867 H   0  0  0  0  0  0  0  0  0  0  0  0  # atno 10764 bound_to 10752
  154.1808  135.2887  155.3032 H   0  0  0  0  0  0  0  0  0  0  0  0  # atno 10765 bound_to 10752
  140.0587  134.9216  157.1146 H   0  0  0  0  0  0  0  0  0  0  0  0  # atno 11005 bound_to 11000
  145.7657  140.9917  143.1176 LP  0  0  0  0  0  0  0  0  0  0  0  0  # atno 17320 bound_to 7965
  144.6883  139.9385  143.7474 LP  0  0  0  0  0  0  0  0  0  0  0  0  # atno 17321 bound_to 7965
  140.2901  143.3330  152.1070 LP  0  0  0  0  0  0  0  0  0  0  0  0  # atno 17342 bound_to 10162
  139.5037  144.6760  151.6127 LP  0  0  0  0  0  0  0  0  0  0  0  0  # atno 17343 bound_to 10162
  156.8662  130.9508  151.3613 LP  0  0  0  0  0  0  0  0  0  0  0  0  # atno 17370 bound_to 10713
  157.6253  130.8687  149.9179 LP  0  0  0  0  0  0  0  0  0  0  0  0  # atno 17371 bound_to 10713
  140.3804  134.2293  155.7171 LP  0  0  0  0  0  0  0  0  0  0  0  0  # atno 17394 bound_to 11000
  141.1963  133.8085  157.0676 LP  0  0  0  0  0  0  0  0  0  0  0  0  # atno 17395 bound_to 11000

$$$$
