AV-unprocessed.smi:3002|AV-procd|sdf|11433|dock2
  -GOLD-   2272016363D 1   1.00000     0.00000
 Structure written by MMmdl.
 34 35  0  0  0  0  0  0  0  0  1 V2000
  151.8622  145.2097  158.7776 C   0  0  0  0  0  0  0  0  0  0  0  0
  152.2062  143.7192  158.5614 C   0  0  2  0  0  0  0  0  0  0  0  0
  150.9710  142.9378  158.0841 C   0  0  0  0  0  0  0  0  0  0  0  0
  149.9703  142.8544  158.7966 O   0  0  0  0  0  0  0  0  0  0  0  0
  151.0617  142.3573  156.8785 N   0  0  0  0  0  0  0  0  0  0  0  0
  150.0188  141.5425  156.2694 C   0  0  0  0  0  0  0  0  0  0  0  0
  150.6278  140.4127  155.4221 C   0  0  2  0  0  0  0  0  0  0  0  0
  149.5523  139.5204  154.7729 C   0  0  0  0  0  0  0  0  0  0  0  0
  150.2359  138.2826  154.1845 C   0  0  0  0  0  0  0  0  0  0  0  0
  151.6162  137.8972  155.3245 S   0  0  0  0  0  0  0  0  0  0  0  0
  151.2044  136.8308  156.2497 O   0  0  0  0  0  0  0  0  0  0  0  0
  152.8619  137.7893  154.5503 O   0  0  0  0  0  0  0  0  0  0  0  0
  151.5817  139.5003  156.2146 C   0  0  0  0  0  0  0  0  0  0  0  0
  152.7992  143.0814  159.7401 N   0  0  0  0  0  0  0  0  0  0  0  0
  152.9332  143.5298  160.9938 C   0  0  0  0  0  0  0  0  0  0  0  0
  153.4591  142.6496  161.8334 N   0  0  0  0  0  0  0  0  0  0  0  0
  153.6189  141.5938  160.9833 C   0  0  0  0  0  0  0  0  0  0  0  0
  153.2204  141.7907  159.7271 N   0  0  0  0  0  0  0  0  0  0  0  0
  151.3583  145.6303  157.9064 H   0  0  0  0  0  0  0  0  0  0  0  0
  152.7627  145.8022  158.9418 H   0  0  0  0  0  0  0  0  0  0  0  0
  151.2081  145.3530  159.6389 H   0  0  0  0  0  0  0  0  0  0  0  0
  152.9572  143.6708  157.7710 H   0  0  0  0  0  0  0  0  0  0  0  0
  151.9166  142.4757  156.3542 H   0  0  0  0  0  0  0  0  0  0  0  0
  149.3758  141.1200  157.0436 H   0  0  0  0  0  0  0  0  0  0  0  0
  149.3916  142.1821  155.6470 H   0  0  0  0  0  0  0  0  0  0  0  0
  151.2034  140.8616  154.6108 H   0  0  0  0  0  0  0  0  0  0  0  0
  148.8415  139.2002  155.5361 H   0  0  0  0  0  0  0  0  0  0  0  0
  148.9838  140.0588  154.0141 H   0  0  0  0  0  0  0  0  0  0  0  0
  149.5686  137.4255  154.0924 H   0  0  0  0  0  0  0  0  0  0  0  0
  150.6589  138.5045  153.2045 H   0  0  0  0  0  0  0  0  0  0  0  0
  152.5907  139.9050  156.2952 H   0  0  0  0  0  0  0  0  0  0  0  0
  151.2029  139.3136  157.2202 H   0  0  0  0  0  0  0  0  0  0  0  0
  152.6365  144.5211  161.3042 H   0  0  0  0  0  0  0  0  0  0  0  0
  154.0297  140.6470  161.3023 H   0  0  0  0  0  0  0  0  0  0  0  0
  1  2  1  0  0  0  0
  1 19  1  0  0  0  0
  1 20  1  0  0  0  0
  1 21  1  0  0  0  0
  2  3  1  0  0  0  0
  2 14  1  0  0  0  0
  2 22  1  0  0  0  0
  3  4  2  0  0  0  0
  3  5  1  0  0  0  0
  5  6  1  0  0  0  0
  5 23  1  0  0  0  0
  6  7  1  0  0  0  0
  6 24  1  0  0  0  0
  6 25  1  0  0  0  0
  7 13  1  0  0  0  0
  7  8  1  0  0  0  0
  7 26  1  0  0  0  0
  8  9  1  0  0  0  0
  8 27  1  0  0  0  0
  8 28  1  0  0  0  0
  9 10  1  0  0  0  0
  9 29  1  0  0  0  0
  9 30  1  0  0  0  0
 10 11  2  0  0  0  0
 10 12  2  0  0  0  0
 10 13  1  0  0  0  0
 13 31  1  0  0  0  0
 13 32  1  0  0  0  0
 14 18  1  0  0  0  0
 14 15  1  0  0  0  0
 15 16  2  0  0  0  0
 15 33  1  0  0  0  0
 16 17  1  0  0  0  0
 17 18  2  0  0  0  0
 17 34  1  0  0  0  0
M  END
> <s_m_source_file>
AV-unprocessed.smi

> <i_m_source_file_index>
3002

> <i_lp_mmshare_version>
43012

> <i_f3d_flags>
0

> <s_epik_input>
bjFbY0hdbltjSF1uMVtDQEhdKFtDSDNdKUMoPU8pW05IXVtDSDJdW0NAQEhdKFtDSDJdMilbQ0gyXVtDSDJdUzIoPU8pPU8=

> <s_epik_cmdline>
J2VwaWtfcHl0aG9uJywgJy1waCcsICc3LjAnLCAnLXRuJywgJzgnLCAnLW1hJywgJzIwMCcsICctbWV0YWxfYmluZGluZycsICctaW1hZScsICc8aW5maWxlLm1hZT4nLCAnLW9tYWUnLCAnPG91dGZpbGUubWFlPic=

> <r_lp_tautomer_probability>
1

> <r_epik_Ionization_Penalty>
1.1748e-05

> <r_epik_Ionization_Penalty_Charging>
0

> <r_epik_Ionization_Penalty_Neutral>
1.1748e-05

> <r_epik_State_Penalty>
-0

> <r_epik_Charging_Adjusted_Penalty>
0

> <i_epik_Tot_Q>
0

> <i_epik_Tot_abs_Q>
0

> <r_epik_Metal_State_Penalty>
-0

> <b_epik_Metal_Only>
0

> <s_lp_Force_Field>
OPLS_2005

> <r_lp_Energy>
11.0715

> <b_lp_Chiralities_Consistent>
1

> <s_lp_Variant>
AV-unprocessed.smi:3002-1

> <Gold.Version>
5.8.1

> <Gold.Id.Protein>
6NUR|6NUR_protein|mol2

> <Gold.PLP.Fitness>
45.8500

> <Gold.PLP.PLP>
-41.8106

> <Gold.PLP.part.hbond>
-3.4050

> <Gold.PLP.part.metal>
0.0000

> <Gold.PLP.part.buried>
-4.6215

> <Gold.PLP.part.nonpolar>
-33.5530

> <Gold.PLP.part.repulsive>
0.2358

> <Gold.PLP.ligand.clash>
0.0000

> <Gold.PLP.ligand.torsion>
0.2655

> <Gold.PLP.Chemscore.Hbond>
1.4815

> <Gold.PLP.Chemscore.CHOScore>
0.0000

> <Gold.PLP.Chemscore.Metal>
0.0000

> <Gold.Chemscore.Hbonds>
donor molecule, donor type, donor heavy atom, donor atom, acceptor molecule, acceptor atom, score
      P1  H 10752 10765       L1    12  0.01

> <Gold.PLP.Chemscore.Internal.Correction>
0.1261

> <Gold.Rescore>
     Score         DG    S(hbond)    S(metal)    S(lipo)     H(rot)  DE(clash)    DE(int)     intcor
      8.70      -9.21       1.10        0.00      52.93       2.39       0.17       0.34       ----

> <Gold.Chemscore.Fitness>
8.6966

> <Gold.Chemscore.DG>
-9.2115

> <Gold.Chemscore.ZeroCoef>
-5.4800

> <Gold.Chemscore.Hbond>
1.0985

> <Gold.Chemscore.Metal>
0.0000

> <Gold.Chemscore.Lipo>
52.9274

> <Gold.Chemscore.Internal_Hbond>
0.0000

> <Gold.Chemscore.DEClash>
0.1743

> <Gold.Chemscore.DEInternal>
0.3405

> <Gold.Chemscore.Rot>
2.3946

> <Gold.Chemscore.Internal.Correction>
   9.000000E+99

> <Gold.Chemscore.Hbond.Weighted>
-3.6691

> <Gold.Chemscore.Metal.Weighted>
-0.0000

> <Gold.Chemscore.Lipo.Weighted>
-6.1925

> <Gold.Chemscore.Internal_Hbond.Weighted>
0.0000

> <Gold.Chemscore.DEClash.Weighted>
0.1743

> <Gold.Chemscore.DEInternal.Weighted>
0.3405

> <Gold.Chemscore.Rot.Weighted>
6.1301

> <Gold.Chemscore.Internal.Correction.Weighted>
   9.000000E+99

> <Gold.Protein.RotatedTorsions>
[ 6907 6896 6895 6894 ] final   94.50 input  -60.11 | X-H torsion
[ 7974 7965 7964 7962 ] final  -24.82 input  175.53 | X-H torsion
[ 8008 7997 7996 7995 ] final  119.78 input   59.86 | X-H torsion
[ 10167 10162 10161 10158 ] final -111.04 input  -65.29 | X-H torsion
[ 10718 10713 10712 10709 ] final   96.15 input   66.30 | X-H torsion
[ 10763 10752 10751 10750 ] final -149.21 input  -60.55 | X-H torsion
[ 11005 11000 10999 10996 ] final   76.47 input  -57.11 | X-H torsion

> <Gold.Protein.ActiveResidues>
 VAL166  LYS551  ARG553  GLY616  TRP617  ASP618  TYR619  PRO620  LYS621  CYS622 
 ASP623  PHE694  ASN695  SER759  ASP760  ASP761  ALA762  ILE779  LEU786  VAL792 
 PHE793  MET794  SER795  GLU796  ALA797  LYS798  CYS799  TRP800  GLU811  SER814 

> <Gold.Protein.RotatedAtoms>
  152.5449  134.1184  159.8387 H   0  0  0  0  0  0  0  0  0  0  0  0  # atno 6907 bound_to 6896
  151.1242  133.5075  159.2608 H   0  0  0  0  0  0  0  0  0  0  0  0  # atno 6908 bound_to 6896
  151.1745  135.0343  159.8820 H   0  0  0  0  0  0  0  0  0  0  0  0  # atno 6909 bound_to 6896
  146.1530  140.4803  142.8603 H   0  0  0  0  0  0  0  0  0  0  0  0  # atno 7974 bound_to 7965
  156.2612  140.2845  156.1045 H   0  0  0  0  0  0  0  0  0  0  0  0  # atno 8008 bound_to 7997
  155.1323  140.0394  157.2795 H   0  0  0  0  0  0  0  0  0  0  0  0  # atno 8009 bound_to 7997
  154.6590  140.2562  155.7136 H   0  0  0  0  0  0  0  0  0  0  0  0  # atno 8010 bound_to 7997
  140.1379  143.4304  152.1582 H   0  0  0  0  0  0  0  0  0  0  0  0  # atno 10167 bound_to 10162
  157.6930  131.0569  150.4447 H   0  0  0  0  0  0  0  0  0  0  0  0  # atno 10718 bound_to 10713
  154.8190  135.3315  154.7093 H   0  0  0  0  0  0  0  0  0  0  0  0  # atno 10763 bound_to 10752
  153.7729  135.6924  153.4907 H   0  0  0  0  0  0  0  0  0  0  0  0  # atno 10764 bound_to 10752
  153.2032  135.4508  155.0240 H   0  0  0  0  0  0  0  0  0  0  0  0  # atno 10765 bound_to 10752
  139.9297  134.7604  156.1400 H   0  0  0  0  0  0  0  0  0  0  0  0  # atno 11005 bound_to 11000
  144.7928  140.6065  143.6530 LP  0  0  0  0  0  0  0  0  0  0  0  0  # atno 17320 bound_to 7965
  145.4776  139.1498  143.3779 LP  0  0  0  0  0  0  0  0  0  0  0  0  # atno 17321 bound_to 7965
  139.5486  144.7319  151.4504 LP  0  0  0  0  0  0  0  0  0  0  0  0  # atno 17342 bound_to 10162
  140.6778  143.8151  150.7081 LP  0  0  0  0  0  0  0  0  0  0  0  0  # atno 17343 bound_to 10162
  156.4803  130.4072  149.6465 LP  0  0  0  0  0  0  0  0  0  0  0  0  # atno 17370 bound_to 10713
  156.3513  130.7433  151.2393 LP  0  0  0  0  0  0  0  0  0  0  0  0  # atno 17371 bound_to 10713
  141.0877  133.6727  156.2473 LP  0  0  0  0  0  0  0  0  0  0  0  0  # atno 17394 bound_to 11000
  140.6237  134.5335  157.5551 LP  0  0  0  0  0  0  0  0  0  0  0  0  # atno 17395 bound_to 11000

$$$$
