AV-unprocessed.smi:2159|AV-procd|sdf|8794|dock4
  -GOLD-   2272011573D 1   1.00000     0.00000
 Structure written by MMmdl.
 48 50  0  0  0  0  0  0  0  0  2 V2000
  148.4148  138.4549  155.6050 O   0  0  0  0  0  0  0  0  0  0  0  0
  148.9850  139.0437  154.6858 C   0  0  0  0  0  0  0  0  0  0  0  0
  150.4320  139.5188  154.8442 C   0  0  0  0  0  0  0  0  0  0  0  0
  151.0374  139.1511  156.2137 C   0  0  0  0  0  0  0  0  0  0  0  0
  151.2526  140.3429  157.0377 N   0  0  0  0  0  0  0  0  0  0  0  0
  152.2602  140.4832  157.9201 C   0  0  0  0  0  0  0  0  0  0  0  0
  153.1949  139.7063  158.1127 O   0  0  0  0  0  0  0  0  0  0  0  0
  152.0320  141.7512  158.7294 C   0  0  1  0  0  0  0  0  0  0  0  0
  153.1810  142.6289  159.2276 C   0  0  0  0  0  0  0  0  0  0  0  0
  152.5397  143.8051  160.0111 C   0  0  0  0  0  0  0  0  0  0  0  0
  151.4088  144.5423  159.2344 C   0  0  0  0  0  0  0  0  0  0  0  0
  150.3691  143.5928  158.5820 C   0  0  0  0  0  0  0  0  0  0  0  0
  151.1591  142.5539  157.7850 C   0  0  2  0  0  0  0  0  0  0  0  0
  150.4854  141.4487  156.9852 C   0  0  0  0  0  0  0  0  0  0  0  0
  149.4466  141.6047  156.3442 O   0  0  0  0  0  0  0  0  0  0  0  0
  148.3931  139.3157  153.5125 N   0  0  0  0  0  0  0  0  0  0  0  0
  147.0230  138.9544  153.1679 C   0  0  0  0  0  0  0  0  0  0  0  0
  146.9676  138.1016  151.8891 C   0  0  0  0  0  0  0  0  0  0  0  0
  146.1517  136.8376  152.0756 C   0  0  0  0  0  0  0  0  0  0  0  0
  144.7941  136.8668  152.4626 C   0  0  0  0  0  0  0  0  0  0  0  0
  144.0956  135.6507  152.6151 C   0  0  0  0  0  0  0  0  0  0  0  0
  144.7674  134.4336  152.3769 C   0  0  0  0  0  0  0  0  0  0  0  0
  146.1232  134.4632  151.9908 C   0  0  0  0  0  0  0  0  0  0  0  0
  146.7579  135.6483  151.8553 N   0  3  0  0  0  0  0  0  0  0  0  0
  151.0418  139.0900  154.0473 H   0  0  0  0  0  0  0  0  0  0  0  0
  150.4515  140.6003  154.7056 H   0  0  0  0  0  0  0  0  0  0  0  0
  150.3845  138.4556  156.7444 H   0  0  0  0  0  0  0  0  0  0  0  0
  151.9822  138.6216  156.0755 H   0  0  0  0  0  0  0  0  0  0  0  0
  151.4510  141.4334  159.5983 H   0  0  0  0  0  0  0  0  0  0  0  0
  153.8507  142.0615  159.8744 H   0  0  0  0  0  0  0  0  0  0  0  0
  153.7775  142.9999  158.3932 H   0  0  0  0  0  0  0  0  0  0  0  0
  152.1224  143.4169  160.9411 H   0  0  0  0  0  0  0  0  0  0  0  0
  153.3111  144.5175  160.3047 H   0  0  0  0  0  0  0  0  0  0  0  0
  150.9024  145.2447  159.8969 H   0  0  0  0  0  0  0  0  0  0  0  0
  151.8664  145.1480  158.4512 H   0  0  0  0  0  0  0  0  0  0  0  0
  149.7533  143.1127  159.3436 H   0  0  0  0  0  0  0  0  0  0  0  0
  149.6972  144.1536  157.9315 H   0  0  0  0  0  0  0  0  0  0  0  0
  151.7812  143.0877  157.0626 H   0  0  0  0  0  0  0  0  0  0  0  0
  148.9308  139.8031  152.8099 H   0  0  0  0  0  0  0  0  0  0  0  0
  146.5951  138.3999  154.0036 H   0  0  0  0  0  0  0  0  0  0  0  0
  146.4209  139.8577  153.0547 H   0  0  0  0  0  0  0  0  0  0  0  0
  146.5340  138.6745  151.0682 H   0  0  0  0  0  0  0  0  0  0  0  0
  147.9774  137.8337  151.5750 H   0  0  0  0  0  0  0  0  0  0  0  0
  144.2924  137.8071  152.6404 H   0  0  0  0  0  0  0  0  0  0  0  0
  143.0568  135.6517  152.9114 H   0  0  0  0  0  0  0  0  0  0  0  0
  144.2502  133.4918  152.4882 H   0  0  0  0  0  0  0  0  0  0  0  0
  146.7147  133.5821  151.7882 H   0  0  0  0  0  0  0  0  0  0  0  0
  147.7390  135.6468  151.5747 H   0  0  0  0  0  0  0  0  0  0  0  0
  1  2  2  0  0  0  0
  2  3  1  0  0  0  0
  2 16  1  0  0  0  0
  3  4  1  0  0  0  0
  3 25  1  0  0  0  0
  3 26  1  0  0  0  0
  4  5  1  0  0  0  0
  4 27  1  0  0  0  0
  4 28  1  0  0  0  0
  5 14  1  0  0  0  0
  5  6  1  0  0  0  0
  6  7  2  0  0  0  0
  6  8  1  0  0  0  0
  8 13  1  0  0  0  0
  8  9  1  0  0  0  0
  8 29  1  0  0  0  0
  9 10  1  0  0  0  0
  9 30  1  0  0  0  0
  9 31  1  0  0  0  0
 10 11  1  0  0  0  0
 10 32  1  0  0  0  0
 10 33  1  0  0  0  0
 11 12  1  0  0  0  0
 11 34  1  0  0  0  0
 11 35  1  0  0  0  0
 12 13  1  0  0  0  0
 12 36  1  0  0  0  0
 12 37  1  0  0  0  0
 13 14  1  0  0  0  0
 13 38  1  0  0  0  0
 14 15  2  0  0  0  0
 16 17  1  0  0  0  0
 16 39  1  0  0  0  0
 17 18  1  0  0  0  0
 17 40  1  0  0  0  0
 17 41  1  0  0  0  0
 18 19  1  0  0  0  0
 18 42  1  0  0  0  0
 18 43  1  0  0  0  0
 19 24  1  0  0  0  0
 19 20  2  0  0  0  0
 20 21  1  0  0  0  0
 20 44  1  0  0  0  0
 21 22  2  0  0  0  0
 21 45  1  0  0  0  0
 22 23  1  0  0  0  0
 22 46  1  0  0  0  0
 23 24  2  0  0  0  0
 23 47  1  0  0  0  0
 24 48  1  0  0  0  0
M  CHG  1  24   1
M  END
> <s_m_source_file>
AV-unprocessed.smi

> <i_m_source_file_index>
2159

> <i_lp_mmshare_version>
43012

> <i_f3d_flags>
0

> <s_epik_input>
bjFbY0hdW2NIXVtjSF1bY0hdYzFbQ0gyXVtDSDJdW05IXUMoPU8pW0NIMl1bQ0gyXU4oQzI9TylDKD1PKVtDQEhdKFtDQEBIXTIzKVtDSDJdW0NIMl1bQ0gyXVtDSDJdMw==

> <s_epik_cmdline>
J2VwaWtfcHl0aG9uJywgJy1waCcsICc3LjAnLCAnLXRuJywgJzgnLCAnLW1hJywgJzIwMCcsICctbWV0YWxfYmluZGluZycsICctaW1hZScsICc8aW5maWxlLm1hZT4nLCAnLW9tYWUnLCAnPG91dGZpbGUubWFlPic=

> <r_lp_tautomer_probability>
1

> <r_epik_Ionization_Penalty>
1.85146

> <r_epik_Ionization_Penalty_Charging>
1.85146

> <r_epik_Ionization_Penalty_Neutral>
2.95922e-08

> <r_epik_State_Penalty>
1.96899

> <r_epik_Charging_Adjusted_Penalty>
3.82044

> <i_epik_Tot_Q>
1

> <i_epik_Tot_abs_Q>
1

> <r_epik_Metal_State_Penalty>
1.99467

> <b_epik_Metal_Only>
0

> <s_lp_Force_Field>
OPLS_2005

> <r_lp_Energy>
36.2537

> <b_lp_Chiralities_Consistent>
1

> <s_lp_Variant>
AV-unprocessed.smi:2159-4

> <Gold.Version>
5.8.1

> <Gold.Id.Protein>
6NUR|6NUR_protein|mol2

> <Gold.PLP.Fitness>
54.5553

> <Gold.PLP.PLP>
-44.7657

> <Gold.PLP.part.hbond>
-2.8904

> <Gold.PLP.part.metal>
0.0000

> <Gold.PLP.part.buried>
-3.2710

> <Gold.PLP.part.nonpolar>
-39.8943

> <Gold.PLP.part.repulsive>
0.5774

> <Gold.PLP.ligand.clash>
0.0000

> <Gold.PLP.ligand.torsion>
1.0876

> <Gold.PLP.Chemscore.Hbond>
3.9440

> <Gold.PLP.Chemscore.CHOScore>
0.0000

> <Gold.PLP.Chemscore.Metal>
0.0000

> <Gold.Chemscore.Hbonds>
donor molecule, donor type, donor heavy atom, donor atom, acceptor molecule, acceptor atom, score
      L1  H    16    39       P1  7957  1.00
      L1  H    24    48       P1  7948  0.90
      P1  H  7997  8010       L1     7  1.00

> <Gold.PLP.Chemscore.Internal.Correction>
0.1328

> <Gold.Rescore>
     Score         DG    S(hbond)    S(metal)    S(lipo)     H(rot)  DE(clash)    DE(int)     intcor
     20.17     -22.64       2.90        0.00     109.65       2.10       0.06       2.41       ----

> <Gold.Chemscore.Fitness>
20.1688

> <Gold.Chemscore.DG>
-22.6389

> <Gold.Chemscore.ZeroCoef>
-5.4800

> <Gold.Chemscore.Hbond>
2.9027

> <Gold.Chemscore.Metal>
0.0000

> <Gold.Chemscore.Lipo>
109.6523

> <Gold.Chemscore.Internal_Hbond>
0.0000

> <Gold.Chemscore.DEClash>
0.0587

> <Gold.Chemscore.DEInternal>
2.4115

> <Gold.Chemscore.Rot>
2.0959

> <Gold.Chemscore.Internal.Correction>
   9.000000E+99

> <Gold.Chemscore.Hbonds>
donor molecule, donor type, donor heavy atom, donor atom, acceptor molecule, acceptor atom, score
      L1  H    16    39       P1  7957  0.98
      L1  H    24    48       P1  7948  0.41
      P1  H  7997  8010       L1     7  0.59

> <Gold.Chemscore.Hbond.Weighted>
-9.6951

> <Gold.Chemscore.Metal.Weighted>
-0.0000

> <Gold.Chemscore.Lipo.Weighted>
-12.8293

> <Gold.Chemscore.Internal_Hbond.Weighted>
0.0000

> <Gold.Chemscore.DEClash.Weighted>
0.0587

> <Gold.Chemscore.DEInternal.Weighted>
2.4115

> <Gold.Chemscore.Rot.Weighted>
5.3655

> <Gold.Chemscore.Internal.Correction.Weighted>
   9.000000E+99

> <Gold.Protein.RotatedTorsions>
[ 6907 6896 6895 6894 ] final -144.11 input  -60.11 | X-H torsion
[ 7974 7965 7964 7962 ] final   41.19 input  175.53 | X-H torsion
[ 8008 7997 7996 7995 ] final   49.34 input   59.86 | X-H torsion
[ 10167 10162 10161 10158 ] final   37.50 input  -65.29 | X-H torsion
[ 10718 10713 10712 10709 ] final  -45.22 input   66.30 | X-H torsion
[ 10763 10752 10751 10750 ] final -118.84 input  -60.55 | X-H torsion
[ 11005 11000 10999 10996 ] final  -41.98 input  -57.11 | X-H torsion

> <Gold.Protein.ActiveResidues>
 VAL166  LYS551  ARG553  GLY616  TRP617  ASP618  TYR619  PRO620  LYS621  CYS622 
 ASP623  PHE694  ASN695  SER759  ASP760  ASP761  ALA762  ILE779  LEU786  VAL792 
 PHE793  MET794  SER795  GLU796  ALA797  LYS798  CYS799  TRP800  GLU811  SER814 

> <Gold.Protein.RotatedAtoms>
  151.1096  133.5182  159.2606 H   0  0  0  0  0  0  0  0  0  0  0  0  # atno 6907 bound_to 6896
  151.1982  135.0431  159.8871 H   0  0  0  0  0  0  0  0  0  0  0  0  # atno 6908 bound_to 6896
  152.5449  134.0928  159.8337 H   0  0  0  0  0  0  0  0  0  0  0  0  # atno 6909 bound_to 6896
  146.0844  139.5445  142.9516 H   0  0  0  0  0  0  0  0  0  0  0  0  # atno 7974 bound_to 7965
  155.4006  140.3437  155.4257 H   0  0  0  0  0  0  0  0  0  0  0  0  # atno 8008 bound_to 7997
  156.1505  140.1569  156.8809 H   0  0  0  0  0  0  0  0  0  0  0  0  # atno 8009 bound_to 7997
  154.5048  140.0805  156.7854 H   0  0  0  0  0  0  0  0  0  0  0  0  # atno 8010 bound_to 7997
  140.4026  144.1702  150.6134 H   0  0  0  0  0  0  0  0  0  0  0  0  # atno 10167 bound_to 10162
  156.2305  130.4172  149.8881 H   0  0  0  0  0  0  0  0  0  0  0  0  # atno 10718 bound_to 10713
  154.8599  135.4259  154.2203 H   0  0  0  0  0  0  0  0  0  0  0  0  # atno 10763 bound_to 10752
  153.3209  135.6982  153.7037 H   0  0  0  0  0  0  0  0  0  0  0  0  # atno 10764 bound_to 10752
  153.6092  135.3522  155.2946 H   0  0  0  0  0  0  0  0  0  0  0  0  # atno 10765 bound_to 10752
  141.0283  133.6831  156.2531 H   0  0  0  0  0  0  0  0  0  0  0  0  # atno 11005 bound_to 11000
  145.6158  141.0331  143.1942 LP  0  0  0  0  0  0  0  0  0  0  0  0  # atno 17320 bound_to 7965
  144.7315  139.7711  143.7345 LP  0  0  0  0  0  0  0  0  0  0  0  0  # atno 17321 bound_to 7965
  140.4723  143.2408  151.9072 LP  0  0  0  0  0  0  0  0  0  0  0  0  # atno 17342 bound_to 10162
  139.4784  144.5357  151.8602 LP  0  0  0  0  0  0  0  0  0  0  0  0  # atno 17343 bound_to 10162
  156.6496  130.8738  151.3529 LP  0  0  0  0  0  0  0  0  0  0  0  0  # atno 17370 bound_to 10713
  157.7131  130.9464  150.1157 LP  0  0  0  0  0  0  0  0  0  0  0  0  # atno 17371 bound_to 10713
  140.6451  134.5125  157.5573 LP  0  0  0  0  0  0  0  0  0  0  0  0  # atno 17394 bound_to 11000
  139.9191  134.8186  156.1270 LP  0  0  0  0  0  0  0  0  0  0  0  0  # atno 17395 bound_to 11000

$$$$
