AV-unprocessed.smi:2245|AV-procd|sdf|9078|dock2
  -GOLD-   2272012283D 1   1.00000     0.00000
 Structure written by MMmdl.
 45 46  0  0  0  0  0  0  0  0  2 V2000
  153.3384  140.5086  159.4239 C   0  0  0  0  0  0  0  0  0  0  0  0
  152.5305  141.7149  158.9939 C   0  0  0  0  0  0  0  0  0  0  0  0
  152.6591  142.9455  159.6658 C   0  0  0  0  0  0  0  0  0  0  0  0
  151.8840  144.0326  159.2165 C   0  0  0  0  0  0  0  0  0  0  0  0
  151.9721  145.3850  159.8920 C   0  0  0  0  0  0  0  0  0  0  0  0
  151.0291  143.9469  158.1750 N   0  0  0  0  0  0  0  0  0  0  0  0
  150.8967  142.7665  157.5204 C   0  0  0  0  0  0  0  0  0  0  0  0
  150.0277  142.5729  156.4137 N   0  0  0  0  0  0  0  0  0  0  0  0
  150.0831  141.6143  155.4724 C   0  0  0  0  0  0  0  0  0  0  0  0
  150.9387  140.7315  155.4015 O   0  0  0  0  0  0  0  0  0  0  0  0
  149.0692  141.7283  154.6021 N   0  0  0  0  0  0  0  0  0  0  0  0
  148.8335  140.8412  153.4674 C   0  0  0  0  0  0  0  0  0  0  0  0
  147.4721  140.1226  153.5568 C   0  0  2  0  0  0  0  0  0  0  0  0
  147.3823  139.0948  154.6834 C   0  0  0  0  0  0  0  0  0  0  0  0
  146.2725  138.1315  154.2403 C   0  0  0  0  0  0  0  0  0  0  0  0
  146.0387  138.3790  152.7969 N   0  3  2  0  0  0  0  0  0  0  0  0
  145.8649  137.1674  151.9597 C   0  0  0  0  0  0  0  0  0  0  0  0
  144.6932  136.2876  152.4295 C   0  0  0  0  0  0  0  0  0  0  0  0
  143.7108  137.0716  152.8707 F   0  0  0  0  0  0  0  0  0  0  0  0
  144.2216  135.5384  151.4334 F   0  0  0  0  0  0  0  0  0  0  0  0
  145.0885  135.4953  153.4259 F   0  0  0  0  0  0  0  0  0  0  0  0
  147.1031  139.2889  152.3299 C   0  0  0  0  0  0  0  0  0  0  0  0
  151.6372  141.6269  157.9069 C   0  0  0  0  0  0  0  0  0  0  0  0
  153.7300  140.6373  160.4334 H   0  0  0  0  0  0  0  0  0  0  0  0
  154.1788  140.3581  158.7460 H   0  0  0  0  0  0  0  0  0  0  0  0
  152.7207  139.6102  159.4119 H   0  0  0  0  0  0  0  0  0  0  0  0
  153.3343  143.0534  160.5023 H   0  0  0  0  0  0  0  0  0  0  0  0
  152.6544  145.3596  160.7421 H   0  0  0  0  0  0  0  0  0  0  0  0
  150.9905  145.6938  160.2529 H   0  0  0  0  0  0  0  0  0  0  0  0
  152.3322  146.1367  159.1888 H   0  0  0  0  0  0  0  0  0  0  0  0
  149.2704  143.2355  156.3378 H   0  0  0  0  0  0  0  0  0  0  0  0
  148.4168  142.4883  154.7296 H   0  0  0  0  0  0  0  0  0  0  0  0
  148.8823  141.4414  152.5582 H   0  0  0  0  0  0  0  0  0  0  0  0
  149.6420  140.1115  153.3983 H   0  0  0  0  0  0  0  0  0  0  0  0
  146.6842  140.8608  153.7157 H   0  0  0  0  0  0  0  0  0  0  0  0
  148.3230  138.5486  154.7683 H   0  0  0  0  0  0  0  0  0  0  0  0
  147.1773  139.5528  155.6516 H   0  0  0  0  0  0  0  0  0  0  0  0
  146.5663  137.1002  154.4403 H   0  0  0  0  0  0  0  0  0  0  0  0
  145.3461  138.3231  154.7826 H   0  0  0  0  0  0  0  0  0  0  0  0
  145.6627  137.4869  150.9362 H   0  0  0  0  0  0  0  0  0  0  0  0
  146.7935  136.5956  151.9271 H   0  0  0  0  0  0  0  0  0  0  0  0
  146.7649  139.9004  151.4927 H   0  0  0  0  0  0  0  0  0  0  0  0
  147.9665  138.7082  151.9996 H   0  0  0  0  0  0  0  0  0  0  0  0
  151.5239  140.6923  157.3762 H   0  0  0  0  0  0  0  0  0  0  0  0
  145.1801  138.9079  152.7360 H   0  0  0  0  0  0  0  0  0  0  0  0
  1  2  1  0  0  0  0
  1 24  1  0  0  0  0
  1 25  1  0  0  0  0
  1 26  1  0  0  0  0
  2 23  1  0  0  0  0
  2  3  2  0  0  0  0
  3  4  1  0  0  0  0
  3 27  1  0  0  0  0
  4  5  1  0  0  0  0
  4  6  2  0  0  0  0
  5 28  1  0  0  0  0
  5 29  1  0  0  0  0
  5 30  1  0  0  0  0
  6  7  1  0  0  0  0
  7  8  1  0  0  0  0
  7 23  2  0  0  0  0
  8  9  1  0  0  0  0
  8 31  1  0  0  0  0
  9 10  2  0  0  0  0
  9 11  1  0  0  0  0
 11 12  1  0  0  0  0
 11 32  1  0  0  0  0
 12 13  1  0  0  0  0
 12 33  1  0  0  0  0
 12 34  1  0  0  0  0
 13 22  1  0  0  0  0
 13 14  1  0  0  0  0
 13 35  1  0  0  0  0
 14 15  1  0  0  0  0
 14 36  1  0  0  0  0
 14 37  1  0  0  0  0
 15 16  1  0  0  0  0
 15 38  1  0  0  0  0
 15 39  1  0  0  0  0
 16 17  1  0  0  0  0
 16 22  1  0  0  0  0
 16 45  1  0  0  0  0
 17 18  1  0  0  0  0
 17 40  1  0  0  0  0
 17 41  1  0  0  0  0
 18 19  1  0  0  0  0
 18 20  1  0  0  0  0
 18 21  1  0  0  0  0
 22 42  1  0  0  0  0
 22 43  1  0  0  0  0
 23 44  1  0  0  0  0
M  CHG  1  16   1
M  END
> <s_m_source_file>
AV-unprocessed.smi

> <i_m_source_file_index>
2245

> <i_lp_mmshare_version>
43012

> <i_f3d_flags>
0

> <s_epik_input>
W0NIM11jMVtjSF1jKFtDSDNdKW5jKFtjSF0xKVtOSF1DKD1PKVtOSF1bQ0gyXVtDQEBIXTJbQ0gyXVtDSDJdTihbQ0gyXTIpW0NIMl1DKEYpKEYpRg==

> <s_epik_cmdline>
J2VwaWtfcHl0aG9uJywgJy1waCcsICc3LjAnLCAnLXRuJywgJzgnLCAnLW1hJywgJzIwMCcsICctbWV0YWxfYmluZGluZycsICctaW1hZScsICc8aW5maWxlLm1hZT4nLCAnLW9tYWUnLCAnPG91dGZpbGUubWFlPic=

> <r_epik_Ionization_Penalty>
0.628315

> <r_epik_Ionization_Penalty_Charging>
0.628113

> <r_epik_Ionization_Penalty_Neutral>
0.000202271

> <r_epik_State_Penalty>
0.644725

> <r_epik_Charging_Adjusted_Penalty>
1.27284

> <i_epik_Tot_Q>
1

> <i_epik_Tot_abs_Q>
1

> <r_epik_Metal_State_Penalty>
0.644752

> <b_epik_Metal_Only>
0

> <s_lp_Force_Field>
OPLS_2005

> <r_lp_Energy>
28.9213

> <b_lp_Chiralities_Consistent>
1

> <s_lp_Variant>
AV-unprocessed.smi:2245-3

> <Gold.Version>
5.8.1

> <Gold.Id.Protein>
6NUR|6NUR_protein|mol2

> <Gold.PLP.Fitness>
52.2056

> <Gold.PLP.PLP>
-41.7562

> <Gold.PLP.part.hbond>
-3.7088

> <Gold.PLP.part.metal>
0.0000

> <Gold.PLP.part.buried>
0.8677

> <Gold.PLP.part.nonpolar>
-38.6471

> <Gold.PLP.part.repulsive>
0.5110

> <Gold.PLP.ligand.clash>
0.0000

> <Gold.PLP.ligand.torsion>
0.5123

> <Gold.PLP.Chemscore.Hbond>
3.6607

> <Gold.PLP.Chemscore.CHOScore>
0.0000

> <Gold.PLP.Chemscore.Metal>
0.0000

> <Gold.Chemscore.Hbonds>
donor molecule, donor type, donor heavy atom, donor atom, acceptor molecule, acceptor atom, score
      L1  H     8    31       P1  8028  0.83
      L1  H    16    45       P1 10175  1.27
      P1  H  7989  7998       L1    10  0.83

> <Gold.PLP.Chemscore.Internal.Correction>
0.4919

> <Gold.Rescore>
     Score         DG    S(hbond)    S(metal)    S(lipo)     H(rot)  DE(clash)    DE(int)     intcor
     16.54     -21.20       2.39        0.00     101.52       1.61       1.75       2.92       ----

> <Gold.Chemscore.Fitness>
16.5353

> <Gold.Chemscore.DG>
-21.2012

> <Gold.Chemscore.ZeroCoef>
-5.4800

> <Gold.Chemscore.Hbond>
2.3881

> <Gold.Chemscore.Metal>
0.0000

> <Gold.Chemscore.Lipo>
101.5173

> <Gold.Chemscore.Internal_Hbond>
0.0000

> <Gold.Chemscore.DEClash>
1.7464

> <Gold.Chemscore.DEInternal>
2.9195

> <Gold.Chemscore.Rot>
1.6143

> <Gold.Chemscore.Internal.Correction>
   9.000000E+99

> <Gold.Chemscore.Hbonds>
donor molecule, donor type, donor heavy atom, donor atom, acceptor molecule, acceptor atom, score
      L1  H     8    31       P1  8028  0.83
      L1  H    11    32       P1  8028  0.03
      L1  H    16    45       P1 10175  0.63
      P1  H  7989  7998       L1    10  0.35

> <Gold.Chemscore.Hbond.Weighted>
-7.9762

> <Gold.Chemscore.Metal.Weighted>
-0.0000

> <Gold.Chemscore.Lipo.Weighted>
-11.8775

> <Gold.Chemscore.Internal_Hbond.Weighted>
0.0000

> <Gold.Chemscore.DEClash.Weighted>
1.7464

> <Gold.Chemscore.DEInternal.Weighted>
2.9195

> <Gold.Chemscore.Rot.Weighted>
4.1325

> <Gold.Chemscore.Internal.Correction.Weighted>
   9.000000E+99

> <Gold.Protein.RotatedTorsions>
[ 6907 6896 6895 6894 ] final -146.01 input  -60.11 | X-H torsion
[ 7974 7965 7964 7962 ] final    9.03 input  175.53 | X-H torsion
[ 8008 7997 7996 7995 ] final  116.65 input   59.86 | X-H torsion
[ 10167 10162 10161 10158 ] final -172.78 input  -65.29 | X-H torsion
[ 10718 10713 10712 10709 ] final  -38.82 input   66.30 | X-H torsion
[ 10763 10752 10751 10750 ] final   63.24 input  -60.55 | X-H torsion
[ 11005 11000 10999 10996 ] final -171.46 input  -57.11 | X-H torsion

> <Gold.Protein.ActiveResidues>
 VAL166  LYS551  ARG553  GLY616  TRP617  ASP618  TYR619  PRO620  LYS621  CYS622 
 ASP623  PHE694  ASN695  SER759  ASP760  ASP761  ALA762  ILE779  LEU786  VAL792 
 PHE793  MET794  SER795  GLU796  ALA797  LYS798  CYS799  TRP800  GLU811  SER814 

> <Gold.Protein.RotatedAtoms>
  151.1357  133.5006  159.2597 H   0  0  0  0  0  0  0  0  0  0  0  0  # atno 6907 bound_to 6896
  151.1709  135.0317  159.8761 H   0  0  0  0  0  0  0  0  0  0  0  0  # atno 6908 bound_to 6896
  152.5461  134.1220  159.8456 H   0  0  0  0  0  0  0  0  0  0  0  0  # atno 6909 bound_to 6896
  146.2409  139.9845  142.8432 H   0  0  0  0  0  0  0  0  0  0  0  0  # atno 7974 bound_to 7965
  156.2451  140.2913  156.0556 H   0  0  0  0  0  0  0  0  0  0  0  0  # atno 8008 bound_to 7997
  155.1832  140.0405  157.2903 H   0  0  0  0  0  0  0  0  0  0  0  0  # atno 8009 bound_to 7997
  154.6245  140.2484  155.7515 H   0  0  0  0  0  0  0  0  0  0  0  0  # atno 8010 bound_to 7997
  139.5725  144.1609  152.1404 H   0  0  0  0  0  0  0  0  0  0  0  0  # atno 10167 bound_to 10162
  156.2994  130.4238  149.8158 H   0  0  0  0  0  0  0  0  0  0  0  0  # atno 10718 bound_to 10713
  153.0011  135.5436  154.6321 H   0  0  0  0  0  0  0  0  0  0  0  0  # atno 10763 bound_to 10752
  154.5596  135.2833  155.0934 H   0  0  0  0  0  0  0  0  0  0  0  0  # atno 10764 bound_to 10752
  154.2142  135.6462  153.5177 H   0  0  0  0  0  0  0  0  0  0  0  0  # atno 10765 bound_to 10752
  140.5079  134.5830  157.5009 H   0  0  0  0  0  0  0  0  0  0  0  0  # atno 11005 bound_to 11000
  145.1561  140.9648  143.4404 LP  0  0  0  0  0  0  0  0  0  0  0  0  # atno 17320 bound_to 7965
  145.0160  139.3467  143.6096 LP  0  0  0  0  0  0  0  0  0  0  0  0  # atno 17321 bound_to 7965
  140.1144  144.5428  150.6903 LP  0  0  0  0  0  0  0  0  0  0  0  0  # atno 17342 bound_to 10162
  140.7009  143.2434  151.4867 LP  0  0  0  0  0  0  0  0  0  0  0  0  # atno 17343 bound_to 10162
  156.5542  130.8355  151.3309 LP  0  0  0  0  0  0  0  0  0  0  0  0  # atno 17370 bound_to 10713
  157.7364  130.9778  150.2133 LP  0  0  0  0  0  0  0  0  0  0  0  0  # atno 17371 bound_to 10713
  139.9675  134.7348  156.0108 LP  0  0  0  0  0  0  0  0  0  0  0  0  # atno 17394 bound_to 11000
  141.1401  133.6566  156.3705 LP  0  0  0  0  0  0  0  0  0  0  0  0  # atno 17395 bound_to 11000

$$$$
