AV-unprocessed.smi:1234|AV-procd|sdf|5173|dock1
  -GOLD-   22720 4243D 1   1.00000     0.00000
 Structure written by MMmdl.
 33 34  0  0  0  0  0  0  0  0  1 V2000
  149.9442  136.0252  159.1811 O   0  0  0  0  0  0  0  0  0  0  0  0
  149.2819  137.0292  159.4458 C   0  0  0  0  0  0  0  0  0  0  0  0
  149.5461  138.2421  158.9390 N   0  0  0  0  0  0  0  0  0  0  0  0
  150.6265  138.5395  158.0051 C   0  0  0  0  0  0  0  0  0  0  0  0
  151.4744  139.7366  158.4804 C   0  0  0  0  0  0  0  0  0  0  0  0
  151.0229  141.0832  157.8901 C   0  0  0  0  0  0  0  0  0  0  0  0
  150.2002  141.1061  156.9733 O   0  0  0  0  0  0  0  0  0  0  0  0
  151.5521  142.2134  158.4028 N   0  0  0  0  0  0  0  0  0  0  0  0
  151.2614  143.5750  157.9541 C   0  0  0  0  0  0  0  0  0  0  0  0
  152.2710  144.4712  158.6727 C   0  0  0  0  0  0  0  0  0  0  0  0
  152.6386  143.6904  159.9269 C   0  0  0  0  0  0  0  0  0  0  0  0
  152.5116  142.2265  159.5055 C   0  0  0  0  0  0  0  0  0  0  0  0
  148.2159  137.0644  160.2648 N   0  0  0  0  0  0  0  0  0  0  0  0
  147.6171  135.9906  160.9754 C   0  0  0  0  0  0  0  0  0  0  0  0
  147.4317  134.7664  160.4568 N   0  0  0  0  0  0  0  0  0  0  0  0
  146.8231  133.9058  161.3609 N   0  0  0  0  0  0  0  0  0  0  0  0
  146.5742  134.5135  162.5243 C   0  0  0  0  0  0  0  0  0  0  0  0
  147.0611  136.1966  162.6304 S   0  0  0  0  0  0  0  0  0  0  0  0
  148.9526  139.0131  159.2084 H   0  0  0  0  0  0  0  0  0  0  0  0
  151.2497  137.6539  157.8658 H   0  0  0  0  0  0  0  0  0  0  0  0
  150.1759  138.7580  157.0366 H   0  0  0  0  0  0  0  0  0  0  0  0
  151.4324  139.8016  159.5681 H   0  0  0  0  0  0  0  0  0  0  0  0
  152.5182  139.5710  158.2106 H   0  0  0  0  0  0  0  0  0  0  0  0
  151.3454  143.6827  156.8720 H   0  0  0  0  0  0  0  0  0  0  0  0
  150.2435  143.8378  158.2459 H   0  0  0  0  0  0  0  0  0  0  0  0
  153.1576  144.5961  158.0496 H   0  0  0  0  0  0  0  0  0  0  0  0
  151.8752  145.4632  158.8920 H   0  0  0  0  0  0  0  0  0  0  0  0
  153.6311  143.9376  160.3046 H   0  0  0  0  0  0  0  0  0  0  0  0
  151.9172  143.9076  160.7158 H   0  0  0  0  0  0  0  0  0  0  0  0
  152.1884  141.6009  160.3390 H   0  0  0  0  0  0  0  0  0  0  0  0
  153.4689  141.8454  159.1467 H   0  0  0  0  0  0  0  0  0  0  0  0
  147.7735  137.9635  160.3861 H   0  0  0  0  0  0  0  0  0  0  0  0
  146.1004  133.9662  163.3257 H   0  0  0  0  0  0  0  0  0  0  0  0
  1  2  2  0  0  0  0
  2  3  1  0  0  0  0
  2 13  1  0  0  0  0
  3  4  1  0  0  0  0
  3 19  1  0  0  0  0
  4  5  1  0  0  0  0
  4 20  1  0  0  0  0
  4 21  1  0  0  0  0
  5  6  1  0  0  0  0
  5 22  1  0  0  0  0
  5 23  1  0  0  0  0
  6  7  2  0  0  0  0
  6  8  1  0  0  0  0
  8 12  1  0  0  0  0
  8  9  1  0  0  0  0
  9 10  1  0  0  0  0
  9 24  1  0  0  0  0
  9 25  1  0  0  0  0
 10 11  1  0  0  0  0
 10 26  1  0  0  0  0
 10 27  1  0  0  0  0
 11 12  1  0  0  0  0
 11 28  1  0  0  0  0
 11 29  1  0  0  0  0
 12 30  1  0  0  0  0
 12 31  1  0  0  0  0
 13 14  1  0  0  0  0
 13 32  1  0  0  0  0
 14 18  1  0  0  0  0
 14 15  2  0  0  0  0
 15 16  1  0  0  0  0
 16 17  2  0  0  0  0
 17 18  1  0  0  0  0
 17 33  1  0  0  0  0
M  END
> <s_m_source_file>
AV-unprocessed.smi

> <i_m_source_file_index>
1234

> <i_lp_mmshare_version>
43012

> <i_f3d_flags>
0

> <s_epik_input>
czFbY0hdbm5jMVtOSF1DKD1PKVtOSF1bQ0gyXVtDSDJdQyg9TylOMltDSDJdW0NIMl1bQ0gyXVtDSDJdMg==

> <s_epik_cmdline>
J2VwaWtfcHl0aG9uJywgJy1waCcsICc3LjAnLCAnLXRuJywgJzgnLCAnLW1hJywgJzIwMCcsICctbWV0YWxfYmluZGluZycsICctaW1hZScsICc8aW5maWxlLm1hZT4nLCAnLW9tYWUnLCAnPG91dGZpbGUubWFlPic=

> <r_lp_tautomer_probability>
1

> <r_epik_Ionization_Penalty>
0.00246339

> <r_epik_Ionization_Penalty_Charging>
0

> <r_epik_Ionization_Penalty_Neutral>
0.00246339

> <r_epik_State_Penalty>
-0

> <r_epik_Charging_Adjusted_Penalty>
0

> <i_epik_Tot_Q>
0

> <i_epik_Tot_abs_Q>
0

> <r_epik_Metal_State_Penalty>
0.351039

> <b_epik_Metal_Only>
0

> <s_lp_Force_Field>
OPLS_2005

> <r_lp_Energy>
26.1559

> <b_lp_Chiralities_Consistent>
1

> <s_lp_Variant>
AV-unprocessed.smi:1234-1

> <Gold.Version>
5.8.1

> <Gold.Id.Protein>
6NUR|6NUR_protein|mol2

> <Gold.PLP.Fitness>
38.4429

> <Gold.PLP.PLP>
-36.8194

> <Gold.PLP.part.hbond>
-1.0000

> <Gold.PLP.part.metal>
0.0000

> <Gold.PLP.part.buried>
-5.9974

> <Gold.PLP.part.nonpolar>
-31.7763

> <Gold.PLP.part.repulsive>
1.3551

> <Gold.PLP.ligand.clash>
0.0000

> <Gold.PLP.ligand.torsion>
0.6967

> <Gold.PLP.Chemscore.Hbond>
1.0000

> <Gold.PLP.Chemscore.CHOScore>
0.0000

> <Gold.PLP.Chemscore.Metal>
0.0000

> <Gold.Chemscore.Hbonds>
donor molecule, donor type, donor heavy atom, donor atom, acceptor molecule, acceptor atom, score
      P1  H  6896  6909       L1     1  1.00

> <Gold.PLP.Chemscore.Internal.Correction>
0.0169

> <Gold.Rescore>
     Score         DG    S(hbond)    S(metal)    S(lipo)     H(rot)  DE(clash)    DE(int)     intcor
     12.60     -13.32       0.99        0.00      77.81       1.79       0.09       0.63       ----

> <Gold.Chemscore.Fitness>
12.5983

> <Gold.Chemscore.DG>
-13.3247

> <Gold.Chemscore.ZeroCoef>
-5.4800

> <Gold.Chemscore.Hbond>
0.9922

> <Gold.Chemscore.Metal>
0.0000

> <Gold.Chemscore.Lipo>
77.8146

> <Gold.Chemscore.Internal_Hbond>
0.0000

> <Gold.Chemscore.DEClash>
0.0930

> <Gold.Chemscore.DEInternal>
0.6334

> <Gold.Chemscore.Rot>
1.7865

> <Gold.Chemscore.Internal.Correction>
   9.000000E+99

> <Gold.Chemscore.Hbonds>
donor molecule, donor type, donor heavy atom, donor atom, acceptor molecule, acceptor atom, score
      P1  H  6896  6909       L1     1  0.97

> <Gold.Chemscore.Hbond.Weighted>
-3.3138

> <Gold.Chemscore.Metal.Weighted>
-0.0000

> <Gold.Chemscore.Lipo.Weighted>
-9.1043

> <Gold.Chemscore.Internal_Hbond.Weighted>
0.0000

> <Gold.Chemscore.DEClash.Weighted>
0.0930

> <Gold.Chemscore.DEInternal.Weighted>
0.6334

> <Gold.Chemscore.Rot.Weighted>
4.5735

> <Gold.Chemscore.Internal.Correction.Weighted>
   9.000000E+99

> <Gold.Protein.RotatedTorsions>
[ 6907 6896 6895 6894 ] final   60.28 input  -60.11 | X-H torsion
[ 7974 7965 7964 7962 ] final  -36.63 input  175.53 | X-H torsion
[ 8008 7997 7996 7995 ] final -123.90 input   59.86 | X-H torsion
[ 10167 10162 10161 10158 ] final   54.29 input  -65.29 | X-H torsion
[ 10718 10713 10712 10709 ] final    6.31 input   66.30 | X-H torsion
[ 10763 10752 10751 10750 ] final   -0.14 input  -60.55 | X-H torsion
[ 11005 11000 10999 10996 ] final -170.32 input  -57.11 | X-H torsion

> <Gold.Protein.ActiveResidues>
 VAL166  LYS551  ARG553  GLY616  TRP617  ASP618  TYR619  PRO620  LYS621  CYS622 
 ASP623  PHE694  ASN695  SER759  ASP760  ASP761  ALA762  ILE779  LEU786  VAL792 
 PHE793  MET794  SER795  GLU796  ALA797  LYS798  CYS799  TRP800  GLU811  SER814 

> <Gold.Protein.RotatedAtoms>
  152.3989  134.6319  160.0077 H   0  0  0  0  0  0  0  0  0  0  0  0  # atno 6907 bound_to 6896
  151.6531  133.3314  159.3164 H   0  0  0  0  0  0  0  0  0  0  0  0  # atno 6908 bound_to 6896
  150.7892  134.6945  159.6560 H   0  0  0  0  0  0  0  0  0  0  0  0  # atno 6909 bound_to 6896
  146.0645  140.6300  142.8981 H   0  0  0  0  0  0  0  0  0  0  0  0  # atno 7974 bound_to 7965
  155.1881  140.0412  157.2895 H   0  0  0  0  0  0  0  0  0  0  0  0  # atno 8008 bound_to 7997
  154.6157  140.2488  155.7584 H   0  0  0  0  0  0  0  0  0  0  0  0  # atno 8009 bound_to 7997
  156.2405  140.2905  156.0441 H   0  0  0  0  0  0  0  0  0  0  0  0  # atno 8010 bound_to 7997
  140.2317  144.3680  150.6412 H   0  0  0  0  0  0  0  0  0  0  0  0  # atno 10167 bound_to 10162
  156.9204  130.5788  149.5648 H   0  0  0  0  0  0  0  0  0  0  0  0  # atno 10718 bound_to 10713
  153.3281  135.6973  153.6971 H   0  0  0  0  0  0  0  0  0  0  0  0  # atno 10763 bound_to 10752
  153.5785  135.3502  155.2866 H   0  0  0  0  0  0  0  0  0  0  0  0  # atno 10764 bound_to 10752
  154.8612  135.4289  154.2463 H   0  0  0  0  0  0  0  0  0  0  0  0  # atno 10765 bound_to 10752
  140.5208  134.5711  157.5047 H   0  0  0  0  0  0  0  0  0  0  0  0  # atno 11005 bound_to 11000
  144.7194  140.4323  143.7019 LP  0  0  0  0  0  0  0  0  0  0  0  0  # atno 17320 bound_to 7965
  145.6501  139.1563  143.2867 LP  0  0  0  0  0  0  0  0  0  0  0  0  # atno 17321 bound_to 7965
  140.6180  143.2174  151.6752 LP  0  0  0  0  0  0  0  0  0  0  0  0  # atno 17342 bound_to 10162
  139.5108  144.3531  152.0633 LP  0  0  0  0  0  0  0  0  0  0  0  0  # atno 17343 bound_to 10162
  156.0494  130.5565  150.8954 LP  0  0  0  0  0  0  0  0  0  0  0  0  # atno 17370 bound_to 10713
  157.5911  131.0944  150.9116 LP  0  0  0  0  0  0  0  0  0  0  0  0  # atno 17371 bound_to 10713
  139.9607  134.7457  156.0243 LP  0  0  0  0  0  0  0  0  0  0  0  0  # atno 17394 bound_to 11000
  141.1335  133.6580  156.3530 LP  0  0  0  0  0  0  0  0  0  0  0  0  # atno 17395 bound_to 11000

$$$$
