AV-unprocessed.smi:1065|AV-procd|sdf|4666|dock5
  -GOLD-   22720 3173D 1   1.00000     0.00000
 Structure written by MMmdl.
 39 40  0  0  0  0  0  0  0  0  1 V2000
  151.9167  145.3711  160.3620 C   0  0  0  0  0  0  0  0  0  0  0  0
  152.6657  144.9730  159.0825 C   0  0  0  0  0  0  0  0  0  0  0  0
  152.6942  143.4539  158.8155 C   0  0  2  0  0  0  0  0  0  0  0  0
  151.3916  142.9928  158.1323 C   0  0  0  0  0  0  0  0  0  0  0  0
  151.3962  141.4824  157.8459 C   0  0  0  0  0  0  0  0  0  0  0  0
  151.6318  140.6599  159.1308 C   0  0  1  0  0  0  0  0  0  0  0  0
  151.6585  139.1423  158.8663 C   0  0  0  0  0  0  0  0  0  0  0  0
  150.3319  138.6319  158.5481 N   0  0  0  0  0  0  0  0  0  0  0  0
  149.9259  137.3744  158.7744 C   0  0  0  0  0  0  0  0  0  0  0  0
  150.6335  136.5175  159.3030 O   0  0  0  0  0  0  0  0  0  0  0  0
  148.5052  137.0271  158.3304 C   0  0  0  0  0  0  0  0  0  0  0  0
  147.7171  136.5494  159.4506 N   0  0  0  0  0  0  0  0  0  0  0  0
  147.1465  135.3647  159.6788 C   0  0  0  0  0  0  0  0  0  0  0  0
  146.4956  135.3503  160.8321 N   0  0  0  0  0  0  0  0  0  0  0  0
  146.6970  136.6293  161.3239 N   0  0  0  0  0  0  0  0  0  0  0  0
  147.4209  137.3457  160.5083 N   0  0  0  0  0  0  0  0  0  0  0  0
  152.9327  141.1202  159.8157 C   0  0  0  0  0  0  0  0  0  0  0  0
  152.9278  142.6309  160.1000 C   0  0  0  0  0  0  0  0  0  0  0  0
  152.0015  146.4434  160.5391 H   0  0  0  0  0  0  0  0  0  0  0  0
  152.3244  144.8589  161.2338 H   0  0  0  0  0  0  0  0  0  0  0  0
  150.8546  145.1362  160.2980 H   0  0  0  0  0  0  0  0  0  0  0  0
  152.2304  145.4929  158.2282 H   0  0  0  0  0  0  0  0  0  0  0  0
  153.6902  145.3375  159.1661 H   0  0  0  0  0  0  0  0  0  0  0  0
  153.5164  143.2511  158.1274 H   0  0  0  0  0  0  0  0  0  0  0  0
  150.5371  143.2386  158.7645 H   0  0  0  0  0  0  0  0  0  0  0  0
  151.2476  143.5359  157.1977 H   0  0  0  0  0  0  0  0  0  0  0  0
  150.4477  141.2068  157.3840 H   0  0  0  0  0  0  0  0  0  0  0  0
  152.1717  141.2531  157.1137 H   0  0  0  0  0  0  0  0  0  0  0  0
  150.8071  140.8630  159.8160 H   0  0  0  0  0  0  0  0  0  0  0  0
  152.3402  138.9166  158.0442 H   0  0  0  0  0  0  0  0  0  0  0  0
  152.0350  138.6179  159.7460 H   0  0  0  0  0  0  0  0  0  0  0  0
  149.6872  139.2715  158.1058 H   0  0  0  0  0  0  0  0  0  0  0  0
  148.0184  137.9079  157.9094 H   0  0  0  0  0  0  0  0  0  0  0  0
  148.5282  136.2659  157.5489 H   0  0  0  0  0  0  0  0  0  0  0  0
  147.2045  134.5231  159.0043 H   0  0  0  0  0  0  0  0  0  0  0  0
  153.0737  140.5766  160.7506 H   0  0  0  0  0  0  0  0  0  0  0  0
  153.7882  140.8735  159.1855 H   0  0  0  0  0  0  0  0  0  0  0  0
  153.8773  142.9035  160.5600 H   0  0  0  0  0  0  0  0  0  0  0  0
  152.1529  142.8608  160.8325 H   0  0  0  0  0  0  0  0  0  0  0  0
  1  2  1  0  0  0  0
  1 19  1  0  0  0  0
  1 20  1  0  0  0  0
  1 21  1  0  0  0  0
  2  3  1  0  0  0  0
  2 22  1  0  0  0  0
  2 23  1  0  0  0  0
  3 18  1  0  0  0  0
  3  4  1  0  0  0  0
  3 24  1  0  0  0  0
  4  5  1  0  0  0  0
  4 25  1  0  0  0  0
  4 26  1  0  0  0  0
  5  6  1  0  0  0  0
  5 27  1  0  0  0  0
  5 28  1  0  0  0  0
  6  7  1  0  0  0  0
  6 17  1  0  0  0  0
  6 29  1  0  0  0  0
  7  8  1  0  0  0  0
  7 30  1  0  0  0  0
  7 31  1  0  0  0  0
  8  9  1  0  0  0  0
  8 32  1  0  0  0  0
  9 10  2  0  0  0  0
  9 11  1  0  0  0  0
 11 12  1  0  0  0  0
 11 33  1  0  0  0  0
 11 34  1  0  0  0  0
 12 16  1  0  0  0  0
 12 13  1  0  0  0  0
 13 14  2  0  0  0  0
 13 35  1  0  0  0  0
 14 15  1  0  0  0  0
 15 16  2  0  0  0  0
 17 18  1  0  0  0  0
 17 36  1  0  0  0  0
 17 37  1  0  0  0  0
 18 38  1  0  0  0  0
 18 39  1  0  0  0  0
M  END
> <s_m_source_file>
AV-unprocessed.smi

> <i_m_source_file_index>
1065

> <i_lp_mmshare_version>
43012

> <i_f3d_flags>
0

> <s_epik_input>
W0NIM11bQ0gyXVtDQEBIXTFbQ0gyXVtDSDJdW0NASF0oW0NIMl1bQ0gyXTEpW0NIMl1bTkhdQyg9TylbQ0gyXW4yW2NIXW5ubjI=

> <s_epik_cmdline>
J2VwaWtfcHl0aG9uJywgJy1waCcsICc3LjAnLCAnLXRuJywgJzgnLCAnLW1hJywgJzIwMCcsICctbWV0YWxfYmluZGluZycsICctaW1hZScsICc8aW5maWxlLm1hZT4nLCAnLW9tYWUnLCAnPG91dGZpbGUubWFlPic=

> <r_lp_tautomer_probability>
1

> <r_epik_Ionization_Penalty>
4.54759e-07

> <r_epik_Ionization_Penalty_Charging>
0

> <r_epik_Ionization_Penalty_Neutral>
4.54759e-07

> <r_epik_State_Penalty>
-0

> <r_epik_Charging_Adjusted_Penalty>
0

> <i_epik_Tot_Q>
0

> <i_epik_Tot_abs_Q>
0

> <r_epik_Metal_State_Penalty>
-0

> <b_epik_Metal_Only>
0

> <s_lp_Force_Field>
OPLS_2005

> <r_lp_Energy>
13.9446

> <b_lp_Chiralities_Consistent>
1

> <s_lp_Variant>
AV-unprocessed.smi:1065-1

> <Gold.Version>
5.8.1

> <Gold.Id.Protein>
6NUR|6NUR_protein|mol2

> <Gold.PLP.Fitness>
46.2942

> <Gold.PLP.PLP>
-39.3232

> <Gold.PLP.part.hbond>
-3.1061

> <Gold.PLP.part.metal>
0.0000

> <Gold.PLP.part.buried>
-5.6567

> <Gold.PLP.part.nonpolar>
-30.7190

> <Gold.PLP.part.repulsive>
0.1596

> <Gold.PLP.ligand.clash>
0.0000

> <Gold.PLP.ligand.torsion>
0.4920

> <Gold.PLP.Chemscore.Hbond>
2.6480

> <Gold.PLP.Chemscore.CHOScore>
0.0000

> <Gold.PLP.Chemscore.Metal>
0.0000

> <Gold.Chemscore.Hbonds>
donor molecule, donor type, donor heavy atom, donor atom, acceptor molecule, acceptor atom, score
      P1  H  6896  6909       L1    10  1.00
      P1  H  6931  6943       L1    16  0.21
      P1  H  6934  6947       L1    16  1.00

> <Gold.PLP.Chemscore.Internal.Correction>
0.0109

> <Gold.Rescore>
     Score         DG    S(hbond)    S(metal)    S(lipo)     H(rot)  DE(clash)    DE(int)     intcor
     17.44     -18.03       2.54        0.00      88.40       2.45       0.04       0.55       ----

> <Gold.Chemscore.Fitness>
17.4360

> <Gold.Chemscore.DG>
-18.0292

> <Gold.Chemscore.ZeroCoef>
-5.4800

> <Gold.Chemscore.Hbond>
2.5394

> <Gold.Chemscore.Metal>
0.0000

> <Gold.Chemscore.Lipo>
88.3972

> <Gold.Chemscore.Internal_Hbond>
0.0000

> <Gold.Chemscore.DEClash>
0.0398

> <Gold.Chemscore.DEInternal>
0.5534

> <Gold.Chemscore.Rot>
2.4512

> <Gold.Chemscore.Internal.Correction>
   9.000000E+99

> <Gold.Chemscore.Hbonds>
donor molecule, donor type, donor heavy atom, donor atom, acceptor molecule, acceptor atom, score
      P1  H  6896  6909       L1    10  0.99
      P1  H  6931  6943       L1    16  0.08
      P1  H  6934  6947       L1    16  0.63

> <Gold.Chemscore.Hbond.Weighted>
-8.4817

> <Gold.Chemscore.Metal.Weighted>
-0.0000

> <Gold.Chemscore.Lipo.Weighted>
-10.3425

> <Gold.Chemscore.Internal_Hbond.Weighted>
0.0000

> <Gold.Chemscore.DEClash.Weighted>
0.0398

> <Gold.Chemscore.DEInternal.Weighted>
0.5534

> <Gold.Chemscore.Rot.Weighted>
6.2750

> <Gold.Chemscore.Internal.Correction.Weighted>
   9.000000E+99

> <Gold.Protein.RotatedTorsions>
[ 6907 6896 6895 6894 ] final   98.28 input  -60.11 | X-H torsion
[ 7974 7965 7964 7962 ] final   13.06 input  175.53 | X-H torsion
[ 8008 7997 7996 7995 ] final  -62.61 input   59.86 | X-H torsion
[ 10167 10162 10161 10158 ] final  -73.35 input  -65.29 | X-H torsion
[ 10718 10713 10712 10709 ] final  151.05 input   66.30 | X-H torsion
[ 10763 10752 10751 10750 ] final  147.89 input  -60.55 | X-H torsion
[ 11005 11000 10999 10996 ] final  119.30 input  -57.11 | X-H torsion

> <Gold.Protein.ActiveResidues>
 VAL166  LYS551  ARG553  GLY616  TRP617  ASP618  TYR619  PRO620  LYS621  CYS622 
 ASP623  PHE694  ASN695  SER759  ASP760  ASP761  ALA762  ILE779  LEU786  VAL792 
 PHE793  MET794  SER795  GLU796  ALA797  LYS798  CYS799  TRP800  GLU811  SER814 

> <Gold.Protein.RotatedAtoms>
  152.5411  134.0605  159.8149 H   0  0  0  0  0  0  0  0  0  0  0  0  # atno 6907 bound_to 6896
  151.0733  133.5441  159.2633 H   0  0  0  0  0  0  0  0  0  0  0  0  # atno 6908 bound_to 6896
  151.2295  135.0557  159.9036 H   0  0  0  0  0  0  0  0  0  0  0  0  # atno 6909 bound_to 6896
  146.2338  139.9244  142.8505 H   0  0  0  0  0  0  0  0  0  0  0  0  # atno 7974 bound_to 7965
  154.4509  140.0992  156.6613 H   0  0  0  0  0  0  0  0  0  0  0  0  # atno 8008 bound_to 7997
  155.5290  140.3481  155.4404 H   0  0  0  0  0  0  0  0  0  0  0  0  # atno 8009 bound_to 7997
  156.0678  140.1342  156.9854 H   0  0  0  0  0  0  0  0  0  0  0  0  # atno 8010 bound_to 7997
  140.5117  143.2344  151.7582 H   0  0  0  0  0  0  0  0  0  0  0  0  # atno 10167 bound_to 10162
  157.2757  131.0825  151.1568 H   0  0  0  0  0  0  0  0  0  0  0  0  # atno 10718 bound_to 10713
  154.0458  135.2886  155.3348 H   0  0  0  0  0  0  0  0  0  0  0  0  # atno 10763 bound_to 10752
  154.6900  135.5230  153.8383 H   0  0  0  0  0  0  0  0  0  0  0  0  # atno 10764 bound_to 10752
  153.0581  135.6603  154.0658 H   0  0  0  0  0  0  0  0  0  0  0  0  # atno 10765 bound_to 10752
  139.9141  134.9627  156.7634 H   0  0  0  0  0  0  0  0  0  0  0  0  # atno 11005 bound_to 11000
  145.2105  140.9893  143.4103 LP  0  0  0  0  0  0  0  0  0  0  0  0  # atno 17320 bound_to 7965
  144.9695  139.3895  143.6316 LP  0  0  0  0  0  0  0  0  0  0  0  0  # atno 17321 bound_to 7965
  139.4898  144.4381  151.9796 LP  0  0  0  0  0  0  0  0  0  0  0  0  # atno 17342 bound_to 10162
  140.3473  144.3131  150.5955 LP  0  0  0  0  0  0  0  0  0  0  0  0  # atno 17343 bound_to 10162
  157.3022  130.6848  149.6170 LP  0  0  0  0  0  0  0  0  0  0  0  0  # atno 17370 bound_to 10713
  155.9663  130.4388  150.5235 LP  0  0  0  0  0  0  0  0  0  0  0  0  # atno 17371 bound_to 10713
  140.6679  133.9586  155.7840 LP  0  0  0  0  0  0  0  0  0  0  0  0  # atno 17394 bound_to 11000
  141.0598  134.0363  157.3674 LP  0  0  0  0  0  0  0  0  0  0  0  0  # atno 17395 bound_to 11000

$$$$
