AV-unprocessed.smi:2554|AV-procd|sdf|10019|dock1
  -GOLD-   2272014 63D 1   1.00000     0.00000
 Structure written by MMmdl.
 21 21  0  0  0  0  0  0  0  0  2 V2000
  144.8883  135.6690  150.9292 C   0  0  0  0  0  0  0  0  0  0  0  0
  144.6938  134.2199  150.6284 C   0  0  0  0  0  0  0  0  0  0  0  0
  143.5294  133.7206  150.0692 N   0  0  0  0  0  0  0  0  0  0  0  0
  143.6866  132.4018  149.9319 C   0  0  0  0  0  0  0  0  0  0  0  0
  144.8685  131.9695  150.3535 N   0  0  0  0  0  0  0  0  0  0  0  0
  145.5152  133.1242  150.8028 C   0  0  0  0  0  0  0  0  0  0  0  0
  146.9042  133.0589  151.3634 C   0  0  0  0  0  0  0  0  0  0  0  0
  146.9359  133.3888  152.8618 C   0  0  0  0  0  0  0  0  0  0  0  0
  148.2569  133.8916  153.2737 N   0  3  0  0  0  0  0  0  0  0  0  0
  142.7108  134.2536  149.8118 H   0  0  0  0  0  0  0  0  0  0  0  0
  145.8988  135.8696  151.2846 H   0  0  0  0  0  0  0  0  0  0  0  0
  144.1900  136.0003  151.6982 H   0  0  0  0  0  0  0  0  0  0  0  0
  144.7217  136.2749  150.0383 H   0  0  0  0  0  0  0  0  0  0  0  0
  142.9288  131.7524  149.5184 H   0  0  0  0  0  0  0  0  0  0  0  0
  147.3305  132.0693  151.1965 H   0  0  0  0  0  0  0  0  0  0  0  0
  147.5492  133.7543  150.8249 H   0  0  0  0  0  0  0  0  0  0  0  0
  146.1861  134.1440  153.1004 H   0  0  0  0  0  0  0  0  0  0  0  0
  146.6995  132.5016  153.4502 H   0  0  0  0  0  0  0  0  0  0  0  0
  148.2276  134.1557  154.2482 H   0  0  0  0  0  0  0  0  0  0  0  0
  148.4992  134.6972  152.7147 H   0  0  0  0  0  0  0  0  0  0  0  0
  148.9502  133.1691  153.1419 H   0  0  0  0  0  0  0  0  0  0  0  0
  1  2  1  0  0  0  0
  1 11  1  0  0  0  0
  1 12  1  0  0  0  0
  1 13  1  0  0  0  0
  2  6  2  0  0  0  0
  2  3  1  0  0  0  0
  3 10  1  0  0  0  0
  3  4  1  0  0  0  0
  4  5  2  0  0  0  0
  4 14  1  0  0  0  0
  5  6  1  0  0  0  0
  6  7  1  0  0  0  0
  7  8  1  0  0  0  0
  7 15  1  0  0  0  0
  7 16  1  0  0  0  0
  8  9  1  0  0  0  0
  8 17  1  0  0  0  0
  8 18  1  0  0  0  0
  9 19  1  0  0  0  0
  9 20  1  0  0  0  0
  9 21  1  0  0  0  0
M  CHG  1   9   1
M  END
> <s_m_source_file>
AV-unprocessed.smi

> <i_m_source_file_index>
2554

> <i_lp_mmshare_version>
43012

> <i_f3d_flags>
0

> <s_epik_input>
W0NIM11jMVtuSF1bY0hdbmMxW0NIMl1bQ0gyXVtOSDJd

> <s_epik_cmdline>
J2VwaWtfcHl0aG9uJywgJy1waCcsICc3LjAnLCAnLXRuJywgJzgnLCAnLW1hJywgJzIwMCcsICctbWV0YWxfYmluZGluZycsICctaW1hZScsICc8aW5maWxlLm1hZT4nLCAnLW9tYWUnLCAnPG91dGZpbGUubWFlPic=

> <r_lp_tautomer_probability>
0.5

> <r_epik_Ionization_Penalty>
0.151655

> <r_epik_Ionization_Penalty_Charging>
0.151655

> <r_epik_Ionization_Penalty_Neutral>
1.31637e-07

> <r_epik_State_Penalty>
0.545826

> <r_epik_Charging_Adjusted_Penalty>
0.697481

> <i_epik_Tot_Q>
1

> <i_epik_Tot_abs_Q>
1

> <r_epik_Metal_State_Penalty>
0.436539

> <b_epik_Metal_Only>
0

> <s_lp_Force_Field>
OPLS_2005

> <r_lp_Energy>
1.06437

> <b_lp_Chiralities_Consistent>
1

> <s_lp_Variant>
AV-unprocessed.smi:2554-1

> <Gold.Version>
5.8.1

> <Gold.Id.Protein>
6NUR|6NUR_protein|mol2

> <Gold.PLP.Fitness>
30.3953

> <Gold.PLP.PLP>
-18.7717

> <Gold.PLP.part.hbond>
-2.0000

> <Gold.PLP.part.metal>
0.0000

> <Gold.PLP.part.buried>
-2.7590

> <Gold.PLP.part.nonpolar>
-14.1565

> <Gold.PLP.part.repulsive>
0.1623

> <Gold.PLP.ligand.clash>
0.0000

> <Gold.PLP.ligand.torsion>
0.1884

> <Gold.PLP.Chemscore.Hbond>
3.0000

> <Gold.PLP.Chemscore.CHOScore>
1.0000

> <Gold.PLP.Chemscore.Metal>
0.0000

> <Gold.Chemscore.Hbonds>
donor molecule, donor type, donor heavy atom, donor atom, acceptor molecule, acceptor atom, score
      L1  H     3    10       P1 10186  1.00
      L1  H     9    20       P1  7948  1.90
      L1  C     4    14       P1 10952  0.99

> <Gold.PLP.Chemscore.Internal.Correction>
0.0004

> <Gold.Rescore>
     Score         DG    S(hbond)    S(metal)    S(lipo)     H(rot)  DE(clash)    DE(int)     intcor
     11.71     -11.90       1.96        0.00      30.38       1.45       0.00       0.18       ----

> <Gold.Chemscore.Fitness>
11.7132

> <Gold.Chemscore.DG>
-11.8951

> <Gold.Chemscore.ZeroCoef>
-5.4800

> <Gold.Chemscore.Hbond>
1.9645

> <Gold.Chemscore.Metal>
0.0000

> <Gold.Chemscore.Lipo>
30.3823

> <Gold.Chemscore.Internal_Hbond>
0.0000

> <Gold.Chemscore.DEClash>
0.0015

> <Gold.Chemscore.DEInternal>
0.1804

> <Gold.Chemscore.Rot>
1.4458

> <Gold.Chemscore.Internal.Correction>
   9.000000E+99

> <Gold.Chemscore.Hbonds>
donor molecule, donor type, donor heavy atom, donor atom, acceptor molecule, acceptor atom, score
      L1  H     3    10       P1 10186  0.96
      L1  H     9    20       P1  7948  0.22

> <Gold.Chemscore.Hbond.Weighted>
-6.5615

> <Gold.Chemscore.Metal.Weighted>
-0.0000

> <Gold.Chemscore.Lipo.Weighted>
-3.5547

> <Gold.Chemscore.Internal_Hbond.Weighted>
0.0000

> <Gold.Chemscore.DEClash.Weighted>
0.0015

> <Gold.Chemscore.DEInternal.Weighted>
0.1804

> <Gold.Chemscore.Rot.Weighted>
3.7012

> <Gold.Chemscore.Internal.Correction.Weighted>
   9.000000E+99

> <Gold.Protein.RotatedTorsions>
[ 6907 6896 6895 6894 ] final  -24.02 input  -60.11 | X-H torsion
[ 7974 7965 7964 7962 ] final -176.84 input  175.53 | X-H torsion
[ 8008 7997 7996 7995 ] final  126.20 input   59.86 | X-H torsion
[ 10167 10162 10161 10158 ] final  -97.38 input  -65.29 | X-H torsion
[ 10718 10713 10712 10709 ] final  112.27 input   66.30 | X-H torsion
[ 10763 10752 10751 10750 ] final   68.71 input  -60.55 | X-H torsion
[ 11005 11000 10999 10996 ] final  123.91 input  -57.11 | X-H torsion

> <Gold.Protein.ActiveResidues>
 VAL166  LYS551  ARG553  GLY616  TRP617  ASP618  TYR619  PRO620  LYS621  CYS622 
 ASP623  PHE694  ASN695  SER759  ASP760  ASP761  ALA762  ILE779  LEU786  VAL792 
 PHE793  MET794  SER795  GLU796  ALA797  LYS798  CYS799  TRP800  GLU811  SER814 

> <Gold.Protein.RotatedAtoms>
  151.1956  135.0421  159.8850 H   0  0  0  0  0  0  0  0  0  0  0  0  # atno 6907 bound_to 6896
  152.5436  134.0907  159.8285 H   0  0  0  0  0  0  0  0  0  0  0  0  # atno 6908 bound_to 6896
  151.1041  133.5174  159.2640 H   0  0  0  0  0  0  0  0  0  0  0  0  # atno 6909 bound_to 6896
  144.7127  140.1110  143.6411 H   0  0  0  0  0  0  0  0  0  0  0  0  # atno 7974 bound_to 7965
  156.2857  140.2698  156.2073 H   0  0  0  0  0  0  0  0  0  0  0  0  # atno 8008 bound_to 7997
  155.0300  140.0386  157.2488 H   0  0  0  0  0  0  0  0  0  0  0  0  # atno 8009 bound_to 7997
  154.7362  140.2716  155.6418 H   0  0  0  0  0  0  0  0  0  0  0  0  # atno 8010 bound_to 7997
  140.2840  143.3263  152.0413 H   0  0  0  0  0  0  0  0  0  0  0  0  # atno 10167 bound_to 10162
  157.6401  131.0965  150.6870 H   0  0  0  0  0  0  0  0  0  0  0  0  # atno 10718 bound_to 10713
  153.0249  135.5237  154.7176 H   0  0  0  0  0  0  0  0  0  0  0  0  # atno 10763 bound_to 10752
  154.6241  135.2892  155.0295 H   0  0  0  0  0  0  0  0  0  0  0  0  # atno 10764 bound_to 10752
  154.1271  135.6598  153.4967 H   0  0  0  0  0  0  0  0  0  0  0  0  # atno 10765 bound_to 10752
  139.9334  134.9640  156.8330 H   0  0  0  0  0  0  0  0  0  0  0  0  # atno 11005 bound_to 11000
  145.9454  139.2697  143.1243 LP  0  0  0  0  0  0  0  0  0  0  0  0  # atno 17320 bound_to 7965
  145.9379  140.9001  143.0323 LP  0  0  0  0  0  0  0  0  0  0  0  0  # atno 17321 bound_to 7965
  139.4955  144.6572  151.6547 LP  0  0  0  0  0  0  0  0  0  0  0  0  # atno 17342 bound_to 10162
  140.5788  143.9982  150.6256 LP  0  0  0  0  0  0  0  0  0  0  0  0  # atno 17343 bound_to 10162
  156.7195  130.4676  149.5526 LP  0  0  0  0  0  0  0  0  0  0  0  0  # atno 17370 bound_to 10713
  156.1675  130.6415  151.0796 LP  0  0  0  0  0  0  0  0  0  0  0  0  # atno 17371 bound_to 10713
  140.6140  134.0056  155.7589 LP  0  0  0  0  0  0  0  0  0  0  0  0  # atno 17394 bound_to 11000
  141.0935  133.9879  157.3198 LP  0  0  0  0  0  0  0  0  0  0  0  0  # atno 17395 bound_to 11000

$$$$
