AV-unprocessed.smi:697|AV-procd|sdf|3395|dock4
  -GOLD-   22720 0373D 1   1.00000     0.00000
 Structure written by MMmdl.
 43 44  0  0  0  0  0  0  0  0  2 V2000
  151.2962  137.5977  159.0133 C   0  0  0  0  0  0  0  0  0  0  0  0
  150.7211  136.5272  158.2740 O   0  0  0  0  0  0  0  0  0  0  0  0
  151.2841  136.2402  156.9866 C   0  0  1  0  0  0  0  0  0  0  0  0
  152.7986  136.4841  156.9940 C   0  0  0  0  0  0  0  0  0  0  0  0
  150.7383  134.9004  156.4572 C   0  0  0  0  0  0  0  0  0  0  0  0
  149.5168  135.6754  155.9669 C   0  0  2  0  0  0  0  0  0  0  0  0
  149.0249  135.1941  154.6802 N   0  0  0  0  0  0  0  0  0  0  0  0
  148.3166  134.0697  154.5110 C   0  0  0  0  0  0  0  0  0  0  0  0
  148.0291  133.3120  155.4373 O   0  0  0  0  0  0  0  0  0  0  0  0
  147.9847  133.9056  153.2175 N   0  0  0  0  0  0  0  0  0  0  0  0
  147.2176  132.8985  152.6056 C   0  0  0  0  0  0  0  0  0  0  0  0
  147.3464  131.5634  152.8435 C   0  0  0  0  0  0  0  0  0  0  0  0
  146.5084  130.5686  152.1861 C   0  0  0  0  0  0  0  0  0  0  0  0
  146.6904  129.0706  152.3559 C   0  0  0  0  0  0  0  0  0  0  0  0
  145.7327  128.3944  151.7214 F   0  0  0  0  0  0  0  0  0  0  0  0
  147.8709  128.6764  151.8788 F   0  0  0  0  0  0  0  0  0  0  0  0
  146.6377  128.7513  153.6481 F   0  0  0  0  0  0  0  0  0  0  0  0
  145.6044  131.1397  151.3115 C   0  0  0  0  0  0  0  0  0  0  0  0
  145.3943  132.4460  151.0386 N   0  5  0  0  0  0  0  0  0  0  0  0
  146.1831  133.3677  151.6602 C   0  0  0  0  0  0  0  0  0  0  0  0
  146.0492  134.5741  151.4513 O   0  0  0  0  0  0  0  0  0  0  0  0
  150.4102  136.9409  155.8952 C   0  0  0  0  0  0  0  0  0  0  0  0
  149.7378  138.2587  156.2964 C   0  0  0  0  0  0  0  0  0  0  0  0
  151.1066  137.2202  154.5495 C   0  0  0  0  0  0  0  0  0  0  0  0
  150.8879  137.5909  160.0235 H   0  0  0  0  0  0  0  0  0  0  0  0
  151.0515  138.5648  158.5742 H   0  0  0  0  0  0  0  0  0  0  0  0
  152.3794  137.5138  159.0939 H   0  0  0  0  0  0  0  0  0  0  0  0
  153.2320  136.3726  156.0009 H   0  0  0  0  0  0  0  0  0  0  0  0
  153.3225  135.7732  157.6322 H   0  0  0  0  0  0  0  0  0  0  0  0
  153.0365  137.4888  157.3437 H   0  0  0  0  0  0  0  0  0  0  0  0
  151.3462  134.4853  155.6513 H   0  0  0  0  0  0  0  0  0  0  0  0
  150.5137  134.1422  157.2065 H   0  0  0  0  0  0  0  0  0  0  0  0
  148.7458  135.7420  156.7380 H   0  0  0  0  0  0  0  0  0  0  0  0
  149.2253  135.7607  153.8691 H   0  0  0  0  0  0  0  0  0  0  0  0
  148.3449  134.5951  152.5740 H   0  0  0  0  0  0  0  0  0  0  0  0
  148.0701  131.1910  153.5489 H   0  0  0  0  0  0  0  0  0  0  0  0
  144.9537  130.4415  150.7428 H   0  0  0  0  0  0  0  0  0  0  0  0
  149.0832  138.6311  155.5077 H   0  0  0  0  0  0  0  0  0  0  0  0
  150.4742  139.0342  156.5087 H   0  0  0  0  0  0  0  0  0  0  0  0
  149.1185  138.1468  157.1866 H   0  0  0  0  0  0  0  0  0  0  0  0
  150.3970  137.5468  153.7885 H   0  0  0  0  0  0  0  0  0  0  0  0
  151.6105  136.3378  154.1547 H   0  0  0  0  0  0  0  0  0  0  0  0
  151.8584  138.0041  154.6442 H   0  0  0  0  0  0  0  0  0  0  0  0
  1  2  1  0  0  0  0
  1 25  1  0  0  0  0
  1 26  1  0  0  0  0
  1 27  1  0  0  0  0
  2  3  1  0  0  0  0
  3 22  1  0  0  0  0
  3  4  1  0  0  0  0
  3  5  1  0  0  0  0
  4 28  1  0  0  0  0
  4 29  1  0  0  0  0
  4 30  1  0  0  0  0
  5  6  1  0  0  0  0
  5 31  1  0  0  0  0
  5 32  1  0  0  0  0
  6  7  1  0  0  0  0
  6 22  1  0  0  0  0
  6 33  1  0  0  0  0
  7  8  1  0  0  0  0
  7 34  1  0  0  0  0
  8  9  2  0  0  0  0
  8 10  1  0  0  0  0
 10 11  1  0  0  0  0
 10 35  1  0  0  0  0
 11 20  1  0  0  0  0
 11 12  2  0  0  0  0
 12 13  1  0  0  0  0
 12 36  1  0  0  0  0
 13 14  1  0  0  0  0
 13 18  2  0  0  0  0
 14 15  1  0  0  0  0
 14 16  1  0  0  0  0
 14 17  1  0  0  0  0
 18 19  1  0  0  0  0
 18 37  1  0  0  0  0
 19 20  1  0  0  0  0
 20 21  2  0  0  0  0
 22 23  1  0  0  0  0
 22 24  1  0  0  0  0
 23 38  1  0  0  0  0
 23 39  1  0  0  0  0
 23 40  1  0  0  0  0
 24 41  1  0  0  0  0
 24 42  1  0  0  0  0
 24 43  1  0  0  0  0
M  CHG  1  19  -1
M  END
> <s_m_source_file>
AV-unprocessed.smi

> <i_m_source_file_index>
697

> <i_lp_mmshare_version>
43012

> <i_f3d_flags>
0

> <s_epik_input>
W0NIM11PW0NAQF0xKFtDSDNdKVtDSDJdW0NASF0oQzEoW0NIM10pW0NIM10pW05IXUMoPU8pW05IXWMyW2NIXWMoQyhGKShGKUYpW2NIXVtuSF1jMj1P

> <s_epik_cmdline>
J2VwaWtfcHl0aG9uJywgJy1waCcsICc3LjAnLCAnLXRuJywgJzgnLCAnLW1hJywgJzIwMCcsICctbWV0YWxfYmluZGluZycsICctaW1hZScsICc8aW5maWxlLm1hZT4nLCAnLW9tYWUnLCAnPG91dGZpbGUubWFlPic=

> <r_lp_tautomer_probability>
1

> <r_epik_Ionization_Penalty>
3.20094

> <r_epik_Ionization_Penalty_Charging>
0.180017

> <r_epik_Ionization_Penalty_Neutral>
3.02092

> <r_epik_State_Penalty>
3.01726

> <r_epik_Charging_Adjusted_Penalty>
3.19727

> <i_epik_Tot_Q>
-1

> <i_epik_Tot_abs_Q>
1

> <r_epik_Metal_State_Penalty>
0.455096

> <b_epik_Metal_Only>
1

> <s_lp_Force_Field>
OPLS_2005

> <r_lp_Energy>
36.256

> <b_lp_Chiralities_Consistent>
1

> <s_lp_Variant>
AV-unprocessed.smi:697-7

> <Gold.Version>
5.8.1

> <Gold.Id.Protein>
6NUR|6NUR_protein|mol2

> <Gold.PLP.Fitness>
36.7429

> <Gold.PLP.PLP>
-31.9668

> <Gold.PLP.part.hbond>
-2.8026

> <Gold.PLP.part.metal>
0.0000

> <Gold.PLP.part.buried>
-2.9216

> <Gold.PLP.part.nonpolar>
-26.2860

> <Gold.PLP.part.repulsive>
0.2925

> <Gold.PLP.ligand.clash>
0.0000

> <Gold.PLP.ligand.torsion>
1.0943

> <Gold.PLP.Chemscore.Hbond>
2.1662

> <Gold.PLP.Chemscore.CHOScore>
0.0000

> <Gold.PLP.Chemscore.Metal>
0.0000

> <Gold.Chemscore.Hbonds>
donor molecule, donor type, donor heavy atom, donor atom, acceptor molecule, acceptor atom, score
      L1  H     7    34       P1  7948  0.94
      L1  H    10    35       P1  7948  0.95
      P1  H  6896  6908       L1     2  0.27

> <Gold.PLP.Chemscore.Internal.Correction>
0.4660

> <Gold.Rescore>
     Score         DG    S(hbond)    S(metal)    S(lipo)     H(rot)  DE(clash)    DE(int)     intcor
     14.66     -15.71       1.76        0.00      65.62       1.30       0.09       0.97       ----

> <Gold.Chemscore.Fitness>
14.6596

> <Gold.Chemscore.DG>
-15.7143

> <Gold.Chemscore.ZeroCoef>
-5.4800

> <Gold.Chemscore.Hbond>
1.7597

> <Gold.Chemscore.Metal>
0.0000

> <Gold.Chemscore.Lipo>
65.6243

> <Gold.Chemscore.Internal_Hbond>
0.0000

> <Gold.Chemscore.DEClash>
0.0869

> <Gold.Chemscore.DEInternal>
0.9678

> <Gold.Chemscore.Rot>
1.2973

> <Gold.Chemscore.Internal.Correction>
   9.000000E+99

> <Gold.Chemscore.Hbonds>
donor molecule, donor type, donor heavy atom, donor atom, acceptor molecule, acceptor atom, score
      L1  H     7    34       P1  7948  0.64
      L1  H    10    35       P1  7948  0.22
      P1  H  6896  6908       L1     2  0.13

> <Gold.Chemscore.Hbond.Weighted>
-5.8773

> <Gold.Chemscore.Metal.Weighted>
-0.0000

> <Gold.Chemscore.Lipo.Weighted>
-7.6780

> <Gold.Chemscore.Internal_Hbond.Weighted>
0.0000

> <Gold.Chemscore.DEClash.Weighted>
0.0869

> <Gold.Chemscore.DEInternal.Weighted>
0.9678

> <Gold.Chemscore.Rot.Weighted>
3.3210

> <Gold.Chemscore.Internal.Correction.Weighted>
   9.000000E+99

> <Gold.Protein.RotatedTorsions>
[ 6907 6896 6895 6894 ] final  175.87 input  -60.11 | X-H torsion
[ 7974 7965 7964 7962 ] final  -13.80 input  175.53 | X-H torsion
[ 8008 7997 7996 7995 ] final  -15.17 input   59.86 | X-H torsion
[ 10167 10162 10161 10158 ] final    3.42 input  -65.29 | X-H torsion
[ 10718 10713 10712 10709 ] final -163.45 input   66.30 | X-H torsion
[ 10763 10752 10751 10750 ] final  122.06 input  -60.55 | X-H torsion
[ 11005 11000 10999 10996 ] final   91.11 input  -57.11 | X-H torsion

> <Gold.Protein.ActiveResidues>
 VAL166  LYS551  ARG553  GLY616  TRP617  ASP618  TYR619  PRO620  LYS621  CYS622 
 ASP623  PHE694  ASN695  SER759  ASP760  ASP761  ALA762  ILE779  LEU786  VAL792 
 PHE793  MET794  SER795  GLU796  ALA797  LYS798  CYS799  TRP800  GLU811  SER814 

> <Gold.Protein.RotatedAtoms>
  151.7292  133.3317  159.3335 H   0  0  0  0  0  0  0  0  0  0  0  0  # atno 6907 bound_to 6896
  150.7620  134.6378  159.6230 H   0  0  0  0  0  0  0  0  0  0  0  0  # atno 6908 bound_to 6896
  152.3602  134.6885  160.0261 H   0  0  0  0  0  0  0  0  0  0  0  0  # atno 6909 bound_to 6896
  146.2100  140.3255  142.8394 H   0  0  0  0  0  0  0  0  0  0  0  0  # atno 7974 bound_to 7965
  154.5151  140.2203  155.9081 H   0  0  0  0  0  0  0  0  0  0  0  0  # atno 8008 bound_to 7997
  156.1598  140.3144  155.8753 H   0  0  0  0  0  0  0  0  0  0  0  0  # atno 8009 bound_to 7997
  155.3774  140.0470  157.3035 H   0  0  0  0  0  0  0  0  0  0  0  0  # atno 8010 bound_to 7997
  140.6586  143.7362  150.7698 H   0  0  0  0  0  0  0  0  0  0  0  0  # atno 10167 bound_to 10162
  156.6248  130.8905  151.2965 H   0  0  0  0  0  0  0  0  0  0  0  0  # atno 10718 bound_to 10713
  153.6238  135.3408  155.3019 H   0  0  0  0  0  0  0  0  0  0  0  0  # atno 10763 bound_to 10752
  154.8594  135.4279  154.2179 H   0  0  0  0  0  0  0  0  0  0  0  0  # atno 10764 bound_to 10752
  153.3058  135.7028  153.7233 H   0  0  0  0  0  0  0  0  0  0  0  0  # atno 10765 bound_to 10752
  139.8844  134.8654  156.3381 H   0  0  0  0  0  0  0  0  0  0  0  0  # atno 11005 bound_to 11000
  144.8889  140.7498  143.5939 LP  0  0  0  0  0  0  0  0  0  0  0  0  # atno 17320 bound_to 7965
  145.3177  139.1798  143.4604 LP  0  0  0  0  0  0  0  0  0  0  0  0  # atno 17321 bound_to 7965
  140.1026  143.4773  152.2416 LP  0  0  0  0  0  0  0  0  0  0  0  0  # atno 17342 bound_to 10162
  139.5815  144.7512  151.3629 LP  0  0  0  0  0  0  0  0  0  0  0  0  # atno 17343 bound_to 10162
  157.7217  130.9567  150.1466 LP  0  0  0  0  0  0  0  0  0  0  0  0  # atno 17370 bound_to 10713
  156.2282  130.3680  149.8476 LP  0  0  0  0  0  0  0  0  0  0  0  0  # atno 17371 bound_to 10713
  140.9677  133.7347  156.0490 LP  0  0  0  0  0  0  0  0  0  0  0  0  # atno 17394 bound_to 11000
  140.7910  134.3618  157.5464 LP  0  0  0  0  0  0  0  0  0  0  0  0  # atno 17395 bound_to 11000

$$$$
