AV-unprocessed.smi:861|AV-procd|sdf|3972|dock5
  -GOLD-   22720 1443D 1   1.00000     0.00000
 Structure written by MMmdl.
 45 46  0  0  0  0  0  0  0  0  3 V2000
  152.4792  144.7435  158.3202 C   0  0  0  0  0  0  0  0  0  0  0  0
  151.5751  143.5515  158.6792 C   0  0  0  0  0  0  0  0  0  0  0  0
  152.2381  142.6903  159.7658 C   0  0  0  0  0  0  0  0  0  0  0  0
  151.2093  142.6927  157.4504 C   0  0  0  0  0  0  0  0  0  0  0  0
  149.8998  141.8943  157.6101 C   0  0  0  0  0  0  0  0  0  0  0  0
  148.9885  142.0498  156.4472 N   0  3  1  0  0  0  0  0  0  0  0  0
  149.3990  141.2585  155.2608 C   0  0  0  0  0  0  0  0  0  0  0  0
  148.4237  141.4889  154.0960 C   0  0  0  0  0  0  0  0  0  0  0  0
  147.1038  141.1596  154.5087 O   0  0  0  0  0  0  0  0  0  0  0  0
  146.6495  141.9765  155.5811 C   0  0  1  0  0  0  0  0  0  0  0  0
  145.1884  141.5788  155.8637 C   0  0  0  0  0  0  0  0  0  0  0  0
  144.2416  142.1823  154.9350 N   0  0  0  0  0  0  0  0  0  0  0  0
  143.8844  143.5362  155.0135 C   0  0  0  0  0  0  0  0  0  0  0  0
  144.3897  144.4448  155.9732 C   0  0  0  0  0  0  0  0  0  0  0  0
  143.9416  145.7763  155.9317 C   0  0  0  0  0  0  0  0  0  0  0  0
  143.0152  146.1215  154.9320 C   0  0  0  0  0  0  0  0  0  0  0  0
  142.5448  145.2389  154.0230 N   0  0  0  0  0  0  0  0  0  0  0  0
  142.9927  143.9729  154.0888 N   0  3  0  0  0  0  0  0  0  0  0  0
  147.5763  141.7577  156.7966 C   0  0  0  0  0  0  0  0  0  0  0  0
  153.4080  144.4109  157.8553 H   0  0  0  0  0  0  0  0  0  0  0  0
  152.7432  145.3146  159.2109 H   0  0  0  0  0  0  0  0  0  0  0  0
  151.9896  145.4337  157.6341 H   0  0  0  0  0  0  0  0  0  0  0  0
  150.6511  143.9471  159.1031 H   0  0  0  0  0  0  0  0  0  0  0  0
  153.1714  142.2523  159.4100 H   0  0  0  0  0  0  0  0  0  0  0  0
  151.5848  141.8748  160.0773 H   0  0  0  0  0  0  0  0  0  0  0  0
  152.4652  143.2817  160.6535 H   0  0  0  0  0  0  0  0  0  0  0  0
  151.1497  143.3275  156.5652 H   0  0  0  0  0  0  0  0  0  0  0  0
  152.0300  141.9994  157.2692 H   0  0  0  0  0  0  0  0  0  0  0  0
  150.1091  140.8367  157.7774 H   0  0  0  0  0  0  0  0  0  0  0  0
  149.3815  142.2507  158.5002 H   0  0  0  0  0  0  0  0  0  0  0  0
  150.4027  141.5344  154.9406 H   0  0  0  0  0  0  0  0  0  0  0  0
  149.4252  140.1986  155.5185 H   0  0  0  0  0  0  0  0  0  0  0  0
  148.4641  142.5229  153.7492 H   0  0  0  0  0  0  0  0  0  0  0  0
  148.6964  140.8586  153.2494 H   0  0  0  0  0  0  0  0  0  0  0  0
  146.6890  143.0211  155.2672 H   0  0  0  0  0  0  0  0  0  0  0  0
  145.0788  140.4943  155.8406 H   0  0  0  0  0  0  0  0  0  0  0  0
  144.9147  141.8831  156.8743 H   0  0  0  0  0  0  0  0  0  0  0  0
  143.8794  141.6151  154.1815 H   0  0  0  0  0  0  0  0  0  0  0  0
  145.1009  144.1465  156.7285 H   0  0  0  0  0  0  0  0  0  0  0  0
  144.2957  146.5103  156.6408 H   0  0  0  0  0  0  0  0  0  0  0  0
  142.6406  147.1320  154.8579 H   0  0  0  0  0  0  0  0  0  0  0  0
  147.4970  140.7287  157.1518 H   0  0  0  0  0  0  0  0  0  0  0  0
  147.2655  142.4046  157.6180 H   0  0  0  0  0  0  0  0  0  0  0  0
  149.0219  143.0238  156.1814 H   0  0  0  0  0  0  0  0  0  0  0  0
  142.6439  143.3031  153.4026 H   0  0  0  0  0  0  0  0  0  0  0  0
  1  2  1  0  0  0  0
  1 20  1  0  0  0  0
  1 21  1  0  0  0  0
  1 22  1  0  0  0  0
  2  3  1  0  0  0  0
  2  4  1  0  0  0  0
  2 23  1  0  0  0  0
  3 24  1  0  0  0  0
  3 25  1  0  0  0  0
  3 26  1  0  0  0  0
  4  5  1  0  0  0  0
  4 27  1  0  0  0  0
  4 28  1  0  0  0  0
  5  6  1  0  0  0  0
  5 29  1  0  0  0  0
  5 30  1  0  0  0  0
  6 19  1  0  0  0  0
  6  7  1  0  0  0  0
  6 44  1  0  0  0  0
  7  8  1  0  0  0  0
  7 31  1  0  0  0  0
  7 32  1  0  0  0  0
  8  9  1  0  0  0  0
  8 33  1  0  0  0  0
  8 34  1  0  0  0  0
  9 10  1  0  0  0  0
 10 11  1  0  0  0  0
 10 19  1  0  0  0  0
 10 35  1  0  0  0  0
 11 12  1  0  0  0  0
 11 36  1  0  0  0  0
 11 37  1  0  0  0  0
 12 13  1  0  0  0  0
 12 38  1  0  0  0  0
 13 18  1  0  0  0  0
 13 14  2  0  0  0  0
 14 15  1  0  0  0  0
 14 39  1  0  0  0  0
 15 16  2  0  0  0  0
 15 40  1  0  0  0  0
 16 17  1  0  0  0  0
 16 41  1  0  0  0  0
 17 18  2  0  0  0  0
 18 45  1  0  0  0  0
 19 42  1  0  0  0  0
 19 43  1  0  0  0  0
M  CHG  1   6   1
M  CHG  1  18   1
M  END
> <s_m_source_file>
AV-unprocessed.smi

> <i_m_source_file_index>
861

> <i_lp_mmshare_version>
43012

> <i_f3d_flags>
0

> <s_epik_input>
W0NIM11bQ0hdKFtDSDNdKVtDSDJdW0NIMl1OMVtDSDJdW0NIMl1PW0NASF0oW0NIMl0xKVtDSDJdW05IXWMyW2NIXVtjSF1bY0hdbm4y

> <s_epik_cmdline>
J2VwaWtfcHl0aG9uJywgJy1waCcsICc3LjAnLCAnLXRuJywgJzgnLCAnLW1hJywgJzIwMCcsICctbWV0YWxfYmluZGluZycsICctaW1hZScsICc8aW5maWxlLm1hZT4nLCAnLW9tYWUnLCAnPG91dGZpbGUubWFlPic=

> <r_lp_tautomer_probability>
0.966961

> <r_epik_Ionization_Penalty>
2.478

> <r_epik_Ionization_Penalty_Charging>
2.47799

> <r_epik_Ionization_Penalty_Neutral>
3.15286e-06

> <r_epik_State_Penalty>
2.10794

> <r_epik_Charging_Adjusted_Penalty>
4.58594

> <i_epik_Tot_Q>
2

> <i_epik_Tot_abs_Q>
2

> <r_epik_Metal_State_Penalty>
2.11378

> <b_epik_Metal_Only>
0

> <s_lp_Force_Field>
OPLS_2005

> <r_lp_Energy>
34.6119

> <b_lp_Chiralities_Consistent>
1

> <s_lp_Variant>
AV-unprocessed.smi:861-7

> <Gold.Version>
5.8.1

> <Gold.Id.Protein>
6NUR|6NUR_protein|mol2

> <Gold.PLP.Fitness>
50.0208

> <Gold.PLP.PLP>
-35.7378

> <Gold.PLP.part.hbond>
-4.0003

> <Gold.PLP.part.metal>
0.0000

> <Gold.PLP.part.buried>
-5.4781

> <Gold.PLP.part.nonpolar>
-28.7796

> <Gold.PLP.part.repulsive>
0.3144

> <Gold.PLP.ligand.clash>
0.0000

> <Gold.PLP.ligand.torsion>
1.0369

> <Gold.PLP.Chemscore.Hbond>
5.4381

> <Gold.PLP.Chemscore.CHOScore>
0.0000

> <Gold.PLP.Chemscore.Metal>
0.0000

> <Gold.Chemscore.Hbonds>
donor molecule, donor type, donor heavy atom, donor atom, acceptor molecule, acceptor atom, score
      L1  H     6    44       P1  8028  2.00
      L1  H    12    38       P1 10175  1.60
      L1  H    18    45       P1 10174  1.85

> <Gold.PLP.Chemscore.Internal.Correction>
0.0424

> <Gold.Rescore>
     Score         DG    S(hbond)    S(metal)    S(lipo)     H(rot)  DE(clash)    DE(int)     intcor
     17.84     -19.12       2.15        0.00      94.13       1.78       0.24       1.05       ----

> <Gold.Chemscore.Fitness>
17.8354

> <Gold.Chemscore.DG>
-19.1221

> <Gold.Chemscore.ZeroCoef>
-5.4800

> <Gold.Chemscore.Hbond>
2.1481

> <Gold.Chemscore.Metal>
0.0000

> <Gold.Chemscore.Lipo>
94.1325

> <Gold.Chemscore.Internal_Hbond>
0.0000

> <Gold.Chemscore.DEClash>
0.2366

> <Gold.Chemscore.DEInternal>
1.0501

> <Gold.Chemscore.Rot>
1.7759

> <Gold.Chemscore.Internal.Correction>
   9.000000E+99

> <Gold.Chemscore.Hbonds>
donor molecule, donor type, donor heavy atom, donor atom, acceptor molecule, acceptor atom, score
      L1  H     6    44       P1  8028  1.00
      L1  H    12    38       P1 10175  0.11
      L1  H    18    45       P1 10174  0.88

> <Gold.Chemscore.Hbond.Weighted>
-7.1748

> <Gold.Chemscore.Metal.Weighted>
-0.0000

> <Gold.Chemscore.Lipo.Weighted>
-11.0135

> <Gold.Chemscore.Internal_Hbond.Weighted>
0.0000

> <Gold.Chemscore.DEClash.Weighted>
0.2366

> <Gold.Chemscore.DEInternal.Weighted>
1.0501

> <Gold.Chemscore.Rot.Weighted>
4.5462

> <Gold.Chemscore.Internal.Correction.Weighted>
   9.000000E+99

> <Gold.Protein.RotatedTorsions>
[ 6907 6896 6895 6894 ] final -167.91 input  -60.11 | X-H torsion
[ 7974 7965 7964 7962 ] final   -9.11 input  175.53 | X-H torsion
[ 8008 7997 7996 7995 ] final -144.29 input   59.86 | X-H torsion
[ 10167 10162 10161 10158 ] final   42.70 input  -65.29 | X-H torsion
[ 10718 10713 10712 10709 ] final  -76.67 input   66.30 | X-H torsion
[ 10763 10752 10751 10750 ] final  134.12 input  -60.55 | X-H torsion
[ 11005 11000 10999 10996 ] final  -50.30 input  -57.11 | X-H torsion

> <Gold.Protein.ActiveResidues>
 VAL166  LYS551  ARG553  GLY616  TRP617  ASP618  TYR619  PRO620  LYS621  CYS622 
 ASP623  PHE694  ASN695  SER759  ASP760  ASP761  ALA762  ILE779  LEU786  VAL792 
 PHE793  MET794  SER795  GLU796  ALA797  LYS798  CYS799  TRP800  GLU811  SER814 

> <Gold.Protein.RotatedAtoms>
  151.4671  133.3578  159.2817 H   0  0  0  0  0  0  0  0  0  0  0  0  # atno 6907 bound_to 6896
  150.8986  134.8398  159.7355 H   0  0  0  0  0  0  0  0  0  0  0  0  # atno 6908 bound_to 6896
  152.4866  134.4589  159.9650 H   0  0  0  0  0  0  0  0  0  0  0  0  # atno 6909 bound_to 6896
  146.2261  140.2568  142.8350 H   0  0  0  0  0  0  0  0  0  0  0  0  # atno 7974 bound_to 7965
  155.5245  140.0594  157.2900 H   0  0  0  0  0  0  0  0  0  0  0  0  # atno 8008 bound_to 7997
  154.4506  140.1946  156.0478 H   0  0  0  0  0  0  0  0  0  0  0  0  # atno 8009 bound_to 7997
  156.0695  140.3262  155.7563 H   0  0  0  0  0  0  0  0  0  0  0  0  # atno 8010 bound_to 7997
  140.3518  144.2340  150.6145 H   0  0  0  0  0  0  0  0  0  0  0  0  # atno 10167 bound_to 10162
  156.0168  130.4471  150.3229 H   0  0  0  0  0  0  0  0  0  0  0  0  # atno 10718 bound_to 10713
  153.8184  135.3119  155.3408 H   0  0  0  0  0  0  0  0  0  0  0  0  # atno 10763 bound_to 10752
  154.8023  135.4719  154.0308 H   0  0  0  0  0  0  0  0  0  0  0  0  # atno 10764 bound_to 10752
  153.1709  135.6877  153.8698 H   0  0  0  0  0  0  0  0  0  0  0  0  # atno 10765 bound_to 10752
  141.0808  133.6654  156.3711 H   0  0  0  0  0  0  0  0  0  0  0  0  # atno 11005 bound_to 11000
  144.9370  140.8037  143.5654 LP  0  0  0  0  0  0  0  0  0  0  0  0  # atno 17320 bound_to 7965
  145.2516  139.2029  143.4939 LP  0  0  0  0  0  0  0  0  0  0  0  0  # atno 17321 bound_to 7965
  140.5212  143.2265  151.8386 LP  0  0  0  0  0  0  0  0  0  0  0  0  # atno 17342 bound_to 10162
  139.4825  144.4835  151.9277 LP  0  0  0  0  0  0  0  0  0  0  0  0  # atno 17343 bound_to 10162
  157.1329  131.0276  151.2961 LP  0  0  0  0  0  0  0  0  0  0  0  0  # atno 17370 bound_to 10713
  157.4536  130.7612  149.7173 LP  0  0  0  0  0  0  0  0  0  0  0  0  # atno 17371 bound_to 10713
  140.5473  134.6062  157.5397 LP  0  0  0  0  0  0  0  0  0  0  0  0  # atno 17394 bound_to 11000
  139.9622  134.7433  156.0213 LP  0  0  0  0  0  0  0  0  0  0  0  0  # atno 17395 bound_to 11000

$$$$
