AV-unprocessed.smi:769|AV-procd|sdf|3677|dock2
  -GOLD-   22720 1 93D 1   1.00000     0.00000
 Structure written by MMmdl.
 51 53  0  0  0  0  0  0  0  0  3 V2000
  147.2408  132.8702  154.1515 O   0  0  0  0  0  0  0  0  0  0  0  0
  147.7357  133.8475  153.5906 C   0  0  0  0  0  0  0  0  0  0  0  0
  148.9148  134.3785  153.9452 N   0  0  0  0  0  0  0  0  0  0  0  0
  149.7763  133.8631  155.0038 C   0  0  0  0  0  0  0  0  0  0  0  0
  149.8751  134.8459  156.1872 C   0  0  0  0  0  0  0  0  0  0  0  0
  150.8957  135.9012  155.9677 N   0  3  0  0  0  0  0  0  0  0  0  0
  150.5941  136.7295  154.7683 C   0  0  0  0  0  0  0  0  0  0  0  0
  151.6570  137.8221  154.5497 C   0  0  0  0  0  0  0  0  0  0  0  0
  151.7642  138.6281  155.7687 N   0  0  0  0  0  0  0  0  0  0  0  0
  151.3815  139.9271  155.8288 C   0  0  0  0  0  0  0  0  0  0  0  0
  151.0051  140.5418  154.8302 O   0  0  0  0  0  0  0  0  0  0  0  0
  151.3760  140.6427  157.1971 C   0  0  0  0  0  0  0  0  0  0  0  0
  150.2173  140.2923  158.1525 C   0  0  0  0  0  0  0  0  0  0  0  0
  149.5212  141.5991  157.7607 C   0  0  0  0  0  0  0  0  0  0  0  0
  150.8388  142.0833  157.1468 C   0  0  0  0  0  0  0  0  0  0  0  0
  152.2169  137.8125  156.8991 C   0  0  0  0  0  0  0  0  0  0  0  0
  151.1665  136.7231  157.1813 C   0  0  0  0  0  0  0  0  0  0  0  0
  147.1777  134.5289  152.5747 N   0  0  0  0  0  0  0  0  0  0  0  0
  145.9483  134.2805  151.9039 C   0  0  0  0  0  0  0  0  0  0  0  0
  145.3937  135.3381  151.1489 C   0  0  0  0  0  0  0  0  0  0  0  0
  144.1838  135.1383  150.4536 C   0  0  0  0  0  0  0  0  0  0  0  0
  143.5687  133.9377  150.5064 N   0  3  0  0  0  0  0  0  0  0  0  0
  144.0657  132.8931  151.2026 C   0  0  0  0  0  0  0  0  0  0  0  0
  145.2730  133.0329  151.9176 C   0  0  0  0  0  0  0  0  0  0  0  0
  149.2495  135.1840  153.4362 H   0  0  0  0  0  0  0  0  0  0  0  0
  149.4013  132.8896  155.3212 H   0  0  0  0  0  0  0  0  0  0  0  0
  150.7663  133.6909  154.5806 H   0  0  0  0  0  0  0  0  0  0  0  0
  148.8988  135.3153  156.3183 H   0  0  0  0  0  0  0  0  0  0  0  0
  150.0909  134.3217  157.1195 H   0  0  0  0  0  0  0  0  0  0  0  0
  150.5421  136.0911  153.8855 H   0  0  0  0  0  0  0  0  0  0  0  0
  149.6115  137.1898  154.8863 H   0  0  0  0  0  0  0  0  0  0  0  0
  152.6248  137.3680  154.3319 H   0  0  0  0  0  0  0  0  0  0  0  0
  151.4016  138.4118  153.6683 H   0  0  0  0  0  0  0  0  0  0  0  0
  152.3357  140.5550  157.7078 H   0  0  0  0  0  0  0  0  0  0  0  0
  149.6417  139.3968  157.9160 H   0  0  0  0  0  0  0  0  0  0  0  0
  150.5321  140.2830  159.1968 H   0  0  0  0  0  0  0  0  0  0  0  0
  148.7396  141.4506  157.0143 H   0  0  0  0  0  0  0  0  0  0  0  0
  149.1683  142.1944  158.6034 H   0  0  0  0  0  0  0  0  0  0  0  0
  151.3926  142.7574  157.8017 H   0  0  0  0  0  0  0  0  0  0  0  0
  150.7270  142.5060  156.1472 H   0  0  0  0  0  0  0  0  0  0  0  0
  153.1698  137.3486  156.6405 H   0  0  0  0  0  0  0  0  0  0  0  0
  152.4166  138.3846  157.8037 H   0  0  0  0  0  0  0  0  0  0  0  0
  150.2388  137.1864  157.5211 H   0  0  0  0  0  0  0  0  0  0  0  0
  151.5216  136.0920  157.9949 H   0  0  0  0  0  0  0  0  0  0  0  0
  147.6731  135.3555  152.2733 H   0  0  0  0  0  0  0  0  0  0  0  0
  145.8860  136.2989  151.1037 H   0  0  0  0  0  0  0  0  0  0  0  0
  143.6943  135.8968  149.8600 H   0  0  0  0  0  0  0  0  0  0  0  0
  143.4898  131.9798  151.1627 H   0  0  0  0  0  0  0  0  0  0  0  0
  145.6586  132.1768  152.4492 H   0  0  0  0  0  0  0  0  0  0  0  0
  151.7583  135.4220  155.7521 H   0  0  0  0  0  0  0  0  0  0  0  0
  142.6941  133.8131  149.9956 H   0  0  0  0  0  0  0  0  0  0  0  0
  1  2  2  0  0  0  0
  2  3  1  0  0  0  0
  2 18  1  0  0  0  0
  3  4  1  0  0  0  0
  3 25  1  0  0  0  0
  4  5  1  0  0  0  0
  4 26  1  0  0  0  0
  4 27  1  0  0  0  0
  5  6  1  0  0  0  0
  5 28  1  0  0  0  0
  5 29  1  0  0  0  0
  6 17  1  0  0  0  0
  6  7  1  0  0  0  0
  6 50  1  0  0  0  0
  7  8  1  0  0  0  0
  7 30  1  0  0  0  0
  7 31  1  0  0  0  0
  8  9  1  0  0  0  0
  8 32  1  0  0  0  0
  8 33  1  0  0  0  0
  9 10  1  0  0  0  0
  9 16  1  0  0  0  0
 10 11  2  0  0  0  0
 10 12  1  0  0  0  0
 12 15  1  0  0  0  0
 12 13  1  0  0  0  0
 12 34  1  0  0  0  0
 13 14  1  0  0  0  0
 13 35  1  0  0  0  0
 13 36  1  0  0  0  0
 14 15  1  0  0  0  0
 14 37  1  0  0  0  0
 14 38  1  0  0  0  0
 15 39  1  0  0  0  0
 15 40  1  0  0  0  0
 16 17  1  0  0  0  0
 16 41  1  0  0  0  0
 16 42  1  0  0  0  0
 17 43  1  0  0  0  0
 17 44  1  0  0  0  0
 18 19  1  0  0  0  0
 18 45  1  0  0  0  0
 19 24  1  0  0  0  0
 19 20  2  0  0  0  0
 20 21  1  0  0  0  0
 20 46  1  0  0  0  0
 21 22  2  0  0  0  0
 21 47  1  0  0  0  0
 22 23  1  0  0  0  0
 22 51  1  0  0  0  0
 23 24  2  0  0  0  0
 23 48  1  0  0  0  0
 24 49  1  0  0  0  0
M  CHG  1   6   1
M  CHG  1  22   1
M  END
> <s_m_source_file>
AV-unprocessed.smi

> <i_m_source_file_index>
769

> <i_lp_mmshare_version>
43012

> <i_f3d_flags>
0

> <s_epik_input>
W2NIXTFbY0hdbltjSF1bY0hdYzFbTkhdQyg9TylbTkhdW0NIMl1bQ0gyXU4yW0NIMl1bQ0gyXU4oW0NIMl1bQ0gyXTIpQyg9TylbQ0hdM1tDSDJdW0NIMl1bQ0gyXTM=

> <s_epik_cmdline>
J2VwaWtfcHl0aG9uJywgJy1waCcsICc3LjAnLCAnLXRuJywgJzgnLCAnLW1hJywgJzIwMCcsICctbWV0YWxfYmluZGluZycsICctaW1hZScsICc8aW5maWxlLm1hZT4nLCAnLW9tYWUnLCAnPG91dGZpbGUubWFlPic=

> <r_epik_Ionization_Penalty>
1.74797

> <r_epik_Ionization_Penalty_Charging>
1.74795

> <r_epik_Ionization_Penalty_Neutral>
1.97893e-05

> <r_epik_State_Penalty>
1.75255

> <r_epik_Charging_Adjusted_Penalty>
3.5005

> <i_epik_Tot_Q>
2

> <i_epik_Tot_abs_Q>
2

> <r_epik_Metal_State_Penalty>
1.84999

> <b_epik_Metal_Only>
0

> <s_lp_Force_Field>
OPLS_2005

> <r_lp_Energy>
63.8018

> <b_lp_Chiralities_Consistent>
1

> <s_lp_Variant>
AV-unprocessed.smi:769-4

> <Gold.Version>
5.8.1

> <Gold.Id.Protein>
6NUR|6NUR_protein|mol2

> <Gold.PLP.Fitness>
51.8425

> <Gold.PLP.PLP>
-37.8609

> <Gold.PLP.part.hbond>
-3.7934

> <Gold.PLP.part.metal>
0.0000

> <Gold.PLP.part.buried>
-5.5387

> <Gold.PLP.part.nonpolar>
-30.2243

> <Gold.PLP.part.repulsive>
0.2664

> <Gold.PLP.ligand.clash>
0.0000

> <Gold.PLP.ligand.torsion>
0.4884

> <Gold.PLP.Chemscore.Hbond>
4.8360

> <Gold.PLP.Chemscore.CHOScore>
0.0000

> <Gold.PLP.Chemscore.Metal>
0.0000

> <Gold.Chemscore.Hbonds>
donor molecule, donor type, donor heavy atom, donor atom, acceptor molecule, acceptor atom, score
      L1  H     3    25       P1  7948  0.78
      L1  H    18    45       P1  7948  1.00
      L1  H    22    51       P1 10186  1.98
      P1  H  7989  7998       L1    11  0.94

> <Gold.PLP.Chemscore.Internal.Correction>
0.4504

> <Gold.Rescore>
     Score         DG    S(hbond)    S(metal)    S(lipo)     H(rot)  DE(clash)    DE(int)     intcor
     18.38     -20.97       3.27        0.00      77.69       1.76       0.01       2.58       ----

> <Gold.Chemscore.Fitness>
18.3772

> <Gold.Chemscore.DG>
-20.9684

> <Gold.Chemscore.ZeroCoef>
-5.4800

> <Gold.Chemscore.Hbond>
3.2656

> <Gold.Chemscore.Metal>
0.0000

> <Gold.Chemscore.Lipo>
77.6942

> <Gold.Chemscore.Internal_Hbond>
0.0000

> <Gold.Chemscore.DEClash>
0.0075

> <Gold.Chemscore.DEInternal>
2.5837

> <Gold.Chemscore.Rot>
1.7614

> <Gold.Chemscore.Internal.Correction>
   9.000000E+99

> <Gold.Chemscore.Hbonds>
donor molecule, donor type, donor heavy atom, donor atom, acceptor molecule, acceptor atom, score
      L1  H     3    25       P1  7948  0.15
      L1  H    18    45       P1  7948  0.95
      L1  H    22    51       P1 10186  0.93
      P1  H  7989  7998       L1    11  0.86

> <Gold.Chemscore.Hbond.Weighted>
-10.9073

> <Gold.Chemscore.Metal.Weighted>
-0.0000

> <Gold.Chemscore.Lipo.Weighted>
-9.0902

> <Gold.Chemscore.Internal_Hbond.Weighted>
0.0000

> <Gold.Chemscore.DEClash.Weighted>
0.0075

> <Gold.Chemscore.DEInternal.Weighted>
2.5837

> <Gold.Chemscore.Rot.Weighted>
4.5091

> <Gold.Chemscore.Internal.Correction.Weighted>
   9.000000E+99

> <Gold.Protein.RotatedTorsions>
[ 6907 6896 6895 6894 ] final -151.10 input  -60.11 | X-H torsion
[ 7974 7965 7964 7962 ] final  -49.00 input  175.53 | X-H torsion
[ 8008 7997 7996 7995 ] final  127.72 input   59.86 | X-H torsion
[ 10167 10162 10161 10158 ] final  -83.74 input  -65.29 | X-H torsion
[ 10718 10713 10712 10709 ] final -142.13 input   66.30 | X-H torsion
[ 10763 10752 10751 10750 ] final  -26.03 input  -60.55 | X-H torsion
[ 11005 11000 10999 10996 ] final  120.48 input  -57.11 | X-H torsion

> <Gold.Protein.ActiveResidues>
 VAL166  LYS551  ARG553  GLY616  TRP617  ASP618  TYR619  PRO620  LYS621  CYS622 
 ASP623  PHE694  ASN695  SER759  ASP760  ASP761  ALA762  ILE779  LEU786  VAL792 
 PHE793  MET794  SER795  GLU796  ALA797  LYS798  CYS799  TRP800  GLU811  SER814 

> <Gold.Protein.RotatedAtoms>
  151.2082  133.4571  159.2597 H   0  0  0  0  0  0  0  0  0  0  0  0  # atno 6907 bound_to 6896
  151.1002  134.9968  159.8455 H   0  0  0  0  0  0  0  0  0  0  0  0  # atno 6908 bound_to 6896
  152.5442  134.2010  159.8765 H   0  0  0  0  0  0  0  0  0  0  0  0  # atno 6909 bound_to 6896
  145.9452  140.7624  142.9532 H   0  0  0  0  0  0  0  0  0  0  0  0  # atno 7974 bound_to 7965
  156.2898  140.2662  156.2319 H   0  0  0  0  0  0  0  0  0  0  0  0  # atno 8008 bound_to 7997
  155.0063  140.0387  157.2399 H   0  0  0  0  0  0  0  0  0  0  0  0  # atno 8009 bound_to 7997
  154.7557  140.2751  155.6260 H   0  0  0  0  0  0  0  0  0  0  0  0  # atno 8010 bound_to 7997
  140.4198  143.2589  151.8905 H   0  0  0  0  0  0  0  0  0  0  0  0  # atno 10167 bound_to 10162
  156.3422  130.7643  151.1782 H   0  0  0  0  0  0  0  0  0  0  0  0  # atno 10718 bound_to 10713
  153.7093  135.6951  153.5041 H   0  0  0  0  0  0  0  0  0  0  0  0  # atno 10763 bound_to 10752
  153.2284  135.4346  155.0567 H   0  0  0  0  0  0  0  0  0  0  0  0  # atno 10764 bound_to 10752
  154.8320  135.3478  154.6631 H   0  0  0  0  0  0  0  0  0  0  0  0  # atno 10765 bound_to 10752
  139.9187  134.9635  156.7813 H   0  0  0  0  0  0  0  0  0  0  0  0  # atno 11005 bound_to 11000
  144.6786  140.2346  143.7351 LP  0  0  0  0  0  0  0  0  0  0  0  0  # atno 17320 bound_to 7965
  145.8245  139.2058  143.1918 LP  0  0  0  0  0  0  0  0  0  0  0  0  # atno 17321 bound_to 7965
  139.4782  144.5449  151.8473 LP  0  0  0  0  0  0  0  0  0  0  0  0  # atno 17342 bound_to 10162
  140.4546  144.1807  150.5900 LP  0  0  0  0  0  0  0  0  0  0  0  0  # atno 17343 bound_to 10162
  157.7448  131.0451  150.4827 LP  0  0  0  0  0  0  0  0  0  0  0  0  # atno 17370 bound_to 10713
  156.5009  130.4117  149.6354 LP  0  0  0  0  0  0  0  0  0  0  0  0  # atno 17371 bound_to 10713
  140.6542  133.9704  155.7770 LP  0  0  0  0  0  0  0  0  0  0  0  0  # atno 17394 bound_to 11000
  141.0688  134.0237  157.3556 LP  0  0  0  0  0  0  0  0  0  0  0  0  # atno 17395 bound_to 11000

$$$$
