AV-unprocessed.smi:678|AV-procd|sdf|3318|dock8
  -GOLD-   22720 0283D 1   1.00000     0.00000
 Structure written by MMmdl.
 50 51  0  0  0  0  0  0  0  0  1 V2000
  153.7465  140.8467  160.5021 C   0  0  0  0  0  0  0  0  0  0  0  0
  152.8935  141.6720  159.5544 C   0  0  0  0  0  0  0  0  0  0  0  0
  152.5405  142.9425  159.8478 C   0  0  0  0  0  0  0  0  0  0  0  0
  151.7306  143.7195  158.9412 C   0  0  0  0  0  0  0  0  0  0  0  0
  151.3307  143.1450  157.7980 C   0  0  0  0  0  0  0  0  0  0  0  0
  151.6807  141.8219  157.4705 N   0  0  0  0  0  0  0  0  0  0  0  0
  151.1857  141.2986  156.1859 C   0  0  0  0  0  0  0  0  0  0  0  0
  149.6597  141.3865  156.0450 C   0  0  0  0  0  0  0  0  0  0  0  0
  148.9382  141.4564  157.0409 O   0  0  0  0  0  0  0  0  0  0  0  0
  149.1820  141.3529  154.7914 N   0  0  0  0  0  0  0  0  0  0  0  0
  147.7710  141.4093  154.4203 C   0  0  0  0  0  0  0  0  0  0  0  0
  146.9829  142.4115  155.2826 C   0  0  1  0  0  0  0  0  0  0  0  0
  145.9513  143.2377  154.4831 C   0  0  0  0  0  0  0  0  0  0  0  0
  145.1596  144.1139  155.3433 N   0  0  0  0  0  0  0  0  0  0  0  0
  144.1619  144.8868  154.6011 C   0  0  0  0  0  0  0  0  0  0  0  0
  143.2811  145.8377  155.4409 C   0  0  0  0  0  0  0  0  0  0  0  0
  142.3224  146.6563  154.5609 C   0  0  0  0  0  0  0  0  0  0  0  0
  144.1590  146.7686  156.2898 C   0  0  0  0  0  0  0  0  0  0  0  0
  144.5267  143.3109  156.3826 C   0  0  0  0  0  0  0  0  0  0  0  0
  145.5541  142.4930  157.1811 C   0  0  0  0  0  0  0  0  0  0  0  0
  146.3002  141.6704  156.2907 O   0  0  0  0  0  0  0  0  0  0  0  0
  152.4548  141.0472  158.2923 C   0  0  0  0  0  0  0  0  0  0  0  0
  152.7613  139.8930  157.9871 O   0  0  0  0  0  0  0  0  0  0  0  0
  153.9908  141.4046  161.4067 H   0  0  0  0  0  0  0  0  0  0  0  0
  154.6815  140.5589  160.0206 H   0  0  0  0  0  0  0  0  0  0  0  0
  153.2190  139.9396  160.7991 H   0  0  0  0  0  0  0  0  0  0  0  0
  152.8671  143.3919  160.7742 H   0  0  0  0  0  0  0  0  0  0  0  0
  151.4571  144.7377  159.1757 H   0  0  0  0  0  0  0  0  0  0  0  0
  150.7294  143.6592  157.0621 H   0  0  0  0  0  0  0  0  0  0  0  0
  151.6605  141.8268  155.3567 H   0  0  0  0  0  0  0  0  0  0  0  0
  151.4767  140.2548  156.0606 H   0  0  0  0  0  0  0  0  0  0  0  0
  149.8470  141.2859  154.0345 H   0  0  0  0  0  0  0  0  0  0  0  0
  147.6497  141.6405  153.3607 H   0  0  0  0  0  0  0  0  0  0  0  0
  147.3575  140.4102  154.5601 H   0  0  0  0  0  0  0  0  0  0  0  0
  147.6890  143.0872  155.7692 H   0  0  0  0  0  0  0  0  0  0  0  0
  146.4825  143.8316  153.7413 H   0  0  0  0  0  0  0  0  0  0  0  0
  145.2921  142.5645  153.9328 H   0  0  0  0  0  0  0  0  0  0  0  0
  144.6633  145.4602  153.8198 H   0  0  0  0  0  0  0  0  0  0  0  0
  143.4986  144.1957  154.0789 H   0  0  0  0  0  0  0  0  0  0  0  0
  142.6835  145.2528  156.1396 H   0  0  0  0  0  0  0  0  0  0  0  0
  142.8685  147.2631  153.8380 H   0  0  0  0  0  0  0  0  0  0  0  0
  141.7110  147.3273  155.1648 H   0  0  0  0  0  0  0  0  0  0  0  0
  141.6425  146.0089  154.0066 H   0  0  0  0  0  0  0  0  0  0  0  0
  144.7891  147.4004  155.6630 H   0  0  0  0  0  0  0  0  0  0  0  0
  144.8125  146.1980  156.9504 H   0  0  0  0  0  0  0  0  0  0  0  0
  143.5505  147.4220  156.9159 H   0  0  0  0  0  0  0  0  0  0  0  0
  143.9743  143.9574  157.0654 H   0  0  0  0  0  0  0  0  0  0  0  0
  143.7970  142.6342  155.9348 H   0  0  0  0  0  0  0  0  0  0  0  0
  146.2275  143.1498  157.7339 H   0  0  0  0  0  0  0  0  0  0  0  0
  145.0499  141.8612  157.9123 H   0  0  0  0  0  0  0  0  0  0  0  0
  1  2  1  0  0  0  0
  1 24  1  0  0  0  0
  1 25  1  0  0  0  0
  1 26  1  0  0  0  0
  2 22  1  0  0  0  0
  2  3  2  0  0  0  0
  3  4  1  0  0  0  0
  3 27  1  0  0  0  0
  4  5  2  0  0  0  0
  4 28  1  0  0  0  0
  5  6  1  0  0  0  0
  5 29  1  0  0  0  0
  6  7  1  0  0  0  0
  6 22  1  0  0  0  0
  7  8  1  0  0  0  0
  7 30  1  0  0  0  0
  7 31  1  0  0  0  0
  8  9  2  0  0  0  0
  8 10  1  0  0  0  0
 10 11  1  0  0  0  0
 10 32  1  0  0  0  0
 11 12  1  0  0  0  0
 11 33  1  0  0  0  0
 11 34  1  0  0  0  0
 12 21  1  0  0  0  0
 12 13  1  0  0  0  0
 12 35  1  0  0  0  0
 13 14  1  0  0  0  0
 13 36  1  0  0  0  0
 13 37  1  0  0  0  0
 14 15  1  0  0  0  0
 14 19  1  0  0  0  0
 15 16  1  0  0  0  0
 15 38  1  0  0  0  0
 15 39  1  0  0  0  0
 16 17  1  0  0  0  0
 16 18  1  0  0  0  0
 16 40  1  0  0  0  0
 17 41  1  0  0  0  0
 17 42  1  0  0  0  0
 17 43  1  0  0  0  0
 18 44  1  0  0  0  0
 18 45  1  0  0  0  0
 18 46  1  0  0  0  0
 19 20  1  0  0  0  0
 19 47  1  0  0  0  0
 19 48  1  0  0  0  0
 20 21  1  0  0  0  0
 20 49  1  0  0  0  0
 20 50  1  0  0  0  0
 22 23  2  0  0  0  0
M  END
> <s_m_source_file>
AV-unprocessed.smi

> <i_m_source_file_index>
678

> <i_lp_mmshare_version>
43012

> <i_f3d_flags>
0

> <s_epik_input>
W0NIM11jMVtjSF1bY0hdW2NIXW4oYzE9TylbQ0gyXUMoPU8pW05IXVtDSDJdW0NAQEhdMltDSDJdTihbQ0gyXVtDSDJdTzIpW0NIMl1bQ0hdKFtDSDNdKVtDSDNd

> <s_epik_cmdline>
J2VwaWtfcHl0aG9uJywgJy1waCcsICc3LjAnLCAnLXRuJywgJzgnLCAnLW1hJywgJzIwMCcsICctbWV0YWxfYmluZGluZycsICctaW1hZScsICc8aW5maWxlLm1hZT4nLCAnLW9tYWUnLCAnPG91dGZpbGUubWFlPic=

> <r_lp_tautomer_probability>
1

> <r_epik_Ionization_Penalty>
1.11669

> <r_epik_Ionization_Penalty_Charging>
7.32459e-07

> <r_epik_Ionization_Penalty_Neutral>
1.11669

> <r_epik_State_Penalty>
1.17516

> <r_epik_Charging_Adjusted_Penalty>
1.17516

> <i_epik_Tot_Q>
0

> <i_epik_Tot_abs_Q>
0

> <r_epik_Metal_State_Penalty>
1.17513

> <b_epik_Metal_Only>
0

> <s_lp_Force_Field>
OPLS_2005

> <r_lp_Energy>
33.1266

> <b_lp_Chiralities_Consistent>
1

> <s_lp_Variant>
AV-unprocessed.smi:678-6

> <Gold.Version>
5.8.1

> <Gold.Id.Protein>
6NUR|6NUR_protein|mol2

> <Gold.PLP.Fitness>
46.7091

> <Gold.PLP.PLP>
-42.7235

> <Gold.PLP.part.hbond>
-1.0000

> <Gold.PLP.part.metal>
0.0000

> <Gold.PLP.part.buried>
-5.7848

> <Gold.PLP.part.nonpolar>
-35.6350

> <Gold.PLP.part.repulsive>
0.5245

> <Gold.PLP.ligand.clash>
0.0000

> <Gold.PLP.ligand.torsion>
1.0462

> <Gold.PLP.Chemscore.Hbond>
1.0000

> <Gold.PLP.Chemscore.CHOScore>
1.0000

> <Gold.PLP.Chemscore.Metal>
0.0000

> <Gold.Chemscore.Hbonds>
donor molecule, donor type, donor heavy atom, donor atom, acceptor molecule, acceptor atom, score
      P1  H  7997  8009       L1    23  0.96
      L1  C     5    29       P1  8028  1.00

> <Gold.PLP.Chemscore.Internal.Correction>
0.0779

> <Gold.Rescore>
     Score         DG    S(hbond)    S(metal)    S(lipo)     H(rot)  DE(clash)    DE(int)     intcor
     12.14     -16.35       0.77        0.00     110.73       1.82       0.55       3.65       ----

> <Gold.Chemscore.Fitness>
12.1416

> <Gold.Chemscore.DG>
-16.3457

> <Gold.Chemscore.ZeroCoef>
-5.4800

> <Gold.Chemscore.Hbond>
0.7724

> <Gold.Chemscore.Metal>
0.0000

> <Gold.Chemscore.Lipo>
110.7349

> <Gold.Chemscore.Internal_Hbond>
0.0000

> <Gold.Chemscore.DEClash>
0.5507

> <Gold.Chemscore.DEInternal>
3.6534

> <Gold.Chemscore.Rot>
1.8243

> <Gold.Chemscore.Internal.Correction>
   9.000000E+99

> <Gold.Chemscore.Hbonds>
donor molecule, donor type, donor heavy atom, donor atom, acceptor molecule, acceptor atom, score
      P1  H  7997  8009       L1    23  0.45

> <Gold.Chemscore.Hbond.Weighted>
-2.5800

> <Gold.Chemscore.Metal.Weighted>
-0.0000

> <Gold.Chemscore.Lipo.Weighted>
-12.9560

> <Gold.Chemscore.Internal_Hbond.Weighted>
0.0000

> <Gold.Chemscore.DEClash.Weighted>
0.5507

> <Gold.Chemscore.DEInternal.Weighted>
3.6534

> <Gold.Chemscore.Rot.Weighted>
4.6703

> <Gold.Chemscore.Internal.Correction.Weighted>
   9.000000E+99

> <Gold.Protein.RotatedTorsions>
[ 6907 6896 6895 6894 ] final  -50.66 input  -60.11 | X-H torsion
[ 7974 7965 7964 7962 ] final  -53.41 input  175.53 | X-H torsion
[ 8008 7997 7996 7995 ] final  165.20 input   59.86 | X-H torsion
[ 10167 10162 10161 10158 ] final   24.82 input  -65.29 | X-H torsion
[ 10718 10713 10712 10709 ] final   23.25 input   66.30 | X-H torsion
[ 10763 10752 10751 10750 ] final  108.84 input  -60.55 | X-H torsion
[ 11005 11000 10999 10996 ] final   61.96 input  -57.11 | X-H torsion

> <Gold.Protein.ActiveResidues>
 VAL166  LYS551  ARG553  GLY616  TRP617  ASP618  TYR619  PRO620  LYS621  CYS622 
 ASP623  PHE694  ASN695  SER759  ASP760  ASP761  ALA762  ILE779  LEU786  VAL792 
 PHE793  MET794  SER795  GLU796  ALA797  LYS798  CYS799  TRP800  GLU811  SER814 

> <Gold.Protein.RotatedAtoms>
  150.8685  134.8054  159.7136 H   0  0  0  0  0  0  0  0  0  0  0  0  # atno 6907 bound_to 6896
  152.4698  134.4984  159.9727 H   0  0  0  0  0  0  0  0  0  0  0  0  # atno 6908 bound_to 6896
  151.5077  133.3453  159.2915 H   0  0  0  0  0  0  0  0  0  0  0  0  # atno 6909 bound_to 6896
  145.8972  140.8023  142.9762 H   0  0  0  0  0  0  0  0  0  0  0  0  # atno 7974 bound_to 7965
  156.1820  140.1676  156.8257 H   0  0  0  0  0  0  0  0  0  0  0  0  # atno 8008 bound_to 7997
  154.5370  140.0744  156.8478 H   0  0  0  0  0  0  0  0  0  0  0  0  # atno 8009 bound_to 7997
  155.3290  140.3378  155.4242 H   0  0  0  0  0  0  0  0  0  0  0  0  # atno 8010 bound_to 7997
  140.5156  144.0087  150.6393 H   0  0  0  0  0  0  0  0  0  0  0  0  # atno 10167 bound_to 10162
  157.1636  130.6728  149.6052 H   0  0  0  0  0  0  0  0  0  0  0  0  # atno 10718 bound_to 10713
  153.4263  135.3799  155.2142 H   0  0  0  0  0  0  0  0  0  0  0  0  # atno 10763 bound_to 10752
  154.8747  135.3829  154.4323 H   0  0  0  0  0  0  0  0  0  0  0  0  # atno 10764 bound_to 10752
  153.4849  135.7088  153.5979 H   0  0  0  0  0  0  0  0  0  0  0  0  # atno 10765 bound_to 10752
  140.0125  134.6275  155.9760 H   0  0  0  0  0  0  0  0  0  0  0  0  # atno 11005 bound_to 11000
  144.6733  140.1620  143.7421 LP  0  0  0  0  0  0  0  0  0  0  0  0  # atno 17320 bound_to 7965
  145.8836  139.2336  143.1591 LP  0  0  0  0  0  0  0  0  0  0  0  0  # atno 17321 bound_to 7965
  140.3422  143.3013  152.0576 LP  0  0  0  0  0  0  0  0  0  0  0  0  # atno 17342 bound_to 10162
  139.4908  144.6434  151.6829 LP  0  0  0  0  0  0  0  0  0  0  0  0  # atno 17343 bound_to 10162
  155.9750  130.4703  150.6426 LP  0  0  0  0  0  0  0  0  0  0  0  0  # atno 17370 bound_to 10713
  157.4109  131.0823  151.1221 LP  0  0  0  0  0  0  0  0  0  0  0  0  # atno 17371 bound_to 10713
  141.1720  133.6538  156.4688 LP  0  0  0  0  0  0  0  0  0  0  0  0  # atno 17394 bound_to 11000
  140.4530  134.6911  157.5049 LP  0  0  0  0  0  0  0  0  0  0  0  0  # atno 17395 bound_to 11000

$$$$
