AV-unprocessed.smi:1048|AV-procd|sdf|4605|dock2
  -GOLD-   22720 3103D 1   1.00000     0.00000
 Structure written by MMmdl.
 46 47  0  0  0  0  0  0  0  0  2 V2000
  145.0554  136.0818  151.3425 C   0  0  0  0  0  0  0  0  0  0  0  0
  145.7923  136.9936  152.3338 C   0  0  2  0  0  0  0  0  0  0  0  0
  144.8779  137.4356  153.4890 C   0  0  0  0  0  0  0  0  0  0  0  0
  145.6132  138.3785  154.4561 C   0  0  0  0  0  0  0  0  0  0  0  0
  146.1502  139.5638  153.7406 N   0  3  1  0  0  0  0  0  0  0  0  0
  146.7325  140.5710  154.6649 C   0  0  0  0  0  0  0  0  0  0  0  0
  147.7359  141.5046  153.9575 C   0  0  1  0  0  0  0  0  0  0  0  0
  147.3163  142.8335  154.2015 O   0  0  0  0  0  0  0  0  0  0  0  0
  149.1648  141.3275  154.5095 C   0  0  0  0  0  0  0  0  0  0  0  0
  149.5089  142.3706  155.4703 N   0  0  0  0  0  0  0  0  0  0  0  0
  150.2386  142.1841  156.5790 C   0  0  0  0  0  0  0  0  0  0  0  0
  150.7082  141.0941  156.9048 O   0  0  0  0  0  0  0  0  0  0  0  0
  150.3626  143.3268  157.2756 N   0  0  0  0  0  0  0  0  0  0  0  0
  151.0471  143.5486  158.5014 C   0  0  0  0  0  0  0  0  0  0  0  0
  151.8447  142.5029  159.0101 C   0  0  0  0  0  0  0  0  0  0  0  0
  152.5219  142.6863  160.2305 C   0  0  0  0  0  0  0  0  0  0  0  0
  152.3672  143.9133  160.9037 C   0  0  0  0  0  0  0  0  0  0  0  0
  151.5969  144.9195  160.4399 N   0  0  0  0  0  0  0  0  0  0  0  0
  150.9514  144.7373  159.2676 C   0  0  0  0  0  0  0  0  0  0  0  0
  147.0733  139.1655  152.6449 C   0  0  0  0  0  0  0  0  0  0  0  0
  146.3707  138.2381  151.6391 C   0  0  0  0  0  0  0  0  0  0  0  0
  144.2086  136.5944  150.8852 H   0  0  0  0  0  0  0  0  0  0  0  0
  144.6741  135.1887  151.8384 H   0  0  0  0  0  0  0  0  0  0  0  0
  145.7189  135.7557  150.5409 H   0  0  0  0  0  0  0  0  0  0  0  0
  146.6215  136.4234  152.7557 H   0  0  0  0  0  0  0  0  0  0  0  0
  143.9960  137.9400  153.0915 H   0  0  0  0  0  0  0  0  0  0  0  0
  144.5147  136.5631  154.0332 H   0  0  0  0  0  0  0  0  0  0  0  0
  144.9198  138.6997  155.2343 H   0  0  0  0  0  0  0  0  0  0  0  0
  146.4287  137.8513  154.9541 H   0  0  0  0  0  0  0  0  0  0  0  0
  145.9389  141.1812  155.0996 H   0  0  0  0  0  0  0  0  0  0  0  0
  147.2069  140.0555  155.5015 H   0  0  0  0  0  0  0  0  0  0  0  0
  147.7351  141.3193  152.8835 H   0  0  0  0  0  0  0  0  0  0  0  0
  147.9962  143.2853  154.6787 H   0  0  0  0  0  0  0  0  0  0  0  0
  149.3142  140.3297  154.9263 H   0  0  0  0  0  0  0  0  0  0  0  0
  149.8822  141.4224  153.6937 H   0  0  0  0  0  0  0  0  0  0  0  0
  149.1622  143.2996  155.2804 H   0  0  0  0  0  0  0  0  0  0  0  0
  149.8589  144.1230  156.9135 H   0  0  0  0  0  0  0  0  0  0  0  0
  151.9422  141.5715  158.4713 H   0  0  0  0  0  0  0  0  0  0  0  0
  153.1443  141.9051  160.6409 H   0  0  0  0  0  0  0  0  0  0  0  0
  152.8707  144.0890  161.8428 H   0  0  0  0  0  0  0  0  0  0  0  0
  150.3324  145.5665  158.9642 H   0  0  0  0  0  0  0  0  0  0  0  0
  147.4399  140.0450  152.1171 H   0  0  0  0  0  0  0  0  0  0  0  0
  147.9470  138.6660  153.0669 H   0  0  0  0  0  0  0  0  0  0  0  0
  147.0766  137.9376  150.8640 H   0  0  0  0  0  0  0  0  0  0  0  0
  145.5735  138.7863  151.1346 H   0  0  0  0  0  0  0  0  0  0  0  0
  145.3540  140.0112  153.3079 H   0  0  0  0  0  0  0  0  0  0  0  0
  1  2  1  0  0  0  0
  1 22  1  0  0  0  0
  1 23  1  0  0  0  0
  1 24  1  0  0  0  0
  2 21  1  0  0  0  0
  2  3  1  0  0  0  0
  2 25  1  0  0  0  0
  3  4  1  0  0  0  0
  3 26  1  0  0  0  0
  3 27  1  0  0  0  0
  4  5  1  0  0  0  0
  4 28  1  0  0  0  0
  4 29  1  0  0  0  0
  5  6  1  0  0  0  0
  5 20  1  0  0  0  0
  5 46  1  0  0  0  0
  6  7  1  0  0  0  0
  6 30  1  0  0  0  0
  6 31  1  0  0  0  0
  7  8  1  0  0  0  0
  7  9  1  0  0  0  0
  7 32  1  0  0  0  0
  8 33  1  0  0  0  0
  9 10  1  0  0  0  0
  9 34  1  0  0  0  0
  9 35  1  0  0  0  0
 10 11  1  0  0  0  0
 10 36  1  0  0  0  0
 11 12  2  0  0  0  0
 11 13  1  0  0  0  0
 13 14  1  0  0  0  0
 13 37  1  0  0  0  0
 14 19  1  0  0  0  0
 14 15  2  0  0  0  0
 15 16  1  0  0  0  0
 15 38  1  0  0  0  0
 16 17  2  0  0  0  0
 16 39  1  0  0  0  0
 17 18  1  0  0  0  0
 17 40  1  0  0  0  0
 18 19  2  0  0  0  0
 19 41  1  0  0  0  0
 20 21  1  0  0  0  0
 20 42  1  0  0  0  0
 20 43  1  0  0  0  0
 21 44  1  0  0  0  0
 21 45  1  0  0  0  0
M  CHG  1   5   1
M  END
> <s_m_source_file>
AV-unprocessed.smi

> <i_m_source_file_index>
1048

> <i_lp_mmshare_version>
43012

> <i_f3d_flags>
0

> <s_epik_input>
W0NIM11bQ0hdMVtDSDJdW0NIMl1OKFtDSDJdW0NIMl0xKVtDSDJdW0NASF0oW09IXSlbQ0gyXVtOSF1DKD1PKVtOSF1jMltjSF1bY0hdW2NIXW5bY0hdMg==

> <s_epik_cmdline>
J2VwaWtfcHl0aG9uJywgJy1waCcsICc3LjAnLCAnLXRuJywgJzgnLCAnLW1hJywgJzIwMCcsICctbWV0YWxfYmluZGluZycsICctaW1hZScsICc8aW5maWxlLm1hZT4nLCAnLW9tYWUnLCAnPG91dGZpbGUubWFlPic=

> <r_lp_tautomer_probability>
1

> <r_epik_Ionization_Penalty>
0.00581049

> <r_epik_Ionization_Penalty_Charging>
0.00147689

> <r_epik_Ionization_Penalty_Neutral>
0.0043336

> <r_epik_State_Penalty>
-0

> <r_epik_Charging_Adjusted_Penalty>
0.00147689

> <i_epik_Tot_Q>
1

> <i_epik_Tot_abs_Q>
1

> <r_epik_Metal_State_Penalty>
-0

> <b_epik_Metal_Only>
0

> <s_lp_Force_Field>
OPLS_2005

> <r_lp_Energy>
22.9407

> <b_lp_Chiralities_Consistent>
1

> <s_lp_Variant>
AV-unprocessed.smi:1048-2

> <Gold.Version>
5.8.1

> <Gold.Id.Protein>
6NUR|6NUR_protein|mol2

> <Gold.PLP.Fitness>
53.5560

> <Gold.PLP.PLP>
-42.0740

> <Gold.PLP.part.hbond>
-5.0201

> <Gold.PLP.part.metal>
0.0000

> <Gold.PLP.part.buried>
-1.5106

> <Gold.PLP.part.nonpolar>
-35.7900

> <Gold.PLP.part.repulsive>
0.3490

> <Gold.PLP.ligand.clash>
0.0000

> <Gold.PLP.ligand.torsion>
1.7790

> <Gold.PLP.Chemscore.Hbond>
4.9920

> <Gold.PLP.Chemscore.CHOScore>
0.0000

> <Gold.PLP.Chemscore.Metal>
0.0000

> <Gold.Chemscore.Hbonds>
donor molecule, donor type, donor heavy atom, donor atom, acceptor molecule, acceptor atom, score
      L1  H     5    46       P1 10175  2.00
      L1  H     8    33       P1  8028  1.00
      L1  H    10    36       P1  8028  0.89
      L1  H    13    37       P1  8028  0.96

> <Gold.PLP.Chemscore.Internal.Correction>
0.0640

> <Gold.Rescore>
     Score         DG    S(hbond)    S(metal)    S(lipo)     H(rot)  DE(clash)    DE(int)     intcor
     21.69     -25.23       3.83        0.00     109.53       2.29       0.27       3.28       ----

> <Gold.Chemscore.Fitness>
21.6893

> <Gold.Chemscore.DG>
-25.2308

> <Gold.Chemscore.ZeroCoef>
-5.4800

> <Gold.Chemscore.Hbond>
3.8291

> <Gold.Chemscore.Metal>
0.0000

> <Gold.Chemscore.Lipo>
109.5315

> <Gold.Chemscore.Internal_Hbond>
0.0000

> <Gold.Chemscore.DEClash>
0.2663

> <Gold.Chemscore.DEInternal>
3.2752

> <Gold.Chemscore.Rot>
2.2865

> <Gold.Chemscore.Internal.Correction>
   9.000000E+99

> <Gold.Chemscore.Hbonds>
donor molecule, donor type, donor heavy atom, donor atom, acceptor molecule, acceptor atom, score
      L1  H     5    46       P1 10175  1.00
      L1  H     8    33       P1  8028  0.87
      L1  H    10    36       P1  8028  0.85
      L1  H    13    37       P1  8028  0.81

> <Gold.Chemscore.Hbond.Weighted>
-12.7892

> <Gold.Chemscore.Metal.Weighted>
-0.0000

> <Gold.Chemscore.Lipo.Weighted>
-12.8152

> <Gold.Chemscore.Internal_Hbond.Weighted>
0.0000

> <Gold.Chemscore.DEClash.Weighted>
0.2663

> <Gold.Chemscore.DEInternal.Weighted>
3.2752

> <Gold.Chemscore.Rot.Weighted>
5.8536

> <Gold.Chemscore.Internal.Correction.Weighted>
   9.000000E+99

> <Gold.Protein.RotatedTorsions>
[ 6907 6896 6895 6894 ] final -116.19 input  -60.11 | X-H torsion
[ 7974 7965 7964 7962 ] final   13.74 input  175.53 | X-H torsion
[ 8008 7997 7996 7995 ] final   51.10 input   59.86 | X-H torsion
[ 10167 10162 10161 10158 ] final   81.14 input  -65.29 | X-H torsion
[ 10718 10713 10712 10709 ] final    2.73 input   66.30 | X-H torsion
[ 10763 10752 10751 10750 ] final   49.47 input  -60.55 | X-H torsion
[ 11005 11000 10999 10996 ] final  -52.84 input  -57.11 | X-H torsion

> <Gold.Protein.ActiveResidues>
 VAL166  LYS551  ARG553  GLY616  TRP617  ASP618  TYR619  PRO620  LYS621  CYS622 
 ASP623  PHE694  ASN695  SER759  ASP760  ASP761  ALA762  ILE779  LEU786  VAL792 
 PHE793  MET794  SER795  GLU796  ALA797  LYS798  CYS799  TRP800  GLU811  SER814 

> <Gold.Protein.RotatedAtoms>
  150.8037  133.8551  159.3215 H   0  0  0  0  0  0  0  0  0  0  0  0  # atno 6907 bound_to 6896
  151.6356  135.1016  160.0140 H   0  0  0  0  0  0  0  0  0  0  0  0  # atno 6908 bound_to 6896
  152.4126  133.6947  159.6446 H   0  0  0  0  0  0  0  0  0  0  0  0  # atno 6909 bound_to 6896
  146.2322  139.9144  142.8519 H   0  0  0  0  0  0  0  0  0  0  0  0  # atno 7974 bound_to 7965
  155.4298  140.3450  155.4279 H   0  0  0  0  0  0  0  0  0  0  0  0  # atno 8008 bound_to 7997
  156.1343  140.1523  156.9049 H   0  0  0  0  0  0  0  0  0  0  0  0  # atno 8009 bound_to 7997
  154.4919  140.0838  156.7594 H   0  0  0  0  0  0  0  0  0  0  0  0  # atno 8010 bound_to 7997
  139.9423  144.6081  150.8240 H   0  0  0  0  0  0  0  0  0  0  0  0  # atno 10167 bound_to 10162
  156.8673  130.5607  149.5659 H   0  0  0  0  0  0  0  0  0  0  0  0  # atno 10718 bound_to 10713
  152.9787  135.5910  154.4095 H   0  0  0  0  0  0  0  0  0  0  0  0  # atno 10763 bound_to 10752
  154.3731  135.2767  155.2256 H   0  0  0  0  0  0  0  0  0  0  0  0  # atno 10764 bound_to 10752
  154.4203  135.6060  153.6060 H   0  0  0  0  0  0  0  0  0  0  0  0  # atno 10765 bound_to 10752
  141.0945  133.6627  156.4084 H   0  0  0  0  0  0  0  0  0  0  0  0  # atno 11005 bound_to 11000
  145.2198  140.9930  143.4052 LP  0  0  0  0  0  0  0  0  0  0  0  0  # atno 17320 bound_to 7965
  144.9620  139.3970  143.6351 LP  0  0  0  0  0  0  0  0  0  0  0  0  # atno 17321 bound_to 7965
  140.7607  143.3158  151.2738 LP  0  0  0  0  0  0  0  0  0  0  0  0  # atno 17342 bound_to 10162
  139.6694  144.0046  152.2744 LP  0  0  0  0  0  0  0  0  0  0  0  0  # atno 17343 bound_to 10162
  156.0745  130.5770  150.9447 LP  0  0  0  0  0  0  0  0  0  0  0  0  # atno 17370 bound_to 10713
  157.6216  131.0929  150.8612 LP  0  0  0  0  0  0  0  0  0  0  0  0  # atno 17371 bound_to 10713
  140.5173  134.6338  157.5305 LP  0  0  0  0  0  0  0  0  0  0  0  0  # atno 17394 bound_to 11000
  139.9779  134.7186  155.9916 LP  0  0  0  0  0  0  0  0  0  0  0  0  # atno 17395 bound_to 11000

$$$$
