AV-unprocessed.smi:1407|AV-procd|sdf|5725|dock4
  -GOLD-   22720 5353D 1   1.00000     0.00000
 Structure written by MMmdl.
 50 51  0  0  0  0  0  0  0  0  2 V2000
  148.3247  136.5509  155.0202 C   0  0  0  0  0  0  0  0  0  0  0  0
  148.8483  135.3250  154.3594 N   0  3  0  0  0  0  0  0  0  0  0  0
  150.2566  135.0863  154.7824 C   0  0  0  0  0  0  0  0  0  0  0  0
  147.9318  134.1199  154.3817 C   0  0  0  0  0  0  0  0  0  0  0  0
  147.9886  133.4949  155.8163 C   0  0  0  0  0  0  0  0  0  0  0  0
  147.4001  134.3541  156.8420 N   0  0  0  0  0  0  0  0  0  0  0  0
  147.9942  134.8033  157.9596 C   0  0  0  0  0  0  0  0  0  0  0  0
  149.1598  134.5382  158.2482 O   0  0  0  0  0  0  0  0  0  0  0  0
  147.1606  135.6652  158.9236 C   0  0  0  0  0  0  0  0  0  0  0  0
  147.1974  135.2245  160.3302 N   0  0  0  0  0  0  0  0  0  0  0  0
  146.5980  133.9832  160.6238 C   0  0  0  0  0  0  0  0  0  0  0  0
  146.5521  133.4945  161.8731 C   0  0  0  0  0  0  0  0  0  0  0  0
  147.1434  134.2760  162.9332 C   0  0  0  0  0  0  0  0  0  0  0  0
  147.7174  135.4654  162.6639 C   0  0  0  0  0  0  0  0  0  0  0  0
  147.7598  136.0084  161.3013 C   0  0  0  0  0  0  0  0  0  0  0  0
  148.2585  137.1053  161.0499 O   0  0  0  0  0  0  0  0  0  0  0  0
  146.4643  134.5812  154.0841 C   0  0  0  0  0  0  0  0  0  0  0  0
  145.5348  133.6804  153.2480 C   0  0  0  0  0  0  0  0  0  0  0  0
  145.4475  132.2063  153.6615 C   0  0  0  0  0  0  0  0  0  0  0  0
  146.5158  131.3471  152.9751 C   0  0  0  0  0  0  0  0  0  0  0  0
  147.9481  131.6003  153.4584 C   0  0  0  0  0  0  0  0  0  0  0  0
  148.4460  133.0609  153.3402 C   0  0  0  0  0  0  0  0  0  0  0  0
  148.0767  136.3695  156.0660 H   0  0  0  0  0  0  0  0  0  0  0  0
  147.4427  136.9475  154.5192 H   0  0  0  0  0  0  0  0  0  0  0  0
  149.0674  137.3492  154.9917 H   0  0  0  0  0  0  0  0  0  0  0  0
  150.3428  134.9534  155.8605 H   0  0  0  0  0  0  0  0  0  0  0  0
  150.8701  135.9476  154.5162 H   0  0  0  0  0  0  0  0  0  0  0  0
  150.7177  134.2272  154.3020 H   0  0  0  0  0  0  0  0  0  0  0  0
  147.5406  132.5037  155.8589 H   0  0  0  0  0  0  0  0  0  0  0  0
  149.0183  133.3113  156.1140 H   0  0  0  0  0  0  0  0  0  0  0  0
  146.4407  134.6311  156.6890 H   0  0  0  0  0  0  0  0  0  0  0  0
  147.5180  136.6936  158.8516 H   0  0  0  0  0  0  0  0  0  0  0  0
  146.1337  135.7002  158.5558 H   0  0  0  0  0  0  0  0  0  0  0  0
  146.1756  133.4652  159.7747 H   0  0  0  0  0  0  0  0  0  0  0  0
  146.0849  132.5429  162.0798 H   0  0  0  0  0  0  0  0  0  0  0  0
  147.1280  133.9039  163.9473 H   0  0  0  0  0  0  0  0  0  0  0  0
  148.1565  136.0351  163.4698 H   0  0  0  0  0  0  0  0  0  0  0  0
  145.9649  134.8143  155.0256 H   0  0  0  0  0  0  0  0  0  0  0  0
  146.4736  135.5266  153.5435 H   0  0  0  0  0  0  0  0  0  0  0  0
  144.5330  134.1076  153.3079 H   0  0  0  0  0  0  0  0  0  0  0  0
  145.8049  133.7505  152.1936 H   0  0  0  0  0  0  0  0  0  0  0  0
  145.4672  132.0910  154.7443 H   0  0  0  0  0  0  0  0  0  0  0  0
  144.4742  131.8272  153.3469 H   0  0  0  0  0  0  0  0  0  0  0  0
  146.2784  130.2953  153.1381 H   0  0  0  0  0  0  0  0  0  0  0  0
  146.4641  131.4951  151.8957 H   0  0  0  0  0  0  0  0  0  0  0  0
  148.0757  131.2059  154.4647 H   0  0  0  0  0  0  0  0  0  0  0  0
  148.6041  130.9804  152.8459 H   0  0  0  0  0  0  0  0  0  0  0  0
  148.2547  133.4046  152.3230 H   0  0  0  0  0  0  0  0  0  0  0  0
  149.5324  133.0044  153.4253 H   0  0  0  0  0  0  0  0  0  0  0  0
  148.9133  135.5701  153.3814 H   0  0  0  0  0  0  0  0  0  0  0  0
  1  2  1  0  0  0  0
  1 23  1  0  0  0  0
  1 24  1  0  0  0  0
  1 25  1  0  0  0  0
  2  3  1  0  0  0  0
  2  4  1  0  0  0  0
  2 50  1  0  0  0  0
  3 26  1  0  0  0  0
  3 27  1  0  0  0  0
  3 28  1  0  0  0  0
  4 22  1  0  0  0  0
  4  5  1  0  0  0  0
  4 17  1  0  0  0  0
  5  6  1  0  0  0  0
  5 29  1  0  0  0  0
  5 30  1  0  0  0  0
  6  7  1  0  0  0  0
  6 31  1  0  0  0  0
  7  8  2  0  0  0  0
  7  9  1  0  0  0  0
  9 10  1  0  0  0  0
  9 32  1  0  0  0  0
  9 33  1  0  0  0  0
 10 15  1  0  0  0  0
 10 11  1  0  0  0  0
 11 12  2  0  0  0  0
 11 34  1  0  0  0  0
 12 13  1  0  0  0  0
 12 35  1  0  0  0  0
 13 14  2  0  0  0  0
 13 36  1  0  0  0  0
 14 15  1  0  0  0  0
 14 37  1  0  0  0  0
 15 16  2  0  0  0  0
 17 18  1  0  0  0  0
 17 38  1  0  0  0  0
 17 39  1  0  0  0  0
 18 19  1  0  0  0  0
 18 40  1  0  0  0  0
 18 41  1  0  0  0  0
 19 20  1  0  0  0  0
 19 42  1  0  0  0  0
 19 43  1  0  0  0  0
 20 21  1  0  0  0  0
 20 44  1  0  0  0  0
 20 45  1  0  0  0  0
 21 22  1  0  0  0  0
 21 46  1  0  0  0  0
 21 47  1  0  0  0  0
 22 48  1  0  0  0  0
 22 49  1  0  0  0  0
M  CHG  1   2   1
M  END
> <s_m_source_file>
AV-unprocessed.smi

> <i_m_source_file_index>
1407

> <i_lp_mmshare_version>
43012

> <i_f3d_flags>
0

> <s_epik_input>
W0NIMl0xW0NIMl1bQ0gyXVtDSDJdW0NIMl1bQ0gyXUMxKE4oW0NIM10pW0NIM10pW0NIMl1bTkhdQyg9TylbQ0gyXW4yW2NIXVtjSF1bY0hdW2NIXWMyPU8=

> <s_epik_cmdline>
J2VwaWtfcHl0aG9uJywgJy1waCcsICc3LjAnLCAnLXRuJywgJzgnLCAnLW1hJywgJzIwMCcsICctbWV0YWxfYmluZGluZycsICctaW1hZScsICc8aW5maWxlLm1hZT4nLCAnLW9tYWUnLCAnPG91dGZpbGUubWFlPic=

> <r_lp_tautomer_probability>
1

> <r_epik_Ionization_Penalty>
0.00225809

> <r_epik_Ionization_Penalty_Charging>
0.00225802

> <r_epik_Ionization_Penalty_Neutral>
7.38919e-08

> <r_epik_State_Penalty>
0.00155497

> <r_epik_Charging_Adjusted_Penalty>
0.00381299

> <i_epik_Tot_Q>
1

> <i_epik_Tot_abs_Q>
1

> <r_epik_Metal_State_Penalty>
-0

> <b_epik_Metal_Only>
0

> <s_lp_Force_Field>
OPLS_2005

> <r_lp_Energy>
50.9808

> <b_lp_Chiralities_Consistent>
1

> <s_lp_Variant>
AV-unprocessed.smi:1407-1

> <Gold.Version>
5.8.1

> <Gold.Id.Protein>
6NUR|6NUR_protein|mol2

> <Gold.PLP.Fitness>
47.9713

> <Gold.PLP.PLP>
-34.8073

> <Gold.PLP.part.hbond>
-4.0000

> <Gold.PLP.part.metal>
0.0000

> <Gold.PLP.part.buried>
-1.4220

> <Gold.PLP.part.nonpolar>
-29.1676

> <Gold.PLP.part.repulsive>
0.0129

> <Gold.PLP.ligand.clash>
0.0008

> <Gold.PLP.ligand.torsion>
0.3969

> <Gold.PLP.Chemscore.Hbond>
4.5840

> <Gold.PLP.Chemscore.CHOScore>
0.0000

> <Gold.PLP.Chemscore.Metal>
0.0000

> <Gold.Chemscore.Hbonds>
donor molecule, donor type, donor heavy atom, donor atom, acceptor molecule, acceptor atom, score
      L1  H     2    50       P1  7948  2.00
      P1  H  6896  6908       L1     8  1.00
      P1  H  6931  6943       L1    16  1.00
      P1  H  6934  6947       L1    16  0.38

> <Gold.PLP.Chemscore.Internal.Correction>
0.2066

> <Gold.Rescore>
     Score         DG    S(hbond)    S(metal)    S(lipo)     H(rot)  DE(clash)    DE(int)     intcor
     21.08     -22.09       3.73        0.00      75.07       1.81       0.34       0.67       ----

> <Gold.Chemscore.Fitness>
21.0800

> <Gold.Chemscore.DG>
-22.0912

> <Gold.Chemscore.ZeroCoef>
-5.4800

> <Gold.Chemscore.Hbond>
3.7343

> <Gold.Chemscore.Metal>
0.0000

> <Gold.Chemscore.Lipo>
75.0738

> <Gold.Chemscore.Internal_Hbond>
0.0000

> <Gold.Chemscore.DEClash>
0.3368

> <Gold.Chemscore.DEInternal>
0.6744

> <Gold.Chemscore.Rot>
1.8145

> <Gold.Chemscore.Internal.Correction>
   9.000000E+99

> <Gold.Chemscore.Hbonds>
donor molecule, donor type, donor heavy atom, donor atom, acceptor molecule, acceptor atom, score
      L1  H     2    50       P1  7948  0.82
      P1  H  6896  6908       L1     8  0.95
      P1  H  6931  6943       L1    16  0.95
      P1  H  6934  6947       L1    16  0.37

> <Gold.Chemscore.Hbond.Weighted>
-12.4727

> <Gold.Chemscore.Metal.Weighted>
-0.0000

> <Gold.Chemscore.Lipo.Weighted>
-8.7836

> <Gold.Chemscore.Internal_Hbond.Weighted>
0.0000

> <Gold.Chemscore.DEClash.Weighted>
0.3368

> <Gold.Chemscore.DEInternal.Weighted>
0.6744

> <Gold.Chemscore.Rot.Weighted>
4.6451

> <Gold.Chemscore.Internal.Correction.Weighted>
   9.000000E+99

> <Gold.Protein.RotatedTorsions>
[ 6907 6896 6895 6894 ] final  166.72 input  -60.11 | X-H torsion
[ 7974 7965 7964 7962 ] final    5.95 input  175.53 | X-H torsion
[ 8008 7997 7996 7995 ] final  152.59 input   59.86 | X-H torsion
[ 10167 10162 10161 10158 ] final   37.67 input  -65.29 | X-H torsion
[ 10718 10713 10712 10709 ] final -162.72 input   66.30 | X-H torsion
[ 10763 10752 10751 10750 ] final  -47.40 input  -60.55 | X-H torsion
[ 11005 11000 10999 10996 ] final  -84.56 input  -57.11 | X-H torsion

> <Gold.Protein.ActiveResidues>
 VAL166  LYS551  ARG553  GLY616  TRP617  ASP618  TYR619  PRO620  LYS621  CYS622 
 ASP623  PHE694  ASN695  SER759  ASP760  ASP761  ALA762  ILE779  LEU786  VAL792 
 PHE793  MET794  SER795  GLU796  ALA797  LYS798  CYS799  TRP800  GLU811  SER814 

> <Gold.Protein.RotatedAtoms>
  151.8746  133.3482  159.3745 H   0  0  0  0  0  0  0  0  0  0  0  0  # atno 6907 bound_to 6896
  150.7143  134.5079  159.5602 H   0  0  0  0  0  0  0  0  0  0  0  0  # atno 6908 bound_to 6896
  152.2619  134.8026  160.0480 H   0  0  0  0  0  0  0  0  0  0  0  0  # atno 6909 bound_to 6896
  146.2438  140.0307  142.8390 H   0  0  0  0  0  0  0  0  0  0  0  0  # atno 7974 bound_to 7965
  156.2622  140.2016  156.6357 H   0  0  0  0  0  0  0  0  0  0  0  0  # atno 8008 bound_to 7997
  154.6648  140.0556  157.0126 H   0  0  0  0  0  0  0  0  0  0  0  0  # atno 8009 bound_to 7997
  155.1223  140.3226  155.4497 H   0  0  0  0  0  0  0  0  0  0  0  0  # atno 8010 bound_to 7997
  140.4010  144.1724  150.6134 H   0  0  0  0  0  0  0  0  0  0  0  0  # atno 10167 bound_to 10162
  156.6145  130.8864  151.2944 H   0  0  0  0  0  0  0  0  0  0  0  0  # atno 10718 bound_to 10713
  154.0608  135.6618  153.4811 H   0  0  0  0  0  0  0  0  0  0  0  0  # atno 10763 bound_to 10752
  153.0428  135.5134  154.7661 H   0  0  0  0  0  0  0  0  0  0  0  0  # atno 10764 bound_to 10752
  154.6697  135.3027  154.9725 H   0  0  0  0  0  0  0  0  0  0  0  0  # atno 10765 bound_to 10752
  141.1649  133.7352  156.8885 H   0  0  0  0  0  0  0  0  0  0  0  0  # atno 11005 bound_to 11000
  145.1157  140.9432  143.4630 LP  0  0  0  0  0  0  0  0  0  0  0  0  # atno 17320 bound_to 7965
  145.0531  139.3165  143.5918 LP  0  0  0  0  0  0  0  0  0  0  0  0  # atno 17321 bound_to 7965
  140.4740  143.2403  151.9049 LP  0  0  0  0  0  0  0  0  0  0  0  0  # atno 17342 bound_to 10162
  139.4785  144.5340  151.8625 LP  0  0  0  0  0  0  0  0  0  0  0  0  # atno 17343 bound_to 10162
  157.7245  130.9603  150.1576 LP  0  0  0  0  0  0  0  0  0  0  0  0  # atno 17370 bound_to 10713
  156.2362  130.3686  149.8388 LP  0  0  0  0  0  0  0  0  0  0  0  0  # atno 17371 bound_to 10713
  140.1665  134.9129  157.2780 LP  0  0  0  0  0  0  0  0  0  0  0  0  # atno 17394 bound_to 11000
  140.2551  134.3637  155.7427 LP  0  0  0  0  0  0  0  0  0  0  0  0  # atno 17395 bound_to 11000

$$$$
