AV-unprocessed.smi:2825|AV-procd|sdf|10889|dock10
  -GOLD-   2272015333D 1   1.00000     0.00000
 Structure written by MMmdl.
 48 49  0  0  0  0  0  0  0  0  1 V2000
  149.8795  133.0003  155.1972 C   0  0  0  0  0  0  0  0  0  0  0  0
  149.6093  134.2626  156.0221 C   0  0  0  0  0  0  0  0  0  0  0  0
  149.0854  135.4229  155.1641 C   0  0  0  0  0  0  0  0  0  0  0  0
  148.7810  136.9383  156.1742 S   0  0  0  0  0  0  0  0  0  0  0  0
  147.3532  137.2829  156.0965 O   0  0  0  0  0  0  0  0  0  0  0  0
  149.4265  136.7607  157.4845 O   0  0  0  0  0  0  0  0  0  0  0  0
  149.6572  138.1573  155.3037 N   0  0  0  0  0  0  0  0  0  0  0  0
  150.8379  137.7617  154.5294 C   0  0  0  0  0  0  0  0  0  0  0  0
  148.9428  139.3404  154.7994 C   0  0  0  0  0  0  0  0  0  0  0  0
  149.9255  140.4699  154.4327 C   0  0  1  0  0  0  0  0  0  0  0  0
  149.4898  141.0720  153.2288 O   0  0  0  0  0  0  0  0  0  0  0  0
  149.9942  141.5445  155.5338 C   0  0  0  0  0  0  0  0  0  0  0  0
  150.9913  141.2399  156.5441 N   0  0  0  0  0  0  0  0  0  0  0  0
  151.8185  140.1774  156.5684 C   0  0  0  0  0  0  0  0  0  0  0  0
  152.6627  140.0864  157.5917 N   0  0  0  0  0  0  0  0  0  0  0  0
  152.3471  141.2238  158.3151 C   0  0  0  0  0  0  0  0  0  0  0  0
  152.8848  141.7201  159.5229 C   0  0  0  0  0  0  0  0  0  0  0  0
  152.4051  142.9224  160.0901 C   0  0  0  0  0  0  0  0  0  0  0  0
  153.0108  143.4187  161.3911 C   0  0  0  0  0  0  0  0  0  0  0  0
  151.3720  143.6493  159.4456 C   0  0  0  0  0  0  0  0  0  0  0  0
  150.8431  144.9457  160.0338 C   0  0  0  0  0  0  0  0  0  0  0  0
  150.8221  143.1664  158.2397 C   0  0  0  0  0  0  0  0  0  0  0  0
  151.3065  141.9680  157.6863 C   0  0  0  0  0  0  0  0  0  0  0  0
  150.2579  132.1975  155.8304 H   0  0  0  0  0  0  0  0  0  0  0  0
  150.6215  133.1893  154.4208 H   0  0  0  0  0  0  0  0  0  0  0  0
  148.9698  132.6427  154.7139 H   0  0  0  0  0  0  0  0  0  0  0  0
  148.8928  134.0298  156.8103 H   0  0  0  0  0  0  0  0  0  0  0  0
  150.5308  134.5650  156.5197 H   0  0  0  0  0  0  0  0  0  0  0  0
  149.7786  135.6689  154.3607 H   0  0  0  0  0  0  0  0  0  0  0  0
  148.1387  135.1436  154.7011 H   0  0  0  0  0  0  0  0  0  0  0  0
  151.4925  138.6185  154.3665 H   0  0  0  0  0  0  0  0  0  0  0  0
  150.5357  137.3595  153.5622 H   0  0  0  0  0  0  0  0  0  0  0  0
  151.4068  136.9980  155.0581 H   0  0  0  0  0  0  0  0  0  0  0  0
  148.3142  139.0849  153.9444 H   0  0  0  0  0  0  0  0  0  0  0  0
  148.2590  139.6738  155.5811 H   0  0  0  0  0  0  0  0  0  0  0  0
  150.9278  140.0732  154.2744 H   0  0  0  0  0  0  0  0  0  0  0  0
  149.3970  140.3989  152.5723 H   0  0  0  0  0  0  0  0  0  0  0  0
  150.2141  142.5230  155.1048 H   0  0  0  0  0  0  0  0  0  0  0  0
  149.0274  141.6336  156.0311 H   0  0  0  0  0  0  0  0  0  0  0  0
  151.7997  139.4293  155.7893 H   0  0  0  0  0  0  0  0  0  0  0  0
  153.6732  141.1666  160.0115 H   0  0  0  0  0  0  0  0  0  0  0  0
  153.4945  144.3846  161.2427 H   0  0  0  0  0  0  0  0  0  0  0  0
  153.7597  142.7241  161.7727 H   0  0  0  0  0  0  0  0  0  0  0  0
  152.2399  143.5305  162.1541 H   0  0  0  0  0  0  0  0  0  0  0  0
  150.0879  145.3964  159.3889 H   0  0  0  0  0  0  0  0  0  0  0  0
  151.6503  145.6681  160.1578 H   0  0  0  0  0  0  0  0  0  0  0  0
  150.3872  144.7638  161.0074 H   0  0  0  0  0  0  0  0  0  0  0  0
  150.0354  143.7103  157.7385 H   0  0  0  0  0  0  0  0  0  0  0  0
  1  2  1  0  0  0  0
  1 24  1  0  0  0  0
  1 25  1  0  0  0  0
  1 26  1  0  0  0  0
  2  3  1  0  0  0  0
  2 27  1  0  0  0  0
  2 28  1  0  0  0  0
  3  4  1  0  0  0  0
  3 29  1  0  0  0  0
  3 30  1  0  0  0  0
  4  5  2  0  0  0  0
  4  6  2  0  0  0  0
  4  7  1  0  0  0  0
  7  8  1  0  0  0  0
  7  9  1  0  0  0  0
  8 31  1  0  0  0  0
  8 32  1  0  0  0  0
  8 33  1  0  0  0  0
  9 10  1  0  0  0  0
  9 34  1  0  0  0  0
  9 35  1  0  0  0  0
 10 11  1  0  0  0  0
 10 12  1  0  0  0  0
 10 36  1  0  0  0  0
 11 37  1  0  0  0  0
 12 13  1  0  0  0  0
 12 38  1  0  0  0  0
 12 39  1  0  0  0  0
 13 23  1  0  0  0  0
 13 14  1  0  0  0  0
 14 15  2  0  0  0  0
 14 40  1  0  0  0  0
 15 16  1  0  0  0  0
 16 23  2  0  0  0  0
 16 17  1  0  0  0  0
 17 18  2  0  0  0  0
 17 41  1  0  0  0  0
 18 19  1  0  0  0  0
 18 20  1  0  0  0  0
 19 42  1  0  0  0  0
 19 43  1  0  0  0  0
 19 44  1  0  0  0  0
 20 21  1  0  0  0  0
 20 22  2  0  0  0  0
 21 45  1  0  0  0  0
 21 46  1  0  0  0  0
 21 47  1  0  0  0  0
 22 23  1  0  0  0  0
 22 48  1  0  0  0  0
M  END
> <s_m_source_file>
AV-unprocessed.smi

> <i_m_source_file_index>
2825

> <i_lp_mmshare_version>
43012

> <i_f3d_flags>
0

> <s_epik_input>
W0NIM11bQ0gyXVtDSDJdUyg9TykoPU8pTihbQ0gzXSlbQ0gyXVtDQEhdKFtPSF0pW0NIMl1uKFtjSF1uMSljKGMxMilbY0hdYyhbQ0gzXSljKFtjSF0yKVtDSDNd

> <s_epik_cmdline>
J2VwaWtfcHl0aG9uJywgJy1waCcsICc3LjAnLCAnLXRuJywgJzgnLCAnLW1hJywgJzIwMCcsICctbWV0YWxfYmluZGluZycsICctaW1hZScsICc8aW5maWxlLm1hZT4nLCAnLW9tYWUnLCAnPG91dGZpbGUubWFlPic=

> <r_epik_Ionization_Penalty>
0.104931

> <r_epik_Ionization_Penalty_Charging>
0

> <r_epik_Ionization_Penalty_Neutral>
0.104931

> <r_epik_State_Penalty>
0.0948201

> <r_epik_Charging_Adjusted_Penalty>
0.0948201

> <i_epik_Tot_Q>
0

> <i_epik_Tot_abs_Q>
0

> <r_epik_Metal_State_Penalty>
0.00010282

> <b_epik_Metal_Only>
0

> <s_lp_Force_Field>
OPLS_2005

> <r_lp_Energy>
7.6372

> <b_lp_Chiralities_Consistent>
1

> <s_lp_Variant>
AV-unprocessed.smi:2825-2

> <Gold.Version>
5.8.1

> <Gold.Id.Protein>
6NUR|6NUR_protein|mol2

> <Gold.PLP.Fitness>
50.2299

> <Gold.PLP.PLP>
-43.9669

> <Gold.PLP.part.hbond>
-3.3146

> <Gold.PLP.part.metal>
0.0000

> <Gold.PLP.part.buried>
-3.4738

> <Gold.PLP.part.nonpolar>
-37.1067

> <Gold.PLP.part.repulsive>
0.0260

> <Gold.PLP.ligand.clash>
0.0000

> <Gold.PLP.ligand.torsion>
2.3644

> <Gold.PLP.Chemscore.Hbond>
2.8247

> <Gold.PLP.Chemscore.CHOScore>
0.0000

> <Gold.PLP.Chemscore.Metal>
0.0000

> <Gold.Chemscore.Hbonds>
donor molecule, donor type, donor heavy atom, donor atom, acceptor molecule, acceptor atom, score
      L1  H    11    37       P1  7957  0.76
      P1  H  7997  8008       L1    15  1.00
      P1  H  8011  8017       L1    11  1.00

> <Gold.PLP.Chemscore.Internal.Correction>
2.5176

> <Gold.Rescore>
     Score         DG    S(hbond)    S(metal)    S(lipo)     H(rot)  DE(clash)    DE(int)     intcor
     17.30     -19.86       2.17        0.00     114.11       2.43       0.14       2.41       ----

> <Gold.Chemscore.Fitness>
17.3007

> <Gold.Chemscore.DG>
-19.8554

> <Gold.Chemscore.ZeroCoef>
-5.4800

> <Gold.Chemscore.Hbond>
2.1718

> <Gold.Chemscore.Metal>
0.0000

> <Gold.Chemscore.Lipo>
114.1061

> <Gold.Chemscore.Internal_Hbond>
0.0000

> <Gold.Chemscore.DEClash>
0.1443

> <Gold.Chemscore.DEInternal>
2.4104

> <Gold.Chemscore.Rot>
2.4332

> <Gold.Chemscore.Internal.Correction>
   9.000000E+99

> <Gold.Chemscore.Hbonds>
donor molecule, donor type, donor heavy atom, donor atom, acceptor molecule, acceptor atom, score
      L1  H    11    37       P1  7957  0.72
      P1  H  7997  8008       L1    15  0.35
      P1  H  8011  8017       L1    11  0.34

> <Gold.Chemscore.Hbond.Weighted>
-7.2539

> <Gold.Chemscore.Metal.Weighted>
-0.0000

> <Gold.Chemscore.Lipo.Weighted>
-13.3504

> <Gold.Chemscore.Internal_Hbond.Weighted>
0.0000

> <Gold.Chemscore.DEClash.Weighted>
0.1443

> <Gold.Chemscore.DEInternal.Weighted>
2.4104

> <Gold.Chemscore.Rot.Weighted>
6.2289

> <Gold.Chemscore.Internal.Correction.Weighted>
   9.000000E+99

> <Gold.Protein.RotatedTorsions>
[ 6907 6896 6895 6894 ] final   71.24 input  -60.11 | X-H torsion
[ 7974 7965 7964 7962 ] final  -16.50 input  175.53 | X-H torsion
[ 8008 7997 7996 7995 ] final  -63.79 input   59.86 | X-H torsion
[ 10167 10162 10161 10158 ] final  111.51 input  -65.29 | X-H torsion
[ 10718 10713 10712 10709 ] final   46.92 input   66.30 | X-H torsion
[ 10763 10752 10751 10750 ] final -107.70 input  -60.55 | X-H torsion
[ 11005 11000 10999 10996 ] final -174.81 input  -57.11 | X-H torsion

> <Gold.Protein.ActiveResidues>
 VAL166  LYS551  ARG553  GLY616  TRP617  ASP618  TYR619  PRO620  LYS621  CYS622 
 ASP623  PHE694  ASN695  SER759  ASP760  ASP761  ALA762  ILE779  LEU786  VAL792 
 PHE793  MET794  SER795  GLU796  ALA797  LYS798  CYS799  TRP800  GLU811  SER814 

> <Gold.Protein.RotatedAtoms>
  152.4798  134.4749  159.9647 H   0  0  0  0  0  0  0  0  0  0  0  0  # atno 6907 bound_to 6896
  151.4757  133.3552  159.2838 H   0  0  0  0  0  0  0  0  0  0  0  0  # atno 6908 bound_to 6896
  150.8862  134.8286  159.7322 H   0  0  0  0  0  0  0  0  0  0  0  0  # atno 6909 bound_to 6896
  146.1985  140.3645  142.8432 H   0  0  0  0  0  0  0  0  0  0  0  0  # atno 7974 bound_to 7965
  154.4574  140.0967  156.6797 H   0  0  0  0  0  0  0  0  0  0  0  0  # atno 8008 bound_to 7997
  155.5096  140.3476  155.4367 H   0  0  0  0  0  0  0  0  0  0  0  0  # atno 8009 bound_to 7997
  156.0805  140.1372  156.9707 H   0  0  0  0  0  0  0  0  0  0  0  0  # atno 8010 bound_to 7997
  139.6606  144.7129  151.1873 H   0  0  0  0  0  0  0  0  0  0  0  0  # atno 10167 bound_to 10162
  157.4531  130.8150  149.7809 H   0  0  0  0  0  0  0  0  0  0  0  0  # atno 10718 bound_to 10713
  154.8091  135.4665  154.0470 H   0  0  0  0  0  0  0  0  0  0  0  0  # atno 10763 bound_to 10752
  153.1915  135.6856  153.8353 H   0  0  0  0  0  0  0  0  0  0  0  0  # atno 10764 bound_to 10752
  153.7869  135.3248  155.3351 H   0  0  0  0  0  0  0  0  0  0  0  0  # atno 10765 bound_to 10752
  140.4704  134.6171  157.4879 H   0  0  0  0  0  0  0  0  0  0  0  0  # atno 11005 bound_to 11000
  144.8631  140.7167  143.6095 LP  0  0  0  0  0  0  0  0  0  0  0  0  # atno 17320 bound_to 7965
  145.3565  139.1693  143.4406 LP  0  0  0  0  0  0  0  0  0  0  0  0  # atno 17321 bound_to 7965
  140.7578  143.6001  150.8709 LP  0  0  0  0  0  0  0  0  0  0  0  0  # atno 17342 bound_to 10162
  139.9658  143.6113  152.2989 LP  0  0  0  0  0  0  0  0  0  0  0  0  # atno 17343 bound_to 10162
  155.9995  130.3888  150.2660 LP  0  0  0  0  0  0  0  0  0  0  0  0  # atno 17370 bound_to 10713
  157.0833  131.0149  151.3148 LP  0  0  0  0  0  0  0  0  0  0  0  0  # atno 17371 bound_to 10713
  139.9889  134.7017  155.9725 LP  0  0  0  0  0  0  0  0  0  0  0  0  # atno 17394 bound_to 11000
  141.1580  133.6541  156.4223 LP  0  0  0  0  0  0  0  0  0  0  0  0  # atno 17395 bound_to 11000

$$$$
