AV-unprocessed.smi:2112|AV-procd|sdf|8614|dock3
  -GOLD-   2272011353D 1   1.00000     0.00000
 Structure written by MMmdl.
 42 43  0  0  0  0  0  0  0  0  2 V2000
  145.6682  136.1397  150.9409 C   0  0  0  0  0  0  0  0  0  0  0  0
  145.7871  137.0311  152.1861 C   0  0  0  0  0  0  0  0  0  0  0  0
  144.4067  137.2360  152.8345 C   0  0  0  0  0  0  0  0  0  0  0  0
  146.4875  138.3610  151.8366 C   0  0  0  0  0  0  0  0  0  0  0  0
  147.7091  138.5669  152.6102 N   0  0  0  0  0  0  0  0  0  0  0  0
  147.9705  139.6265  153.3897 C   0  0  0  0  0  0  0  0  0  0  0  0
  147.1916  140.5667  153.5415 O   0  0  0  0  0  0  0  0  0  0  0  0
  149.1818  139.5170  153.9629 N   0  0  0  0  0  0  0  0  0  0  0  0
  149.8286  140.3997  154.8714 C   0  0  0  0  0  0  0  0  0  0  0  0
  150.8698  139.8704  155.6628 C   0  0  0  0  0  0  0  0  0  0  0  0
  151.5382  140.6958  156.5899 C   0  0  0  0  0  0  0  0  0  0  0  0
  151.1541  142.0502  156.7253 C   0  0  0  0  0  0  0  0  0  0  0  0
  151.7784  142.9332  157.6266 N   0  0  0  0  0  0  0  0  0  0  0  0
  151.3501  144.3167  157.7591 C   0  0  0  0  0  0  0  0  0  0  0  0
  152.1502  144.8561  158.9437 C   0  0  0  0  0  0  0  0  0  0  0  0
  152.3078  143.6293  159.8422 C   0  0  0  0  0  0  0  0  0  0  0  0
  152.3861  142.4544  158.8603 C   0  0  0  0  0  0  0  0  0  0  0  0
  150.1488  142.5168  155.9472 N   0  3  0  0  0  0  0  0  0  0  0  0
  149.4821  141.7615  155.0475 C   0  0  0  0  0  0  0  0  0  0  0  0
  145.0555  136.6124  150.1725 H   0  0  0  0  0  0  0  0  0  0  0  0
  145.2130  135.1793  151.1856 H   0  0  0  0  0  0  0  0  0  0  0  0
  146.6477  135.9360  150.5073 H   0  0  0  0  0  0  0  0  0  0  0  0
  146.4133  136.5005  152.9047 H   0  0  0  0  0  0  0  0  0  0  0  0
  143.7440  137.8049  152.1817 H   0  0  0  0  0  0  0  0  0  0  0  0
  144.4818  137.7706  153.7813 H   0  0  0  0  0  0  0  0  0  0  0  0
  143.9267  136.2798  153.0441 H   0  0  0  0  0  0  0  0  0  0  0  0
  146.7708  138.3583  150.7836 H   0  0  0  0  0  0  0  0  0  0  0  0
  145.7968  139.1974  151.9588 H   0  0  0  0  0  0  0  0  0  0  0  0
  148.4095  137.8431  152.5443 H   0  0  0  0  0  0  0  0  0  0  0  0
  149.7188  138.7043  153.6978 H   0  0  0  0  0  0  0  0  0  0  0  0
  151.1616  138.8351  155.5609 H   0  0  0  0  0  0  0  0  0  0  0  0
  152.3408  140.2809  157.1815 H   0  0  0  0  0  0  0  0  0  0  0  0
  151.5420  144.8874  156.8499 H   0  0  0  0  0  0  0  0  0  0  0  0
  150.2804  144.3497  157.9708 H   0  0  0  0  0  0  0  0  0  0  0  0
  153.1312  145.1927  158.6055 H   0  0  0  0  0  0  0  0  0  0  0  0
  151.6596  145.6923  159.4424 H   0  0  0  0  0  0  0  0  0  0  0  0
  153.1764  143.6907  160.4985 H   0  0  0  0  0  0  0  0  0  0  0  0
  151.4218  143.5234  160.4696 H   0  0  0  0  0  0  0  0  0  0  0  0
  151.8763  141.5776  159.2612 H   0  0  0  0  0  0  0  0  0  0  0  0
  153.4240  142.1865  158.6600 H   0  0  0  0  0  0  0  0  0  0  0  0
  148.6987  142.2831  154.5195 H   0  0  0  0  0  0  0  0  0  0  0  0
  149.8749  143.4943  156.0480 H   0  0  0  0  0  0  0  0  0  0  0  0
  1  2  1  0  0  0  0
  1 20  1  0  0  0  0
  1 21  1  0  0  0  0
  1 22  1  0  0  0  0
  2  3  1  0  0  0  0
  2  4  1  0  0  0  0
  2 23  1  0  0  0  0
  3 24  1  0  0  0  0
  3 25  1  0  0  0  0
  3 26  1  0  0  0  0
  4  5  1  0  0  0  0
  4 27  1  0  0  0  0
  4 28  1  0  0  0  0
  5  6  1  0  0  0  0
  5 29  1  0  0  0  0
  6  7  2  0  0  0  0
  6  8  1  0  0  0  0
  8  9  1  0  0  0  0
  8 30  1  0  0  0  0
  9 19  1  0  0  0  0
  9 10  2  0  0  0  0
 10 11  1  0  0  0  0
 10 31  1  0  0  0  0
 11 12  2  0  0  0  0
 11 32  1  0  0  0  0
 12 13  1  0  0  0  0
 12 18  1  0  0  0  0
 13 17  1  0  0  0  0
 13 14  1  0  0  0  0
 14 15  1  0  0  0  0
 14 33  1  0  0  0  0
 14 34  1  0  0  0  0
 15 16  1  0  0  0  0
 15 35  1  0  0  0  0
 15 36  1  0  0  0  0
 16 17  1  0  0  0  0
 16 37  1  0  0  0  0
 16 38  1  0  0  0  0
 17 39  1  0  0  0  0
 17 40  1  0  0  0  0
 18 19  2  0  0  0  0
 18 42  1  0  0  0  0
 19 41  1  0  0  0  0
M  CHG  1  18   1
M  END
> <s_m_source_file>
AV-unprocessed.smi

> <i_m_source_file_index>
2112

> <i_lp_mmshare_version>
43012

> <i_f3d_flags>
0

> <s_epik_input>
W0NIM11bQ0hdKFtDSDNdKVtDSDJdW05IXUMoPU8pW05IXWMxW2NIXVtjSF1jKG5bY0hdMSlOMltDSDJdW0NIMl1bQ0gyXVtDSDJdMg==

> <s_epik_cmdline>
J2VwaWtfcHl0aG9uJywgJy1waCcsICc3LjAnLCAnLXRuJywgJzgnLCAnLW1hJywgJzIwMCcsICctbWV0YWxfYmluZGluZycsICctaW1hZScsICc8aW5maWxlLm1hZT4nLCAnLW9tYWUnLCAnPG91dGZpbGUubWFlPic=

> <r_lp_tautomer_probability>
0.999994

> <r_epik_Ionization_Penalty>
1.09853

> <r_epik_Ionization_Penalty_Charging>
1.09851

> <r_epik_Ionization_Penalty_Neutral>
2.18606e-05

> <r_epik_State_Penalty>
1.15544

> <r_epik_Charging_Adjusted_Penalty>
2.25394

> <i_epik_Tot_Q>
1

> <i_epik_Tot_abs_Q>
1

> <r_epik_Metal_State_Penalty>
1.2431

> <b_epik_Metal_Only>
0

> <s_lp_Force_Field>
OPLS_2005

> <r_lp_Energy>
36.0916

> <b_lp_Chiralities_Consistent>
1

> <s_lp_Variant>
AV-unprocessed.smi:2112-2

> <Gold.Version>
5.8.1

> <Gold.Id.Protein>
6NUR|6NUR_protein|mol2

> <Gold.PLP.Fitness>
50.5145

> <Gold.PLP.PLP>
-43.3149

> <Gold.PLP.part.hbond>
-3.9900

> <Gold.PLP.part.metal>
0.0000

> <Gold.PLP.part.buried>
0.2346

> <Gold.PLP.part.nonpolar>
-40.7508

> <Gold.PLP.part.repulsive>
0.4660

> <Gold.PLP.ligand.clash>
0.0000

> <Gold.PLP.ligand.torsion>
1.0103

> <Gold.PLP.Chemscore.Hbond>
3.0000

> <Gold.PLP.Chemscore.CHOScore>
0.0000

> <Gold.PLP.Chemscore.Metal>
0.0000

> <Gold.Chemscore.Hbonds>
donor molecule, donor type, donor heavy atom, donor atom, acceptor molecule, acceptor atom, score
      L1  H     5    29       P1  7948  0.99
      L1  H    18    42       P1  8028  2.00

> <Gold.PLP.Chemscore.Internal.Correction>
0.2201

> <Gold.Rescore>
     Score         DG    S(hbond)    S(metal)    S(lipo)     H(rot)  DE(clash)    DE(int)     intcor
     18.14     -20.48       1.91        0.00      99.04       1.16       0.21       2.13       ----

> <Gold.Chemscore.Fitness>
18.1441

> <Gold.Chemscore.DG>
-20.4775

> <Gold.Chemscore.ZeroCoef>
-5.4800

> <Gold.Chemscore.Hbond>
1.9133

> <Gold.Chemscore.Metal>
0.0000

> <Gold.Chemscore.Lipo>
99.0407

> <Gold.Chemscore.Internal_Hbond>
0.0000

> <Gold.Chemscore.DEClash>
0.2051

> <Gold.Chemscore.DEInternal>
2.1283

> <Gold.Chemscore.Rot>
1.1643

> <Gold.Chemscore.Internal.Correction>
   9.000000E+99

> <Gold.Chemscore.Hbonds>
donor molecule, donor type, donor heavy atom, donor atom, acceptor molecule, acceptor atom, score
      L1  H     5    29       P1  7948  0.94
      L1  H    18    42       P1  8028  0.94

> <Gold.Chemscore.Hbond.Weighted>
-6.3904

> <Gold.Chemscore.Metal.Weighted>
-0.0000

> <Gold.Chemscore.Lipo.Weighted>
-11.5878

> <Gold.Chemscore.Internal_Hbond.Weighted>
0.0000

> <Gold.Chemscore.DEClash.Weighted>
0.2051

> <Gold.Chemscore.DEInternal.Weighted>
2.1283

> <Gold.Chemscore.Rot.Weighted>
2.9807

> <Gold.Chemscore.Internal.Correction.Weighted>
   9.000000E+99

> <Gold.Protein.RotatedTorsions>
[ 6907 6896 6895 6894 ] final   53.74 input  -60.11 | X-H torsion
[ 7974 7965 7964 7962 ] final  153.31 input  175.53 | X-H torsion
[ 8008 7997 7996 7995 ] final   75.66 input   59.86 | X-H torsion
[ 10167 10162 10161 10158 ] final   99.78 input  -65.29 | X-H torsion
[ 10718 10713 10712 10709 ] final -136.76 input   66.30 | X-H torsion
[ 10763 10752 10751 10750 ] final  -56.00 input  -60.55 | X-H torsion
[ 11005 11000 10999 10996 ] final  -38.39 input  -57.11 | X-H torsion

> <Gold.Protein.ActiveResidues>
 VAL166  LYS551  ARG553  GLY616  TRP617  ASP618  TYR619  PRO620  LYS621  CYS622 
 ASP623  PHE694  ASN695  SER759  ASP760  ASP761  ALA762  ILE779  LEU786  VAL792 
 PHE793  MET794  SER795  GLU796  ALA797  LYS798  CYS799  TRP800  GLU811  SER814 

> <Gold.Protein.RotatedAtoms>
  152.3368  134.7187  160.0274 H   0  0  0  0  0  0  0  0  0  0  0  0  # atno 6907 bound_to 6896
  151.7585  133.3326  159.3419 H   0  0  0  0  0  0  0  0  0  0  0  0  # atno 6908 bound_to 6896
  150.7455  134.6059  159.6105 H   0  0  0  0  0  0  0  0  0  0  0  0  # atno 6909 bound_to 6896
  144.8163  139.6784  143.6120 H   0  0  0  0  0  0  0  0  0  0  0  0  # atno 7974 bound_to 7965
  155.8161  140.3471  155.5486 H   0  0  0  0  0  0  0  0  0  0  0  0  # atno 8008 bound_to 7997
  155.8390  140.0938  157.1766 H   0  0  0  0  0  0  0  0  0  0  0  0  # atno 8009 bound_to 7997
  154.4005  140.1398  156.3693 H   0  0  0  0  0  0  0  0  0  0  0  0  # atno 8010 bound_to 7997
  139.7587  144.6961  151.0325 H   0  0  0  0  0  0  0  0  0  0  0  0  # atno 10167 bound_to 10162
  156.2806  130.7318  151.1314 H   0  0  0  0  0  0  0  0  0  0  0  0  # atno 10718 bound_to 10713
  154.1997  135.6413  153.5083 H   0  0  0  0  0  0  0  0  0  0  0  0  # atno 10763 bound_to 10752
  153.0015  135.5448  154.6329 H   0  0  0  0  0  0  0  0  0  0  0  0  # atno 10764 bound_to 10752
  154.5738  135.2919  155.0774 H   0  0  0  0  0  0  0  0  0  0  0  0  # atno 10765 bound_to 10752
  141.0024  133.6949  156.2047 H   0  0  0  0  0  0  0  0  0  0  0  0  # atno 11005 bound_to 11000
  146.2466  139.6111  142.9455 LP  0  0  0  0  0  0  0  0  0  0  0  0  # atno 17320 bound_to 7965
  145.5207  141.0432  143.2437 LP  0  0  0  0  0  0  0  0  0  0  0  0  # atno 17321 bound_to 7965
  140.7805  143.4723  151.0129 LP  0  0  0  0  0  0  0  0  0  0  0  0  # atno 17342 bound_to 10162
  139.8409  143.7564  152.3180 LP  0  0  0  0  0  0  0  0  0  0  0  0  # atno 17343 bound_to 10162
  157.7313  131.0609  150.5684 LP  0  0  0  0  0  0  0  0  0  0  0  0  # atno 17370 bound_to 10713
  156.5789  130.4299  149.5986 LP  0  0  0  0  0  0  0  0  0  0  0  0  # atno 17371 bound_to 10713
  140.6868  134.4709  157.5589 LP  0  0  0  0  0  0  0  0  0  0  0  0  # atno 17394 bound_to 11000
  139.9045  134.8479  156.1759 LP  0  0  0  0  0  0  0  0  0  0  0  0  # atno 17395 bound_to 11000

$$$$
