AV-unprocessed.smi:157|AV-procd|sdf|1319|dock1
  -GOLD-   2262019 13D 1   1.00000     0.00000
 Structure written by MMmdl.
 36 38  0  0  0  0  0  0  0  0  2 V2000
  148.4640  138.3799  153.3340 O   0  0  0  0  0  0  0  0  0  0  0  0
  149.2548  139.0980  154.2566 C   0  0  0  0  0  0  0  0  0  0  0  0
  150.6922  138.5321  154.2678 C   0  0  1  0  0  0  0  0  0  0  0  0
  151.5889  139.5905  154.6140 O   0  0  0  0  0  0  0  0  0  0  0  0
  151.9664  139.5153  155.9599 C   0  0  1  0  0  0  0  0  0  0  0  0
  151.5989  140.7939  156.6443 N   0  0  0  0  0  0  0  0  0  0  0  0
  150.6328  141.6637  156.2778 C   0  0  0  0  0  0  0  0  0  0  0  0
  150.5289  142.7245  157.0602 N   0  3  0  0  0  0  0  0  0  0  0  0
  151.4948  142.5881  158.0345 C   0  0  0  0  0  0  0  0  0  0  0  0
  152.1448  141.3818  157.7620 C   0  0  0  0  0  0  0  0  0  0  0  0
  153.2049  140.7589  158.4383 N   0  0  0  0  0  0  0  0  0  0  0  0
  153.5585  141.0832  159.6394 C   0  0  0  0  0  0  0  0  0  0  0  0
  153.0814  142.1047  160.4437 N   0  0  0  0  0  0  0  0  0  0  0  0
  152.8988  143.4647  159.9683 C   0  0  0  0  0  0  0  0  0  0  0  0
  151.6615  143.6479  159.0789 C   0  0  2  0  0  0  0  0  0  0  0  0
  150.5251  143.7748  159.9085 O   0  0  0  0  0  0  0  0  0  0  0  0
  151.2042  138.3436  156.5780 C   0  0  0  0  0  0  0  0  0  0  0  0
  150.9697  137.4837  155.3568 C   0  0  1  0  0  0  0  0  0  0  0  0
  149.9265  136.5522  155.5585 O   0  0  0  0  0  0  0  0  0  0  0  0
  150.9392  138.1257  153.2860 H   0  0  0  0  0  0  0  0  0  0  0  0
  153.0505  139.4380  156.0526 H   0  0  0  0  0  0  0  0  0  0  0  0
  151.7646  144.6039  158.5645 H   0  0  0  0  0  0  0  0  0  0  0  0
  151.8850  136.9413  155.1149 H   0  0  0  0  0  0  0  0  0  0  0  0
  148.4329  138.8646  152.5233 H   0  0  0  0  0  0  0  0  0  0  0  0
  149.2336  140.1617  154.0206 H   0  0  0  0  0  0  0  0  0  0  0  0
  148.7842  138.9771  155.2321 H   0  0  0  0  0  0  0  0  0  0  0  0
  150.0023  141.5074  155.4205 H   0  0  0  0  0  0  0  0  0  0  0  0
  154.3438  140.5079  160.1318 H   0  0  0  0  0  0  0  0  0  0  0  0
  153.3009  142.0852  161.4296 H   0  0  0  0  0  0  0  0  0  0  0  0
  152.8721  144.1501  160.8162 H   0  0  0  0  0  0  0  0  0  0  0  0
  153.7879  143.7300  159.3941 H   0  0  0  0  0  0  0  0  0  0  0  0
  150.4889  143.0315  160.4905 H   0  0  0  0  0  0  0  0  0  0  0  0
  151.7894  137.8556  157.3579 H   0  0  0  0  0  0  0  0  0  0  0  0
  150.2607  138.6921  157.0022 H   0  0  0  0  0  0  0  0  0  0  0  0
  149.7993  136.0649  154.7585 H   0  0  0  0  0  0  0  0  0  0  0  0
  149.8742  143.4888  156.9524 H   0  0  0  0  0  0  0  0  0  0  0  0
  1  2  1  0  0  0  0
  1 24  1  0  0  0  0
  2  3  1  0  0  0  0
  2 25  1  0  0  0  0
  2 26  1  0  0  0  0
  3 20  1  0  0  0  0
  3 18  1  0  0  0  0
  3  4  1  0  0  0  0
  4  5  1  0  0  0  0
  5 21  1  0  0  0  0
  5  6  1  0  0  0  0
  5 17  1  0  0  0  0
  6 10  1  0  0  0  0
  6  7  1  0  0  0  0
  7  8  2  0  0  0  0
  7 27  1  0  0  0  0
  8  9  1  0  0  0  0
  8 36  1  0  0  0  0
  9 15  1  0  0  0  0
  9 10  2  0  0  0  0
 10 11  1  0  0  0  0
 11 12  2  0  0  0  0
 12 13  1  0  0  0  0
 12 28  1  0  0  0  0
 13 14  1  0  0  0  0
 13 29  1  0  0  0  0
 14 15  1  0  0  0  0
 14 30  1  0  0  0  0
 14 31  1  0  0  0  0
 15 22  1  0  0  0  0
 15 16  1  0  0  0  0
 16 32  1  0  0  0  0
 17 18  1  0  0  0  0
 17 33  1  0  0  0  0
 17 34  1  0  0  0  0
 18 23  1  0  0  0  0
 18 19  1  0  0  0  0
 19 35  1  0  0  0  0
M  CHG  1   8   1
M  END
> <s_m_source_file>
AV-unprocessed.smi

> <i_m_source_file_index>
157

> <i_lp_mmshare_version>
43012

> <i_f3d_flags>
0

> <s_epik_input>
W09IXVtDSDJdW0NASF0xT1tDQEhdKFtDSDJdW0NAQEhdMVtPSF0pbihbY0hdbjIpYyhjMjMpTj1bQ0hdW05IXVtDSDJdW0NASF0zW09IXQ==

> <s_epik_cmdline>
J2VwaWtfcHl0aG9uJywgJy1waCcsICc3LjAnLCAnLXRuJywgJzgnLCAnLW1hJywgJzIwMCcsICctbWV0YWxfYmluZGluZycsICctaW1hZScsICc8aW5maWxlLm1hZT4nLCAnLW9tYWUnLCAnPG91dGZpbGUubWFlPic=

> <r_epik_Ionization_Penalty>
1.68594

> <r_epik_Ionization_Penalty_Charging>
0

> <r_epik_Ionization_Penalty_Neutral>
1.68594

> <r_epik_State_Penalty>
1.79006

> <r_epik_Charging_Adjusted_Penalty>
1.79006

> <i_epik_Tot_Q>
1

> <i_epik_Tot_abs_Q>
1

> <r_epik_Metal_State_Penalty>
5.85324

> <b_epik_Metal_Only>
0

> <s_epik_Chemistry_Notes>
This compound has an imine and may undergo hydrolysis. This compound contains an acetal/aminal-like group ( X-CH(R)-Y where X, Y are N, S, or O) that may be acid/base labile, releasing an aldehyde.

> <s_lp_Force_Field>
OPLS_2005

> <r_lp_Energy>
55.1144

> <b_lp_Chiralities_Consistent>
1

> <s_lp_Variant>
AV-unprocessed.smi:157-29

> <Gold.Version>
5.8.1

> <Gold.Id.Protein>
6NUR|6NUR_protein|mol2

> <Gold.PLP.Fitness>
46.2706

> <Gold.PLP.PLP>
-35.5856

> <Gold.PLP.part.hbond>
-5.4306

> <Gold.PLP.part.metal>
0.0000

> <Gold.PLP.part.buried>
-5.3580

> <Gold.PLP.part.nonpolar>
-24.1191

> <Gold.PLP.part.repulsive>
0.1631

> <Gold.PLP.ligand.clash>
0.0000

> <Gold.PLP.ligand.torsion>
1.1321

> <Gold.PLP.Chemscore.Hbond>
4.3110

> <Gold.PLP.Chemscore.CHOScore>
0.0000

> <Gold.PLP.Chemscore.Metal>
0.0000

> <Gold.Chemscore.Hbonds>
donor molecule, donor type, donor heavy atom, donor atom, acceptor molecule, acceptor atom, score
      L1  H     1    24       P1  7957  0.67
      L1  H     8    36       P1  8028  1.87
      P1  H  7989  7998       L1     4  1.00
      P1  H  7997  8009       L1    11  0.56

> <Gold.PLP.Chemscore.Internal.Correction>
0.0164

> <Gold.Rescore>
     Score         DG    S(hbond)    S(metal)    S(lipo)     H(rot)  DE(clash)    DE(int)     intcor
     11.81     -13.23       3.09        0.00      58.12       3.67       0.08       1.34       ----

> <Gold.Chemscore.Fitness>
11.8097

> <Gold.Chemscore.DG>
-13.2305

> <Gold.Chemscore.ZeroCoef>
-5.4800

> <Gold.Chemscore.Hbond>
3.0944

> <Gold.Chemscore.Metal>
0.0000

> <Gold.Chemscore.Lipo>
58.1204

> <Gold.Chemscore.Internal_Hbond>
0.0000

> <Gold.Chemscore.DEClash>
0.0788

> <Gold.Chemscore.DEInternal>
1.3420

> <Gold.Chemscore.Rot>
3.6659

> <Gold.Chemscore.Internal.Correction>
   9.000000E+99

> <Gold.Chemscore.Hbonds>
donor molecule, donor type, donor heavy atom, donor atom, acceptor molecule, acceptor atom, score
      L1  H     1    24       P1  7957  0.64
      L1  H     8    36       P1  8028  0.83
      P1  H  7989  7998       L1     4  0.90
      P1  H  7997  8009       L1    11  0.41

> <Gold.Chemscore.Hbond.Weighted>
-10.3352

> <Gold.Chemscore.Metal.Weighted>
-0.0000

> <Gold.Chemscore.Lipo.Weighted>
-6.8001

> <Gold.Chemscore.Internal_Hbond.Weighted>
0.0000

> <Gold.Chemscore.DEClash.Weighted>
0.0788

> <Gold.Chemscore.DEInternal.Weighted>
1.3420

> <Gold.Chemscore.Rot.Weighted>
9.3848

> <Gold.Chemscore.Internal.Correction.Weighted>
   9.000000E+99

> <Gold.Protein.RotatedTorsions>
[ 6907 6896 6895 6894 ] final  104.48 input  -60.11 | X-H torsion
[ 7974 7965 7964 7962 ] final -176.62 input  175.53 | X-H torsion
[ 8008 7997 7996 7995 ] final  152.52 input   59.86 | X-H torsion
[ 10167 10162 10161 10158 ] final    7.40 input  -65.29 | X-H torsion
[ 10718 10713 10712 10709 ] final   49.80 input   66.30 | X-H torsion
[ 10763 10752 10751 10750 ] final   67.84 input  -60.55 | X-H torsion
[ 11005 11000 10999 10996 ] final  151.33 input  -57.11 | X-H torsion

> <Gold.Protein.ActiveResidues>
 VAL166  LYS551  ARG553  GLY616  TRP617  ASP618  TYR619  PRO620  LYS621  CYS622 
 ASP623  PHE694  ASN695  SER759  ASP760  ASP761  ALA762  ILE779  LEU786  VAL792 
 PHE793  MET794  SER795  GLU796  ALA797  LYS798  CYS799  TRP800  GLU811  SER814 

> <Gold.Protein.RotatedAtoms>
  152.5263  133.9670  159.7743 H   0  0  0  0  0  0  0  0  0  0  0  0  # atno 6907 bound_to 6896
  150.9950  133.6104  159.2710 H   0  0  0  0  0  0  0  0  0  0  0  0  # atno 6908 bound_to 6896
  151.3234  135.0830  159.9367 H   0  0  0  0  0  0  0  0  0  0  0  0  # atno 6909 bound_to 6896
  144.7127  140.1143  143.6409 H   0  0  0  0  0  0  0  0  0  0  0  0  # atno 7974 bound_to 7965
  156.2625  140.2018  156.6346 H   0  0  0  0  0  0  0  0  0  0  0  0  # atno 8008 bound_to 7997
  154.6656  140.0556  157.0134 H   0  0  0  0  0  0  0  0  0  0  0  0  # atno 8009 bound_to 7997
  155.1212  140.3225  155.4500 H   0  0  0  0  0  0  0  0  0  0  0  0  # atno 8010 bound_to 7997
  140.6374  143.7855  150.7378 H   0  0  0  0  0  0  0  0  0  0  0  0  # atno 10167 bound_to 10162
  157.4823  130.8323  149.8107 H   0  0  0  0  0  0  0  0  0  0  0  0  # atno 10718 bound_to 10713
  153.0205  135.5269  154.7041 H   0  0  0  0  0  0  0  0  0  0  0  0  # atno 10763 bound_to 10752
  154.6142  135.2881  155.0401 H   0  0  0  0  0  0  0  0  0  0  0  0  # atno 10764 bound_to 10752
  154.1411  135.6578  153.4995 H   0  0  0  0  0  0  0  0  0  0  0  0  # atno 10765 bound_to 10752
  140.1210  134.8864  157.2071 H   0  0  0  0  0  0  0  0  0  0  0  0  # atno 11005 bound_to 11000
  145.9427  139.2679  143.1259 LP  0  0  0  0  0  0  0  0  0  0  0  0  # atno 17320 bound_to 7965
  145.9407  140.8982  143.0309 LP  0  0  0  0  0  0  0  0  0  0  0  0  # atno 17321 bound_to 7965
  140.1479  143.4384  152.2151 LP  0  0  0  0  0  0  0  0  0  0  0  0  # atno 17342 bound_to 10162
  139.5584  144.7389  151.4227 LP  0  0  0  0  0  0  0  0  0  0  0  0  # atno 17343 bound_to 10162
  156.0128  130.3826  150.2209 LP  0  0  0  0  0  0  0  0  0  0  0  0  # atno 17370 bound_to 10713
  157.0395  131.0031  151.3288 LP  0  0  0  0  0  0  0  0  0  0  0  0  # atno 17371 bound_to 10713
  140.2966  134.3180  155.7301 LP  0  0  0  0  0  0  0  0  0  0  0  0  # atno 17394 bound_to 11000
  141.2151  133.7566  156.9580 LP  0  0  0  0  0  0  0  0  0  0  0  0  # atno 17395 bound_to 11000

$$$$
