AV-unprocessed.smi:2881|AV-procd|sdf|11070|dock3
  -GOLD-   2272015543D 1   1.00000     0.00000
 Structure written by MMmdl.
 40 42  0  0  0  0  0  0  0  0  1 V2000
  145.8232  143.5487  153.5396 C   0  0  0  0  0  0  0  0  0  0  0  0
  146.9576  142.9958  154.3509 C   0  0  0  0  0  0  0  0  0  0  0  0
  148.1892  142.4500  153.8844 C   0  0  0  0  0  0  0  0  0  0  0  0
  148.8593  142.1034  155.0243 C   0  0  0  0  0  0  0  0  0  0  0  0
  150.2077  141.4911  155.2289 C   0  0  0  0  0  0  0  0  0  0  0  0
  150.6108  141.5466  156.7021 C   0  0  0  0  0  0  0  0  0  0  0  0
  151.1357  140.5688  157.2339 O   0  0  0  0  0  0  0  0  0  0  0  0
  150.3622  142.6965  157.3476 N   0  0  0  0  0  0  0  0  0  0  0  0
  150.6851  142.9601  158.7473 C   0  0  1  0  0  0  0  0  0  0  0  0
  152.2045  142.8222  158.9883 C   0  0  2  0  0  0  0  0  0  0  0  0
  152.4560  142.7006  160.5020 C   0  0  0  0  0  0  0  0  0  0  0  0
  152.1770  144.1306  161.0016 C   0  0  0  0  0  0  0  0  0  0  0  0
  151.7867  144.8798  159.7091 C   0  0  1  0  0  0  0  0  0  0  0  0
  152.7259  144.2279  158.7021 C   0  0  0  0  0  0  0  0  0  0  0  0
  150.4085  144.4272  159.1651 C   0  0  2  0  0  0  0  0  0  0  0  0
  149.2114  144.5930  160.1216 C   0  0  0  0  0  0  0  0  0  0  0  0
  148.6335  145.8721  159.9711 O   0  0  0  0  0  0  0  0  0  0  0  0
  148.0299  142.4359  156.0717 N   0  0  0  0  0  0  0  0  0  0  0  0
  146.8670  142.9829  155.6724 N   0  0  0  0  0  0  0  0  0  0  0  0
  148.2414  142.2985  157.0499 H   0  0  0  0  0  0  0  0  0  0  0  0
  146.0908  143.6189  152.4851 H   0  0  0  0  0  0  0  0  0  0  0  0
  145.5468  144.5478  153.8779 H   0  0  0  0  0  0  0  0  0  0  0  0
  144.9405  142.9134  153.6163 H   0  0  0  0  0  0  0  0  0  0  0  0
  148.5315  142.3354  152.8664 H   0  0  0  0  0  0  0  0  0  0  0  0
  150.9502  142.0205  154.6307 H   0  0  0  0  0  0  0  0  0  0  0  0
  150.2147  140.4551  154.8872 H   0  0  0  0  0  0  0  0  0  0  0  0
  149.9278  143.4472  156.8312 H   0  0  0  0  0  0  0  0  0  0  0  0
  150.1421  142.2506  159.3749 H   0  0  0  0  0  0  0  0  0  0  0  0
  152.6768  142.0268  158.4106 H   0  0  0  0  0  0  0  0  0  0  0  0
  151.8111  141.9593  160.9752 H   0  0  0  0  0  0  0  0  0  0  0  0
  153.4906  142.4204  160.7038 H   0  0  0  0  0  0  0  0  0  0  0  0
  151.4102  144.1671  161.7739 H   0  0  0  0  0  0  0  0  0  0  0  0
  153.0830  144.5617  161.4295 H   0  0  0  0  0  0  0  0  0  0  0  0
  151.8889  145.9626  159.7864 H   0  0  0  0  0  0  0  0  0  0  0  0
  153.7821  144.3561  158.9459 H   0  0  0  0  0  0  0  0  0  0  0  0
  152.5564  144.5541  157.6744 H   0  0  0  0  0  0  0  0  0  0  0  0
  150.1993  145.0213  158.2729 H   0  0  0  0  0  0  0  0  0  0  0  0
  148.4495  143.8475  159.8945 H   0  0  0  0  0  0  0  0  0  0  0  0
  149.4945  144.4384  161.1622 H   0  0  0  0  0  0  0  0  0  0  0  0
  148.2525  145.9298  159.1081 H   0  0  0  0  0  0  0  0  0  0  0  0
  1 21  1  0  0  0  0
  1 22  1  0  0  0  0
  1 23  1  0  0  0  0
  1  2  1  0  0  0  0
  2 19  2  0  0  0  0
  2  3  1  0  0  0  0
  3  4  2  0  0  0  0
  3 24  1  0  0  0  0
  4 18  1  0  0  0  0
  4  5  1  0  0  0  0
  5  6  1  0  0  0  0
  5 25  1  0  0  0  0
  5 26  1  0  0  0  0
  6  7  2  0  0  0  0
  6  8  1  0  0  0  0
  8  9  1  0  0  0  0
  8 27  1  0  0  0  0
  9 15  1  0  0  0  0
  9 10  1  0  0  0  0
  9 28  1  0  0  0  0
 10 14  1  0  0  0  0
 10 11  1  0  0  0  0
 10 29  1  0  0  0  0
 11 12  1  0  0  0  0
 11 30  1  0  0  0  0
 11 31  1  0  0  0  0
 12 13  1  0  0  0  0
 12 32  1  0  0  0  0
 12 33  1  0  0  0  0
 13 14  1  0  0  0  0
 13 15  1  0  0  0  0
 13 34  1  0  0  0  0
 14 35  1  0  0  0  0
 14 36  1  0  0  0  0
 15 16  1  0  0  0  0
 15 37  1  0  0  0  0
 16 17  1  0  0  0  0
 16 38  1  0  0  0  0
 16 39  1  0  0  0  0
 17 40  1  0  0  0  0
 18 19  1  0  0  0  0
 18 20  1  0  0  0  0
M  END
> <s_m_source_file>
AV-unprocessed.smi

> <i_m_source_file_index>
2881

> <i_lp_mmshare_version>
43012

> <i_f3d_flags>
0

> <s_epik_input>
W0NIM11jMVtjSF1jKG5bbkhdMSlbQ0gyXUMoPU8pW05IXVtDQEhdKFtDQEBIXTIzKVtDQEhdKFtDSDJdW09IXSlbQ0BASF0oW0NIMl0zKVtDSDJdW0NIMl0y

> <s_epik_cmdline>
J2VwaWtfcHl0aG9uJywgJy1waCcsICc3LjAnLCAnLXRuJywgJzgnLCAnLW1hJywgJzIwMCcsICctbWV0YWxfYmluZGluZycsICctaW1hZScsICc8aW5maWxlLm1hZT4nLCAnLW9tYWUnLCAnPG91dGZpbGUubWFlPic=

> <r_lp_tautomer_probability>
0.5

> <r_epik_Ionization_Penalty>
0.00013396

> <r_epik_Ionization_Penalty_Charging>
0

> <r_epik_Ionization_Penalty_Neutral>
0.00013396

> <r_epik_State_Penalty>
0.41068

> <r_epik_Charging_Adjusted_Penalty>
0.41068

> <i_epik_Tot_Q>
0

> <i_epik_Tot_abs_Q>
0

> <r_epik_Metal_State_Penalty>
0.41066

> <b_epik_Metal_Only>
0

> <s_lp_Force_Field>
OPLS_2005

> <r_lp_Energy>
46.6194

> <b_lp_Chiralities_Consistent>
1

> <s_lp_Variant>
AV-unprocessed.smi:2881-16

> <Gold.Version>
5.8.1

> <Gold.Id.Protein>
6NUR|6NUR_protein|mol2

> <Gold.PLP.Fitness>
48.0240

> <Gold.PLP.PLP>
-43.8844

> <Gold.PLP.part.hbond>
-3.7319

> <Gold.PLP.part.metal>
0.0000

> <Gold.PLP.part.buried>
-0.9149

> <Gold.PLP.part.nonpolar>
-38.9729

> <Gold.PLP.part.repulsive>
1.1645

> <Gold.PLP.ligand.clash>
0.0000

> <Gold.PLP.ligand.torsion>
0.6861

> <Gold.PLP.Chemscore.Hbond>
1.8288

> <Gold.PLP.Chemscore.CHOScore>
0.0000

> <Gold.PLP.Chemscore.Metal>
0.0000

> <Gold.Chemscore.Hbonds>
donor molecule, donor type, donor heavy atom, donor atom, acceptor molecule, acceptor atom, score
      L1  H     8    27       P1  8028  1.00
      L1  H    17    40       P1  8029  1.00

> <Gold.PLP.Chemscore.Internal.Correction>
0.0255

> <Gold.Rescore>
     Score         DG    S(hbond)    S(metal)    S(lipo)     H(rot)  DE(clash)    DE(int)     intcor
     16.55     -19.88       1.89        0.00     118.97       2.28       1.24       2.08       ----

> <Gold.Chemscore.Fitness>
16.5530

> <Gold.Chemscore.DG>
-19.8801

> <Gold.Chemscore.ZeroCoef>
-5.4800

> <Gold.Chemscore.Hbond>
1.8880

> <Gold.Chemscore.Metal>
0.0000

> <Gold.Chemscore.Lipo>
118.9677

> <Gold.Chemscore.Internal_Hbond>
0.0000

> <Gold.Chemscore.DEClash>
1.2446

> <Gold.Chemscore.DEInternal>
2.0825

> <Gold.Chemscore.Rot>
2.2755

> <Gold.Chemscore.Internal.Correction>
   9.000000E+99

> <Gold.Chemscore.Hbonds>
donor molecule, donor type, donor heavy atom, donor atom, acceptor molecule, acceptor atom, score
      L1  H     8    27       P1  8028  0.95
      L1  H    17    40       P1  8029  1.00

> <Gold.Chemscore.Hbond.Weighted>
-6.3061

> <Gold.Chemscore.Metal.Weighted>
-0.0000

> <Gold.Chemscore.Lipo.Weighted>
-13.9192

> <Gold.Chemscore.Internal_Hbond.Weighted>
0.0000

> <Gold.Chemscore.DEClash.Weighted>
1.2446

> <Gold.Chemscore.DEInternal.Weighted>
2.0825

> <Gold.Chemscore.Rot.Weighted>
5.8252

> <Gold.Chemscore.Internal.Correction.Weighted>
   9.000000E+99

> <Gold.Protein.RotatedTorsions>
[ 6907 6896 6895 6894 ] final   59.70 input  -60.11 | X-H torsion
[ 7974 7965 7964 7962 ] final    4.72 input  175.53 | X-H torsion
[ 8008 7997 7996 7995 ] final -109.02 input   59.86 | X-H torsion
[ 10167 10162 10161 10158 ] final   52.77 input  -65.29 | X-H torsion
[ 10718 10713 10712 10709 ] final   -3.13 input   66.30 | X-H torsion
[ 10763 10752 10751 10750 ] final -141.97 input  -60.55 | X-H torsion
[ 11005 11000 10999 10996 ] final  -82.99 input  -57.11 | X-H torsion

> <Gold.Protein.ActiveResidues>
 VAL166  LYS551  ARG553  GLY616  TRP617  ASP618  TYR619  PRO620  LYS621  CYS622 
 ASP623  PHE694  ASN695  SER759  ASP760  ASP761  ALA762  ILE779  LEU786  VAL792 
 PHE793  MET794  SER795  GLU796  ALA797  LYS798  CYS799  TRP800  GLU811  SER814 

> <Gold.Protein.RotatedAtoms>
  152.3938  134.6399  160.0096 H   0  0  0  0  0  0  0  0  0  0  0  0  # atno 6907 bound_to 6896
  151.6625  133.3311  159.3185 H   0  0  0  0  0  0  0  0  0  0  0  0  # atno 6908 bound_to 6896
  150.7849  134.6869  159.6519 H   0  0  0  0  0  0  0  0  0  0  0  0  # atno 6909 bound_to 6896
  146.2443  140.0492  142.8376 H   0  0  0  0  0  0  0  0  0  0  0  0  # atno 7974 bound_to 7965
  154.9530  140.0400  157.2153 H   0  0  0  0  0  0  0  0  0  0  0  0  # atno 8008 bound_to 7997
  154.7960  140.2843  155.5934 H   0  0  0  0  0  0  0  0  0  0  0  0  # atno 8009 bound_to 7997
  156.2955  140.2564  156.2818 H   0  0  0  0  0  0  0  0  0  0  0  0  # atno 8010 bound_to 7997
  140.2479  144.3512  150.6358 H   0  0  0  0  0  0  0  0  0  0  0  0  # atno 10167 bound_to 10162
  156.7806  130.5329  149.5751 H   0  0  0  0  0  0  0  0  0  0  0  0  # atno 10718 bound_to 10713
  154.8526  135.3509  154.5953 H   0  0  0  0  0  0  0  0  0  0  0  0  # atno 10763 bound_to 10752
  153.6563  135.6992  153.5197 H   0  0  0  0  0  0  0  0  0  0  0  0  # atno 10764 bound_to 10752
  153.2854  135.4251  155.1075 H   0  0  0  0  0  0  0  0  0  0  0  0  # atno 10765 bound_to 10752
  141.1660  133.7272  156.8654 H   0  0  0  0  0  0  0  0  0  0  0  0  # atno 11005 bound_to 11000
  145.0999  140.9339  143.4719 LP  0  0  0  0  0  0  0  0  0  0  0  0  # atno 17320 bound_to 7965
  145.0683  139.3051  143.5845 LP  0  0  0  0  0  0  0  0  0  0  0  0  # atno 17321 bound_to 7965
  140.6063  143.2168  151.6974 LP  0  0  0  0  0  0  0  0  0  0  0  0  # atno 17342 bound_to 10162
  139.5056  144.3713  152.0468 LP  0  0  0  0  0  0  0  0  0  0  0  0  # atno 17343 bound_to 10162
  156.1220  130.6117  151.0208 LP  0  0  0  0  0  0  0  0  0  0  0  0  # atno 17370 bound_to 10713
  157.6648  131.0874  150.7754 LP  0  0  0  0  0  0  0  0  0  0  0  0  # atno 17371 bound_to 10713
  140.1819  134.9027  157.2959 LP  0  0  0  0  0  0  0  0  0  0  0  0  # atno 17394 bound_to 11000
  140.2385  134.3823  155.7490 LP  0  0  0  0  0  0  0  0  0  0  0  0  # atno 17395 bound_to 11000

$$$$
