AV-unprocessed.smi:1213|AV-procd|sdf|5089|dock5
  -GOLD-   22720 4143D 1   1.00000     0.00000
 Structure written by MMmdl.
 36 37  0  0  0  0  0  0  0  0  3 V2000
  142.6481  140.5252  154.8646 N   0  5  0  0  0  0  0  0  0  0  0  0
  143.0201  141.5006  155.7154 C   0  0  0  0  0  0  0  0  0  0  0  0
  142.6981  141.6380  156.8939 O   0  0  0  0  0  0  0  0  0  0  0  0
  143.9762  142.5095  155.0696 C   0  0  0  0  0  0  0  0  0  0  0  0
  145.2024  141.8228  154.5920 N   0  3  2  0  0  0  0  0  0  0  0  0
  145.9120  141.1124  155.6856 C   0  0  0  0  0  0  0  0  0  0  0  0
  147.0907  140.2875  155.1397 C   0  0  0  0  0  0  0  0  0  0  0  0
  148.0739  141.1525  154.3263 C   0  0  2  0  0  0  0  0  0  0  0  0
  148.8291  142.0694  155.1799 N   0  0  0  0  0  0  0  0  0  0  0  0
  149.7335  141.7035  156.1000 C   0  0  0  0  0  0  0  0  0  0  0  0
  150.0215  140.5303  156.3381 O   0  0  0  0  0  0  0  0  0  0  0  0
  150.2668  142.7753  156.7121 N   0  0  0  0  0  0  0  0  0  0  0  0
  151.2440  142.8014  157.7417 C   0  0  0  0  0  0  0  0  0  0  0  0
  151.5879  141.7413  158.4822 N   0  0  0  0  0  0  0  0  0  0  0  0
  152.5745  142.0554  159.4205 C   0  0  0  0  0  0  0  0  0  0  0  0
  152.9720  143.3685  159.3803 C   0  0  0  0  0  0  0  0  0  0  0  0
  152.1172  144.2691  158.1564 S   0  0  0  0  0  0  0  0  0  0  0  0
  147.3049  141.9329  153.2463 C   0  0  0  0  0  0  0  0  0  0  0  0
  146.1182  142.7178  153.8342 C   0  0  0  0  0  0  0  0  0  0  0  0
  142.8103  140.6531  153.8588 H   0  0  0  0  0  0  0  0  0  0  0  0
  143.5144  143.0713  154.2547 H   0  0  0  0  0  0  0  0  0  0  0  0
  144.2331  143.2364  155.8413 H   0  0  0  0  0  0  0  0  0  0  0  0
  146.2616  141.8344  156.4253 H   0  0  0  0  0  0  0  0  0  0  0  0
  145.2199  140.4442  156.1991 H   0  0  0  0  0  0  0  0  0  0  0  0
  147.6052  139.7831  155.9581 H   0  0  0  0  0  0  0  0  0  0  0  0
  146.7009  139.4953  154.4991 H   0  0  0  0  0  0  0  0  0  0  0  0
  148.7882  140.4969  153.8247 H   0  0  0  0  0  0  0  0  0  0  0  0
  148.6594  143.0561  155.0499 H   0  0  0  0  0  0  0  0  0  0  0  0
  149.9373  143.6788  156.4058 H   0  0  0  0  0  0  0  0  0  0  0  0
  152.9382  141.2805  160.0792 H   0  0  0  0  0  0  0  0  0  0  0  0
  153.7128  143.8585  159.9946 H   0  0  0  0  0  0  0  0  0  0  0  0
  147.9771  142.6093  152.7166 H   0  0  0  0  0  0  0  0  0  0  0  0
  146.9298  141.2330  152.4986 H   0  0  0  0  0  0  0  0  0  0  0  0
  145.5813  143.2055  153.0202 H   0  0  0  0  0  0  0  0  0  0  0  0
  146.4769  143.5122  154.4904 H   0  0  0  0  0  0  0  0  0  0  0  0
  144.8849  141.1121  153.9480 H   0  0  0  0  0  0  0  0  0  0  0  0
  1  2  1  0  0  0  0
  1 20  1  0  0  0  0
  2  3  2  0  0  0  0
  2  4  1  0  0  0  0
  4  5  1  0  0  0  0
  4 21  1  0  0  0  0
  4 22  1  0  0  0  0
  5 19  1  0  0  0  0
  5  6  1  0  0  0  0
  5 36  1  0  0  0  0
  6  7  1  0  0  0  0
  6 23  1  0  0  0  0
  6 24  1  0  0  0  0
  7  8  1  0  0  0  0
  7 25  1  0  0  0  0
  7 26  1  0  0  0  0
  8  9  1  0  0  0  0
  8 18  1  0  0  0  0
  8 27  1  0  0  0  0
  9 10  1  0  0  0  0
  9 28  1  0  0  0  0
 10 11  2  0  0  0  0
 10 12  1  0  0  0  0
 12 13  1  0  0  0  0
 12 29  1  0  0  0  0
 13 17  1  0  0  0  0
 13 14  2  0  0  0  0
 14 15  1  0  0  0  0
 15 16  2  0  0  0  0
 15 30  1  0  0  0  0
 16 17  1  0  0  0  0
 16 31  1  0  0  0  0
 18 19  1  0  0  0  0
 18 32  1  0  0  0  0
 18 33  1  0  0  0  0
 19 34  1  0  0  0  0
 19 35  1  0  0  0  0
M  CHG  1   1  -1
M  CHG  1   5   1
M  END
> <s_m_source_file>
AV-unprocessed.smi

> <i_m_source_file_index>
1213

> <i_lp_mmshare_version>
43012

> <i_f3d_flags>
0

> <s_epik_input>
W05IMl1DKD1PKVtDSDJdTjFbQ0gyXVtDSDJdW0NIXShbQ0gyXVtDSDJdMSlbTkhdQyg9TylbTkhdYzJuW2NIXVtjSF1zMg==

> <s_epik_cmdline>
J2VwaWtfcHl0aG9uJywgJy1waCcsICc3LjAnLCAnLXRuJywgJzgnLCAnLW1hJywgJzIwMCcsICctbWV0YWxfYmluZGluZycsICctaW1hZScsICc8aW5maWxlLm1hZT4nLCAnLW9tYWUnLCAnPG91dGZpbGUubWFlPic=

> <r_lp_tautomer_probability>
0.999

> <r_epik_Ionization_Penalty>
5.73166

> <r_epik_Ionization_Penalty_Charging>
5.73152

> <r_epik_Ionization_Penalty_Neutral>
0.000139308

> <r_epik_State_Penalty>
6.57436

> <r_epik_Charging_Adjusted_Penalty>
12.3059

> <i_epik_Tot_Q>
0

> <i_epik_Tot_abs_Q>
2

> <r_epik_Metal_State_Penalty>
2.57084

> <b_epik_Metal_Only>
1

> <s_lp_Force_Field>
OPLS_2005

> <r_lp_Energy>
6.02298

> <b_lp_Chiralities_Consistent>
1

> <s_lp_Variant>
AV-unprocessed.smi:1213-6

> <Gold.Version>
5.8.1

> <Gold.Id.Protein>
6NUR|6NUR_protein|mol2

> <Gold.PLP.Fitness>
46.3327

> <Gold.PLP.PLP>
-31.5817

> <Gold.PLP.part.hbond>
-4.0000

> <Gold.PLP.part.metal>
0.0000

> <Gold.PLP.part.buried>
-5.3158

> <Gold.PLP.part.nonpolar>
-23.6118

> <Gold.PLP.part.repulsive>
0.2798

> <Gold.PLP.ligand.clash>
0.0000

> <Gold.PLP.ligand.torsion>
0.1234

> <Gold.PLP.Chemscore.Hbond>
4.9920

> <Gold.PLP.Chemscore.CHOScore>
0.0000

> <Gold.PLP.Chemscore.Metal>
0.0000

> <Gold.Chemscore.Hbonds>
donor molecule, donor type, donor heavy atom, donor atom, acceptor molecule, acceptor atom, score
      L1  H     1    20       P1 10175  1.00
      L1  H     5    36       P1 10175  2.00
      L1  H     9    28       P1  8028  0.98
      L1  H    12    29       P1  8028  1.00

> <Gold.PLP.Chemscore.Internal.Correction>
0.0218

> <Gold.Rescore>
     Score         DG    S(hbond)    S(metal)    S(lipo)     H(rot)  DE(clash)    DE(int)     intcor
     17.82     -20.66       3.72        0.00      67.94       2.04       1.46       1.37       ----

> <Gold.Chemscore.Fitness>
17.8217

> <Gold.Chemscore.DG>
-20.6572

> <Gold.Chemscore.ZeroCoef>
-5.4800

> <Gold.Chemscore.Hbond>
3.7241

> <Gold.Chemscore.Metal>
0.0000

> <Gold.Chemscore.Lipo>
67.9355

> <Gold.Chemscore.Internal_Hbond>
0.0000

> <Gold.Chemscore.DEClash>
1.4650

> <Gold.Chemscore.DEInternal>
1.3705

> <Gold.Chemscore.Rot>
2.0350

> <Gold.Chemscore.Internal.Correction>
   9.000000E+99

> <Gold.Chemscore.Hbonds>
donor molecule, donor type, donor heavy atom, donor atom, acceptor molecule, acceptor atom, score
      L1  H     1    20       P1 10175  0.62
      L1  H     5    36       P1 10175  0.68
      L1  H     9    28       P1  8028  0.93
      L1  H    12    29       P1  8028  0.98

> <Gold.Chemscore.Hbond.Weighted>
-12.4383

> <Gold.Chemscore.Metal.Weighted>
-0.0000

> <Gold.Chemscore.Lipo.Weighted>
-7.9484

> <Gold.Chemscore.Internal_Hbond.Weighted>
0.0000

> <Gold.Chemscore.DEClash.Weighted>
1.4650

> <Gold.Chemscore.DEInternal.Weighted>
1.3705

> <Gold.Chemscore.Rot.Weighted>
5.2096

> <Gold.Chemscore.Internal.Correction.Weighted>
   9.000000E+99

> <Gold.Protein.RotatedTorsions>
[ 6907 6896 6895 6894 ] final   90.94 input  -60.11 | X-H torsion
[ 7974 7965 7964 7962 ] final -112.97 input  175.53 | X-H torsion
[ 8008 7997 7996 7995 ] final  111.00 input   59.86 | X-H torsion
[ 10167 10162 10161 10158 ] final   45.65 input  -65.29 | X-H torsion
[ 10718 10713 10712 10709 ] final  -32.95 input   66.30 | X-H torsion
[ 10763 10752 10751 10750 ] final -108.00 input  -60.55 | X-H torsion
[ 11005 11000 10999 10996 ] final  109.47 input  -57.11 | X-H torsion

> <Gold.Protein.ActiveResidues>
 VAL166  LYS551  ARG553  GLY616  TRP617  ASP618  TYR619  PRO620  LYS621  CYS622 
 ASP623  PHE694  ASN695  SER759  ASP760  ASP761  ALA762  ILE779  LEU786  VAL792 
 PHE793  MET794  SER795  GLU796  ALA797  LYS798  CYS799  TRP800  GLU811  SER814 

> <Gold.Protein.RotatedAtoms>
  152.5447  134.1734  159.8605 H   0  0  0  0  0  0  0  0  0  0  0  0  # atno 6907 bound_to 6896
  151.1742  133.4758  159.2601 H   0  0  0  0  0  0  0  0  0  0  0  0  # atno 6908 bound_to 6896
  151.1243  135.0108  159.8608 H   0  0  0  0  0  0  0  0  0  0  0  0  # atno 6909 bound_to 6896
  145.1377  140.8760  143.3721 H   0  0  0  0  0  0  0  0  0  0  0  0  # atno 7974 bound_to 7965
  156.2093  140.3027  155.9697 H   0  0  0  0  0  0  0  0  0  0  0  0  # atno 8008 bound_to 7997
  155.2763  140.0436  157.3028 H   0  0  0  0  0  0  0  0  0  0  0  0  # atno 8009 bound_to 7997
  154.5677  140.2339  155.8247 H   0  0  0  0  0  0  0  0  0  0  0  0  # atno 8010 bound_to 7997
  140.3220  144.2694  150.6181 H   0  0  0  0  0  0  0  0  0  0  0  0  # atno 10167 bound_to 10162
  156.3686  130.4336  149.7564 H   0  0  0  0  0  0  0  0  0  0  0  0  # atno 10718 bound_to 10713
  154.8109  135.4654  154.0515 H   0  0  0  0  0  0  0  0  0  0  0  0  # atno 10763 bound_to 10752
  153.1946  135.6860  153.8315 H   0  0  0  0  0  0  0  0  0  0  0  0  # atno 10764 bound_to 10752
  153.7821  135.3255  155.3344 H   0  0  0  0  0  0  0  0  0  0  0  0  # atno 10765 bound_to 10752
  139.8863  134.9459  156.6130 H   0  0  0  0  0  0  0  0  0  0  0  0  # atno 11005 bound_to 11000
  145.0567  139.3138  143.5901 LP  0  0  0  0  0  0  0  0  0  0  0  0  # atno 17320 bound_to 7965
  146.3508  139.9994  142.8677 LP  0  0  0  0  0  0  0  0  0  0  0  0  # atno 17321 bound_to 7965
  140.5475  143.2212  151.7983 LP  0  0  0  0  0  0  0  0  0  0  0  0  # atno 17342 bound_to 10162
  139.4872  144.4520  151.9642 LP  0  0  0  0  0  0  0  0  0  0  0  0  # atno 17343 bound_to 10162
  156.4700  130.7992  151.3010 LP  0  0  0  0  0  0  0  0  0  0  0  0  # atno 17370 bound_to 10713
  157.7481  131.0039  150.3054 LP  0  0  0  0  0  0  0  0  0  0  0  0  # atno 17371 bound_to 10713
  140.7797  133.8670  155.8557 LP  0  0  0  0  0  0  0  0  0  0  0  0  # atno 17394 bound_to 11000
  140.9771  134.1454  157.4526 LP  0  0  0  0  0  0  0  0  0  0  0  0  # atno 17395 bound_to 11000

$$$$
