AV-unprocessed.smi:274|AV-procd|sdf|2058|dock7
  -GOLD-   2262021303D 1   1.00000     0.00000
 Structure written by MMmdl.
 50 53  0  0  0  0  0  0  0  0  1 V2000
  148.6426  139.5493  153.8580 C   0  0  0  0  0  0  0  0  0  0  0  0
  148.5318  140.7468  154.8230 C   0  0  0  0  0  0  0  0  0  0  0  0
  149.3280  141.9306  154.2390 C   0  0  0  0  0  0  0  0  0  0  0  0
  148.9547  140.4013  156.2869 C   0  0  2  0  0  0  0  0  0  0  0  0
  148.9411  141.6426  157.2110 C   0  0  0  0  0  0  0  0  0  0  0  0
  147.8788  142.0414  157.6841 O   0  0  0  0  0  0  0  0  0  0  0  0
  150.1035  142.2509  157.5087 N   0  0  0  0  0  0  0  0  0  0  0  0
  151.4360  141.8393  157.0651 C   0  0  0  0  0  0  0  0  0  0  0  0
  151.4223  140.6603  156.0712 C   0  0  0  0  0  0  0  0  0  0  0  0
  150.2847  139.7695  156.3100 N   0  0  0  0  0  0  0  0  0  0  0  0
  150.4482  138.7322  157.1782 C   0  0  0  0  0  0  0  0  0  0  0  0
  151.6930  138.2359  157.4129 N   0  0  0  0  0  0  0  0  0  0  0  0
  151.8734  137.2280  158.2705 C   0  0  0  0  0  0  0  0  0  0  0  0
  150.9617  136.5724  158.9895 N   0  0  0  0  0  0  0  0  0  0  0  0
  149.7081  137.0536  158.7531 C   0  0  0  0  0  0  0  0  0  0  0  0
  149.3652  138.1196  157.8730 C   0  0  0  0  0  0  0  0  0  0  0  0
  147.9895  138.3167  157.8905 N   0  0  0  0  0  0  0  0  0  0  0  0
  147.5472  137.4291  158.7382 C   0  0  0  0  0  0  0  0  0  0  0  0
  148.5114  136.6236  159.2996 N   0  0  0  0  0  0  0  0  0  0  0  0
  148.2993  135.5572  160.2661 C   0  0  0  0  0  0  0  0  0  0  0  0
  147.2640  135.9145  161.3576 C   0  0  1  0  0  0  0  0  0  0  0  0
  147.4803  137.2513  161.7768 O   0  0  0  0  0  0  0  0  0  0  0  0
  145.8116  135.7746  160.9105 C   0  0  0  0  0  0  0  0  0  0  0  0
  145.0984  135.3732  162.1937 C   0  0  0  0  0  0  0  0  0  0  0  0
  146.0250  134.4870  162.7977 O   0  0  0  0  0  0  0  0  0  0  0  0
  147.3392  134.9972  162.5946 C   0  0  0  0  0  0  0  0  0  0  0  0
  149.6524  139.1371  153.8533 H   0  0  0  0  0  0  0  0  0  0  0  0
  148.4031  139.8459  152.8365 H   0  0  0  0  0  0  0  0  0  0  0  0
  147.9529  138.7469  154.1175 H   0  0  0  0  0  0  0  0  0  0  0  0
  147.4824  141.0435  154.8272 H   0  0  0  0  0  0  0  0  0  0  0  0
  150.3908  141.6984  154.1763 H   0  0  0  0  0  0  0  0  0  0  0  0
  149.2165  142.8364  154.8347 H   0  0  0  0  0  0  0  0  0  0  0  0
  148.9865  142.1715  153.2322 H   0  0  0  0  0  0  0  0  0  0  0  0
  148.2059  139.7204  156.6921 H   0  0  0  0  0  0  0  0  0  0  0  0
  150.0620  143.0555  158.1171 H   0  0  0  0  0  0  0  0  0  0  0  0
  151.9617  142.6928  156.6365 H   0  0  0  0  0  0  0  0  0  0  0  0
  151.9919  141.5532  157.9581 H   0  0  0  0  0  0  0  0  0  0  0  0
  151.3384  141.0483  155.0566 H   0  0  0  0  0  0  0  0  0  0  0  0
  152.3719  140.1233  156.0890 H   0  0  0  0  0  0  0  0  0  0  0  0
  152.8945  136.9010  158.3998 H   0  0  0  0  0  0  0  0  0  0  0  0
  146.4975  137.3319  158.9742 H   0  0  0  0  0  0  0  0  0  0  0  0
  147.9796  134.6659  159.7248 H   0  0  0  0  0  0  0  0  0  0  0  0
  149.2596  135.3096  160.7205 H   0  0  0  0  0  0  0  0  0  0  0  0
  147.0310  137.3840  162.5976 H   0  0  0  0  0  0  0  0  0  0  0  0
  145.4012  136.6745  160.4505 H   0  0  0  0  0  0  0  0  0  0  0  0
  145.7147  134.9608  160.1913 H   0  0  0  0  0  0  0  0  0  0  0  0
  144.9356  136.2364  162.8407 H   0  0  0  0  0  0  0  0  0  0  0  0
  144.1387  134.8893  162.0106 H   0  0  0  0  0  0  0  0  0  0  0  0
  148.0251  134.1618  162.4504 H   0  0  0  0  0  0  0  0  0  0  0  0
  147.6649  135.5347  163.4867 H   0  0  0  0  0  0  0  0  0  0  0  0
  1  2  1  0  0  0  0
  1 27  1  0  0  0  0
  1 28  1  0  0  0  0
  1 29  1  0  0  0  0
  2  3  1  0  0  0  0
  2  4  1  0  0  0  0
  2 30  1  0  0  0  0
  3 31  1  0  0  0  0
  3 32  1  0  0  0  0
  3 33  1  0  0  0  0
  4 10  1  0  0  0  0
  4  5  1  0  0  0  0
  4 34  1  0  0  0  0
  5  6  2  0  0  0  0
  5  7  1  0  0  0  0
  7  8  1  0  0  0  0
  7 35  1  0  0  0  0
  8  9  1  0  0  0  0
  8 36  1  0  0  0  0
  8 37  1  0  0  0  0
  9 10  1  0  0  0  0
  9 38  1  0  0  0  0
  9 39  1  0  0  0  0
 10 11  1  0  0  0  0
 11 16  1  0  0  0  0
 11 12  2  0  0  0  0
 12 13  1  0  0  0  0
 13 14  2  0  0  0  0
 13 40  1  0  0  0  0
 14 15  1  0  0  0  0
 15 19  1  0  0  0  0
 15 16  2  0  0  0  0
 16 17  1  0  0  0  0
 17 18  2  0  0  0  0
 18 19  1  0  0  0  0
 18 41  1  0  0  0  0
 19 20  1  0  0  0  0
 20 21  1  0  0  0  0
 20 42  1  0  0  0  0
 20 43  1  0  0  0  0
 21 26  1  0  0  0  0
 21 22  1  0  0  0  0
 21 23  1  0  0  0  0
 22 44  1  0  0  0  0
 23 24  1  0  0  0  0
 23 45  1  0  0  0  0
 23 46  1  0  0  0  0
 24 25  1  0  0  0  0
 24 47  1  0  0  0  0
 24 48  1  0  0  0  0
 25 26  1  0  0  0  0
 26 49  1  0  0  0  0
 26 50  1  0  0  0  0
M  END
> <s_m_source_file>
AV-unprocessed.smi

> <i_m_source_file_index>
274

> <i_lp_mmshare_version>
43012

> <i_f3d_flags>
0

> <s_epik_input>
W0NIM11bQ0hdKFtDSDNdKVtDQEBIXTFDKD1PKVtOSF1bQ0gyXVtDSDJdTjFjKG5bY0hdbjIpYyhjMjMpbltjSF1uM1tDSDJdW0NAQF00KFtPSF0pW0NIMl1bQ0gyXU9bQ0gyXTQ=

> <s_epik_cmdline>
J2VwaWtfcHl0aG9uJywgJy1waCcsICc3LjAnLCAnLXRuJywgJzgnLCAnLW1hJywgJzIwMCcsICctbWV0YWxfYmluZGluZycsICctaW1hZScsICc8aW5maWxlLm1hZT4nLCAnLW9tYWUnLCAnPG91dGZpbGUubWFlPic=

> <r_lp_tautomer_probability>
1

> <r_epik_Ionization_Penalty>
0.000690079

> <r_epik_Ionization_Penalty_Charging>
0

> <r_epik_Ionization_Penalty_Neutral>
0.000690079

> <r_epik_State_Penalty>
0.000321372

> <r_epik_Charging_Adjusted_Penalty>
0.000321372

> <i_epik_Tot_Q>
0

> <i_epik_Tot_abs_Q>
0

> <r_epik_Metal_State_Penalty>
-0

> <b_epik_Metal_Only>
0

> <s_lp_Force_Field>
OPLS_2005

> <r_lp_Energy>
40.3696

> <b_lp_Chiralities_Consistent>
1

> <s_lp_Variant>
AV-unprocessed.smi:274-1

> <Gold.Version>
5.8.1

> <Gold.Id.Protein>
6NUR|6NUR_protein|mol2

> <Gold.PLP.Fitness>
43.6577

> <Gold.PLP.PLP>
-37.4269

> <Gold.PLP.part.hbond>
-5.0000

> <Gold.PLP.part.metal>
0.0000

> <Gold.PLP.part.buried>
-5.8323

> <Gold.PLP.part.nonpolar>
-26.7547

> <Gold.PLP.part.repulsive>
0.1554

> <Gold.PLP.ligand.clash>
0.0000

> <Gold.PLP.ligand.torsion>
0.7198

> <Gold.PLP.Chemscore.Hbond>
2.4571

> <Gold.PLP.Chemscore.CHOScore>
0.0000

> <Gold.PLP.Chemscore.Metal>
0.0000

> <Gold.Chemscore.Hbonds>
donor molecule, donor type, donor heavy atom, donor atom, acceptor molecule, acceptor atom, score
      P1  H  6896  6907       L1    14  0.70
      P1  H  6931  6943       L1    22  0.91
      P1  H  6934  6947       L1    22  0.71

> <Gold.PLP.Chemscore.Internal.Correction>
0.2990

> <Gold.Rescore>
     Score         DG    S(hbond)    S(metal)    S(lipo)     H(rot)  DE(clash)    DE(int)     intcor
     10.32     -14.74       1.99        0.00      69.23       2.14       1.31       3.11       ----

> <Gold.Chemscore.Fitness>
10.3187

> <Gold.Chemscore.DG>
-14.7398

> <Gold.Chemscore.ZeroCoef>
-5.4800

> <Gold.Chemscore.Hbond>
1.9897

> <Gold.Chemscore.Metal>
0.0000

> <Gold.Chemscore.Lipo>
69.2349

> <Gold.Chemscore.Internal_Hbond>
0.0000

> <Gold.Chemscore.DEClash>
1.3082

> <Gold.Chemscore.DEInternal>
3.1129

> <Gold.Chemscore.Rot>
2.1431

> <Gold.Chemscore.Internal.Correction>
   9.000000E+99

> <Gold.Chemscore.Hbonds>
donor molecule, donor type, donor heavy atom, donor atom, acceptor molecule, acceptor atom, score
      P1  H  6896  6907       L1    14  0.52
      P1  H  6931  6943       L1    22  0.45
      P1  H  6934  6947       L1    22  0.16

> <Gold.Chemscore.Hbond.Weighted>
-6.6456

> <Gold.Chemscore.Metal.Weighted>
-0.0000

> <Gold.Chemscore.Lipo.Weighted>
-8.1005

> <Gold.Chemscore.Internal_Hbond.Weighted>
0.0000

> <Gold.Chemscore.DEClash.Weighted>
1.3082

> <Gold.Chemscore.DEInternal.Weighted>
3.1129

> <Gold.Chemscore.Rot.Weighted>
5.4863

> <Gold.Chemscore.Internal.Correction.Weighted>
   9.000000E+99

> <Gold.Protein.RotatedTorsions>
[ 6907 6896 6895 6894 ] final  -50.99 input  -60.11 | X-H torsion
[ 7974 7965 7964 7962 ] final  -53.53 input  175.53 | X-H torsion
[ 8008 7997 7996 7995 ] final   16.47 input   59.86 | X-H torsion
[ 10167 10162 10161 10158 ] final  -64.91 input  -65.29 | X-H torsion
[ 10718 10713 10712 10709 ] final   51.90 input   66.30 | X-H torsion
[ 10763 10752 10751 10750 ] final   86.70 input  -60.55 | X-H torsion
[ 11005 11000 10999 10996 ] final -149.45 input  -57.11 | X-H torsion

> <Gold.Protein.ActiveResidues>
 VAL166  LYS551  ARG553  GLY616  TRP617  ASP618  TYR619  PRO620  LYS621  CYS622 
 ASP623  PHE694  ASN695  SER759  ASP760  ASP761  ALA762  ILE779  LEU786  VAL792 
 PHE793  MET794  SER795  GLU796  ALA797  LYS798  CYS799  TRP800  GLU811  SER814 

> <Gold.Protein.RotatedAtoms>
  150.8654  134.8016  159.7114 H   0  0  0  0  0  0  0  0  0  0  0  0  # atno 6907 bound_to 6896
  152.4677  134.5032  159.9741 H   0  0  0  0  0  0  0  0  0  0  0  0  # atno 6908 bound_to 6896
  151.5129  133.3443  159.2923 H   0  0  0  0  0  0  0  0  0  0  0  0  # atno 6909 bound_to 6896
  145.8958  140.8034  142.9768 H   0  0  0  0  0  0  0  0  0  0  0  0  # atno 7974 bound_to 7965
  154.8774  140.2968  155.5445 H   0  0  0  0  0  0  0  0  0  0  0  0  # atno 8008 bound_to 7997
  156.3022  140.2449  156.3705 H   0  0  0  0  0  0  0  0  0  0  0  0  # atno 8009 bound_to 7997
  154.8753  140.0400  157.1738 H   0  0  0  0  0  0  0  0  0  0  0  0  # atno 8010 bound_to 7997
  140.5768  143.2323  151.6426 H   0  0  0  0  0  0  0  0  0  0  0  0  # atno 10167 bound_to 10162
  157.5024  130.8447  149.8333 H   0  0  0  0  0  0  0  0  0  0  0  0  # atno 10718 bound_to 10713
  153.1596  135.4570  154.9753 H   0  0  0  0  0  0  0  0  0  0  0  0  # atno 10763 bound_to 10752
  154.7887  135.3213  154.7829 H   0  0  0  0  0  0  0  0  0  0  0  0  # atno 10764 bound_to 10752
  153.8321  135.6937  153.4868 H   0  0  0  0  0  0  0  0  0  0  0  0  # atno 10765 bound_to 10752
  140.7506  134.3410  157.5126 H   0  0  0  0  0  0  0  0  0  0  0  0  # atno 11005 bound_to 11000
  144.6733  140.1600  143.7423 LP  0  0  0  0  0  0  0  0  0  0  0  0  # atno 17320 bound_to 7965
  145.8852  139.2345  143.1581 LP  0  0  0  0  0  0  0  0  0  0  0  0  # atno 17321 bound_to 7965
  139.5147  144.3402  152.0747 LP  0  0  0  0  0  0  0  0  0  0  0  0  # atno 17342 bound_to 10162
  140.2547  144.4131  150.6208 LP  0  0  0  0  0  0  0  0  0  0  0  0  # atno 17343 bound_to 10162
  156.0237  130.3786  150.1885 LP  0  0  0  0  0  0  0  0  0  0  0  0  # atno 17370 bound_to 10713
  157.0075  130.9941  151.3375 LP  0  0  0  0  0  0  0  0  0  0  0  0  # atno 17371 bound_to 10713
  139.8788  134.9140  156.3096 LP  0  0  0  0  0  0  0  0  0  0  0  0  # atno 17394 bound_to 11000
  140.9754  133.7301  156.0594 LP  0  0  0  0  0  0  0  0  0  0  0  0  # atno 17395 bound_to 11000

$$$$
