AV-unprocessed.smi:649|AV-procd|sdf|3180|dock6
  -GOLD-   22720 0103D 1   1.00000     0.00000
 Structure written by MMmdl.
 34 35  0  0  0  0  0  0  0  0  2 V2000
  154.4665  140.5771  160.2437 C   0  0  0  0  0  0  0  0  0  0  0  0
  153.3660  141.5798  159.9659 C   0  0  0  0  0  0  0  0  0  0  0  0
  153.3416  142.8150  160.6380 C   0  0  0  0  0  0  0  0  0  0  0  0
  152.3050  143.7308  160.3848 C   0  0  0  0  0  0  0  0  0  0  0  0
  151.2794  143.4273  159.4632 C   0  0  0  0  0  0  0  0  0  0  0  0
  150.1822  144.4589  159.2573 C   0  0  0  0  0  0  0  0  0  0  0  0
  151.3015  142.1811  158.7755 C   0  0  0  0  0  0  0  0  0  0  0  0
  150.2247  141.7436  157.7765 C   0  0  2  0  0  0  0  0  0  0  0  0
  149.6636  140.4788  158.0618 O   0  0  0  0  0  0  0  0  0  0  0  0
  150.6678  141.7940  156.2944 C   0  0  0  0  0  0  0  0  0  0  0  0
  149.6554  141.2371  155.3827 N   0  0  0  0  0  0  0  0  0  0  0  0
  148.4214  141.9054  155.3190 C   0  0  0  0  0  0  0  0  0  0  0  0
  147.4325  141.5075  154.4958 C   0  0  0  0  0  0  0  0  0  0  0  0
  145.9292  142.3565  154.4339 Cl  0  0  0  0  0  0  0  0  0  0  0  0
  147.6713  140.3378  153.6532 C   0  0  0  0  0  0  0  0  0  0  0  0
  146.7902  139.9487  152.8879 O   0  0  0  0  0  0  0  0  0  0  0  0
  148.8838  139.7192  153.7565 N   0  5  0  0  0  0  0  0  0  0  0  0
  149.8786  140.1405  154.5969 C   0  0  0  0  0  0  0  0  0  0  0  0
  150.9665  139.5681  154.6623 O   0  0  0  0  0  0  0  0  0  0  0  0
  152.3517  141.2722  159.0399 C   0  0  0  0  0  0  0  0  0  0  0  0
  155.3304  141.0573  160.7041 H   0  0  0  0  0  0  0  0  0  0  0  0
  154.7958  140.1023  159.3190 H   0  0  0  0  0  0  0  0  0  0  0  0
  154.1039  139.8015  160.9187 H   0  0  0  0  0  0  0  0  0  0  0  0
  154.1118  143.0626  161.3536 H   0  0  0  0  0  0  0  0  0  0  0  0
  152.2975  144.6725  160.9135 H   0  0  0  0  0  0  0  0  0  0  0  0
  150.2756  144.9284  158.2784 H   0  0  0  0  0  0  0  0  0  0  0  0
  150.2385  145.2481  160.0072 H   0  0  0  0  0  0  0  0  0  0  0  0
  149.1944  144.0101  159.3397 H   0  0  0  0  0  0  0  0  0  0  0  0
  149.3916  142.4396  157.8835 H   0  0  0  0  0  0  0  0  0  0  0  0
  150.3235  139.9494  158.4826 H   0  0  0  0  0  0  0  0  0  0  0  0
  150.9296  142.8120  156.0084 H   0  0  0  0  0  0  0  0  0  0  0  0
  151.5968  141.2344  156.1754 H   0  0  0  0  0  0  0  0  0  0  0  0
  148.3347  142.7613  155.9724 H   0  0  0  0  0  0  0  0  0  0  0  0
  152.3729  140.3157  158.5382 H   0  0  0  0  0  0  0  0  0  0  0  0
  1  2  1  0  0  0  0
  1 21  1  0  0  0  0
  1 22  1  0  0  0  0
  1 23  1  0  0  0  0
  2 20  1  0  0  0  0
  2  3  2  0  0  0  0
  3  4  1  0  0  0  0
  3 24  1  0  0  0  0
  4  5  2  0  0  0  0
  4 25  1  0  0  0  0
  5  6  1  0  0  0  0
  5  7  1  0  0  0  0
  6 26  1  0  0  0  0
  6 27  1  0  0  0  0
  6 28  1  0  0  0  0
  7  8  1  0  0  0  0
  7 20  2  0  0  0  0
  8  9  1  0  0  0  0
  8 10  1  0  0  0  0
  8 29  1  0  0  0  0
  9 30  1  0  0  0  0
 10 11  1  0  0  0  0
 10 31  1  0  0  0  0
 10 32  1  0  0  0  0
 11 18  1  0  0  0  0
 11 12  1  0  0  0  0
 12 13  2  0  0  0  0
 12 33  1  0  0  0  0
 13 14  1  0  0  0  0
 13 15  1  0  0  0  0
 15 16  2  0  0  0  0
 15 17  1  0  0  0  0
 17 18  1  0  0  0  0
 18 19  2  0  0  0  0
 20 34  1  0  0  0  0
M  CHG  1  17  -1
M  END
> <s_m_source_file>
AV-unprocessed.smi

> <i_m_source_file_index>
649

> <i_lp_mmshare_version>
43012

> <i_f3d_flags>
0

> <s_epik_input>
W0NIM11jMVtjSF1bY0hdYyhbQ0gzXSljKFtjSF0xKVtDQEhdKFtPSF0pW0NIMl1uMltjSF1jKENsKWMoPU8pW25IXWMyPU8=

> <s_epik_cmdline>
J2VwaWtfcHl0aG9uJywgJy1waCcsICc3LjAnLCAnLXRuJywgJzgnLCAnLW1hJywgJzIwMCcsICctbWV0YWxfYmluZGluZycsICctaW1hZScsICc8aW5maWxlLm1hZT4nLCAnLW9tYWUnLCAnPG91dGZpbGUubWFlPic=

> <r_epik_Ionization_Penalty>
1.7979

> <r_epik_Ionization_Penalty_Charging>
3.23819e-08

> <r_epik_Ionization_Penalty_Neutral>
1.7979

> <r_epik_State_Penalty>
1.91135

> <r_epik_Charging_Adjusted_Penalty>
1.91135

> <i_epik_Tot_Q>
-1

> <i_epik_Tot_abs_Q>
1

> <r_epik_Metal_State_Penalty>
0.014155

> <b_epik_Metal_Only>
0

> <s_lp_Force_Field>
OPLS_2005

> <r_lp_Energy>
21.5696

> <b_lp_Chiralities_Consistent>
1

> <s_lp_Variant>
AV-unprocessed.smi:649-3

> <Gold.Version>
5.8.1

> <Gold.Id.Protein>
6NUR|6NUR_protein|mol2

> <Gold.PLP.Fitness>
42.7561

> <Gold.PLP.PLP>
-39.0980

> <Gold.PLP.part.hbond>
-1.0000

> <Gold.PLP.part.metal>
0.0000

> <Gold.PLP.part.buried>
-3.7048

> <Gold.PLP.part.nonpolar>
-37.8445

> <Gold.PLP.part.repulsive>
3.1760

> <Gold.PLP.ligand.clash>
0.0000

> <Gold.PLP.ligand.torsion>
0.3096

> <Gold.PLP.Chemscore.Hbond>
0.4000

> <Gold.PLP.Chemscore.CHOScore>
0.9999

> <Gold.PLP.Chemscore.Metal>
0.0000

> <Gold.Chemscore.Hbonds>
donor molecule, donor type, donor heavy atom, donor atom, acceptor molecule, acceptor atom, score
      P1  H  7989  7998       L1    19  0.40
      L1  C    12    33       P1  8028  1.00

> <Gold.PLP.Chemscore.Internal.Correction>
0.0777

> <Gold.Rescore>
     Score         DG    S(hbond)    S(metal)    S(lipo)     H(rot)  DE(clash)    DE(int)     intcor
     12.33     -12.88       0.00        0.00     108.88       2.09       0.09       0.45       ----

> <Gold.Chemscore.Fitness>
12.3330

> <Gold.Chemscore.DG>
-12.8769

> <Gold.Chemscore.ZeroCoef>
-5.4800

> <Gold.Chemscore.Hbond>
0.0000

> <Gold.Chemscore.Metal>
0.0000

> <Gold.Chemscore.Lipo>
108.8811

> <Gold.Chemscore.Internal_Hbond>
0.0000

> <Gold.Chemscore.DEClash>
0.0911

> <Gold.Chemscore.DEInternal>
0.4529

> <Gold.Chemscore.Rot>
2.0868

> <Gold.Chemscore.Internal.Correction>
   9.000000E+99

> <Gold.Chemscore.Hbonds>
donor molecule, donor type, donor heavy atom, donor atom, acceptor molecule, acceptor atom, score
      P1  H  7989  7998       L1    19  0.01

> <Gold.Chemscore.Hbond.Weighted>
-0.0001

> <Gold.Chemscore.Metal.Weighted>
-0.0000

> <Gold.Chemscore.Lipo.Weighted>
-12.7391

> <Gold.Chemscore.Internal_Hbond.Weighted>
0.0000

> <Gold.Chemscore.DEClash.Weighted>
0.0911

> <Gold.Chemscore.DEInternal.Weighted>
0.4529

> <Gold.Chemscore.Rot.Weighted>
5.3423

> <Gold.Chemscore.Internal.Correction.Weighted>
   9.000000E+99

> <Gold.Protein.RotatedTorsions>
[ 6907 6896 6895 6894 ] final  -12.53 input  -60.11 | X-H torsion
[ 7974 7965 7964 7962 ] final -144.70 input  175.53 | X-H torsion
[ 8008 7997 7996 7995 ] final  123.20 input   59.86 | X-H torsion
[ 10167 10162 10161 10158 ] final  -72.01 input  -65.29 | X-H torsion
[ 10718 10713 10712 10709 ] final  159.63 input   66.30 | X-H torsion
[ 10763 10752 10751 10750 ] final  167.71 input  -60.55 | X-H torsion
[ 11005 11000 10999 10996 ] final -172.68 input  -57.11 | X-H torsion

> <Gold.Protein.ActiveResidues>
 VAL166  LYS551  ARG553  GLY616  TRP617  ASP618  TYR619  PRO620  LYS621  CYS622 
 ASP623  PHE694  ASN695  SER759  ASP760  ASP761  ALA762  ILE779  LEU786  VAL792 
 PHE793  MET794  SER795  GLU796  ALA797  LYS798  CYS799  TRP800  GLU811  SER814 

> <Gold.Protein.RotatedAtoms>
  151.3691  135.0919  159.9459 H   0  0  0  0  0  0  0  0  0  0  0  0  # atno 6907 bound_to 6896
  152.5140  133.9182  159.7532 H   0  0  0  0  0  0  0  0  0  0  0  0  # atno 6908 bound_to 6896
  150.9592  133.6409  159.2786 H   0  0  0  0  0  0  0  0  0  0  0  0  # atno 6909 bound_to 6896
  144.8279  140.5677  143.5535 H   0  0  0  0  0  0  0  0  0  0  0  0  # atno 7974 bound_to 7965
  156.2757  140.2768  156.1590 H   0  0  0  0  0  0  0  0  0  0  0  0  # atno 8008 bound_to 7997
  155.0774  140.0387  157.2646 H   0  0  0  0  0  0  0  0  0  0  0  0  # atno 8009 bound_to 7997
  154.6991  140.2645  155.6742 H   0  0  0  0  0  0  0  0  0  0  0  0  # atno 8010 bound_to 7997
  140.5227  143.2330  151.7402 H   0  0  0  0  0  0  0  0  0  0  0  0  # atno 10167 bound_to 10162
  157.1616  131.0588  151.2229 H   0  0  0  0  0  0  0  0  0  0  0  0  # atno 10718 bound_to 10713
  154.3579  135.2753  155.2336 H   0  0  0  0  0  0  0  0  0  0  0  0  # atno 10763 bound_to 10752
  154.4537  135.5924  153.6212 H   0  0  0  0  0  0  0  0  0  0  0  0  # atno 10764 bound_to 10752
  152.9845  135.6048  154.3796 H   0  0  0  0  0  0  0  0  0  0  0  0  # atno 10765 bound_to 10752
  140.4943  134.5954  157.4966 H   0  0  0  0  0  0  0  0  0  0  0  0  # atno 11005 bound_to 11000
  145.4960  139.1486  143.3683 LP  0  0  0  0  0  0  0  0  0  0  0  0  # atno 17320 bound_to 7965
  146.2583  140.5099  142.8864 LP  0  0  0  0  0  0  0  0  0  0  0  0  # atno 17321 bound_to 7965
  139.4928  144.4231  151.9955 LP  0  0  0  0  0  0  0  0  0  0  0  0  # atno 17342 bound_to 10162
  140.3329  144.3295  150.5983 LP  0  0  0  0  0  0  0  0  0  0  0  0  # atno 17343 bound_to 10162
  157.4127  130.7394  149.6852 LP  0  0  0  0  0  0  0  0  0  0  0  0  # atno 17370 bound_to 10713
  155.9753  130.4091  150.3860 LP  0  0  0  0  0  0  0  0  0  0  0  0  # atno 17371 bound_to 10713
  139.9750  134.7229  155.9966 LP  0  0  0  0  0  0  0  0  0  0  0  0  # atno 17394 bound_to 11000
  141.1468  133.6554  156.3892 LP  0  0  0  0  0  0  0  0  0  0  0  0  # atno 17395 bound_to 11000

$$$$
