AV-unprocessed.smi:1045|AV-procd|sdf|4546|dock1
  -GOLD-   22720 2573D 1   1.00000     0.00000
 Structure written by MMmdl.
 43 44  0  0  0  0  0  0  0  0  2 V2000
  144.4011  135.0431  151.8074 C   0  0  0  0  0  0  0  0  0  0  0  0
  144.9284  136.3188  151.4873 O   0  0  0  0  0  0  0  0  0  0  0  0
  145.7778  136.8275  152.5029 C   0  0  0  0  0  0  0  0  0  0  0  0
  146.2427  138.2426  152.1240 C   0  0  2  0  0  0  0  0  0  0  0  0
  146.3982  138.4169  150.6060 C   0  0  0  0  0  0  0  0  0  0  0  0
  147.5208  138.5257  152.7741 N   0  0  0  0  0  0  0  0  0  0  0  0
  147.7460  139.4868  153.6820 C   0  0  0  0  0  0  0  0  0  0  0  0
  146.8796  140.2608  154.0876 O   0  0  0  0  0  0  0  0  0  0  0  0
  149.0252  139.4735  154.0956 N   0  0  0  0  0  0  0  0  0  0  0  0
  149.6685  140.3564  155.0056 C   0  0  0  0  0  0  0  0  0  0  0  0
  150.6310  139.8124  155.8836 C   0  0  0  0  0  0  0  0  0  0  0  0
  151.3087  140.6545  156.7892 C   0  0  0  0  0  0  0  0  0  0  0  0
  151.0212  142.0393  156.7969 C   0  0  0  0  0  0  0  0  0  0  0  0
  151.6384  142.9621  157.6533 N   0  0  0  0  0  0  0  0  0  0  0  0
  152.5404  142.3885  158.6382 C   0  0  0  0  0  0  0  0  0  0  0  0
  152.7575  143.4867  159.6823 C   0  0  0  0  0  0  0  0  0  0  0  0
  151.5491  144.4182  159.5301 C   0  0  0  0  0  0  0  0  0  0  0  0
  150.7196  143.8061  158.3978 C   0  0  0  0  0  0  0  0  0  0  0  0
  150.1003  142.5229  155.9355 N   0  3  0  0  0  0  0  0  0  0  0  0
  149.4273  141.7514  155.0544 C   0  0  0  0  0  0  0  0  0  0  0  0
  143.7516  134.7023  151.0010 H   0  0  0  0  0  0  0  0  0  0  0  0
  143.8098  135.0772  152.7233 H   0  0  0  0  0  0  0  0  0  0  0  0
  145.1970  134.3074  151.9313 H   0  0  0  0  0  0  0  0  0  0  0  0
  145.2307  136.8568  153.4469 H   0  0  0  0  0  0  0  0  0  0  0  0
  146.6369  136.1692  152.6435 H   0  0  0  0  0  0  0  0  0  0  0  0
  145.4835  138.9486  152.4649 H   0  0  0  0  0  0  0  0  0  0  0  0
  145.4561  138.2328  150.0889 H   0  0  0  0  0  0  0  0  0  0  0  0
  147.1396  137.7280  150.1997 H   0  0  0  0  0  0  0  0  0  0  0  0
  146.7133  139.4311  150.3585 H   0  0  0  0  0  0  0  0  0  0  0  0
  148.2967  137.9371  152.5080 H   0  0  0  0  0  0  0  0  0  0  0  0
  149.5978  138.7217  153.7406 H   0  0  0  0  0  0  0  0  0  0  0  0
  150.8485  138.7544  155.8701 H   0  0  0  0  0  0  0  0  0  0  0  0
  152.0385  140.2358  157.4668 H   0  0  0  0  0  0  0  0  0  0  0  0
  152.0943  141.5107  159.1070 H   0  0  0  0  0  0  0  0  0  0  0  0
  153.4807  142.0829  158.1782 H   0  0  0  0  0  0  0  0  0  0  0  0
  152.8408  143.0745  160.6884 H   0  0  0  0  0  0  0  0  0  0  0  0
  153.6766  144.0344  159.4707 H   0  0  0  0  0  0  0  0  0  0  0  0
  150.9702  144.5011  160.4505 H   0  0  0  0  0  0  0  0  0  0  0  0
  151.8842  145.4200  159.2579 H   0  0  0  0  0  0  0  0  0  0  0  0
  150.2862  144.5753  157.7579 H   0  0  0  0  0  0  0  0  0  0  0  0
  149.9033  143.2111  158.8094 H   0  0  0  0  0  0  0  0  0  0  0  0
  148.7377  142.2872  154.4198 H   0  0  0  0  0  0  0  0  0  0  0  0
  149.9047  143.5243  155.9479 H   0  0  0  0  0  0  0  0  0  0  0  0
  1  2  1  0  0  0  0
  1 21  1  0  0  0  0
  1 22  1  0  0  0  0
  1 23  1  0  0  0  0
  2  3  1  0  0  0  0
  3  4  1  0  0  0  0
  3 24  1  0  0  0  0
  3 25  1  0  0  0  0
  4  5  1  0  0  0  0
  4  6  1  0  0  0  0
  4 26  1  0  0  0  0
  5 27  1  0  0  0  0
  5 28  1  0  0  0  0
  5 29  1  0  0  0  0
  6  7  1  0  0  0  0
  6 30  1  0  0  0  0
  7  8  2  0  0  0  0
  7  9  1  0  0  0  0
  9 10  1  0  0  0  0
  9 31  1  0  0  0  0
 10 20  1  0  0  0  0
 10 11  2  0  0  0  0
 11 12  1  0  0  0  0
 11 32  1  0  0  0  0
 12 13  2  0  0  0  0
 12 33  1  0  0  0  0
 13 14  1  0  0  0  0
 13 19  1  0  0  0  0
 14 18  1  0  0  0  0
 14 15  1  0  0  0  0
 15 16  1  0  0  0  0
 15 34  1  0  0  0  0
 15 35  1  0  0  0  0
 16 17  1  0  0  0  0
 16 36  1  0  0  0  0
 16 37  1  0  0  0  0
 17 18  1  0  0  0  0
 17 38  1  0  0  0  0
 17 39  1  0  0  0  0
 18 40  1  0  0  0  0
 18 41  1  0  0  0  0
 19 20  2  0  0  0  0
 19 43  1  0  0  0  0
 20 42  1  0  0  0  0
M  CHG  1  19   1
M  END
> <s_m_source_file>
AV-unprocessed.smi

> <i_m_source_file_index>
1045

> <i_lp_mmshare_version>
43012

> <i_f3d_flags>
0

> <s_epik_input>
W0NIM11PW0NIMl1bQ0BIXShbQ0gzXSlbTkhdQyg9TylbTkhdYzFbY0hdW2NIXWMobltjSF0xKU4yW0NIMl1bQ0gyXVtDSDJdW0NIMl0y

> <s_epik_cmdline>
J2VwaWtfcHl0aG9uJywgJy1waCcsICc3LjAnLCAnLXRuJywgJzgnLCAnLW1hJywgJzIwMCcsICctbWV0YWxfYmluZGluZycsICctaW1hZScsICc8aW5maWxlLm1hZT4nLCAnLW9tYWUnLCAnPG91dGZpbGUubWFlPic=

> <r_lp_tautomer_probability>
0.999994

> <r_epik_Ionization_Penalty>
1.10308

> <r_epik_Ionization_Penalty_Charging>
1.10306

> <r_epik_Ionization_Penalty_Neutral>
1.99752e-05

> <r_epik_State_Penalty>
1.16038

> <r_epik_Charging_Adjusted_Penalty>
2.26344

> <i_epik_Tot_Q>
1

> <i_epik_Tot_abs_Q>
1

> <r_epik_Metal_State_Penalty>
1.24746

> <b_epik_Metal_Only>
0

> <s_lp_Force_Field>
OPLS_2005

> <r_lp_Energy>
40.1243

> <b_lp_Chiralities_Consistent>
1

> <s_lp_Variant>
AV-unprocessed.smi:1045-3

> <Gold.Version>
5.8.1

> <Gold.Id.Protein>
6NUR|6NUR_protein|mol2

> <Gold.PLP.Fitness>
41.9676

> <Gold.PLP.PLP>
-34.3540

> <Gold.PLP.part.hbond>
-3.9388

> <Gold.PLP.part.metal>
0.0000

> <Gold.PLP.part.buried>
3.6462

> <Gold.PLP.part.nonpolar>
-35.6430

> <Gold.PLP.part.repulsive>
1.4941

> <Gold.PLP.ligand.clash>
0.0000

> <Gold.PLP.ligand.torsion>
0.6915

> <Gold.PLP.Chemscore.Hbond>
2.9760

> <Gold.PLP.Chemscore.CHOScore>
0.0000

> <Gold.PLP.Chemscore.Metal>
0.0000

> <Gold.Chemscore.Hbonds>
donor molecule, donor type, donor heavy atom, donor atom, acceptor molecule, acceptor atom, score
      L1  H     6    30       P1  7948  1.00
      L1  H    19    43       P1  8028  1.98

> <Gold.PLP.Chemscore.Internal.Correction>
0.0686

> <Gold.Rescore>
     Score         DG    S(hbond)    S(metal)    S(lipo)     H(rot)  DE(clash)    DE(int)     intcor
     16.85     -19.29       1.92        0.00      98.92       1.64       1.90       0.54       ----

> <Gold.Chemscore.Fitness>
16.8541

> <Gold.Chemscore.DG>
-19.2869

> <Gold.Chemscore.ZeroCoef>
-5.4800

> <Gold.Chemscore.Hbond>
1.9237

> <Gold.Chemscore.Metal>
0.0000

> <Gold.Chemscore.Lipo>
98.9239

> <Gold.Chemscore.Internal_Hbond>
0.0000

> <Gold.Chemscore.DEClash>
1.8953

> <Gold.Chemscore.DEInternal>
0.5376

> <Gold.Chemscore.Rot>
1.6376

> <Gold.Chemscore.Internal.Correction>
   9.000000E+99

> <Gold.Chemscore.Hbonds>
donor molecule, donor type, donor heavy atom, donor atom, acceptor molecule, acceptor atom, score
      L1  H     6    30       P1  7948  0.94
      L1  H    19    43       P1  8028  0.92

> <Gold.Chemscore.Hbond.Weighted>
-6.4252

> <Gold.Chemscore.Metal.Weighted>
-0.0000

> <Gold.Chemscore.Lipo.Weighted>
-11.5741

> <Gold.Chemscore.Internal_Hbond.Weighted>
0.0000

> <Gold.Chemscore.DEClash.Weighted>
1.8953

> <Gold.Chemscore.DEInternal.Weighted>
0.5376

> <Gold.Chemscore.Rot.Weighted>
4.1924

> <Gold.Chemscore.Internal.Correction.Weighted>
   9.000000E+99

> <Gold.Protein.RotatedTorsions>
[ 6907 6896 6895 6894 ] final  -37.55 input  -60.11 | X-H torsion
[ 7974 7965 7964 7962 ] final  -55.62 input  175.53 | X-H torsion
[ 8008 7997 7996 7995 ] final  164.40 input   59.86 | X-H torsion
[ 10167 10162 10161 10158 ] final  124.57 input  -65.29 | X-H torsion
[ 10718 10713 10712 10709 ] final -140.71 input   66.30 | X-H torsion
[ 10763 10752 10751 10750 ] final   17.77 input  -60.55 | X-H torsion
[ 11005 11000 10999 10996 ] final  123.84 input  -57.11 | X-H torsion

> <Gold.Protein.ActiveResidues>
 VAL166  LYS551  ARG553  GLY616  TRP617  ASP618  TYR619  PRO620  LYS621  CYS622 
 ASP623  PHE694  ASN695  SER759  ASP760  ASP761  ALA762  ILE779  LEU786  VAL792 
 PHE793  MET794  SER795  GLU796  ALA797  LYS798  CYS799  TRP800  GLU811  SER814 

> <Gold.Protein.RotatedAtoms>
  151.0133  134.9414  159.8019 H   0  0  0  0  0  0  0  0  0  0  0  0  # atno 6907 bound_to 6896
  152.5308  134.2999  159.9084 H   0  0  0  0  0  0  0  0  0  0  0  0  # atno 6908 bound_to 6896
  151.3005  133.4082  159.2673 H   0  0  0  0  0  0  0  0  0  0  0  0  # atno 6909 bound_to 6896
  145.8721  140.8208  142.9883 H   0  0  0  0  0  0  0  0  0  0  0  0  # atno 7974 bound_to 7965
  156.1883  140.1698  156.8142 H   0  0  0  0  0  0  0  0  0  0  0  0  # atno 8008 bound_to 7997
  154.5440  140.0731  156.8590 H   0  0  0  0  0  0  0  0  0  0  0  0  # atno 8009 bound_to 7997
  155.3158  140.3370  155.4245 H   0  0  0  0  0  0  0  0  0  0  0  0  # atno 8010 bound_to 7997
  139.5734  144.6951  151.3718 H   0  0  0  0  0  0  0  0  0  0  0  0  # atno 10167 bound_to 10162
  156.3255  130.7558  151.1665 H   0  0  0  0  0  0  0  0  0  0  0  0  # atno 10718 bound_to 10713
  153.1308  135.6740  153.9181 H   0  0  0  0  0  0  0  0  0  0  0  0  # atno 10763 bound_to 10752
  153.8667  135.3074  155.3441 H   0  0  0  0  0  0  0  0  0  0  0  0  # atno 10764 bound_to 10752
  154.7706  135.4941  153.9722 H   0  0  0  0  0  0  0  0  0  0  0  0  # atno 10765 bound_to 10752
  139.9331  134.9641  156.8320 H   0  0  0  0  0  0  0  0  0  0  0  0  # atno 11005 bound_to 11000
  144.6726  140.1255  143.7447 LP  0  0  0  0  0  0  0  0  0  0  0  0  # atno 17320 bound_to 7965
  145.9124  139.2495  143.1429 LP  0  0  0  0  0  0  0  0  0  0  0  0  # atno 17321 bound_to 7965
  140.7018  143.7613  150.7415 LP  0  0  0  0  0  0  0  0  0  0  0  0  # atno 17342 bound_to 10162
  140.1126  143.4685  152.2361 LP  0  0  0  0  0  0  0  0  0  0  0  0  # atno 17343 bound_to 10162
  157.7420  131.0495  150.5053 LP  0  0  0  0  0  0  0  0  0  0  0  0  # atno 17370 bound_to 10713
  156.5212  130.4162  149.6250 LP  0  0  0  0  0  0  0  0  0  0  0  0  # atno 17371 bound_to 10713
  140.6148  134.0049  155.7592 LP  0  0  0  0  0  0  0  0  0  0  0  0  # atno 17394 bound_to 11000
  141.0931  133.9886  157.3205 LP  0  0  0  0  0  0  0  0  0  0  0  0  # atno 17395 bound_to 11000

$$$$
