AV-unprocessed.smi:2060|AV-procd|sdf|8358|dock8
  -GOLD-   2272011 33D 1   1.00000     0.00000
 Structure written by MMmdl.
 45 46  0  0  0  0  0  0  0  0  3 V2000
  151.6915  138.8504  155.1403 C   0  0  0  0  0  0  0  0  0  0  0  0
  152.0275  139.8805  156.2462 C   0  0  0  0  0  0  0  0  0  0  0  0
  150.8589  140.4915  157.1172 C   0  0  1  0  0  0  0  0  0  0  0  0
  149.6653  140.7589  156.1525 C   0  0  0  0  0  0  0  0  0  0  0  0
  150.4278  139.4834  158.2462 C   0  0  0  0  0  0  0  0  0  0  0  0
  150.1666  138.1525  157.6879 N   0  5  0  0  0  0  0  0  0  0  0  0
  149.6697  137.1023  158.3960 C   0  0  0  0  0  0  0  0  0  0  0  0
  149.8654  135.8982  158.1942 O   0  0  0  0  0  0  0  0  0  0  0  0
  148.8852  137.5036  159.4130 N   0  0  0  0  0  0  0  0  0  0  0  0
  148.2027  136.7134  160.3751 C   0  0  0  0  0  0  0  0  0  0  0  0
  148.0807  135.3087  160.2026 C   0  0  0  0  0  0  0  0  0  0  0  0
  147.3740  134.9221  161.3064 C   0  0  0  0  0  0  0  0  0  0  0  0
  146.8821  133.5991  161.7843 C   0  0  0  0  0  0  0  0  0  0  0  0
  147.0903  135.9986  162.0886 O   0  0  0  0  0  0  0  0  0  0  0  0
  147.6241  137.1438  161.4864 N   0  0  0  0  0  0  0  0  0  0  0  0
  151.2832  141.7831  157.8004 N   0  3  0  0  0  0  0  0  0  0  0  0
  152.4507  141.7272  158.7273 C   0  0  0  0  0  0  0  0  0  0  0  0
  152.5945  143.0474  159.5059 C   0  0  0  0  0  0  0  0  0  0  0  0
  152.7022  144.1432  158.6094 O   0  0  0  0  0  0  0  0  0  0  0  0
  151.5486  144.2605  157.7905 C   0  0  0  0  0  0  0  0  0  0  0  0
  151.4137  142.9950  156.9321 C   0  0  0  0  0  0  0  0  0  0  0  0
  152.6017  138.5587  154.6161 H   0  0  0  0  0  0  0  0  0  0  0  0
  151.0139  139.2546  154.3897 H   0  0  0  0  0  0  0  0  0  0  0  0
  151.2548  137.9341  155.5369 H   0  0  0  0  0  0  0  0  0  0  0  0
  152.7871  139.4296  156.8881 H   0  0  0  0  0  0  0  0  0  0  0  0
  152.5338  140.6904  155.7207 H   0  0  0  0  0  0  0  0  0  0  0  0
  149.3307  139.8591  155.6352 H   0  0  0  0  0  0  0  0  0  0  0  0
  149.9466  141.4773  155.3816 H   0  0  0  0  0  0  0  0  0  0  0  0
  148.7784  141.1550  156.6495 H   0  0  0  0  0  0  0  0  0  0  0  0
  151.2157  139.4355  158.9983 H   0  0  0  0  0  0  0  0  0  0  0  0
  149.5623  139.8834  158.7746 H   0  0  0  0  0  0  0  0  0  0  0  0
  148.7723  138.5012  159.5115 H   0  0  0  0  0  0  0  0  0  0  0  0
  148.4490  134.6855  159.4013 H   0  0  0  0  0  0  0  0  0  0  0  0
  147.0922  132.8181  161.0533 H   0  0  0  0  0  0  0  0  0  0  0  0
  145.8055  133.6245  161.9518 H   0  0  0  0  0  0  0  0  0  0  0  0
  147.3649  133.3238  162.7221 H   0  0  0  0  0  0  0  0  0  0  0  0
  152.3386  140.9456  159.4763 H   0  0  0  0  0  0  0  0  0  0  0  0
  153.3597  141.5162  158.1622 H   0  0  0  0  0  0  0  0  0  0  0  0
  151.7449  143.1952  160.1747 H   0  0  0  0  0  0  0  0  0  0  0  0
  153.4867  143.0171  160.1314 H   0  0  0  0  0  0  0  0  0  0  0  0
  150.6577  144.4177  158.4010 H   0  0  0  0  0  0  0  0  0  0  0  0
  151.6579  145.1373  157.1522 H   0  0  0  0  0  0  0  0  0  0  0  0
  152.2917  142.9042  156.2909 H   0  0  0  0  0  0  0  0  0  0  0  0
  150.5516  143.1157  156.2771 H   0  0  0  0  0  0  0  0  0  0  0  0
  150.4955  141.9742  158.4054 H   0  0  0  0  0  0  0  0  0  0  0  0
  1  2  1  0  0  0  0
  1 22  1  0  0  0  0
  1 23  1  0  0  0  0
  1 24  1  0  0  0  0
  2  3  1  0  0  0  0
  2 25  1  0  0  0  0
  2 26  1  0  0  0  0
  3  4  1  0  0  0  0
  3  5  1  0  0  0  0
  3 16  1  0  0  0  0
  4 27  1  0  0  0  0
  4 28  1  0  0  0  0
  4 29  1  0  0  0  0
  5  6  1  0  0  0  0
  5 30  1  0  0  0  0
  5 31  1  0  0  0  0
  6  7  1  0  0  0  0
  7  8  2  0  0  0  0
  7  9  1  0  0  0  0
  9 10  1  0  0  0  0
  9 32  1  0  0  0  0
 10 15  2  0  0  0  0
 10 11  1  0  0  0  0
 11 12  2  0  0  0  0
 11 33  1  0  0  0  0
 12 13  1  0  0  0  0
 12 14  1  0  0  0  0
 13 34  1  0  0  0  0
 13 35  1  0  0  0  0
 13 36  1  0  0  0  0
 14 15  1  0  0  0  0
 16 21  1  0  0  0  0
 16 17  1  0  0  0  0
 16 45  1  0  0  0  0
 17 18  1  0  0  0  0
 17 37  1  0  0  0  0
 17 38  1  0  0  0  0
 18 19  1  0  0  0  0
 18 39  1  0  0  0  0
 18 40  1  0  0  0  0
 19 20  1  0  0  0  0
 20 21  1  0  0  0  0
 20 41  1  0  0  0  0
 20 42  1  0  0  0  0
 21 43  1  0  0  0  0
 21 44  1  0  0  0  0
M  CHG  1   6  -1
M  CHG  1  16   1
M  END
> <s_m_source_file>
AV-unprocessed.smi

> <i_m_source_file_index>
2060

> <i_lp_mmshare_version>
43012

> <i_f3d_flags>
0

> <s_epik_input>
W0NIMl0xW0NIMl1PW0NIMl1bQ0gyXU4xW0NAQF0oW0NIM10pKFtDSDJdW0NIM10pW0NIMl1bTkhdQyg9TylbTkhdYzJbY0hdYyhbQ0gzXSlvbjI=

> <s_epik_cmdline>
J2VwaWtfcHl0aG9uJywgJy1waCcsICc3LjAnLCAnLXRuJywgJzgnLCAnLW1hJywgJzIwMCcsICctbWV0YWxfYmluZGluZycsICctaW1hZScsICc8aW5maWxlLm1hZT4nLCAnLW9tYWUnLCAnPG91dGZpbGUubWFlPic=

> <r_epik_Ionization_Penalty>
6.79469

> <r_epik_Ionization_Penalty_Charging>
6.79469

> <r_epik_Ionization_Penalty_Neutral>
5.68576e-06

> <r_epik_State_Penalty>
7.33145

> <r_epik_Charging_Adjusted_Penalty>
14.1261

> <i_epik_Tot_Q>
0

> <i_epik_Tot_abs_Q>
2

> <r_epik_Metal_State_Penalty>
3.24803

> <b_epik_Metal_Only>
1

> <s_lp_Force_Field>
OPLS_2005

> <r_lp_Energy>
29.3309

> <b_lp_Chiralities_Consistent>
1

> <s_lp_Variant>
AV-unprocessed.smi:2060-5

> <Gold.Version>
5.8.1

> <Gold.Id.Protein>
6NUR|6NUR_protein|mol2

> <Gold.PLP.Fitness>
42.2060

> <Gold.PLP.PLP>
-35.8630

> <Gold.PLP.part.hbond>
-3.0000

> <Gold.PLP.part.metal>
0.0000

> <Gold.PLP.part.buried>
-5.6780

> <Gold.PLP.part.nonpolar>
-28.0614

> <Gold.PLP.part.repulsive>
0.4888

> <Gold.PLP.ligand.clash>
0.0000

> <Gold.PLP.ligand.torsion>
0.6951

> <Gold.PLP.Chemscore.Hbond>
2.5000

> <Gold.PLP.Chemscore.CHOScore>
0.0000

> <Gold.PLP.Chemscore.Metal>
0.0000

> <Gold.Chemscore.Hbonds>
donor molecule, donor type, donor heavy atom, donor atom, acceptor molecule, acceptor atom, score
      P1  H  6896  6907       L1     8  0.96
      P1  H  6931  6943       L1    15  0.65
      P1  H  6934  6947       L1    15  0.82

> <Gold.PLP.Chemscore.Internal.Correction>
0.2332

> <Gold.Rescore>
     Score         DG    S(hbond)    S(metal)    S(lipo)     H(rot)  DE(clash)    DE(int)     intcor
     14.00     -16.53       1.47        0.00      90.46       1.73       0.21       2.33       ----

> <Gold.Chemscore.Fitness>
13.9992

> <Gold.Chemscore.DG>
-16.5345

> <Gold.Chemscore.ZeroCoef>
-5.4800

> <Gold.Chemscore.Hbond>
1.4664

> <Gold.Chemscore.Metal>
0.0000

> <Gold.Chemscore.Lipo>
90.4598

> <Gold.Chemscore.Internal_Hbond>
0.0000

> <Gold.Chemscore.DEClash>
0.2052

> <Gold.Chemscore.DEInternal>
2.3301

> <Gold.Chemscore.Rot>
1.7294

> <Gold.Chemscore.Internal.Correction>
   9.000000E+99

> <Gold.Chemscore.Hbonds>
donor molecule, donor type, donor heavy atom, donor atom, acceptor molecule, acceptor atom, score
      P1  H  6896  6907       L1     8  0.86
      P1  H  6931  6943       L1    15  0.05
      P1  H  6934  6947       L1    15  0.20

> <Gold.Chemscore.Hbond.Weighted>
-4.8979

> <Gold.Chemscore.Metal.Weighted>
-0.0000

> <Gold.Chemscore.Lipo.Weighted>
-10.5838

> <Gold.Chemscore.Internal_Hbond.Weighted>
0.0000

> <Gold.Chemscore.DEClash.Weighted>
0.2052

> <Gold.Chemscore.DEInternal.Weighted>
2.3301

> <Gold.Chemscore.Rot.Weighted>
4.4272

> <Gold.Chemscore.Internal.Correction.Weighted>
   9.000000E+99

> <Gold.Protein.RotatedTorsions>
[ 6907 6896 6895 6894 ] final  -69.14 input  -60.11 | X-H torsion
[ 7974 7965 7964 7962 ] final   69.17 input  175.53 | X-H torsion
[ 8008 7997 7996 7995 ] final  -70.88 input   59.86 | X-H torsion
[ 10167 10162 10161 10158 ] final  -29.43 input  -65.29 | X-H torsion
[ 10718 10713 10712 10709 ] final -105.34 input   66.30 | X-H torsion
[ 10763 10752 10751 10750 ] final -138.52 input  -60.55 | X-H torsion
[ 11005 11000 10999 10996 ] final  148.42 input  -57.11 | X-H torsion

> <Gold.Protein.ActiveResidues>
 VAL166  LYS551  ARG553  GLY616  TRP617  ASP618  TYR619  PRO620  LYS621  CYS622 
 ASP623  PHE694  ASN695  SER759  ASP760  ASP761  ALA762  ILE779  LEU786  VAL792 
 PHE793  MET794  SER795  GLU796  ALA797  LYS798  CYS799  TRP800  GLU811  SER814 

> <Gold.Protein.RotatedAtoms>
  150.7320  134.5639  159.5855 H   0  0  0  0  0  0  0  0  0  0  0  0  # atno 6907 bound_to 6896
  152.3095  134.7511  160.0348 H   0  0  0  0  0  0  0  0  0  0  0  0  # atno 6908 bound_to 6896
  151.8064  133.3340  159.3579 H   0  0  0  0  0  0  0  0  0  0  0  0  # atno 6909 bound_to 6896
  145.7936  139.2946  143.1195 H   0  0  0  0  0  0  0  0  0  0  0  0  # atno 7974 bound_to 7965
  154.5045  140.0826  156.7867 H   0  0  0  0  0  0  0  0  0  0  0  0  # atno 8008 bound_to 7997
  155.3925  140.3433  155.4234 H   0  0  0  0  0  0  0  0  0  0  0  0  # atno 8009 bound_to 7997
  156.1499  140.1555  156.8775 H   0  0  0  0  0  0  0  0  0  0  0  0  # atno 8010 bound_to 7997
  140.7260  143.3929  151.1397 H   0  0  0  0  0  0  0  0  0  0  0  0  # atno 10167 bound_to 10162
  156.0342  130.5559  150.7524 H   0  0  0  0  0  0  0  0  0  0  0  0  # atno 10718 bound_to 10713
  154.8634  135.3609  154.5398 H   0  0  0  0  0  0  0  0  0  0  0  0  # atno 10763 bound_to 10752
  153.6020  135.7012  153.5385 H   0  0  0  0  0  0  0  0  0  0  0  0  # atno 10764 bound_to 10752
  153.3282  135.4132  155.1435 H   0  0  0  0  0  0  0  0  0  0  0  0  # atno 10765 bound_to 10752
  140.0958  134.9013  157.1721 H   0  0  0  0  0  0  0  0  0  0  0  0  # atno 11005 bound_to 11000
  145.9951  140.8569  143.0047 LP  0  0  0  0  0  0  0  0  0  0  0  0  # atno 17320 bound_to 7965
  144.6778  140.2271  143.7359 LP  0  0  0  0  0  0  0  0  0  0  0  0  # atno 17321 bound_to 7965
  139.7537  143.8739  152.3083 LP  0  0  0  0  0  0  0  0  0  0  0  0  # atno 17342 bound_to 10162
  139.8601  144.7121  150.9109 LP  0  0  0  0  0  0  0  0  0  0  0  0  # atno 17343 bound_to 10162
  157.5065  131.0922  151.0250 LP  0  0  0  0  0  0  0  0  0  0  0  0  # atno 17370 bound_to 10713
  157.0617  130.5828  149.5387 LP  0  0  0  0  0  0  0  0  0  0  0  0  # atno 17371 bound_to 10713
  140.3288  134.2833  155.7232 LP  0  0  0  0  0  0  0  0  0  0  0  0  # atno 17394 bound_to 11000
  141.2091  133.7757  157.0015 LP  0  0  0  0  0  0  0  0  0  0  0  0  # atno 17395 bound_to 11000

$$$$
