AV-unprocessed.smi:55|AV-procd|sdf|563|dock8
  -GOLD-   2262016463D 1   1.00000     0.00000
 Structure written by MMmdl.
 31 32  0  0  0  0  0  0  0  0  1 V2000
  151.9520  144.1751  157.7253 C   0  0  0  0  0  0  0  0  0  0  0  0
  151.7081  142.6752  157.7407 C   0  0  0  0  0  0  0  0  0  0  0  0
  150.6423  142.1043  157.1232 C   0  0  0  0  0  0  0  0  0  0  0  0
  150.3880  140.7384  157.1166 N   0  0  0  0  0  0  0  0  0  0  0  0
  149.1254  140.1765  156.4944 C   0  0  2  0  0  0  0  0  0  0  0  0
  149.3720  139.2496  155.2890 C   0  0  0  0  0  0  0  0  0  0  0  0
  148.6475  139.9552  154.1508 C   0  0  2  0  0  0  0  0  0  0  0  0
  149.5570  140.6651  153.3318 O   0  0  0  0  0  0  0  0  0  0  0  0
  147.6657  140.8850  154.8822 C   0  0  2  0  0  0  0  0  0  0  0  0
  147.1808  142.1302  154.1195 C   0  0  0  0  0  0  0  0  0  0  0  0
  148.2254  143.0727  154.0033 O   0  0  0  0  0  0  0  0  0  0  0  0
  148.3531  141.2539  156.0688 O   0  0  0  0  0  0  0  0  0  0  0  0
  151.2172  139.8896  157.8835 C   0  0  0  0  0  0  0  0  0  0  0  0
  151.0106  138.6839  158.0157 O   0  0  0  0  0  0  0  0  0  0  0  0
  152.3209  140.4715  158.5050 N   0  0  0  0  0  0  0  0  0  0  0  0
  152.6498  141.8281  158.4759 C   0  0  0  0  0  0  0  0  0  0  0  0
  153.6614  142.2211  159.0546 O   0  0  0  0  0  0  0  0  0  0  0  0
  148.5926  139.6311  157.2746 H   0  0  0  0  0  0  0  0  0  0  0  0
  148.1166  139.2443  153.5171 H   0  0  0  0  0  0  0  0  0  0  0  0
  146.7993  140.2980  155.1936 H   0  0  0  0  0  0  0  0  0  0  0  0
  152.9279  139.8614  159.0329 H   0  0  0  0  0  0  0  0  0  0  0  0
  151.1891  144.7036  157.1530 H   0  0  0  0  0  0  0  0  0  0  0  0
  152.9209  144.3992  157.2775 H   0  0  0  0  0  0  0  0  0  0  0  0
  151.9431  144.5729  158.7407 H   0  0  0  0  0  0  0  0  0  0  0  0
  149.9490  142.7619  156.6234 H   0  0  0  0  0  0  0  0  0  0  0  0
  150.4271  139.0512  155.1005 H   0  0  0  0  0  0  0  0  0  0  0  0
  148.8938  138.2918  155.4990 H   0  0  0  0  0  0  0  0  0  0  0  0
  149.8627  140.0837  152.6522 H   0  0  0  0  0  0  0  0  0  0  0  0
  146.8610  141.8480  153.1163 H   0  0  0  0  0  0  0  0  0  0  0  0
  146.3212  142.5903  154.6073 H   0  0  0  0  0  0  0  0  0  0  0  0
  148.7124  143.0821  154.8134 H   0  0  0  0  0  0  0  0  0  0  0  0
  1  2  1  0  0  0  0
  1 22  1  0  0  0  0
  1 23  1  0  0  0  0
  1 24  1  0  0  0  0
  2 16  1  0  0  0  0
  2  3  2  0  0  0  0
  3  4  1  0  0  0  0
  3 25  1  0  0  0  0
  4  5  1  0  0  0  0
  4 13  1  0  0  0  0
  5 18  1  0  0  0  0
  5 12  1  0  0  0  0
  5  6  1  0  0  0  0
  6  7  1  0  0  0  0
  6 26  1  0  0  0  0
  6 27  1  0  0  0  0
  7 19  1  0  0  0  0
  7  8  1  0  0  0  0
  7  9  1  0  0  0  0
  8 28  1  0  0  0  0
  9 20  1  0  0  0  0
  9 10  1  0  0  0  0
  9 12  1  0  0  0  0
 10 11  1  0  0  0  0
 10 29  1  0  0  0  0
 10 30  1  0  0  0  0
 11 31  1  0  0  0  0
 13 14  2  0  0  0  0
 13 15  1  0  0  0  0
 15 21  1  0  0  0  0
 15 16  1  0  0  0  0
 16 17  2  0  0  0  0
M  END
> <s_m_source_file>
AV-unprocessed.smi

> <i_m_source_file_index>
55

> <i_lp_mmshare_version>
43012

> <i_f3d_flags>
0

> <s_epik_input>
Tz1jMVtuSF1jKD1PKW4oW2NIXWMxW0NIM10pW0NAQEhdMltDSDJdW0NAQEhdKFtPSF0pW0NAQEhdKE8yKVtDSDJdW09IXQ==

> <s_epik_cmdline>
J2VwaWtfcHl0aG9uJywgJy1waCcsICc3LjAnLCAnLXRuJywgJzgnLCAnLW1hJywgJzIwMCcsICctbWV0YWxfYmluZGluZycsICctaW1hZScsICc8aW5maWxlLm1hZT4nLCAnLW9tYWUnLCAnPG91dGZpbGUubWFlPic=

> <r_lp_tautomer_probability>
0.999537

> <r_epik_Ionization_Penalty>
0.00121888

> <r_epik_Ionization_Penalty_Charging>
0.00121876

> <r_epik_Ionization_Penalty_Neutral>
1.19946e-07

> <r_epik_State_Penalty>
0.000805124

> <r_epik_Charging_Adjusted_Penalty>
0.00202389

> <i_epik_Tot_Q>
0

> <i_epik_Tot_abs_Q>
0

> <r_epik_Metal_State_Penalty>
0.662472

> <b_epik_Metal_Only>
0

> <s_epik_Chemistry_Notes>
This compound contains an acetal/aminal-like group ( X-CH(R)-Y where X, Y are N, S, or O) that may be acid/base labile, releasing an aldehyde.

> <s_lp_Force_Field>
OPLS_2005

> <r_lp_Energy>
26.1821

> <b_lp_Chiralities_Consistent>
1

> <s_lp_Variant>
AV-unprocessed.smi:55-3

> <Gold.Version>
5.8.1

> <Gold.Id.Protein>
6NUR|6NUR_protein|mol2

> <Gold.PLP.Fitness>
36.9394

> <Gold.PLP.PLP>
-26.7084

> <Gold.PLP.part.hbond>
-4.7779

> <Gold.PLP.part.metal>
0.0000

> <Gold.PLP.part.buried>
-2.1985

> <Gold.PLP.part.nonpolar>
-19.8536

> <Gold.PLP.part.repulsive>
0.2046

> <Gold.PLP.ligand.clash>
0.0000

> <Gold.PLP.ligand.torsion>
0.2296

> <Gold.PLP.Chemscore.Hbond>
2.5300

> <Gold.PLP.Chemscore.CHOScore>
1.0000

> <Gold.PLP.Chemscore.Metal>
0.0000

> <Gold.Chemscore.Hbonds>
donor molecule, donor type, donor heavy atom, donor atom, acceptor molecule, acceptor atom, score
      L1  H     8    28       P1  7957  0.62
      L1  H    11    31       P1  8028  0.30
      P1  H  8011  8017       L1     8  0.85
      P1  H  8022  8030       L1    11  0.72
      L1  C     3    25       P1  8028  1.00

> <Gold.PLP.Chemscore.Internal.Correction>
0.1003

> <Gold.Rescore>
     Score         DG    S(hbond)    S(metal)    S(lipo)     H(rot)  DE(clash)    DE(int)     intcor
     10.28     -10.54       1.81        0.00      51.25       2.73       0.04       0.21       ----

> <Gold.Chemscore.Fitness>
10.2843

> <Gold.Chemscore.DG>
-10.5358

> <Gold.Chemscore.ZeroCoef>
-5.4800

> <Gold.Chemscore.Hbond>
1.8074

> <Gold.Chemscore.Metal>
0.0000

> <Gold.Chemscore.Lipo>
51.2475

> <Gold.Chemscore.Internal_Hbond>
0.0000

> <Gold.Chemscore.DEClash>
0.0408

> <Gold.Chemscore.DEInternal>
0.2106

> <Gold.Chemscore.Rot>
2.7253

> <Gold.Chemscore.Internal.Correction>
   9.000000E+99

> <Gold.Chemscore.Hbonds>
donor molecule, donor type, donor heavy atom, donor atom, acceptor molecule, acceptor atom, score
      L1  H     8    28       P1  7957  0.59
      L1  H    11    31       P1  8028  0.30
      P1  H  8011  8017       L1     8  0.14
      P1  H  8022  8030       L1    11  0.09

> <Gold.Chemscore.Hbond.Weighted>
-6.0367

> <Gold.Chemscore.Metal.Weighted>
-0.0000

> <Gold.Chemscore.Lipo.Weighted>
-5.9960

> <Gold.Chemscore.Internal_Hbond.Weighted>
0.0000

> <Gold.Chemscore.DEClash.Weighted>
0.0408

> <Gold.Chemscore.DEInternal.Weighted>
0.2106

> <Gold.Chemscore.Rot.Weighted>
6.9769

> <Gold.Chemscore.Internal.Correction.Weighted>
   9.000000E+99

> <Gold.Protein.RotatedTorsions>
[ 6907 6896 6895 6894 ] final   22.50 input  -60.11 | X-H torsion
[ 7974 7965 7964 7962 ] final  -37.77 input  175.53 | X-H torsion
[ 8008 7997 7996 7995 ] final  179.90 input   59.86 | X-H torsion
[ 10167 10162 10161 10158 ] final   45.09 input  -65.29 | X-H torsion
[ 10718 10713 10712 10709 ] final -159.82 input   66.30 | X-H torsion
[ 10763 10752 10751 10750 ] final -118.64 input  -60.55 | X-H torsion
[ 11005 11000 10999 10996 ] final   80.75 input  -57.11 | X-H torsion

> <Gold.Protein.ActiveResidues>
 VAL166  LYS551  ARG553  GLY616  TRP617  ASP618  TYR619  PRO620  LYS621  CYS622 
 ASP623  PHE694  ASN695  SER759  ASP760  ASP761  ALA762  ILE779  LEU786  VAL792 
 PHE793  MET794  SER795  GLU796  ALA797  LYS798  CYS799  TRP800  GLU811  SER814 

> <Gold.Protein.RotatedAtoms>
  151.9281  135.0269  160.0526 H   0  0  0  0  0  0  0  0  0  0  0  0  # atno 6907 bound_to 6896
  152.2142  133.4929  159.5135 H   0  0  0  0  0  0  0  0  0  0  0  0  # atno 6908 bound_to 6896
  150.6983  134.1344  159.4124 H   0  0  0  0  0  0  0  0  0  0  0  0  # atno 6909 bound_to 6896
  146.0546  140.6434  142.9026 H   0  0  0  0  0  0  0  0  0  0  0  0  # atno 7974 bound_to 7965
  156.0381  140.1297  157.0186 H   0  0  0  0  0  0  0  0  0  0  0  0  # atno 8008 bound_to 7997
  154.4379  140.1036  156.6267 H   0  0  0  0  0  0  0  0  0  0  0  0  # atno 8009 bound_to 7997
  155.5708  140.3466  155.4517 H   0  0  0  0  0  0  0  0  0  0  0  0  # atno 8010 bound_to 7997
  140.3277  144.2628  150.6173 H   0  0  0  0  0  0  0  0  0  0  0  0  # atno 10167 bound_to 10162
  156.5735  130.8699  151.2844 H   0  0  0  0  0  0  0  0  0  0  0  0  # atno 10718 bound_to 10713
  154.8593  135.4267  154.2171 H   0  0  0  0  0  0  0  0  0  0  0  0  # atno 10763 bound_to 10752
  153.3184  135.6980  153.7058 H   0  0  0  0  0  0  0  0  0  0  0  0  # atno 10764 bound_to 10752
  153.6123  135.3517  155.2957 H   0  0  0  0  0  0  0  0  0  0  0  0  # atno 10765 bound_to 10752
  139.9123  134.7944  156.1950 H   0  0  0  0  0  0  0  0  0  0  0  0  # atno 11005 bound_to 11000
  144.7141  140.4146  143.7058 LP  0  0  0  0  0  0  0  0  0  0  0  0  # atno 17320 bound_to 7965
  145.6666  139.1591  143.2778 LP  0  0  0  0  0  0  0  0  0  0  0  0  # atno 17321 bound_to 7965
  140.5426  143.2220  151.8060 LP  0  0  0  0  0  0  0  0  0  0  0  0  # atno 17342 bound_to 10162
  139.4862  144.4580  151.9574 LP  0  0  0  0  0  0  0  0  0  0  0  0  # atno 17343 bound_to 10162
  157.7343  130.9743  150.2020 LP  0  0  0  0  0  0  0  0  0  0  0  0  # atno 17370 bound_to 10713
  156.2694  130.3720  149.8048 LP  0  0  0  0  0  0  0  0  0  0  0  0  # atno 17371 bound_to 10713
  141.0560  133.6865  156.1861 LP  0  0  0  0  0  0  0  0  0  0  0  0  # atno 17394 bound_to 11000
  140.6736  134.4842  157.5588 LP  0  0  0  0  0  0  0  0  0  0  0  0  # atno 17395 bound_to 11000

$$$$
