AV-unprocessed.smi:3057|AV-procd|sdf|11661|dock2
  -GOLD-   2272017 63D 1   1.00000     0.00000
 Structure written by MMmdl.
 40 42  0  0  0  0  0  0  0  0  1 V2000
  155.7398  139.9612  163.7658 C   0  0  0  0  0  0  0  0  0  0  0  0
  156.2735  138.6276  163.2083 C   0  0  1  0  0  0  0  0  0  0  0  0
  155.9573  137.4546  164.1541 C   0  0  0  0  0  0  0  0  0  0  0  0
  154.6588  136.8512  163.5987 C   0  0  0  0  0  0  0  0  0  0  0  0
  154.6867  137.2971  162.1458 C   0  0  0  0  0  0  0  0  0  0  0  0
  154.0024  136.7777  161.2657 O   0  0  0  0  0  0  0  0  0  0  0  0
  155.5983  138.2634  161.9771 N   0  0  0  0  0  0  0  0  0  0  0  0
  156.1877  138.7026  160.7099 C   0  0  1  0  0  0  0  0  0  0  0  0
  155.2775  139.7323  160.0192 C   0  0  0  0  0  0  0  0  0  0  0  0
  155.6189  140.2733  158.9666 O   0  0  0  0  0  0  0  0  0  0  0  0
  154.1092  139.9838  160.6264 N   0  0  0  0  0  0  0  0  0  0  0  0
  153.1092  140.9267  160.1433 C   0  0  0  0  0  0  0  0  0  0  0  0
  153.6386  142.3649  160.2324 C   0  0  0  0  0  0  0  0  0  0  0  0
  152.5561  143.3960  159.9740 C   0  0  0  0  0  0  0  0  0  0  0  0
  152.1126  144.2493  161.0070 C   0  0  0  0  0  0  0  0  0  0  0  0
  151.1044  145.1884  160.7149 C   0  0  0  0  0  0  0  0  0  0  0  0
  150.5804  145.2370  159.4088 C   0  0  0  0  0  0  0  0  0  0  0  0
  151.0896  144.3401  158.4486 C   0  0  0  0  0  0  0  0  0  0  0  0
  152.0570  143.4367  158.7180 N   0  0  0  0  0  0  0  0  0  0  0  0
  157.5512  139.3489  161.0611 C   0  0  0  0  0  0  0  0  0  0  0  0
  158.0010  138.7644  162.7191 S   0  0  0  0  0  0  0  0  0  0  0  0
  154.6658  139.9162  163.9494 H   0  0  0  0  0  0  0  0  0  0  0  0
  155.9218  140.7889  163.0805 H   0  0  0  0  0  0  0  0  0  0  0  0
  156.2256  140.2104  164.7095 H   0  0  0  0  0  0  0  0  0  0  0  0
  156.7499  136.7057  164.1161 H   0  0  0  0  0  0  0  0  0  0  0  0
  155.8560  137.7671  165.1942 H   0  0  0  0  0  0  0  0  0  0  0  0
  154.6312  135.7653  163.6932 H   0  0  0  0  0  0  0  0  0  0  0  0
  153.7802  137.2727  164.0880 H   0  0  0  0  0  0  0  0  0  0  0  0
  156.3441  137.8316  160.0703 H   0  0  0  0  0  0  0  0  0  0  0  0
  153.9046  139.4980  161.4876 H   0  0  0  0  0  0  0  0  0  0  0  0
  152.8441  140.6944  159.1104 H   0  0  0  0  0  0  0  0  0  0  0  0
  152.2034  140.8189  160.7415 H   0  0  0  0  0  0  0  0  0  0  0  0
  154.0736  142.5420  161.2170 H   0  0  0  0  0  0  0  0  0  0  0  0
  154.4436  142.5113  159.5106 H   0  0  0  0  0  0  0  0  0  0  0  0
  152.5336  144.1876  161.9999 H   0  0  0  0  0  0  0  0  0  0  0  0
  150.7399  145.8591  161.4788 H   0  0  0  0  0  0  0  0  0  0  0  0
  149.8070  145.9444  159.1489 H   0  0  0  0  0  0  0  0  0  0  0  0
  150.7104  144.3492  157.4373 H   0  0  0  0  0  0  0  0  0  0  0  0
  158.3253  139.0906  160.3386 H   0  0  0  0  0  0  0  0  0  0  0  0
  157.4923  140.4378  161.1036 H   0  0  0  0  0  0  0  0  0  0  0  0
  1  2  1  0  0  0  0
  1 22  1  0  0  0  0
  1 23  1  0  0  0  0
  1 24  1  0  0  0  0
  2  7  1  0  0  0  0
  2 21  1  0  0  0  0
  2  3  1  0  0  0  0
  3  4  1  0  0  0  0
  3 25  1  0  0  0  0
  3 26  1  0  0  0  0
  4  5  1  0  0  0  0
  4 27  1  0  0  0  0
  4 28  1  0  0  0  0
  5  6  2  0  0  0  0
  5  7  1  0  0  0  0
  7  8  1  0  0  0  0
  8  9  1  0  0  0  0
  8 20  1  0  0  0  0
  8 29  1  0  0  0  0
  9 10  2  0  0  0  0
  9 11  1  0  0  0  0
 11 12  1  0  0  0  0
 11 30  1  0  0  0  0
 12 13  1  0  0  0  0
 12 31  1  0  0  0  0
 12 32  1  0  0  0  0
 13 14  1  0  0  0  0
 13 33  1  0  0  0  0
 13 34  1  0  0  0  0
 14 19  1  0  0  0  0
 14 15  2  0  0  0  0
 15 16  1  0  0  0  0
 15 35  1  0  0  0  0
 16 17  2  0  0  0  0
 16 36  1  0  0  0  0
 17 18  1  0  0  0  0
 17 37  1  0  0  0  0
 18 19  2  0  0  0  0
 18 38  1  0  0  0  0
 20 21  1  0  0  0  0
 20 39  1  0  0  0  0
 20 40  1  0  0  0  0
M  END
> <s_m_source_file>
AV-unprocessed.smi

> <i_m_source_file_index>
3057

> <i_lp_mmshare_version>
43012

> <i_f3d_flags>
0

> <s_epik_input>
W0NIMl0xW0NIMl1DKD1PKU4oW0NAQF0xMltDSDNdKVtDQEhdKFtDSDJdUzIpQyg9TylbTkhdW0NIMl1bQ0gyXWMzW2NIXVtjSF1bY0hdW2NIXW4z

> <s_epik_cmdline>
J2VwaWtfcHl0aG9uJywgJy1waCcsICc3LjAnLCAnLXRuJywgJzgnLCAnLW1hJywgJzIwMCcsICctbWV0YWxfYmluZGluZycsICctaW1hZScsICc8aW5maWxlLm1hZT4nLCAnLW9tYWUnLCAnPG91dGZpbGUubWFlPic=

> <r_epik_Ionization_Penalty>
0.0249631

> <r_epik_Ionization_Penalty_Charging>
0

> <r_epik_Ionization_Penalty_Neutral>
0.0249631

> <r_epik_State_Penalty>
0.0202943

> <r_epik_Charging_Adjusted_Penalty>
0.0202943

> <i_epik_Tot_Q>
0

> <i_epik_Tot_abs_Q>
0

> <r_epik_Metal_State_Penalty>
0.0194661

> <b_epik_Metal_Only>
0

> <s_lp_Force_Field>
OPLS_2005

> <r_lp_Energy>
25.4312

> <b_lp_Chiralities_Consistent>
1

> <s_lp_Variant>
AV-unprocessed.smi:3057-1

> <Gold.Version>
5.8.1

> <Gold.Id.Protein>
6NUR|6NUR_protein|mol2

> <Gold.PLP.Fitness>
47.0387

> <Gold.PLP.PLP>
-41.2440

> <Gold.PLP.part.hbond>
-1.0000

> <Gold.PLP.part.metal>
0.0000

> <Gold.PLP.part.buried>
-5.5239

> <Gold.PLP.part.nonpolar>
-34.3943

> <Gold.PLP.part.repulsive>
0.0558

> <Gold.PLP.ligand.clash>
0.0000

> <Gold.PLP.ligand.torsion>
0.1163

> <Gold.PLP.Chemscore.Hbond>
1.0000

> <Gold.PLP.Chemscore.CHOScore>
1.0000

> <Gold.PLP.Chemscore.Metal>
0.0000

> <Gold.Chemscore.Hbonds>
donor molecule, donor type, donor heavy atom, donor atom, acceptor molecule, acceptor atom, score
      P1  H  7997  8009       L1    10  0.90
      L1  C    18    38       P1  8028  0.97

> <Gold.PLP.Chemscore.Internal.Correction>
0.0275

> <Gold.Rescore>
     Score         DG    S(hbond)    S(metal)    S(lipo)     H(rot)  DE(clash)    DE(int)     intcor
     17.83     -18.01       0.98        0.00     112.78       1.53       0.01       0.17       ----

> <Gold.Chemscore.Fitness>
17.8275

> <Gold.Chemscore.DG>
-18.0085

> <Gold.Chemscore.ZeroCoef>
-5.4800

> <Gold.Chemscore.Hbond>
0.9761

> <Gold.Chemscore.Metal>
0.0000

> <Gold.Chemscore.Lipo>
112.7782

> <Gold.Chemscore.Internal_Hbond>
0.0000

> <Gold.Chemscore.DEClash>
0.0104

> <Gold.Chemscore.DEInternal>
0.1707

> <Gold.Chemscore.Rot>
1.5339

> <Gold.Chemscore.Internal.Correction>
   9.000000E+99

> <Gold.Chemscore.Hbonds>
donor molecule, donor type, donor heavy atom, donor atom, acceptor molecule, acceptor atom, score
      P1  H  7997  8009       L1    10  0.87

> <Gold.Chemscore.Hbond.Weighted>
-3.2602

> <Gold.Chemscore.Metal.Weighted>
-0.0000

> <Gold.Chemscore.Lipo.Weighted>
-13.1951

> <Gold.Chemscore.Internal_Hbond.Weighted>
0.0000

> <Gold.Chemscore.DEClash.Weighted>
0.0104

> <Gold.Chemscore.DEInternal.Weighted>
0.1707

> <Gold.Chemscore.Rot.Weighted>
3.9267

> <Gold.Chemscore.Internal.Correction.Weighted>
   9.000000E+99

> <Gold.Protein.RotatedTorsions>
[ 6907 6896 6895 6894 ] final  -29.19 input  -60.11 | X-H torsion
[ 7974 7965 7964 7962 ] final  151.52 input  175.53 | X-H torsion
[ 8008 7997 7996 7995 ] final   99.02 input   59.86 | X-H torsion
[ 10167 10162 10161 10158 ] final  116.47 input  -65.29 | X-H torsion
[ 10718 10713 10712 10709 ] final   73.79 input   66.30 | X-H torsion
[ 10763 10752 10751 10750 ] final   41.71 input  -60.55 | X-H torsion
[ 11005 11000 10999 10996 ] final  -65.24 input  -57.11 | X-H torsion

> <Gold.Protein.ActiveResidues>
 VAL166  LYS551  ARG553  GLY616  TRP617  ASP618  TYR619  PRO620  LYS621  CYS622 
 ASP623  PHE694  ASN695  SER759  ASP760  ASP761  ALA762  ILE779  LEU786  VAL792 
 PHE793  MET794  SER795  GLU796  ALA797  LYS798  CYS799  TRP800  GLU811  SER814 

> <Gold.Protein.RotatedAtoms>
  151.1226  135.0087  159.8545 H   0  0  0  0  0  0  0  0  0  0  0  0  # atno 6907 bound_to 6896
  152.5448  134.1704  159.8604 H   0  0  0  0  0  0  0  0  0  0  0  0  # atno 6908 bound_to 6896
  151.1764  133.4707  159.2627 H   0  0  0  0  0  0  0  0  0  0  0  0  # atno 6909 bound_to 6896
  144.8287  139.6548  143.6068 H   0  0  0  0  0  0  0  0  0  0  0  0  # atno 7974 bound_to 7965
  156.1063  140.3235  155.8011 H   0  0  0  0  0  0  0  0  0  0  0  0  # atno 8008 bound_to 7997
  155.4750  140.0549  157.2992 H   0  0  0  0  0  0  0  0  0  0  0  0  # atno 8009 bound_to 7997
  154.4730  140.2020  155.9962 H   0  0  0  0  0  0  0  0  0  0  0  0  # atno 8010 bound_to 7997
  139.6245  144.7106  151.2564 H   0  0  0  0  0  0  0  0  0  0  0  0  # atno 10167 bound_to 10162
  157.6564  130.9646  150.1120 H   0  0  0  0  0  0  0  0  0  0  0  0  # atno 10718 bound_to 10713
  152.9901  135.6153  154.2832 H   0  0  0  0  0  0  0  0  0  0  0  0  # atno 10763 bound_to 10752
  154.2560  135.2784  155.2799 H   0  0  0  0  0  0  0  0  0  0  0  0  # atno 10764 bound_to 10752
  154.5247  135.5805  153.6767 H   0  0  0  0  0  0  0  0  0  0  0  0  # atno 10765 bound_to 10752
  141.1448  133.6678  156.5955 H   0  0  0  0  0  0  0  0  0  0  0  0  # atno 11005 bound_to 11000
  146.2591  139.6369  142.9374 LP  0  0  0  0  0  0  0  0  0  0  0  0  # atno 17320 bound_to 7965
  145.4944  141.0438  143.2575 LP  0  0  0  0  0  0  0  0  0  0  0  0  # atno 17321 bound_to 7965
  140.7402  143.6594  150.8177 LP  0  0  0  0  0  0  0  0  0  0  0  0  # atno 17342 bound_to 10162
  140.0210  143.5542  152.2800 LP  0  0  0  0  0  0  0  0  0  0  0  0  # atno 17343 bound_to 10162
  156.2014  130.3660  149.8784 LP  0  0  0  0  0  0  0  0  0  0  0  0  # atno 17370 bound_to 10713
  156.6686  130.8811  151.3559 LP  0  0  0  0  0  0  0  0  0  0  0  0  # atno 17371 bound_to 10713
  140.3729  134.7590  157.4611 LP  0  0  0  0  0  0  0  0  0  0  0  0  # atno 17394 bound_to 11000
  140.0696  134.5881  155.8656 LP  0  0  0  0  0  0  0  0  0  0  0  0  # atno 17395 bound_to 11000

$$$$
