AV-unprocessed.smi:2184|AV-procd|sdf|8873|dock4
  -GOLD-   2272012 73D 1   1.00000     0.00000
 Structure written by MMmdl.
 47 48  0  0  0  0  0  0  0  0  1 V2000
  150.6295  132.3849  156.4362 C   0  0  0  0  0  0  0  0  0  0  0  0
  149.4377  133.5710  157.1163 S   0  0  0  0  0  0  0  0  0  0  0  0
  149.1656  134.6510  155.6793 C   0  0  2  0  0  0  0  0  0  0  0  0
  149.0040  133.8082  154.4042 C   0  0  0  0  0  0  0  0  0  0  0  0
  150.2861  135.6866  155.5221 C   0  0  0  0  0  0  0  0  0  0  0  0
  151.2295  135.7100  156.3130 O   0  0  0  0  0  0  0  0  0  0  0  0
  150.1658  136.5467  154.5005 N   0  0  0  0  0  0  0  0  0  0  0  0
  151.1165  137.6107  154.2009 C   0  0  0  0  0  0  0  0  0  0  0  0
  151.1891  138.7114  155.2501 C   0  0  0  0  0  0  0  0  0  0  0  0
  150.0681  139.4731  155.6468 C   0  0  0  0  0  0  0  0  0  0  0  0
  150.2318  140.4735  156.6239 C   0  0  0  0  0  0  0  0  0  0  0  0
  151.5124  140.6904  157.1853 C   0  0  0  0  0  0  0  0  0  0  0  0
  151.6979  141.6864  158.1685 N   0  0  0  0  0  0  0  0  0  0  0  0
  151.9214  143.0599  157.7212 C   0  0  0  0  0  0  0  0  0  0  0  0
  151.7978  144.0530  158.8935 C   0  0  1  0  0  0  0  0  0  0  0  0
  150.3440  144.3107  159.3283 C   0  0  0  0  0  0  0  0  0  0  0  0
  152.6211  143.6346  159.9841 O   0  0  0  0  0  0  0  0  0  0  0  0
  152.3617  142.3131  160.4557 C   0  0  2  0  0  0  0  0  0  0  0  0
  153.3241  142.0258  161.6128 C   0  0  0  0  0  0  0  0  0  0  0  0
  152.5363  141.3095  159.3020 C   0  0  0  0  0  0  0  0  0  0  0  0
  152.5877  139.9623  156.7960 N   0  0  0  0  0  0  0  0  0  0  0  0
  152.4253  139.0043  155.8595 C   0  0  0  0  0  0  0  0  0  0  0  0
  150.9299  131.6752  157.2070 H   0  0  0  0  0  0  0  0  0  0  0  0
  151.5196  132.9012  156.0768 H   0  0  0  0  0  0  0  0  0  0  0  0
  150.1912  131.8263  155.6095 H   0  0  0  0  0  0  0  0  0  0  0  0
  148.2242  135.1773  155.8451 H   0  0  0  0  0  0  0  0  0  0  0  0
  148.8494  134.4388  153.5276 H   0  0  0  0  0  0  0  0  0  0  0  0
  148.1424  133.1448  154.4847 H   0  0  0  0  0  0  0  0  0  0  0  0
  149.8809  133.1865  154.2190 H   0  0  0  0  0  0  0  0  0  0  0  0
  149.3608  136.4643  153.8971 H   0  0  0  0  0  0  0  0  0  0  0  0
  152.1105  137.1753  154.0875 H   0  0  0  0  0  0  0  0  0  0  0  0
  150.8563  138.0650  153.2436 H   0  0  0  0  0  0  0  0  0  0  0  0
  149.0916  139.3091  155.2165 H   0  0  0  0  0  0  0  0  0  0  0  0
  149.3810  141.0693  156.9187 H   0  0  0  0  0  0  0  0  0  0  0  0
  152.9207  143.1278  157.2886 H   0  0  0  0  0  0  0  0  0  0  0  0
  151.2126  143.3292  156.9371 H   0  0  0  0  0  0  0  0  0  0  0  0
  152.2000  145.0099  158.5600 H   0  0  0  0  0  0  0  0  0  0  0  0
  149.7733  144.7610  158.5159 H   0  0  0  0  0  0  0  0  0  0  0  0
  150.3075  144.9956  160.1756 H   0  0  0  0  0  0  0  0  0  0  0  0
  149.8288  143.3942  159.6146 H   0  0  0  0  0  0  0  0  0  0  0  0
  151.3440  142.2530  160.8423 H   0  0  0  0  0  0  0  0  0  0  0  0
  153.1610  141.0279  162.0206 H   0  0  0  0  0  0  0  0  0  0  0  0
  153.1843  142.7424  162.4223 H   0  0  0  0  0  0  0  0  0  0  0  0
  154.3628  142.0892  161.2874 H   0  0  0  0  0  0  0  0  0  0  0  0
  152.3030  140.3089  159.6632 H   0  0  0  0  0  0  0  0  0  0  0  0
  153.5766  141.2919  158.9742 H   0  0  0  0  0  0  0  0  0  0  0  0
  153.3137  138.4539  155.5872 H   0  0  0  0  0  0  0  0  0  0  0  0
  1  2  1  0  0  0  0
  1 23  1  0  0  0  0
  1 24  1  0  0  0  0
  1 25  1  0  0  0  0
  2  3  1  0  0  0  0
  3  4  1  0  0  0  0
  3  5  1  0  0  0  0
  3 26  1  0  0  0  0
  4 27  1  0  0  0  0
  4 28  1  0  0  0  0
  4 29  1  0  0  0  0
  5  6  2  0  0  0  0
  5  7  1  0  0  0  0
  7  8  1  0  0  0  0
  7 30  1  0  0  0  0
  8  9  1  0  0  0  0
  8 31  1  0  0  0  0
  8 32  1  0  0  0  0
  9 22  1  0  0  0  0
  9 10  2  0  0  0  0
 10 11  1  0  0  0  0
 10 33  1  0  0  0  0
 11 12  2  0  0  0  0
 11 34  1  0  0  0  0
 12 13  1  0  0  0  0
 12 21  1  0  0  0  0
 13 20  1  0  0  0  0
 13 14  1  0  0  0  0
 14 15  1  0  0  0  0
 14 35  1  0  0  0  0
 14 36  1  0  0  0  0
 15 16  1  0  0  0  0
 15 17  1  0  0  0  0
 15 37  1  0  0  0  0
 16 38  1  0  0  0  0
 16 39  1  0  0  0  0
 16 40  1  0  0  0  0
 17 18  1  0  0  0  0
 18 19  1  0  0  0  0
 18 20  1  0  0  0  0
 18 41  1  0  0  0  0
 19 42  1  0  0  0  0
 19 43  1  0  0  0  0
 19 44  1  0  0  0  0
 20 45  1  0  0  0  0
 20 46  1  0  0  0  0
 21 22  2  0  0  0  0
 22 47  1  0  0  0  0
M  END
> <s_m_source_file>
AV-unprocessed.smi

> <i_m_source_file_index>
2184

> <i_lp_mmshare_version>
43012

> <i_f3d_flags>
0

> <s_epik_input>
W0NIM11TW0NASF0oW0NIM10pQyg9TylbTkhdW0NIMl1jMVtjSF1bY0hdYyhuW2NIXTEpTjJbQ0gyXVtDQEBIXShbQ0gzXSlPW0NAQEhdKFtDSDNdKVtDSDJdMg==

> <s_epik_cmdline>
J2VwaWtfcHl0aG9uJywgJy1waCcsICc3LjAnLCAnLXRuJywgJzgnLCAnLW1hJywgJzIwMCcsICctbWV0YWxfYmluZGluZycsICctaW1hZScsICc8aW5maWxlLm1hZT4nLCAnLW9tYWUnLCAnPG91dGZpbGUubWFlPic=

> <r_lp_tautomer_probability>
1

> <r_epik_Ionization_Penalty>
0.00551702

> <r_epik_Ionization_Penalty_Charging>
0

> <r_epik_Ionization_Penalty_Neutral>
0.00551702

> <r_epik_State_Penalty>
0.00403758

> <r_epik_Charging_Adjusted_Penalty>
0.00403758

> <i_epik_Tot_Q>
0

> <i_epik_Tot_abs_Q>
0

> <r_epik_Metal_State_Penalty>
-0

> <b_epik_Metal_Only>
0

> <s_lp_Force_Field>
OPLS_2005

> <r_lp_Energy>
19.1656

> <b_lp_Chiralities_Consistent>
1

> <s_lp_Variant>
AV-unprocessed.smi:2184-5

> <Gold.Version>
5.8.1

> <Gold.Id.Protein>
6NUR|6NUR_protein|mol2

> <Gold.PLP.Fitness>
47.9405

> <Gold.PLP.PLP>
-41.2763

> <Gold.PLP.part.hbond>
-4.0000

> <Gold.PLP.part.metal>
0.0000

> <Gold.PLP.part.buried>
-1.5208

> <Gold.PLP.part.nonpolar>
-35.0565

> <Gold.PLP.part.repulsive>
0.1049

> <Gold.PLP.ligand.clash>
0.0000

> <Gold.PLP.ligand.torsion>
0.7697

> <Gold.PLP.Chemscore.Hbond>
2.6112

> <Gold.PLP.Chemscore.CHOScore>
0.0000

> <Gold.PLP.Chemscore.Metal>
0.0000

> <Gold.Chemscore.Hbonds>
donor molecule, donor type, donor heavy atom, donor atom, acceptor molecule, acceptor atom, score
      L1  H     7    30       P1  7948  0.67
      P1  H  7997  8010       L1    21  0.85
      P1  H 10752 10763       L1     6  0.34

> <Gold.PLP.Chemscore.Internal.Correction>
0.3701

> <Gold.Rescore>
     Score         DG    S(hbond)    S(metal)    S(lipo)     H(rot)  DE(clash)    DE(int)     intcor
     19.43     -21.90       1.99        0.00     118.26       1.59       1.74       0.73       ----

> <Gold.Chemscore.Fitness>
19.4253

> <Gold.Chemscore.DG>
-21.8962

> <Gold.Chemscore.ZeroCoef>
-5.4800

> <Gold.Chemscore.Hbond>
1.9947

> <Gold.Chemscore.Metal>
0.0000

> <Gold.Chemscore.Lipo>
118.2585

> <Gold.Chemscore.Internal_Hbond>
0.0000

> <Gold.Chemscore.DEClash>
1.7371

> <Gold.Chemscore.DEInternal>
0.7337

> <Gold.Chemscore.Rot>
1.5947

> <Gold.Chemscore.Internal.Correction>
   9.000000E+99

> <Gold.Chemscore.Hbonds>
donor molecule, donor type, donor heavy atom, donor atom, acceptor molecule, acceptor atom, score
      L1  H     7    30       P1  7948  0.59
      P1  H  7997  8010       L1    21  0.14
      P1  H 10752 10763       L1     6  0.11

> <Gold.Chemscore.Hbond.Weighted>
-6.6624

> <Gold.Chemscore.Metal.Weighted>
-0.0000

> <Gold.Chemscore.Lipo.Weighted>
-13.8362

> <Gold.Chemscore.Internal_Hbond.Weighted>
0.0000

> <Gold.Chemscore.DEClash.Weighted>
1.7371

> <Gold.Chemscore.DEInternal.Weighted>
0.7337

> <Gold.Chemscore.Rot.Weighted>
4.0824

> <Gold.Chemscore.Internal.Correction.Weighted>
   9.000000E+99

> <Gold.Protein.RotatedTorsions>
[ 6907 6896 6895 6894 ] final    2.71 input  -60.11 | X-H torsion
[ 7974 7965 7964 7962 ] final -108.33 input  175.53 | X-H torsion
[ 8008 7997 7996 7995 ] final   58.56 input   59.86 | X-H torsion
[ 10167 10162 10161 10158 ] final   37.88 input  -65.29 | X-H torsion
[ 10718 10713 10712 10709 ] final  112.51 input   66.30 | X-H torsion
[ 10763 10752 10751 10750 ] final   79.48 input  -60.55 | X-H torsion
[ 11005 11000 10999 10996 ] final   90.59 input  -57.11 | X-H torsion

> <Gold.Protein.ActiveResidues>
 VAL166  LYS551  ARG553  GLY616  TRP617  ASP618  TYR619  PRO620  LYS621  CYS622 
 ASP623  PHE694  ASN695  SER759  ASP760  ASP761  ALA762  ILE779  LEU786  VAL792 
 PHE793  MET794  SER795  GLU796  ALA797  LYS798  CYS799  TRP800  GLU811  SER814 

> <Gold.Protein.RotatedAtoms>
  151.6133  135.1038  160.0085 H   0  0  0  0  0  0  0  0  0  0  0  0  # atno 6907 bound_to 6896
  152.4196  133.7091  159.6479 H   0  0  0  0  0  0  0  0  0  0  0  0  # atno 6908 bound_to 6896
  150.8084  133.8394  159.3216 H   0  0  0  0  0  0  0  0  0  0  0  0  # atno 6909 bound_to 6896
  145.1942  140.9028  143.3407 H   0  0  0  0  0  0  0  0  0  0  0  0  # atno 7974 bound_to 7965
  155.5519  140.3486  155.4470 H   0  0  0  0  0  0  0  0  0  0  0  0  # atno 8008 bound_to 7997
  156.0577  140.1332  157.0004 H   0  0  0  0  0  0  0  0  0  0  0  0  # atno 8009 bound_to 7997
  154.4464  140.0992  156.6455 H   0  0  0  0  0  0  0  0  0  0  0  0  # atno 8010 bound_to 7997
  140.3990  144.1749  150.6133 H   0  0  0  0  0  0  0  0  0  0  0  0  # atno 10167 bound_to 10162
  157.6389  131.0969  150.6905 H   0  0  0  0  0  0  0  0  0  0  0  0  # atno 10718 bound_to 10713
  153.0956  135.4838  154.8773 H   0  0  0  0  0  0  0  0  0  0  0  0  # atno 10763 bound_to 10752
  154.7321  135.3062  154.8876 H   0  0  0  0  0  0  0  0  0  0  0  0  # atno 10764 bound_to 10752
  153.9509  135.6823  153.4797 H   0  0  0  0  0  0  0  0  0  0  0  0  # atno 10765 bound_to 10752
  139.8853  134.8623  156.3306 H   0  0  0  0  0  0  0  0  0  0  0  0  # atno 11005 bound_to 11000
  145.0011  139.3597  143.6167 LP  0  0  0  0  0  0  0  0  0  0  0  0  # atno 17320 bound_to 7965
  146.3430  139.9235  142.8763 LP  0  0  0  0  0  0  0  0  0  0  0  0  # atno 17321 bound_to 7965
  140.4760  143.2396  151.9023 LP  0  0  0  0  0  0  0  0  0  0  0  0  # atno 17342 bound_to 10162
  139.4785  144.5320  151.8653 LP  0  0  0  0  0  0  0  0  0  0  0  0  # atno 17343 bound_to 10162
  156.7232  130.4687  149.5517 LP  0  0  0  0  0  0  0  0  0  0  0  0  # atno 17370 bound_to 10713
  156.1651  130.6400  151.0768 LP  0  0  0  0  0  0  0  0  0  0  0  0  # atno 17371 bound_to 10713
  140.9725  133.7318  156.0555 LP  0  0  0  0  0  0  0  0  0  0  0  0  # atno 17394 bound_to 11000
  140.7852  134.3680  157.5478 LP  0  0  0  0  0  0  0  0  0  0  0  0  # atno 17395 bound_to 11000

$$$$
