AV-unprocessed.smi:1817|AV-procd|sdf|7370|dock9
  -GOLD-   22720 9 33D 1   1.00000     0.00000
 Structure written by MMmdl.
 43 44  0  0  0  0  0  0  0  0  2 V2000
  144.0484  132.2083  150.0235 C   0  0  0  0  0  0  0  0  0  0  0  0
  144.2577  133.3048  151.0778 C   0  0  0  0  0  0  0  0  0  0  0  0
  145.3555  134.2066  150.7207 N   0  0  0  0  0  0  0  0  0  0  0  0
  145.4401  135.4284  151.5248 C   0  0  0  0  0  0  0  0  0  0  0  0
  145.8771  135.1498  152.9785 C   0  0  0  0  0  0  0  0  0  0  0  0
  147.1894  134.4488  153.0152 N   0  3  0  0  0  0  0  0  0  0  0  0
  147.7520  134.1918  154.3806 C   0  0  2  0  0  0  0  0  0  0  0  0
  148.8689  133.1237  154.4069 C   0  0  0  0  0  0  0  0  0  0  0  0
  146.6452  133.8091  155.3978 C   0  0  0  0  0  0  0  0  0  0  0  0
  147.1189  133.7735  156.7808 N   0  0  0  0  0  0  0  0  0  0  0  0
  146.8937  134.7127  157.7107 C   0  0  0  0  0  0  0  0  0  0  0  0
  146.2261  135.7251  157.5016 O   0  0  0  0  0  0  0  0  0  0  0  0
  147.4785  134.3938  158.8762 N   0  0  0  0  0  0  0  0  0  0  0  0
  147.4497  135.1205  160.0929 C   0  0  0  0  0  0  0  0  0  0  0  0
  147.3724  136.4545  160.0252 N   0  0  0  0  0  0  0  0  0  0  0  0
  147.3554  137.0390  161.2856 N   0  0  0  0  0  0  0  0  0  0  0  0
  147.4203  136.1218  162.2554 C   0  0  0  0  0  0  0  0  0  0  0  0
  147.5124  134.4511  161.7260 S   0  0  0  0  0  0  0  0  0  0  0  0
  147.1099  133.2153  152.1873 C   0  0  0  0  0  0  0  0  0  0  0  0
  146.6596  133.5430  150.7491 C   0  0  0  0  0  0  0  0  0  0  0  0
  143.3185  131.4787  150.3745 H   0  0  0  0  0  0  0  0  0  0  0  0
  144.9762  131.6731  149.8192 H   0  0  0  0  0  0  0  0  0  0  0  0
  143.6730  132.6099  149.0826 H   0  0  0  0  0  0  0  0  0  0  0  0
  143.3279  133.8468  151.2457 H   0  0  0  0  0  0  0  0  0  0  0  0
  144.5062  132.8187  152.0220 H   0  0  0  0  0  0  0  0  0  0  0  0
  146.1627  136.0968  151.0547 H   0  0  0  0  0  0  0  0  0  0  0  0
  144.4906  135.9621  151.5096 H   0  0  0  0  0  0  0  0  0  0  0  0
  145.9498  136.1164  153.4753 H   0  0  0  0  0  0  0  0  0  0  0  0
  145.1250  134.5722  153.5168 H   0  0  0  0  0  0  0  0  0  0  0  0
  148.2100  135.1210  154.7230 H   0  0  0  0  0  0  0  0  0  0  0  0
  149.1876  132.9205  155.4298 H   0  0  0  0  0  0  0  0  0  0  0  0
  149.7582  133.4508  153.8677 H   0  0  0  0  0  0  0  0  0  0  0  0
  148.5369  132.1788  153.9749 H   0  0  0  0  0  0  0  0  0  0  0  0
  145.8465  134.5498  155.3514 H   0  0  0  0  0  0  0  0  0  0  0  0
  146.1653  132.8652  155.1400 H   0  0  0  0  0  0  0  0  0  0  0  0
  147.6798  132.9758  157.0436 H   0  0  0  0  0  0  0  0  0  0  0  0
  148.0033  133.5319  158.9002 H   0  0  0  0  0  0  0  0  0  0  0  0
  147.4154  136.4316  163.2899 H   0  0  0  0  0  0  0  0  0  0  0  0
  148.0828  132.7306  152.1313 H   0  0  0  0  0  0  0  0  0  0  0  0
  146.4374  132.4938  152.6526 H   0  0  0  0  0  0  0  0  0  0  0  0
  146.6225  132.6342  150.1469 H   0  0  0  0  0  0  0  0  0  0  0  0
  147.3960  134.1938  150.2753 H   0  0  0  0  0  0  0  0  0  0  0  0
  147.8428  135.0649  152.5524 H   0  0  0  0  0  0  0  0  0  0  0  0
  1  2  1  0  0  0  0
  1 21  1  0  0  0  0
  1 22  1  0  0  0  0
  1 23  1  0  0  0  0
  2  3  1  0  0  0  0
  2 24  1  0  0  0  0
  2 25  1  0  0  0  0
  3 20  1  0  0  0  0
  3  4  1  0  0  0  0
  4  5  1  0  0  0  0
  4 26  1  0  0  0  0
  4 27  1  0  0  0  0
  5  6  1  0  0  0  0
  5 28  1  0  0  0  0
  5 29  1  0  0  0  0
  6  7  1  0  0  0  0
  6 19  1  0  0  0  0
  6 43  1  0  0  0  0
  7  8  1  0  0  0  0
  7  9  1  0  0  0  0
  7 30  1  0  0  0  0
  8 31  1  0  0  0  0
  8 32  1  0  0  0  0
  8 33  1  0  0  0  0
  9 10  1  0  0  0  0
  9 34  1  0  0  0  0
  9 35  1  0  0  0  0
 10 11  1  0  0  0  0
 10 36  1  0  0  0  0
 11 12  2  0  0  0  0
 11 13  1  0  0  0  0
 13 14  1  0  0  0  0
 13 37  1  0  0  0  0
 14 18  1  0  0  0  0
 14 15  2  0  0  0  0
 15 16  1  0  0  0  0
 16 17  2  0  0  0  0
 17 18  1  0  0  0  0
 17 38  1  0  0  0  0
 19 20  1  0  0  0  0
 19 39  1  0  0  0  0
 19 40  1  0  0  0  0
 20 41  1  0  0  0  0
 20 42  1  0  0  0  0
M  CHG  1   6   1
M  END
> <s_m_source_file>
AV-unprocessed.smi

> <i_m_source_file_index>
1817

> <i_lp_mmshare_version>
43012

> <i_f3d_flags>
0

> <s_epik_input>
W0NIM11bQ0gyXU4xW0NIMl1bQ0gyXU4oW0NIMl1bQ0gyXTEpW0NASF0oW0NIM10pW0NIMl1bTkhdQyg9TylbTkhdYzJubltjSF1zMg==

> <s_epik_cmdline>
J2VwaWtfcHl0aG9uJywgJy1waCcsICc3LjAnLCAnLXRuJywgJzgnLCAnLW1hJywgJzIwMCcsICctbWV0YWxfYmluZGluZycsICctaW1hZScsICc8aW5maWxlLm1hZT4nLCAnLW9tYWUnLCAnPG91dGZpbGUubWFlPic=

> <r_epik_Ionization_Penalty>
0.153808

> <r_epik_Ionization_Penalty_Charging>
0.148467

> <r_epik_Ionization_Penalty_Neutral>
0.00534086

> <r_epik_State_Penalty>
0.974087

> <r_epik_Charging_Adjusted_Penalty>
1.12255

> <i_epik_Tot_Q>
1

> <i_epik_Tot_abs_Q>
1

> <r_epik_Metal_State_Penalty>
1.30894

> <b_epik_Metal_Only>
0

> <s_lp_Force_Field>
OPLS_2005

> <r_lp_Energy>
26.4186

> <b_lp_Chiralities_Consistent>
1

> <s_lp_Variant>
AV-unprocessed.smi:1817-3

> <Gold.Version>
5.8.1

> <Gold.Id.Protein>
6NUR|6NUR_protein|mol2

> <Gold.PLP.Fitness>
40.2207

> <Gold.PLP.PLP>
-30.1677

> <Gold.PLP.part.hbond>
-3.0000

> <Gold.PLP.part.metal>
0.0000

> <Gold.PLP.part.buried>
-5.7426

> <Gold.PLP.part.nonpolar>
-22.3174

> <Gold.PLP.part.repulsive>
0.2221

> <Gold.PLP.ligand.clash>
0.0000

> <Gold.PLP.ligand.torsion>
0.8670

> <Gold.PLP.Chemscore.Hbond>
3.9040

> <Gold.PLP.Chemscore.CHOScore>
0.0000

> <Gold.PLP.Chemscore.Metal>
0.0000

> <Gold.Chemscore.Hbonds>
donor molecule, donor type, donor heavy atom, donor atom, acceptor molecule, acceptor atom, score
      L1  H     6    43       P1  7948  2.00
      P1  H  6931  6943       L1    16  0.58
      P1  H  6934  6947       L1    16  1.00

> <Gold.PLP.Chemscore.Internal.Correction>
0.0748

> <Gold.Rescore>
     Score         DG    S(hbond)    S(metal)    S(lipo)     H(rot)  DE(clash)    DE(int)     intcor
     14.51     -16.11       2.39        0.00      64.67       1.92       0.10       1.50       ----

> <Gold.Chemscore.Fitness>
14.5143

> <Gold.Chemscore.DG>
-16.1065

> <Gold.Chemscore.ZeroCoef>
-5.4800

> <Gold.Chemscore.Hbond>
2.3875

> <Gold.Chemscore.Metal>
0.0000

> <Gold.Chemscore.Lipo>
64.6708

> <Gold.Chemscore.Internal_Hbond>
0.0000

> <Gold.Chemscore.DEClash>
0.0969

> <Gold.Chemscore.DEInternal>
1.4953

> <Gold.Chemscore.Rot>
1.9196

> <Gold.Chemscore.Internal.Correction>
   9.000000E+99

> <Gold.Chemscore.Hbonds>
donor molecule, donor type, donor heavy atom, donor atom, acceptor molecule, acceptor atom, score
      L1  H     6    43       P1  7948  0.97
      P1  H  6931  6943       L1    16  0.11
      P1  H  6934  6947       L1    16  0.45

> <Gold.Chemscore.Hbond.Weighted>
-7.9741

> <Gold.Chemscore.Metal.Weighted>
-0.0000

> <Gold.Chemscore.Lipo.Weighted>
-7.5665

> <Gold.Chemscore.Internal_Hbond.Weighted>
0.0000

> <Gold.Chemscore.DEClash.Weighted>
0.0969

> <Gold.Chemscore.DEInternal.Weighted>
1.4953

> <Gold.Chemscore.Rot.Weighted>
4.9141

> <Gold.Chemscore.Internal.Correction.Weighted>
   9.000000E+99

> <Gold.Protein.RotatedTorsions>
[ 6907 6896 6895 6894 ] final  -99.33 input  -60.11 | X-H torsion
[ 7974 7965 7964 7962 ] final -128.47 input  175.53 | X-H torsion
[ 8008 7997 7996 7995 ] final  -93.02 input   59.86 | X-H torsion
[ 10167 10162 10161 10158 ] final    5.36 input  -65.29 | X-H torsion
[ 10718 10713 10712 10709 ] final  -18.79 input   66.30 | X-H torsion
[ 10763 10752 10751 10750 ] final  140.75 input  -60.55 | X-H torsion
[ 11005 11000 10999 10996 ] final   52.70 input  -57.11 | X-H torsion

> <Gold.Protein.ActiveResidues>
 VAL166  LYS551  ARG553  GLY616  TRP617  ASP618  TYR619  PRO620  LYS621  CYS622 
 ASP623  PHE694  ASN695  SER759  ASP760  ASP761  ALA762  ILE779  LEU786  VAL792 
 PHE793  MET794  SER795  GLU796  ALA797  LYS798  CYS799  TRP800  GLU811  SER814 

> <Gold.Protein.RotatedAtoms>
  150.7076  134.1057  159.3981 H   0  0  0  0  0  0  0  0  0  0  0  0  # atno 6907 bound_to 6896
  151.9043  135.0363  160.0518 H   0  0  0  0  0  0  0  0  0  0  0  0  # atno 6908 bound_to 6896
  152.2388  133.5083  159.5295 H   0  0  0  0  0  0  0  0  0  0  0  0  # atno 6909 bound_to 6896
  144.9667  140.7503  143.4695 H   0  0  0  0  0  0  0  0  0  0  0  0  # atno 7974 bound_to 7965
  154.7304  140.0503  157.0721 H   0  0  0  0  0  0  0  0  0  0  0  0  # atno 8008 bound_to 7997
  155.0309  140.3158  155.4739 H   0  0  0  0  0  0  0  0  0  0  0  0  # atno 8009 bound_to 7997
  156.2840  140.2150  156.5431 H   0  0  0  0  0  0  0  0  0  0  0  0  # atno 8010 bound_to 7997
  140.6486  143.7600  150.7539 H   0  0  0  0  0  0  0  0  0  0  0  0  # atno 10167 bound_to 10162
  156.5547  130.4710  149.6435 H   0  0  0  0  0  0  0  0  0  0  0  0  # atno 10718 bound_to 10713
  153.9279  135.2993  155.3446 H   0  0  0  0  0  0  0  0  0  0  0  0  # atno 10763 bound_to 10752
  154.7542  135.4966  153.9347 H   0  0  0  0  0  0  0  0  0  0  0  0  # atno 10764 bound_to 10752
  153.1107  135.6758  153.9610 H   0  0  0  0  0  0  0  0  0  0  0  0  # atno 10765 bound_to 10752
  140.0827  134.5316  155.8930 H   0  0  0  0  0  0  0  0  0  0  0  0  # atno 11005 bound_to 11000
  145.2619  139.1989  143.4887 LP  0  0  0  0  0  0  0  0  0  0  0  0  # atno 17320 bound_to 7965
  146.3370  140.2550  142.8600 LP  0  0  0  0  0  0  0  0  0  0  0  0  # atno 17321 bound_to 7965
  140.1246  143.4581  152.2292 LP  0  0  0  0  0  0  0  0  0  0  0  0  # atno 17342 bound_to 10162
  139.5699  144.7457  151.3919 LP  0  0  0  0  0  0  0  0  0  0  0  0  # atno 17343 bound_to 10162
  156.2853  130.7094  151.1929 LP  0  0  0  0  0  0  0  0  0  0  0  0  # atno 17370 bound_to 10713
  157.7380  131.0545  150.5318 LP  0  0  0  0  0  0  0  0  0  0  0  0  # atno 17371 bound_to 10713
  141.2052  133.6645  156.6167 LP  0  0  0  0  0  0  0  0  0  0  0  0  # atno 17394 bound_to 11000
  140.3464  134.7805  157.4435 LP  0  0  0  0  0  0  0  0  0  0  0  0  # atno 17395 bound_to 11000

$$$$
