AV-unprocessed.smi:3163|AV-procd|sdf|12078|dock5
  -GOLD-   2272017503D 1   1.00000     0.00000
 Structure written by MMmdl.
 37 38  0  0  0  0  0  0  0  0  3 V2000
  143.8573  132.1705  149.4657 C   0  0  0  0  0  0  0  0  0  0  0  0
  144.8693  133.2428  149.5649 N   0  3  2  0  0  0  0  0  0  0  0  0
  146.1353  132.8348  150.2182 C   0  0  0  0  0  0  0  0  0  0  0  0
  146.4694  133.9192  151.2499 C   0  0  0  0  0  0  0  0  0  0  0  0
  145.6460  135.1284  150.8051 C   0  0  2  0  0  0  0  0  0  0  0  0
  145.3596  136.1599  151.9135 C   0  0  0  0  0  0  0  0  0  0  0  0
  146.5422  136.9433  152.2563 N   0  0  0  0  0  0  0  0  0  0  0  0
  146.5280  138.1106  152.9154 C   0  0  0  0  0  0  0  0  0  0  0  0
  145.4949  138.6528  153.3065 O   0  0  0  0  0  0  0  0  0  0  0  0
  147.7738  138.5842  153.0927 N   0  0  0  0  0  0  0  0  0  0  0  0
  148.1931  139.7830  153.7336 C   0  0  0  0  0  0  0  0  0  0  0  0
  147.2898  140.8693  153.7307 C   0  0  0  0  0  0  0  0  0  0  0  0
  147.6491  142.0767  154.3633 C   0  0  0  0  0  0  0  0  0  0  0  0
  148.8485  142.1847  154.9736 N   0  3  0  0  0  0  0  0  0  0  0  0
  149.7400  141.1716  155.0143 C   0  0  0  0  0  0  0  0  0  0  0  0
  149.4363  139.9396  154.3995 C   0  0  0  0  0  0  0  0  0  0  0  0
  144.3906  134.4697  150.2343 C   0  0  0  0  0  0  0  0  0  0  0  0
  143.5542  131.8228  150.4541 H   0  0  0  0  0  0  0  0  0  0  0  0
  144.2568  131.3211  148.9106 H   0  0  0  0  0  0  0  0  0  0  0  0
  142.9714  132.5299  148.9412 H   0  0  0  0  0  0  0  0  0  0  0  0
  146.0631  131.8550  150.6929 H   0  0  0  0  0  0  0  0  0  0  0  0
  146.9118  132.7747  149.4550 H   0  0  0  0  0  0  0  0  0  0  0  0
  146.1465  133.5925  152.2396 H   0  0  0  0  0  0  0  0  0  0  0  0
  147.5378  134.1317  151.3025 H   0  0  0  0  0  0  0  0  0  0  0  0
  146.1719  135.6176  149.9831 H   0  0  0  0  0  0  0  0  0  0  0  0
  144.5492  136.8252  151.6110 H   0  0  0  0  0  0  0  0  0  0  0  0
  145.0189  135.6539  152.8175 H   0  0  0  0  0  0  0  0  0  0  0  0
  147.4350  136.5628  151.9773 H   0  0  0  0  0  0  0  0  0  0  0  0
  148.5208  137.9860  152.7708 H   0  0  0  0  0  0  0  0  0  0  0  0
  146.3287  140.7838  153.2441 H   0  0  0  0  0  0  0  0  0  0  0  0
  147.0171  142.9521  154.4000 H   0  0  0  0  0  0  0  0  0  0  0  0
  150.6626  141.3730  155.5390 H   0  0  0  0  0  0  0  0  0  0  0  0
  150.1595  139.1417  154.4630 H   0  0  0  0  0  0  0  0  0  0  0  0
  143.8543  135.1193  149.5418 H   0  0  0  0  0  0  0  0  0  0  0  0
  143.7084  134.2052  151.0443 H   0  0  0  0  0  0  0  0  0  0  0  0
  145.1158  133.5114  148.6227 H   0  0  0  0  0  0  0  0  0  0  0  0
  149.0896  143.0668  155.4267 H   0  0  0  0  0  0  0  0  0  0  0  0
  1  2  1  0  0  0  0
  1 18  1  0  0  0  0
  1 19  1  0  0  0  0
  1 20  1  0  0  0  0
  2 17  1  0  0  0  0
  2  3  1  0  0  0  0
  2 36  1  0  0  0  0
  3  4  1  0  0  0  0
  3 21  1  0  0  0  0
  3 22  1  0  0  0  0
  4  5  1  0  0  0  0
  4 23  1  0  0  0  0
  4 24  1  0  0  0  0
  5  6  1  0  0  0  0
  5 17  1  0  0  0  0
  5 25  1  0  0  0  0
  6  7  1  0  0  0  0
  6 26  1  0  0  0  0
  6 27  1  0  0  0  0
  7  8  1  0  0  0  0
  7 28  1  0  0  0  0
  8  9  2  0  0  0  0
  8 10  1  0  0  0  0
 10 11  1  0  0  0  0
 10 29  1  0  0  0  0
 11 16  1  0  0  0  0
 11 12  2  0  0  0  0
 12 13  1  0  0  0  0
 12 30  1  0  0  0  0
 13 14  2  0  0  0  0
 13 31  1  0  0  0  0
 14 15  1  0  0  0  0
 14 37  1  0  0  0  0
 15 16  2  0  0  0  0
 15 32  1  0  0  0  0
 16 33  1  0  0  0  0
 17 34  1  0  0  0  0
 17 35  1  0  0  0  0
M  CHG  1   2   1
M  CHG  1  14   1
M  END
> <s_m_source_file>
AV-unprocessed.smi

> <i_m_source_file_index>
3163

> <i_lp_mmshare_version>
43012

> <i_f3d_flags>
0

> <s_epik_input>
W0NIM11OMVtDSDJdW0NIMl1bQ0BIXShbQ0gyXTEpW0NIMl1bTkhdQyg9TylbTkhdYzJbY0hdW2NIXW5bY0hdW2NIXTI=

> <s_epik_cmdline>
J2VwaWtfcHl0aG9uJywgJy1waCcsICc3LjAnLCAnLXRuJywgJzgnLCAnLW1hJywgJzIwMCcsICctbWV0YWxfYmluZGluZycsICctaW1hZScsICc8aW5maWxlLm1hZT4nLCAnLW9tYWUnLCAnPG91dGZpbGUubWFlPic=

> <r_epik_Ionization_Penalty>
1.09034

> <r_epik_Ionization_Penalty_Charging>
1.09032

> <r_epik_Ionization_Penalty_Neutral>
1.86664e-05

> <r_epik_State_Penalty>
1.14521

> <r_epik_Charging_Adjusted_Penalty>
2.23553

> <i_epik_Tot_Q>
2

> <i_epik_Tot_abs_Q>
2

> <r_epik_Metal_State_Penalty>
1.23399

> <b_epik_Metal_Only>
0

> <s_lp_Force_Field>
OPLS_2005

> <r_lp_Energy>
38.5846

> <b_lp_Chiralities_Consistent>
1

> <s_lp_Variant>
AV-unprocessed.smi:3163-8

> <Gold.Version>
5.8.1

> <Gold.Id.Protein>
6NUR|6NUR_protein|mol2

> <Gold.PLP.Fitness>
46.0177

> <Gold.PLP.PLP>
-32.4268

> <Gold.PLP.part.hbond>
-5.0000

> <Gold.PLP.part.metal>
0.0000

> <Gold.PLP.part.buried>
0.8226

> <Gold.PLP.part.nonpolar>
-30.3251

> <Gold.PLP.part.repulsive>
3.4084

> <Gold.PLP.ligand.clash>
0.0000

> <Gold.PLP.ligand.torsion>
0.3699

> <Gold.PLP.Chemscore.Hbond>
4.7760

> <Gold.PLP.Chemscore.CHOScore>
0.0000

> <Gold.PLP.Chemscore.Metal>
0.0000

> <Gold.Chemscore.Hbonds>
donor molecule, donor type, donor heavy atom, donor atom, acceptor molecule, acceptor atom, score
      L1  H     2    36       P1  7921  0.86
      L1  H     7    28       P1  7948  1.00
      L1  H    10    29       P1  7948  0.91
      L1  H    14    37       P1  8028  2.00

> <Gold.PLP.Chemscore.Internal.Correction>
0.0027

> <Gold.Rescore>
     Score         DG    S(hbond)    S(metal)    S(lipo)     H(rot)  DE(clash)    DE(int)     intcor
     19.75     -23.50       3.48        0.00      82.54       1.27       2.12       1.64       ----

> <Gold.Chemscore.Fitness>
19.7477

> <Gold.Chemscore.DG>
-23.5030

> <Gold.Chemscore.ZeroCoef>
-5.4800

> <Gold.Chemscore.Hbond>
3.4797

> <Gold.Chemscore.Metal>
0.0000

> <Gold.Chemscore.Lipo>
82.5420

> <Gold.Chemscore.Internal_Hbond>
0.0000

> <Gold.Chemscore.DEClash>
2.1188

> <Gold.Chemscore.DEInternal>
1.6365

> <Gold.Chemscore.Rot>
1.2721

> <Gold.Chemscore.Internal.Correction>
   9.000000E+99

> <Gold.Chemscore.Hbonds>
donor molecule, donor type, donor heavy atom, donor atom, acceptor molecule, acceptor atom, score
      L1  H     2    36       P1  7921  0.59
      L1  H     7    28       P1  7948  0.94
      L1  H    10    29       P1  7948  0.86
      L1  H    14    37       P1  8028  0.95

> <Gold.Chemscore.Hbond.Weighted>
-11.6221

> <Gold.Chemscore.Metal.Weighted>
-0.0000

> <Gold.Chemscore.Lipo.Weighted>
-9.6574

> <Gold.Chemscore.Internal_Hbond.Weighted>
0.0000

> <Gold.Chemscore.DEClash.Weighted>
2.1188

> <Gold.Chemscore.DEInternal.Weighted>
1.6365

> <Gold.Chemscore.Rot.Weighted>
3.2565

> <Gold.Chemscore.Internal.Correction.Weighted>
   9.000000E+99

> <Gold.Protein.RotatedTorsions>
[ 6907 6896 6895 6894 ] final -151.05 input  -60.11 | X-H torsion
[ 7974 7965 7964 7962 ] final -175.89 input  175.53 | X-H torsion
[ 8008 7997 7996 7995 ] final  -13.14 input   59.86 | X-H torsion
[ 10167 10162 10161 10158 ] final  175.57 input  -65.29 | X-H torsion
[ 10718 10713 10712 10709 ] final   84.72 input   66.30 | X-H torsion
[ 10763 10752 10751 10750 ] final  -18.46 input  -60.55 | X-H torsion
[ 11005 11000 10999 10996 ] final  -27.68 input  -57.11 | X-H torsion

> <Gold.Protein.ActiveResidues>
 VAL166  LYS551  ARG553  GLY616  TRP617  ASP618  TYR619  PRO620  LYS621  CYS622 
 ASP623  PHE694  ASN695  SER759  ASP760  ASP761  ALA762  ILE779  LEU786  VAL792 
 PHE793  MET794  SER795  GLU796  ALA797  LYS798  CYS799  TRP800  GLU811  SER814 

> <Gold.Protein.RotatedAtoms>
  151.2075  133.4575  159.2597 H   0  0  0  0  0  0  0  0  0  0  0  0  # atno 6907 bound_to 6896
  151.1009  134.9971  159.8458 H   0  0  0  0  0  0  0  0  0  0  0  0  # atno 6908 bound_to 6896
  152.5443  134.2002  159.8762 H   0  0  0  0  0  0  0  0  0  0  0  0  # atno 6909 bound_to 6896
  144.7127  140.1252  143.6402 H   0  0  0  0  0  0  0  0  0  0  0  0  # atno 7974 bound_to 7965
  154.5317  140.2257  155.8793 H   0  0  0  0  0  0  0  0  0  0  0  0  # atno 8008 bound_to 7997
  156.1770  140.3109  155.9042 H   0  0  0  0  0  0  0  0  0  0  0  0  # atno 8009 bound_to 7997
  155.3438  140.0452  157.3036 H   0  0  0  0  0  0  0  0  0  0  0  0  # atno 8010 bound_to 7997
  139.5182  144.3016  152.0373 H   0  0  0  0  0  0  0  0  0  0  0  0  # atno 10167 bound_to 10162
  157.6903  131.0145  150.2715 H   0  0  0  0  0  0  0  0  0  0  0  0  # atno 10718 bound_to 10713
  153.5896  135.7003  153.5429 H   0  0  0  0  0  0  0  0  0  0  0  0  # atno 10763 bound_to 10752
  153.3190  135.4079  155.1400 H   0  0  0  0  0  0  0  0  0  0  0  0  # atno 10764 bound_to 10752
  154.8603  135.3691  154.5427 H   0  0  0  0  0  0  0  0  0  0  0  0  # atno 10765 bound_to 10752
  140.9141  133.7441  156.0711 H   0  0  0  0  0  0  0  0  0  0  0  0  # atno 11005 bound_to 11000
  145.9335  139.2622  143.1311 LP  0  0  0  0  0  0  0  0  0  0  0  0  # atno 17320 bound_to 7965
  145.9498  140.8917  143.0265 LP  0  0  0  0  0  0  0  0  0  0  0  0  # atno 17321 bound_to 7965
  140.2464  144.4216  150.6239 LP  0  0  0  0  0  0  0  0  0  0  0  0  # atno 17342 bound_to 10162
  140.6255  143.2181  151.6605 LP  0  0  0  0  0  0  0  0  0  0  0  0  # atno 17343 bound_to 10162
  156.3277  130.3795  149.7519 LP  0  0  0  0  0  0  0  0  0  0  0  0  # atno 17370 bound_to 10713
  156.5068  130.8154  151.3154 LP  0  0  0  0  0  0  0  0  0  0  0  0  # atno 17371 bound_to 10713
  140.8072  134.3441  157.5422 LP  0  0  0  0  0  0  0  0  0  0  0  0  # atno 17394 bound_to 11000
  139.8763  134.9233  156.3321 LP  0  0  0  0  0  0  0  0  0  0  0  0  # atno 17395 bound_to 11000

$$$$
