AV-unprocessed.smi:840|AV-procd|sdf|3914|dock1
  -GOLD-   22720 1373D 1   1.00000     0.00000
 Structure written by MMmdl.
 36 37  0  0  0  0  0  0  0  0  2 V2000
  148.9677  133.7995  154.0401 C   0  0  0  0  0  0  0  0  0  0  0  0
  148.3280  134.9987  154.7600 C   0  0  1  0  0  0  0  0  0  0  0  0
  149.0504  136.2062  154.3614 N   0  0  0  0  0  0  0  0  0  0  0  0
  149.8498  136.9415  155.1495 C   0  0  0  0  0  0  0  0  0  0  0  0
  150.0346  136.6056  156.3221 O   0  0  0  0  0  0  0  0  0  0  0  0
  150.3841  138.0193  154.5312 N   0  5  0  0  0  0  0  0  0  0  0  0
  149.6797  139.1589  154.4395 C   0  0  0  0  0  0  0  0  0  0  0  0
  150.1743  140.3508  154.7924 N   0  0  0  0  0  0  0  0  0  0  0  0
  149.2742  141.4020  154.6101 C   0  0  0  0  0  0  0  0  0  0  0  0
  148.0683  141.0025  154.0983 C   0  0  0  0  0  0  0  0  0  0  0  0
  148.0280  139.2835  153.8268 S   0  0  0  0  0  0  0  0  0  0  0  0
  146.8559  135.0923  154.3292 C   0  0  0  0  0  0  0  0  0  0  0  0
  145.9501  134.9663  155.1552 O   0  0  0  0  0  0  0  0  0  0  0  0
  146.6349  135.3249  153.0268 N   0  0  0  0  0  0  0  0  0  0  0  0
  145.3183  135.4388  152.4060 C   0  0  0  0  0  0  0  0  0  0  0  0
  144.5256  134.1198  152.5115 C   0  0  0  0  0  0  0  0  0  0  0  0
  144.4665  133.5472  151.0950 C   0  0  0  0  0  0  0  0  0  0  0  0
  144.4942  134.7768  150.1930 C   0  0  0  0  0  0  0  0  0  0  0  0
  145.4454  135.7429  150.9010 C   0  0  0  0  0  0  0  0  0  0  0  0
  148.4681  132.8668  154.3045 H   0  0  0  0  0  0  0  0  0  0  0  0
  150.0169  133.6951  154.3181 H   0  0  0  0  0  0  0  0  0  0  0  0
  148.9247  133.9049  152.9549 H   0  0  0  0  0  0  0  0  0  0  0  0
  148.4033  134.8565  155.8400 H   0  0  0  0  0  0  0  0  0  0  0  0
  148.9224  136.5201  153.4109 H   0  0  0  0  0  0  0  0  0  0  0  0
  149.5770  142.4050  154.8715 H   0  0  0  0  0  0  0  0  0  0  0  0
  147.2073  141.6097  153.8639 H   0  0  0  0  0  0  0  0  0  0  0  0
  147.4371  135.4095  152.4195 H   0  0  0  0  0  0  0  0  0  0  0  0
  144.7560  136.2395  152.8901 H   0  0  0  0  0  0  0  0  0  0  0  0
  144.9543  133.4084  153.2190 H   0  0  0  0  0  0  0  0  0  0  0  0
  143.5133  134.3377  152.8542 H   0  0  0  0  0  0  0  0  0  0  0  0
  145.3499  132.9350  150.9093 H   0  0  0  0  0  0  0  0  0  0  0  0
  143.5873  132.9237  150.9305 H   0  0  0  0  0  0  0  0  0  0  0  0
  144.8108  134.5455  149.1757 H   0  0  0  0  0  0  0  0  0  0  0  0
  143.4967  135.2152  150.1413 H   0  0  0  0  0  0  0  0  0  0  0  0
  145.2156  136.7835  150.6701 H   0  0  0  0  0  0  0  0  0  0  0  0
  146.4629  135.5541  150.5547 H   0  0  0  0  0  0  0  0  0  0  0  0
  1  2  1  0  0  0  0
  1 20  1  0  0  0  0
  1 21  1  0  0  0  0
  1 22  1  0  0  0  0
  2  3  1  0  0  0  0
  2 12  1  0  0  0  0
  2 23  1  0  0  0  0
  3  4  1  0  0  0  0
  3 24  1  0  0  0  0
  4  5  2  0  0  0  0
  4  6  1  0  0  0  0
  6  7  1  0  0  0  0
  7 11  1  0  0  0  0
  7  8  2  0  0  0  0
  8  9  1  0  0  0  0
  9 10  2  0  0  0  0
  9 25  1  0  0  0  0
 10 11  1  0  0  0  0
 10 26  1  0  0  0  0
 12 13  2  0  0  0  0
 12 14  1  0  0  0  0
 14 15  1  0  0  0  0
 14 27  1  0  0  0  0
 15 19  1  0  0  0  0
 15 16  1  0  0  0  0
 15 28  1  0  0  0  0
 16 17  1  0  0  0  0
 16 29  1  0  0  0  0
 16 30  1  0  0  0  0
 17 18  1  0  0  0  0
 17 31  1  0  0  0  0
 17 32  1  0  0  0  0
 18 19  1  0  0  0  0
 18 33  1  0  0  0  0
 18 34  1  0  0  0  0
 19 35  1  0  0  0  0
 19 36  1  0  0  0  0
M  CHG  1   6  -1
M  END
> <s_m_source_file>
AV-unprocessed.smi

> <i_m_source_file_index>
840

> <i_lp_mmshare_version>
43012

> <i_f3d_flags>
0

> <s_epik_input>
W0NIMl0xW0NIMl1bQ0gyXVtDSDJdW0NIXTFbTkhdQyg9TylbQ0BIXShbQ0gzXSlbTkhdQyg9TylbTkhdYzJuW2NIXVtjSF1zMg==

> <s_epik_cmdline>
J2VwaWtfcHl0aG9uJywgJy1waCcsICc3LjAnLCAnLXRuJywgJzgnLCAnLW1hJywgJzIwMCcsICctbWV0YWxfYmluZGluZycsICctaW1hZScsICc8aW5maWxlLm1hZT4nLCAnLW9tYWUnLCAnPG91dGZpbGUubWFlPic=

> <r_lp_tautomer_probability>
1

> <r_epik_Ionization_Penalty>
6.35467

> <r_epik_Ionization_Penalty_Charging>
5.47395

> <r_epik_Ionization_Penalty_Neutral>
0.880717

> <r_epik_State_Penalty>
5.4739

> <r_epik_Charging_Adjusted_Penalty>
10.9479

> <i_epik_Tot_Q>
-1

> <i_epik_Tot_abs_Q>
1

> <r_epik_Metal_State_Penalty>
1.48639

> <b_epik_Metal_Only>
1

> <s_lp_Force_Field>
OPLS_2005

> <r_lp_Energy>
13.1034

> <b_lp_Chiralities_Consistent>
1

> <s_lp_Variant>
AV-unprocessed.smi:840-4

> <Gold.Version>
5.8.1

> <Gold.Id.Protein>
6NUR|6NUR_protein|mol2

> <Gold.PLP.Fitness>
38.1963

> <Gold.PLP.PLP>
-28.8324

> <Gold.PLP.part.hbond>
-2.8961

> <Gold.PLP.part.metal>
0.0000

> <Gold.PLP.part.buried>
-1.9110

> <Gold.PLP.part.nonpolar>
-23.4372

> <Gold.PLP.part.repulsive>
0.3464

> <Gold.PLP.ligand.clash>
0.0000

> <Gold.PLP.ligand.torsion>
1.3234

> <Gold.PLP.Chemscore.Hbond>
3.0000

> <Gold.PLP.Chemscore.CHOScore>
0.9894

> <Gold.PLP.Chemscore.Metal>
0.0000

> <Gold.Chemscore.Hbonds>
donor molecule, donor type, donor heavy atom, donor atom, acceptor molecule, acceptor atom, score
      L1  H     3    24       P1  7948  0.99
      L1  H    14    27       P1  7948  1.00
      P1  H  7989  7998       L1     8  1.00
      L1  C     9    25       P1  8028  1.00

> <Gold.PLP.Chemscore.Internal.Correction>
0.0425

> <Gold.Rescore>
     Score         DG    S(hbond)    S(metal)    S(lipo)     H(rot)  DE(clash)    DE(int)     intcor
     14.99     -16.28       2.56        0.00      54.61       1.62       0.02       1.27       ----

> <Gold.Chemscore.Fitness>
14.9888

> <Gold.Chemscore.DG>
-16.2788

> <Gold.Chemscore.ZeroCoef>
-5.4800

> <Gold.Chemscore.Hbond>
2.5621

> <Gold.Chemscore.Metal>
0.0000

> <Gold.Chemscore.Lipo>
54.6098

> <Gold.Chemscore.Internal_Hbond>
0.0000

> <Gold.Chemscore.DEClash>
0.0224

> <Gold.Chemscore.DEInternal>
1.2675

> <Gold.Chemscore.Rot>
1.6204

> <Gold.Chemscore.Internal.Correction>
   9.000000E+99

> <Gold.Chemscore.Hbonds>
donor molecule, donor type, donor heavy atom, donor atom, acceptor molecule, acceptor atom, score
      L1  H     3    24       P1  7948  0.90
      L1  H    14    27       P1  7948  0.98
      P1  H  7989  7998       L1     8  0.16

> <Gold.Chemscore.Hbond.Weighted>
-8.5576

> <Gold.Chemscore.Metal.Weighted>
-0.0000

> <Gold.Chemscore.Lipo.Weighted>
-6.3893

> <Gold.Chemscore.Internal_Hbond.Weighted>
0.0000

> <Gold.Chemscore.DEClash.Weighted>
0.0224

> <Gold.Chemscore.DEInternal.Weighted>
1.2675

> <Gold.Chemscore.Rot.Weighted>
4.1481

> <Gold.Chemscore.Internal.Correction.Weighted>
   9.000000E+99

> <Gold.Protein.RotatedTorsions>
[ 6907 6896 6895 6894 ] final   72.64 input  -60.11 | X-H torsion
[ 7974 7965 7964 7962 ] final  139.73 input  175.53 | X-H torsion
[ 8008 7997 7996 7995 ] final   95.45 input   59.86 | X-H torsion
[ 10167 10162 10161 10158 ] final  148.94 input  -65.29 | X-H torsion
[ 10718 10713 10712 10709 ] final   60.81 input   66.30 | X-H torsion
[ 10763 10752 10751 10750 ] final  155.64 input  -60.55 | X-H torsion
[ 11005 11000 10999 10996 ] final  -46.21 input  -57.11 | X-H torsion

> <Gold.Protein.ActiveResidues>
 VAL166  LYS551  ARG553  GLY616  TRP617  ASP618  TYR619  PRO620  LYS621  CYS622 
 ASP623  PHE694  ASN695  SER759  ASP760  ASP761  ALA762  ILE779  LEU786  VAL792 
 PHE793  MET794  SER795  GLU796  ALA797  LYS798  CYS799  TRP800  GLU811  SER814 

> <Gold.Protein.RotatedAtoms>
  152.4879  134.4541  159.9583 H   0  0  0  0  0  0  0  0  0  0  0  0  # atno 6907 bound_to 6896
  151.4534  133.3605  159.2806 H   0  0  0  0  0  0  0  0  0  0  0  0  # atno 6908 bound_to 6896
  150.9006  134.8442  159.7418 H   0  0  0  0  0  0  0  0  0  0  0  0  # atno 6909 bound_to 6896
  144.9252  139.5117  143.5644 H   0  0  0  0  0  0  0  0  0  0  0  0  # atno 7974 bound_to 7965
  156.0690  140.3286  155.7552 H   0  0  0  0  0  0  0  0  0  0  0  0  # atno 8008 bound_to 7997
  155.5336  140.0595  157.2901 H   0  0  0  0  0  0  0  0  0  0  0  0  # atno 8009 bound_to 7997
  154.4520  140.1923  156.0509 H   0  0  0  0  0  0  0  0  0  0  0  0  # atno 8010 bound_to 7997
  139.4868  144.5640  151.7178 H   0  0  0  0  0  0  0  0  0  0  0  0  # atno 10167 bound_to 10162
  157.5781  130.8959  149.9382 H   0  0  0  0  0  0  0  0  0  0  0  0  # atno 10718 bound_to 10713
  154.1716  135.2804  155.3079 H   0  0  0  0  0  0  0  0  0  0  0  0  # atno 10763 bound_to 10752
  154.6071  135.5511  153.7437 H   0  0  0  0  0  0  0  0  0  0  0  0  # atno 10764 bound_to 10752
  153.0163  135.6406  154.1856 H   0  0  0  0  0  0  0  0  0  0  0  0  # atno 10765 bound_to 10752
  141.0564  133.6724  156.3122 H   0  0  0  0  0  0  0  0  0  0  0  0  # atno 11005 bound_to 11000
  146.3223  139.8161  142.8936 LP  0  0  0  0  0  0  0  0  0  0  0  0  # atno 17320 bound_to 7965
  145.3231  141.0249  143.3489 LP  0  0  0  0  0  0  0  0  0  0  0  0  # atno 17321 bound_to 7965
  140.5215  144.0871  150.6024 LP  0  0  0  0  0  0  0  0  0  0  0  0  # atno 17342 bound_to 10162
  140.3831  143.2792  152.0147 LP  0  0  0  0  0  0  0  0  0  0  0  0  # atno 17343 bound_to 10162
  156.0826  130.3671  150.0551 LP  0  0  0  0  0  0  0  0  0  0  0  0  # atno 17370 bound_to 10713
  156.8694  130.9519  151.3610 LP  0  0  0  0  0  0  0  0  0  0  0  0  # atno 17371 bound_to 10713
  140.5955  134.5608  157.5508 LP  0  0  0  0  0  0  0  0  0  0  0  0  # atno 17394 bound_to 11000
  139.9394  134.7815  156.0717 LP  0  0  0  0  0  0  0  0  0  0  0  0  # atno 17395 bound_to 11000

$$$$
