AV-unprocessed.smi:1872|AV-procd|sdf|7605|dock3
  -GOLD-   22720 9323D 1   1.00000     0.00000
 Structure written by MMmdl.
 40 42  0  0  0  0  0  0  0  0  2 V2000
  149.8227  141.3985  156.3163 C   0  0  0  0  0  0  0  0  0  0  0  0
  150.4932  141.9710  157.5198 C   0  0  0  0  0  0  0  0  0  0  0  0
  150.4661  143.2766  157.9089 N   0  3  0  0  0  0  0  0  0  0  0  0
  151.2083  143.4356  159.0799 C   0  0  0  0  0  0  0  0  0  0  0  0
  151.4696  144.5682  159.8451 C   0  0  0  0  0  0  0  0  0  0  0  0
  152.2683  144.3860  160.9929 C   0  0  0  0  0  0  0  0  0  0  0  0
  152.7719  143.1162  161.3427 C   0  0  0  0  0  0  0  0  0  0  0  0
  152.5001  141.9755  160.5591 C   0  0  0  0  0  0  0  0  0  0  0  0
  151.7119  142.1639  159.4236 C   0  0  0  0  0  0  0  0  0  0  0  0
  151.2457  141.2920  158.4316 N   0  0  0  0  0  0  0  0  0  0  0  0
  151.5961  139.8638  158.4873 C   0  0  0  0  0  0  0  0  0  0  0  0
  153.1094  139.6099  158.3381 C   0  0  2  0  0  0  0  0  0  0  0  0
  153.4426  139.4358  156.9744 O   0  0  0  0  0  0  0  0  0  0  0  0
  153.5556  138.4352  159.1938 C   0  0  0  0  0  0  0  0  0  0  0  0
  153.1272  137.1293  158.8772 C   0  0  0  0  0  0  0  0  0  0  0  0
  153.5464  136.0357  159.6587 C   0  0  0  0  0  0  0  0  0  0  0  0
  154.3927  136.2290  160.7689 C   0  0  0  0  0  0  0  0  0  0  0  0
  154.7793  135.1185  161.4845 O   0  0  0  0  0  0  0  0  0  0  0  0
  153.8482  134.4246  162.1915 C   0  0  0  0  0  0  0  0  0  0  0  0
  154.3171  133.1848  162.4720 F   0  0  0  0  0  0  0  0  0  0  0  0
  153.5922  135.0418  163.3711 F   0  0  0  0  0  0  0  0  0  0  0  0
  154.8331  137.5385  161.0772 C   0  0  0  0  0  0  0  0  0  0  0  0
  154.4152  138.6327  160.2956 C   0  0  0  0  0  0  0  0  0  0  0  0
  149.2901  142.1757  155.7679 H   0  0  0  0  0  0  0  0  0  0  0  0
  149.1080  140.6305  156.6121 H   0  0  0  0  0  0  0  0  0  0  0  0
  150.5618  140.9498  155.6523 H   0  0  0  0  0  0  0  0  0  0  0  0
  151.0834  145.5416  159.5799 H   0  0  0  0  0  0  0  0  0  0  0  0
  152.4980  145.2366  161.6184 H   0  0  0  0  0  0  0  0  0  0  0  0
  153.3783  143.0141  162.2309 H   0  0  0  0  0  0  0  0  0  0  0  0
  152.8868  141.0076  160.8412 H   0  0  0  0  0  0  0  0  0  0  0  0
  151.2531  139.4877  159.4519 H   0  0  0  0  0  0  0  0  0  0  0  0
  151.0251  139.3214  157.7336 H   0  0  0  0  0  0  0  0  0  0  0  0
  153.6467  140.4974  158.6750 H   0  0  0  0  0  0  0  0  0  0  0  0
  152.8665  138.7824  156.6076 H   0  0  0  0  0  0  0  0  0  0  0  0
  152.4774  136.9592  158.0312 H   0  0  0  0  0  0  0  0  0  0  0  0
  153.2138  135.0396  159.4052 H   0  0  0  0  0  0  0  0  0  0  0  0
  152.9192  134.3106  161.6323 H   0  0  0  0  0  0  0  0  0  0  0  0
  155.4994  137.7177  161.9078 H   0  0  0  0  0  0  0  0  0  0  0  0
  154.7628  139.6252  160.5428 H   0  0  0  0  0  0  0  0  0  0  0  0
  149.9744  144.0053  157.4077 H   0  0  0  0  0  0  0  0  0  0  0  0
  1  2  1  0  0  0  0
  1 24  1  0  0  0  0
  1 25  1  0  0  0  0
  1 26  1  0  0  0  0
  2 10  1  0  0  0  0
  2  3  2  0  0  0  0
  3  4  1  0  0  0  0
  3 40  1  0  0  0  0
  4  9  2  0  0  0  0
  4  5  1  0  0  0  0
  5  6  2  0  0  0  0
  5 27  1  0  0  0  0
  6  7  1  0  0  0  0
  6 28  1  0  0  0  0
  7  8  2  0  0  0  0
  7 29  1  0  0  0  0
  8  9  1  0  0  0  0
  8 30  1  0  0  0  0
  9 10  1  0  0  0  0
 10 11  1  0  0  0  0
 11 12  1  0  0  0  0
 11 31  1  0  0  0  0
 11 32  1  0  0  0  0
 12 13  1  0  0  0  0
 12 14  1  0  0  0  0
 12 33  1  0  0  0  0
 13 34  1  0  0  0  0
 14 23  1  0  0  0  0
 14 15  2  0  0  0  0
 15 16  1  0  0  0  0
 15 35  1  0  0  0  0
 16 17  2  0  0  0  0
 16 36  1  0  0  0  0
 17 18  1  0  0  0  0
 17 22  1  0  0  0  0
 18 19  1  0  0  0  0
 19 20  1  0  0  0  0
 19 21  1  0  0  0  0
 19 37  1  0  0  0  0
 22 23  2  0  0  0  0
 22 38  1  0  0  0  0
 23 39  1  0  0  0  0
M  CHG  1   3   1
M  END
> <s_m_source_file>
AV-unprocessed.smi

> <i_m_source_file_index>
1872

> <i_lp_mmshare_version>
43012

> <i_f3d_flags>
0

> <s_epik_input>
W2NIXTFbY0hdW2NIXVtjSF1jKGMxMiluKGMobjIpW0NIM10pW0NIMl1bQ0BIXShbT0hdKWMzW2NIXVtjSF1jKE9bQ0hdKEYpRilbY0hdW2NIXTM=

> <s_epik_cmdline>
J2VwaWtfcHl0aG9uJywgJy1waCcsICc3LjAnLCAnLXRuJywgJzgnLCAnLW1hJywgJzIwMCcsICctbWV0YWxfYmluZGluZycsICctaW1hZScsICc8aW5maWxlLm1hZT4nLCAnLW9tYWUnLCAnPG91dGZpbGUubWFlPic=

> <r_lp_tautomer_probability>
1

> <r_epik_Ionization_Penalty>
0.963868

> <r_epik_Ionization_Penalty_Charging>
0.963868

> <r_epik_Ionization_Penalty_Neutral>
2.50501e-07

> <r_epik_State_Penalty>
1.00924

> <r_epik_Charging_Adjusted_Penalty>
1.9731

> <i_epik_Tot_Q>
1

> <i_epik_Tot_abs_Q>
1

> <r_epik_Metal_State_Penalty>
4.98304

> <b_epik_Metal_Only>
0

> <s_lp_Force_Field>
OPLS_2005

> <r_lp_Energy>
14.3509

> <b_lp_Chiralities_Consistent>
1

> <s_lp_Variant>
AV-unprocessed.smi:1872-3

> <Gold.Version>
5.8.1

> <Gold.Id.Protein>
6NUR|6NUR_protein|mol2

> <Gold.PLP.Fitness>
55.8835

> <Gold.PLP.PLP>
-48.3034

> <Gold.PLP.part.hbond>
-1.7531

> <Gold.PLP.part.metal>
0.0000

> <Gold.PLP.part.buried>
-4.8795

> <Gold.PLP.part.nonpolar>
-41.9875

> <Gold.PLP.part.repulsive>
0.0303

> <Gold.PLP.ligand.clash>
0.0000

> <Gold.PLP.ligand.torsion>
0.7277

> <Gold.PLP.Chemscore.Hbond>
2.9920

> <Gold.PLP.Chemscore.CHOScore>
0.0000

> <Gold.PLP.Chemscore.Metal>
0.0000

> <Gold.Chemscore.Hbonds>
donor molecule, donor type, donor heavy atom, donor atom, acceptor molecule, acceptor atom, score
      L1  H     3    40       P1  8028  1.37
      P1  H  7997  8008       L1    13  0.19

> <Gold.PLP.Chemscore.Internal.Correction>
0.0596

> <Gold.Rescore>
     Score         DG    S(hbond)    S(metal)    S(lipo)     H(rot)  DE(clash)    DE(int)     intcor
     16.96     -17.92       1.04        0.00     127.40       2.32       0.26       0.70       ----

> <Gold.Chemscore.Fitness>
16.9641

> <Gold.Chemscore.DG>
-17.9241

> <Gold.Chemscore.ZeroCoef>
-5.4800

> <Gold.Chemscore.Hbond>
1.0407

> <Gold.Chemscore.Metal>
0.0000

> <Gold.Chemscore.Lipo>
127.4025

> <Gold.Chemscore.Internal_Hbond>
0.0000

> <Gold.Chemscore.DEClash>
0.2603

> <Gold.Chemscore.DEInternal>
0.6997

> <Gold.Chemscore.Rot>
2.3195

> <Gold.Chemscore.Internal.Correction>
   9.000000E+99

> <Gold.Chemscore.Hbonds>
donor molecule, donor type, donor heavy atom, donor atom, acceptor molecule, acceptor atom, score
      L1  H     3    40       P1  8028  0.47
      P1  H  7997  8008       L1    13  0.20

> <Gold.Chemscore.Hbond.Weighted>
-3.4759

> <Gold.Chemscore.Metal.Weighted>
-0.0000

> <Gold.Chemscore.Lipo.Weighted>
-14.9061

> <Gold.Chemscore.Internal_Hbond.Weighted>
0.0000

> <Gold.Chemscore.DEClash.Weighted>
0.2603

> <Gold.Chemscore.DEInternal.Weighted>
0.6997

> <Gold.Chemscore.Rot.Weighted>
5.9379

> <Gold.Chemscore.Internal.Correction.Weighted>
   9.000000E+99

> <Gold.Protein.RotatedTorsions>
[ 6907 6896 6895 6894 ] final  170.81 input  -60.11 | X-H torsion
[ 7974 7965 7964 7962 ] final  155.37 input  175.53 | X-H torsion
[ 8008 7997 7996 7995 ] final  -52.38 input   59.86 | X-H torsion
[ 10167 10162 10161 10158 ] final -146.51 input  -65.29 | X-H torsion
[ 10718 10713 10712 10709 ] final -140.22 input   66.30 | X-H torsion
[ 10763 10752 10751 10750 ] final  -45.00 input  -60.55 | X-H torsion
[ 11005 11000 10999 10996 ] final   50.52 input  -57.11 | X-H torsion

> <Gold.Protein.ActiveResidues>
 VAL166  LYS551  ARG553  GLY616  TRP617  ASP618  TYR619  PRO620  LYS621  CYS622 
 ASP623  PHE694  ASN695  SER759  ASP760  ASP761  ALA762  ILE779  LEU786  VAL792 
 PHE793  MET794  SER795  GLU796  ALA797  LYS798  CYS799  TRP800  GLU811  SER814 

> <Gold.Protein.RotatedAtoms>
  151.8102  133.3381  159.3552 H   0  0  0  0  0  0  0  0  0  0  0  0  # atno 6907 bound_to 6896
  150.7329  134.5671  159.5881 H   0  0  0  0  0  0  0  0  0  0  0  0  # atno 6908 bound_to 6896
  152.3081  134.7532  160.0394 H   0  0  0  0  0  0  0  0  0  0  0  0  # atno 6909 bound_to 6896
  144.8029  139.7059  143.6174 H   0  0  0  0  0  0  0  0  0  0  0  0  # atno 7974 bound_to 7965
  154.4105  140.1225  156.4982 H   0  0  0  0  0  0  0  0  0  0  0  0  # atno 8008 bound_to 7997
  155.6922  140.3495  155.4879 H   0  0  0  0  0  0  0  0  0  0  0  0  # atno 8009 bound_to 7997
  155.9459  140.1096  157.1007 H   0  0  0  0  0  0  0  0  0  0  0  0  # atno 8010 bound_to 7997
  139.7707  143.8242  152.2624 H   0  0  0  0  0  0  0  0  0  0  0  0  # atno 10167 bound_to 10162
  156.3198  130.7528  151.1623 H   0  0  0  0  0  0  0  0  0  0  0  0  # atno 10718 bound_to 10713
  154.0213  135.6669  153.4773 H   0  0  0  0  0  0  0  0  0  0  0  0  # atno 10763 bound_to 10752
  153.0579  135.5045  154.8020 H   0  0  0  0  0  0  0  0  0  0  0  0  # atno 10764 bound_to 10752
  154.6935  135.3065  154.9409 H   0  0  0  0  0  0  0  0  0  0  0  0  # atno 10765 bound_to 10752
  140.1011  134.5080  155.8762 H   0  0  0  0  0  0  0  0  0  0  0  0  # atno 11005 bound_to 11000
  146.2314  139.5822  142.9552 LP  0  0  0  0  0  0  0  0  0  0  0  0  # atno 17320 bound_to 7965
  145.5508  141.0413  143.2279 LP  0  0  0  0  0  0  0  0  0  0  0  0  # atno 17321 bound_to 7965
  139.8275  144.7268  150.9492 LP  0  0  0  0  0  0  0  0  0  0  0  0  # atno 17342 bound_to 10162
  140.7814  143.4100  151.1008 LP  0  0  0  0  0  0  0  0  0  0  0  0  # atno 17343 bound_to 10162
  157.7409  131.0510  150.5132 LP  0  0  0  0  0  0  0  0  0  0  0  0  # atno 17370 bound_to 10713
  156.5283  130.4178  149.6215 LP  0  0  0  0  0  0  0  0  0  0  0  0  # atno 17371 bound_to 10713
  141.2106  133.6696  156.6519 LP  0  0  0  0  0  0  0  0  0  0  0  0  # atno 17394 bound_to 11000
  140.3219  134.8000  157.4259 LP  0  0  0  0  0  0  0  0  0  0  0  0  # atno 17395 bound_to 11000

$$$$
