AV-unprocessed.smi:1809|AV-procd|sdf|7326|dock1
  -GOLD-   22720 8583D 1   1.00000     0.00000
 Structure written by MMmdl.
 39 41  0  0  0  0  0  0  0  0  3 V2000
  149.2185  141.1286  154.9200 C   0  0  0  0  0  0  0  0  0  0  0  0
  150.0134  139.8732  154.8044 C   0  0  0  0  0  0  0  0  0  0  0  0
  151.3472  139.8554  154.8584 N   0  0  0  0  0  0  0  0  0  0  0  0
  151.8585  138.5726  154.7245 N   0  0  0  0  0  0  0  0  0  0  0  0
  150.9081  137.6414  154.5626 C   0  0  0  0  0  0  0  0  0  0  0  0
  151.1971  136.3372  154.4204 N   0  5  0  0  0  0  0  0  0  0  0  0
  150.4433  135.4043  155.0435 C   0  0  0  0  0  0  0  0  0  0  0  0
  150.6615  134.9074  156.1510 O   0  0  0  0  0  0  0  0  0  0  0  0
  149.3725  135.0167  154.3366 N   0  0  0  0  0  0  0  0  0  0  0  0
  148.4016  134.0084  154.7471 C   0  0  0  0  0  0  0  0  0  0  0  0
  147.3029  133.8205  153.6872 C   0  0  1  0  0  0  0  0  0  0  0  0
  146.1797  132.8889  154.1798 C   0  0  0  0  0  0  0  0  0  0  0  0
  145.0627  132.8120  153.2094 N   0  3  2  0  0  0  0  0  0  0  0  0
  145.2518  131.9019  152.0579 C   0  0  0  0  0  0  0  0  0  0  0  0
  144.4792  132.5239  150.8837 C   0  0  0  0  0  0  0  0  0  0  0  0
  143.7722  133.7516  151.4661 C   0  0  0  0  0  0  0  0  0  0  0  0
  144.6141  134.1203  152.6884 C   0  0  2  0  0  0  0  0  0  0  0  0
  145.8129  135.0245  152.3206 C   0  0  0  0  0  0  0  0  0  0  0  0
  146.7289  135.0916  153.4032 O   0  0  0  0  0  0  0  0  0  0  0  0
  149.2710  138.2976  154.5840 S   0  0  0  0  0  0  0  0  0  0  0  0
  149.1738  141.6306  153.9536 H   0  0  0  0  0  0  0  0  0  0  0  0
  149.6769  141.8016  155.6451 H   0  0  0  0  0  0  0  0  0  0  0  0
  148.2030  140.9044  155.2469 H   0  0  0  0  0  0  0  0  0  0  0  0
  149.2298  135.4505  153.4363 H   0  0  0  0  0  0  0  0  0  0  0  0
  148.9135  133.0637  154.9374 H   0  0  0  0  0  0  0  0  0  0  0  0
  147.9622  134.3177  155.6957 H   0  0  0  0  0  0  0  0  0  0  0  0
  147.7497  133.4071  152.7816 H   0  0  0  0  0  0  0  0  0  0  0  0
  146.5616  131.8881  154.3858 H   0  0  0  0  0  0  0  0  0  0  0  0
  145.7797  133.2711  155.1198 H   0  0  0  0  0  0  0  0  0  0  0  0
  146.3069  131.8007  151.8007 H   0  0  0  0  0  0  0  0  0  0  0  0
  144.8763  130.9097  152.3103 H   0  0  0  0  0  0  0  0  0  0  0  0
  145.1784  132.8307  150.1048 H   0  0  0  0  0  0  0  0  0  0  0  0
  143.7745  131.8239  150.4336 H   0  0  0  0  0  0  0  0  0  0  0  0
  143.6744  134.5669  150.7483 H   0  0  0  0  0  0  0  0  0  0  0  0
  142.7674  133.4734  151.7875 H   0  0  0  0  0  0  0  0  0  0  0  0
  144.0087  134.6209  153.4452 H   0  0  0  0  0  0  0  0  0  0  0  0
  146.3287  134.6663  151.4282 H   0  0  0  0  0  0  0  0  0  0  0  0
  145.4631  136.0315  152.0926 H   0  0  0  0  0  0  0  0  0  0  0  0
  144.2721  132.4319  153.7101 H   0  0  0  0  0  0  0  0  0  0  0  0
  1  2  1  0  0  0  0
  1 21  1  0  0  0  0
  1 22  1  0  0  0  0
  1 23  1  0  0  0  0
  2 20  1  0  0  0  0
  2  3  2  0  0  0  0
  3  4  1  0  0  0  0
  4  5  2  0  0  0  0
  5  6  1  0  0  0  0
  5 20  1  0  0  0  0
  6  7  1  0  0  0  0
  7  8  2  0  0  0  0
  7  9  1  0  0  0  0
  9 10  1  0  0  0  0
  9 24  1  0  0  0  0
 10 11  1  0  0  0  0
 10 25  1  0  0  0  0
 10 26  1  0  0  0  0
 11 19  1  0  0  0  0
 11 12  1  0  0  0  0
 11 27  1  0  0  0  0
 12 13  1  0  0  0  0
 12 28  1  0  0  0  0
 12 29  1  0  0  0  0
 13 17  1  0  0  0  0
 13 14  1  0  0  0  0
 13 39  1  0  0  0  0
 14 15  1  0  0  0  0
 14 30  1  0  0  0  0
 14 31  1  0  0  0  0
 15 16  1  0  0  0  0
 15 32  1  0  0  0  0
 15 33  1  0  0  0  0
 16 17  1  0  0  0  0
 16 34  1  0  0  0  0
 16 35  1  0  0  0  0
 17 18  1  0  0  0  0
 17 36  1  0  0  0  0
 18 19  1  0  0  0  0
 18 37  1  0  0  0  0
 18 38  1  0  0  0  0
M  CHG  1   6  -1
M  CHG  1  13   1
M  END
> <s_m_source_file>
AV-unprocessed.smi

> <i_m_source_file_index>
1809

> <i_lp_mmshare_version>
43012

> <i_f3d_flags>
0

> <s_epik_input>
W0NIM11jMW5uYyhzMSlbTkhdQyg9TylbTkhdW0NIMl1bQ0BIXShbQ0gyXTIpT1tDSDJdW0NAQEhdKE4yMylbQ0gyXVtDSDJdW0NIMl0z

> <s_epik_cmdline>
J2VwaWtfcHl0aG9uJywgJy1waCcsICc3LjAnLCAnLXRuJywgJzgnLCAnLW1hJywgJzIwMCcsICctbWV0YWxfYmluZGluZycsICctaW1hZScsICc8aW5maWxlLm1hZT4nLCAnLW9tYWUnLCAnPG91dGZpbGUubWFlPic=

> <r_lp_tautomer_probability>
1

> <r_epik_Ionization_Penalty>
3.2601

> <r_epik_Ionization_Penalty_Charging>
3.1406

> <r_epik_Ionization_Penalty_Neutral>
0.119497

> <r_epik_State_Penalty>
3.08894

> <r_epik_Charging_Adjusted_Penalty>
6.22954

> <i_epik_Tot_Q>
0

> <i_epik_Tot_abs_Q>
2

> <r_epik_Metal_State_Penalty>
0.510807

> <b_epik_Metal_Only>
1

> <s_lp_Force_Field>
OPLS_2005

> <r_lp_Energy>
28.762

> <b_lp_Chiralities_Consistent>
1

> <s_lp_Variant>
AV-unprocessed.smi:1809-18

> <Gold.Version>
5.8.1

> <Gold.Id.Protein>
6NUR|6NUR_protein|mol2

> <Gold.PLP.Fitness>
45.3041

> <Gold.PLP.PLP>
-29.4411

> <Gold.PLP.part.hbond>
-3.9677

> <Gold.PLP.part.metal>
0.0000

> <Gold.PLP.part.buried>
-6.5388

> <Gold.PLP.part.nonpolar>
-22.0031

> <Gold.PLP.part.repulsive>
2.7375

> <Gold.PLP.ligand.clash>
0.0000

> <Gold.PLP.ligand.torsion>
1.0871

> <Gold.PLP.Chemscore.Hbond>
6.0000

> <Gold.PLP.Chemscore.CHOScore>
0.0000

> <Gold.PLP.Chemscore.Metal>
0.0000

> <Gold.Chemscore.Hbonds>
donor molecule, donor type, donor heavy atom, donor atom, acceptor molecule, acceptor atom, score
      L1  H     9    24       P1  7948  1.00
      L1  H    13    39       P1 10957  2.00
      P1  H  7989  7998       L1     3  0.90
      P1  H 10752 10763       L1     6  2.00

> <Gold.PLP.Chemscore.Internal.Correction>
0.0373

> <Gold.Rescore>
     Score         DG    S(hbond)    S(metal)    S(lipo)     H(rot)  DE(clash)    DE(int)     intcor
     17.88     -19.00       3.19        0.00      53.51       1.32       0.12       1.00       ----

> <Gold.Chemscore.Fitness>
17.8815

> <Gold.Chemscore.DG>
-19.0036

> <Gold.Chemscore.ZeroCoef>
-5.4800

> <Gold.Chemscore.Hbond>
3.1899

> <Gold.Chemscore.Metal>
0.0000

> <Gold.Chemscore.Lipo>
53.5061

> <Gold.Chemscore.Internal_Hbond>
0.0000

> <Gold.Chemscore.DEClash>
0.1190

> <Gold.Chemscore.DEInternal>
1.0031

> <Gold.Chemscore.Rot>
1.3246

> <Gold.Chemscore.Internal.Correction>
   9.000000E+99

> <Gold.Chemscore.Hbonds>
donor molecule, donor type, donor heavy atom, donor atom, acceptor molecule, acceptor atom, score
      L1  H     9    24       P1  7948  0.35
      L1  H    13    39       P1 10957  0.28
      P1  H  7989  7998       L1     3  0.16
      P1  H 10752 10763       L1     6  0.55

> <Gold.Chemscore.Hbond.Weighted>
-10.6544

> <Gold.Chemscore.Metal.Weighted>
-0.0000

> <Gold.Chemscore.Lipo.Weighted>
-6.2602

> <Gold.Chemscore.Internal_Hbond.Weighted>
0.0000

> <Gold.Chemscore.DEClash.Weighted>
0.1190

> <Gold.Chemscore.DEInternal.Weighted>
1.0031

> <Gold.Chemscore.Rot.Weighted>
3.3910

> <Gold.Chemscore.Internal.Correction.Weighted>
   9.000000E+99

> <Gold.Protein.RotatedTorsions>
[ 6907 6896 6895 6894 ] final -150.44 input  -60.11 | X-H torsion
[ 7974 7965 7964 7962 ] final -124.32 input  175.53 | X-H torsion
[ 8008 7997 7996 7995 ] final  -34.54 input   59.86 | X-H torsion
[ 10167 10162 10161 10158 ] final  173.42 input  -65.29 | X-H torsion
[ 10718 10713 10712 10709 ] final  132.99 input   66.30 | X-H torsion
[ 10763 10752 10751 10750 ] final   45.06 input  -60.55 | X-H torsion
[ 11005 11000 10999 10996 ] final   86.55 input  -57.11 | X-H torsion

> <Gold.Protein.ActiveResidues>
 VAL166  LYS551  ARG553  GLY616  TRP617  ASP618  TYR619  PRO620  LYS621  CYS622 
 ASP623  PHE694  ASN695  SER759  ASP760  ASP761  ALA762  ILE779  LEU786  VAL792 
 PHE793  MET794  SER795  GLU796  ALA797  LYS798  CYS799  TRP800  GLU811  SER814 

> <Gold.Protein.RotatedAtoms>
  151.1985  133.4625  159.2595 H   0  0  0  0  0  0  0  0  0  0  0  0  # atno 6907 bound_to 6896
  151.1093  135.0017  159.8496 H   0  0  0  0  0  0  0  0  0  0  0  0  # atno 6908 bound_to 6896
  152.5449  134.1906  159.8725 H   0  0  0  0  0  0  0  0  0  0  0  0  # atno 6909 bound_to 6896
  145.0093  140.7891  143.4448 H   0  0  0  0  0  0  0  0  0  0  0  0  # atno 7974 bound_to 7965
  154.4118  140.1681  156.2067 H   0  0  0  0  0  0  0  0  0  0  0  0  # atno 8008 bound_to 7997
  155.9479  140.3403  155.6359 H   0  0  0  0  0  0  0  0  0  0  0  0  # atno 8009 bound_to 7997
  155.6907  140.0733  157.2440 H   0  0  0  0  0  0  0  0  0  0  0  0  # atno 8010 bound_to 7997
  139.5108  144.3263  152.0154 H   0  0  0  0  0  0  0  0  0  0  0  0  # atno 10167 bound_to 10162
  157.4817  131.1086  150.9673 H   0  0  0  0  0  0  0  0  0  0  0  0  # atno 10718 bound_to 10713
  152.9830  135.6051  154.3375 H   0  0  0  0  0  0  0  0  0  0  0  0  # atno 10763 bound_to 10752
  154.3074  135.2771  155.2584 H   0  0  0  0  0  0  0  0  0  0  0  0  # atno 10764 bound_to 10752
  154.4808  135.5917  153.6444 H   0  0  0  0  0  0  0  0  0  0  0  0  # atno 10765 bound_to 10752
  139.8942  134.8362  156.2736 H   0  0  0  0  0  0  0  0  0  0  0  0  # atno 11005 bound_to 11000
  145.2045  139.2235  143.5175 LP  0  0  0  0  0  0  0  0  0  0  0  0  # atno 17320 bound_to 7965
  146.3467  140.1869  142.8589 LP  0  0  0  0  0  0  0  0  0  0  0  0  # atno 17321 bound_to 7965
  140.2704  144.3971  150.6153 LP  0  0  0  0  0  0  0  0  0  0  0  0  # atno 17342 bound_to 10162
  140.6093  143.2169  151.6919 LP  0  0  0  0  0  0  0  0  0  0  0  0  # atno 17343 bound_to 10162
  157.0404  130.5747  149.5355 LP  0  0  0  0  0  0  0  0  0  0  0  0  # atno 17370 bound_to 10713
  156.0125  130.5217  150.8032 LP  0  0  0  0  0  0  0  0  0  0  0  0  # atno 17371 bound_to 10713
  141.0085  133.7109  156.1073 LP  0  0  0  0  0  0  0  0  0  0  0  0  # atno 17394 bound_to 11000
  140.7400  134.4160  157.5556 LP  0  0  0  0  0  0  0  0  0  0  0  0  # atno 17395 bound_to 11000

$$$$
