AV-unprocessed.smi:2571|AV-procd|sdf|10109|dock6
  -GOLD-   2272014123D 1   1.00000     0.00000
 Structure written by MMmdl.
 38 40  0  0  0  0  0  0  0  0  1 V2000
  146.1762  138.0642  152.0840 C   0  0  0  0  0  0  0  0  0  0  0  0
  147.2262  138.0154  153.0385 O   0  0  0  0  0  0  0  0  0  0  0  0
  147.7289  139.2087  153.5101 C   0  0  0  0  0  0  0  0  0  0  0  0
  147.0893  140.4630  153.3484 C   0  0  0  0  0  0  0  0  0  0  0  0
  147.6714  141.6313  153.8761 C   0  0  0  0  0  0  0  0  0  0  0  0
  148.8907  141.5623  154.5745 C   0  0  0  0  0  0  0  0  0  0  0  0
  149.5386  140.3205  154.7452 C   0  0  0  0  0  0  0  0  0  0  0  0
  150.8292  140.2132  155.5479 C   0  0  1  0  0  0  0  0  0  0  0  0
  151.9286  139.8097  154.7560 O   0  0  0  0  0  0  0  0  0  0  0  0
  151.1928  141.5390  156.2493 C   0  0  0  0  0  0  0  0  0  0  0  0
  151.8180  141.3210  157.5460 N   0  0  0  0  0  0  0  0  0  0  0  0
  152.2185  140.0702  157.8916 N   0  0  0  0  0  0  0  0  0  0  0  0
  152.6983  140.1710  159.1294 C   0  0  0  0  0  0  0  0  0  0  0  0
  152.6162  141.5006  159.6258 C   0  0  0  0  0  0  0  0  0  0  0  0
  152.9584  142.1572  160.8836 C   0  0  0  0  0  0  0  0  0  0  0  0
  152.7140  143.4250  161.0003 N   0  0  0  0  0  0  0  0  0  0  0  0
  152.1433  144.1547  159.9514 N   0  0  0  0  0  0  0  0  0  0  0  0
  151.9158  145.5684  160.2415 C   0  0  0  0  0  0  0  0  0  0  0  0
  151.8120  143.6425  158.7285 C   0  0  0  0  0  0  0  0  0  0  0  0
  151.3385  144.3103  157.8096 O   0  0  0  0  0  0  0  0  0  0  0  0
  152.0691  142.1879  158.5926 C   0  0  0  0  0  0  0  0  0  0  0  0
  148.9556  139.1560  154.2021 C   0  0  0  0  0  0  0  0  0  0  0  0
  145.8771  137.0484  151.8263 H   0  0  0  0  0  0  0  0  0  0  0  0
  146.4954  138.5570  151.1646 H   0  0  0  0  0  0  0  0  0  0  0  0
  145.2987  138.5748  152.4832 H   0  0  0  0  0  0  0  0  0  0  0  0
  146.1494  140.5554  152.8259 H   0  0  0  0  0  0  0  0  0  0  0  0
  147.1750  142.5828  153.7538 H   0  0  0  0  0  0  0  0  0  0  0  0
  149.3145  142.4632  154.9936 H   0  0  0  0  0  0  0  0  0  0  0  0
  150.6984  139.4382  156.3046 H   0  0  0  0  0  0  0  0  0  0  0  0
  152.5959  140.4765  154.8100 H   0  0  0  0  0  0  0  0  0  0  0  0
  151.8924  142.1052  155.6320 H   0  0  0  0  0  0  0  0  0  0  0  0
  150.3150  142.1733  156.3681 H   0  0  0  0  0  0  0  0  0  0  0  0
  153.0737  139.2860  159.6214 H   0  0  0  0  0  0  0  0  0  0  0  0
  153.4049  141.5908  161.7009 H   0  0  0  0  0  0  0  0  0  0  0  0
  152.4981  146.1970  159.5661 H   0  0  0  0  0  0  0  0  0  0  0  0
  152.2004  145.8276  161.2626 H   0  0  0  0  0  0  0  0  0  0  0  0
  150.8612  145.8201  160.1199 H   0  0  0  0  0  0  0  0  0  0  0  0
  149.4420  138.2011  154.3406 H   0  0  0  0  0  0  0  0  0  0  0  0
  1  2  1  0  0  0  0
  1 23  1  0  0  0  0
  1 24  1  0  0  0  0
  1 25  1  0  0  0  0
  2  3  1  0  0  0  0
  3 22  1  0  0  0  0
  3  4  2  0  0  0  0
  4  5  1  0  0  0  0
  4 26  1  0  0  0  0
  5  6  2  0  0  0  0
  5 27  1  0  0  0  0
  6  7  1  0  0  0  0
  6 28  1  0  0  0  0
  7  8  1  0  0  0  0
  7 22  2  0  0  0  0
  8  9  1  0  0  0  0
  8 10  1  0  0  0  0
  8 29  1  0  0  0  0
  9 30  1  0  0  0  0
 10 11  1  0  0  0  0
 10 31  1  0  0  0  0
 10 32  1  0  0  0  0
 11 21  1  0  0  0  0
 11 12  1  0  0  0  0
 12 13  2  0  0  0  0
 13 14  1  0  0  0  0
 13 33  1  0  0  0  0
 14 21  2  0  0  0  0
 14 15  1  0  0  0  0
 15 16  2  0  0  0  0
 15 34  1  0  0  0  0
 16 17  1  0  0  0  0
 17 18  1  0  0  0  0
 17 19  1  0  0  0  0
 18 35  1  0  0  0  0
 18 36  1  0  0  0  0
 18 37  1  0  0  0  0
 19 20  2  0  0  0  0
 19 21  1  0  0  0  0
 22 38  1  0  0  0  0
M  END
> <s_m_source_file>
AV-unprocessed.smi

> <i_m_source_file_index>
2571

> <i_lp_mmshare_version>
43012

> <i_f3d_flags>
0

> <s_epik_input>
W0NIM11PYzFbY0hdW2NIXVtjSF1jKFtjSF0xKVtDQEhdKFtPSF0pW0NIMl1uKG5bY0hdMiljKGMyMyljKD1PKW4oW0NIM10pbltjSF0z

> <s_epik_cmdline>
J2VwaWtfcHl0aG9uJywgJy1waCcsICc3LjAnLCAnLXRuJywgJzgnLCAnLW1hJywgJzIwMCcsICctbWV0YWxfYmluZGluZycsICctaW1hZScsICc8aW5maWxlLm1hZT4nLCAnLW9tYWUnLCAnPG91dGZpbGUubWFlPic=

> <r_lp_tautomer_probability>
1

> <r_epik_Ionization_Penalty>
1.38887e-06

> <r_epik_Ionization_Penalty_Charging>
1.65421e-10

> <r_epik_Ionization_Penalty_Neutral>
1.38871e-06

> <r_epik_State_Penalty>
-0

> <r_epik_Charging_Adjusted_Penalty>
1.65421e-10

> <i_epik_Tot_Q>
0

> <i_epik_Tot_abs_Q>
0

> <r_epik_Metal_State_Penalty>
-0

> <b_epik_Metal_Only>
0

> <s_lp_Force_Field>
OPLS_2005

> <r_lp_Energy>
30.2232

> <b_lp_Chiralities_Consistent>
1

> <s_lp_Variant>
AV-unprocessed.smi:2571-2

> <Gold.Version>
5.8.1

> <Gold.Id.Protein>
6NUR|6NUR_protein|mol2

> <Gold.PLP.Fitness>
47.2665

> <Gold.PLP.PLP>
-48.9232

> <Gold.PLP.part.hbond>
-1.0000

> <Gold.PLP.part.metal>
0.0000

> <Gold.PLP.part.buried>
-6.2079

> <Gold.PLP.part.nonpolar>
-43.4182

> <Gold.PLP.part.repulsive>
2.4309

> <Gold.PLP.ligand.clash>
0.0000

> <Gold.PLP.ligand.torsion>
0.8404

> <Gold.PLP.Chemscore.Hbond>
0.0000

> <Gold.PLP.Chemscore.CHOScore>
0.0000

> <Gold.PLP.Chemscore.Metal>
0.0000

> <Gold.PLP.Chemscore.Internal.Correction>
0.0242

> <Gold.Rescore>
     Score         DG    S(hbond)    S(metal)    S(lipo)     H(rot)  DE(clash)    DE(int)     intcor
     10.50     -12.33       0.00        0.00     106.98       2.21       0.17       1.65       ----

> <Gold.Chemscore.Fitness>
10.5046

> <Gold.Chemscore.DG>
-12.3273

> <Gold.Chemscore.ZeroCoef>
-5.4800

> <Gold.Chemscore.Hbond>
0.0000

> <Gold.Chemscore.Metal>
0.0000

> <Gold.Chemscore.Lipo>
106.9793

> <Gold.Chemscore.Internal_Hbond>
0.0000

> <Gold.Chemscore.DEClash>
0.1737

> <Gold.Chemscore.DEInternal>
1.6490

> <Gold.Chemscore.Rot>
2.2146

> <Gold.Chemscore.Internal.Correction>
   9.000000E+99

> <Gold.Chemscore.Hbond.Weighted>
-0.0000

> <Gold.Chemscore.Metal.Weighted>
-0.0000

> <Gold.Chemscore.Lipo.Weighted>
-12.5166

> <Gold.Chemscore.Internal_Hbond.Weighted>
0.0000

> <Gold.Chemscore.DEClash.Weighted>
0.1737

> <Gold.Chemscore.DEInternal.Weighted>
1.6490

> <Gold.Chemscore.Rot.Weighted>
5.6693

> <Gold.Chemscore.Internal.Correction.Weighted>
   9.000000E+99

> <Gold.Protein.RotatedTorsions>
[ 6907 6896 6895 6894 ] final  133.31 input  -60.11 | X-H torsion
[ 7974 7965 7964 7962 ] final  162.20 input  175.53 | X-H torsion
[ 8008 7997 7996 7995 ] final -138.82 input   59.86 | X-H torsion
[ 10167 10162 10161 10158 ] final   52.11 input  -65.29 | X-H torsion
[ 10718 10713 10712 10709 ] final   73.11 input   66.30 | X-H torsion
[ 10763 10752 10751 10750 ] final   63.42 input  -60.55 | X-H torsion
[ 11005 11000 10999 10996 ] final  164.68 input  -57.11 | X-H torsion

> <Gold.Protein.ActiveResidues>
 VAL166  LYS551  ARG553  GLY616  TRP617  ASP618  TYR619  PRO620  LYS621  CYS622 
 ASP623  PHE694  ASN695  SER759  ASP760  ASP761  ALA762  ILE779  LEU786  VAL792 
 PHE793  MET794  SER795  GLU796  ALA797  LYS798  CYS799  TRP800  GLU811  SER814 

> <Gold.Protein.RotatedAtoms>
  152.3233  133.5878  159.5759 H   0  0  0  0  0  0  0  0  0  0  0  0  # atno 6907 bound_to 6896
  150.7383  133.9978  159.3637 H   0  0  0  0  0  0  0  0  0  0  0  0  # atno 6908 bound_to 6896
  151.7860  135.0749  160.0431 H   0  0  0  0  0  0  0  0  0  0  0  0  # atno 6909 bound_to 6896
  144.7648  139.8006  143.6319 H   0  0  0  0  0  0  0  0  0  0  0  0  # atno 7974 bound_to 7965
  155.4347  140.0527  157.3015 H   0  0  0  0  0  0  0  0  0  0  0  0  # atno 8008 bound_to 7997
  154.4844  140.2095  155.9646 H   0  0  0  0  0  0  0  0  0  0  0  0  # atno 8009 bound_to 7997
  156.1254  140.3181  155.8274 H   0  0  0  0  0  0  0  0  0  0  0  0  # atno 8010 bound_to 7997
  140.2548  144.3439  150.6336 H   0  0  0  0  0  0  0  0  0  0  0  0  # atno 10167 bound_to 10162
  157.6533  130.9612  150.1023 H   0  0  0  0  0  0  0  0  0  0  0  0  # atno 10718 bound_to 10713
  153.0017  135.5430  154.6348 H   0  0  0  0  0  0  0  0  0  0  0  0  # atno 10763 bound_to 10752
  154.5617  135.2834  155.0915 H   0  0  0  0  0  0  0  0  0  0  0  0  # atno 10764 bound_to 10752
  154.2114  135.6466  153.5169 H   0  0  0  0  0  0  0  0  0  0  0  0  # atno 10765 bound_to 10752
  140.2484  134.7996  157.3478 H   0  0  0  0  0  0  0  0  0  0  0  0  # atno 11005 bound_to 11000
  146.1745  139.4910  142.9906 LP  0  0  0  0  0  0  0  0  0  0  0  0  # atno 17320 bound_to 7965
  145.6504  141.0264  143.1763 LP  0  0  0  0  0  0  0  0  0  0  0  0  # atno 17321 bound_to 7965
  140.6012  143.2167  151.7068 LP  0  0  0  0  0  0  0  0  0  0  0  0  # atno 17342 bound_to 10162
  139.5035  144.3789  152.0396 LP  0  0  0  0  0  0  0  0  0  0  0  0  # atno 17343 bound_to 10162
  156.1942  130.3656  149.8870 LP  0  0  0  0  0  0  0  0  0  0  0  0  # atno 17370 bound_to 10713
  156.6790  130.8851  151.3573 LP  0  0  0  0  0  0  0  0  0  0  0  0  # atno 17371 bound_to 10713
  140.1583  134.4762  155.7913 LP  0  0  0  0  0  0  0  0  0  0  0  0  # atno 17394 bound_to 11000
  141.2204  133.6890  156.7499 LP  0  0  0  0  0  0  0  0  0  0  0  0  # atno 17395 bound_to 11000

$$$$
