AV-unprocessed.smi:1434|AV-procd|sdf|5849|dock9
  -GOLD-   22720 5513D 1   1.00000     0.00000
 Structure written by MMmdl.
 44 45  0  0  0  0  0  0  0  0  1 V2000
  150.2418  136.2575  156.8539 C   0  0  0  0  0  0  0  0  0  0  0  0
  150.3471  136.2380  155.0192 S   0  0  0  0  0  0  0  0  0  0  0  0
  151.5759  136.9380  154.6152 O   0  0  0  0  0  0  0  0  0  0  0  0
  150.0819  134.8742  154.5377 O   0  0  0  0  0  0  0  0  0  0  0  0
  149.0046  137.2186  154.5586 N   0  0  0  0  0  0  0  0  0  0  0  0
  148.9504  138.6011  155.0371 C   0  0  2  0  0  0  0  0  0  0  0  0
  147.6752  139.2998  154.5176 C   0  0  0  0  0  0  0  0  0  0  0  0
  147.6827  140.8079  154.8309 C   0  0  0  0  0  0  0  0  0  0  0  0
  149.0070  141.4546  154.3887 C   0  0  0  0  0  0  0  0  0  0  0  0
  150.1200  140.7492  155.0475 N   0  0  0  0  0  0  0  0  0  0  0  0
  150.8963  141.2277  156.0527 C   0  0  0  0  0  0  0  0  0  0  0  0
  151.7263  140.5397  156.6481 O   0  0  0  0  0  0  0  0  0  0  0  0
  150.6891  142.5215  156.3544 N   0  0  0  0  0  0  0  0  0  0  0  0
  151.4150  143.2962  157.3580 C   0  0  0  0  0  0  0  0  0  0  0  0
  150.7874  143.1610  158.7580 C   0  0  0  0  0  0  0  0  0  0  0  0
  151.7966  142.8479  159.8495 C   0  0  0  0  0  0  0  0  0  0  0  0
  152.8122  141.8899  159.6403 C   0  0  0  0  0  0  0  0  0  0  0  0
  153.7054  141.6187  160.6945 C   0  0  0  0  0  0  0  0  0  0  0  0
  153.5515  142.3139  161.9093 C   0  0  0  0  0  0  0  0  0  0  0  0
  152.5069  143.2536  162.0163 C   0  0  0  0  0  0  0  0  0  0  0  0
  151.6446  143.5208  161.0121 N   0  0  0  0  0  0  0  0  0  0  0  0
  150.2144  139.3589  154.5843 C   0  0  0  0  0  0  0  0  0  0  0  0
  151.0561  135.6636  157.2690 H   0  0  0  0  0  0  0  0  0  0  0  0
  149.2884  135.8348  157.1702 H   0  0  0  0  0  0  0  0  0  0  0  0
  150.3227  137.2834  157.2126 H   0  0  0  0  0  0  0  0  0  0  0  0
  148.8493  137.1756  153.5518 H   0  0  0  0  0  0  0  0  0  0  0  0
  148.9323  138.5897  156.1284 H   0  0  0  0  0  0  0  0  0  0  0  0
  147.6054  139.1668  153.4370 H   0  0  0  0  0  0  0  0  0  0  0  0
  146.7835  138.8383  154.9420 H   0  0  0  0  0  0  0  0  0  0  0  0
  146.8421  141.2951  154.3362 H   0  0  0  0  0  0  0  0  0  0  0  0
  147.5432  140.9595  155.9019 H   0  0  0  0  0  0  0  0  0  0  0  0
  149.1199  141.3657  153.3072 H   0  0  0  0  0  0  0  0  0  0  0  0
  148.9821  142.5266  154.5843 H   0  0  0  0  0  0  0  0  0  0  0  0
  149.9819  143.0142  155.8291 H   0  0  0  0  0  0  0  0  0  0  0  0
  152.4424  142.9335  157.3842 H   0  0  0  0  0  0  0  0  0  0  0  0
  151.4732  144.3480  157.0737 H   0  0  0  0  0  0  0  0  0  0  0  0
  150.2595  144.0806  159.0141 H   0  0  0  0  0  0  0  0  0  0  0  0
  150.0310  142.3752  158.7434 H   0  0  0  0  0  0  0  0  0  0  0  0
  152.8992  141.3673  158.6991 H   0  0  0  0  0  0  0  0  0  0  0  0
  154.4928  140.8893  160.5739 H   0  0  0  0  0  0  0  0  0  0  0  0
  154.2175  142.1317  162.7396 H   0  0  0  0  0  0  0  0  0  0  0  0
  152.3603  143.8058  162.9326 H   0  0  0  0  0  0  0  0  0  0  0  0
  151.1072  138.8517  154.9536 H   0  0  0  0  0  0  0  0  0  0  0  0
  150.2969  139.3468  153.4962 H   0  0  0  0  0  0  0  0  0  0  0  0
  1  2  1  0  0  0  0
  1 23  1  0  0  0  0
  1 24  1  0  0  0  0
  1 25  1  0  0  0  0
  2  3  2  0  0  0  0
  2  4  2  0  0  0  0
  2  5  1  0  0  0  0
  5  6  1  0  0  0  0
  5 26  1  0  0  0  0
  6 22  1  0  0  0  0
  6  7  1  0  0  0  0
  6 27  1  0  0  0  0
  7  8  1  0  0  0  0
  7 28  1  0  0  0  0
  7 29  1  0  0  0  0
  8  9  1  0  0  0  0
  8 30  1  0  0  0  0
  8 31  1  0  0  0  0
  9 10  1  0  0  0  0
  9 32  1  0  0  0  0
  9 33  1  0  0  0  0
 10 11  1  0  0  0  0
 10 22  1  0  0  0  0
 11 12  2  0  0  0  0
 11 13  1  0  0  0  0
 13 14  1  0  0  0  0
 13 34  1  0  0  0  0
 14 15  1  0  0  0  0
 14 35  1  0  0  0  0
 14 36  1  0  0  0  0
 15 16  1  0  0  0  0
 15 37  1  0  0  0  0
 15 38  1  0  0  0  0
 16 21  1  0  0  0  0
 16 17  2  0  0  0  0
 17 18  1  0  0  0  0
 17 39  1  0  0  0  0
 18 19  2  0  0  0  0
 18 40  1  0  0  0  0
 19 20  1  0  0  0  0
 19 41  1  0  0  0  0
 20 21  2  0  0  0  0
 20 42  1  0  0  0  0
 22 43  1  0  0  0  0
 22 44  1  0  0  0  0
M  END
> <s_m_source_file>
AV-unprocessed.smi

> <i_m_source_file_index>
1434

> <i_lp_mmshare_version>
43012

> <i_f3d_flags>
0

> <s_epik_input>
W0NIM11TKD1PKSg9TylbTkhdW0NAQEhdMVtDSDJdW0NIMl1bQ0gyXU4oW0NIMl0xKUMoPU8pW05IXVtDSDJdW0NIMl1jMltjSF1bY0hdW2NIXVtjSF1uMg==

> <s_epik_cmdline>
J2VwaWtfcHl0aG9uJywgJy1waCcsICc3LjAnLCAnLXRuJywgJzgnLCAnLW1hJywgJzIwMCcsICctbWV0YWxfYmluZGluZycsICctaW1hZScsICc8aW5maWxlLm1hZT4nLCAnLW9tYWUnLCAnPG91dGZpbGUubWFlPic=

> <r_epik_Ionization_Penalty>
0.0449488

> <r_epik_Ionization_Penalty_Charging>
0

> <r_epik_Ionization_Penalty_Neutral>
0.0449488

> <r_epik_State_Penalty>
0.0380669

> <r_epik_Charging_Adjusted_Penalty>
0.0380669

> <i_epik_Tot_Q>
0

> <i_epik_Tot_abs_Q>
0

> <r_epik_Metal_State_Penalty>
0.0441384

> <b_epik_Metal_Only>
0

> <s_lp_Force_Field>
OPLS_2005

> <r_lp_Energy>
23.2159

> <b_lp_Chiralities_Consistent>
1

> <s_lp_Variant>
AV-unprocessed.smi:1434-1

> <Gold.Version>
5.8.1

> <Gold.Id.Protein>
6NUR|6NUR_protein|mol2

> <Gold.PLP.Fitness>
50.6725

> <Gold.PLP.PLP>
-43.3562

> <Gold.PLP.part.hbond>
-3.3559

> <Gold.PLP.part.metal>
0.0000

> <Gold.PLP.part.buried>
-5.1220

> <Gold.PLP.part.nonpolar>
-35.3054

> <Gold.PLP.part.repulsive>
0.5568

> <Gold.PLP.ligand.clash>
0.0000

> <Gold.PLP.ligand.torsion>
0.7972

> <Gold.PLP.Chemscore.Hbond>
2.9280

> <Gold.PLP.Chemscore.CHOScore>
0.0000

> <Gold.PLP.Chemscore.Metal>
0.0000

> <Gold.Chemscore.Hbonds>
donor molecule, donor type, donor heavy atom, donor atom, acceptor molecule, acceptor atom, score
      L1  H     5    26       P1  7948  1.00
      L1  H    13    34       P1  8028  0.92
      P1  H 10752 10765       L1     3  1.00

> <Gold.PLP.Chemscore.Internal.Correction>
0.1267

> <Gold.Rescore>
     Score         DG    S(hbond)    S(metal)    S(lipo)     H(rot)  DE(clash)    DE(int)     intcor
     19.33     -21.57       2.74        0.00     103.72       2.03       0.19       2.05       ----

> <Gold.Chemscore.Fitness>
19.3289

> <Gold.Chemscore.DG>
-21.5720

> <Gold.Chemscore.ZeroCoef>
-5.4800

> <Gold.Chemscore.Hbond>
2.7437

> <Gold.Chemscore.Metal>
0.0000

> <Gold.Chemscore.Lipo>
103.7197

> <Gold.Chemscore.Internal_Hbond>
0.0000

> <Gold.Chemscore.DEClash>
0.1888

> <Gold.Chemscore.DEInternal>
2.0543

> <Gold.Chemscore.Rot>
2.0340

> <Gold.Chemscore.Internal.Correction>
   9.000000E+99

> <Gold.Chemscore.Hbonds>
donor molecule, donor type, donor heavy atom, donor atom, acceptor molecule, acceptor atom, score
      L1  H     5    26       P1  7948  0.95
      L1  H    13    34       P1  8028  0.83
      P1  H 10752 10765       L1     3  0.60

> <Gold.Chemscore.Hbond.Weighted>
-9.1639

> <Gold.Chemscore.Metal.Weighted>
-0.0000

> <Gold.Chemscore.Lipo.Weighted>
-12.1352

> <Gold.Chemscore.Internal_Hbond.Weighted>
0.0000

> <Gold.Chemscore.DEClash.Weighted>
0.1888

> <Gold.Chemscore.DEInternal.Weighted>
2.0543

> <Gold.Chemscore.Rot.Weighted>
5.2071

> <Gold.Chemscore.Internal.Correction.Weighted>
   9.000000E+99

> <Gold.Protein.RotatedTorsions>
[ 6907 6896 6895 6894 ] final  141.70 input  -60.11 | X-H torsion
[ 7974 7965 7964 7962 ] final  108.37 input  175.53 | X-H torsion
[ 8008 7997 7996 7995 ] final  -41.26 input   59.86 | X-H torsion
[ 10167 10162 10161 10158 ] final   92.10 input  -65.29 | X-H torsion
[ 10718 10713 10712 10709 ] final -161.84 input   66.30 | X-H torsion
[ 10763 10752 10751 10750 ] final  176.23 input  -60.55 | X-H torsion
[ 11005 11000 10999 10996 ] final   14.90 input  -57.11 | X-H torsion

> <Gold.Protein.ActiveResidues>
 VAL166  LYS551  ARG553  GLY616  TRP617  ASP618  TYR619  PRO620  LYS621  CYS622 
 ASP623  PHE694  ASN695  SER759  ASP760  ASP761  ALA762  ILE779  LEU786  VAL792 
 PHE793  MET794  SER795  GLU796  ALA797  LYS798  CYS799  TRP800  GLU811  SER814 

> <Gold.Protein.RotatedAtoms>
  152.2277  133.5033  159.5197 H   0  0  0  0  0  0  0  0  0  0  0  0  # atno 6907 bound_to 6896
  150.7029  134.1258  159.4060 H   0  0  0  0  0  0  0  0  0  0  0  0  # atno 6908 bound_to 6896
  151.9179  135.0311  160.0570 H   0  0  0  0  0  0  0  0  0  0  0  0  # atno 6909 bound_to 6896
  145.2816  139.2631  143.3912 H   0  0  0  0  0  0  0  0  0  0  0  0  # atno 7974 bound_to 7965
  154.4005  140.1504  156.3162 H   0  0  0  0  0  0  0  0  0  0  0  0  # atno 8008 bound_to 7997
  155.8570  140.3455  155.5710 H   0  0  0  0  0  0  0  0  0  0  0  0  # atno 8009 bound_to 7997
  155.7921  140.0858  157.1993 H   0  0  0  0  0  0  0  0  0  0  0  0  # atno 8010 bound_to 7997
  139.8310  144.6687  150.9400 H   0  0  0  0  0  0  0  0  0  0  0  0  # atno 10167 bound_to 10162
  156.6020  130.8814  151.2916 H   0  0  0  0  0  0  0  0  0  0  0  0  # atno 10718 bound_to 10713
  154.4783  135.2774  155.1590 H   0  0  0  0  0  0  0  0  0  0  0  0  # atno 10763 bound_to 10752
  154.3311  135.6190  153.5555 H   0  0  0  0  0  0  0  0  0  0  0  0  # atno 10764 bound_to 10752
  152.9872  135.5766  154.5178 H   0  0  0  0  0  0  0  0  0  0  0  0  # atno 10765 bound_to 10752
  140.4643  134.1095  155.7721 H   0  0  0  0  0  0  0  0  0  0  0  0  # atno 11005 bound_to 11000
  146.3214  140.3285  142.8638 LP  0  0  0  0  0  0  0  0  0  0  0  0  # atno 17320 bound_to 7965
  144.9248  140.7909  143.5726 LP  0  0  0  0  0  0  0  0  0  0  0  0  # atno 17321 bound_to 7965
  140.7806  143.4001  151.1164 LP  0  0  0  0  0  0  0  0  0  0  0  0  # atno 17342 bound_to 10162
  139.7654  143.8572  152.3109 LP  0  0  0  0  0  0  0  0  0  0  0  0  # atno 17343 bound_to 10162
  157.7277  130.9646  150.1710 LP  0  0  0  0  0  0  0  0  0  0  0  0  # atno 17370 bound_to 10713
  156.2461  130.3696  149.8283 LP  0  0  0  0  0  0  0  0  0  0  0  0  # atno 17371 bound_to 10713
  141.1606  133.8799  157.1857 LP  0  0  0  0  0  0  0  0  0  0  0  0  # atno 17394 bound_to 11000
  139.9925  135.0059  157.0008 LP  0  0  0  0  0  0  0  0  0  0  0  0  # atno 17395 bound_to 11000

$$$$
