AV-unprocessed.smi:848|AV-procd|sdf|3942|dock2
  -GOLD-   22720 1413D 1   1.00000     0.00000
 Structure written by MMmdl.
 47 49  0  0  0  0  0  0  0  0  2 V2000
  148.2199  133.0789  158.1972 C   0  0  0  0  0  0  0  0  0  0  0  0
  148.1455  134.1860  159.2286 C   0  0  0  0  0  0  0  0  0  0  0  0
  147.5646  133.9447  160.4895 C   0  0  0  0  0  0  0  0  0  0  0  0
  147.4962  134.9773  161.4444 C   0  0  0  0  0  0  0  0  0  0  0  0
  146.8696  134.7131  162.7981 C   0  0  0  0  0  0  0  0  0  0  0  0
  148.0090  136.2531  161.1328 C   0  0  0  0  0  0  0  0  0  0  0  0
  148.5940  136.5113  159.8764 C   0  0  0  0  0  0  0  0  0  0  0  0
  149.0709  137.7866  159.6614 O   0  0  0  0  0  0  0  0  0  0  0  0
  149.3998  138.1704  158.3329 C   0  0  0  0  0  0  0  0  0  0  0  0
  150.8959  138.5172  158.2777 C   0  0  1  0  0  0  0  0  0  0  0  0
  151.6366  137.3343  158.5038 O   0  0  0  0  0  0  0  0  0  0  0  0
  151.2981  139.1180  156.9155 C   0  0  0  0  0  0  0  0  0  0  0  0
  150.9940  140.5555  156.8092 N   0  0  0  0  0  0  0  0  0  0  0  0
  150.1647  141.2169  155.9501 C   0  0  0  0  0  0  0  0  0  0  0  0
  149.3284  140.6190  154.8666 C   0  0  0  0  0  0  0  0  0  0  0  0
  149.8331  140.9006  153.5802 O   0  0  0  0  0  0  0  0  0  0  0  0
  150.2290  142.5410  156.2657 N   0  3  0  0  0  0  0  0  0  0  0  0
  151.1062  142.7310  157.3335 C   0  0  0  0  0  0  0  0  0  0  0  0
  151.4923  143.8906  157.9987 C   0  0  0  0  0  0  0  0  0  0  0  0
  152.4092  143.7365  159.0592 C   0  0  0  0  0  0  0  0  0  0  0  0
  152.9047  142.4674  159.4221 C   0  0  0  0  0  0  0  0  0  0  0  0
  152.5064  141.2993  158.7394 C   0  0  0  0  0  0  0  0  0  0  0  0
  151.6010  141.4596  157.6901 C   0  0  0  0  0  0  0  0  0  0  0  0
  148.6571  135.4638  158.9230 C   0  0  0  0  0  0  0  0  0  0  0  0
  147.9442  132.1159  158.6276 H   0  0  0  0  0  0  0  0  0  0  0  0
  149.2323  132.9952  157.8014 H   0  0  0  0  0  0  0  0  0  0  0  0
  147.5430  133.2901  157.3693 H   0  0  0  0  0  0  0  0  0  0  0  0
  147.1699  132.9672  160.7266 H   0  0  0  0  0  0  0  0  0  0  0  0
  147.0746  135.5260  163.4956 H   0  0  0  0  0  0  0  0  0  0  0  0
  147.2647  133.7917  163.2271 H   0  0  0  0  0  0  0  0  0  0  0  0
  145.7888  134.6111  162.6994 H   0  0  0  0  0  0  0  0  0  0  0  0
  147.9551  137.0469  161.8636 H   0  0  0  0  0  0  0  0  0  0  0  0
  149.1570  137.3874  157.6118 H   0  0  0  0  0  0  0  0  0  0  0  0
  148.8131  139.0542  158.0766 H   0  0  0  0  0  0  0  0  0  0  0  0
  151.1318  139.2342  159.0644 H   0  0  0  0  0  0  0  0  0  0  0  0
  151.4433  137.0253  159.3761 H   0  0  0  0  0  0  0  0  0  0  0  0
  152.3556  138.9551  156.7078 H   0  0  0  0  0  0  0  0  0  0  0  0
  150.7566  138.6144  156.1146 H   0  0  0  0  0  0  0  0  0  0  0  0
  149.2827  139.5376  154.9986 H   0  0  0  0  0  0  0  0  0  0  0  0
  148.3074  140.9930  154.9418 H   0  0  0  0  0  0  0  0  0  0  0  0
  149.6300  140.1738  153.0111 H   0  0  0  0  0  0  0  0  0  0  0  0
  151.1123  144.8637  157.7242 H   0  0  0  0  0  0  0  0  0  0  0  0
  152.7367  144.6085  159.6068 H   0  0  0  0  0  0  0  0  0  0  0  0
  153.6035  142.3875  160.2422 H   0  0  0  0  0  0  0  0  0  0  0  0
  152.8868  140.3320  159.0326 H   0  0  0  0  0  0  0  0  0  0  0  0
  149.0940  135.6176  157.9479 H   0  0  0  0  0  0  0  0  0  0  0  0
  149.7042  143.2608  155.7856 H   0  0  0  0  0  0  0  0  0  0  0  0
  1  2  1  0  0  0  0
  1 25  1  0  0  0  0
  1 26  1  0  0  0  0
  1 27  1  0  0  0  0
  2 24  1  0  0  0  0
  2  3  2  0  0  0  0
  3  4  1  0  0  0  0
  3 28  1  0  0  0  0
  4  5  1  0  0  0  0
  4  6  2  0  0  0  0
  5 29  1  0  0  0  0
  5 30  1  0  0  0  0
  5 31  1  0  0  0  0
  6  7  1  0  0  0  0
  6 32  1  0  0  0  0
  7  8  1  0  0  0  0
  7 24  2  0  0  0  0
  8  9  1  0  0  0  0
  9 10  1  0  0  0  0
  9 33  1  0  0  0  0
  9 34  1  0  0  0  0
 10 11  1  0  0  0  0
 10 12  1  0  0  0  0
 10 35  1  0  0  0  0
 11 36  1  0  0  0  0
 12 13  1  0  0  0  0
 12 37  1  0  0  0  0
 12 38  1  0  0  0  0
 13 23  1  0  0  0  0
 13 14  1  0  0  0  0
 14 15  1  0  0  0  0
 14 17  2  0  0  0  0
 15 16  1  0  0  0  0
 15 39  1  0  0  0  0
 15 40  1  0  0  0  0
 16 41  1  0  0  0  0
 17 18  1  0  0  0  0
 17 47  1  0  0  0  0
 18 23  2  0  0  0  0
 18 19  1  0  0  0  0
 19 20  2  0  0  0  0
 19 42  1  0  0  0  0
 20 21  1  0  0  0  0
 20 43  1  0  0  0  0
 21 22  2  0  0  0  0
 21 44  1  0  0  0  0
 22 23  1  0  0  0  0
 22 45  1  0  0  0  0
 24 46  1  0  0  0  0
M  CHG  1  17   1
M  END
> <s_m_source_file>
AV-unprocessed.smi

> <i_m_source_file_index>
848

> <i_lp_mmshare_version>
43012

> <i_f3d_flags>
0

> <s_epik_input>
W0NIM11jMVtjSF1jKFtDSDNdKVtjSF1jKFtjSF0xKU9bQ0gyXVtDQEhdKFtPSF0pW0NIMl1uKGMobjIpW0NIMl1bT0hdKWMoYzIzKVtjSF1bY0hdW2NIXVtjSF0z

> <s_epik_cmdline>
J2VwaWtfcHl0aG9uJywgJy1waCcsICc3LjAnLCAnLXRuJywgJzgnLCAnLW1hJywgJzIwMCcsICctbWV0YWxfYmluZGluZycsICctaW1hZScsICc8aW5maWxlLm1hZT4nLCAnLW9tYWUnLCAnPG91dGZpbGUubWFlPic=

> <r_lp_tautomer_probability>
1

> <r_epik_Ionization_Penalty>
1.43292

> <r_epik_Ionization_Penalty_Charging>
1.43206

> <r_epik_Ionization_Penalty_Neutral>
0.000858184

> <r_epik_State_Penalty>
1.51673

> <r_epik_Charging_Adjusted_Penalty>
2.94879

> <i_epik_Tot_Q>
1

> <i_epik_Tot_abs_Q>
1

> <r_epik_Metal_State_Penalty>
5.56186

> <b_epik_Metal_Only>
0

> <s_lp_Force_Field>
OPLS_2005

> <r_lp_Energy>
19.6511

> <b_lp_Chiralities_Consistent>
1

> <s_lp_Variant>
AV-unprocessed.smi:848-4

> <Gold.Version>
5.8.1

> <Gold.Id.Protein>
6NUR|6NUR_protein|mol2

> <Gold.PLP.Fitness>
58.8324

> <Gold.PLP.PLP>
-48.6298

> <Gold.PLP.part.hbond>
-5.7158

> <Gold.PLP.part.metal>
0.0000

> <Gold.PLP.part.buried>
-4.2583

> <Gold.PLP.part.nonpolar>
-39.1053

> <Gold.PLP.part.repulsive>
0.0991

> <Gold.PLP.ligand.clash>
0.0000

> <Gold.PLP.ligand.torsion>
0.9130

> <Gold.PLP.Chemscore.Hbond>
3.9995

> <Gold.PLP.Chemscore.CHOScore>
0.0000

> <Gold.PLP.Chemscore.Metal>
0.0000

> <Gold.Chemscore.Hbonds>
donor molecule, donor type, donor heavy atom, donor atom, acceptor molecule, acceptor atom, score
      L1  H    16    41       P1  7957  0.62
      L1  H    17    47       P1  8028  2.00
      P1  H  6931  6943       L1     8  0.04
      P1  H  7989  7998       L1    16  0.34
      P1  H  8011  8017       L1    16  1.00

> <Gold.PLP.Chemscore.Internal.Correction>
0.0299

> <Gold.Rescore>
     Score         DG    S(hbond)    S(metal)    S(lipo)     H(rot)  DE(clash)    DE(int)     intcor
     18.85     -19.90       2.26        0.00     125.56       3.05       0.19       0.87       ----

> <Gold.Chemscore.Fitness>
18.8491

> <Gold.Chemscore.DG>
-19.9015

> <Gold.Chemscore.ZeroCoef>
-5.4800

> <Gold.Chemscore.Hbond>
2.2554

> <Gold.Chemscore.Metal>
0.0000

> <Gold.Chemscore.Lipo>
125.5572

> <Gold.Chemscore.Internal_Hbond>
0.0000

> <Gold.Chemscore.DEClash>
0.1860

> <Gold.Chemscore.DEInternal>
0.8664

> <Gold.Chemscore.Rot>
3.0476

> <Gold.Chemscore.Internal.Correction>
   9.000000E+99

> <Gold.Chemscore.Hbonds>
donor molecule, donor type, donor heavy atom, donor atom, acceptor molecule, acceptor atom, score
      L1  H    16    41       P1  7957  0.62
      L1  H    17    47       P1  8028  0.98
      P1  H  7989  7998       L1    16  0.08
      P1  H  8011  8017       L1    16  0.33

> <Gold.Chemscore.Hbond.Weighted>
-7.5331

> <Gold.Chemscore.Metal.Weighted>
-0.0000

> <Gold.Chemscore.Lipo.Weighted>
-14.6902

> <Gold.Chemscore.Internal_Hbond.Weighted>
0.0000

> <Gold.Chemscore.DEClash.Weighted>
0.1860

> <Gold.Chemscore.DEInternal.Weighted>
0.8664

> <Gold.Chemscore.Rot.Weighted>
7.8018

> <Gold.Chemscore.Internal.Correction.Weighted>
   9.000000E+99

> <Gold.Protein.RotatedTorsions>
[ 6907 6896 6895 6894 ] final -172.74 input  -60.11 | X-H torsion
[ 7974 7965 7964 7962 ] final -179.82 input  175.53 | X-H torsion
[ 8008 7997 7996 7995 ] final   41.78 input   59.86 | X-H torsion
[ 10167 10162 10161 10158 ] final -163.89 input  -65.29 | X-H torsion
[ 10718 10713 10712 10709 ] final -159.00 input   66.30 | X-H torsion
[ 10763 10752 10751 10750 ] final   86.44 input  -60.55 | X-H torsion
[ 11005 11000 10999 10996 ] final  113.80 input  -57.11 | X-H torsion

> <Gold.Protein.ActiveResidues>
 VAL166  LYS551  ARG553  GLY616  TRP617  ASP618  TYR619  PRO620  LYS621  CYS622 
 ASP623  PHE694  ASN695  SER759  ASP760  ASP761  ALA762  ILE779  LEU786  VAL792 
 PHE793  MET794  SER795  GLU796  ALA797  LYS798  CYS799  TRP800  GLU811  SER814 

> <Gold.Protein.RotatedAtoms>
  151.5450  133.3426  159.2942 H   0  0  0  0  0  0  0  0  0  0  0  0  # atno 6907 bound_to 6896
  150.8513  134.7841  159.7022 H   0  0  0  0  0  0  0  0  0  0  0  0  # atno 6908 bound_to 6896
  152.4558  134.5302  159.9860 H   0  0  0  0  0  0  0  0  0  0  0  0  # atno 6909 bound_to 6896
  144.7139  140.0660  143.6431 H   0  0  0  0  0  0  0  0  0  0  0  0  # atno 7974 bound_to 7965
  155.2752  140.3368  155.4262 H   0  0  0  0  0  0  0  0  0  0  0  0  # atno 8008 bound_to 7997
  156.2115  140.1771  156.7726 H   0  0  0  0  0  0  0  0  0  0  0  0  # atno 8009 bound_to 7997
  154.5692  140.0673  156.8923 H   0  0  0  0  0  0  0  0  0  0  0  0  # atno 8010 bound_to 7997
  139.6289  144.0478  152.1999 H   0  0  0  0  0  0  0  0  0  0  0  0  # atno 10167 bound_to 10162
  156.5619  130.8651  151.2812 H   0  0  0  0  0  0  0  0  0  0  0  0  # atno 10718 bound_to 10713
  153.1570  135.4580  154.9719 H   0  0  0  0  0  0  0  0  0  0  0  0  # atno 10763 bound_to 10752
  154.7869  135.3207  154.7868 H   0  0  0  0  0  0  0  0  0  0  0  0  # atno 10764 bound_to 10752
  153.8364  135.6934  153.4862 H   0  0  0  0  0  0  0  0  0  0  0  0  # atno 10765 bound_to 10752
  139.8963  134.9556  156.6794 H   0  0  0  0  0  0  0  0  0  0  0  0  # atno 11005 bound_to 11000
  145.9824  139.2951  143.1034 LP  0  0  0  0  0  0  0  0  0  0  0  0  # atno 17320 bound_to 7965
  145.8996  140.9251  143.0510 LP  0  0  0  0  0  0  0  0  0  0  0  0  # atno 17321 bound_to 7965
  140.0139  144.6204  150.7624 LP  0  0  0  0  0  0  0  0  0  0  0  0  # atno 17342 bound_to 10162
  140.7427  143.2836  151.3527 LP  0  0  0  0  0  0  0  0  0  0  0  0  # atno 17343 bound_to 10162
  157.7366  130.9782  150.2149 LP  0  0  0  0  0  0  0  0  0  0  0  0  # atno 17370 bound_to 10713
  156.2791  130.3731  149.7953 LP  0  0  0  0  0  0  0  0  0  0  0  0  # atno 17371 bound_to 10713
  140.7311  133.9058  155.8212 LP  0  0  0  0  0  0  0  0  0  0  0  0  # atno 17394 bound_to 11000
  141.0153  134.0964  157.4179 LP  0  0  0  0  0  0  0  0  0  0  0  0  # atno 17395 bound_to 11000

$$$$
