AV-unprocessed.smi:1978|AV-procd|sdf|8015|dock2
  -GOLD-   2272010203D 1   1.00000     0.00000
 Structure written by MMmdl.
 44 45  0  0  0  0  0  0  0  0  3 V2000
  147.9579  135.7718  162.8544 C   0  0  0  0  0  0  0  0  0  0  0  0
  147.8159  135.7980  161.3713 C   0  0  0  0  0  0  0  0  0  0  0  0
  148.3178  135.0092  160.3751 C   0  0  0  0  0  0  0  0  0  0  0  0
  147.7894  135.6030  159.1981 C   0  0  0  0  0  0  0  0  0  0  0  0
  148.0933  135.0668  157.9189 N   0  0  0  0  0  0  0  0  0  0  0  0
  148.6745  133.8925  157.6136 C   0  0  0  0  0  0  0  0  0  0  0  0
  149.0494  133.1290  158.5111 O   0  0  0  0  0  0  0  0  0  0  0  0
  148.7687  133.7009  156.2692 N   0  5  0  0  0  0  0  0  0  0  0  0
  147.7560  134.0993  155.2910 C   0  0  0  0  0  0  0  0  0  0  0  0
  148.2853  133.8809  153.8506 C   0  0  1  0  0  0  0  0  0  0  0  0
  148.7642  132.4298  153.5756 C   0  0  0  0  0  0  0  0  0  0  0  0
  147.2714  134.3725  152.8638 N   0  3  2  0  0  0  0  0  0  0  0  0
  146.3091  135.4057  153.3497 C   0  0  0  0  0  0  0  0  0  0  0  0
  145.5544  136.0500  152.1763 C   0  0  0  0  0  0  0  0  0  0  0  0
  144.8445  134.9888  151.3274 C   0  0  0  0  0  0  0  0  0  0  0  0
  145.8529  133.9285  150.8616 C   0  0  0  0  0  0  0  0  0  0  0  0
  146.6274  133.3030  152.0407 C   0  0  2  0  0  0  0  0  0  0  0  0
  145.7568  132.3321  152.8655 C   0  0  0  0  0  0  0  0  0  0  0  0
  147.0293  136.6576  159.4546 N   0  0  0  0  0  0  0  0  0  0  0  0
  147.0423  136.7875  160.8484 O   0  0  0  0  0  0  0  0  0  0  0  0
  148.6718  135.0084  163.1643 H   0  0  0  0  0  0  0  0  0  0  0  0
  147.0017  135.5538  163.3301 H   0  0  0  0  0  0  0  0  0  0  0  0
  148.3105  136.7343  163.2255 H   0  0  0  0  0  0  0  0  0  0  0  0
  148.9625  134.1486  160.4737 H   0  0  0  0  0  0  0  0  0  0  0  0
  147.8184  135.6359  157.1323 H   0  0  0  0  0  0  0  0  0  0  0  0
  146.8281  133.5418  155.4204 H   0  0  0  0  0  0  0  0  0  0  0  0
  147.4779  135.1495  155.3943 H   0  0  0  0  0  0  0  0  0  0  0  0
  149.1622  134.5234  153.7548 H   0  0  0  0  0  0  0  0  0  0  0  0
  149.6043  132.1531  154.2153 H   0  0  0  0  0  0  0  0  0  0  0  0
  149.1126  132.3155  152.5497 H   0  0  0  0  0  0  0  0  0  0  0  0
  147.9815  131.6863  153.7357 H   0  0  0  0  0  0  0  0  0  0  0  0
  145.5989  134.9688  154.0518 H   0  0  0  0  0  0  0  0  0  0  0  0
  146.8443  136.1877  153.8891 H   0  0  0  0  0  0  0  0  0  0  0  0
  144.8298  136.7735  152.5511 H   0  0  0  0  0  0  0  0  0  0  0  0
  146.2551  136.6082  151.5539 H   0  0  0  0  0  0  0  0  0  0  0  0
  144.0472  134.5213  151.9059 H   0  0  0  0  0  0  0  0  0  0  0  0
  144.3679  135.4563  150.4652 H   0  0  0  0  0  0  0  0  0  0  0  0
  145.3444  133.1532  150.2876 H   0  0  0  0  0  0  0  0  0  0  0  0
  146.5626  134.3934  150.1759 H   0  0  0  0  0  0  0  0  0  0  0  0
  147.4301  132.7113  151.5978 H   0  0  0  0  0  0  0  0  0  0  0  0
  145.3055  131.5781  152.2203 H   0  0  0  0  0  0  0  0  0  0  0  0
  144.9463  132.8408  153.3862 H   0  0  0  0  0  0  0  0  0  0  0  0
  146.3464  131.7967  153.6090 H   0  0  0  0  0  0  0  0  0  0  0  0
  147.8422  134.8665  152.1922 H   0  0  0  0  0  0  0  0  0  0  0  0
  1  2  1  0  0  0  0
  1 21  1  0  0  0  0
  1 22  1  0  0  0  0
  1 23  1  0  0  0  0
  2 20  1  0  0  0  0
  2  3  2  0  0  0  0
  3  4  1  0  0  0  0
  3 24  1  0  0  0  0
  4  5  1  0  0  0  0
  4 19  2  0  0  0  0
  5  6  1  0  0  0  0
  5 25  1  0  0  0  0
  6  7  2  0  0  0  0
  6  8  1  0  0  0  0
  8  9  1  0  0  0  0
  9 10  1  0  0  0  0
  9 26  1  0  0  0  0
  9 27  1  0  0  0  0
 10 11  1  0  0  0  0
 10 12  1  0  0  0  0
 10 28  1  0  0  0  0
 11 29  1  0  0  0  0
 11 30  1  0  0  0  0
 11 31  1  0  0  0  0
 12 17  1  0  0  0  0
 12 13  1  0  0  0  0
 12 44  1  0  0  0  0
 13 14  1  0  0  0  0
 13 32  1  0  0  0  0
 13 33  1  0  0  0  0
 14 15  1  0  0  0  0
 14 34  1  0  0  0  0
 14 35  1  0  0  0  0
 15 16  1  0  0  0  0
 15 36  1  0  0  0  0
 15 37  1  0  0  0  0
 16 17  1  0  0  0  0
 16 38  1  0  0  0  0
 16 39  1  0  0  0  0
 17 18  1  0  0  0  0
 17 40  1  0  0  0  0
 18 41  1  0  0  0  0
 18 42  1  0  0  0  0
 18 43  1  0  0  0  0
 19 20  1  0  0  0  0
M  CHG  1   8  -1
M  CHG  1  12   1
M  END
> <s_m_source_file>
AV-unprocessed.smi

> <i_m_source_file_index>
1978

> <i_lp_mmshare_version>
43012

> <i_f3d_flags>
0

> <s_epik_input>
W0NIM11jMVtjSF1jKG5vMSlbTkhdQyg9TylbTkhdW0NIMl1bQ0BIXShbQ0gzXSlOMltDSDJdW0NIMl1bQ0gyXVtDSDJdW0NASF0yW0NIM10=

> <s_epik_cmdline>
J2VwaWtfcHl0aG9uJywgJy1waCcsICc3LjAnLCAnLXRuJywgJzgnLCAnLW1hJywgJzIwMCcsICctbWV0YWxfYmluZGluZycsICctaW1hZScsICc8aW5maWxlLm1hZT4nLCAnLW9tYWUnLCAnPG91dGZpbGUubWFlPic=

> <r_epik_Ionization_Penalty>
6.7666

> <r_epik_Ionization_Penalty_Charging>
6.7666

> <r_epik_Ionization_Penalty_Neutral>
5.77131e-06

> <r_epik_State_Penalty>
6.79217

> <r_epik_Charging_Adjusted_Penalty>
13.5588

> <i_epik_Tot_Q>
0

> <i_epik_Tot_abs_Q>
2

> <r_epik_Metal_State_Penalty>
2.72569

> <b_epik_Metal_Only>
1

> <s_lp_Force_Field>
OPLS_2005

> <r_lp_Energy>
20.871

> <b_lp_Chiralities_Consistent>
1

> <s_lp_Variant>
AV-unprocessed.smi:1978-24

> <Gold.Version>
5.8.1

> <Gold.Id.Protein>
6NUR|6NUR_protein|mol2

> <Gold.PLP.Fitness>
38.6369

> <Gold.PLP.PLP>
-29.3950

> <Gold.PLP.part.hbond>
-3.0000

> <Gold.PLP.part.metal>
0.0000

> <Gold.PLP.part.buried>
-2.0607

> <Gold.PLP.part.nonpolar>
-23.9248

> <Gold.PLP.part.repulsive>
0.0372

> <Gold.PLP.ligand.clash>
0.1144

> <Gold.PLP.ligand.torsion>
1.4312

> <Gold.PLP.Chemscore.Hbond>
3.9840

> <Gold.PLP.Chemscore.CHOScore>
0.0000

> <Gold.PLP.Chemscore.Metal>
0.0000

> <Gold.Chemscore.Hbonds>
donor molecule, donor type, donor heavy atom, donor atom, acceptor molecule, acceptor atom, score
      L1  H    12    44       P1  7948  1.98
      P1  H  6896  6907       L1     7  1.00
      P1  H  6934  6947       L1    20  0.40

> <Gold.PLP.Chemscore.Internal.Correction>
0.2668

> <Gold.Rescore>
     Score         DG    S(hbond)    S(metal)    S(lipo)     H(rot)  DE(clash)    DE(int)     intcor
     13.17     -17.07       2.45        0.00      62.47       1.52       1.10       2.80       ----

> <Gold.Chemscore.Fitness>
13.1740

> <Gold.Chemscore.DG>
-17.0720

> <Gold.Chemscore.ZeroCoef>
-5.4800

> <Gold.Chemscore.Hbond>
2.4465

> <Gold.Chemscore.Metal>
0.0000

> <Gold.Chemscore.Lipo>
62.4719

> <Gold.Chemscore.Internal_Hbond>
0.0000

> <Gold.Chemscore.DEClash>
1.0996

> <Gold.Chemscore.DEInternal>
2.7983

> <Gold.Chemscore.Rot>
1.5190

> <Gold.Chemscore.Internal.Correction>
   9.000000E+99

> <Gold.Chemscore.Hbonds>
donor molecule, donor type, donor heavy atom, donor atom, acceptor molecule, acceptor atom, score
      L1  H    12    44       P1  7948  0.66
      P1  H  6896  6907       L1     7  0.57
      P1  H  6934  6947       L1    20  0.07

> <Gold.Chemscore.Hbond.Weighted>
-8.1714

> <Gold.Chemscore.Metal.Weighted>
-0.0000

> <Gold.Chemscore.Lipo.Weighted>
-7.3092

> <Gold.Chemscore.Internal_Hbond.Weighted>
0.0000

> <Gold.Chemscore.DEClash.Weighted>
1.0996

> <Gold.Chemscore.DEInternal.Weighted>
2.7983

> <Gold.Chemscore.Rot.Weighted>
3.8886

> <Gold.Chemscore.Internal.Correction.Weighted>
   9.000000E+99

> <Gold.Protein.RotatedTorsions>
[ 6907 6896 6895 6894 ] final -106.37 input  -60.11 | X-H torsion
[ 7974 7965 7964 7962 ] final  132.07 input  175.53 | X-H torsion
[ 8008 7997 7996 7995 ] final   40.12 input   59.86 | X-H torsion
[ 10167 10162 10161 10158 ] final   95.64 input  -65.29 | X-H torsion
[ 10718 10713 10712 10709 ] final -123.07 input   66.30 | X-H torsion
[ 10763 10752 10751 10750 ] final  -32.33 input  -60.55 | X-H torsion
[ 11005 11000 10999 10996 ] final -144.20 input  -57.11 | X-H torsion

> <Gold.Protein.ActiveResidues>
 VAL166  LYS551  ARG553  GLY616  TRP617  ASP618  TYR619  PRO620  LYS621  CYS622 
 ASP623  PHE694  ASN695  SER759  ASP760  ASP761  ALA762  ILE779  LEU786  VAL792 
 PHE793  MET794  SER795  GLU796  ALA797  LYS798  CYS799  TRP800  GLU811  SER814 

> <Gold.Protein.RotatedAtoms>
  150.7386  133.9986  159.3630 H   0  0  0  0  0  0  0  0  0  0  0  0  # atno 6907 bound_to 6896
  151.7939  135.0726  160.0400 H   0  0  0  0  0  0  0  0  0  0  0  0  # atno 6908 bound_to 6896
  152.3189  133.5795  159.5767 H   0  0  0  0  0  0  0  0  0  0  0  0  # atno 6909 bound_to 6896
  145.0007  139.4315  143.5293 H   0  0  0  0  0  0  0  0  0  0  0  0  # atno 7974 bound_to 7965
  155.2479  140.3350  155.4285 H   0  0  0  0  0  0  0  0  0  0  0  0  # atno 8008 bound_to 7997
  156.2228  140.1816  156.7479 H   0  0  0  0  0  0  0  0  0  0  0  0  # atno 8009 bound_to 7997
  154.5852  140.0647  156.9146 H   0  0  0  0  0  0  0  0  0  0  0  0  # atno 8010 bound_to 7997
  139.7969  144.6829  150.9816 H   0  0  0  0  0  0  0  0  0  0  0  0  # atno 10167 bound_to 10162
  156.1471  130.6508  150.9859 H   0  0  0  0  0  0  0  0  0  0  0  0  # atno 10718 bound_to 10713
  153.8119  135.6881  153.4839 H   0  0  0  0  0  0  0  0  0  0  0  0  # atno 10763 bound_to 10752
  153.1623  135.4575  154.9787 H   0  0  0  0  0  0  0  0  0  0  0  0  # atno 10764 bound_to 10752
  154.7964  135.3320  154.7599 H   0  0  0  0  0  0  0  0  0  0  0  0  # atno 10765 bound_to 10752
  140.8049  134.2813  157.4964 H   0  0  0  0  0  0  0  0  0  0  0  0  # atno 11005 bound_to 11000
  146.3451  139.9394  142.8743 LP  0  0  0  0  0  0  0  0  0  0  0  0  # atno 17320 bound_to 7965
  145.2157  140.9914  143.4075 LP  0  0  0  0  0  0  0  0  0  0  0  0  # atno 17321 bound_to 7965
  140.7820  143.4322  151.0678 LP  0  0  0  0  0  0  0  0  0  0  0  0  # atno 17342 bound_to 10162
  139.7996  143.8103  152.3161 LP  0  0  0  0  0  0  0  0  0  0  0  0  # atno 17343 bound_to 10162
  157.6626  131.0878  150.7803 LP  0  0  0  0  0  0  0  0  0  0  0  0  # atno 17370 bound_to 10713
  156.7874  130.4879  149.5390 LP  0  0  0  0  0  0  0  0  0  0  0  0  # atno 17371 bound_to 10713
  139.8718  134.9450  156.3898 LP  0  0  0  0  0  0  0  0  0  0  0  0  # atno 17394 bound_to 11000
  140.9257  133.7614  155.9962 LP  0  0  0  0  0  0  0  0  0  0  0  0  # atno 17395 bound_to 11000

$$$$
