AV-unprocessed.smi:155|AV-procd|sdf|1277|dock8
  -GOLD-   2262018543D 1   1.00000     0.00000
 Structure written by MMmdl.
 63 66  0  0  0  0  0  0  0  0  2 V2000
  145.5000  130.8835  152.3146 C   0  0  0  0  0  0  0  0  0  0  0  0
  145.9223  130.1270  153.5146 N   0  3  0  0  0  0  0  0  0  0  0  0
  146.7219  128.9343  153.1509 C   0  0  0  0  0  0  0  0  0  0  0  0
  146.5850  130.9985  154.5168 C   0  0  0  0  0  0  0  0  0  0  0  0
  148.0286  131.3698  154.1139 C   0  0  0  0  0  0  0  0  0  0  0  0
  148.5367  132.5011  154.8939 N   0  0  0  0  0  0  0  0  0  0  0  0
  149.7951  132.1269  155.5492 C   0  0  0  0  0  0  0  0  0  0  0  0
  150.3157  133.1926  156.5297 C   0  0  0  0  0  0  0  0  0  0  0  0
  151.0622  134.3449  155.8375 C   0  0  0  0  0  0  0  0  0  0  0  0
  150.1790  135.3211  155.1984 N   0  0  0  0  0  0  0  0  0  0  0  0
  150.5093  136.6342  155.3193 C   0  0  0  0  0  0  0  0  0  0  0  0
  150.3127  137.4690  154.2635 N   0  0  0  0  0  0  0  0  0  0  0  0
  150.6133  138.7672  154.3603 C   0  0  0  0  0  0  0  0  0  0  0  0
  151.1170  139.4318  155.4017 N   0  0  0  0  0  0  0  0  0  0  0  0
  151.3269  138.6007  156.4620 C   0  0  0  0  0  0  0  0  0  0  0  0
  151.0540  137.2036  156.5075 C   0  0  0  0  0  0  0  0  0  0  0  0
  151.4101  136.6963  157.7530 N   0  0  0  0  0  0  0  0  0  0  0  0
  151.8555  137.7335  158.4076 C   0  0  0  0  0  0  0  0  0  0  0  0
  151.8389  138.9177  157.7079 N   0  0  0  0  0  0  0  0  0  0  0  0
  152.2729  140.2157  158.1935 C   0  0  0  0  0  0  0  0  0  0  0  0
  151.1088  141.2195  158.3085 C   0  0  2  0  0  0  0  0  0  0  0  0
  150.7297  141.6457  157.0135 O   0  0  0  0  0  0  0  0  0  0  0  0
  151.4847  142.4530  159.1493 C   0  0  1  0  0  0  0  0  0  0  0  0
  152.5068  143.3796  158.4916 C   0  0  0  0  0  0  0  0  0  0  0  0
  152.2725  144.6718  159.2407 C   0  0  0  0  0  0  0  0  0  0  0  0
  150.7612  144.6540  159.4652 C   0  0  0  0  0  0  0  0  0  0  0  0
  150.3513  143.2944  159.3361 O   0  0  0  0  0  0  0  0  0  0  0  0
  148.8180  134.9611  154.8006 C   0  0  0  0  0  0  0  0  0  0  0  0
  148.7542  133.6457  154.0066 C   0  0  0  0  0  0  0  0  0  0  0  0
  146.3614  131.3072  151.7967 H   0  0  0  0  0  0  0  0  0  0  0  0
  144.8280  131.6990  152.5852 H   0  0  0  0  0  0  0  0  0  0  0  0
  144.9659  130.2370  151.6175 H   0  0  0  0  0  0  0  0  0  0  0  0
  147.6824  129.2225  152.7215 H   0  0  0  0  0  0  0  0  0  0  0  0
  146.1911  128.3263  152.4174 H   0  0  0  0  0  0  0  0  0  0  0  0
  146.9089  128.2995  154.0164 H   0  0  0  0  0  0  0  0  0  0  0  0
  145.9902  131.8996  154.6757 H   0  0  0  0  0  0  0  0  0  0  0  0
  146.5888  130.4661  155.4669 H   0  0  0  0  0  0  0  0  0  0  0  0
  148.6991  130.5140  154.2095 H   0  0  0  0  0  0  0  0  0  0  0  0
  148.0176  131.6366  153.0572 H   0  0  0  0  0  0  0  0  0  0  0  0
  149.6442  131.2153  156.1242 H   0  0  0  0  0  0  0  0  0  0  0  0
  150.5585  131.8906  154.8059 H   0  0  0  0  0  0  0  0  0  0  0  0
  149.5202  133.5623  157.1782 H   0  0  0  0  0  0  0  0  0  0  0  0
  151.0275  132.7007  157.1933 H   0  0  0  0  0  0  0  0  0  0  0  0
  151.6627  134.8484  156.5962 H   0  0  0  0  0  0  0  0  0  0  0  0
  151.7624  133.9546  155.0984 H   0  0  0  0  0  0  0  0  0  0  0  0
  150.4217  139.3584  153.4771 H   0  0  0  0  0  0  0  0  0  0  0  0
  152.2091  137.6635  159.4261 H   0  0  0  0  0  0  0  0  0  0  0  0
  152.7446  140.0700  159.1660 H   0  0  0  0  0  0  0  0  0  0  0  0
  153.0466  140.6013  157.5283 H   0  0  0  0  0  0  0  0  0  0  0  0
  150.2502  140.7232  158.7627 H   0  0  0  0  0  0  0  0  0  0  0  0
  151.2520  141.1788  156.3792 H   0  0  0  0  0  0  0  0  0  0  0  0
  151.8475  142.1491  160.1331 H   0  0  0  0  0  0  0  0  0  0  0  0
  153.5314  143.0168  158.5790 H   0  0  0  0  0  0  0  0  0  0  0  0
  152.2794  143.5140  157.4329 H   0  0  0  0  0  0  0  0  0  0  0  0
  152.7927  144.6439  160.1990 H   0  0  0  0  0  0  0  0  0  0  0  0
  152.6122  145.5520  158.6944 H   0  0  0  0  0  0  0  0  0  0  0  0
  150.4934  145.0520  160.4443 H   0  0  0  0  0  0  0  0  0  0  0  0
  150.2474  145.2453  158.7069 H   0  0  0  0  0  0  0  0  0  0  0  0
  148.1603  134.9349  155.6704 H   0  0  0  0  0  0  0  0  0  0  0  0
  148.4301  135.7456  154.1492 H   0  0  0  0  0  0  0  0  0  0  0  0
  149.6234  133.5073  153.3610 H   0  0  0  0  0  0  0  0  0  0  0  0
  147.8932  133.7364  153.3435 H   0  0  0  0  0  0  0  0  0  0  0  0
  145.0727  129.7892  153.9442 H   0  0  0  0  0  0  0  0  0  0  0  0
  1  2  1  0  0  0  0
  1 30  1  0  0  0  0
  1 31  1  0  0  0  0
  1 32  1  0  0  0  0
  2  3  1  0  0  0  0
  2  4  1  0  0  0  0
  2 63  1  0  0  0  0
  3 33  1  0  0  0  0
  3 34  1  0  0  0  0
  3 35  1  0  0  0  0
  4  5  1  0  0  0  0
  4 36  1  0  0  0  0
  4 37  1  0  0  0  0
  5  6  1  0  0  0  0
  5 38  1  0  0  0  0
  5 39  1  0  0  0  0
  6 29  1  0  0  0  0
  6  7  1  0  0  0  0
  7  8  1  0  0  0  0
  7 40  1  0  0  0  0
  7 41  1  0  0  0  0
  8  9  1  0  0  0  0
  8 42  1  0  0  0  0
  8 43  1  0  0  0  0
  9 10  1  0  0  0  0
  9 44  1  0  0  0  0
  9 45  1  0  0  0  0
 10 11  1  0  0  0  0
 10 28  1  0  0  0  0
 11 16  1  0  0  0  0
 11 12  2  0  0  0  0
 12 13  1  0  0  0  0
 13 14  2  0  0  0  0
 13 46  1  0  0  0  0
 14 15  1  0  0  0  0
 15 19  1  0  0  0  0
 15 16  2  0  0  0  0
 16 17  1  0  0  0  0
 17 18  2  0  0  0  0
 18 19  1  0  0  0  0
 18 47  1  0  0  0  0
 19 20  1  0  0  0  0
 20 21  1  0  0  0  0
 20 48  1  0  0  0  0
 20 49  1  0  0  0  0
 21 22  1  0  0  0  0
 21 23  1  0  0  0  0
 21 50  1  0  0  0  0
 22 51  1  0  0  0  0
 23 27  1  0  0  0  0
 23 24  1  0  0  0  0
 23 52  1  0  0  0  0
 24 25  1  0  0  0  0
 24 53  1  0  0  0  0
 24 54  1  0  0  0  0
 25 26  1  0  0  0  0
 25 55  1  0  0  0  0
 25 56  1  0  0  0  0
 26 27  1  0  0  0  0
 26 57  1  0  0  0  0
 26 58  1  0  0  0  0
 28 29  1  0  0  0  0
 28 59  1  0  0  0  0
 28 60  1  0  0  0  0
 29 61  1  0  0  0  0
 29 62  1  0  0  0  0
M  CHG  1   2   1
M  END
> <s_m_source_file>
AV-unprocessed.smi

> <i_m_source_file_index>
155

> <i_lp_mmshare_version>
43012

> <i_f3d_flags>
0

> <s_epik_input>
W0NIM11OKFtDSDNdKVtDSDJdW0NIMl1OMVtDSDJdW0NIMl1bQ0gyXU4oW0NIMl1bQ0gyXTEpYyhuW2NIXW4yKWMoYzIzKW5bY0hdbjNbQ0gyXVtDQEhdKFtPSF0pW0NAQEhdNFtDSDJdW0NIMl1bQ0gyXU80

> <s_epik_cmdline>
J2VwaWtfcHl0aG9uJywgJy1waCcsICc3LjAnLCAnLXRuJywgJzgnLCAnLW1hJywgJzIwMCcsICctbWV0YWxfYmluZGluZycsICctaW1hZScsICc8aW5maWxlLm1hZT4nLCAnLW9tYWUnLCAnPG91dGZpbGUubWFlPic=

> <r_lp_tautomer_probability>
1

> <r_epik_Ionization_Penalty>
0.0599493

> <r_epik_Ionization_Penalty_Charging>
0.00816363

> <r_epik_Ionization_Penalty_Neutral>
0.0517857

> <r_epik_State_Penalty>
0.460607

> <r_epik_Charging_Adjusted_Penalty>
0.468771

> <i_epik_Tot_Q>
1

> <i_epik_Tot_abs_Q>
1

> <r_epik_Metal_State_Penalty>
0.45965

> <b_epik_Metal_Only>
0

> <s_lp_Force_Field>
OPLS_2005

> <r_lp_Energy>
54.9456

> <b_lp_Chiralities_Consistent>
1

> <s_lp_Variant>
AV-unprocessed.smi:155-11

> <Gold.Version>
5.8.1

> <Gold.Id.Protein>
6NUR|6NUR_protein|mol2

> <Gold.PLP.Fitness>
48.9384

> <Gold.PLP.PLP>
-44.1289

> <Gold.PLP.part.hbond>
-1.5631

> <Gold.PLP.part.metal>
0.0000

> <Gold.PLP.part.buried>
-8.0386

> <Gold.PLP.part.nonpolar>
-36.0167

> <Gold.PLP.part.repulsive>
0.8575

> <Gold.PLP.ligand.clash>
0.0000

> <Gold.PLP.ligand.torsion>
1.8485

> <Gold.PLP.Chemscore.Hbond>
2.0000

> <Gold.PLP.Chemscore.CHOScore>
0.7581

> <Gold.PLP.Chemscore.Metal>
0.0000

> <Gold.Chemscore.Hbonds>
donor molecule, donor type, donor heavy atom, donor atom, acceptor molecule, acceptor atom, score
      L1  H     2    63       P1 10956  2.00
      L1  C    13    46       P1  7957  0.98

> <Gold.PLP.Chemscore.Internal.Correction>
0.2322

> <Gold.Rescore>
     Score         DG    S(hbond)    S(metal)    S(lipo)     H(rot)  DE(clash)    DE(int)     intcor
     11.62     -13.58       0.86        0.00     103.90       2.71       0.03       1.92       ----

> <Gold.Chemscore.Fitness>
11.6200

> <Gold.Chemscore.DG>
-13.5768

> <Gold.Chemscore.ZeroCoef>
-5.4800

> <Gold.Chemscore.Hbond>
0.8604

> <Gold.Chemscore.Metal>
0.0000

> <Gold.Chemscore.Lipo>
103.8950

> <Gold.Chemscore.Internal_Hbond>
0.0000

> <Gold.Chemscore.DEClash>
0.0332

> <Gold.Chemscore.DEInternal>
1.9237

> <Gold.Chemscore.Rot>
2.7080

> <Gold.Chemscore.Internal.Correction>
   9.000000E+99

> <Gold.Chemscore.Hbonds>
donor molecule, donor type, donor heavy atom, donor atom, acceptor molecule, acceptor atom, score
      L1  H     2    63       P1 10956  0.49

> <Gold.Chemscore.Hbond.Weighted>
-2.8737

> <Gold.Chemscore.Metal.Weighted>
-0.0000

> <Gold.Chemscore.Lipo.Weighted>
-12.1557

> <Gold.Chemscore.Internal_Hbond.Weighted>
0.0000

> <Gold.Chemscore.DEClash.Weighted>
0.0332

> <Gold.Chemscore.DEInternal.Weighted>
1.9237

> <Gold.Chemscore.Rot.Weighted>
6.9326

> <Gold.Chemscore.Internal.Correction.Weighted>
   9.000000E+99

> <Gold.Protein.RotatedTorsions>
[ 6907 6896 6895 6894 ] final  -17.23 input  -60.11 | X-H torsion
[ 7974 7965 7964 7962 ] final   14.03 input  175.53 | X-H torsion
[ 8008 7997 7996 7995 ] final  -98.95 input   59.86 | X-H torsion
[ 10167 10162 10161 10158 ] final   20.23 input  -65.29 | X-H torsion
[ 10718 10713 10712 10709 ] final   60.84 input   66.30 | X-H torsion
[ 10763 10752 10751 10750 ] final  -57.40 input  -60.55 | X-H torsion
[ 11005 11000 10999 10996 ] final  172.98 input  -57.11 | X-H torsion

> <Gold.Protein.ActiveResidues>
 VAL166  LYS551  ARG553  GLY616  TRP617  ASP618  TYR619  PRO620  LYS621  CYS622 
 ASP623  PHE694  ASN695  SER759  ASP760  ASP761  ALA762  ILE779  LEU786  VAL792 
 PHE793  MET794  SER795  GLU796  ALA797  LYS798  CYS799  TRP800  GLU811  SER814 

> <Gold.Protein.RotatedAtoms>
  151.2965  135.0757  159.9222 H   0  0  0  0  0  0  0  0  0  0  0  0  # atno 6907 bound_to 6896
  152.5306  133.9877  159.7846 H   0  0  0  0  0  0  0  0  0  0  0  0  # atno 6908 bound_to 6896
  151.0156  133.5872  159.2708 H   0  0  0  0  0  0  0  0  0  0  0  0  # atno 6909 bound_to 6896
  146.2315  139.9101  142.8525 H   0  0  0  0  0  0  0  0  0  0  0  0  # atno 7974 bound_to 7965
  154.8082  140.0451  157.1323 H   0  0  0  0  0  0  0  0  0  0  0  0  # atno 8008 bound_to 7997
  154.9399  140.3051  155.5106 H   0  0  0  0  0  0  0  0  0  0  0  0  # atno 8009 bound_to 7997
  156.2969  140.2307  156.4467 H   0  0  0  0  0  0  0  0  0  0  0  0  # atno 8010 bound_to 7997
  140.5519  143.9494  150.6583 H   0  0  0  0  0  0  0  0  0  0  0  0  # atno 10167 bound_to 10162
  157.5783  130.8961  149.9386 H   0  0  0  0  0  0  0  0  0  0  0  0  # atno 10718 bound_to 10713
  154.2218  135.6376  153.5147 H   0  0  0  0  0  0  0  0  0  0  0  0  # atno 10763 bound_to 10752
  152.9967  135.5498  154.6106 H   0  0  0  0  0  0  0  0  0  0  0  0  # atno 10764 bound_to 10752
  154.5568  135.2906  155.0931 H   0  0  0  0  0  0  0  0  0  0  0  0  # atno 10765 bound_to 10752
  140.3355  134.7321  157.4165 H   0  0  0  0  0  0  0  0  0  0  0  0  # atno 11005 bound_to 11000
  145.2238  140.9946  143.4030 LP  0  0  0  0  0  0  0  0  0  0  0  0  # atno 17320 bound_to 7965
  144.9588  139.4002  143.6366 LP  0  0  0  0  0  0  0  0  0  0  0  0  # atno 17321 bound_to 7965
  140.2922  143.3316  152.1052 LP  0  0  0  0  0  0  0  0  0  0  0  0  # atno 17342 bound_to 10162
  139.5031  144.6748  151.6154 LP  0  0  0  0  0  0  0  0  0  0  0  0  # atno 17343 bound_to 10162
  156.0828  130.3671  150.0546 LP  0  0  0  0  0  0  0  0  0  0  0  0  # atno 17370 bound_to 10713
  156.8689  130.9517  151.3611 LP  0  0  0  0  0  0  0  0  0  0  0  0  # atno 17371 bound_to 10713
  140.0824  134.5712  155.8526 LP  0  0  0  0  0  0  0  0  0  0  0  0  # atno 17394 bound_to 11000
  141.2052  133.6645  156.6168 LP  0  0  0  0  0  0  0  0  0  0  0  0  # atno 17395 bound_to 11000

$$$$
