AV-unprocessed.smi:1843|AV-procd|sdf|7502|dock7
  -GOLD-   22720 9203D 1   1.00000     0.00000
 Structure written by MMmdl.
 37 39  0  0  0  0  0  0  0  0  1 V2000
  144.7115  136.0720  153.5568 O   0  0  0  0  0  0  0  0  0  0  0  0
  145.7986  136.1902  152.9910 C   0  0  0  0  0  0  0  0  0  0  0  0
  146.6505  137.2185  153.1484 N   0  0  0  0  0  0  0  0  0  0  0  0
  146.5040  138.3636  153.9753 C   0  0  0  0  0  0  0  0  0  0  0  0
  145.8672  138.3546  155.1543 N   0  0  0  0  0  0  0  0  0  0  0  0
  145.8712  139.6058  155.7547 N   0  0  0  0  0  0  0  0  0  0  0  0
  146.5095  140.5218  155.0166 C   0  0  0  0  0  0  0  0  0  0  0  0
  146.6487  141.9415  155.4551 C   0  0  0  0  0  0  0  0  0  0  0  0
  145.4475  142.7664  155.8634 C   0  0  0  0  0  0  0  0  0  0  0  0
  146.1680  143.0727  154.5754 C   0  0  0  0  0  0  0  0  0  0  0  0
  147.1643  139.9181  153.4977 S   0  0  0  0  0  0  0  0  0  0  0  0
  146.2822  135.2880  152.1248 N   0  0  0  0  0  0  0  0  0  0  0  0
  145.6128  134.0481  151.7359 C   0  0  2  0  0  0  0  0  0  0  0  0
  146.4675  133.2714  150.7159 C   0  0  0  0  0  0  0  0  0  0  0  0
  145.7855  131.9550  150.3100 C   0  0  0  0  0  0  0  0  0  0  0  0
  144.3709  132.2030  149.7627 C   0  0  0  0  0  0  0  0  0  0  0  0
  143.5080  132.9925  150.7644 C   0  0  0  0  0  0  0  0  0  0  0  0
  144.1810  134.3071  151.2055 C   0  0  2  0  0  0  0  0  0  0  0  0
  144.2029  135.2047  150.1106 O   0  0  0  0  0  0  0  0  0  0  0  0
  147.5077  137.1757  152.6174 H   0  0  0  0  0  0  0  0  0  0  0  0
  147.5747  142.0836  156.0088 H   0  0  0  0  0  0  0  0  0  0  0  0
  144.4604  142.3153  155.7846 H   0  0  0  0  0  0  0  0  0  0  0  0
  145.5761  143.4635  156.6888 H   0  0  0  0  0  0  0  0  0  0  0  0
  146.7763  143.9743  154.5402 H   0  0  0  0  0  0  0  0  0  0  0  0
  145.6659  142.8123  153.6457 H   0  0  0  0  0  0  0  0  0  0  0  0
  147.1829  135.4656  151.7049 H   0  0  0  0  0  0  0  0  0  0  0  0
  145.5316  133.4208  152.6262 H   0  0  0  0  0  0  0  0  0  0  0  0
  146.6408  133.8816  149.8284 H   0  0  0  0  0  0  0  0  0  0  0  0
  147.4498  133.0571  151.1386 H   0  0  0  0  0  0  0  0  0  0  0  0
  146.3883  131.4401  149.5614 H   0  0  0  0  0  0  0  0  0  0  0  0
  145.7316  131.2908  151.1737 H   0  0  0  0  0  0  0  0  0  0  0  0
  144.4353  132.7500  148.8214 H   0  0  0  0  0  0  0  0  0  0  0  0
  143.8911  131.2517  149.5313 H   0  0  0  0  0  0  0  0  0  0  0  0
  142.5264  133.1955  150.3345 H   0  0  0  0  0  0  0  0  0  0  0  0
  143.3303  132.3721  151.6439 H   0  0  0  0  0  0  0  0  0  0  0  0
  143.5758  134.7660  151.9884 H   0  0  0  0  0  0  0  0  0  0  0  0
  144.7550  134.8381  149.4369 H   0  0  0  0  0  0  0  0  0  0  0  0
  1  2  2  0  0  0  0
  2  3  1  0  0  0  0
  2 12  1  0  0  0  0
  3  4  1  0  0  0  0
  3 20  1  0  0  0  0
  4 11  1  0  0  0  0
  4  5  2  0  0  0  0
  5  6  1  0  0  0  0
  6  7  2  0  0  0  0
  7  8  1  0  0  0  0
  7 11  1  0  0  0  0
  8 10  1  0  0  0  0
  8  9  1  0  0  0  0
  8 21  1  0  0  0  0
  9 10  1  0  0  0  0
  9 22  1  0  0  0  0
  9 23  1  0  0  0  0
 10 24  1  0  0  0  0
 10 25  1  0  0  0  0
 12 13  1  0  0  0  0
 12 26  1  0  0  0  0
 13 18  1  0  0  0  0
 13 14  1  0  0  0  0
 13 27  1  0  0  0  0
 14 15  1  0  0  0  0
 14 28  1  0  0  0  0
 14 29  1  0  0  0  0
 15 16  1  0  0  0  0
 15 30  1  0  0  0  0
 15 31  1  0  0  0  0
 16 17  1  0  0  0  0
 16 32  1  0  0  0  0
 16 33  1  0  0  0  0
 17 18  1  0  0  0  0
 17 34  1  0  0  0  0
 17 35  1  0  0  0  0
 18 19  1  0  0  0  0
 18 36  1  0  0  0  0
 19 37  1  0  0  0  0
M  END
> <s_m_source_file>
AV-unprocessed.smi

> <i_m_source_file_index>
1843

> <i_lp_mmshare_version>
43012

> <i_f3d_flags>
0

> <s_epik_input>
W09IXVtDQEBIXTFbQ0gyXVtDSDJdW0NIMl1bQ0gyXVtDQEhdMVtOSF1DKD1PKVtOSF1jMm5uYyhzMilbQ0hdM1tDSDJdW0NIMl0z

> <s_epik_cmdline>
J2VwaWtfcHl0aG9uJywgJy1waCcsICc3LjAnLCAnLXRuJywgJzgnLCAnLW1hJywgJzIwMCcsICctbWV0YWxfYmluZGluZycsICctaW1hZScsICc8aW5maWxlLm1hZT4nLCAnLW9tYWUnLCAnPG91dGZpbGUubWFlPic=

> <r_lp_tautomer_probability>
1

> <r_epik_Ionization_Penalty>
0.000257313

> <r_epik_Ionization_Penalty_Charging>
0

> <r_epik_Ionization_Penalty_Neutral>
0.000257313

> <r_epik_State_Penalty>
-0

> <r_epik_Charging_Adjusted_Penalty>
0

> <i_epik_Tot_Q>
0

> <i_epik_Tot_abs_Q>
0

> <r_epik_Metal_State_Penalty>
0.147479

> <b_epik_Metal_Only>
0

> <s_lp_Force_Field>
OPLS_2005

> <r_lp_Energy>
10.7354

> <b_lp_Chiralities_Consistent>
1

> <s_lp_Variant>
AV-unprocessed.smi:1843-3

> <Gold.Version>
5.8.1

> <Gold.Id.Protein>
6NUR|6NUR_protein|mol2

> <Gold.PLP.Fitness>
41.8384

> <Gold.PLP.PLP>
-33.3045

> <Gold.PLP.part.hbond>
-3.0000

> <Gold.PLP.part.metal>
0.0000

> <Gold.PLP.part.buried>
-4.8181

> <Gold.PLP.part.nonpolar>
-26.9419

> <Gold.PLP.part.repulsive>
0.3040

> <Gold.PLP.ligand.clash>
0.0000

> <Gold.PLP.ligand.torsion>
0.3030

> <Gold.PLP.Chemscore.Hbond>
3.0000

> <Gold.PLP.Chemscore.CHOScore>
0.0000

> <Gold.PLP.Chemscore.Metal>
0.0000

> <Gold.Chemscore.Hbonds>
donor molecule, donor type, donor heavy atom, donor atom, acceptor molecule, acceptor atom, score
      L1  H     3    20       P1  7948  1.00
      L1  H    12    26       P1  7948  1.00
      L1  H    19    37       P1  7921  0.41

> <Gold.PLP.Chemscore.Internal.Correction>
0.1400

> <Gold.Rescore>
     Score         DG    S(hbond)    S(metal)    S(lipo)     H(rot)  DE(clash)    DE(int)     intcor
     18.18     -20.02       2.94        0.00      78.32       1.74       0.03       1.81       ----

> <Gold.Chemscore.Fitness>
18.1823

> <Gold.Chemscore.DG>
-20.0218

> <Gold.Chemscore.ZeroCoef>
-5.4800

> <Gold.Chemscore.Hbond>
2.9443

> <Gold.Chemscore.Metal>
0.0000

> <Gold.Chemscore.Lipo>
78.3179

> <Gold.Chemscore.Internal_Hbond>
0.0000

> <Gold.Chemscore.DEClash>
0.0327

> <Gold.Chemscore.DEInternal>
1.8068

> <Gold.Chemscore.Rot>
1.7404

> <Gold.Chemscore.Internal.Correction>
   9.000000E+99

> <Gold.Chemscore.Hbonds>
donor molecule, donor type, donor heavy atom, donor atom, acceptor molecule, acceptor atom, score
      L1  H     3    20       P1  7948  0.97
      L1  H    12    26       P1  7948  0.94
      L1  H    19    37       P1  7921  0.41

> <Gold.Chemscore.Hbond.Weighted>
-9.8341

> <Gold.Chemscore.Metal.Weighted>
-0.0000

> <Gold.Chemscore.Lipo.Weighted>
-9.1632

> <Gold.Chemscore.Internal_Hbond.Weighted>
0.0000

> <Gold.Chemscore.DEClash.Weighted>
0.0327

> <Gold.Chemscore.DEInternal.Weighted>
1.8068

> <Gold.Chemscore.Rot.Weighted>
4.4555

> <Gold.Chemscore.Internal.Correction.Weighted>
   9.000000E+99

> <Gold.Protein.RotatedTorsions>
[ 6907 6896 6895 6894 ] final  -54.84 input  -60.11 | X-H torsion
[ 7974 7965 7964 7962 ] final   43.47 input  175.53 | X-H torsion
[ 8008 7997 7996 7995 ] final -136.11 input   59.86 | X-H torsion
[ 10167 10162 10161 10158 ] final -149.83 input  -65.29 | X-H torsion
[ 10718 10713 10712 10709 ] final  -37.11 input   66.30 | X-H torsion
[ 10763 10752 10751 10750 ] final  -48.32 input  -60.55 | X-H torsion
[ 11005 11000 10999 10996 ] final -143.64 input  -57.11 | X-H torsion

> <Gold.Protein.ActiveResidues>
 VAL166  LYS551  ARG553  GLY616  TRP617  ASP618  TYR619  PRO620  LYS621  CYS622 
 ASP623  PHE694  ASN695  SER759  ASP760  ASP761  ALA762  ILE779  LEU786  VAL792 
 PHE793  MET794  SER795  GLU796  ALA797  LYS798  CYS799  TRP800  GLU811  SER814 

> <Gold.Protein.RotatedAtoms>
  150.8303  134.7553  159.6847 H   0  0  0  0  0  0  0  0  0  0  0  0  # atno 6907 bound_to 6896
  152.4408  134.5591  159.9898 H   0  0  0  0  0  0  0  0  0  0  0  0  # atno 6908 bound_to 6896
  151.5753  133.3347  159.3033 H   0  0  0  0  0  0  0  0  0  0  0  0  # atno 6909 bound_to 6896
  146.0652  139.5182  142.9633 H   0  0  0  0  0  0  0  0  0  0  0  0  # atno 7974 bound_to 7965
  155.3899  140.0499  157.3041 H   0  0  0  0  0  0  0  0  0  0  0  0  # atno 8008 bound_to 7997
  154.5041  140.2168  155.9247 H   0  0  0  0  0  0  0  0  0  0  0  0  # atno 8009 bound_to 7997
  156.1504  140.3137  155.8644 H   0  0  0  0  0  0  0  0  0  0  0  0  # atno 8010 bound_to 7997
  139.7408  143.8665  152.2561 H   0  0  0  0  0  0  0  0  0  0  0  0  # atno 10167 bound_to 10162
  156.3190  130.4263  149.7978 H   0  0  0  0  0  0  0  0  0  0  0  0  # atno 10718 bound_to 10713
  154.0759  135.6598  153.4831 H   0  0  0  0  0  0  0  0  0  0  0  0  # atno 10763 bound_to 10752
  153.0373  135.5168  154.7521 H   0  0  0  0  0  0  0  0  0  0  0  0  # atno 10764 bound_to 10752
  154.6601  135.3014  154.9845 H   0  0  0  0  0  0  0  0  0  0  0  0  # atno 10765 bound_to 10752
  140.8105  134.2750  157.4943 H   0  0  0  0  0  0  0  0  0  0  0  0  # atno 11005 bound_to 11000
  145.6490  141.0267  143.1771 LP  0  0  0  0  0  0  0  0  0  0  0  0  # atno 17320 bound_to 7965
  144.7198  139.8069  143.7386 LP  0  0  0  0  0  0  0  0  0  0  0  0  # atno 17321 bound_to 7965
  139.8615  144.7114  150.9094 LP  0  0  0  0  0  0  0  0  0  0  0  0  # atno 17342 bound_to 10162
  140.7785  143.3813  151.1471 LP  0  0  0  0  0  0  0  0  0  0  0  0  # atno 17343 bound_to 10162
  156.5293  130.8250  151.3231 LP  0  0  0  0  0  0  0  0  0  0  0  0  # atno 17370 bound_to 10713
  157.7407  130.9856  150.2399 LP  0  0  0  0  0  0  0  0  0  0  0  0  # atno 17371 bound_to 10713
  139.8714  134.9480  156.3984 LP  0  0  0  0  0  0  0  0  0  0  0  0  # atno 17394 bound_to 11000
  140.9203  133.7650  155.9898 LP  0  0  0  0  0  0  0  0  0  0  0  0  # atno 17395 bound_to 11000

$$$$
