AV-unprocessed.smi:258|AV-procd|sdf|1969|dock2
  -GOLD-   2262021123D 1   1.00000     0.00000
 Structure written by MMmdl.
 57 60  0  0  0  0  0  0  0  0  1 V2000
  146.4903  132.1015  150.7627 O   0  0  0  0  0  0  0  0  0  0  0  0
  146.4335  133.0086  151.8431 C   0  0  0  0  0  0  0  0  0  0  0  0
  147.2464  132.4722  153.0278 C   0  0  0  0  0  0  0  0  0  0  0  0
  147.6897  133.5670  153.8165 O   0  0  0  0  0  0  0  0  0  0  0  0
  149.0564  133.5025  154.2029 C   0  0  2  0  0  0  0  0  0  0  0  0
  149.3376  132.2373  155.0370 C   0  0  0  0  0  0  0  0  0  0  0  0
  150.7793  132.2612  155.5663 C   0  0  0  0  0  0  0  0  0  0  0  0
  151.0596  133.5486  156.3585 C   0  0  0  0  0  0  0  0  0  0  0  0
  150.7157  134.7338  155.5708 N   0  0  0  0  0  0  0  0  0  0  0  0
  151.2921  135.9005  155.9627 C   0  0  0  0  0  0  0  0  0  0  0  0
  152.4311  135.8147  156.6992 N   0  0  0  0  0  0  0  0  0  0  0  0
  153.0632  136.9184  157.1069 C   0  0  0  0  0  0  0  0  0  0  0  0
  152.7361  138.1932  156.8943 N   0  0  0  0  0  0  0  0  0  0  0  0
  151.5899  138.2920  156.1632 C   0  0  0  0  0  0  0  0  0  0  0  0
  150.8092  137.2106  155.6598 C   0  0  0  0  0  0  0  0  0  0  0  0
  149.7099  137.7162  154.9715 N   0  0  0  0  0  0  0  0  0  0  0  0
  149.8393  139.0114  155.0546 C   0  0  0  0  0  0  0  0  0  0  0  0
  150.9395  139.4434  155.7577 N   0  0  0  0  0  0  0  0  0  0  0  0
  151.3304  140.8194  156.0061 C   0  0  0  0  0  0  0  0  0  0  0  0
  150.8296  141.3748  157.3621 C   0  0  2  0  0  0  0  0  0  0  0  0
  149.2885  141.5378  157.4189 C   0  0  0  0  0  0  0  0  0  0  0  0
  148.7824  142.1074  156.2292 O   0  0  0  0  0  0  0  0  0  0  0  0
  151.5966  142.6752  157.7146 C   0  0  1  0  0  0  0  0  0  0  0  0
  150.7712  143.7916  158.3448 C   0  0  0  0  0  0  0  0  0  0  0  0
  151.8213  144.5552  159.1391 C   0  0  0  0  0  0  0  0  0  0  0  0
  152.6225  143.5167  159.6774 O   0  0  0  0  0  0  0  0  0  0  0  0
  152.7775  142.5057  158.6867 C   0  0  0  0  0  0  0  0  0  0  0  0
  149.3574  134.7639  155.0305 C   0  0  0  0  0  0  0  0  0  0  0  0
  147.3488  131.7067  150.7468 H   0  0  0  0  0  0  0  0  0  0  0  0
  146.8577  133.9529  151.5017 H   0  0  0  0  0  0  0  0  0  0  0  0
  145.3985  133.2026  152.1260 H   0  0  0  0  0  0  0  0  0  0  0  0
  146.6629  131.7549  153.6059 H   0  0  0  0  0  0  0  0  0  0  0  0
  148.1213  131.9436  152.6469 H   0  0  0  0  0  0  0  0  0  0  0  0
  149.6963  133.5127  153.3184 H   0  0  0  0  0  0  0  0  0  0  0  0
  148.6396  132.1845  155.8735 H   0  0  0  0  0  0  0  0  0  0  0  0
  149.1841  131.3365  154.4438 H   0  0  0  0  0  0  0  0  0  0  0  0
  150.9624  131.3898  156.1954 H   0  0  0  0  0  0  0  0  0  0  0  0
  151.4753  132.1910  154.7293 H   0  0  0  0  0  0  0  0  0  0  0  0
  150.4683  133.5576  157.2748 H   0  0  0  0  0  0  0  0  0  0  0  0
  152.1065  133.5566  156.6625 H   0  0  0  0  0  0  0  0  0  0  0  0
  153.9614  136.7565  157.6846 H   0  0  0  0  0  0  0  0  0  0  0  0
  149.1275  139.6902  154.6081 H   0  0  0  0  0  0  0  0  0  0  0  0
  152.4190  140.8659  155.9584 H   0  0  0  0  0  0  0  0  0  0  0  0
  150.9602  141.4356  155.1857 H   0  0  0  0  0  0  0  0  0  0  0  0
  151.1098  140.6532  158.1313 H   0  0  0  0  0  0  0  0  0  0  0  0
  148.7921  140.5770  157.5475 H   0  0  0  0  0  0  0  0  0  0  0  0
  148.9932  142.1576  158.2659 H   0  0  0  0  0  0  0  0  0  0  0  0
  148.8796  143.0461  156.2792 H   0  0  0  0  0  0  0  0  0  0  0  0
  152.0214  143.0732  156.7911 H   0  0  0  0  0  0  0  0  0  0  0  0
  150.2641  144.4149  157.6078 H   0  0  0  0  0  0  0  0  0  0  0  0
  150.0197  143.3995  159.0298 H   0  0  0  0  0  0  0  0  0  0  0  0
  152.4262  145.1854  158.4853 H   0  0  0  0  0  0  0  0  0  0  0  0
  151.3903  145.1794  159.9222 H   0  0  0  0  0  0  0  0  0  0  0  0
  152.8127  141.5256  159.1616 H   0  0  0  0  0  0  0  0  0  0  0  0
  153.7246  142.6482  158.1648 H   0  0  0  0  0  0  0  0  0  0  0  0
  149.2239  135.6426  154.3981 H   0  0  0  0  0  0  0  0  0  0  0  0
  148.6486  134.8435  155.8559 H   0  0  0  0  0  0  0  0  0  0  0  0
  1  2  1  0  0  0  0
  1 29  1  0  0  0  0
  2  3  1  0  0  0  0
  2 30  1  0  0  0  0
  2 31  1  0  0  0  0
  3  4  1  0  0  0  0
  3 32  1  0  0  0  0
  3 33  1  0  0  0  0
  4  5  1  0  0  0  0
  5 28  1  0  0  0  0
  5  6  1  0  0  0  0
  5 34  1  0  0  0  0
  6  7  1  0  0  0  0
  6 35  1  0  0  0  0
  6 36  1  0  0  0  0
  7  8  1  0  0  0  0
  7 37  1  0  0  0  0
  7 38  1  0  0  0  0
  8  9  1  0  0  0  0
  8 39  1  0  0  0  0
  8 40  1  0  0  0  0
  9 10  1  0  0  0  0
  9 28  1  0  0  0  0
 10 15  1  0  0  0  0
 10 11  2  0  0  0  0
 11 12  1  0  0  0  0
 12 13  2  0  0  0  0
 12 41  1  0  0  0  0
 13 14  1  0  0  0  0
 14 18  1  0  0  0  0
 14 15  2  0  0  0  0
 15 16  1  0  0  0  0
 16 17  2  0  0  0  0
 17 18  1  0  0  0  0
 17 42  1  0  0  0  0
 18 19  1  0  0  0  0
 19 20  1  0  0  0  0
 19 43  1  0  0  0  0
 19 44  1  0  0  0  0
 20 21  1  0  0  0  0
 20 23  1  0  0  0  0
 20 45  1  0  0  0  0
 21 22  1  0  0  0  0
 21 46  1  0  0  0  0
 21 47  1  0  0  0  0
 22 48  1  0  0  0  0
 23 27  1  0  0  0  0
 23 24  1  0  0  0  0
 23 49  1  0  0  0  0
 24 25  1  0  0  0  0
 24 50  1  0  0  0  0
 24 51  1  0  0  0  0
 25 26  1  0  0  0  0
 25 52  1  0  0  0  0
 25 53  1  0  0  0  0
 26 27  1  0  0  0  0
 27 54  1  0  0  0  0
 27 55  1  0  0  0  0
 28 56  1  0  0  0  0
 28 57  1  0  0  0  0
M  END
> <s_m_source_file>
AV-unprocessed.smi

> <i_m_source_file_index>
258

> <i_lp_mmshare_version>
43012

> <i_f3d_flags>
0

> <s_epik_input>
W09IXVtDSDJdW0NIMl1PW0NAQEhdMVtDSDJdW0NIMl1bQ0gyXU4oW0NIMl0xKWMobltjSF1uMiljKGMyMyluW2NIXW4zW0NIMl1bQ0BIXShbQ0gyXVtPSF0pW0NAQEhdNFtDSDJdW0NIMl1PW0NIMl00

> <s_epik_cmdline>
J2VwaWtfcHl0aG9uJywgJy1waCcsICc3LjAnLCAnLXRuJywgJzgnLCAnLW1hJywgJzIwMCcsICctbWV0YWxfYmluZGluZycsICctaW1hZScsICc8aW5maWxlLm1hZT4nLCAnLW9tYWUnLCAnPG91dGZpbGUubWFlPic=

> <r_lp_tautomer_probability>
1

> <r_epik_Ionization_Penalty>
0.00349036

> <r_epik_Ionization_Penalty_Charging>
0

> <r_epik_Ionization_Penalty_Neutral>
0.00349036

> <r_epik_State_Penalty>
0.00229798

> <r_epik_Charging_Adjusted_Penalty>
0.00229798

> <i_epik_Tot_Q>
0

> <i_epik_Tot_abs_Q>
0

> <r_epik_Metal_State_Penalty>
-0

> <b_epik_Metal_Only>
0

> <s_lp_Force_Field>
OPLS_2005

> <r_lp_Energy>
47.936

> <b_lp_Chiralities_Consistent>
1

> <s_lp_Variant>
AV-unprocessed.smi:258-5

> <Gold.Version>
5.8.1

> <Gold.Id.Protein>
6NUR|6NUR_protein|mol2

> <Gold.PLP.Fitness>
50.9825

> <Gold.PLP.PLP>
-46.6445

> <Gold.PLP.part.hbond>
-2.9113

> <Gold.PLP.part.metal>
0.0000

> <Gold.PLP.part.buried>
-6.0405

> <Gold.PLP.part.nonpolar>
-37.4288

> <Gold.PLP.part.repulsive>
0.5697

> <Gold.PLP.ligand.clash>
0.0000

> <Gold.PLP.ligand.torsion>
2.4264

> <Gold.PLP.Chemscore.Hbond>
2.8100

> <Gold.PLP.Chemscore.CHOScore>
0.0000

> <Gold.PLP.Chemscore.Metal>
0.0000

> <Gold.Chemscore.Hbonds>
donor molecule, donor type, donor heavy atom, donor atom, acceptor molecule, acceptor atom, score
      L1  H     1    29       P1 10747  1.00
      L1  H    22    48       P1  8028  1.00
      P1  H 10752 10763       L1    11  0.81

> <Gold.PLP.Chemscore.Internal.Correction>
0.7609

> <Gold.Rescore>
     Score         DG    S(hbond)    S(metal)    S(lipo)     H(rot)  DE(clash)    DE(int)     intcor
     10.48     -14.18       2.02        0.00     102.79       3.94       0.15       3.54       ----

> <Gold.Chemscore.Fitness>
10.4840

> <Gold.Chemscore.DG>
-14.1751

> <Gold.Chemscore.ZeroCoef>
-5.4800

> <Gold.Chemscore.Hbond>
2.0191

> <Gold.Chemscore.Metal>
0.0000

> <Gold.Chemscore.Lipo>
102.7907

> <Gold.Chemscore.Internal_Hbond>
0.0000

> <Gold.Chemscore.DEClash>
0.1461

> <Gold.Chemscore.DEInternal>
3.5449

> <Gold.Chemscore.Rot>
3.9356

> <Gold.Chemscore.Internal.Correction>
   9.000000E+99

> <Gold.Chemscore.Hbonds>
donor molecule, donor type, donor heavy atom, donor atom, acceptor molecule, acceptor atom, score
      L1  H     1    29       P1 10747  1.00
      L1  H    22    48       P1  8028  0.98
      P1  H 10752 10763       L1    11  0.03

> <Gold.Chemscore.Hbond.Weighted>
-6.7437

> <Gold.Chemscore.Metal.Weighted>
-0.0000

> <Gold.Chemscore.Lipo.Weighted>
-12.0265

> <Gold.Chemscore.Internal_Hbond.Weighted>
0.0000

> <Gold.Chemscore.DEClash.Weighted>
0.1461

> <Gold.Chemscore.DEInternal.Weighted>
3.5449

> <Gold.Chemscore.Rot.Weighted>
10.0751

> <Gold.Chemscore.Internal.Correction.Weighted>
   9.000000E+99

> <Gold.Protein.RotatedTorsions>
[ 6907 6896 6895 6894 ] final    3.01 input  -60.11 | X-H torsion
[ 7974 7965 7964 7962 ] final   89.02 input  175.53 | X-H torsion
[ 8008 7997 7996 7995 ] final  -23.02 input   59.86 | X-H torsion
[ 10167 10162 10161 10158 ] final   12.50 input  -65.29 | X-H torsion
[ 10718 10713 10712 10709 ] final   86.21 input   66.30 | X-H torsion
[ 10763 10752 10751 10750 ] final  123.49 input  -60.55 | X-H torsion
[ 11005 11000 10999 10996 ] final -161.47 input  -57.11 | X-H torsion

> <Gold.Protein.ActiveResidues>
 VAL166  LYS551  ARG553  GLY616  TRP617  ASP618  TYR619  PRO620  LYS621  CYS622 
 ASP623  PHE694  ASN695  SER759  ASP760  ASP761  ALA762  ILE779  LEU786  VAL792 
 PHE793  MET794  SER795  GLU796  ALA797  LYS798  CYS799  TRP800  GLU811  SER814 

> <Gold.Protein.RotatedAtoms>
  151.6181  135.1034  160.0095 H   0  0  0  0  0  0  0  0  0  0  0  0  # atno 6907 bound_to 6896
  152.4172  133.7054  159.6458 H   0  0  0  0  0  0  0  0  0  0  0  0  # atno 6908 bound_to 6896
  150.8060  133.8435  159.3226 H   0  0  0  0  0  0  0  0  0  0  0  0  # atno 6909 bound_to 6896
  145.5379  139.2287  143.2582 H   0  0  0  0  0  0  0  0  0  0  0  0  # atno 7974 bound_to 7965
  154.4609  140.1992  156.0247 H   0  0  0  0  0  0  0  0  0  0  0  0  # atno 8008 bound_to 7997
  156.0838  140.3268  155.7699 H   0  0  0  0  0  0  0  0  0  0  0  0  # atno 8009 bound_to 7997
  155.5068  140.0558  157.2921 H   0  0  0  0  0  0  0  0  0  0  0  0  # atno 8010 bound_to 7997
  140.6064  143.8499  150.7018 H   0  0  0  0  0  0  0  0  0  0  0  0  # atno 10167 bound_to 10162
  157.6925  131.0206  150.2938 H   0  0  0  0  0  0  0  0  0  0  0  0  # atno 10718 bound_to 10713
  153.6464  135.3370  155.3087 H   0  0  0  0  0  0  0  0  0  0  0  0  # atno 10763 bound_to 10752
  154.8548  135.4330  154.1950 H   0  0  0  0  0  0  0  0  0  0  0  0  # atno 10764 bound_to 10752
  153.2882  135.7015  153.7393 H   0  0  0  0  0  0  0  0  0  0  0  0  # atno 10765 bound_to 10752
  140.6200  134.4760  157.5223 H   0  0  0  0  0  0  0  0  0  0  0  0  # atno 11005 bound_to 11000
  146.2001  140.6198  142.9106 LP  0  0  0  0  0  0  0  0  0  0  0  0  # atno 17320 bound_to 7965
  144.7592  140.5381  143.6747 LP  0  0  0  0  0  0  0  0  0  0  0  0  # atno 17321 bound_to 7965
  140.2057  143.3923  152.1757 LP  0  0  0  0  0  0  0  0  0  0  0  0  # atno 17342 bound_to 10162
  139.5328  144.7178  151.4996 LP  0  0  0  0  0  0  0  0  0  0  0  0  # atno 17343 bound_to 10162
  156.3465  130.3824  149.7365 LP  0  0  0  0  0  0  0  0  0  0  0  0  # atno 17370 bound_to 10713
  156.4856  130.8061  151.3074 LP  0  0  0  0  0  0  0  0  0  0  0  0  # atno 17371 bound_to 10713
  139.9157  134.8251  156.1375 LP  0  0  0  0  0  0  0  0  0  0  0  0  # atno 17394 bound_to 11000
  141.0749  133.6780  156.2215 LP  0  0  0  0  0  0  0  0  0  0  0  0  # atno 17395 bound_to 11000

$$$$
