AV-unprocessed.smi:1427|AV-procd|sdf|5810|dock6
  -GOLD-   22720 5463D 1   1.00000     0.00000
 Structure written by MMmdl.
 33 34  0  0  0  0  0  0  0  0  1 V2000
  147.2275  141.6606  155.8632 C   0  0  0  0  0  0  0  0  0  0  0  0
  148.6219  141.0198  155.8693 C   0  0  1  0  0  0  0  0  0  0  0  0
  148.9985  140.4758  154.4749 C   0  0  0  0  0  0  0  0  0  0  0  0
  150.1433  139.5820  154.5142 N   0  0  0  0  0  0  0  0  0  0  0  0
  150.1821  138.2285  154.2547 C   0  0  0  0  0  0  0  0  0  0  0  0
  151.4711  137.8167  154.4373 C   0  0  0  0  0  0  0  0  0  0  0  0
  152.1566  139.0067  154.8098 C   0  0  0  0  0  0  0  0  0  0  0  0
  151.3603  140.0625  154.8511 N   0  0  0  0  0  0  0  0  0  0  0  0
  149.6004  142.0084  156.3212 N   0  0  0  0  0  0  0  0  0  0  0  0
  150.4838  141.8367  157.3176 C   0  0  0  0  0  0  0  0  0  0  0  0
  150.5503  140.8093  157.9945 O   0  0  0  0  0  0  0  0  0  0  0  0
  151.4607  142.9966  157.5538 C   0  0  2  0  0  0  0  0  0  0  0  0
  152.3375  142.7423  158.8001 C   0  0  0  0  0  0  0  0  0  0  0  0
  152.3878  144.0752  159.5577 C   0  0  0  0  0  0  0  0  0  0  0  0
  151.2389  144.8573  158.9469 C   0  0  0  0  0  0  0  0  0  0  0  0
  150.8240  145.9204  159.4022 O   0  0  0  0  0  0  0  0  0  0  0  0
  150.7599  144.2298  157.8741 N   0  0  0  0  0  0  0  0  0  0  0  0
  146.4663  140.9387  155.5660 H   0  0  0  0  0  0  0  0  0  0  0  0
  147.1779  142.5007  155.1694 H   0  0  0  0  0  0  0  0  0  0  0  0
  146.9601  142.0294  156.8541 H   0  0  0  0  0  0  0  0  0  0  0  0
  148.5867  140.1829  156.5692 H   0  0  0  0  0  0  0  0  0  0  0  0
  148.1596  139.9221  154.0519 H   0  0  0  0  0  0  0  0  0  0  0  0
  149.2068  141.2964  153.7860 H   0  0  0  0  0  0  0  0  0  0  0  0
  149.2979  137.6763  153.9721 H   0  0  0  0  0  0  0  0  0  0  0  0
  151.8643  136.8175  154.3247 H   0  0  0  0  0  0  0  0  0  0  0  0
  153.2018  139.1341  155.0499 H   0  0  0  0  0  0  0  0  0  0  0  0
  149.6287  142.8810  155.8139 H   0  0  0  0  0  0  0  0  0  0  0  0
  152.0780  143.1688  156.6703 H   0  0  0  0  0  0  0  0  0  0  0  0
  151.9080  141.9779  159.4510 H   0  0  0  0  0  0  0  0  0  0  0  0
  153.3350  142.4007  158.5216 H   0  0  0  0  0  0  0  0  0  0  0  0
  152.2592  143.9453  160.6328 H   0  0  0  0  0  0  0  0  0  0  0  0
  153.3236  144.6042  159.3754 H   0  0  0  0  0  0  0  0  0  0  0  0
  149.9832  144.5670  157.3240 H   0  0  0  0  0  0  0  0  0  0  0  0
  1  2  1  0  0  0  0
  1 18  1  0  0  0  0
  1 19  1  0  0  0  0
  1 20  1  0  0  0  0
  2  3  1  0  0  0  0
  2  9  1  0  0  0  0
  2 21  1  0  0  0  0
  3  4  1  0  0  0  0
  3 22  1  0  0  0  0
  3 23  1  0  0  0  0
  4  8  1  0  0  0  0
  4  5  1  0  0  0  0
  5  6  2  0  0  0  0
  5 24  1  0  0  0  0
  6  7  1  0  0  0  0
  6 25  1  0  0  0  0
  7  8  2  0  0  0  0
  7 26  1  0  0  0  0
  9 10  1  0  0  0  0
  9 27  1  0  0  0  0
 10 11  2  0  0  0  0
 10 12  1  0  0  0  0
 12 17  1  0  0  0  0
 12 13  1  0  0  0  0
 12 28  1  0  0  0  0
 13 14  1  0  0  0  0
 13 29  1  0  0  0  0
 13 30  1  0  0  0  0
 14 15  1  0  0  0  0
 14 31  1  0  0  0  0
 14 32  1  0  0  0  0
 15 16  2  0  0  0  0
 15 17  1  0  0  0  0
 17 33  1  0  0  0  0
M  END
> <s_m_source_file>
AV-unprocessed.smi

> <i_m_source_file_index>
1427

> <i_lp_mmshare_version>
43012

> <i_f3d_flags>
0

> <s_epik_input>
bjFbY0hdW2NIXVtjSF1uMVtDSDJdW0NAQEhdKFtDSDNdKVtOSF1DKD1PKVtDQEBIXTJbQ0gyXVtDSDJdQyg9TylbTkhdMg==

> <s_epik_cmdline>
J2VwaWtfcHl0aG9uJywgJy1waCcsICc3LjAnLCAnLXRuJywgJzgnLCAnLW1hJywgJzIwMCcsICctbWV0YWxfYmluZGluZycsICctaW1hZScsICc8aW5maWxlLm1hZT4nLCAnLW9tYWUnLCAnPG91dGZpbGUubWFlPic=

> <r_lp_tautomer_probability>
1

> <r_epik_Ionization_Penalty>
0.000310707

> <r_epik_Ionization_Penalty_Charging>
0

> <r_epik_Ionization_Penalty_Neutral>
0.000310707

> <r_epik_State_Penalty>
-0

> <r_epik_Charging_Adjusted_Penalty>
0

> <i_epik_Tot_Q>
0

> <i_epik_Tot_abs_Q>
0

> <r_epik_Metal_State_Penalty>
-0

> <b_epik_Metal_Only>
0

> <s_lp_Force_Field>
OPLS_2005

> <r_lp_Energy>
14.2046

> <b_lp_Chiralities_Consistent>
1

> <s_lp_Variant>
AV-unprocessed.smi:1427-2

> <Gold.Version>
5.8.1

> <Gold.Id.Protein>
6NUR|6NUR_protein|mol2

> <Gold.PLP.Fitness>
47.6518

> <Gold.PLP.PLP>
-36.7192

> <Gold.PLP.part.hbond>
-4.9927

> <Gold.PLP.part.metal>
0.0000

> <Gold.PLP.part.buried>
-2.3509

> <Gold.PLP.part.nonpolar>
-29.8949

> <Gold.PLP.part.repulsive>
0.4054

> <Gold.PLP.ligand.clash>
0.0000

> <Gold.PLP.ligand.torsion>
0.2466

> <Gold.PLP.Chemscore.Hbond>
2.8960

> <Gold.PLP.Chemscore.CHOScore>
0.9009

> <Gold.PLP.Chemscore.Metal>
0.0000

> <Gold.Chemscore.Hbonds>
donor molecule, donor type, donor heavy atom, donor atom, acceptor molecule, acceptor atom, score
      L1  H     9    27       P1  8028  0.93
      L1  H    17    33       P1  8028  1.00
      P1  H  7989  7998       L1     8  0.90
      L1  C     5    24       P1  7948  0.86

> <Gold.PLP.Chemscore.Internal.Correction>
0.0349

> <Gold.Rescore>
     Score         DG    S(hbond)    S(metal)    S(lipo)     H(rot)  DE(clash)    DE(int)     intcor
     14.27     -15.38       2.11        0.00      65.51       1.88       0.82       0.29       ----

> <Gold.Chemscore.Fitness>
14.2696

> <Gold.Chemscore.DG>
-15.3832

> <Gold.Chemscore.ZeroCoef>
-5.4800

> <Gold.Chemscore.Hbond>
2.1128

> <Gold.Chemscore.Metal>
0.0000

> <Gold.Chemscore.Lipo>
65.5096

> <Gold.Chemscore.Internal_Hbond>
0.0000

> <Gold.Chemscore.DEClash>
0.8220

> <Gold.Chemscore.DEInternal>
0.2916

> <Gold.Chemscore.Rot>
1.8821

> <Gold.Chemscore.Internal.Correction>
   9.000000E+99

> <Gold.Chemscore.Hbonds>
donor molecule, donor type, donor heavy atom, donor atom, acceptor molecule, acceptor atom, score
      L1  H     9    27       P1  8028  0.87
      L1  H    17    33       P1  8028  0.25
      P1  H  7989  7998       L1     8  0.09

> <Gold.Chemscore.Hbond.Weighted>
-7.0566

> <Gold.Chemscore.Metal.Weighted>
-0.0000

> <Gold.Chemscore.Lipo.Weighted>
-7.6646

> <Gold.Chemscore.Internal_Hbond.Weighted>
0.0000

> <Gold.Chemscore.DEClash.Weighted>
0.8220

> <Gold.Chemscore.DEInternal.Weighted>
0.2916

> <Gold.Chemscore.Rot.Weighted>
4.8181

> <Gold.Chemscore.Internal.Correction.Weighted>
   9.000000E+99

> <Gold.Protein.RotatedTorsions>
[ 6907 6896 6895 6894 ] final -140.51 input  -60.11 | X-H torsion
[ 7974 7965 7964 7962 ] final  101.15 input  175.53 | X-H torsion
[ 8008 7997 7996 7995 ] final   88.75 input   59.86 | X-H torsion
[ 10167 10162 10161 10158 ] final   57.71 input  -65.29 | X-H torsion
[ 10718 10713 10712 10709 ] final -148.67 input   66.30 | X-H torsion
[ 10763 10752 10751 10750 ] final   42.16 input  -60.55 | X-H torsion
[ 11005 11000 10999 10996 ] final -158.67 input  -57.11 | X-H torsion

> <Gold.Protein.ActiveResidues>
 VAL166  LYS551  ARG553  GLY616  TRP617  ASP618  TYR619  PRO620  LYS621  CYS622 
 ASP623  PHE694  ASN695  SER759  ASP760  ASP761  ALA762  ILE779  LEU786  VAL792 
 PHE793  MET794  SER795  GLU796  ALA797  LYS798  CYS799  TRP800  GLU811  SER814 

> <Gold.Protein.RotatedAtoms>
  151.0616  133.5539  159.2633 H   0  0  0  0  0  0  0  0  0  0  0  0  # atno 6907 bound_to 6896
  151.2512  135.0622  159.9072 H   0  0  0  0  0  0  0  0  0  0  0  0  # atno 6908 bound_to 6896
  152.5398  134.0377  159.8107 H   0  0  0  0  0  0  0  0  0  0  0  0  # atno 6909 bound_to 6896
  145.3762  139.2388  143.3428 H   0  0  0  0  0  0  0  0  0  0  0  0  # atno 7974 bound_to 7965
  155.9916  140.3368  155.6759 H   0  0  0  0  0  0  0  0  0  0  0  0  # atno 8008 bound_to 7997
  155.6412  140.0695  157.2635 H   0  0  0  0  0  0  0  0  0  0  0  0  # atno 8009 bound_to 7997
  154.4221  140.1742  156.1563 H   0  0  0  0  0  0  0  0  0  0  0  0  # atno 8010 bound_to 7997
  140.1950  144.4046  150.6554 H   0  0  0  0  0  0  0  0  0  0  0  0  # atno 10167 bound_to 10162
  156.4233  130.8039  151.2263 H   0  0  0  0  0  0  0  0  0  0  0  0  # atno 10718 bound_to 10713
  152.9890  135.6140  154.2904 H   0  0  0  0  0  0  0  0  0  0  0  0  # atno 10763 bound_to 10752
  154.2629  135.2782  155.2772 H   0  0  0  0  0  0  0  0  0  0  0  0  # atno 10764 bound_to 10752
  154.5189  135.5820  153.6722 H   0  0  0  0  0  0  0  0  0  0  0  0  # atno 10765 bound_to 10752
  140.6510  134.4450  157.5235 H   0  0  0  0  0  0  0  0  0  0  0  0  # atno 11005 bound_to 11000
  146.2863  140.4421  142.8756 LP  0  0  0  0  0  0  0  0  0  0  0  0  # atno 17320 bound_to 7965
  144.8541  140.7044  143.6149 LP  0  0  0  0  0  0  0  0  0  0  0  0  # atno 17321 bound_to 7965
  140.6429  143.2207  151.6249 LP  0  0  0  0  0  0  0  0  0  0  0  0  # atno 17342 bound_to 10162
  139.5240  144.3116  152.0988 LP  0  0  0  0  0  0  0  0  0  0  0  0  # atno 17343 bound_to 10162
  157.7508  131.0221  150.3779 LP  0  0  0  0  0  0  0  0  0  0  0  0  # atno 17370 bound_to 10713
  156.4101  130.3932  149.6898 LP  0  0  0  0  0  0  0  0  0  0  0  0  # atno 17371 bound_to 10713
  139.9046  134.8479  156.1758 LP  0  0  0  0  0  0  0  0  0  0  0  0  # atno 17394 bound_to 11000
  141.0536  133.6876  156.1819 LP  0  0  0  0  0  0  0  0  0  0  0  0  # atno 17395 bound_to 11000

$$$$
