AV-unprocessed.smi:1726|AV-procd|sdf|6963|dock1
  -GOLD-   22720 8173D 1   1.00000     0.00000
 Structure written by MMmdl.
 42 43  0  0  0  0  0  0  0  0  3 V2000
  145.5253  132.8537  151.4452 C   0  0  0  0  0  0  0  0  0  0  0  0
  146.5993  133.8854  151.0701 C   0  0  0  0  0  0  0  0  0  0  0  0
  146.5120  135.1154  151.8957 N   0  3  1  0  0  0  0  0  0  0  0  0
  145.5761  136.1192  151.3253 C   0  0  0  0  0  0  0  0  0  0  0  0
  145.6232  137.4396  152.1155 C   0  0  0  0  0  0  0  0  0  0  0  0
  145.3755  137.2088  153.6165 C   0  0  0  0  0  0  0  0  0  0  0  0
  146.3246  136.1315  154.1715 C   0  0  2  0  0  0  0  0  0  0  0  0
  147.6973  136.6379  154.1821 N   0  0  0  0  0  0  0  0  0  0  0  0
  148.1507  137.6460  154.9403 C   0  0  0  0  0  0  0  0  0  0  0  0
  147.4332  138.2843  155.7099 O   0  0  0  0  0  0  0  0  0  0  0  0
  149.4726  137.8175  154.7632 N   0  0  0  0  0  0  0  0  0  0  0  0
  150.3415  138.7319  155.3813 C   0  0  0  0  0  0  0  0  0  0  0  0
  149.9452  139.7770  156.1592 C   0  0  0  0  0  0  0  0  0  0  0  0
  150.8955  140.6983  156.7694 C   0  0  0  0  0  0  0  0  0  0  0  0
  150.4879  141.9159  157.5800 C   0  0  0  0  0  0  0  0  0  0  0  0
  150.9099  143.0254  156.9749 F   0  0  0  0  0  0  0  0  0  0  0  0
  149.1622  141.9878  157.7032 F   0  0  0  0  0  0  0  0  0  0  0  0
  151.0222  141.8787  158.8009 F   0  0  0  0  0  0  0  0  0  0  0  0
  152.2029  140.3994  156.4377 C   0  0  0  0  0  0  0  0  0  0  0  0
  152.6783  139.3839  155.6839 N   0  5  0  0  0  0  0  0  0  0  0  0
  151.7815  138.5229  155.1259 C   0  0  0  0  0  0  0  0  0  0  0  0
  152.1448  137.5801  154.4213 O   0  0  0  0  0  0  0  0  0  0  0  0
  146.1985  134.8461  153.3241 C   0  0  0  0  0  0  0  0  0  0  0  0
  145.6726  131.9277  150.8889 H   0  0  0  0  0  0  0  0  0  0  0  0
  144.5190  133.2065  151.2218 H   0  0  0  0  0  0  0  0  0  0  0  0
  145.5677  132.6101  152.5073 H   0  0  0  0  0  0  0  0  0  0  0  0
  147.5732  133.4187  151.2238 H   0  0  0  0  0  0  0  0  0  0  0  0
  146.5413  134.1383  150.0104 H   0  0  0  0  0  0  0  0  0  0  0  0
  145.8353  136.3182  150.2847 H   0  0  0  0  0  0  0  0  0  0  0  0
  144.5626  135.7145  151.3281 H   0  0  0  0  0  0  0  0  0  0  0  0
  146.5940  137.9152  151.9709 H   0  0  0  0  0  0  0  0  0  0  0  0
  144.8825  138.1352  151.7202 H   0  0  0  0  0  0  0  0  0  0  0  0
  145.4908  138.1429  154.1679 H   0  0  0  0  0  0  0  0  0  0  0  0
  144.3426  136.8913  153.7657 H   0  0  0  0  0  0  0  0  0  0  0  0
  146.0350  135.9122  155.2007 H   0  0  0  0  0  0  0  0  0  0  0  0
  148.3566  136.1758  153.5725 H   0  0  0  0  0  0  0  0  0  0  0  0
  149.9326  137.1680  154.1420 H   0  0  0  0  0  0  0  0  0  0  0  0
  148.8997  139.9675  156.3380 H   0  0  0  0  0  0  0  0  0  0  0  0
  152.9845  141.0811  156.8358 H   0  0  0  0  0  0  0  0  0  0  0  0
  145.1870  134.4445  153.4029 H   0  0  0  0  0  0  0  0  0  0  0  0
  146.8592  134.0775  153.7226 H   0  0  0  0  0  0  0  0  0  0  0  0
  147.4294  135.5376  151.8721 H   0  0  0  0  0  0  0  0  0  0  0  0
  1  2  1  0  0  0  0
  1 24  1  0  0  0  0
  1 25  1  0  0  0  0
  1 26  1  0  0  0  0
  2  3  1  0  0  0  0
  2 27  1  0  0  0  0
  2 28  1  0  0  0  0
  3 23  1  0  0  0  0
  3  4  1  0  0  0  0
  3 42  1  0  0  0  0
  4  5  1  0  0  0  0
  4 29  1  0  0  0  0
  4 30  1  0  0  0  0
  5  6  1  0  0  0  0
  5 31  1  0  0  0  0
  5 32  1  0  0  0  0
  6  7  1  0  0  0  0
  6 33  1  0  0  0  0
  6 34  1  0  0  0  0
  7  8  1  0  0  0  0
  7 23  1  0  0  0  0
  7 35  1  0  0  0  0
  8  9  1  0  0  0  0
  8 36  1  0  0  0  0
  9 10  2  0  0  0  0
  9 11  1  0  0  0  0
 11 12  1  0  0  0  0
 11 37  1  0  0  0  0
 12 21  1  0  0  0  0
 12 13  2  0  0  0  0
 13 14  1  0  0  0  0
 13 38  1  0  0  0  0
 14 15  1  0  0  0  0
 14 19  2  0  0  0  0
 15 16  1  0  0  0  0
 15 17  1  0  0  0  0
 15 18  1  0  0  0  0
 19 20  1  0  0  0  0
 19 39  1  0  0  0  0
 20 21  1  0  0  0  0
 21 22  2  0  0  0  0
 23 40  1  0  0  0  0
 23 41  1  0  0  0  0
M  CHG  1   3   1
M  CHG  1  20  -1
M  END
> <s_m_source_file>
AV-unprocessed.smi

> <i_m_source_file_index>
1726

> <i_lp_mmshare_version>
43012

> <i_f3d_flags>
0

> <s_epik_input>
W0NIM11bQ0gyXU4xW0NIMl1bQ0gyXVtDSDJdW0NASF0oW0NIMl0xKVtOSF1DKD1PKVtOSF1jMltjSF1jKEMoRikoRilGKVtjSF1bbkhdYzI9Tw==

> <s_epik_cmdline>
J2VwaWtfcHl0aG9uJywgJy1waCcsICc3LjAnLCAnLXRuJywgJzgnLCAnLW1hJywgJzIwMCcsICctbWV0YWxfYmluZGluZycsICctaW1hZScsICc8aW5maWxlLm1hZT4nLCAnLW9tYWUnLCAnPG91dGZpbGUubWFlPic=

> <r_lp_tautomer_probability>
1

> <r_epik_Ionization_Penalty>
3.01007

> <r_epik_Ionization_Penalty_Charging>
0.14897

> <r_epik_Ionization_Penalty_Neutral>
2.8611

> <r_epik_State_Penalty>
2.85632

> <r_epik_Charging_Adjusted_Penalty>
3.00529

> <i_epik_Tot_Q>
0

> <i_epik_Tot_abs_Q>
2

> <r_epik_Metal_State_Penalty>
0.443826

> <b_epik_Metal_Only>
1

> <s_lp_Force_Field>
OPLS_2005

> <r_lp_Energy>
34.1377

> <b_lp_Chiralities_Consistent>
1

> <s_lp_Variant>
AV-unprocessed.smi:1726-7

> <Gold.Version>
5.8.1

> <Gold.Id.Protein>
6NUR|6NUR_protein|mol2

> <Gold.PLP.Fitness>
41.1615

> <Gold.PLP.PLP>
-28.8369

> <Gold.PLP.part.hbond>
-4.0000

> <Gold.PLP.part.metal>
0.0000

> <Gold.PLP.part.buried>
-3.0434

> <Gold.PLP.part.nonpolar>
-22.2800

> <Gold.PLP.part.repulsive>
0.1863

> <Gold.PLP.ligand.clash>
0.0000

> <Gold.PLP.ligand.torsion>
0.3509

> <Gold.PLP.Chemscore.Hbond>
4.3160

> <Gold.PLP.Chemscore.CHOScore>
0.0000

> <Gold.PLP.Chemscore.Metal>
0.0000

> <Gold.Chemscore.Hbonds>
donor molecule, donor type, donor heavy atom, donor atom, acceptor molecule, acceptor atom, score
      L1  H     3    42       P1  7948  2.00
      L1  H     8    36       P1  7948  0.83
      P1  H  7997  8010       L1    20  0.70
      P1  H 10752 10765       L1    22  0.72

> <Gold.PLP.Chemscore.Internal.Correction>
0.0784

> <Gold.Rescore>
     Score         DG    S(hbond)    S(metal)    S(lipo)     H(rot)  DE(clash)    DE(int)     intcor
     15.95     -18.01       2.72        0.00      57.34       1.28       0.39       1.66       ----

> <Gold.Chemscore.Fitness>
15.9545

> <Gold.Chemscore.DG>
-18.0106

> <Gold.Chemscore.ZeroCoef>
-5.4800

> <Gold.Chemscore.Hbond>
2.7240

> <Gold.Chemscore.Metal>
0.0000

> <Gold.Chemscore.Lipo>
57.3356

> <Gold.Chemscore.Internal_Hbond>
0.0000

> <Gold.Chemscore.DEClash>
0.3917

> <Gold.Chemscore.DEInternal>
1.6644

> <Gold.Chemscore.Rot>
1.2796

> <Gold.Chemscore.Internal.Correction>
   9.000000E+99

> <Gold.Chemscore.Hbonds>
donor molecule, donor type, donor heavy atom, donor atom, acceptor molecule, acceptor atom, score
      L1  H     3    42       P1  7948  0.99
      L1  H     8    36       P1  7948  0.81
      P1  H  7997  8010       L1    20  0.01
      P1  H 10752 10765       L1    22  0.69

> <Gold.Chemscore.Hbond.Weighted>
-9.0982

> <Gold.Chemscore.Metal.Weighted>
-0.0000

> <Gold.Chemscore.Lipo.Weighted>
-6.7083

> <Gold.Chemscore.Internal_Hbond.Weighted>
0.0000

> <Gold.Chemscore.DEClash.Weighted>
0.3917

> <Gold.Chemscore.DEInternal.Weighted>
1.6644

> <Gold.Chemscore.Rot.Weighted>
3.2759

> <Gold.Chemscore.Internal.Correction.Weighted>
   9.000000E+99

> <Gold.Protein.RotatedTorsions>
[ 6907 6896 6895 6894 ] final  147.78 input  -60.11 | X-H torsion
[ 7974 7965 7964 7962 ] final -154.17 input  175.53 | X-H torsion
[ 8008 7997 7996 7995 ] final  106.10 input   59.86 | X-H torsion
[ 10167 10162 10161 10158 ] final  179.64 input  -65.29 | X-H torsion
[ 10718 10713 10712 10709 ] final  -20.33 input   66.30 | X-H torsion
[ 10763 10752 10751 10750 ] final  164.64 input  -60.55 | X-H torsion
[ 11005 11000 10999 10996 ] final -124.26 input  -57.11 | X-H torsion

> <Gold.Protein.ActiveResidues>
 VAL166  LYS551  ARG553  GLY616  TRP617  ASP618  TYR619  PRO620  LYS621  CYS622 
 ASP623  PHE694  ASN695  SER759  ASP760  ASP761  ALA762  ILE779  LEU786  VAL792 
 PHE793  MET794  SER795  GLU796  ALA797  LYS798  CYS799  TRP800  GLU811  SER814 

> <Gold.Protein.RotatedAtoms>
  152.1502  133.4517  159.4809 H   0  0  0  0  0  0  0  0  0  0  0  0  # atno 6907 bound_to 6896
  150.6895  134.2198  159.4401 H   0  0  0  0  0  0  0  0  0  0  0  0  # atno 6908 bound_to 6896
  152.0095  134.9884  160.0618 H   0  0  0  0  0  0  0  0  0  0  0  0  # atno 6909 bound_to 6896
  144.7703  140.4425  143.5912 H   0  0  0  0  0  0  0  0  0  0  0  0  # atno 7974 bound_to 7965
  156.1715  140.3119  155.8982 H   0  0  0  0  0  0  0  0  0  0  0  0  # atno 8008 bound_to 7997
  155.3577  140.0474  157.3063 H   0  0  0  0  0  0  0  0  0  0  0  0  # atno 8009 bound_to 7997
  154.5246  140.2210  155.8925 H   0  0  0  0  0  0  0  0  0  0  0  0  # atno 8010 bound_to 7997
  139.5345  144.2537  152.0764 H   0  0  0  0  0  0  0  0  0  0  0  0  # atno 10167 bound_to 10162
  156.5334  130.4660  149.6535 H   0  0  0  0  0  0  0  0  0  0  0  0  # atno 10718 bound_to 10713
  154.3120  135.2757  155.2561 H   0  0  0  0  0  0  0  0  0  0  0  0  # atno 10763 bound_to 10752
  154.4953  135.5823  153.6493 H   0  0  0  0  0  0  0  0  0  0  0  0  # atno 10764 bound_to 10752
  152.9887  135.6144  154.3297 H   0  0  0  0  0  0  0  0  0  0  0  0  # atno 10765 bound_to 10752
  140.9855  134.0613  157.3716 H   0  0  0  0  0  0  0  0  0  0  0  0  # atno 11005 bound_to 11000
  145.6345  139.1541  143.2950 LP  0  0  0  0  0  0  0  0  0  0  0  0  # atno 17320 bound_to 7965
  146.1844  140.6446  142.9174 LP  0  0  0  0  0  0  0  0  0  0  0  0  # atno 17321 bound_to 7965
  140.2005  144.4662  150.6434 LP  0  0  0  0  0  0  0  0  0  0  0  0  # atno 17342 bound_to 10162
  140.6544  143.2233  151.6004 LP  0  0  0  0  0  0  0  0  0  0  0  0  # atno 17343 bound_to 10162
  156.3039  130.7192  151.2069 LP  0  0  0  0  0  0  0  0  0  0  0  0  # atno 17370 bound_to 10713
  157.7418  131.0499  150.5072 LP  0  0  0  0  0  0  0  0  0  0  0  0  # atno 17371 bound_to 10713
  139.8968  135.0148  156.7072 LP  0  0  0  0  0  0  0  0  0  0  0  0  # atno 17394 bound_to 11000
  140.7121  133.9214  155.8091 LP  0  0  0  0  0  0  0  0  0  0  0  0  # atno 17395 bound_to 11000

$$$$
