AV-unprocessed.smi:1584|AV-procd|sdf|6366|dock5
  -GOLD-   22720 6593D 1   1.00000     0.00000
 Structure written by MMmdl.
 39 40  0  0  0  0  0  0  0  0  1 V2000
  150.3835  141.6768  156.0455 C   0  0  0  0  0  0  0  0  0  0  0  0
  151.4376  141.0233  156.9492 C   0  0  1  0  0  0  0  0  0  0  0  0
  151.2282  141.4121  158.4294 C   0  0  0  0  0  0  0  0  0  0  0  0
  151.5341  142.8071  158.6957 N   0  0  0  0  0  0  0  0  0  0  0  0
  151.2924  143.9050  157.8966 C   0  0  0  0  0  0  0  0  0  0  0  0
  151.7308  145.0056  158.5751 C   0  0  0  0  0  0  0  0  0  0  0  0
  152.2375  144.4717  159.7930 C   0  0  0  0  0  0  0  0  0  0  0  0
  152.1236  143.1551  159.8598 N   0  0  0  0  0  0  0  0  0  0  0  0
  151.3742  139.5718  156.7814 N   0  0  0  0  0  0  0  0  0  0  0  0
  151.4501  138.9153  155.6125 C   0  0  0  0  0  0  0  0  0  0  0  0
  151.5250  139.4838  154.5226 O   0  0  0  0  0  0  0  0  0  0  0  0
  151.4586  137.3793  155.6907 C   0  0  2  0  0  0  0  0  0  0  0  0
  150.2331  136.7530  155.0101 C   0  0  0  0  0  0  0  0  0  0  0  0
  148.9550  136.9653  155.8327 C   0  0  0  0  0  0  0  0  0  0  0  0
  149.1185  136.6211  157.2507 N   0  0  0  0  0  0  0  0  0  0  0  0
  147.8704  136.3675  157.9727 C   0  0  0  0  0  0  0  0  0  0  0  0
  150.3061  136.5866  157.9029 C   0  0  0  0  0  0  0  0  0  0  0  0
  150.3885  136.3231  159.1032 O   0  0  0  0  0  0  0  0  0  0  0  0
  151.6160  136.8631  157.1395 C   0  0  0  0  0  0  0  0  0  0  0  0
  150.4203  142.7638  156.1238 H   0  0  0  0  0  0  0  0  0  0  0  0
  149.3756  141.3582  156.3138 H   0  0  0  0  0  0  0  0  0  0  0  0
  150.5481  141.4179  154.9991 H   0  0  0  0  0  0  0  0  0  0  0  0
  152.4120  141.3926  156.6237 H   0  0  0  0  0  0  0  0  0  0  0  0
  150.1927  141.2325  158.7222 H   0  0  0  0  0  0  0  0  0  0  0  0
  151.8459  140.7899  159.0786 H   0  0  0  0  0  0  0  0  0  0  0  0
  150.8246  143.8134  156.9276 H   0  0  0  0  0  0  0  0  0  0  0  0
  151.6930  146.0353  158.2525 H   0  0  0  0  0  0  0  0  0  0  0  0
  152.6821  144.9981  160.6246 H   0  0  0  0  0  0  0  0  0  0  0  0
  151.3055  139.0216  157.6252 H   0  0  0  0  0  0  0  0  0  0  0  0
  152.3392  137.0463  155.1383 H   0  0  0  0  0  0  0  0  0  0  0  0
  150.1000  137.1568  154.0054 H   0  0  0  0  0  0  0  0  0  0  0  0
  150.4045  135.6831  154.8841 H   0  0  0  0  0  0  0  0  0  0  0  0
  148.6336  138.0055  155.7683 H   0  0  0  0  0  0  0  0  0  0  0  0
  148.1543  136.3695  155.3926 H   0  0  0  0  0  0  0  0  0  0  0  0
  147.7781  137.0327  158.8326 H   0  0  0  0  0  0  0  0  0  0  0  0
  147.8397  135.3383  158.3322 H   0  0  0  0  0  0  0  0  0  0  0  0
  146.9912  136.5271  157.3475 H   0  0  0  0  0  0  0  0  0  0  0  0
  152.1666  135.9222  157.1137 H   0  0  0  0  0  0  0  0  0  0  0  0
  152.2306  137.5442  157.7305 H   0  0  0  0  0  0  0  0  0  0  0  0
  1  2  1  0  0  0  0
  1 20  1  0  0  0  0
  1 21  1  0  0  0  0
  1 22  1  0  0  0  0
  2  3  1  0  0  0  0
  2  9  1  0  0  0  0
  2 23  1  0  0  0  0
  3  4  1  0  0  0  0
  3 24  1  0  0  0  0
  3 25  1  0  0  0  0
  4  8  1  0  0  0  0
  4  5  1  0  0  0  0
  5  6  2  0  0  0  0
  5 26  1  0  0  0  0
  6  7  1  0  0  0  0
  6 27  1  0  0  0  0
  7  8  2  0  0  0  0
  7 28  1  0  0  0  0
  9 10  1  0  0  0  0
  9 29  1  0  0  0  0
 10 11  2  0  0  0  0
 10 12  1  0  0  0  0
 12 19  1  0  0  0  0
 12 13  1  0  0  0  0
 12 30  1  0  0  0  0
 13 14  1  0  0  0  0
 13 31  1  0  0  0  0
 13 32  1  0  0  0  0
 14 15  1  0  0  0  0
 14 33  1  0  0  0  0
 14 34  1  0  0  0  0
 15 16  1  0  0  0  0
 15 17  1  0  0  0  0
 16 35  1  0  0  0  0
 16 36  1  0  0  0  0
 16 37  1  0  0  0  0
 17 18  2  0  0  0  0
 17 19  1  0  0  0  0
 19 38  1  0  0  0  0
 19 39  1  0  0  0  0
M  END
> <s_m_source_file>
AV-unprocessed.smi

> <i_m_source_file_index>
1584

> <i_lp_mmshare_version>
43012

> <i_f3d_flags>
0

> <s_epik_input>
bjFbY0hdW2NIXVtjSF1uMVtDSDJdW0NAQEhdKFtDSDNdKVtOSF1DKD1PKVtDQEBIXTJbQ0gyXVtDSDJdTihbQ0gzXSlDKD1PKVtDSDJdMg==

> <s_epik_cmdline>
J2VwaWtfcHl0aG9uJywgJy1waCcsICc3LjAnLCAnLXRuJywgJzgnLCAnLW1hJywgJzIwMCcsICctbWV0YWxfYmluZGluZycsICctaW1hZScsICc8aW5maWxlLm1hZT4nLCAnLW9tYWUnLCAnPG91dGZpbGUubWFlPic=

> <r_lp_tautomer_probability>
1

> <r_epik_Ionization_Penalty>
0.000299422

> <r_epik_Ionization_Penalty_Charging>
0

> <r_epik_Ionization_Penalty_Neutral>
0.000299422

> <r_epik_State_Penalty>
-0

> <r_epik_Charging_Adjusted_Penalty>
0

> <i_epik_Tot_Q>
0

> <i_epik_Tot_abs_Q>
0

> <r_epik_Metal_State_Penalty>
-0

> <b_epik_Metal_Only>
0

> <s_lp_Force_Field>
OPLS_2005

> <r_lp_Energy>
11.5075

> <b_lp_Chiralities_Consistent>
1

> <s_lp_Variant>
AV-unprocessed.smi:1584-2

> <Gold.Version>
5.8.1

> <Gold.Id.Protein>
6NUR|6NUR_protein|mol2

> <Gold.PLP.Fitness>
38.6170

> <Gold.PLP.PLP>
-30.8490

> <Gold.PLP.part.hbond>
-2.0000

> <Gold.PLP.part.metal>
0.0000

> <Gold.PLP.part.buried>
-5.9244

> <Gold.PLP.part.nonpolar>
-23.8596

> <Gold.PLP.part.repulsive>
0.1646

> <Gold.PLP.ligand.clash>
0.2571

> <Gold.PLP.ligand.torsion>
0.5137

> <Gold.PLP.Chemscore.Hbond>
2.0000

> <Gold.PLP.Chemscore.CHOScore>
1.0000

> <Gold.PLP.Chemscore.Metal>
0.0000

> <Gold.Chemscore.Hbonds>
donor molecule, donor type, donor heavy atom, donor atom, acceptor molecule, acceptor atom, score
      P1  H  6896  6908       L1    18  0.94
      P1  H  7989  7998       L1    11  1.00
      L1  C     5    26       P1  8028  1.00

> <Gold.PLP.Chemscore.Internal.Correction>
0.0524

> <Gold.Rescore>
     Score         DG    S(hbond)    S(metal)    S(lipo)     H(rot)  DE(clash)    DE(int)     intcor
     15.23     -16.88       1.97        0.00      77.74       1.67       0.01       1.64       ----

> <Gold.Chemscore.Fitness>
15.2276

> <Gold.Chemscore.DG>
-16.8779

> <Gold.Chemscore.ZeroCoef>
-5.4800

> <Gold.Chemscore.Hbond>
1.9720

> <Gold.Chemscore.Metal>
0.0000

> <Gold.Chemscore.Lipo>
77.7383

> <Gold.Chemscore.Internal_Hbond>
0.0000

> <Gold.Chemscore.DEClash>
0.0067

> <Gold.Chemscore.DEInternal>
1.6436

> <Gold.Chemscore.Rot>
1.6734

> <Gold.Chemscore.Internal.Correction>
   9.000000E+99

> <Gold.Chemscore.Hbonds>
donor molecule, donor type, donor heavy atom, donor atom, acceptor molecule, acceptor atom, score
      P1  H  6896  6908       L1    18  0.90
      P1  H  7989  7998       L1    11  0.99

> <Gold.Chemscore.Hbond.Weighted>
-6.5866

> <Gold.Chemscore.Metal.Weighted>
-0.0000

> <Gold.Chemscore.Lipo.Weighted>
-9.0954

> <Gold.Chemscore.Internal_Hbond.Weighted>
0.0000

> <Gold.Chemscore.DEClash.Weighted>
0.0067

> <Gold.Chemscore.DEInternal.Weighted>
1.6436

> <Gold.Chemscore.Rot.Weighted>
4.2840

> <Gold.Chemscore.Internal.Correction.Weighted>
   9.000000E+99

> <Gold.Protein.RotatedTorsions>
[ 6907 6896 6895 6894 ] final -177.38 input  -60.11 | X-H torsion
[ 7974 7965 7964 7962 ] final   12.44 input  175.53 | X-H torsion
[ 8008 7997 7996 7995 ] final   64.93 input   59.86 | X-H torsion
[ 10167 10162 10161 10158 ] final -108.38 input  -65.29 | X-H torsion
[ 10718 10713 10712 10709 ] final   44.92 input   66.30 | X-H torsion
[ 10763 10752 10751 10750 ] final   69.71 input  -60.55 | X-H torsion
[ 11005 11000 10999 10996 ] final  135.33 input  -57.11 | X-H torsion

> <Gold.Protein.ActiveResidues>
 VAL166  LYS551  ARG553  GLY616  TRP617  ASP618  TYR619  PRO620  LYS621  CYS622 
 ASP623  PHE694  ASN695  SER759  ASP760  ASP761  ALA762  ILE779  LEU786  VAL792 
 PHE793  MET794  SER795  GLU796  ALA797  LYS798  CYS799  TRP800  GLU811  SER814 

> <Gold.Protein.RotatedAtoms>
  151.6201  133.3340  159.3085 H   0  0  0  0  0  0  0  0  0  0  0  0  # atno 6907 bound_to 6896
  150.8110  134.7269  159.6699 H   0  0  0  0  0  0  0  0  0  0  0  0  # atno 6908 bound_to 6896
  152.4207  134.5965  160.0040 H   0  0  0  0  0  0  0  0  0  0  0  0  # atno 6909 bound_to 6896
  146.2351  139.9337  142.8493 H   0  0  0  0  0  0  0  0  0  0  0  0  # atno 7974 bound_to 7965
  155.6538  140.3497  155.4758 H   0  0  0  0  0  0  0  0  0  0  0  0  # atno 8008 bound_to 7997
  155.9825  140.1177  157.0736 H   0  0  0  0  0  0  0  0  0  0  0  0  # atno 8009 bound_to 7997
  154.4196  140.1135  156.5442 H   0  0  0  0  0  0  0  0  0  0  0  0  # atno 8010 bound_to 7997
  140.1668  143.4075  152.1384 H   0  0  0  0  0  0  0  0  0  0  0  0  # atno 10167 bound_to 10162
  157.4320  130.8030  149.7612 H   0  0  0  0  0  0  0  0  0  0  0  0  # atno 10718 bound_to 10713
  153.0301  135.5201  154.7329 H   0  0  0  0  0  0  0  0  0  0  0  0  # atno 10763 bound_to 10752
  154.6352  135.2905  155.0172 H   0  0  0  0  0  0  0  0  0  0  0  0  # atno 10764 bound_to 10752
  154.1110  135.6622  153.4937 H   0  0  0  0  0  0  0  0  0  0  0  0  # atno 10765 bound_to 10752
  139.9972  134.9492  156.9992 H   0  0  0  0  0  0  0  0  0  0  0  0  # atno 11005 bound_to 11000
  145.2019  140.9858  143.4150 LP  0  0  0  0  0  0  0  0  0  0  0  0  # atno 17320 bound_to 7965
  144.9766  139.3826  143.6283 LP  0  0  0  0  0  0  0  0  0  0  0  0  # atno 17321 bound_to 7965
  139.5356  144.7206  151.4905 LP  0  0  0  0  0  0  0  0  0  0  0  0  # atno 17342 bound_to 10162
  140.6608  143.8503  150.6885 LP  0  0  0  0  0  0  0  0  0  0  0  0  # atno 17343 bound_to 10162
  155.9917  130.3936  150.2975 LP  0  0  0  0  0  0  0  0  0  0  0  0  # atno 17370 bound_to 10713
  157.1132  131.0227  151.3039 LP  0  0  0  0  0  0  0  0  0  0  0  0  # atno 17371 bound_to 10713
  140.4795  134.1304  155.7215 LP  0  0  0  0  0  0  0  0  0  0  0  0  # atno 17394 bound_to 11000
  141.1614  133.8786  157.1837 LP  0  0  0  0  0  0  0  0  0  0  0  0  # atno 17395 bound_to 11000

$$$$
