AV-unprocessed.smi:3004|AV-procd|sdf|11440|dock6
  -GOLD-   2272016373D 1   1.00000     0.00000
 Structure written by MMmdl.
 47 48  0  0  0  0  0  0  0  0  2 V2000
  148.2098  140.8252  153.7207 C   0  0  0  0  0  0  0  0  0  0  0  0
  149.3369  140.1699  154.4627 C   0  0  0  0  0  0  0  0  0  0  0  0
  150.1627  140.7232  155.4808 C   0  0  0  0  0  0  0  0  0  0  0  0
  151.0233  139.7125  155.8046 C   0  0  0  0  0  0  0  0  0  0  0  0
  152.1301  139.6735  156.8067 C   0  0  0  0  0  0  0  0  0  0  0  0
  150.6950  138.6338  155.0024 N   0  0  0  0  0  0  0  0  0  0  0  0
  151.2975  137.3098  154.9507 C   0  0  0  0  0  0  0  0  0  0  0  0
  150.3038  136.2232  155.3667 C   0  0  0  0  0  0  0  0  0  0  0  0
  149.8178  136.2336  156.4975 O   0  0  0  0  0  0  0  0  0  0  0  0
  150.0070  135.2919  154.4465 N   0  0  0  0  0  0  0  0  0  0  0  0
  149.0691  134.1936  154.6400 C   0  0  0  0  0  0  0  0  0  0  0  0
  147.6108  134.6617  154.4616 C   0  0  0  0  0  0  0  0  0  0  0  0
  147.1153  134.5317  153.0644 N   0  3  1  0  0  0  0  0  0  0  0  0
  147.1272  133.1182  152.5984 C   0  0  0  0  0  0  0  0  0  0  0  0
  146.8302  133.0202  151.0937 C   0  0  0  0  0  0  0  0  0  0  0  0
  145.4985  133.6959  150.7500 C   0  0  0  0  0  0  0  0  0  0  0  0
  145.5038  135.1447  151.2567 C   0  0  0  0  0  0  0  0  0  0  0  0
  145.8285  135.2358  152.7634 C   0  0  1  0  0  0  0  0  0  0  0  0
  144.6476  134.7707  153.6426 C   0  0  0  0  0  0  0  0  0  0  0  0
  149.6588  138.9178  154.1830 N   0  0  0  0  0  0  0  0  0  0  0  0
  147.9801  141.8058  154.1385 H   0  0  0  0  0  0  0  0  0  0  0  0
  147.3023  140.2234  153.7703 H   0  0  0  0  0  0  0  0  0  0  0  0
  148.4619  140.9639  152.6692 H   0  0  0  0  0  0  0  0  0  0  0  0
  150.1296  141.7150  155.9075 H   0  0  0  0  0  0  0  0  0  0  0  0
  152.2161  140.6265  157.3289 H   0  0  0  0  0  0  0  0  0  0  0  0
  153.0854  139.4688  156.3233 H   0  0  0  0  0  0  0  0  0  0  0  0
  151.9528  138.8986  157.5525 H   0  0  0  0  0  0  0  0  0  0  0  0
  151.6569  137.1099  153.9399 H   0  0  0  0  0  0  0  0  0  0  0  0
  152.1692  137.2933  155.6059 H   0  0  0  0  0  0  0  0  0  0  0  0
  150.4549  135.3614  153.5436 H   0  0  0  0  0  0  0  0  0  0  0  0
  149.3253  133.4307  153.9058 H   0  0  0  0  0  0  0  0  0  0  0  0
  149.2136  133.7464  155.6251 H   0  0  0  0  0  0  0  0  0  0  0  0
  146.9748  134.0474  155.1003 H   0  0  0  0  0  0  0  0  0  0  0  0
  147.4875  135.6847  154.8175 H   0  0  0  0  0  0  0  0  0  0  0  0
  148.1065  132.6779  152.7898 H   0  0  0  0  0  0  0  0  0  0  0  0
  146.4080  132.5289  153.1681 H   0  0  0  0  0  0  0  0  0  0  0  0
  147.6364  133.4921  150.5302 H   0  0  0  0  0  0  0  0  0  0  0  0
  146.8082  131.9746  150.7849 H   0  0  0  0  0  0  0  0  0  0  0  0
  145.3352  133.6763  149.6720 H   0  0  0  0  0  0  0  0  0  0  0  0
  144.6727  133.1425  151.1982 H   0  0  0  0  0  0  0  0  0  0  0  0
  146.2481  135.7123  150.6959 H   0  0  0  0  0  0  0  0  0  0  0  0
  144.5440  135.6176  151.0455 H   0  0  0  0  0  0  0  0  0  0  0  0
  145.9747  136.2962  152.9657 H   0  0  0  0  0  0  0  0  0  0  0  0
  143.7338  135.2984  153.3680 H   0  0  0  0  0  0  0  0  0  0  0  0
  144.8214  134.9777  154.6982 H   0  0  0  0  0  0  0  0  0  0  0  0
  144.4483  133.7043  153.5401 H   0  0  0  0  0  0  0  0  0  0  0  0
  147.8100  134.9961  152.4969 H   0  0  0  0  0  0  0  0  0  0  0  0
  1  2  1  0  0  0  0
  1 21  1  0  0  0  0
  1 22  1  0  0  0  0
  1 23  1  0  0  0  0
  2 20  2  0  0  0  0
  2  3  1  0  0  0  0
  3  4  2  0  0  0  0
  3 24  1  0  0  0  0
  4  5  1  0  0  0  0
  4  6  1  0  0  0  0
  5 25  1  0  0  0  0
  5 26  1  0  0  0  0
  5 27  1  0  0  0  0
  6  7  1  0  0  0  0
  6 20  1  0  0  0  0
  7  8  1  0  0  0  0
  7 28  1  0  0  0  0
  7 29  1  0  0  0  0
  8  9  2  0  0  0  0
  8 10  1  0  0  0  0
 10 11  1  0  0  0  0
 10 30  1  0  0  0  0
 11 12  1  0  0  0  0
 11 31  1  0  0  0  0
 11 32  1  0  0  0  0
 12 13  1  0  0  0  0
 12 33  1  0  0  0  0
 12 34  1  0  0  0  0
 13 18  1  0  0  0  0
 13 14  1  0  0  0  0
 13 47  1  0  0  0  0
 14 15  1  0  0  0  0
 14 35  1  0  0  0  0
 14 36  1  0  0  0  0
 15 16  1  0  0  0  0
 15 37  1  0  0  0  0
 15 38  1  0  0  0  0
 16 17  1  0  0  0  0
 16 39  1  0  0  0  0
 16 40  1  0  0  0  0
 17 18  1  0  0  0  0
 17 41  1  0  0  0  0
 17 42  1  0  0  0  0
 18 19  1  0  0  0  0
 18 43  1  0  0  0  0
 19 44  1  0  0  0  0
 19 45  1  0  0  0  0
 19 46  1  0  0  0  0
M  CHG  1  13   1
M  END
> <s_m_source_file>
AV-unprocessed.smi

> <i_m_source_file_index>
3004

> <i_lp_mmshare_version>
43012

> <i_f3d_flags>
0

> <s_epik_input>
W0NIM11jMVtjSF1jKFtDSDNdKW4objEpW0NIMl1DKD1PKVtOSF1bQ0gyXVtDSDJdTjJbQ0gyXVtDSDJdW0NIMl1bQ0gyXVtDQEhdMltDSDNd

> <s_epik_cmdline>
J2VwaWtfcHl0aG9uJywgJy1waCcsICc3LjAnLCAnLXRuJywgJzgnLCAnLW1hJywgJzIwMCcsICctbWV0YWxfYmluZGluZycsICctaW1hZScsICc8aW5maWxlLm1hZT4nLCAnLW9tYWUnLCAnPG91dGZpbGUubWFlPic=

> <r_lp_tautomer_probability>
1

> <r_epik_Ionization_Penalty>
0.00303644

> <r_epik_Ionization_Penalty_Charging>
0.00284254

> <r_epik_Ionization_Penalty_Neutral>
0.000193908

> <r_epik_State_Penalty>
-0

> <r_epik_Charging_Adjusted_Penalty>
0.00284254

> <i_epik_Tot_Q>
1

> <i_epik_Tot_abs_Q>
1

> <r_epik_Metal_State_Penalty>
-0

> <b_epik_Metal_Only>
0

> <s_lp_Force_Field>
OPLS_2005

> <r_lp_Energy>
17.9546

> <b_lp_Chiralities_Consistent>
1

> <s_lp_Variant>
AV-unprocessed.smi:3004-2

> <Gold.Version>
5.8.1

> <Gold.Id.Protein>
6NUR|6NUR_protein|mol2

> <Gold.PLP.Fitness>
40.9775

> <Gold.PLP.PLP>
-34.9451

> <Gold.PLP.part.hbond>
-3.0000

> <Gold.PLP.part.metal>
0.0000

> <Gold.PLP.part.buried>
0.2138

> <Gold.PLP.part.nonpolar>
-31.0083

> <Gold.PLP.part.repulsive>
0.8009

> <Gold.PLP.ligand.clash>
0.0000

> <Gold.PLP.ligand.torsion>
0.3904

> <Gold.PLP.Chemscore.Hbond>
2.2500

> <Gold.PLP.Chemscore.CHOScore>
0.0000

> <Gold.PLP.Chemscore.Metal>
0.0000

> <Gold.Chemscore.Hbonds>
donor molecule, donor type, donor heavy atom, donor atom, acceptor molecule, acceptor atom, score
      L1  H    10    30       P1  7949  0.05
      L1  H    13    47       P1  7948  2.00

> <Gold.PLP.Chemscore.Internal.Correction>
0.0632

> <Gold.Rescore>
     Score         DG    S(hbond)    S(metal)    S(lipo)     H(rot)  DE(clash)    DE(int)     intcor
     13.03     -13.77       0.97        0.00      79.58       1.67       0.20       0.55       ----

> <Gold.Chemscore.Fitness>
13.0260

> <Gold.Chemscore.DG>
-13.7715

> <Gold.Chemscore.ZeroCoef>
-5.4800

> <Gold.Chemscore.Hbond>
0.9716

> <Gold.Chemscore.Metal>
0.0000

> <Gold.Chemscore.Lipo>
79.5758

> <Gold.Chemscore.Internal_Hbond>
0.0000

> <Gold.Chemscore.DEClash>
0.1990

> <Gold.Chemscore.DEInternal>
0.5465

> <Gold.Chemscore.Rot>
1.6657

> <Gold.Chemscore.Internal.Correction>
   9.000000E+99

> <Gold.Chemscore.Hbonds>
donor molecule, donor type, donor heavy atom, donor atom, acceptor molecule, acceptor atom, score
      L1  H    13    47       P1  7948  0.94

> <Gold.Chemscore.Hbond.Weighted>
-3.2452

> <Gold.Chemscore.Metal.Weighted>
-0.0000

> <Gold.Chemscore.Lipo.Weighted>
-9.3104

> <Gold.Chemscore.Internal_Hbond.Weighted>
0.0000

> <Gold.Chemscore.DEClash.Weighted>
0.1990

> <Gold.Chemscore.DEInternal.Weighted>
0.5465

> <Gold.Chemscore.Rot.Weighted>
4.2641

> <Gold.Chemscore.Internal.Correction.Weighted>
   9.000000E+99

> <Gold.Protein.RotatedTorsions>
[ 6907 6896 6895 6894 ] final   20.69 input  -60.11 | X-H torsion
[ 7974 7965 7964 7962 ] final  -65.04 input  175.53 | X-H torsion
[ 8008 7997 7996 7995 ] final   39.44 input   59.86 | X-H torsion
[ 10167 10162 10161 10158 ] final -122.51 input  -65.29 | X-H torsion
[ 10718 10713 10712 10709 ] final -162.61 input   66.30 | X-H torsion
[ 10763 10752 10751 10750 ] final -174.31 input  -60.55 | X-H torsion
[ 11005 11000 10999 10996 ] final -148.32 input  -57.11 | X-H torsion

> <Gold.Protein.ActiveResidues>
 VAL166  LYS551  ARG553  GLY616  TRP617  ASP618  TYR619  PRO620  LYS621  CYS622 
 ASP623  PHE694  ASN695  SER759  ASP760  ASP761  ALA762  ILE779  LEU786  VAL792 
 PHE793  MET794  SER795  GLU796  ALA797  LYS798  CYS799  TRP800  GLU811  SER814 

> <Gold.Protein.RotatedAtoms>
  151.9002  135.0381  160.0505 H   0  0  0  0  0  0  0  0  0  0  0  0  # atno 6907 bound_to 6896
  152.2364  133.5095  159.5253 H   0  0  0  0  0  0  0  0  0  0  0  0  # atno 6908 bound_to 6896
  150.7040  134.1064  159.4027 H   0  0  0  0  0  0  0  0  0  0  0  0  # atno 6909 bound_to 6896
  145.7592  140.8870  143.0439 H   0  0  0  0  0  0  0  0  0  0  0  0  # atno 7974 bound_to 7965
  155.2367  140.3342  155.4297 H   0  0  0  0  0  0  0  0  0  0  0  0  # atno 8008 bound_to 7997
  156.2272  140.1835  156.7378 H   0  0  0  0  0  0  0  0  0  0  0  0  # atno 8009 bound_to 7997
  154.5919  140.0636  156.9235 H   0  0  0  0  0  0  0  0  0  0  0  0  # atno 8010 bound_to 7997
  140.0135  143.5418  152.2253 H   0  0  0  0  0  0  0  0  0  0  0  0  # atno 10167 bound_to 10162
  156.6128  130.8858  151.2940 H   0  0  0  0  0  0  0  0  0  0  0  0  # atno 10718 bound_to 10713
  154.5977  135.2851  155.0568 H   0  0  0  0  0  0  0  0  0  0  0  0  # atno 10763 bound_to 10752
  154.1845  135.6451  153.5047 H   0  0  0  0  0  0  0  0  0  0  0  0  # atno 10764 bound_to 10752
  153.0145  135.5431  154.6685 H   0  0  0  0  0  0  0  0  0  0  0  0  # atno 10765 bound_to 10752
  140.7624  134.3283  157.5098 H   0  0  0  0  0  0  0  0  0  0  0  0  # atno 11005 bound_to 11000
  144.6834  139.9699  143.7482 LP  0  0  0  0  0  0  0  0  0  0  0  0  # atno 17320 bound_to 7965
  146.0281  139.3310  143.0772 LP  0  0  0  0  0  0  0  0  0  0  0  0  # atno 17321 bound_to 7965
  139.6189  144.7625  151.2785 LP  0  0  0  0  0  0  0  0  0  0  0  0  # atno 17342 bound_to 10162
  140.7372  143.6685  150.8102 LP  0  0  0  0  0  0  0  0  0  0  0  0  # atno 17343 bound_to 10162
  157.7249  130.9609  150.1594 LP  0  0  0  0  0  0  0  0  0  0  0  0  # atno 17370 bound_to 10713
  156.2375  130.3688  149.8374 LP  0  0  0  0  0  0  0  0  0  0  0  0  # atno 17371 bound_to 10713
  139.8768  134.9210  156.3266 LP  0  0  0  0  0  0  0  0  0  0  0  0  # atno 17394 bound_to 11000
  140.9650  133.7364  156.0454 LP  0  0  0  0  0  0  0  0  0  0  0  0  # atno 17395 bound_to 11000

$$$$
