AV-unprocessed.smi:2032|AV-procd|sdf|8245|dock6
  -GOLD-   2272010513D 1   1.00000     0.00000
 Structure written by MMmdl.
 41 42  0  0  0  0  0  0  0  0  2 V2000
  149.6627  142.3877  158.1354 C   0  0  0  0  0  0  0  0  0  0  0  0
  151.1070  142.1589  157.6574 C   0  0  2  0  0  0  0  0  0  0  0  0
  151.3976  140.6953  157.2700 C   0  0  0  0  0  0  0  0  0  0  0  0
  151.5202  139.7922  158.4202 N   0  0  0  0  0  0  0  0  0  0  0  0
  151.8250  138.3991  158.0140 C   0  0  2  0  0  0  0  0  0  0  0  0
  152.7188  138.3280  156.7491 C   0  0  0  0  0  0  0  0  0  0  0  0
  150.5533  137.5303  157.7821 C   0  0  0  0  0  0  0  0  0  0  0  0
  149.5356  137.6926  158.8182 N   0  0  0  0  0  0  0  0  0  0  0  0
  148.8088  136.7099  159.3694 C   0  0  0  0  0  0  0  0  0  0  0  0
  148.9853  135.5415  159.0162 O   0  0  0  0  0  0  0  0  0  0  0  0
  147.9192  137.1437  160.2913 N   0  5  0  0  0  0  0  0  0  0  0  0
  147.2160  136.2591  161.0168 C   0  0  0  0  0  0  0  0  0  0  0  0
  147.5830  134.9810  161.1652 N   0  0  0  0  0  0  0  0  0  0  0  0
  146.7125  134.2433  161.9696 C   0  0  0  0  0  0  0  0  0  0  0  0
  145.6629  134.9787  162.4525 C   0  0  0  0  0  0  0  0  0  0  0  0
  145.7361  136.6298  161.9064 S   0  0  0  0  0  0  0  0  0  0  0  0
  152.5257  140.3537  159.3269 C   0  0  0  0  0  0  0  0  0  0  0  0
  152.2030  141.7954  159.7598 C   0  0  1  0  0  0  0  0  0  0  0  0
  153.3070  142.3930  160.6387 C   0  0  0  0  0  0  0  0  0  0  0  0
  152.0626  142.6209  158.6088 O   0  0  0  0  0  0  0  0  0  0  0  0
  148.9512  142.1431  157.3465 H   0  0  0  0  0  0  0  0  0  0  0  0
  149.5045  143.4303  158.4108 H   0  0  0  0  0  0  0  0  0  0  0  0
  149.4134  141.7710  158.9986 H   0  0  0  0  0  0  0  0  0  0  0  0
  151.2455  142.7726  156.7668 H   0  0  0  0  0  0  0  0  0  0  0  0
  150.5980  140.3732  156.6058 H   0  0  0  0  0  0  0  0  0  0  0  0
  152.3194  140.6616  156.6870 H   0  0  0  0  0  0  0  0  0  0  0  0
  152.3870  137.9323  158.8242 H   0  0  0  0  0  0  0  0  0  0  0  0
  152.9006  137.3042  156.4239 H   0  0  0  0  0  0  0  0  0  0  0  0
  153.7094  138.7473  156.9174 H   0  0  0  0  0  0  0  0  0  0  0  0
  152.2625  138.8602  155.9142 H   0  0  0  0  0  0  0  0  0  0  0  0
  150.0682  137.7586  156.8340 H   0  0  0  0  0  0  0  0  0  0  0  0
  150.8278  136.4759  157.7423 H   0  0  0  0  0  0  0  0  0  0  0  0
  149.3584  138.6334  159.1383 H   0  0  0  0  0  0  0  0  0  0  0  0
  146.9190  133.1985  162.1473 H   0  0  0  0  0  0  0  0  0  0  0  0
  144.8572  134.6536  163.0930 H   0  0  0  0  0  0  0  0  0  0  0  0
  152.5936  139.7638  160.2383 H   0  0  0  0  0  0  0  0  0  0  0  0
  153.5085  140.3211  158.8539 H   0  0  0  0  0  0  0  0  0  0  0  0
  151.2730  141.8040  160.3288 H   0  0  0  0  0  0  0  0  0  0  0  0
  153.4469  141.8056  161.5465 H   0  0  0  0  0  0  0  0  0  0  0  0
  153.0588  143.4117  160.9376 H   0  0  0  0  0  0  0  0  0  0  0  0
  154.2597  142.4235  160.1091 H   0  0  0  0  0  0  0  0  0  0  0  0
  1  2  1  0  0  0  0
  1 21  1  0  0  0  0
  1 22  1  0  0  0  0
  1 23  1  0  0  0  0
  2 20  1  0  0  0  0
  2  3  1  0  0  0  0
  2 24  1  0  0  0  0
  3  4  1  0  0  0  0
  3 25  1  0  0  0  0
  3 26  1  0  0  0  0
  4  5  1  0  0  0  0
  4 17  1  0  0  0  0
  5  6  1  0  0  0  0
  5  7  1  0  0  0  0
  5 27  1  0  0  0  0
  6 28  1  0  0  0  0
  6 29  1  0  0  0  0
  6 30  1  0  0  0  0
  7  8  1  0  0  0  0
  7 31  1  0  0  0  0
  7 32  1  0  0  0  0
  8  9  1  0  0  0  0
  8 33  1  0  0  0  0
  9 10  2  0  0  0  0
  9 11  1  0  0  0  0
 11 12  1  0  0  0  0
 12 16  1  0  0  0  0
 12 13  2  0  0  0  0
 13 14  1  0  0  0  0
 14 15  2  0  0  0  0
 14 34  1  0  0  0  0
 15 16  1  0  0  0  0
 15 35  1  0  0  0  0
 17 18  1  0  0  0  0
 17 36  1  0  0  0  0
 17 37  1  0  0  0  0
 18 19  1  0  0  0  0
 18 20  1  0  0  0  0
 18 38  1  0  0  0  0
 19 39  1  0  0  0  0
 19 40  1  0  0  0  0
 19 41  1  0  0  0  0
M  CHG  1  11  -1
M  END
> <s_m_source_file>
AV-unprocessed.smi

> <i_m_source_file_index>
2032

> <i_lp_mmshare_version>
43012

> <i_f3d_flags>
0

> <s_epik_input>
W0NIM11bQ0BASF0xW0NIMl1OKFtDSDJdW0NASF0oTzEpW0NIM10pW0NASF0oW0NIM10pW0NIMl1bTkhdQyg9TylbTkhdYzJuW2NIXVtjSF1zMg==

> <s_epik_cmdline>
J2VwaWtfcHl0aG9uJywgJy1waCcsICc3LjAnLCAnLXRuJywgJzgnLCAnLW1hJywgJzIwMCcsICctbWV0YWxfYmluZGluZycsICctaW1hZScsICc8aW5maWxlLm1hZT4nLCAnLW9tYWUnLCAnPG91dGZpbGUubWFlPic=

> <r_lp_tautomer_probability>
0.999

> <r_epik_Ionization_Penalty>
7.22375

> <r_epik_Ionization_Penalty_Charging>
5.82415

> <r_epik_Ionization_Penalty_Neutral>
1.39959

> <r_epik_State_Penalty>
6.03347

> <r_epik_Charging_Adjusted_Penalty>
11.8576

> <i_epik_Tot_Q>
-1

> <i_epik_Tot_abs_Q>
1

> <r_epik_Metal_State_Penalty>
2.01024

> <b_epik_Metal_Only>
1

> <s_lp_Force_Field>
OPLS_2005

> <r_lp_Energy>
26.7208

> <b_lp_Chiralities_Consistent>
1

> <s_lp_Variant>
AV-unprocessed.smi:2032-15

> <Gold.Version>
5.8.1

> <Gold.Id.Protein>
6NUR|6NUR_protein|mol2

> <Gold.PLP.Fitness>
44.6852

> <Gold.PLP.PLP>
-35.0416

> <Gold.PLP.part.hbond>
-3.0000

> <Gold.PLP.part.metal>
0.0000

> <Gold.PLP.part.buried>
-5.2874

> <Gold.PLP.part.nonpolar>
-26.7785

> <Gold.PLP.part.repulsive>
0.2257

> <Gold.PLP.ligand.clash>
0.0000

> <Gold.PLP.ligand.torsion>
1.0197

> <Gold.PLP.Chemscore.Hbond>
3.8677

> <Gold.PLP.Chemscore.CHOScore>
0.0000

> <Gold.PLP.Chemscore.Metal>
0.0000

> <Gold.Chemscore.Hbonds>
donor molecule, donor type, donor heavy atom, donor atom, acceptor molecule, acceptor atom, score
      P1  H  6896  6908       L1    10  0.94
      P1  H  6931  6943       L1    11  0.68
      P1  H  6934  6947       L1    11  1.27

> <Gold.PLP.Chemscore.Internal.Correction>
0.0799

> <Gold.Rescore>
     Score         DG    S(hbond)    S(metal)    S(lipo)     H(rot)  DE(clash)    DE(int)     intcor
     15.10     -17.69       2.01        0.00      80.77       1.54       0.04       2.55       ----

> <Gold.Chemscore.Fitness>
15.0974

> <Gold.Chemscore.DG>
-17.6875

> <Gold.Chemscore.ZeroCoef>
-5.4800

> <Gold.Chemscore.Hbond>
2.0082

> <Gold.Chemscore.Metal>
0.0000

> <Gold.Chemscore.Lipo>
80.7731

> <Gold.Chemscore.Internal_Hbond>
0.0000

> <Gold.Chemscore.DEClash>
0.0402

> <Gold.Chemscore.DEInternal>
2.5498

> <Gold.Chemscore.Rot>
1.5431

> <Gold.Chemscore.Internal.Correction>
   9.000000E+99

> <Gold.Chemscore.Hbonds>
donor molecule, donor type, donor heavy atom, donor atom, acceptor molecule, acceptor atom, score
      P1  H  6896  6908       L1    10  0.89
      P1  H  6931  6943       L1    11  0.07
      P1  H  6934  6947       L1    11  0.31

> <Gold.Chemscore.Hbond.Weighted>
-6.7073

> <Gold.Chemscore.Metal.Weighted>
-0.0000

> <Gold.Chemscore.Lipo.Weighted>
-9.4505

> <Gold.Chemscore.Internal_Hbond.Weighted>
0.0000

> <Gold.Chemscore.DEClash.Weighted>
0.0402

> <Gold.Chemscore.DEInternal.Weighted>
2.5498

> <Gold.Chemscore.Rot.Weighted>
3.9503

> <Gold.Chemscore.Internal.Correction.Weighted>
   9.000000E+99

> <Gold.Protein.RotatedTorsions>
[ 6907 6896 6895 6894 ] final  157.88 input  -60.11 | X-H torsion
[ 7974 7965 7964 7962 ] final  147.11 input  175.53 | X-H torsion
[ 8008 7997 7996 7995 ] final   22.86 input   59.86 | X-H torsion
[ 10167 10162 10161 10158 ] final  -17.34 input  -65.29 | X-H torsion
[ 10718 10713 10712 10709 ] final   45.11 input   66.30 | X-H torsion
[ 10763 10752 10751 10750 ] final  138.61 input  -60.55 | X-H torsion
[ 11005 11000 10999 10996 ] final   65.34 input  -57.11 | X-H torsion

> <Gold.Protein.ActiveResidues>
 VAL166  LYS551  ARG553  GLY616  TRP617  ASP618  TYR619  PRO620  LYS621  CYS622 
 ASP623  PHE694  ASN695  SER759  ASP760  ASP761  ALA762  ILE779  LEU786  VAL792 
 PHE793  MET794  SER795  GLU796  ALA797  LYS798  CYS799  TRP800  GLU811  SER814 

> <Gold.Protein.RotatedAtoms>
  152.0086  133.3852  159.4210 H   0  0  0  0  0  0  0  0  0  0  0  0  # atno 6907 bound_to 6896
  150.6902  134.3755  159.5020 H   0  0  0  0  0  0  0  0  0  0  0  0  # atno 6908 bound_to 6896
  152.1513  134.8986  160.0598 H   0  0  0  0  0  0  0  0  0  0  0  0  # atno 6909 bound_to 6896
  144.8617  139.5988  143.5927 H   0  0  0  0  0  0  0  0  0  0  0  0  # atno 7974 bound_to 7965
  154.9721  140.3091  155.4983 H   0  0  0  0  0  0  0  0  0  0  0  0  # atno 8008 bound_to 7997
  156.2964  140.2282  156.4753 H   0  0  0  0  0  0  0  0  0  0  0  0  # atno 8009 bound_to 7997
  154.7867  140.0442  157.1157 H   0  0  0  0  0  0  0  0  0  0  0  0  # atno 8010 bound_to 7997
  140.7246  143.5026  150.9850 H   0  0  0  0  0  0  0  0  0  0  0  0  # atno 10167 bound_to 10162
  157.4340  130.8041  149.7630 H   0  0  0  0  0  0  0  0  0  0  0  0  # atno 10718 bound_to 10713
  153.8924  135.3031  155.3447 H   0  0  0  0  0  0  0  0  0  0  0  0  # atno 10763 bound_to 10752
  154.7710  135.4886  153.9652 H   0  0  0  0  0  0  0  0  0  0  0  0  # atno 10764 bound_to 10752
  153.1290  135.6799  153.9308 H   0  0  0  0  0  0  0  0  0  0  0  0  # atno 10765 bound_to 10752
  139.9901  134.6606  156.0107 H   0  0  0  0  0  0  0  0  0  0  0  0  # atno 11005 bound_to 11000
  146.2866  139.7020  142.9191 LP  0  0  0  0  0  0  0  0  0  0  0  0  # atno 17320 bound_to 7965
  145.4299  141.0414  143.2916 LP  0  0  0  0  0  0  0  0  0  0  0  0  # atno 17321 bound_to 7965
  139.8736  143.7161  152.3164 LP  0  0  0  0  0  0  0  0  0  0  0  0  # atno 17342 bound_to 10162
  139.7419  144.7557  151.0640 LP  0  0  0  0  0  0  0  0  0  0  0  0  # atno 17343 bound_to 10162
  155.9923  130.3931  150.2945 LP  0  0  0  0  0  0  0  0  0  0  0  0  # atno 17370 bound_to 10713
  157.1105  131.0220  151.3050 LP  0  0  0  0  0  0  0  0  0  0  0  0  # atno 17371 bound_to 10713
  141.1558  133.6543  156.4157 LP  0  0  0  0  0  0  0  0  0  0  0  0  # atno 17394 bound_to 11000
  140.4926  134.6561  157.5217 LP  0  0  0  0  0  0  0  0  0  0  0  0  # atno 17395 bound_to 11000

$$$$
