AV-unprocessed.smi:610|AV-procd|sdf|3059|dock9
  -GOLD-   2262023583D 1   1.00000     0.00000
 Structure written by MMmdl.
 37 38  0  0  0  0  0  0  0  0  1 V2000
  151.4892  140.9138  157.2601 C   0  0  0  0  0  0  0  0  0  0  0  0
  150.4877  142.0040  156.8500 C   0  0  2  0  0  0  0  0  0  0  0  0
  149.8709  142.6981  158.0791 C   0  0  0  0  0  0  0  0  0  0  0  0
  150.8324  143.5285  158.7810 N   0  0  0  0  0  0  0  0  0  0  0  0
  151.9219  143.1020  159.5297 C   0  0  0  0  0  0  0  0  0  0  0  0
  152.5381  144.2364  160.0077 C   0  0  0  0  0  0  0  0  0  0  0  0
  151.8502  145.3647  159.5674 N   0  0  0  0  0  0  0  0  0  0  0  0
  150.8536  144.8667  158.8467 C   0  0  0  0  0  0  0  0  0  0  0  0
  149.4312  141.4225  156.0253 N   0  0  0  0  0  0  0  0  0  0  0  0
  149.6079  140.5588  155.0105 C   0  0  0  0  0  0  0  0  0  0  0  0
  150.7212  140.1389  154.6915 O   0  0  0  0  0  0  0  0  0  0  0  0
  148.3547  140.0825  154.2316 C   0  0  0  0  0  0  0  0  0  0  0  0
  148.6834  139.0725  153.2327 N   0  0  0  0  0  0  0  0  0  0  0  0
  147.2731  139.5063  155.1867 C   0  0  0  0  0  0  0  0  0  0  0  0
  146.0245  140.3842  155.0354 C   0  0  0  0  0  0  0  0  0  0  0  0
  146.5270  141.7004  154.4518 C   0  0  0  0  0  0  0  0  0  0  0  0
  147.6679  141.2767  153.5282 C   0  0  0  0  0  0  0  0  0  0  0  0
  152.2949  141.3304  157.8649 H   0  0  0  0  0  0  0  0  0  0  0  0
  151.9443  140.4461  156.3863 H   0  0  0  0  0  0  0  0  0  0  0  0
  151.0059  140.1298  157.8442 H   0  0  0  0  0  0  0  0  0  0  0  0
  151.0261  142.7580  156.2724 H   0  0  0  0  0  0  0  0  0  0  0  0
  149.0191  143.3148  157.7884 H   0  0  0  0  0  0  0  0  0  0  0  0
  149.4931  141.9539  158.7815 H   0  0  0  0  0  0  0  0  0  0  0  0
  152.1599  142.0564  159.6590 H   0  0  0  0  0  0  0  0  0  0  0  0
  153.4166  144.3266  160.6298 H   0  0  0  0  0  0  0  0  0  0  0  0
  150.1193  145.4900  158.3576 H   0  0  0  0  0  0  0  0  0  0  0  0
  148.4840  141.7073  156.2296 H   0  0  0  0  0  0  0  0  0  0  0  0
  149.2313  139.4997  152.4997 H   0  0  0  0  0  0  0  0  0  0  0  0
  149.2754  138.3712  153.6540 H   0  0  0  0  0  0  0  0  0  0  0  0
  147.0302  138.4636  154.9756 H   0  0  0  0  0  0  0  0  0  0  0  0
  147.6018  139.5283  156.2271 H   0  0  0  0  0  0  0  0  0  0  0  0
  145.3346  139.9171  154.3316 H   0  0  0  0  0  0  0  0  0  0  0  0
  145.4925  140.5213  155.9774 H   0  0  0  0  0  0  0  0  0  0  0  0
  145.7467  142.2540  153.9292 H   0  0  0  0  0  0  0  0  0  0  0  0
  146.9104  142.3375  155.2499 H   0  0  0  0  0  0  0  0  0  0  0  0
  148.3463  142.1069  153.3242 H   0  0  0  0  0  0  0  0  0  0  0  0
  147.2475  140.9745  152.5672 H   0  0  0  0  0  0  0  0  0  0  0  0
  1  2  1  0  0  0  0
  1 18  1  0  0  0  0
  1 19  1  0  0  0  0
  1 20  1  0  0  0  0
  2  3  1  0  0  0  0
  2  9  1  0  0  0  0
  2 21  1  0  0  0  0
  3  4  1  0  0  0  0
  3 22  1  0  0  0  0
  3 23  1  0  0  0  0
  4  8  1  0  0  0  0
  4  5  1  0  0  0  0
  5  6  2  0  0  0  0
  5 24  1  0  0  0  0
  6  7  1  0  0  0  0
  6 25  1  0  0  0  0
  7  8  2  0  0  0  0
  8 26  1  0  0  0  0
  9 10  1  0  0  0  0
  9 27  1  0  0  0  0
 10 11  2  0  0  0  0
 10 12  1  0  0  0  0
 12 17  1  0  0  0  0
 12 13  1  0  0  0  0
 12 14  1  0  0  0  0
 13 28  1  0  0  0  0
 13 29  1  0  0  0  0
 14 15  1  0  0  0  0
 14 30  1  0  0  0  0
 14 31  1  0  0  0  0
 15 16  1  0  0  0  0
 15 32  1  0  0  0  0
 15 33  1  0  0  0  0
 16 17  1  0  0  0  0
 16 34  1  0  0  0  0
 16 35  1  0  0  0  0
 17 36  1  0  0  0  0
 17 37  1  0  0  0  0
M  END
> <s_m_source_file>
AV-unprocessed.smi

> <i_m_source_file_index>
610

> <i_lp_mmshare_version>
43012

> <i_f3d_flags>
0

> <s_epik_input>
W2NIXTFuW2NIXVtjSF1uMVtDSDJdW0NAQEhdKFtDSDNdKVtOSF1DKD1PKUMyKFtOSDJdKVtDSDJdW0NIMl1bQ0gyXVtDSDJdMg==

> <s_epik_cmdline>
J2VwaWtfcHl0aG9uJywgJy1waCcsICc3LjAnLCAnLXRuJywgJzgnLCAnLW1hJywgJzIwMCcsICctbWV0YWxfYmluZGluZycsICctaW1hZScsICc8aW5maWxlLm1hZT4nLCAnLW9tYWUnLCAnPG91dGZpbGUubWFlPic=

> <r_lp_tautomer_probability>
1

> <r_epik_Ionization_Penalty>
1.91974

> <r_epik_Ionization_Penalty_Charging>
0.644069

> <r_epik_Ionization_Penalty_Neutral>
1.27567

> <r_epik_State_Penalty>
1.9806

> <r_epik_Charging_Adjusted_Penalty>
2.62467

> <i_epik_Tot_Q>
0

> <i_epik_Tot_abs_Q>
0

> <r_epik_Metal_State_Penalty>
1.61835

> <b_epik_Metal_Only>
0

> <s_lp_Force_Field>
OPLS_2005

> <r_lp_Energy>
21.9363

> <b_lp_Chiralities_Consistent>
1

> <s_lp_Variant>
AV-unprocessed.smi:610-7

> <Gold.Version>
5.8.1

> <Gold.Id.Protein>
6NUR|6NUR_protein|mol2

> <Gold.PLP.Fitness>
40.9310

> <Gold.PLP.PLP>
-32.6673

> <Gold.PLP.part.hbond>
-2.9520

> <Gold.PLP.part.metal>
0.0000

> <Gold.PLP.part.buried>
-5.9183

> <Gold.PLP.part.nonpolar>
-24.7058

> <Gold.PLP.part.repulsive>
0.2701

> <Gold.PLP.ligand.clash>
0.0000

> <Gold.PLP.ligand.torsion>
0.3842

> <Gold.PLP.Chemscore.Hbond>
2.0000

> <Gold.PLP.Chemscore.CHOScore>
1.0000

> <Gold.PLP.Chemscore.Metal>
0.0000

> <Gold.Chemscore.Hbonds>
donor molecule, donor type, donor heavy atom, donor atom, acceptor molecule, acceptor atom, score
      L1  H    13    28       P1  7957  0.89
      P1  H  7989  7998       L1    11  1.00
      L1  C     8    26       P1  8029  1.00

> <Gold.PLP.Chemscore.Internal.Correction>
0.0321

> <Gold.Rescore>
     Score         DG    S(hbond)    S(metal)    S(lipo)     H(rot)  DE(clash)    DE(int)     intcor
     13.10     -14.80       1.99        0.00      65.55       1.95       0.02       1.69       ----

> <Gold.Chemscore.Fitness>
13.1017

> <Gold.Chemscore.DG>
-14.8048

> <Gold.Chemscore.ZeroCoef>
-5.4800

> <Gold.Chemscore.Hbond>
1.9889

> <Gold.Chemscore.Metal>
0.0000

> <Gold.Chemscore.Lipo>
65.5460

> <Gold.Chemscore.Internal_Hbond>
0.0000

> <Gold.Chemscore.DEClash>
0.0174

> <Gold.Chemscore.DEInternal>
1.6857

> <Gold.Chemscore.Rot>
1.9480

> <Gold.Chemscore.Internal.Correction>
   9.000000E+99

> <Gold.Chemscore.Hbonds>
donor molecule, donor type, donor heavy atom, donor atom, acceptor molecule, acceptor atom, score
      L1  H    13    28       P1  7957  0.87
      P1  H  7989  7998       L1    11  0.99

> <Gold.Chemscore.Hbond.Weighted>
-6.6428

> <Gold.Chemscore.Metal.Weighted>
-0.0000

> <Gold.Chemscore.Lipo.Weighted>
-7.6689

> <Gold.Chemscore.Internal_Hbond.Weighted>
0.0000

> <Gold.Chemscore.DEClash.Weighted>
0.0174

> <Gold.Chemscore.DEInternal.Weighted>
1.6857

> <Gold.Chemscore.Rot.Weighted>
4.9869

> <Gold.Chemscore.Internal.Correction.Weighted>
   9.000000E+99

> <Gold.Protein.RotatedTorsions>
[ 6907 6896 6895 6894 ] final  -55.33 input  -60.11 | X-H torsion
[ 7974 7965 7964 7962 ] final  -48.27 input  175.53 | X-H torsion
[ 8008 7997 7996 7995 ] final  -55.29 input   59.86 | X-H torsion
[ 10167 10162 10161 10158 ] final  -63.88 input  -65.29 | X-H torsion
[ 10718 10713 10712 10709 ] final  -13.12 input   66.30 | X-H torsion
[ 10763 10752 10751 10750 ] final  115.07 input  -60.55 | X-H torsion
[ 11005 11000 10999 10996 ] final   62.80 input  -57.11 | X-H torsion

> <Gold.Protein.ActiveResidues>
 VAL166  LYS551  ARG553  GLY616  TRP617  ASP618  TYR619  PRO620  LYS621  CYS622 
 ASP623  PHE694  ASN695  SER759  ASP760  ASP761  ALA762  ILE779  LEU786  VAL792 
 PHE793  MET794  SER795  GLU796  ALA797  LYS798  CYS799  TRP800  GLU811  SER814 

> <Gold.Protein.RotatedAtoms>
  150.8261  134.7492  159.6813 H   0  0  0  0  0  0  0  0  0  0  0  0  # atno 6907 bound_to 6896
  152.4371  134.5661  159.9918 H   0  0  0  0  0  0  0  0  0  0  0  0  # atno 6908 bound_to 6896
  151.5833  133.3337  159.3049 H   0  0  0  0  0  0  0  0  0  0  0  0  # atno 6909 bound_to 6896
  145.9529  140.7555  142.9496 H   0  0  0  0  0  0  0  0  0  0  0  0  # atno 7974 bound_to 7965
  154.4190  140.1156  156.5453 H   0  0  0  0  0  0  0  0  0  0  0  0  # atno 8008 bound_to 7997
  155.6466  140.3496  155.4714 H   0  0  0  0  0  0  0  0  0  0  0  0  # atno 8009 bound_to 7997
  155.9827  140.1163  157.0701 H   0  0  0  0  0  0  0  0  0  0  0  0  # atno 8010 bound_to 7997
  140.5840  143.2331  151.6282 H   0  0  0  0  0  0  0  0  0  0  0  0  # atno 10167 bound_to 10162
  156.6349  130.4912  149.6116 H   0  0  0  0  0  0  0  0  0  0  0  0  # atno 10718 bound_to 10713
  153.5167  135.3606  155.2612 H   0  0  0  0  0  0  0  0  0  0  0  0  # atno 10763 bound_to 10752
  154.8738  135.4036  154.3306 H   0  0  0  0  0  0  0  0  0  0  0  0  # atno 10764 bound_to 10752
  153.3969  135.7073  153.6521 H   0  0  0  0  0  0  0  0  0  0  0  0  # atno 10765 bound_to 10752
  140.0067  134.6358  155.9843 H   0  0  0  0  0  0  0  0  0  0  0  0  # atno 11005 bound_to 11000
  144.6799  140.2464  143.7337 LP  0  0  0  0  0  0  0  0  0  0  0  0  # atno 17320 bound_to 7965
  145.8146  139.2018  143.1973 LP  0  0  0  0  0  0  0  0  0  0  0  0  # atno 17321 bound_to 7965
  139.5186  144.3278  152.0853 LP  0  0  0  0  0  0  0  0  0  0  0  0  # atno 17342 bound_to 10162
  140.2432  144.4247  150.6251 LP  0  0  0  0  0  0  0  0  0  0  0  0  # atno 17343 bound_to 10162
  156.2205  130.6734  151.1363 LP  0  0  0  0  0  0  0  0  0  0  0  0  # atno 17370 bound_to 10713
  157.7189  131.0693  150.6217 LP  0  0  0  0  0  0  0  0  0  0  0  0  # atno 17371 bound_to 10713
  141.1682  133.6537  156.4556 LP  0  0  0  0  0  0  0  0  0  0  0  0  # atno 17394 bound_to 11000
  140.4628  134.6826  157.5093 LP  0  0  0  0  0  0  0  0  0  0  0  0  # atno 17395 bound_to 11000

$$$$
