AV-unprocessed.smi:3268|AV-procd|sdf|12509|dock1
  -GOLD-   2272018413D 1   1.00000     0.00000
 Structure written by MMmdl.
 40 41  0  0  0  0  0  0  0  0  2 V2000
  151.0586  136.8285  154.7582 C   0  0  0  0  0  0  0  0  0  0  0  0
  150.5358  138.2466  154.4502 C   0  0  1  0  0  0  0  0  0  0  0  0
  148.9993  138.3350  154.4518 C   0  0  0  0  0  0  0  0  0  0  0  0
  148.3575  138.1655  155.4894 O   0  0  0  0  0  0  0  0  0  0  0  0
  148.4141  138.5965  153.2714 N   0  0  0  0  0  0  0  0  0  0  0  0
  146.9790  138.7571  153.0702 C   0  0  0  0  0  0  0  0  0  0  0  0
  146.1895  137.5593  153.6329 C   0  0  0  0  0  0  0  0  0  0  0  0
  146.3867  136.3219  152.8357 N   0  3  0  0  0  0  0  0  0  0  0  0
  145.3813  136.1913  151.7482 C   0  0  0  0  0  0  0  0  0  0  0  0
  145.6871  134.9833  150.8466 C   0  0  0  0  0  0  0  0  0  0  0  0
  145.7706  133.6907  151.6681 C   0  0  0  0  0  0  0  0  0  0  0  0
  146.7881  133.8583  152.8034 C   0  0  0  0  0  0  0  0  0  0  0  0
  146.4556  135.0883  153.6651 C   0  0  0  0  0  0  0  0  0  0  0  0
  151.1098  139.2387  155.3519 N   0  0  0  0  0  0  0  0  0  0  0  0
  152.0006  139.0925  156.3350 C   0  0  0  0  0  0  0  0  0  0  0  0
  152.3304  140.2268  156.9362 N   0  0  0  0  0  0  0  0  0  0  0  0
  151.5547  141.0967  156.2238 C   0  0  0  0  0  0  0  0  0  0  0  0
  150.8108  140.5585  155.2574 N   0  0  0  0  0  0  0  0  0  0  0  0
  150.6870  136.1041  154.0327 H   0  0  0  0  0  0  0  0  0  0  0  0
  150.7569  136.4885  155.7498 H   0  0  0  0  0  0  0  0  0  0  0  0
  152.1479  136.7995  154.7180 H   0  0  0  0  0  0  0  0  0  0  0  0
  150.8654  138.5012  153.4416 H   0  0  0  0  0  0  0  0  0  0  0  0
  149.0077  138.7203  152.4639 H   0  0  0  0  0  0  0  0  0  0  0  0
  146.6402  139.6881  153.5278 H   0  0  0  0  0  0  0  0  0  0  0  0
  146.8171  138.8618  151.9982 H   0  0  0  0  0  0  0  0  0  0  0  0
  146.4546  137.3749  154.6751 H   0  0  0  0  0  0  0  0  0  0  0  0
  145.1289  137.8152  153.6259 H   0  0  0  0  0  0  0  0  0  0  0  0
  144.3849  136.0945  152.1826 H   0  0  0  0  0  0  0  0  0  0  0  0
  145.3747  137.0961  151.1389 H   0  0  0  0  0  0  0  0  0  0  0  0
  144.9191  134.8870  150.0783 H   0  0  0  0  0  0  0  0  0  0  0  0
  146.6299  135.1465  150.3230 H   0  0  0  0  0  0  0  0  0  0  0  0
  144.7903  133.4523  152.0829 H   0  0  0  0  0  0  0  0  0  0  0  0
  146.0525  132.8535  151.0287 H   0  0  0  0  0  0  0  0  0  0  0  0
  146.8049  132.9615  153.4235 H   0  0  0  0  0  0  0  0  0  0  0  0
  147.7902  133.9639  152.3855 H   0  0  0  0  0  0  0  0  0  0  0  0
  147.2171  135.1882  154.4371 H   0  0  0  0  0  0  0  0  0  0  0  0
  145.5041  134.9401  154.1782 H   0  0  0  0  0  0  0  0  0  0  0  0
  152.4197  138.1371  156.6146 H   0  0  0  0  0  0  0  0  0  0  0  0
  151.5426  142.1587  156.4194 H   0  0  0  0  0  0  0  0  0  0  0  0
  147.2818  136.4191  152.3776 H   0  0  0  0  0  0  0  0  0  0  0  0
  1  2  1  0  0  0  0
  1 19  1  0  0  0  0
  1 20  1  0  0  0  0
  1 21  1  0  0  0  0
  2  3  1  0  0  0  0
  2 14  1  0  0  0  0
  2 22  1  0  0  0  0
  3  4  2  0  0  0  0
  3  5  1  0  0  0  0
  5  6  1  0  0  0  0
  5 23  1  0  0  0  0
  6  7  1  0  0  0  0
  6 24  1  0  0  0  0
  6 25  1  0  0  0  0
  7  8  1  0  0  0  0
  7 26  1  0  0  0  0
  7 27  1  0  0  0  0
  8 13  1  0  0  0  0
  8  9  1  0  0  0  0
  8 40  1  0  0  0  0
  9 10  1  0  0  0  0
  9 28  1  0  0  0  0
  9 29  1  0  0  0  0
 10 11  1  0  0  0  0
 10 30  1  0  0  0  0
 10 31  1  0  0  0  0
 11 12  1  0  0  0  0
 11 32  1  0  0  0  0
 11 33  1  0  0  0  0
 12 13  1  0  0  0  0
 12 34  1  0  0  0  0
 12 35  1  0  0  0  0
 13 36  1  0  0  0  0
 13 37  1  0  0  0  0
 14 18  1  0  0  0  0
 14 15  1  0  0  0  0
 15 16  2  0  0  0  0
 15 38  1  0  0  0  0
 16 17  1  0  0  0  0
 17 18  2  0  0  0  0
 17 39  1  0  0  0  0
M  CHG  1   8   1
M  END
> <s_m_source_file>
AV-unprocessed.smi

> <i_m_source_file_index>
3268

> <i_lp_mmshare_version>
43012

> <i_f3d_flags>
0

> <s_epik_input>
bjFbY0hdbltjSF1uMVtDQEhdKFtDSDNdKUMoPU8pW05IXVtDSDJdW0NIMl1OMltDSDJdW0NIMl1bQ0gyXVtDSDJdW0NIMl0y

> <s_epik_cmdline>
J2VwaWtfcHl0aG9uJywgJy1waCcsICc3LjAnLCAnLXRuJywgJzgnLCAnLW1hJywgJzIwMCcsICctbWV0YWxfYmluZGluZycsICctaW1hZScsICc8aW5maWxlLm1hZT4nLCAnLW9tYWUnLCAnPG91dGZpbGUubWFlPic=

> <r_lp_tautomer_probability>
1

> <r_epik_Ionization_Penalty>
0.00266407

> <r_epik_Ionization_Penalty_Charging>
0.00265606

> <r_epik_Ionization_Penalty_Neutral>
8.01095e-06

> <r_epik_State_Penalty>
0.00184955

> <r_epik_Charging_Adjusted_Penalty>
0.00450561

> <i_epik_Tot_Q>
1

> <i_epik_Tot_abs_Q>
1

> <r_epik_Metal_State_Penalty>
-0

> <b_epik_Metal_Only>
0

> <s_lp_Force_Field>
OPLS_2005

> <r_lp_Energy>
21.812

> <b_lp_Chiralities_Consistent>
1

> <s_lp_Variant>
AV-unprocessed.smi:3268-2

> <Gold.Version>
5.8.1

> <Gold.Id.Protein>
6NUR|6NUR_protein|mol2

> <Gold.PLP.Fitness>
43.1890

> <Gold.PLP.PLP>
-29.5548

> <Gold.PLP.part.hbond>
-5.0000

> <Gold.PLP.part.metal>
0.0000

> <Gold.PLP.part.buried>
-3.9740

> <Gold.PLP.part.nonpolar>
-21.1273

> <Gold.PLP.part.repulsive>
0.1690

> <Gold.PLP.ligand.clash>
0.0000

> <Gold.PLP.ligand.torsion>
0.5964

> <Gold.PLP.Chemscore.Hbond>
4.8720

> <Gold.PLP.Chemscore.CHOScore>
0.0000

> <Gold.PLP.Chemscore.Metal>
0.0000

> <Gold.Chemscore.Hbonds>
donor molecule, donor type, donor heavy atom, donor atom, acceptor molecule, acceptor atom, score
      L1  H     5    23       P1  7957  0.88
      L1  H     8    40       P1  7948  2.00
      P1  H  7989  7998       L1    18  0.86
      P1  H  7997  8009       L1    16  0.80

> <Gold.PLP.Chemscore.Internal.Correction>
0.2109

> <Gold.Rescore>
     Score         DG    S(hbond)    S(metal)    S(lipo)     H(rot)  DE(clash)    DE(int)     intcor
     12.55     -14.46       3.13        0.00      43.50       2.57       0.18       1.73       ----

> <Gold.Chemscore.Fitness>
12.5481

> <Gold.Chemscore.DG>
-14.4573

> <Gold.Chemscore.ZeroCoef>
-5.4800

> <Gold.Chemscore.Hbond>
3.1330

> <Gold.Chemscore.Metal>
0.0000

> <Gold.Chemscore.Lipo>
43.5011

> <Gold.Chemscore.Internal_Hbond>
0.0000

> <Gold.Chemscore.DEClash>
0.1812

> <Gold.Chemscore.DEInternal>
1.7280

> <Gold.Chemscore.Rot>
2.5690

> <Gold.Chemscore.Internal.Correction>
   9.000000E+99

> <Gold.Chemscore.Hbonds>
donor molecule, donor type, donor heavy atom, donor atom, acceptor molecule, acceptor atom, score
      L1  H     5    23       P1  7957  0.78
      L1  H     8    40       P1  7948  1.00
      P1  H  7989  7998       L1    18  0.12
      P1  H  7997  8009       L1    16  0.15

> <Gold.Chemscore.Hbond.Weighted>
-10.4642

> <Gold.Chemscore.Metal.Weighted>
-0.0000

> <Gold.Chemscore.Lipo.Weighted>
-5.0896

> <Gold.Chemscore.Internal_Hbond.Weighted>
0.0000

> <Gold.Chemscore.DEClash.Weighted>
0.1812

> <Gold.Chemscore.DEInternal.Weighted>
1.7280

> <Gold.Chemscore.Rot.Weighted>
6.5766

> <Gold.Chemscore.Internal.Correction.Weighted>
   9.000000E+99

> <Gold.Protein.RotatedTorsions>
[ 6907 6896 6895 6894 ] final  159.76 input  -60.11 | X-H torsion
[ 7974 7965 7964 7962 ] final   26.79 input  175.53 | X-H torsion
[ 8008 7997 7996 7995 ] final  177.09 input   59.86 | X-H torsion
[ 10167 10162 10161 10158 ] final  -32.51 input  -65.29 | X-H torsion
[ 10718 10713 10712 10709 ] final  106.97 input   66.30 | X-H torsion
[ 10763 10752 10751 10750 ] final -123.56 input  -60.55 | X-H torsion
[ 11005 11000 10999 10996 ] final   25.22 input  -57.11 | X-H torsion

> <Gold.Protein.ActiveResidues>
 VAL166  LYS551  ARG553  GLY616  TRP617  ASP618  TYR619  PRO620  LYS621  CYS622 
 ASP623  PHE694  ASN695  SER759  ASP760  ASP761  ALA762  ILE779  LEU786  VAL792 
 PHE793  MET794  SER795  GLU796  ALA797  LYS798  CYS799  TRP800  GLU811  SER814 

> <Gold.Protein.RotatedAtoms>
  151.9808  133.3757  159.4106 H   0  0  0  0  0  0  0  0  0  0  0  0  # atno 6907 bound_to 6896
  150.6935  134.4041  159.5141 H   0  0  0  0  0  0  0  0  0  0  0  0  # atno 6908 bound_to 6896
  152.1759  134.8794  160.0581 H   0  0  0  0  0  0  0  0  0  0  0  0  # atno 6909 bound_to 6896
  146.1819  139.7279  142.8894 H   0  0  0  0  0  0  0  0  0  0  0  0  # atno 7974 bound_to 7965
  156.0694  140.1367  156.9847 H   0  0  0  0  0  0  0  0  0  0  0  0  # atno 8008 bound_to 7997
  154.4523  140.0975  156.6707 H   0  0  0  0  0  0  0  0  0  0  0  0  # atno 8009 bound_to 7997
  155.5252  140.3457  155.4417 H   0  0  0  0  0  0  0  0  0  0  0  0  # atno 8010 bound_to 7997
  140.7220  143.3689  151.1816 H   0  0  0  0  0  0  0  0  0  0  0  0  # atno 10167 bound_to 10162
  157.6647  131.0862  150.6086 H   0  0  0  0  0  0  0  0  0  0  0  0  # atno 10718 bound_to 10713
  154.8710  135.4094  154.2963 H   0  0  0  0  0  0  0  0  0  0  0  0  # atno 10763 bound_to 10752
  153.3830  135.7012  153.6556 H   0  0  0  0  0  0  0  0  0  0  0  0  # atno 10764 bound_to 10752
  153.5370  135.3655  155.2673 H   0  0  0  0  0  0  0  0  0  0  0  0  # atno 10765 bound_to 10752
  140.3502  134.2238  155.7681 H   0  0  0  0  0  0  0  0  0  0  0  0  # atno 11005 bound_to 11000
  145.4053  141.0390  143.3048 LP  0  0  0  0  0  0  0  0  0  0  0  0  # atno 17320 bound_to 7965
  144.8329  139.5598  143.6935 LP  0  0  0  0  0  0  0  0  0  0  0  0  # atno 17321 bound_to 7965
  139.7256  143.9153  152.3001 LP  0  0  0  0  0  0  0  0  0  0  0  0  # atno 17342 bound_to 10162
  139.8925  144.6957  150.8755 LP  0  0  0  0  0  0  0  0  0  0  0  0  # atno 17343 bound_to 10162
  156.6387  130.4452  149.5760 LP  0  0  0  0  0  0  0  0  0  0  0  0  # atno 17370 bound_to 10713
  156.2226  130.6746  151.1383 LP  0  0  0  0  0  0  0  0  0  0  0  0  # atno 17371 bound_to 10713
  141.2014  133.7963  157.0441 LP  0  0  0  0  0  0  0  0  0  0  0  0  # atno 17394 bound_to 11000
  140.0710  134.9702  157.1466 LP  0  0  0  0  0  0  0  0  0  0  0  0  # atno 17395 bound_to 11000

$$$$
