AV-unprocessed.smi:1943|AV-procd|sdf|7851|dock9
  -GOLD-   22720 9593D 1   1.00000     0.00000
 Structure written by MMmdl.
 48 49  0  0  0  0  0  0  0  0  2 V2000
  143.6294  132.2659  151.4961 C   0  0  0  0  0  0  0  0  0  0  0  0
  143.9502  133.2177  152.5929 N   0  3  0  0  0  0  0  0  0  0  0  0
  143.0339  134.3869  152.5368 C   0  0  0  0  0  0  0  0  0  0  0  0
  145.4145  133.5378  152.7632 C   0  0  0  0  0  0  0  0  0  0  0  0
  146.1856  132.3195  153.3302 C   0  0  0  0  0  0  0  0  0  0  0  0
  146.0611  133.9206  151.4048 C   0  0  0  0  0  0  0  0  0  0  0  0
  145.5432  134.7685  153.7121 C   0  0  0  0  0  0  0  0  0  0  0  0
  146.9127  135.0391  154.1475 N   0  0  0  0  0  0  0  0  0  0  0  0
  147.4229  134.7507  155.3564 C   0  0  0  0  0  0  0  0  0  0  0  0
  146.7743  134.2211  156.2591 O   0  0  0  0  0  0  0  0  0  0  0  0
  148.8810  135.0756  155.5208 C   0  0  0  0  0  0  0  0  0  0  0  0
  149.3400  136.1798  154.8849 N   0  0  0  0  0  0  0  0  0  0  0  0
  150.6264  136.5184  155.0369 C   0  0  0  0  0  0  0  0  0  0  0  0
  151.0814  137.6590  154.3640 N   0  0  0  0  0  0  0  0  0  0  0  0
  150.1747  138.7212  153.9300 C   0  0  0  0  0  0  0  0  0  0  0  0
  150.1457  139.8381  154.9889 C   0  0  0  0  0  0  0  0  0  0  0  0
  151.4684  140.3307  155.1939 O   0  0  0  0  0  0  0  0  0  0  0  0
  152.3706  139.3152  155.6297 C   0  0  0  0  0  0  0  0  0  0  0  0
  152.4265  138.1910  154.5792 C   0  0  0  0  0  0  0  0  0  0  0  0
  151.5122  135.8443  155.7797 N   0  0  0  0  0  0  0  0  0  0  0  0
  151.0798  134.7407  156.4240 C   0  0  0  0  0  0  0  0  0  0  0  0
  149.7466  134.2970  156.3305 C   0  0  0  0  0  0  0  0  0  0  0  0
  149.2576  132.8566  157.1555 Cl  0  0  0  0  0  0  0  0  0  0  0  0
  143.7622  132.7271  150.5168 H   0  0  0  0  0  0  0  0  0  0  0  0
  142.5881  131.9502  151.5671 H   0  0  0  0  0  0  0  0  0  0  0  0
  144.2302  131.3595  151.5288 H   0  0  0  0  0  0  0  0  0  0  0  0
  143.3016  135.0656  151.7265 H   0  0  0  0  0  0  0  0  0  0  0  0
  143.0274  134.9439  153.4733 H   0  0  0  0  0  0  0  0  0  0  0  0
  142.0056  134.0634  152.3715 H   0  0  0  0  0  0  0  0  0  0  0  0
  147.2616  132.4961  153.3395 H   0  0  0  0  0  0  0  0  0  0  0  0
  146.0218  131.4229  152.7324 H   0  0  0  0  0  0  0  0  0  0  0  0
  145.8961  132.0928  154.3565 H   0  0  0  0  0  0  0  0  0  0  0  0
  147.1004  134.2294  151.5188 H   0  0  0  0  0  0  0  0  0  0  0  0
  145.5307  134.7460  150.9283 H   0  0  0  0  0  0  0  0  0  0  0  0
  146.0804  133.0839  150.7059 H   0  0  0  0  0  0  0  0  0  0  0  0
  145.1868  135.6622  153.1984 H   0  0  0  0  0  0  0  0  0  0  0  0
  144.9088  134.6691  154.5916 H   0  0  0  0  0  0  0  0  0  0  0  0
  147.5294  135.4736  153.4755 H   0  0  0  0  0  0  0  0  0  0  0  0
  150.5386  139.1226  152.9835 H   0  0  0  0  0  0  0  0  0  0  0  0
  149.1684  138.3544  153.7287 H   0  0  0  0  0  0  0  0  0  0  0  0
  149.5098  140.6578  154.6546 H   0  0  0  0  0  0  0  0  0  0  0  0
  149.7310  139.4731  155.9300 H   0  0  0  0  0  0  0  0  0  0  0  0
  153.3590  139.7542  155.7652 H   0  0  0  0  0  0  0  0  0  0  0  0
  152.0569  138.9266  156.6000 H   0  0  0  0  0  0  0  0  0  0  0  0
  153.1396  137.4251  154.8826 H   0  0  0  0  0  0  0  0  0  0  0  0
  152.7992  138.5883  153.6343 H   0  0  0  0  0  0  0  0  0  0  0  0
  151.8074  134.2040  157.0146 H   0  0  0  0  0  0  0  0  0  0  0  0
  143.6931  132.7364  153.4430 H   0  0  0  0  0  0  0  0  0  0  0  0
  1  2  1  0  0  0  0
  1 24  1  0  0  0  0
  1 25  1  0  0  0  0
  1 26  1  0  0  0  0
  2  3  1  0  0  0  0
  2  4  1  0  0  0  0
  2 48  1  0  0  0  0
  3 27  1  0  0  0  0
  3 28  1  0  0  0  0
  3 29  1  0  0  0  0
  4  5  1  0  0  0  0
  4  6  1  0  0  0  0
  4  7  1  0  0  0  0
  5 30  1  0  0  0  0
  5 31  1  0  0  0  0
  5 32  1  0  0  0  0
  6 33  1  0  0  0  0
  6 34  1  0  0  0  0
  6 35  1  0  0  0  0
  7  8  1  0  0  0  0
  7 36  1  0  0  0  0
  7 37  1  0  0  0  0
  8  9  1  0  0  0  0
  8 38  1  0  0  0  0
  9 10  2  0  0  0  0
  9 11  1  0  0  0  0
 11 22  1  0  0  0  0
 11 12  2  0  0  0  0
 12 13  1  0  0  0  0
 13 14  1  0  0  0  0
 13 20  2  0  0  0  0
 14 19  1  0  0  0  0
 14 15  1  0  0  0  0
 15 16  1  0  0  0  0
 15 39  1  0  0  0  0
 15 40  1  0  0  0  0
 16 17  1  0  0  0  0
 16 41  1  0  0  0  0
 16 42  1  0  0  0  0
 17 18  1  0  0  0  0
 18 19  1  0  0  0  0
 18 43  1  0  0  0  0
 18 44  1  0  0  0  0
 19 45  1  0  0  0  0
 19 46  1  0  0  0  0
 20 21  1  0  0  0  0
 21 22  2  0  0  0  0
 21 47  1  0  0  0  0
 22 23  1  0  0  0  0
M  CHG  1   2   1
M  END
> <s_m_source_file>
AV-unprocessed.smi

> <i_m_source_file_index>
1943

> <i_lp_mmshare_version>
43012

> <i_f3d_flags>
0

> <s_epik_input>
W0NIM11OKFtDSDNdKUMoW0NIM10pKFtDSDNdKVtDSDJdW05IXUMoPU8pYzFuYyhuW2NIXWMxQ2wpTjJbQ0gyXVtDSDJdT1tDSDJdW0NIMl0y

> <s_epik_cmdline>
J2VwaWtfcHl0aG9uJywgJy1waCcsICc3LjAnLCAnLXRuJywgJzgnLCAnLW1hJywgJzIwMCcsICctbWV0YWxfYmluZGluZycsICctaW1hZScsICc8aW5maWxlLm1hZT4nLCAnLW9tYWUnLCAnPG91dGZpbGUubWFlPic=

> <r_lp_tautomer_probability>
1

> <r_epik_Ionization_Penalty>
0.00747112

> <r_epik_Ionization_Penalty_Charging>
0.00734137

> <r_epik_Ionization_Penalty_Neutral>
0.000129757

> <r_epik_State_Penalty>
0.00547931

> <r_epik_Charging_Adjusted_Penalty>
0.0128207

> <i_epik_Tot_Q>
1

> <i_epik_Tot_abs_Q>
1

> <r_epik_Metal_State_Penalty>
0.0979204

> <b_epik_Metal_Only>
0

> <s_lp_Force_Field>
OPLS_2005

> <r_lp_Energy>
30.7364

> <b_lp_Chiralities_Consistent>
1

> <s_lp_Variant>
AV-unprocessed.smi:1943-1

> <Gold.Version>
5.8.1

> <Gold.Id.Protein>
6NUR|6NUR_protein|mol2

> <Gold.PLP.Fitness>
42.5369

> <Gold.PLP.PLP>
-32.0020

> <Gold.PLP.part.hbond>
-3.3031

> <Gold.PLP.part.metal>
0.0000

> <Gold.PLP.part.buried>
-5.7438

> <Gold.PLP.part.nonpolar>
-27.0164

> <Gold.PLP.part.repulsive>
1.4651

> <Gold.PLP.ligand.clash>
0.0000

> <Gold.PLP.ligand.torsion>
1.1937

> <Gold.PLP.Chemscore.Hbond>
4.2059

> <Gold.PLP.Chemscore.CHOScore>
0.0000

> <Gold.PLP.Chemscore.Metal>
0.0000

> <Gold.Chemscore.Hbonds>
donor molecule, donor type, donor heavy atom, donor atom, acceptor molecule, acceptor atom, score
      L1  H     2    48       P1 10957  2.00
      L1  H     8    38       P1  7948  0.39
      P1  H  7989  7998       L1    17  0.67
      P1  H 10752 10763       L1    20  1.00

> <Gold.PLP.Chemscore.Internal.Correction>
0.3049

> <Gold.Rescore>
     Score         DG    S(hbond)    S(metal)    S(lipo)     H(rot)  DE(clash)    DE(int)     intcor
     13.87     -17.36       2.02        0.00      75.19       1.43       1.39       2.10       ----

> <Gold.Chemscore.Fitness>
13.8708

> <Gold.Chemscore.DG>
-17.3576

> <Gold.Chemscore.ZeroCoef>
-5.4800

> <Gold.Chemscore.Hbond>
2.0182

> <Gold.Chemscore.Metal>
0.0000

> <Gold.Chemscore.Lipo>
75.1884

> <Gold.Chemscore.Internal_Hbond>
0.0000

> <Gold.Chemscore.DEClash>
1.3866

> <Gold.Chemscore.DEInternal>
2.1001

> <Gold.Chemscore.Rot>
1.4298

> <Gold.Chemscore.Internal.Correction>
   9.000000E+99

> <Gold.Chemscore.Hbonds>
donor molecule, donor type, donor heavy atom, donor atom, acceptor molecule, acceptor atom, score
      L1  H     2    48       P1 10957  0.55
      L1  H     8    38       P1  7948  0.39
      P1  H  7989  7998       L1    17  0.06
      P1  H 10752 10763       L1    20  0.57

> <Gold.Chemscore.Hbond.Weighted>
-6.7409

> <Gold.Chemscore.Metal.Weighted>
-0.0000

> <Gold.Chemscore.Lipo.Weighted>
-8.7970

> <Gold.Chemscore.Internal_Hbond.Weighted>
0.0000

> <Gold.Chemscore.DEClash.Weighted>
1.3866

> <Gold.Chemscore.DEInternal.Weighted>
2.1001

> <Gold.Chemscore.Rot.Weighted>
3.6604

> <Gold.Chemscore.Internal.Correction.Weighted>
   9.000000E+99

> <Gold.Protein.RotatedTorsions>
[ 6907 6896 6895 6894 ] final   71.57 input  -60.11 | X-H torsion
[ 7974 7965 7964 7962 ] final   12.93 input  175.53 | X-H torsion
[ 8008 7997 7996 7995 ] final   50.80 input   59.86 | X-H torsion
[ 10167 10162 10161 10158 ] final  -30.26 input  -65.29 | X-H torsion
[ 10718 10713 10712 10709 ] final   75.85 input   66.30 | X-H torsion
[ 10763 10752 10751 10750 ] final   70.82 input  -60.55 | X-H torsion
[ 11005 11000 10999 10996 ] final   84.30 input  -57.11 | X-H torsion

> <Gold.Protein.ActiveResidues>
 VAL166  LYS551  ARG553  GLY616  TRP617  ASP618  TYR619  PRO620  LYS621  CYS622 
 ASP623  PHE694  ASN695  SER759  ASP760  ASP761  ALA762  ILE779  LEU786  VAL792 
 PHE793  MET794  SER795  GLU796  ALA797  LYS798  CYS799  TRP800  GLU811  SER814 

> <Gold.Protein.RotatedAtoms>
  152.4818  134.4701  159.9632 H   0  0  0  0  0  0  0  0  0  0  0  0  # atno 6907 bound_to 6896
  151.4705  133.3564  159.2830 H   0  0  0  0  0  0  0  0  0  0  0  0  # atno 6908 bound_to 6896
  150.8896  134.8323  159.7344 H   0  0  0  0  0  0  0  0  0  0  0  0  # atno 6909 bound_to 6896
  146.2340  139.9263  142.8502 H   0  0  0  0  0  0  0  0  0  0  0  0  # atno 7974 bound_to 7965
  155.4248  140.3448  155.4274 H   0  0  0  0  0  0  0  0  0  0  0  0  # atno 8008 bound_to 7997
  156.1371  140.1531  156.9008 H   0  0  0  0  0  0  0  0  0  0  0  0  # atno 8009 bound_to 7997
  154.4941  140.0833  156.7638 H   0  0  0  0  0  0  0  0  0  0  0  0  # atno 8010 bound_to 7997
  140.7251  143.3863  151.1510 H   0  0  0  0  0  0  0  0  0  0  0  0  # atno 10167 bound_to 10162
  157.6650  130.9746  150.1413 H   0  0  0  0  0  0  0  0  0  0  0  0  # atno 10718 bound_to 10713
  153.0363  135.5159  154.7500 H   0  0  0  0  0  0  0  0  0  0  0  0  # atno 10763 bound_to 10752
  154.6473  135.2920  155.0032 H   0  0  0  0  0  0  0  0  0  0  0  0  # atno 10764 bound_to 10752
  154.0929  135.6647  153.4908 H   0  0  0  0  0  0  0  0  0  0  0  0  # atno 10765 bound_to 10752
  139.9004  134.8207  156.2427 H   0  0  0  0  0  0  0  0  0  0  0  0  # atno 11005 bound_to 11000
  145.2087  140.9886  143.4113 LP  0  0  0  0  0  0  0  0  0  0  0  0  # atno 17320 bound_to 7965
  144.9710  139.3880  143.6309 LP  0  0  0  0  0  0  0  0  0  0  0  0  # atno 17321 bound_to 7965
  139.7460  143.8851  152.3064 LP  0  0  0  0  0  0  0  0  0  0  0  0  # atno 17342 bound_to 10162
  139.8688  144.7079  150.9012 LP  0  0  0  0  0  0  0  0  0  0  0  0  # atno 17343 bound_to 10162
  156.2235  130.3676  149.8528 LP  0  0  0  0  0  0  0  0  0  0  0  0  # atno 17370 bound_to 10713
  156.6375  130.8691  151.3507 LP  0  0  0  0  0  0  0  0  0  0  0  0  # atno 17371 bound_to 10713
  141.0274  133.7007  156.1372 LP  0  0  0  0  0  0  0  0  0  0  0  0  # atno 17394 bound_to 11000
  140.7145  134.4425  157.5579 LP  0  0  0  0  0  0  0  0  0  0  0  0  # atno 17395 bound_to 11000

$$$$
