AV-unprocessed.smi:1691|AV-procd|sdf|6775|dock8
  -GOLD-   22720 7533D 1   1.00000     0.00000
 Structure written by MMmdl.
 44 45  0  0  0  0  0  0  0  0  2 V2000
  150.1920  132.8875  156.2204 C   0  0  0  0  0  0  0  0  0  0  0  0
  150.1109  134.4139  156.0166 C   0  0  0  0  0  0  0  0  0  0  0  0
  149.4690  135.0477  157.2659 C   0  0  0  0  0  0  0  0  0  0  0  0
  149.3727  134.7861  154.6967 C   0  0  1  0  0  0  0  0  0  0  0  0
  147.8955  134.2992  154.6798 C   0  0  0  0  0  0  0  0  0  0  0  0
  147.3362  134.1981  153.3347 N   0  0  0  0  0  0  0  0  0  0  0  0
  146.2505  133.4905  152.9918 C   0  0  0  0  0  0  0  0  0  0  0  0
  145.5876  132.8287  153.7902 O   0  0  0  0  0  0  0  0  0  0  0  0
  145.9835  133.6123  151.6817 N   0  0  0  0  0  0  0  0  0  0  0  0
  144.9060  133.0285  150.9700 C   0  0  0  0  0  0  0  0  0  0  0  0
  144.8405  132.6240  149.6043 C   0  0  0  0  0  0  0  0  0  0  0  0
  143.6519  132.1164  149.3113 N   0  0  0  0  0  0  0  0  0  0  0  0
  142.9603  132.1939  150.4703 N   0  0  0  0  0  0  0  0  0  0  0  0
  143.6853  132.7429  151.5048 C   0  0  0  0  0  0  0  0  0  0  0  0
  149.5362  136.2489  154.4202 N   0  3  0  0  0  0  0  0  0  0  0  0
  148.4782  137.1284  154.9755 C   0  0  0  0  0  0  0  0  0  0  0  0
  148.6291  138.5489  154.4062 C   0  0  0  0  0  0  0  0  0  0  0  0
  149.9325  139.0431  154.6924 O   0  0  0  0  0  0  0  0  0  0  0  0
  150.9514  138.2510  154.0923 C   0  0  0  0  0  0  0  0  0  0  0  0
  150.8874  136.8193  154.6489 C   0  0  0  0  0  0  0  0  0  0  0  0
  142.0050  131.8720  150.5379 H   0  0  0  0  0  0  0  0  0  0  0  0
  149.1987  132.4380  156.2439 H   0  0  0  0  0  0  0  0  0  0  0  0
  150.6864  132.6423  157.1609 H   0  0  0  0  0  0  0  0  0  0  0  0
  150.7621  132.3981  155.4308 H   0  0  0  0  0  0  0  0  0  0  0  0
  151.1332  134.7892  155.9615 H   0  0  0  0  0  0  0  0  0  0  0  0
  148.4084  134.8035  157.3357 H   0  0  0  0  0  0  0  0  0  0  0  0
  149.5683  136.1327  157.2714 H   0  0  0  0  0  0  0  0  0  0  0  0
  149.9489  134.6911  158.1779 H   0  0  0  0  0  0  0  0  0  0  0  0
  149.8933  134.2508  153.9008 H   0  0  0  0  0  0  0  0  0  0  0  0
  147.8248  133.2953  155.0958 H   0  0  0  0  0  0  0  0  0  0  0  0
  147.2852  134.9322  155.3257 H   0  0  0  0  0  0  0  0  0  0  0  0
  147.8188  134.7030  152.6055 H   0  0  0  0  0  0  0  0  0  0  0  0
  146.6100  134.1872  151.1378 H   0  0  0  0  0  0  0  0  0  0  0  0
  145.5895  132.6759  148.8281 H   0  0  0  0  0  0  0  0  0  0  0  0
  143.2807  132.8760  152.4972 H   0  0  0  0  0  0  0  0  0  0  0  0
  147.4928  136.7367  154.7216 H   0  0  0  0  0  0  0  0  0  0  0  0
  148.5392  137.1699  156.0620 H   0  0  0  0  0  0  0  0  0  0  0  0
  148.4521  138.5582  153.3295 H   0  0  0  0  0  0  0  0  0  0  0  0
  147.8915  139.2142  154.8557 H   0  0  0  0  0  0  0  0  0  0  0  0
  150.8388  138.2526  153.0068 H   0  0  0  0  0  0  0  0  0  0  0  0
  151.9214  138.6968  154.3129 H   0  0  0  0  0  0  0  0  0  0  0  0
  151.1189  136.8404  155.7126 H   0  0  0  0  0  0  0  0  0  0  0  0
  151.6465  136.2041  154.1665 H   0  0  0  0  0  0  0  0  0  0  0  0
  149.3972  136.3142  153.4219 H   0  0  0  0  0  0  0  0  0  0  0  0
  1  2  1  0  0  0  0
  1 22  1  0  0  0  0
  1 23  1  0  0  0  0
  1 24  1  0  0  0  0
  2  3  1  0  0  0  0
  2  4  1  0  0  0  0
  2 25  1  0  0  0  0
  3 26  1  0  0  0  0
  3 27  1  0  0  0  0
  3 28  1  0  0  0  0
  4  5  1  0  0  0  0
  4 15  1  0  0  0  0
  4 29  1  0  0  0  0
  5  6  1  0  0  0  0
  5 30  1  0  0  0  0
  5 31  1  0  0  0  0
  6  7  1  0  0  0  0
  6 32  1  0  0  0  0
  7  8  2  0  0  0  0
  7  9  1  0  0  0  0
  9 10  1  0  0  0  0
  9 33  1  0  0  0  0
 10 14  2  0  0  0  0
 10 11  1  0  0  0  0
 11 12  2  0  0  0  0
 11 34  1  0  0  0  0
 12 13  1  0  0  0  0
 13 21  1  0  0  0  0
 13 14  1  0  0  0  0
 14 35  1  0  0  0  0
 15 20  1  0  0  0  0
 15 16  1  0  0  0  0
 15 44  1  0  0  0  0
 16 17  1  0  0  0  0
 16 36  1  0  0  0  0
 16 37  1  0  0  0  0
 17 18  1  0  0  0  0
 17 38  1  0  0  0  0
 17 39  1  0  0  0  0
 18 19  1  0  0  0  0
 19 20  1  0  0  0  0
 19 40  1  0  0  0  0
 19 41  1  0  0  0  0
 20 42  1  0  0  0  0
 20 43  1  0  0  0  0
M  CHG  1  15   1
M  END
> <s_m_source_file>
AV-unprocessed.smi

> <i_m_source_file_index>
1691

> <i_lp_mmshare_version>
43012

> <i_f3d_flags>
0

> <s_epik_input>
W0NIMl0xW0NIMl1PW0NIMl1bQ0gyXU4xW0NASF0oW0NIXShbQ0gzXSlbQ0gzXSlbQ0gyXVtOSF1DKD1PKVtOSF1jMltjSF1uW25IXVtjSF0y

> <s_epik_cmdline>
J2VwaWtfcHl0aG9uJywgJy1waCcsICc3LjAnLCAnLXRuJywgJzgnLCAnLW1hJywgJzIwMCcsICctbWV0YWxfYmluZGluZycsICctaW1hZScsICc8aW5maWxlLm1hZT4nLCAnLW9tYWUnLCAnPG91dGZpbGUubWFlPic=

> <r_lp_tautomer_probability>
0.5

> <r_epik_Ionization_Penalty>
0.363378

> <r_epik_Ionization_Penalty_Charging>
0.363339

> <r_epik_Ionization_Penalty_Neutral>
3.97246e-05

> <r_epik_State_Penalty>
0.36031

> <r_epik_Charging_Adjusted_Penalty>
0.723649

> <i_epik_Tot_Q>
1

> <i_epik_Tot_abs_Q>
1

> <r_epik_Metal_State_Penalty>
0.360311

> <b_epik_Metal_Only>
0

> <s_lp_Force_Field>
OPLS_2005

> <r_lp_Energy>
33.682

> <b_lp_Chiralities_Consistent>
1

> <s_lp_Variant>
AV-unprocessed.smi:1691-2

> <Gold.Version>
5.8.1

> <Gold.Id.Protein>
6NUR|6NUR_protein|mol2

> <Gold.PLP.Fitness>
42.7543

> <Gold.PLP.PLP>
-27.7655

> <Gold.PLP.part.hbond>
-4.6540

> <Gold.PLP.part.metal>
0.0000

> <Gold.PLP.part.buried>
-5.3395

> <Gold.PLP.part.nonpolar>
-19.2516

> <Gold.PLP.part.repulsive>
0.6776

> <Gold.PLP.ligand.clash>
0.0000

> <Gold.PLP.ligand.torsion>
0.9327

> <Gold.PLP.Chemscore.Hbond>
4.3991

> <Gold.PLP.Chemscore.CHOScore>
1.1226

> <Gold.PLP.Chemscore.Metal>
0.0000

> <Gold.Chemscore.Hbonds>
donor molecule, donor type, donor heavy atom, donor atom, acceptor molecule, acceptor atom, score
      L1  H     6    32       P1  7948  1.00
      L1  H    13    21       P1 10952  0.53
      L1  H    15    44       P1  7948  2.00
      P1  H 10785 10796       L1    12  0.74
      L1  C    11    34       P1  7921  0.36
      L1  C    14    35       P1 10957  0.72

> <Gold.PLP.Chemscore.Internal.Correction>
0.2893

> <Gold.Rescore>
     Score         DG    S(hbond)    S(metal)    S(lipo)     H(rot)  DE(clash)    DE(int)     intcor
     15.69     -17.64       2.70        0.00      67.02       1.84       0.16       1.78       ----

> <Gold.Chemscore.Fitness>
15.6925

> <Gold.Chemscore.DG>
-17.6372

> <Gold.Chemscore.ZeroCoef>
-5.4800

> <Gold.Chemscore.Hbond>
2.7043

> <Gold.Chemscore.Metal>
0.0000

> <Gold.Chemscore.Lipo>
67.0217

> <Gold.Chemscore.Internal_Hbond>
0.0000

> <Gold.Chemscore.DEClash>
0.1645

> <Gold.Chemscore.DEInternal>
1.7802

> <Gold.Chemscore.Rot>
1.8425

> <Gold.Chemscore.Internal.Correction>
   9.000000E+99

> <Gold.Chemscore.Hbonds>
donor molecule, donor type, donor heavy atom, donor atom, acceptor molecule, acceptor atom, score
      L1  H     6    32       P1  7948  0.77
      L1  H    13    21       P1 10952  0.16
      L1  H    15    44       P1  7948  0.73
      P1  H 10785 10796       L1    12  0.21

> <Gold.Chemscore.Hbond.Weighted>
-9.0325

> <Gold.Chemscore.Metal.Weighted>
-0.0000

> <Gold.Chemscore.Lipo.Weighted>
-7.8415

> <Gold.Chemscore.Internal_Hbond.Weighted>
0.0000

> <Gold.Chemscore.DEClash.Weighted>
0.1645

> <Gold.Chemscore.DEInternal.Weighted>
1.7802

> <Gold.Chemscore.Rot.Weighted>
4.7168

> <Gold.Chemscore.Internal.Correction.Weighted>
   9.000000E+99

> <Gold.Protein.RotatedTorsions>
[ 6907 6896 6895 6894 ] final  120.70 input  -60.11 | X-H torsion
[ 7974 7965 7964 7962 ] final   95.47 input  175.53 | X-H torsion
[ 8008 7997 7996 7995 ] final  -62.22 input   59.86 | X-H torsion
[ 10167 10162 10161 10158 ] final  -35.00 input  -65.29 | X-H torsion
[ 10718 10713 10712 10709 ] final  121.80 input   66.30 | X-H torsion
[ 10763 10752 10751 10750 ] final  -78.84 input  -60.55 | X-H torsion
[ 11005 11000 10999 10996 ] final   69.98 input  -57.11 | X-H torsion

> <Gold.Protein.ActiveResidues>
 VAL166  LYS551  ARG553  GLY616  TRP617  ASP618  TYR619  PRO620  LYS621  CYS622 
 ASP623  PHE694  ASN695  SER759  ASP760  ASP761  ALA762  ILE779  LEU786  VAL792 
 PHE793  MET794  SER795  GLU796  ALA797  LYS798  CYS799  TRP800  GLU811  SER814 

> <Gold.Protein.RotatedAtoms>
  152.4378  133.7393  159.6631 H   0  0  0  0  0  0  0  0  0  0  0  0  # atno 6907 bound_to 6896
  150.8264  133.8154  159.3123 H   0  0  0  0  0  0  0  0  0  0  0  0  # atno 6908 bound_to 6896
  151.5821  135.1060  160.0071 H   0  0  0  0  0  0  0  0  0  0  0  0  # atno 6909 bound_to 6896
  145.4518  139.2293  143.3035 H   0  0  0  0  0  0  0  0  0  0  0  0  # atno 7974 bound_to 7965
  154.4488  140.1001  156.6553 H   0  0  0  0  0  0  0  0  0  0  0  0  # atno 8008 bound_to 7997
  155.5353  140.3482  155.4416 H   0  0  0  0  0  0  0  0  0  0  0  0  # atno 8009 bound_to 7997
  156.0635  140.1332  156.9902 H   0  0  0  0  0  0  0  0  0  0  0  0  # atno 8010 bound_to 7997
  140.7174  143.3508  151.2159 H   0  0  0  0  0  0  0  0  0  0  0  0  # atno 10167 bound_to 10162
  157.5790  131.1076  150.8223 H   0  0  0  0  0  0  0  0  0  0  0  0  # atno 10718 bound_to 10713
  154.5311  135.5716  153.6759 H   0  0  0  0  0  0  0  0  0  0  0  0  # atno 10763 bound_to 10752
  152.9939  135.6205  154.2628 H   0  0  0  0  0  0  0  0  0  0  0  0  # atno 10764 bound_to 10752
  154.2554  135.2858  155.2779 H   0  0  0  0  0  0  0  0  0  0  0  0  # atno 10765 bound_to 10752
  139.9623  134.7040  156.0619 H   0  0  0  0  0  0  0  0  0  0  0  0  # atno 11005 bound_to 11000
  146.2500  140.5278  142.8897 LP  0  0  0  0  0  0  0  0  0  0  0  0  # atno 17320 bound_to 7965
  144.8057  140.6294  143.6449 LP  0  0  0  0  0  0  0  0  0  0  0  0  # atno 17321 bound_to 7965
  139.7039  143.9488  152.2918 LP  0  0  0  0  0  0  0  0  0  0  0  0  # atno 17342 bound_to 10162
  139.9190  144.6811  150.8481 LP  0  0  0  0  0  0  0  0  0  0  0  0  # atno 17343 bound_to 10162
  156.8674  130.5134  149.5299 LP  0  0  0  0  0  0  0  0  0  0  0  0  # atno 17370 bound_to 10713
  156.0835  130.5840  150.9607 LP  0  0  0  0  0  0  0  0  0  0  0  0  # atno 17371 bound_to 10713
  141.1301  133.6589  156.3441 LP  0  0  0  0  0  0  0  0  0  0  0  0  # atno 17394 bound_to 11000
  140.5473  134.6062  157.5397 LP  0  0  0  0  0  0  0  0  0  0  0  0  # atno 17395 bound_to 11000

$$$$
