AV-unprocessed.smi:311|AV-procd|sdf|2303|dock8
  -GOLD-   2262022203D 1   1.00000     0.00000
 Structure written by MMmdl.
 44 46  0  0  0  0  0  0  0  0  2 V2000
  147.0776  129.4540  156.0204 C   0  0  0  0  0  0  0  0  0  0  0  0
  147.2306  128.7259  154.7158 C   0  0  0  0  0  0  0  0  0  0  0  0
  146.3193  127.8385  154.3545 N   0  0  0  0  0  0  0  0  0  0  0  0
  146.7342  127.3459  153.1136 O   0  0  0  0  0  0  0  0  0  0  0  0
  147.8927  127.9648  152.7721 C   0  0  0  0  0  0  0  0  0  0  0  0
  148.4970  127.5852  151.4628 C   0  0  0  0  0  0  0  0  0  0  0  0
  148.2631  128.8546  153.7428 C   0  0  0  0  0  0  0  0  0  0  0  0
  149.4616  129.7693  153.7702 C   0  0  0  0  0  0  0  0  0  0  0  0
  148.9819  131.2166  153.8686 C   0  0  0  0  0  0  0  0  0  0  0  0
  149.1567  131.8585  154.9037 O   0  0  0  0  0  0  0  0  0  0  0  0
  148.4131  131.7310  152.7677 N   0  0  0  0  0  0  0  0  0  0  0  0
  148.0325  133.1296  152.6013 C   0  0  2  0  0  0  0  0  0  0  0  0
  147.3343  133.7182  153.8350 C   0  0  0  0  0  0  0  0  0  0  0  0
  146.3290  134.7426  153.2783 C   0  0  0  0  0  0  0  0  0  0  0  0
  146.4624  134.6926  151.8053 N   0  3  2  0  0  0  0  0  0  0  0  0
  145.2773  135.1200  151.0182 C   0  0  0  0  0  0  0  0  0  0  0  0
  144.1915  134.0336  150.9398 C   0  0  0  0  0  0  0  0  0  0  0  0
  144.7816  132.7155  150.4289 C   0  0  0  0  0  0  0  0  0  0  0  0
  145.9265  132.2761  151.3467 C   0  0  0  0  0  0  0  0  0  0  0  0
  147.0237  133.3669  151.4631 C   0  0  2  0  0  0  0  0  0  0  0  0
  146.0442  129.4430  156.3686 H   0  0  0  0  0  0  0  0  0  0  0  0
  147.3802  130.4968  155.9269 H   0  0  0  0  0  0  0  0  0  0  0  0
  147.6943  128.9971  156.7943 H   0  0  0  0  0  0  0  0  0  0  0  0
  148.4153  128.4063  150.7506 H   0  0  0  0  0  0  0  0  0  0  0  0
  147.9980  126.7151  151.0355 H   0  0  0  0  0  0  0  0  0  0  0  0
  149.5534  127.3440  151.5807 H   0  0  0  0  0  0  0  0  0  0  0  0
  150.1179  129.5516  154.6134 H   0  0  0  0  0  0  0  0  0  0  0  0
  150.0700  129.6522  152.8725 H   0  0  0  0  0  0  0  0  0  0  0  0
  148.3058  131.1273  151.9654 H   0  0  0  0  0  0  0  0  0  0  0  0
  148.9278  133.7238  152.4054 H   0  0  0  0  0  0  0  0  0  0  0  0
  146.7992  132.9443  154.3880 H   0  0  0  0  0  0  0  0  0  0  0  0
  148.0494  134.1749  154.5202 H   0  0  0  0  0  0  0  0  0  0  0  0
  145.3179  134.4764  153.5887 H   0  0  0  0  0  0  0  0  0  0  0  0
  146.5322  135.7518  153.6376 H   0  0  0  0  0  0  0  0  0  0  0  0
  144.8715  136.0431  151.4341 H   0  0  0  0  0  0  0  0  0  0  0  0
  145.6161  135.3586  150.0092 H   0  0  0  0  0  0  0  0  0  0  0  0
  143.7389  133.8809  151.9200 H   0  0  0  0  0  0  0  0  0  0  0  0
  143.3877  134.3609  150.2796 H   0  0  0  0  0  0  0  0  0  0  0  0
  144.0107  131.9450  150.3954 H   0  0  0  0  0  0  0  0  0  0  0  0
  145.1477  132.8386  149.4088 H   0  0  0  0  0  0  0  0  0  0  0  0
  145.5201  132.0410  152.3312 H   0  0  0  0  0  0  0  0  0  0  0  0
  146.3552  131.3490  150.9654 H   0  0  0  0  0  0  0  0  0  0  0  0
  147.5429  133.4427  150.5066 H   0  0  0  0  0  0  0  0  0  0  0  0
  147.1943  135.3552  151.5920 H   0  0  0  0  0  0  0  0  0  0  0  0
  1  2  1  0  0  0  0
  1 21  1  0  0  0  0
  1 22  1  0  0  0  0
  1 23  1  0  0  0  0
  2  7  1  0  0  0  0
  2  3  2  0  0  0  0
  3  4  1  0  0  0  0
  4  5  1  0  0  0  0
  5  6  1  0  0  0  0
  5  7  2  0  0  0  0
  6 24  1  0  0  0  0
  6 25  1  0  0  0  0
  6 26  1  0  0  0  0
  7  8  1  0  0  0  0
  8  9  1  0  0  0  0
  8 27  1  0  0  0  0
  8 28  1  0  0  0  0
  9 10  2  0  0  0  0
  9 11  1  0  0  0  0
 11 12  1  0  0  0  0
 11 29  1  0  0  0  0
 12 20  1  0  0  0  0
 12 13  1  0  0  0  0
 12 30  1  0  0  0  0
 13 14  1  0  0  0  0
 13 31  1  0  0  0  0
 13 32  1  0  0  0  0
 14 15  1  0  0  0  0
 14 33  1  0  0  0  0
 14 34  1  0  0  0  0
 15 20  1  0  0  0  0
 15 16  1  0  0  0  0
 15 44  1  0  0  0  0
 16 17  1  0  0  0  0
 16 35  1  0  0  0  0
 16 36  1  0  0  0  0
 17 18  1  0  0  0  0
 17 37  1  0  0  0  0
 17 38  1  0  0  0  0
 18 19  1  0  0  0  0
 18 39  1  0  0  0  0
 18 40  1  0  0  0  0
 19 20  1  0  0  0  0
 19 41  1  0  0  0  0
 19 42  1  0  0  0  0
 20 43  1  0  0  0  0
M  CHG  1  15   1
M  END
> <s_m_source_file>
AV-unprocessed.smi

> <i_m_source_file_index>
311

> <i_lp_mmshare_version>
43012

> <i_f3d_flags>
0

> <s_epik_input>
W0NIM11jMW5vYyhbQ0gzXSljMVtDSDJdQyg9TylbTkhdW0NASF0oW0NIMl1bQ0gyXTIpW0NAQEhdKE4yMylbQ0gyXVtDSDJdW0NIMl1bQ0gyXTM=

> <s_epik_cmdline>
J2VwaWtfcHl0aG9uJywgJy1waCcsICc3LjAnLCAnLXRuJywgJzgnLCAnLW1hJywgJzIwMCcsICctbWV0YWxfYmluZGluZycsICctaW1hZScsICc8aW5maWxlLm1hZT4nLCAnLW9tYWUnLCAnPG91dGZpbGUubWFlPic=

> <r_epik_Ionization_Penalty>
0.00173669

> <r_epik_Ionization_Penalty_Charging>
0.0017366

> <r_epik_Ionization_Penalty_Neutral>
9.2145e-08

> <r_epik_State_Penalty>
0.00117499

> <r_epik_Charging_Adjusted_Penalty>
0.00291159

> <i_epik_Tot_Q>
1

> <i_epik_Tot_abs_Q>
1

> <r_epik_Metal_State_Penalty>
-0

> <b_epik_Metal_Only>
0

> <s_lp_Force_Field>
OPLS_2005

> <r_lp_Energy>
29.2013

> <b_lp_Chiralities_Consistent>
1

> <s_lp_Variant>
AV-unprocessed.smi:311-7

> <Gold.Version>
5.8.1

> <Gold.Id.Protein>
6NUR|6NUR_protein|mol2

> <Gold.PLP.Fitness>
41.4559

> <Gold.PLP.PLP>
-33.3975

> <Gold.PLP.part.hbond>
-2.6016

> <Gold.PLP.part.metal>
0.0000

> <Gold.PLP.part.buried>
-5.8482

> <Gold.PLP.part.nonpolar>
-25.1409

> <Gold.PLP.part.repulsive>
0.1721

> <Gold.PLP.ligand.clash>
0.0000

> <Gold.PLP.ligand.torsion>
0.3411

> <Gold.PLP.Chemscore.Hbond>
2.9120

> <Gold.PLP.Chemscore.CHOScore>
0.0000

> <Gold.PLP.Chemscore.Metal>
0.0000

> <Gold.Chemscore.Hbonds>
donor molecule, donor type, donor heavy atom, donor atom, acceptor molecule, acceptor atom, score
      L1  H    11    29       P1 10747  0.82
      L1  H    15    44       P1  7948  2.00

> <Gold.PLP.Chemscore.Internal.Correction>
0.0045

> <Gold.Rescore>
     Score         DG    S(hbond)    S(metal)    S(lipo)     H(rot)  DE(clash)    DE(int)     intcor
     15.88     -17.60       1.92        0.00      78.46       1.36       0.06       1.66       ----

> <Gold.Chemscore.Fitness>
15.8837

> <Gold.Chemscore.DG>
-17.6040

> <Gold.Chemscore.ZeroCoef>
-5.4800

> <Gold.Chemscore.Hbond>
1.9212

> <Gold.Chemscore.Metal>
0.0000

> <Gold.Chemscore.Lipo>
78.4631

> <Gold.Chemscore.Internal_Hbond>
0.0000

> <Gold.Chemscore.DEClash>
0.0639

> <Gold.Chemscore.DEInternal>
1.6563

> <Gold.Chemscore.Rot>
1.3567

> <Gold.Chemscore.Internal.Correction>
   9.000000E+99

> <Gold.Chemscore.Hbonds>
donor molecule, donor type, donor heavy atom, donor atom, acceptor molecule, acceptor atom, score
      L1  H    11    29       P1 10747  0.81
      L1  H    15    44       P1  7948  0.94

> <Gold.Chemscore.Hbond.Weighted>
-6.4169

> <Gold.Chemscore.Metal.Weighted>
-0.0000

> <Gold.Chemscore.Lipo.Weighted>
-9.1802

> <Gold.Chemscore.Internal_Hbond.Weighted>
0.0000

> <Gold.Chemscore.DEClash.Weighted>
0.0639

> <Gold.Chemscore.DEInternal.Weighted>
1.6563

> <Gold.Chemscore.Rot.Weighted>
3.4731

> <Gold.Chemscore.Internal.Correction.Weighted>
   9.000000E+99

> <Gold.Protein.RotatedTorsions>
[ 6907 6896 6895 6894 ] final   97.66 input  -60.11 | X-H torsion
[ 7974 7965 7964 7962 ] final -179.35 input  175.53 | X-H torsion
[ 8008 7997 7996 7995 ] final -157.49 input   59.86 | X-H torsion
[ 10167 10162 10161 10158 ] final -106.24 input  -65.29 | X-H torsion
[ 10718 10713 10712 10709 ] final  -15.88 input   66.30 | X-H torsion
[ 10763 10752 10751 10750 ] final  -96.96 input  -60.55 | X-H torsion
[ 11005 11000 10999 10996 ] final  119.73 input  -57.11 | X-H torsion

> <Gold.Protein.ActiveResidues>
 VAL166  LYS551  ARG553  GLY616  TRP617  ASP618  TYR619  PRO620  LYS621  CYS622 
 ASP623  PHE694  ASN695  SER759  ASP760  ASP761  ALA762  ILE779  LEU786  VAL792 
 PHE793  MET794  SER795  GLU796  ALA797  LYS798  CYS799  TRP800  GLU811  SER814 

> <Gold.Protein.RotatedAtoms>
  152.5420  134.0699  159.8189 H   0  0  0  0  0  0  0  0  0  0  0  0  # atno 6907 bound_to 6896
  151.0815  133.5379  159.2627 H   0  0  0  0  0  0  0  0  0  0  0  0  # atno 6908 bound_to 6896
  151.2204  135.0525  159.9001 H   0  0  0  0  0  0  0  0  0  0  0  0  # atno 6909 bound_to 6896
  144.7136  140.0730  143.6428 H   0  0  0  0  0  0  0  0  0  0  0  0  # atno 7974 bound_to 7965
  155.7332  140.0804  157.2279 H   0  0  0  0  0  0  0  0  0  0  0  0  # atno 8008 bound_to 7997
  154.4030  140.1591  156.2587 H   0  0  0  0  0  0  0  0  0  0  0  0  # atno 8009 bound_to 7997
  155.9089  140.3405  155.6086 H   0  0  0  0  0  0  0  0  0  0  0  0  # atno 8010 bound_to 7997
  140.1899  143.3900  152.1215 H   0  0  0  0  0  0  0  0  0  0  0  0  # atno 10167 bound_to 10162
  156.5954  130.4810  149.6262 H   0  0  0  0  0  0  0  0  0  0  0  0  # atno 10718 bound_to 10713
  154.7286  135.5064  153.8927 H   0  0  0  0  0  0  0  0  0  0  0  0  # atno 10763 bound_to 10752
  153.0928  135.6664  153.9829 H   0  0  0  0  0  0  0  0  0  0  0  0  # atno 10764 bound_to 10752
  153.9635  135.3045  155.3411 H   0  0  0  0  0  0  0  0  0  0  0  0  # atno 10765 bound_to 10752
  139.9158  134.9630  156.7700 H   0  0  0  0  0  0  0  0  0  0  0  0  # atno 11005 bound_to 11000
  145.9767  139.2910  143.1066 LP  0  0  0  0  0  0  0  0  0  0  0  0  # atno 17320 bound_to 7965
  145.9056  140.9214  143.0480 LP  0  0  0  0  0  0  0  0  0  0  0  0  # atno 17321 bound_to 7965
  139.5260  144.7103  151.5227 LP  0  0  0  0  0  0  0  0  0  0  0  0  # atno 17342 bound_to 10162
  140.6463  143.8788  150.6740 LP  0  0  0  0  0  0  0  0  0  0  0  0  # atno 17343 bound_to 10162
  156.2514  130.6909  151.1648 LP  0  0  0  0  0  0  0  0  0  0  0  0  # atno 17370 bound_to 10713
  157.7293  131.0625  150.5780 LP  0  0  0  0  0  0  0  0  0  0  0  0  # atno 17371 bound_to 10713
  140.6628  133.9629  155.7814 LP  0  0  0  0  0  0  0  0  0  0  0  0  # atno 17394 bound_to 11000
  141.0631  134.0316  157.3631 LP  0  0  0  0  0  0  0  0  0  0  0  0  # atno 17395 bound_to 11000

$$$$
