AV-unprocessed.smi:1379|AV-procd|sdf|5598|dock9
  -GOLD-   22720 5203D 1   1.00000     0.00000
 Structure written by MMmdl.
 34 35  0  0  0  0  0  0  0  0  1 V2000
  146.5873  138.6854  151.9381 C   0  0  0  0  0  0  0  0  0  0  0  0
  147.0929  139.1910  153.1607 O   0  0  0  0  0  0  0  0  0  0  0  0
  147.2634  140.6002  153.1374 C   0  0  0  0  0  0  0  0  0  0  0  0
  148.0353  141.0487  154.3802 C   0  0  0  0  0  0  0  0  0  0  0  0
  147.5619  141.9055  155.1269 O   0  0  0  0  0  0  0  0  0  0  0  0
  149.2319  140.4585  154.5539 N   0  0  0  0  0  0  0  0  0  0  0  0
  150.1794  140.6566  155.5950 C   0  0  0  0  0  0  0  0  0  0  0  0
  151.3618  139.8954  155.7557 C   0  0  0  0  0  0  0  0  0  0  0  0
  152.2291  140.2019  156.8216 C   0  0  0  0  0  0  0  0  0  0  0  0
  151.8977  141.2637  157.6878 C   0  0  0  0  0  0  0  0  0  0  0  0
  152.7632  141.5621  158.7512 N   0  0  0  0  0  0  0  0  0  0  0  0
  152.3282  142.6266  159.6407 C   0  0  0  0  0  0  0  0  0  0  0  0
  153.2103  142.5005  160.8852 C   0  0  0  0  0  0  0  0  0  0  0  0
  153.6979  141.0465  160.8748 C   0  0  0  0  0  0  0  0  0  0  0  0
  153.0886  140.4355  159.6096 C   0  0  0  0  0  0  0  0  0  0  0  0
  150.7746  142.0046  157.5318 N   0  0  0  0  0  0  0  0  0  0  0  0
  149.9465  141.7051  156.5088 C   0  0  0  0  0  0  0  0  0  0  0  0
  146.4695  137.6043  152.0095 H   0  0  0  0  0  0  0  0  0  0  0  0
  147.2687  138.8962  151.1129 H   0  0  0  0  0  0  0  0  0  0  0  0
  145.6122  139.1158  151.7062 H   0  0  0  0  0  0  0  0  0  0  0  0
  147.8137  140.8999  152.2438 H   0  0  0  0  0  0  0  0  0  0  0  0
  146.2924  141.0979  153.1192 H   0  0  0  0  0  0  0  0  0  0  0  0
  149.5239  139.8315  153.8180 H   0  0  0  0  0  0  0  0  0  0  0  0
  151.6284  139.0966  155.0817 H   0  0  0  0  0  0  0  0  0  0  0  0
  153.1361  139.6332  156.9661 H   0  0  0  0  0  0  0  0  0  0  0  0
  152.4376  143.6030  159.1680 H   0  0  0  0  0  0  0  0  0  0  0  0
  151.2793  142.4986  159.9119 H   0  0  0  0  0  0  0  0  0  0  0  0
  154.0631  143.1769  160.8145 H   0  0  0  0  0  0  0  0  0  0  0  0
  152.6622  142.7498  161.7943 H   0  0  0  0  0  0  0  0  0  0  0  0
  154.7871  141.0202  160.8239 H   0  0  0  0  0  0  0  0  0  0  0  0
  153.3933  140.5006  161.7681 H   0  0  0  0  0  0  0  0  0  0  0  0
  152.1873  139.8741  159.8600 H   0  0  0  0  0  0  0  0  0  0  0  0
  153.7832  139.7541  159.1176 H   0  0  0  0  0  0  0  0  0  0  0  0
  149.0642  142.3223  156.4213 H   0  0  0  0  0  0  0  0  0  0  0  0
  1  2  1  0  0  0  0
  1 18  1  0  0  0  0
  1 19  1  0  0  0  0
  1 20  1  0  0  0  0
  2  3  1  0  0  0  0
  3  4  1  0  0  0  0
  3 21  1  0  0  0  0
  3 22  1  0  0  0  0
  4  5  2  0  0  0  0
  4  6  1  0  0  0  0
  6  7  1  0  0  0  0
  6 23  1  0  0  0  0
  7 17  1  0  0  0  0
  7  8  2  0  0  0  0
  8  9  1  0  0  0  0
  8 24  1  0  0  0  0
  9 10  2  0  0  0  0
  9 25  1  0  0  0  0
 10 11  1  0  0  0  0
 10 16  1  0  0  0  0
 11 15  1  0  0  0  0
 11 12  1  0  0  0  0
 12 13  1  0  0  0  0
 12 26  1  0  0  0  0
 12 27  1  0  0  0  0
 13 14  1  0  0  0  0
 13 28  1  0  0  0  0
 13 29  1  0  0  0  0
 14 15  1  0  0  0  0
 14 30  1  0  0  0  0
 14 31  1  0  0  0  0
 15 32  1  0  0  0  0
 15 33  1  0  0  0  0
 16 17  2  0  0  0  0
 17 34  1  0  0  0  0
M  END
> <s_m_source_file>
AV-unprocessed.smi

> <i_m_source_file_index>
1379

> <i_lp_mmshare_version>
43012

> <i_f3d_flags>
0

> <s_epik_input>
W0NIM11PW0NIMl1DKD1PKVtOSF1jMVtjSF1bY0hdYyhuW2NIXTEpTjJbQ0gyXVtDSDJdW0NIMl1bQ0gyXTI=

> <s_epik_cmdline>
J2VwaWtfcHl0aG9uJywgJy1waCcsICc3LjAnLCAnLXRuJywgJzgnLCAnLW1hJywgJzIwMCcsICctbWV0YWxfYmluZGluZycsICctaW1hZScsICc8aW5maWxlLm1hZT4nLCAnLW9tYWUnLCAnPG91dGZpbGUubWFlPic=

> <r_lp_tautomer_probability>
1

> <r_epik_Ionization_Penalty>
0.0264378

> <r_epik_Ionization_Penalty_Charging>
0

> <r_epik_Ionization_Penalty_Neutral>
0.0264378

> <r_epik_State_Penalty>
0.0211097

> <r_epik_Charging_Adjusted_Penalty>
0.0211097

> <i_epik_Tot_Q>
0

> <i_epik_Tot_abs_Q>
0

> <r_epik_Metal_State_Penalty>
0.0201313

> <b_epik_Metal_Only>
0

> <s_lp_Force_Field>
OPLS_2005

> <r_lp_Energy>
37.8316

> <b_lp_Chiralities_Consistent>
1

> <s_lp_Variant>
AV-unprocessed.smi:1379-1

> <Gold.Version>
5.8.1

> <Gold.Id.Protein>
6NUR|6NUR_protein|mol2

> <Gold.PLP.Fitness>
35.5996

> <Gold.PLP.PLP>
-32.7936

> <Gold.PLP.part.hbond>
0.0000

> <Gold.PLP.part.metal>
0.0000

> <Gold.PLP.part.buried>
-2.9309

> <Gold.PLP.part.nonpolar>
-30.4517

> <Gold.PLP.part.repulsive>
1.1482

> <Gold.PLP.ligand.clash>
0.0000

> <Gold.PLP.ligand.torsion>
0.1062

> <Gold.PLP.Chemscore.Hbond>
0.0000

> <Gold.PLP.Chemscore.CHOScore>
1.0000

> <Gold.PLP.Chemscore.Metal>
0.0000

> <Gold.Chemscore.Hbonds>
donor molecule, donor type, donor heavy atom, donor atom, acceptor molecule, acceptor atom, score
      L1  C    17    34       P1  8028  0.98

> <Gold.PLP.Chemscore.Internal.Correction>
0.0185

> <Gold.Rescore>
     Score         DG    S(hbond)    S(metal)    S(lipo)     H(rot)  DE(clash)    DE(int)     intcor
      9.89     -11.59       0.00        0.00      83.19       1.42       0.12       1.58       ----

> <Gold.Chemscore.Fitness>
9.8931

> <Gold.Chemscore.DG>
-11.5895

> <Gold.Chemscore.ZeroCoef>
-5.4800

> <Gold.Chemscore.Hbond>
0.0000

> <Gold.Chemscore.Metal>
0.0000

> <Gold.Chemscore.Lipo>
83.1851

> <Gold.Chemscore.Internal_Hbond>
0.0000

> <Gold.Chemscore.DEClash>
0.1161

> <Gold.Chemscore.DEInternal>
1.5803

> <Gold.Chemscore.Rot>
1.4153

> <Gold.Chemscore.Internal.Correction>
   9.000000E+99

> <Gold.Chemscore.Hbond.Weighted>
-0.0000

> <Gold.Chemscore.Metal.Weighted>
-0.0000

> <Gold.Chemscore.Lipo.Weighted>
-9.7327

> <Gold.Chemscore.Internal_Hbond.Weighted>
0.0000

> <Gold.Chemscore.DEClash.Weighted>
0.1161

> <Gold.Chemscore.DEInternal.Weighted>
1.5803

> <Gold.Chemscore.Rot.Weighted>
3.6231

> <Gold.Chemscore.Internal.Correction.Weighted>
   9.000000E+99

> <Gold.Protein.RotatedTorsions>
[ 6907 6896 6895 6894 ] final   72.67 input  -60.11 | X-H torsion
[ 7974 7965 7964 7962 ] final  -46.24 input  175.53 | X-H torsion
[ 8008 7997 7996 7995 ] final   -0.35 input   59.86 | X-H torsion
[ 10167 10162 10161 10158 ] final -135.54 input  -65.29 | X-H torsion
[ 10718 10713 10712 10709 ] final  110.36 input   66.30 | X-H torsion
[ 10763 10752 10751 10750 ] final   63.94 input  -60.55 | X-H torsion
[ 11005 11000 10999 10996 ] final   61.08 input  -57.11 | X-H torsion

> <Gold.Protein.ActiveResidues>
 VAL166  LYS551  ARG553  GLY616  TRP617  ASP618  TYR619  PRO620  LYS621  CYS622 
 ASP623  PHE694  ASN695  SER759  ASP760  ASP761  ALA762  ILE779  LEU786  VAL792 
 PHE793  MET794  SER795  GLU796  ALA797  LYS798  CYS799  TRP800  GLU811  SER814 

> <Gold.Protein.RotatedAtoms>
  152.4881  134.4536  159.9582 H   0  0  0  0  0  0  0  0  0  0  0  0  # atno 6907 bound_to 6896
  151.4529  133.3607  159.2805 H   0  0  0  0  0  0  0  0  0  0  0  0  # atno 6908 bound_to 6896
  150.9009  134.8446  159.7420 H   0  0  0  0  0  0  0  0  0  0  0  0  # atno 6909 bound_to 6896
  145.9739  140.7354  142.9396 H   0  0  0  0  0  0  0  0  0  0  0  0  # atno 7974 bound_to 7965
  154.6591  140.2586  155.7129 H   0  0  0  0  0  0  0  0  0  0  0  0  # atno 8008 bound_to 7997
  156.2610  140.2852  156.0977 H   0  0  0  0  0  0  0  0  0  0  0  0  # atno 8009 bound_to 7997
  155.1335  140.0379  157.2771 H   0  0  0  0  0  0  0  0  0  0  0  0  # atno 8010 bound_to 7997
  139.8769  143.6887  152.2632 H   0  0  0  0  0  0  0  0  0  0  0  0  # atno 10167 bound_to 10162
  157.6498  131.0931  150.6590 H   0  0  0  0  0  0  0  0  0  0  0  0  # atno 10718 bound_to 10713
  153.0036  135.5411  154.6431 H   0  0  0  0  0  0  0  0  0  0  0  0  # atno 10763 bound_to 10752
  154.5681  135.2839  155.0856 H   0  0  0  0  0  0  0  0  0  0  0  0  # atno 10764 bound_to 10752
  154.2032  135.6480  153.5146 H   0  0  0  0  0  0  0  0  0  0  0  0  # atno 10765 bound_to 10752
  140.0187  134.6186  155.9672 H   0  0  0  0  0  0  0  0  0  0  0  0  # atno 11005 bound_to 11000
  144.6844  140.2795  143.7294 LP  0  0  0  0  0  0  0  0  0  0  0  0  # atno 17320 bound_to 7965
  145.7866  139.1911  143.2127 LP  0  0  0  0  0  0  0  0  0  0  0  0  # atno 17321 bound_to 7965
  139.7232  144.7598  151.0921 LP  0  0  0  0  0  0  0  0  0  0  0  0  # atno 17342 bound_to 10162
  140.7751  143.5181  150.9570 LP  0  0  0  0  0  0  0  0  0  0  0  0  # atno 17343 bound_to 10162
  156.6903  130.4593  149.5602 LP  0  0  0  0  0  0  0  0  0  0  0  0  # atno 17370 bound_to 10713
  156.1867  130.6533  151.1014 LP  0  0  0  0  0  0  0  0  0  0  0  0  # atno 17371 bound_to 10713
  141.1759  133.6540  156.4828 LP  0  0  0  0  0  0  0  0  0  0  0  0  # atno 17394 bound_to 11000
  140.4426  134.7002  157.4999 LP  0  0  0  0  0  0  0  0  0  0  0  0  # atno 17395 bound_to 11000

$$$$
