AV-unprocessed.smi:35|AV-procd|sdf|274|dock7
  -GOLD-   2262016 43D 1   1.00000     0.00000
 Structure written by MMmdl.
 28 29  0  0  0  0  0  0  0  0  2 V2000
  147.9939  133.7337  157.0680 O   0  0  0  0  0  0  0  0  0  0  0  0
  147.4796  134.6851  156.4828 C   0  0  0  0  0  0  0  0  0  0  0  0
  146.2021  135.0989  156.7207 N   0  5  0  0  0  0  0  0  0  0  0  0
  145.6317  136.1490  156.0598 C   0  0  0  0  0  0  0  0  0  0  0  0
  144.4906  136.5468  156.2936 O   0  0  0  0  0  0  0  0  0  0  0  0
  146.3815  136.8264  155.0567 N   0  0  0  0  0  0  0  0  0  0  0  0
  145.7427  138.0056  154.3386 C   0  0  1  0  0  0  0  0  0  0  0  0
  146.4271  139.1835  154.6457 O   0  0  0  0  0  0  0  0  0  0  0  0
  147.4149  139.4347  153.6554 C   0  0  2  0  0  0  0  0  0  0  0  0
  147.8090  140.9194  153.6982 C   0  0  0  0  0  0  0  0  0  0  0  0
  149.1256  141.0993  153.2207 O   0  0  0  0  0  0  0  0  0  0  0  0
  146.7314  138.9876  152.3603 C   0  0  1  0  0  0  0  0  0  0  0  0
  147.6974  138.5233  151.4381 O   0  0  0  0  0  0  0  0  0  0  0  0
  145.8160  137.8449  152.8025 C   0  0  2  0  0  0  0  0  0  0  0  0
  144.5415  137.9888  152.2080 O   0  0  0  0  0  0  0  0  0  0  0  0
  147.6966  136.4517  154.8255 C   0  0  0  0  0  0  0  0  0  0  0  0
  148.2566  135.4207  155.4900 C   0  0  0  0  0  0  0  0  0  0  0  0
  150.1427  134.9992  155.0515 Br  0  0  0  0  0  0  0  0  0  0  0  0
  144.7287  138.0526  154.7405 H   0  0  0  0  0  0  0  0  0  0  0  0
  148.2832  138.8070  153.8632 H   0  0  0  0  0  0  0  0  0  0  0  0
  147.1196  141.5248  153.1091 H   0  0  0  0  0  0  0  0  0  0  0  0
  147.7641  141.2870  154.7237 H   0  0  0  0  0  0  0  0  0  0  0  0
  149.3385  140.3777  152.6485 H   0  0  0  0  0  0  0  0  0  0  0  0
  146.1583  139.8098  151.9284 H   0  0  0  0  0  0  0  0  0  0  0  0
  148.5167  138.9572  151.6221 H   0  0  0  0  0  0  0  0  0  0  0  0
  146.2335  136.8707  152.5424 H   0  0  0  0  0  0  0  0  0  0  0  0
  144.2657  138.8868  152.3064 H   0  0  0  0  0  0  0  0  0  0  0  0
  148.3050  136.9845  154.1119 H   0  0  0  0  0  0  0  0  0  0  0  0
  1  2  2  0  0  0  0
  2 17  1  0  0  0  0
  2  3  1  0  0  0  0
  3  4  1  0  0  0  0
  4  5  2  0  0  0  0
  4  6  1  0  0  0  0
  6  7  1  0  0  0  0
  6 16  1  0  0  0  0
  7 14  1  0  0  0  0
  7  8  1  0  0  0  0
  7 19  1  0  0  0  0
  8  9  1  0  0  0  0
  9 10  1  0  0  0  0
  9 12  1  0  0  0  0
  9 20  1  0  0  0  0
 10 11  1  0  0  0  0
 10 21  1  0  0  0  0
 10 22  1  0  0  0  0
 11 23  1  0  0  0  0
 12 13  1  0  0  0  0
 12 14  1  0  0  0  0
 12 24  1  0  0  0  0
 13 25  1  0  0  0  0
 14 15  1  0  0  0  0
 14 26  1  0  0  0  0
 15 27  1  0  0  0  0
 16 17  2  0  0  0  0
 16 28  1  0  0  0  0
 17 18  1  0  0  0  0
M  CHG  1   3  -1
M  END
> <s_m_source_file>
AV-unprocessed.smi

> <i_m_source_file_index>
35

> <i_lp_mmshare_version>
43012

> <i_f3d_flags>
0

> <s_epik_input>
Tz1jMVtuSF1jKD1PKW4oW2NIXWMxQnIpW0NAQEhdMk9bQ0BASF0oW0NIMl1bT0hdKVtDQEBIXShbT0hdKVtDQEhdMltPSF0=

> <s_epik_cmdline>
J2VwaWtfcHl0aG9uJywgJy1waCcsICc3LjAnLCAnLXRuJywgJzgnLCAnLW1hJywgJzIwMCcsICctbWV0YWxfYmluZGluZycsICctaW1hZScsICc8aW5maWxlLm1hZT4nLCAnLW9tYWUnLCAnPG91dGZpbGUubWFlPic=

> <r_epik_Ionization_Penalty>
1.06112

> <r_epik_Ionization_Penalty_Charging>
2.1796e-09

> <r_epik_Ionization_Penalty_Neutral>
1.06112

> <r_epik_State_Penalty>
1.11484

> <r_epik_Charging_Adjusted_Penalty>
1.11484

> <i_epik_Tot_Q>
-1

> <i_epik_Tot_abs_Q>
1

> <r_epik_Metal_State_Penalty>
0.0032876

> <b_epik_Metal_Only>
0

> <s_epik_Chemistry_Notes>
This compound contains an acetal/aminal-like group ( X-CH(R)-Y where X, Y are N, S, or O) that may be acid/base labile, releasing an aldehyde.

> <s_lp_Force_Field>
OPLS_2005

> <r_lp_Energy>
36.7062

> <b_lp_Chiralities_Consistent>
1

> <s_lp_Variant>
AV-unprocessed.smi:35-28

> <Gold.Version>
5.8.1

> <Gold.Id.Protein>
6NUR|6NUR_protein|mol2

> <Gold.PLP.Fitness>
35.7341

> <Gold.PLP.PLP>
-20.1714

> <Gold.PLP.part.hbond>
-7.0103

> <Gold.PLP.part.metal>
0.0000

> <Gold.PLP.part.buried>
-0.0604

> <Gold.PLP.part.nonpolar>
-11.9947

> <Gold.PLP.part.repulsive>
0.0836

> <Gold.PLP.ligand.clash>
0.0000

> <Gold.PLP.ligand.torsion>
0.4065

> <Gold.PLP.Chemscore.Hbond>
4.4960

> <Gold.PLP.Chemscore.CHOScore>
0.9528

> <Gold.PLP.Chemscore.Metal>
0.0000

> <Gold.Chemscore.Hbonds>
donor molecule, donor type, donor heavy atom, donor atom, acceptor molecule, acceptor atom, score
      L1  H    11    23       P1  7957  0.83
      L1  H    13    25       P1  7957  0.91
      L1  H    15    27       P1 10175  1.00
      P1  H  7954  7966       L1    13  0.72
      P1  H  8011  8017       L1    11  1.00
      L1  C    16    28       P1  7948  0.95

> <Gold.PLP.Chemscore.Internal.Correction>
0.0292

> <Gold.Rescore>
     Score         DG    S(hbond)    S(metal)    S(lipo)     H(rot)  DE(clash)    DE(int)     intcor
     10.02     -10.75       3.13        0.00      35.00       3.63       0.47       0.26       ----

> <Gold.Chemscore.Fitness>
10.0197

> <Gold.Chemscore.DG>
-10.7527

> <Gold.Chemscore.ZeroCoef>
-5.4800

> <Gold.Chemscore.Hbond>
3.1320

> <Gold.Chemscore.Metal>
0.0000

> <Gold.Chemscore.Lipo>
34.9952

> <Gold.Chemscore.Internal_Hbond>
0.0000

> <Gold.Chemscore.DEClash>
0.4685

> <Gold.Chemscore.DEInternal>
0.2645

> <Gold.Chemscore.Rot>
3.6261

> <Gold.Chemscore.Internal.Correction>
   9.000000E+99

> <Gold.Chemscore.Hbonds>
donor molecule, donor type, donor heavy atom, donor atom, acceptor molecule, acceptor atom, score
      L1  H    11    23       P1  7957  0.78
      L1  H    13    25       P1  7957  0.61
      L1  H    15    27       P1 10175  1.00
      P1  H  7954  7966       L1    13  0.09
      P1  H  8011  8017       L1    11  0.25

> <Gold.Chemscore.Hbond.Weighted>
-10.4610

> <Gold.Chemscore.Metal.Weighted>
-0.0000

> <Gold.Chemscore.Lipo.Weighted>
-4.0944

> <Gold.Chemscore.Internal_Hbond.Weighted>
0.0000

> <Gold.Chemscore.DEClash.Weighted>
0.4685

> <Gold.Chemscore.DEInternal.Weighted>
0.2645

> <Gold.Chemscore.Rot.Weighted>
9.2828

> <Gold.Chemscore.Internal.Correction.Weighted>
   9.000000E+99

> <Gold.Protein.RotatedTorsions>
[ 6907 6896 6895 6894 ] final  178.54 input  -60.11 | X-H torsion
[ 7974 7965 7964 7962 ] final  -81.65 input  175.53 | X-H torsion
[ 8008 7997 7996 7995 ] final   42.87 input   59.86 | X-H torsion
[ 10167 10162 10161 10158 ] final  177.96 input  -65.29 | X-H torsion
[ 10718 10713 10712 10709 ] final   69.10 input   66.30 | X-H torsion
[ 10763 10752 10751 10750 ] final  -56.37 input  -60.55 | X-H torsion
[ 11005 11000 10999 10996 ] final  118.67 input  -57.11 | X-H torsion

> <Gold.Protein.ActiveResidues>
 VAL166  LYS551  ARG553  GLY616  TRP617  ASP618  TYR619  PRO620  LYS621  CYS622 
 ASP623  PHE694  ASN695  SER759  ASP760  ASP761  ALA762  ILE779  LEU786  VAL792 
 PHE793  MET794  SER795  GLU796  ALA797  LYS798  CYS799  TRP800  GLU811  SER814 

> <Gold.Protein.RotatedAtoms>
  151.6862  133.3311  159.3231 H   0  0  0  0  0  0  0  0  0  0  0  0  # atno 6907 bound_to 6896
  150.7800  134.6738  159.6415 H   0  0  0  0  0  0  0  0  0  0  0  0  # atno 6908 bound_to 6896
  152.3854  134.6529  160.0179 H   0  0  0  0  0  0  0  0  0  0  0  0  # atno 6909 bound_to 6896
  145.5438  140.9506  143.1536 H   0  0  0  0  0  0  0  0  0  0  0  0  # atno 7974 bound_to 7965
  155.2933  140.3380  155.4251 H   0  0  0  0  0  0  0  0  0  0  0  0  # atno 8008 bound_to 7997
  156.2036  140.1742  156.7887 H   0  0  0  0  0  0  0  0  0  0  0  0  # atno 8009 bound_to 7997
  154.5591  140.0691  156.8774 H   0  0  0  0  0  0  0  0  0  0  0  0  # atno 8010 bound_to 7997
  139.5274  144.2737  152.0606 H   0  0  0  0  0  0  0  0  0  0  0  0  # atno 10167 bound_to 10162
  157.6327  130.9408  150.0467 H   0  0  0  0  0  0  0  0  0  0  0  0  # atno 10718 bound_to 10713
  154.2056  135.6403  153.5100 H   0  0  0  0  0  0  0  0  0  0  0  0  # atno 10763 bound_to 10752
  153.0001  135.5462  154.6269 H   0  0  0  0  0  0  0  0  0  0  0  0  # atno 10764 bound_to 10752
  154.5693  135.2915  155.0816 H   0  0  0  0  0  0  0  0  0  0  0  0  # atno 10765 bound_to 10752
  139.9118  134.9622  156.7538 H   0  0  0  0  0  0  0  0  0  0  0  0  # atno 11005 bound_to 11000
  144.7564  139.7065  143.7252 LP  0  0  0  0  0  0  0  0  0  0  0  0  # atno 17320 bound_to 7965
  146.1963  139.5232  142.9772 LP  0  0  0  0  0  0  0  0  0  0  0  0  # atno 17321 bound_to 7965
  140.2195  144.4480  150.6348 LP  0  0  0  0  0  0  0  0  0  0  0  0  # atno 17342 bound_to 10162
  140.6428  143.2207  151.6253 LP  0  0  0  0  0  0  0  0  0  0  0  0  # atno 17343 bound_to 10162
  156.1542  130.3643  149.9393 LP  0  0  0  0  0  0  0  0  0  0  0  0  # atno 17370 bound_to 10713
  156.7406  130.9078  151.3632 LP  0  0  0  0  0  0  0  0  0  0  0  0  # atno 17371 bound_to 10713
  140.6752  133.9523  155.7879 LP  0  0  0  0  0  0  0  0  0  0  0  0  # atno 17394 bound_to 11000
  141.0549  134.0431  157.3735 LP  0  0  0  0  0  0  0  0  0  0  0  0  # atno 17395 bound_to 11000

$$$$
