AV-unprocessed.smi:1333|AV-procd|sdf|5490|dock9
  -GOLD-   22720 5 63D 1   1.00000     0.00000
 Structure written by MMmdl.
 33 34  0  0  0  0  0  0  0  0  1 V2000
  144.0467  135.4216  152.1368 O   0  0  0  0  0  0  0  0  0  0  0  0
  145.1913  135.4920  151.6805 C   0  0  0  0  0  0  0  0  0  0  0  0
  145.5256  134.8450  150.3295 C   0  0  0  0  0  0  0  0  0  0  0  0
  145.1825  133.4339  150.2722 N   0  0  0  0  0  0  0  0  0  0  0  0
  143.9091  132.8787  150.2847 C   0  0  0  0  0  0  0  0  0  0  0  0
  144.0747  131.5136  150.2200 C   0  0  0  0  0  0  0  0  0  0  0  0
  145.4326  131.2080  150.1662 N   0  0  0  0  0  0  0  0  0  0  0  0
  146.0260  132.3941  150.2025 C   0  0  0  0  0  0  0  0  0  0  0  0
  146.2371  136.1107  152.2759 N   0  0  0  0  0  0  0  0  0  0  0  0
  146.3263  136.7782  153.4511 C   0  0  0  0  0  0  0  0  0  0  0  0
  145.3668  136.8220  154.2195 O   0  0  0  0  0  0  0  0  0  0  0  0
  147.4972  137.3828  153.7275 N   0  0  0  0  0  0  0  0  0  0  0  0
  147.7586  138.2395  154.8807 C   0  0  0  0  0  0  0  0  0  0  0  0
  146.8355  139.4747  154.8891 C   0  0  0  0  0  0  0  0  0  0  0  0
  147.7225  140.6649  154.5232 C   0  0  0  0  0  0  0  0  0  0  0  0
  149.0935  140.2908  155.0769 C   0  0  0  0  0  0  0  0  0  0  0  0
  149.2000  138.7831  154.8392 C   0  0  0  0  0  0  0  0  0  0  0  0
  144.9913  135.3660  149.5337 H   0  0  0  0  0  0  0  0  0  0  0  0
  146.5921  134.9544  150.1285 H   0  0  0  0  0  0  0  0  0  0  0  0
  143.0159  133.4835  150.3408 H   0  0  0  0  0  0  0  0  0  0  0  0
  143.3270  130.7345  150.2094 H   0  0  0  0  0  0  0  0  0  0  0  0
  147.0998  132.5094  150.1800 H   0  0  0  0  0  0  0  0  0  0  0  0
  147.1020  136.0684  151.7570 H   0  0  0  0  0  0  0  0  0  0  0  0
  148.2648  137.2360  153.0873 H   0  0  0  0  0  0  0  0  0  0  0  0
  147.6118  137.6675  155.7989 H   0  0  0  0  0  0  0  0  0  0  0  0
  145.9780  139.3851  154.2207 H   0  0  0  0  0  0  0  0  0  0  0  0
  146.4404  139.6179  155.8956 H   0  0  0  0  0  0  0  0  0  0  0  0
  147.7781  140.7627  153.4382 H   0  0  0  0  0  0  0  0  0  0  0  0
  147.3483  141.6068  154.9254 H   0  0  0  0  0  0  0  0  0  0  0  0
  149.9036  140.8487  154.6065 H   0  0  0  0  0  0  0  0  0  0  0  0
  149.1242  140.4976  156.1476 H   0  0  0  0  0  0  0  0  0  0  0  0
  149.8433  138.3005  155.5759 H   0  0  0  0  0  0  0  0  0  0  0  0
  149.6487  138.6104  153.8594 H   0  0  0  0  0  0  0  0  0  0  0  0
  1  2  2  0  0  0  0
  2  3  1  0  0  0  0
  2  9  1  0  0  0  0
  3  4  1  0  0  0  0
  3 18  1  0  0  0  0
  3 19  1  0  0  0  0
  4  8  1  0  0  0  0
  4  5  1  0  0  0  0
  5  6  2  0  0  0  0
  5 20  1  0  0  0  0
  6  7  1  0  0  0  0
  6 21  1  0  0  0  0
  7  8  2  0  0  0  0
  8 22  1  0  0  0  0
  9 10  1  0  0  0  0
  9 23  1  0  0  0  0
 10 11  2  0  0  0  0
 10 12  1  0  0  0  0
 12 13  1  0  0  0  0
 12 24  1  0  0  0  0
 13 17  1  0  0  0  0
 13 14  1  0  0  0  0
 13 25  1  0  0  0  0
 14 15  1  0  0  0  0
 14 26  1  0  0  0  0
 14 27  1  0  0  0  0
 15 16  1  0  0  0  0
 15 28  1  0  0  0  0
 15 29  1  0  0  0  0
 16 17  1  0  0  0  0
 16 30  1  0  0  0  0
 16 31  1  0  0  0  0
 17 32  1  0  0  0  0
 17 33  1  0  0  0  0
M  END
> <s_m_source_file>
AV-unprocessed.smi

> <i_m_source_file_index>
1333

> <i_lp_mmshare_version>
43012

> <i_f3d_flags>
0

> <s_epik_input>
W2NIXTFuW2NIXVtjSF1uMVtDSDJdQyg9TylbTkhdQyg9TylbTkhdW0NIXTJbQ0gyXVtDSDJdW0NIMl1bQ0gyXTI=

> <s_epik_cmdline>
J2VwaWtfcHl0aG9uJywgJy1waCcsICc3LjAnLCAnLXRuJywgJzgnLCAnLW1hJywgJzIwMCcsICctbWV0YWxfYmluZGluZycsICctaW1hZScsICc8aW5maWxlLm1hZT4nLCAnLW9tYWUnLCAnPG91dGZpbGUubWFlPic=

> <r_lp_tautomer_probability>
1

> <r_epik_Ionization_Penalty>
0.171964

> <r_epik_Ionization_Penalty_Charging>
0.171937

> <r_epik_Ionization_Penalty_Neutral>
2.73302e-05

> <r_epik_State_Penalty>
0.161333

> <r_epik_Charging_Adjusted_Penalty>
0.33327

> <i_epik_Tot_Q>
0

> <i_epik_Tot_abs_Q>
0

> <r_epik_Metal_State_Penalty>
0.124658

> <b_epik_Metal_Only>
0

> <s_lp_Force_Field>
OPLS_2005

> <r_lp_Energy>
24.334

> <b_lp_Chiralities_Consistent>
1

> <s_lp_Variant>
AV-unprocessed.smi:1333-1

> <Gold.Version>
5.8.1

> <Gold.Id.Protein>
6NUR|6NUR_protein|mol2

> <Gold.PLP.Fitness>
40.4207

> <Gold.PLP.PLP>
-26.6472

> <Gold.PLP.part.hbond>
-2.0000

> <Gold.PLP.part.metal>
0.0000

> <Gold.PLP.part.buried>
-2.0023

> <Gold.PLP.part.nonpolar>
-24.2989

> <Gold.PLP.part.repulsive>
0.4581

> <Gold.PLP.ligand.clash>
0.0000

> <Gold.PLP.ligand.torsion>
0.1007

> <Gold.PLP.Chemscore.Hbond>
1.9520

> <Gold.PLP.Chemscore.CHOScore>
2.7033

> <Gold.PLP.Chemscore.Metal>
0.0000

> <Gold.Chemscore.Hbonds>
donor molecule, donor type, donor heavy atom, donor atom, acceptor molecule, acceptor atom, score
      L1  H     9    23       P1  7948  0.93
      L1  H    12    24       P1  7948  0.96
      L1  C     5    20       P1 10186  1.00
      L1  C     6    21       P1 10952  0.79
      L1  C     8    22       P1 10747  1.00

> <Gold.PLP.Chemscore.Internal.Correction>
0.0091

> <Gold.Rescore>
     Score         DG    S(hbond)    S(metal)    S(lipo)     H(rot)  DE(clash)    DE(int)     intcor
     12.07     -13.81       1.92        0.00      54.18       1.73       0.02       1.71       ----

> <Gold.Chemscore.Fitness>
12.0744

> <Gold.Chemscore.DG>
-13.8086

> <Gold.Chemscore.ZeroCoef>
-5.4800

> <Gold.Chemscore.Hbond>
1.9189

> <Gold.Chemscore.Metal>
0.0000

> <Gold.Chemscore.Lipo>
54.1766

> <Gold.Chemscore.Internal_Hbond>
0.0000

> <Gold.Chemscore.DEClash>
0.0203

> <Gold.Chemscore.DEInternal>
1.7139

> <Gold.Chemscore.Rot>
1.7263

> <Gold.Chemscore.Internal.Correction>
   9.000000E+99

> <Gold.Chemscore.Hbonds>
donor molecule, donor type, donor heavy atom, donor atom, acceptor molecule, acceptor atom, score
      L1  H     9    23       P1  7948  0.91
      L1  H    12    24       P1  7948  0.92

> <Gold.Chemscore.Hbond.Weighted>
-6.4092

> <Gold.Chemscore.Metal.Weighted>
-0.0000

> <Gold.Chemscore.Lipo.Weighted>
-6.3387

> <Gold.Chemscore.Internal_Hbond.Weighted>
0.0000

> <Gold.Chemscore.DEClash.Weighted>
0.0203

> <Gold.Chemscore.DEInternal.Weighted>
1.7139

> <Gold.Chemscore.Rot.Weighted>
4.4193

> <Gold.Chemscore.Internal.Correction.Weighted>
   9.000000E+99

> <Gold.Protein.RotatedTorsions>
[ 6907 6896 6895 6894 ] final   85.71 input  -60.11 | X-H torsion
[ 7974 7965 7964 7962 ] final  -57.02 input  175.53 | X-H torsion
[ 8008 7997 7996 7995 ] final  -95.50 input   59.86 | X-H torsion
[ 10167 10162 10161 10158 ] final   89.93 input  -65.29 | X-H torsion
[ 10718 10713 10712 10709 ] final  -50.34 input   66.30 | X-H torsion
[ 10763 10752 10751 10750 ] final -135.87 input  -60.55 | X-H torsion
[ 11005 11000 10999 10996 ] final  -35.54 input  -57.11 | X-H torsion

> <Gold.Protein.ActiveResidues>
 VAL166  LYS551  ARG553  GLY616  TRP617  ASP618  TYR619  PRO620  LYS621  CYS622 
 ASP623  PHE694  ASN695  SER759  ASP760  ASP761  ALA762  ILE779  LEU786  VAL792 
 PHE793  MET794  SER795  GLU796  ALA797  LYS798  CYS799  TRP800  GLU811  SER814 

> <Gold.Protein.RotatedAtoms>
  152.5380  134.2545  159.8911 H   0  0  0  0  0  0  0  0  0  0  0  0  # atno 6907 bound_to 6896
  151.2507  133.4345  159.2619 H   0  0  0  0  0  0  0  0  0  0  0  0  # atno 6908 bound_to 6896
  151.0542  134.9707  159.8283 H   0  0  0  0  0  0  0  0  0  0  0  0  # atno 6909 bound_to 6896
  145.8559  140.8320  142.9962 H   0  0  0  0  0  0  0  0  0  0  0  0  # atno 7974 bound_to 7965
  154.7622  140.0479  157.0983 H   0  0  0  0  0  0  0  0  0  0  0  0  # atno 8008 bound_to 7997
  154.9924  140.3114  155.4881 H   0  0  0  0  0  0  0  0  0  0  0  0  # atno 8009 bound_to 7997
  156.2906  140.2216  156.5029 H   0  0  0  0  0  0  0  0  0  0  0  0  # atno 8010 bound_to 7997
  139.8523  144.6587  150.9155 H   0  0  0  0  0  0  0  0  0  0  0  0  # atno 10167 bound_to 10162
  156.1810  130.4150  149.9507 H   0  0  0  0  0  0  0  0  0  0  0  0  # atno 10718 bound_to 10713
  154.8695  135.3690  154.4969 H   0  0  0  0  0  0  0  0  0  0  0  0  # atno 10763 bound_to 10752
  153.5612  135.7023  153.5551 H   0  0  0  0  0  0  0  0  0  0  0  0  # atno 10764 bound_to 10752
  153.3626  135.4042  155.1693 H   0  0  0  0  0  0  0  0  0  0  0  0  # atno 10765 bound_to 10752
  140.9804  133.7059  156.1674 H   0  0  0  0  0  0  0  0  0  0  0  0  # atno 11005 bound_to 11000
  144.6727  140.1022  143.7460 LP  0  0  0  0  0  0  0  0  0  0  0  0  # atno 17320 bound_to 7965
  145.9304  139.2603  143.1328 LP  0  0  0  0  0  0  0  0  0  0  0  0  # atno 17321 bound_to 7965
  140.7786  143.3816  151.1466 LP  0  0  0  0  0  0  0  0  0  0  0  0  # atno 17342 bound_to 10162
  139.7453  143.8861  152.3062 LP  0  0  0  0  0  0  0  0  0  0  0  0  # atno 17343 bound_to 10162
  156.7278  130.9031  151.3623 LP  0  0  0  0  0  0  0  0  0  0  0  0  # atno 17370 bound_to 10713
  157.6868  130.9193  150.0407 LP  0  0  0  0  0  0  0  0  0  0  0  0  # atno 17371 bound_to 10713
  140.7195  134.4374  157.5576 LP  0  0  0  0  0  0  0  0  0  0  0  0  # atno 17394 bound_to 11000
  139.8948  134.8698  156.2161 LP  0  0  0  0  0  0  0  0  0  0  0  0  # atno 17395 bound_to 11000

$$$$
