AV-unprocessed.smi:2571|AV-procd|sdf|10109|dock3
  -GOLD-   2272014123D 1   1.00000     0.00000
 Structure written by MMmdl.
 38 40  0  0  0  0  0  0  0  0  1 V2000
  153.4564  143.2360  163.2801 C   0  0  0  0  0  0  0  0  0  0  0  0
  153.2781  142.2980  162.2292 O   0  0  0  0  0  0  0  0  0  0  0  0
  152.7924  142.7591  161.0248 C   0  0  0  0  0  0  0  0  0  0  0  0
  152.5169  144.1208  160.7448 C   0  0  0  0  0  0  0  0  0  0  0  0
  152.0338  144.5028  159.4787 C   0  0  0  0  0  0  0  0  0  0  0  0
  151.8264  143.5358  158.4782 C   0  0  0  0  0  0  0  0  0  0  0  0
  152.0978  142.1764  158.7413 C   0  0  0  0  0  0  0  0  0  0  0  0
  151.9366  141.1201  157.6553 C   0  0  1  0  0  0  0  0  0  0  0  0
  152.3554  139.8380  158.0789 O   0  0  0  0  0  0  0  0  0  0  0  0
  150.4812  141.0171  157.1520 C   0  0  0  0  0  0  0  0  0  0  0  0
  150.2972  139.9083  156.2264 N   0  0  0  0  0  0  0  0  0  0  0  0
  150.5005  140.1072  154.8984 N   0  0  0  0  0  0  0  0  0  0  0  0
  150.2124  138.9487  154.3090 C   0  0  0  0  0  0  0  0  0  0  0  0
  149.8059  137.9606  155.2467 C   0  0  0  0  0  0  0  0  0  0  0  0
  149.3652  136.5719  155.1592 C   0  0  0  0  0  0  0  0  0  0  0  0
  149.0360  135.9624  156.2549 N   0  0  0  0  0  0  0  0  0  0  0  0
  149.1041  136.6083  157.4944 N   0  0  0  0  0  0  0  0  0  0  0  0
  148.6863  135.7940  158.6332 C   0  0  0  0  0  0  0  0  0  0  0  0
  149.5276  137.8932  157.6875 C   0  0  0  0  0  0  0  0  0  0  0  0
  149.6078  138.4314  158.7913 O   0  0  0  0  0  0  0  0  0  0  0  0
  149.8870  138.6054  156.4369 C   0  0  0  0  0  0  0  0  0  0  0  0
  152.5692  141.7997  160.0168 C   0  0  0  0  0  0  0  0  0  0  0  0
  153.8619  142.7250  164.1532 H   0  0  0  0  0  0  0  0  0  0  0  0
  152.5092  143.6902  163.5745 H   0  0  0  0  0  0  0  0  0  0  0  0
  154.1621  144.0191  162.9993 H   0  0  0  0  0  0  0  0  0  0  0  0
  152.6707  144.8926  161.4836 H   0  0  0  0  0  0  0  0  0  0  0  0
  151.8317  145.5433  159.2710 H   0  0  0  0  0  0  0  0  0  0  0  0
  151.4770  143.8459  157.5042 H   0  0  0  0  0  0  0  0  0  0  0  0
  152.5813  141.3893  156.8172 H   0  0  0  0  0  0  0  0  0  0  0  0
  151.8459  139.5927  158.8360 H   0  0  0  0  0  0  0  0  0  0  0  0
  149.8071  140.8628  157.9963 H   0  0  0  0  0  0  0  0  0  0  0  0
  150.1633  141.9455  156.6790 H   0  0  0  0  0  0  0  0  0  0  0  0
  150.2965  138.8701  153.2352 H   0  0  0  0  0  0  0  0  0  0  0  0
  149.3137  136.0666  154.1947 H   0  0  0  0  0  0  0  0  0  0  0  0
  149.5133  135.6586  159.3319 H   0  0  0  0  0  0  0  0  0  0  0  0
  148.3474  134.8033  158.3256 H   0  0  0  0  0  0  0  0  0  0  0  0
  147.8629  136.2727  159.1656 H   0  0  0  0  0  0  0  0  0  0  0  0
  152.7898  140.7615  160.2192 H   0  0  0  0  0  0  0  0  0  0  0  0
  1  2  1  0  0  0  0
  1 23  1  0  0  0  0
  1 24  1  0  0  0  0
  1 25  1  0  0  0  0
  2  3  1  0  0  0  0
  3 22  1  0  0  0  0
  3  4  2  0  0  0  0
  4  5  1  0  0  0  0
  4 26  1  0  0  0  0
  5  6  2  0  0  0  0
  5 27  1  0  0  0  0
  6  7  1  0  0  0  0
  6 28  1  0  0  0  0
  7  8  1  0  0  0  0
  7 22  2  0  0  0  0
  8  9  1  0  0  0  0
  8 10  1  0  0  0  0
  8 29  1  0  0  0  0
  9 30  1  0  0  0  0
 10 11  1  0  0  0  0
 10 31  1  0  0  0  0
 10 32  1  0  0  0  0
 11 21  1  0  0  0  0
 11 12  1  0  0  0  0
 12 13  2  0  0  0  0
 13 14  1  0  0  0  0
 13 33  1  0  0  0  0
 14 21  2  0  0  0  0
 14 15  1  0  0  0  0
 15 16  2  0  0  0  0
 15 34  1  0  0  0  0
 16 17  1  0  0  0  0
 17 18  1  0  0  0  0
 17 19  1  0  0  0  0
 18 35  1  0  0  0  0
 18 36  1  0  0  0  0
 18 37  1  0  0  0  0
 19 20  2  0  0  0  0
 19 21  1  0  0  0  0
 22 38  1  0  0  0  0
M  END
> <s_m_source_file>
AV-unprocessed.smi

> <i_m_source_file_index>
2571

> <i_lp_mmshare_version>
43012

> <i_f3d_flags>
0

> <s_epik_input>
W0NIM11PYzFbY0hdW2NIXVtjSF1jKFtjSF0xKVtDQEhdKFtPSF0pW0NIMl1uKG5bY0hdMiljKGMyMyljKD1PKW4oW0NIM10pbltjSF0z

> <s_epik_cmdline>
J2VwaWtfcHl0aG9uJywgJy1waCcsICc3LjAnLCAnLXRuJywgJzgnLCAnLW1hJywgJzIwMCcsICctbWV0YWxfYmluZGluZycsICctaW1hZScsICc8aW5maWxlLm1hZT4nLCAnLW9tYWUnLCAnPG91dGZpbGUubWFlPic=

> <r_lp_tautomer_probability>
1

> <r_epik_Ionization_Penalty>
1.38887e-06

> <r_epik_Ionization_Penalty_Charging>
1.65421e-10

> <r_epik_Ionization_Penalty_Neutral>
1.38871e-06

> <r_epik_State_Penalty>
-0

> <r_epik_Charging_Adjusted_Penalty>
1.65421e-10

> <i_epik_Tot_Q>
0

> <i_epik_Tot_abs_Q>
0

> <r_epik_Metal_State_Penalty>
-0

> <b_epik_Metal_Only>
0

> <s_lp_Force_Field>
OPLS_2005

> <r_lp_Energy>
30.2232

> <b_lp_Chiralities_Consistent>
1

> <s_lp_Variant>
AV-unprocessed.smi:2571-2

> <Gold.Version>
5.8.1

> <Gold.Id.Protein>
6NUR|6NUR_protein|mol2

> <Gold.PLP.Fitness>
46.0826

> <Gold.PLP.PLP>
-37.9181

> <Gold.PLP.part.hbond>
-1.3331

> <Gold.PLP.part.metal>
0.0000

> <Gold.PLP.part.buried>
-7.6535

> <Gold.PLP.part.nonpolar>
-28.6512

> <Gold.PLP.part.repulsive>
0.1429

> <Gold.PLP.ligand.clash>
0.0000

> <Gold.PLP.ligand.torsion>
0.4353

> <Gold.PLP.Chemscore.Hbond>
1.0000

> <Gold.PLP.Chemscore.CHOScore>
2.0000

> <Gold.PLP.Chemscore.Metal>
0.0000

> <Gold.Chemscore.Hbonds>
donor molecule, donor type, donor heavy atom, donor atom, acceptor molecule, acceptor atom, score
      P1  H  7989  7998       L1    12  0.95
      L1  C    13    33       P1  7957  1.00
      L1  C    15    34       P1  7948  1.00

> <Gold.PLP.Chemscore.Internal.Correction>
0.0351

> <Gold.Rescore>
     Score         DG    S(hbond)    S(metal)    S(lipo)     H(rot)  DE(clash)    DE(int)     intcor
     15.86     -16.44       0.98        0.00     114.33       2.21       0.09       0.50       ----

> <Gold.Chemscore.Fitness>
15.8600

> <Gold.Chemscore.DG>
-16.4445

> <Gold.Chemscore.ZeroCoef>
-5.4800

> <Gold.Chemscore.Hbond>
0.9750

> <Gold.Chemscore.Metal>
0.0000

> <Gold.Chemscore.Lipo>
114.3347

> <Gold.Chemscore.Internal_Hbond>
0.0000

> <Gold.Chemscore.DEClash>
0.0879

> <Gold.Chemscore.DEInternal>
0.4966

> <Gold.Chemscore.Rot>
2.2146

> <Gold.Chemscore.Internal.Correction>
   9.000000E+99

> <Gold.Chemscore.Hbonds>
donor molecule, donor type, donor heavy atom, donor atom, acceptor molecule, acceptor atom, score
      P1  H  7989  7998       L1    12  0.21

> <Gold.Chemscore.Hbond.Weighted>
-3.2566

> <Gold.Chemscore.Metal.Weighted>
-0.0000

> <Gold.Chemscore.Lipo.Weighted>
-13.3772

> <Gold.Chemscore.Internal_Hbond.Weighted>
0.0000

> <Gold.Chemscore.DEClash.Weighted>
0.0879

> <Gold.Chemscore.DEInternal.Weighted>
0.4966

> <Gold.Chemscore.Rot.Weighted>
5.6693

> <Gold.Chemscore.Internal.Correction.Weighted>
   9.000000E+99

> <Gold.Protein.RotatedTorsions>
[ 6907 6896 6895 6894 ] final    8.84 input  -60.11 | X-H torsion
[ 7974 7965 7964 7962 ] final  142.02 input  175.53 | X-H torsion
[ 8008 7997 7996 7995 ] final   93.86 input   59.86 | X-H torsion
[ 10167 10162 10161 10158 ] final  178.81 input  -65.29 | X-H torsion
[ 10718 10713 10712 10709 ] final   12.75 input   66.30 | X-H torsion
[ 10763 10752 10751 10750 ] final  163.27 input  -60.55 | X-H torsion
[ 11005 11000 10999 10996 ] final  113.14 input  -57.11 | X-H torsion

> <Gold.Protein.ActiveResidues>
 VAL166  LYS551  ARG553  GLY616  TRP617  ASP618  TYR619  PRO620  LYS621  CYS622 
 ASP623  PHE694  ASN695  SER759  ASP760  ASP761  ALA762  ILE779  LEU786  VAL792 
 PHE793  MET794  SER795  GLU796  ALA797  LYS798  CYS799  TRP800  GLU811  SER814 

> <Gold.Protein.RotatedAtoms>
  151.7124  135.0910  160.0269 H   0  0  0  0  0  0  0  0  0  0  0  0  # atno 6907 bound_to 6896
  152.3653  133.6344  159.6054 H   0  0  0  0  0  0  0  0  0  0  0  0  # atno 6908 bound_to 6896
  150.7633  133.9274  159.3458 H   0  0  0  0  0  0  0  0  0  0  0  0  # atno 6909 bound_to 6896
  144.9044  139.5378  143.5738 H   0  0  0  0  0  0  0  0  0  0  0  0  # atno 7974 bound_to 7965
  156.0514  140.3307  155.7356 H   0  0  0  0  0  0  0  0  0  0  0  0  # atno 8008 bound_to 7997
  155.5595  140.0617  157.2849 H   0  0  0  0  0  0  0  0  0  0  0  0  # atno 8009 bound_to 7997
  154.4438  140.1880  156.0756 H   0  0  0  0  0  0  0  0  0  0  0  0  # atno 8010 bound_to 7997
  139.5309  144.2636  152.0686 H   0  0  0  0  0  0  0  0  0  0  0  0  # atno 10167 bound_to 10162
  157.0147  130.6131  149.5713 H   0  0  0  0  0  0  0  0  0  0  0  0  # atno 10718 bound_to 10713
  154.2912  135.2761  155.2654 H   0  0  0  0  0  0  0  0  0  0  0  0  # atno 10763 bound_to 10752
  154.5132  135.5777  153.6625 H   0  0  0  0  0  0  0  0  0  0  0  0  # atno 10764 bound_to 10752
  152.9914  135.6186  154.3077 H   0  0  0  0  0  0  0  0  0  0  0  0  # atno 10765 bound_to 10752
  139.8945  134.9544  156.6693 H   0  0  0  0  0  0  0  0  0  0  0  0  # atno 11005 bound_to 11000
  146.3126  139.7801  142.9008 LP  0  0  0  0  0  0  0  0  0  0  0  0  # atno 17320 bound_to 7965
  145.3560  141.0317  143.3311 LP  0  0  0  0  0  0  0  0  0  0  0  0  # atno 17321 bound_to 7965
  140.2100  144.4573  150.6390 LP  0  0  0  0  0  0  0  0  0  0  0  0  # atno 17342 bound_to 10162
  140.6487  143.2219  151.6127 LP  0  0  0  0  0  0  0  0  0  0  0  0  # atno 17343 bound_to 10162
  156.0123  130.5216  150.8028 LP  0  0  0  0  0  0  0  0  0  0  0  0  # atno 17370 bound_to 10713
  157.5294  131.0936  150.9975 LP  0  0  0  0  0  0  0  0  0  0  0  0  # atno 17371 bound_to 10713
  140.7385  133.8998  155.8261 LP  0  0  0  0  0  0  0  0  0  0  0  0  # atno 17394 bound_to 11000
  141.0096  134.1038  157.4235 LP  0  0  0  0  0  0  0  0  0  0  0  0  # atno 17395 bound_to 11000

$$$$
