AV-unprocessed.smi:2198|AV-procd|sdf|8922|dock6
  -GOLD-   2272012143D 1   1.00000     0.00000
 Structure written by MMmdl.
 42 43  0  0  0  0  0  0  0  0  2 V2000
  144.3691  132.2258  150.0938 C   0  0  0  0  0  0  0  0  0  0  0  0
  144.2132  133.5367  150.8350 C   0  0  0  0  0  0  0  0  0  0  0  0
  143.2366  133.6834  151.6467 N   0  0  0  0  0  0  0  0  0  0  0  0
  143.0850  134.8995  152.3342 C   0  0  0  0  0  0  0  0  0  0  0  0
  141.8930  134.9840  153.2718 C   0  0  0  0  0  0  0  0  0  0  0  0
  143.9647  135.9267  152.1548 C   0  0  0  0  0  0  0  0  0  0  0  0
  143.8399  137.2705  152.8719 C   0  0  0  0  0  0  0  0  0  0  0  0
  144.9785  137.6065  153.8360 C   0  0  0  0  0  0  0  0  0  0  0  0
  145.6330  136.7034  154.3564 O   0  0  0  0  0  0  0  0  0  0  0  0
  145.2032  138.9093  154.0661 N   0  0  0  0  0  0  0  0  0  0  0  0
  146.2305  139.4517  154.9529 C   0  0  1  0  0  0  0  0  0  0  0  0
  147.4589  139.9421  154.1576 C   0  0  0  0  0  0  0  0  0  0  0  0
  147.1500  141.2074  153.3400 C   0  0  0  0  0  0  0  0  0  0  0  0
  146.5870  142.3244  154.2321 C   0  0  0  0  0  0  0  0  0  0  0  0
  145.3362  141.8593  155.0020 C   0  0  2  0  0  0  0  0  0  0  0  0
  144.7816  142.9773  155.8963 C   0  0  0  0  0  0  0  0  0  0  0  0
  145.6443  140.5855  155.8181 C   0  0  0  0  0  0  0  0  0  0  0  0
  145.0817  135.7137  151.2162 C   0  0  0  0  0  0  0  0  0  0  0  0
  145.9135  136.6005  151.0278 O   0  0  0  0  0  0  0  0  0  0  0  0
  145.1527  134.5099  150.5796 N   0  5  0  0  0  0  0  0  0  0  0  0
  143.6984  131.4653  150.4955 H   0  0  0  0  0  0  0  0  0  0  0  0
  145.3919  131.8575  150.1813 H   0  0  0  0  0  0  0  0  0  0  0  0
  144.1399  132.3623  149.0367 H   0  0  0  0  0  0  0  0  0  0  0  0
  141.2395  135.8103  152.9916 H   0  0  0  0  0  0  0  0  0  0  0  0
  142.2240  135.1322  154.2996 H   0  0  0  0  0  0  0  0  0  0  0  0
  141.3020  134.0680  153.2417 H   0  0  0  0  0  0  0  0  0  0  0  0
  143.7524  138.0862  152.1537 H   0  0  0  0  0  0  0  0  0  0  0  0
  142.8934  137.2869  153.4128 H   0  0  0  0  0  0  0  0  0  0  0  0
  144.6135  139.5788  153.5934 H   0  0  0  0  0  0  0  0  0  0  0  0
  146.5494  138.6536  155.6258 H   0  0  0  0  0  0  0  0  0  0  0  0
  148.2697  140.1591  154.8542 H   0  0  0  0  0  0  0  0  0  0  0  0
  147.8300  139.1541  153.5012 H   0  0  0  0  0  0  0  0  0  0  0  0
  148.0544  141.5535  152.8391 H   0  0  0  0  0  0  0  0  0  0  0  0
  146.4339  140.9716  152.5518 H   0  0  0  0  0  0  0  0  0  0  0  0
  147.3550  142.6473  154.9365 H   0  0  0  0  0  0  0  0  0  0  0  0
  146.3459  143.1935  153.6190 H   0  0  0  0  0  0  0  0  0  0  0  0
  144.5639  141.6164  154.2708 H   0  0  0  0  0  0  0  0  0  0  0  0
  145.5072  143.2773  156.6529 H   0  0  0  0  0  0  0  0  0  0  0  0
  143.8765  142.6556  156.4119 H   0  0  0  0  0  0  0  0  0  0  0  0
  144.5287  143.8605  155.3089 H   0  0  0  0  0  0  0  0  0  0  0  0
  144.7430  140.2363  156.3240 H   0  0  0  0  0  0  0  0  0  0  0  0
  146.3566  140.8303  156.6074 H   0  0  0  0  0  0  0  0  0  0  0  0
  1  2  1  0  0  0  0
  1 21  1  0  0  0  0
  1 22  1  0  0  0  0
  1 23  1  0  0  0  0
  2 20  1  0  0  0  0
  2  3  2  0  0  0  0
  3  4  1  0  0  0  0
  4  5  1  0  0  0  0
  4  6  2  0  0  0  0
  5 24  1  0  0  0  0
  5 25  1  0  0  0  0
  5 26  1  0  0  0  0
  6  7  1  0  0  0  0
  6 18  1  0  0  0  0
  7  8  1  0  0  0  0
  7 27  1  0  0  0  0
  7 28  1  0  0  0  0
  8  9  2  0  0  0  0
  8 10  1  0  0  0  0
 10 11  1  0  0  0  0
 10 29  1  0  0  0  0
 11 17  1  0  0  0  0
 11 12  1  0  0  0  0
 11 30  1  0  0  0  0
 12 13  1  0  0  0  0
 12 31  1  0  0  0  0
 12 32  1  0  0  0  0
 13 14  1  0  0  0  0
 13 33  1  0  0  0  0
 13 34  1  0  0  0  0
 14 15  1  0  0  0  0
 14 35  1  0  0  0  0
 14 36  1  0  0  0  0
 15 16  1  0  0  0  0
 15 17  1  0  0  0  0
 15 37  1  0  0  0  0
 16 38  1  0  0  0  0
 16 39  1  0  0  0  0
 16 40  1  0  0  0  0
 17 41  1  0  0  0  0
 17 42  1  0  0  0  0
 18 19  2  0  0  0  0
 18 20  1  0  0  0  0
M  CHG  1  20  -1
M  END
> <s_m_source_file>
AV-unprocessed.smi

> <i_m_source_file_index>
2198

> <i_lp_mmshare_version>
43012

> <i_f3d_flags>
0

> <s_epik_input>
W0NIM11jMW5jKFtDSDNdKWMoYyg9TylbbkhdMSlbQ0gyXUMoPU8pW05IXVtDQEBIXTJbQ0gyXVtDSDJdW0NIMl1bQ0BASF0oW0NIM10pW0NIMl0y

> <s_epik_cmdline>
J2VwaWtfcHl0aG9uJywgJy1waCcsICc3LjAnLCAnLXRuJywgJzgnLCAnLW1hJywgJzIwMCcsICctbWV0YWxfYmluZGluZycsICctaW1hZScsICc8aW5maWxlLm1hZT4nLCAnLW9tYWUnLCAnPG91dGZpbGUubWFlPic=

> <r_lp_tautomer_probability>
0.839158

> <r_epik_Ionization_Penalty>
6.67193

> <r_epik_Ionization_Penalty_Charging>
7.66837e-08

> <r_epik_Ionization_Penalty_Neutral>
6.67193

> <r_epik_State_Penalty>
4.51643

> <r_epik_Charging_Adjusted_Penalty>
4.51643

> <i_epik_Tot_Q>
-1

> <i_epik_Tot_abs_Q>
1

> <r_epik_Metal_State_Penalty>
0.851582

> <b_epik_Metal_Only>
1

> <s_lp_Force_Field>
OPLS_2005

> <r_lp_Energy>
13.9181

> <b_lp_Chiralities_Consistent>
1

> <s_lp_Variant>
AV-unprocessed.smi:2198-12

> <Gold.Version>
5.8.1

> <Gold.Id.Protein>
6NUR|6NUR_protein|mol2

> <Gold.PLP.Fitness>
33.8390

> <Gold.PLP.PLP>
-32.0508

> <Gold.PLP.part.hbond>
-1.0000

> <Gold.PLP.part.metal>
0.0000

> <Gold.PLP.part.buried>
-7.2375

> <Gold.PLP.part.nonpolar>
-25.1323

> <Gold.PLP.part.repulsive>
0.7556

> <Gold.PLP.ligand.clash>
0.0000

> <Gold.PLP.ligand.torsion>
0.6095

> <Gold.PLP.Chemscore.Hbond>
1.0000

> <Gold.PLP.Chemscore.CHOScore>
0.0000

> <Gold.PLP.Chemscore.Metal>
0.0000

> <Gold.Chemscore.Hbonds>
donor molecule, donor type, donor heavy atom, donor atom, acceptor molecule, acceptor atom, score
      L1  H    10    29       P1 10175  1.00

> <Gold.PLP.Chemscore.Internal.Correction>
0.0073

> <Gold.Rescore>
     Score         DG    S(hbond)    S(metal)    S(lipo)     H(rot)  DE(clash)    DE(int)     intcor
     11.22     -11.72       1.00        0.00      56.37       1.45       0.08       0.41       ----

> <Gold.Chemscore.Fitness>
11.2212

> <Gold.Chemscore.DG>
-11.7150

> <Gold.Chemscore.ZeroCoef>
-5.4800

> <Gold.Chemscore.Hbond>
0.9997

> <Gold.Chemscore.Metal>
0.0000

> <Gold.Chemscore.Lipo>
56.3688

> <Gold.Chemscore.Internal_Hbond>
0.0000

> <Gold.Chemscore.DEClash>
0.0833

> <Gold.Chemscore.DEInternal>
0.4105

> <Gold.Chemscore.Rot>
1.4450

> <Gold.Chemscore.Internal.Correction>
   9.000000E+99

> <Gold.Chemscore.Hbonds>
donor molecule, donor type, donor heavy atom, donor atom, acceptor molecule, acceptor atom, score
      L1  H    10    29       P1 10175  1.00

> <Gold.Chemscore.Hbond.Weighted>
-3.3391

> <Gold.Chemscore.Metal.Weighted>
-0.0000

> <Gold.Chemscore.Lipo.Weighted>
-6.5951

> <Gold.Chemscore.Internal_Hbond.Weighted>
0.0000

> <Gold.Chemscore.DEClash.Weighted>
0.0833

> <Gold.Chemscore.DEInternal.Weighted>
0.4105

> <Gold.Chemscore.Rot.Weighted>
3.6992

> <Gold.Chemscore.Internal.Correction.Weighted>
   9.000000E+99

> <Gold.Protein.RotatedTorsions>
[ 6907 6896 6895 6894 ] final  137.51 input  -60.11 | X-H torsion
[ 7974 7965 7964 7962 ] final -118.20 input  175.53 | X-H torsion
[ 8008 7997 7996 7995 ] final -139.94 input   59.86 | X-H torsion
[ 10167 10162 10161 10158 ] final   76.97 input  -65.29 | X-H torsion
[ 10718 10713 10712 10709 ] final -122.37 input   66.30 | X-H torsion
[ 10763 10752 10751 10750 ] final -144.09 input  -60.55 | X-H torsion
[ 11005 11000 10999 10996 ] final  -47.78 input  -57.11 | X-H torsion

> <Gold.Protein.ActiveResidues>
 VAL166  LYS551  ARG553  GLY616  TRP617  ASP618  TYR619  PRO620  LYS621  CYS622 
 ASP623  PHE694  ASN695  SER759  ASP760  ASP761  ALA762  ILE779  LEU786  VAL792 
 PHE793  MET794  SER795  GLU796  ALA797  LYS798  CYS799  TRP800  GLU811  SER814 

> <Gold.Protein.RotatedAtoms>
  152.2772  133.5437  159.5475 H   0  0  0  0  0  0  0  0  0  0  0  0  # atno 6907 bound_to 6896
  150.7182  134.0615  159.3842 H   0  0  0  0  0  0  0  0  0  0  0  0  # atno 6908 bound_to 6896
  151.8527  135.0552  160.0511 H   0  0  0  0  0  0  0  0  0  0  0  0  # atno 6909 bound_to 6896
  145.0765  140.8396  143.4064 H   0  0  0  0  0  0  0  0  0  0  0  0  # atno 7974 bound_to 7965
  155.4532  140.0540  157.2999 H   0  0  0  0  0  0  0  0  0  0  0  0  # atno 8008 bound_to 7997
  154.4768  140.2064  155.9814 H   0  0  0  0  0  0  0  0  0  0  0  0  # atno 8009 bound_to 7997
  156.1145  140.3198  155.8124 H   0  0  0  0  0  0  0  0  0  0  0  0  # atno 8010 bound_to 7997
  139.9865  144.5788  150.7855 H   0  0  0  0  0  0  0  0  0  0  0  0  # atno 10167 bound_to 10162
  156.1413  130.6468  150.9775 H   0  0  0  0  0  0  0  0  0  0  0  0  # atno 10718 bound_to 10713
  154.8443  135.3450  154.6291 H   0  0  0  0  0  0  0  0  0  0  0  0  # atno 10763 bound_to 10752
  153.6900  135.6975  153.5097 H   0  0  0  0  0  0  0  0  0  0  0  0  # atno 10764 bound_to 10752
  153.2602  135.4325  155.0841 H   0  0  0  0  0  0  0  0  0  0  0  0  # atno 10765 bound_to 10752
  141.0661  133.6693  156.3346 H   0  0  0  0  0  0  0  0  0  0  0  0  # atno 11005 bound_to 11000
  145.1229  139.2682  143.5579 LP  0  0  0  0  0  0  0  0  0  0  0  0  # atno 17320 bound_to 7965
  146.3530  140.0858  142.8615 LP  0  0  0  0  0  0  0  0  0  0  0  0  # atno 17321 bound_to 7965
  140.7470  143.2900  151.3357 LP  0  0  0  0  0  0  0  0  0  0  0  0  # atno 17342 bound_to 10162
  139.6371  144.0609  152.2525 LP  0  0  0  0  0  0  0  0  0  0  0  0  # atno 17343 bound_to 10162
  157.6578  131.0886  150.7908 LP  0  0  0  0  0  0  0  0  0  0  0  0  # atno 17370 bound_to 10713
  156.7983  130.4912  149.5374 LP  0  0  0  0  0  0  0  0  0  0  0  0  # atno 17371 bound_to 10713
  140.5770  134.5784  157.5471 LP  0  0  0  0  0  0  0  0  0  0  0  0  # atno 17394 bound_to 11000
  139.9478  134.7671  156.0520 LP  0  0  0  0  0  0  0  0  0  0  0  0  # atno 17395 bound_to 11000

$$$$
