AV-unprocessed.smi:203|AV-procd|sdf|1594|dock6
  -GOLD-   2262019493D 1   1.00000     0.00000
 Structure written by MMmdl.
 57 61  0  0  0  0  0  0  0  0  1 V2000
  142.4273  136.3439  153.2333 O   0  0  0  0  0  0  0  0  0  0  0  0
  143.5816  136.1214  152.8762 C   0  0  0  0  0  0  0  0  0  0  0  0
  144.4952  135.1217  153.5643 C   0  0  0  0  0  0  0  0  0  0  0  0
  145.7086  135.0269  152.6165 C   0  0  1  0  0  0  0  0  0  0  0  0
  145.8360  133.6657  151.8611 C   0  0  2  0  0  0  0  0  0  0  0  0
  144.6015  133.3527  150.9741 C   0  0  0  0  0  0  0  0  0  0  0  0
  144.7530  132.0139  150.2401 C   0  0  0  0  0  0  0  0  0  0  0  0
  145.0186  130.8926  151.2501 C   0  0  0  0  0  0  0  0  0  0  0  0
  146.2468  131.2269  152.1070 C   0  0  0  0  0  0  0  0  0  0  0  0
  146.1030  132.5279  152.7599 N   0  0  0  0  0  0  0  0  0  0  0  0
  147.0782  132.7023  153.6797 C   0  0  0  0  0  0  0  0  0  0  0  0
  148.3452  132.8413  153.2187 N   0  0  0  0  0  0  0  0  0  0  0  0
  149.3541  133.0044  154.0800 C   0  0  0  0  0  0  0  0  0  0  0  0
  149.3139  133.0594  155.4133 N   0  0  0  0  0  0  0  0  0  0  0  0
  148.0380  132.9287  155.8772 C   0  0  0  0  0  0  0  0  0  0  0  0
  146.8684  132.7494  155.0868 C   0  0  0  0  0  0  0  0  0  0  0  0
  145.7506  132.6549  155.9075 N   0  0  0  0  0  0  0  0  0  0  0  0
  146.2329  132.7673  157.1151 C   0  0  0  0  0  0  0  0  0  0  0  0
  147.5974  132.9307  157.1887 N   0  0  0  0  0  0  0  0  0  0  0  0
  148.3874  133.0727  158.3996 C   0  0  0  0  0  0  0  0  0  0  0  0
  147.5107  133.1301  159.6689 C   0  0  1  0  0  0  0  0  0  0  0  0
  147.3436  131.8092  160.1477 O   0  0  0  0  0  0  0  0  0  0  0  0
  148.1365  133.9655  160.8041 C   0  0  1  0  0  0  0  0  0  0  0  0
  148.2376  135.4659  160.5195 C   0  0  0  0  0  0  0  0  0  0  0  0
  148.2639  136.0938  161.9030 C   0  0  0  0  0  0  0  0  0  0  0  0
  147.7120  134.9954  162.8143 C   0  0  0  0  0  0  0  0  0  0  0  0
  147.2769  133.9679  161.9347 O   0  0  0  0  0  0  0  0  0  0  0  0
  145.5668  136.2380  151.6697 C   0  0  0  0  0  0  0  0  0  0  0  0
  144.2065  136.7046  151.8554 N   0  0  0  0  0  0  0  0  0  0  0  0
  144.7885  135.5164  154.5376 H   0  0  0  0  0  0  0  0  0  0  0  0
  143.9945  134.1666  153.7251 H   0  0  0  0  0  0  0  0  0  0  0  0
  146.6154  135.1963  153.1978 H   0  0  0  0  0  0  0  0  0  0  0  0
  146.6934  133.7466  151.1921 H   0  0  0  0  0  0  0  0  0  0  0  0
  143.6979  133.3156  151.5827 H   0  0  0  0  0  0  0  0  0  0  0  0
  144.4402  134.1400  150.2386 H   0  0  0  0  0  0  0  0  0  0  0  0
  143.8530  131.7964  149.6642 H   0  0  0  0  0  0  0  0  0  0  0  0
  145.5761  132.0738  149.5271 H   0  0  0  0  0  0  0  0  0  0  0  0
  144.1472  130.7601  151.8929 H   0  0  0  0  0  0  0  0  0  0  0  0
  145.1704  129.9463  150.7305 H   0  0  0  0  0  0  0  0  0  0  0  0
  146.3894  130.4468  152.8564 H   0  0  0  0  0  0  0  0  0  0  0  0
  147.1403  131.2327  151.4808 H   0  0  0  0  0  0  0  0  0  0  0  0
  150.3342  133.1031  153.6372 H   0  0  0  0  0  0  0  0  0  0  0  0
  145.6036  132.7298  157.9927 H   0  0  0  0  0  0  0  0  0  0  0  0
  149.0950  132.2446  158.4598 H   0  0  0  0  0  0  0  0  0  0  0  0
  148.9812  133.9815  158.3001 H   0  0  0  0  0  0  0  0  0  0  0  0
  146.5320  133.5370  159.4112 H   0  0  0  0  0  0  0  0  0  0  0  0
  146.6153  131.4148  159.6924 H   0  0  0  0  0  0  0  0  0  0  0  0
  149.1180  133.5773  161.0843 H   0  0  0  0  0  0  0  0  0  0  0  0
  149.1126  135.7257  159.9229 H   0  0  0  0  0  0  0  0  0  0  0  0
  147.3503  135.8066  159.9839 H   0  0  0  0  0  0  0  0  0  0  0  0
  149.2792  136.3598  162.1994 H   0  0  0  0  0  0  0  0  0  0  0  0
  147.6547  136.9975  161.9370 H   0  0  0  0  0  0  0  0  0  0  0  0
  148.4955  134.6053  163.4655 H   0  0  0  0  0  0  0  0  0  0  0  0
  146.8908  135.3454  163.4403 H   0  0  0  0  0  0  0  0  0  0  0  0
  146.2515  137.0369  151.9575 H   0  0  0  0  0  0  0  0  0  0  0  0
  145.7660  135.9965  150.6256 H   0  0  0  0  0  0  0  0  0  0  0  0
  143.7852  137.4023  151.2591 H   0  0  0  0  0  0  0  0  0  0  0  0
  1  2  2  0  0  0  0
  2 29  1  0  0  0  0
  2  3  1  0  0  0  0
  3  4  1  0  0  0  0
  3 30  1  0  0  0  0
  3 31  1  0  0  0  0
  4  5  1  0  0  0  0
  4 28  1  0  0  0  0
  4 32  1  0  0  0  0
  5 10  1  0  0  0  0
  5  6  1  0  0  0  0
  5 33  1  0  0  0  0
  6  7  1  0  0  0  0
  6 34  1  0  0  0  0
  6 35  1  0  0  0  0
  7  8  1  0  0  0  0
  7 36  1  0  0  0  0
  7 37  1  0  0  0  0
  8  9  1  0  0  0  0
  8 38  1  0  0  0  0
  8 39  1  0  0  0  0
  9 10  1  0  0  0  0
  9 40  1  0  0  0  0
  9 41  1  0  0  0  0
 10 11  1  0  0  0  0
 11 16  1  0  0  0  0
 11 12  2  0  0  0  0
 12 13  1  0  0  0  0
 13 14  2  0  0  0  0
 13 42  1  0  0  0  0
 14 15  1  0  0  0  0
 15 19  1  0  0  0  0
 15 16  2  0  0  0  0
 16 17  1  0  0  0  0
 17 18  2  0  0  0  0
 18 19  1  0  0  0  0
 18 43  1  0  0  0  0
 19 20  1  0  0  0  0
 20 21  1  0  0  0  0
 20 44  1  0  0  0  0
 20 45  1  0  0  0  0
 21 22  1  0  0  0  0
 21 23  1  0  0  0  0
 21 46  1  0  0  0  0
 22 47  1  0  0  0  0
 23 27  1  0  0  0  0
 23 24  1  0  0  0  0
 23 48  1  0  0  0  0
 24 25  1  0  0  0  0
 24 49  1  0  0  0  0
 24 50  1  0  0  0  0
 25 26  1  0  0  0  0
 25 51  1  0  0  0  0
 25 52  1  0  0  0  0
 26 27  1  0  0  0  0
 26 53  1  0  0  0  0
 26 54  1  0  0  0  0
 28 29  1  0  0  0  0
 28 55  1  0  0  0  0
 28 56  1  0  0  0  0
 29 57  1  0  0  0  0
M  END
> <s_m_source_file>
AV-unprocessed.smi

> <i_m_source_file_index>
203

> <i_lp_mmshare_version>
43012

> <i_f3d_flags>
0

> <s_epik_input>
Tz1DMVtDSDJdW0NASF0oW0NIMl1bTkhdMSlbQ0BASF0yW0NIMl1bQ0gyXVtDSDJdW0NIMl1OMmMobltjSF1uMyljKGMzNCluW2NIXW40W0NIMl1bQ0BIXShbT0hdKVtDQEBIXTVbQ0gyXVtDSDJdW0NIMl1PNQ==

> <s_epik_cmdline>
J2VwaWtfcHl0aG9uJywgJy1waCcsICc3LjAnLCAnLXRuJywgJzgnLCAnLW1hJywgJzIwMCcsICctbWV0YWxfYmluZGluZycsICctaW1hZScsICc8aW5maWxlLm1hZT4nLCAnLW9tYWUnLCAnPG91dGZpbGUubWFlPic=

> <r_lp_tautomer_probability>
1

> <r_epik_Ionization_Penalty>
0.00175146

> <r_epik_Ionization_Penalty_Charging>
0

> <r_epik_Ionization_Penalty_Neutral>
0.00175146

> <r_epik_State_Penalty>
0.00109045

> <r_epik_Charging_Adjusted_Penalty>
0.00109045

> <i_epik_Tot_Q>
0

> <i_epik_Tot_abs_Q>
0

> <r_epik_Metal_State_Penalty>
-0

> <b_epik_Metal_Only>
0

> <s_lp_Force_Field>
OPLS_2005

> <r_lp_Energy>
57.3178

> <b_lp_Chiralities_Consistent>
1

> <s_lp_Variant>
AV-unprocessed.smi:203-13

> <Gold.Version>
5.8.1

> <Gold.Id.Protein>
6NUR|6NUR_protein|mol2

> <Gold.PLP.Fitness>
42.4412

> <Gold.PLP.PLP>
-40.2528

> <Gold.PLP.part.hbond>
-1.0000

> <Gold.PLP.part.metal>
0.0000

> <Gold.PLP.part.buried>
-8.9777

> <Gold.PLP.part.nonpolar>
-31.4514

> <Gold.PLP.part.repulsive>
0.6546

> <Gold.PLP.ligand.clash>
0.0000

> <Gold.PLP.ligand.torsion>
0.5410

> <Gold.PLP.Chemscore.Hbond>
1.0000

> <Gold.PLP.Chemscore.CHOScore>
0.0000

> <Gold.PLP.Chemscore.Metal>
0.0000

> <Gold.Chemscore.Hbonds>
donor molecule, donor type, donor heavy atom, donor atom, acceptor molecule, acceptor atom, score
      L1  H    29    57       P1 10171  1.00

> <Gold.PLP.Chemscore.Internal.Correction>
0.2705

> <Gold.Rescore>
     Score         DG    S(hbond)    S(metal)    S(lipo)     H(rot)  DE(clash)    DE(int)     intcor
     12.09     -12.58       1.00        0.00      91.66       2.72       0.02       0.47       ----

> <Gold.Chemscore.Fitness>
12.0876

> <Gold.Chemscore.DG>
-12.5793

> <Gold.Chemscore.ZeroCoef>
-5.4800

> <Gold.Chemscore.Hbond>
0.9974

> <Gold.Chemscore.Metal>
0.0000

> <Gold.Chemscore.Lipo>
91.6564

> <Gold.Chemscore.Internal_Hbond>
0.0000

> <Gold.Chemscore.DEClash>
0.0178

> <Gold.Chemscore.DEInternal>
0.4739

> <Gold.Chemscore.Rot>
2.7171

> <Gold.Chemscore.Internal.Correction>
   9.000000E+99

> <Gold.Chemscore.Hbonds>
donor molecule, donor type, donor heavy atom, donor atom, acceptor molecule, acceptor atom, score
      L1  H    29    57       P1 10171  0.96

> <Gold.Chemscore.Hbond.Weighted>
-3.3312

> <Gold.Chemscore.Metal.Weighted>
-0.0000

> <Gold.Chemscore.Lipo.Weighted>
-10.7238

> <Gold.Chemscore.Internal_Hbond.Weighted>
0.0000

> <Gold.Chemscore.DEClash.Weighted>
0.0178

> <Gold.Chemscore.DEInternal.Weighted>
0.4739

> <Gold.Chemscore.Rot.Weighted>
6.9557

> <Gold.Chemscore.Internal.Correction.Weighted>
   9.000000E+99

> <Gold.Protein.RotatedTorsions>
[ 6907 6896 6895 6894 ] final -155.63 input  -60.11 | X-H torsion
[ 7974 7965 7964 7962 ] final  -47.92 input  175.53 | X-H torsion
[ 8008 7997 7996 7995 ] final   30.97 input   59.86 | X-H torsion
[ 10167 10162 10161 10158 ] final  -70.92 input  -65.29 | X-H torsion
[ 10718 10713 10712 10709 ] final  170.01 input   66.30 | X-H torsion
[ 10763 10752 10751 10750 ] final  122.67 input  -60.55 | X-H torsion
[ 11005 11000 10999 10996 ] final -176.21 input  -57.11 | X-H torsion

> <Gold.Protein.ActiveResidues>
 VAL166  LYS551  ARG553  GLY616  TRP617  ASP618  TYR619  PRO620  LYS621  CYS622 
 ASP623  PHE694  ASN695  SER759  ASP760  ASP761  ALA762  ILE779  LEU786  VAL792 
 PHE793  MET794  SER795  GLU796  ALA797  LYS798  CYS799  TRP800  GLU811  SER814 

> <Gold.Protein.RotatedAtoms>
  151.2753  133.4235  159.2623 H   0  0  0  0  0  0  0  0  0  0  0  0  # atno 6907 bound_to 6896
  151.0408  134.9606  159.8171 H   0  0  0  0  0  0  0  0  0  0  0  0  # atno 6908 bound_to 6896
  152.5365  134.2711  159.9024 H   0  0  0  0  0  0  0  0  0  0  0  0  # atno 6909 bound_to 6896
  145.9565  140.7521  142.9478 H   0  0  0  0  0  0  0  0  0  0  0  0  # atno 7974 bound_to 7965
  155.0990  140.3227  155.4552 H   0  0  0  0  0  0  0  0  0  0  0  0  # atno 8008 bound_to 7997
  156.2722  140.2064  156.6063 H   0  0  0  0  0  0  0  0  0  0  0  0  # atno 8009 bound_to 7997
  154.6844  140.0523  157.0286 H   0  0  0  0  0  0  0  0  0  0  0  0  # atno 8010 bound_to 7997
  140.5314  143.2321  151.7254 H   0  0  0  0  0  0  0  0  0  0  0  0  # atno 10167 bound_to 10162
  157.0144  131.0213  151.2793 H   0  0  0  0  0  0  0  0  0  0  0  0  # atno 10718 bound_to 10713
  153.6335  135.3392  155.3049 H   0  0  0  0  0  0  0  0  0  0  0  0  # atno 10763 bound_to 10752
  154.8575  135.4301  154.2081 H   0  0  0  0  0  0  0  0  0  0  0  0  # atno 10764 bound_to 10752
  153.2982  135.7022  153.7301 H   0  0  0  0  0  0  0  0  0  0  0  0  # atno 10765 bound_to 10752
  140.4546  134.6311  157.4816 H   0  0  0  0  0  0  0  0  0  0  0  0  # atno 11005 bound_to 11000
  144.6806  140.2521  143.7330 LP  0  0  0  0  0  0  0  0  0  0  0  0  # atno 17320 bound_to 7965
  145.8099  139.1999  143.1999 LP  0  0  0  0  0  0  0  0  0  0  0  0  # atno 17321 bound_to 7965
  139.4956  144.4108  152.0083 LP  0  0  0  0  0  0  0  0  0  0  0  0  # atno 17342 bound_to 10162
  140.3210  144.3428  150.6009 LP  0  0  0  0  0  0  0  0  0  0  0  0  # atno 17343 bound_to 10162
  157.5297  130.8050  149.7902 LP  0  0  0  0  0  0  0  0  0  0  0  0  # atno 17370 bound_to 10713
  156.0124  130.3827  150.2219 LP  0  0  0  0  0  0  0  0  0  0  0  0  # atno 17371 bound_to 10713
  139.9984  134.6874  155.9570 LP  0  0  0  0  0  0  0  0  0  0  0  0  # atno 17394 bound_to 11000
  141.1649  133.6537  156.4444 LP  0  0  0  0  0  0  0  0  0  0  0  0  # atno 17395 bound_to 11000

$$$$
