AV-unprocessed.smi:2063|AV-procd|sdf|8413|dock7
  -GOLD-   2272011103D 1   1.00000     0.00000
 Structure written by MMmdl.
 38 39  0  0  0  0  0  0  0  0  2 V2000
  145.1813  133.2444  162.2016 C   0  0  0  0  0  0  0  0  0  0  0  0
  145.4262  134.7309  162.4989 C   0  0  0  0  0  0  0  0  0  0  0  0
  144.1433  135.5737  162.4568 C   0  0  0  0  0  0  0  0  0  0  0  0
  146.5088  135.3054  161.6397 C   0  0  0  0  0  0  0  0  0  0  0  0
  146.8537  136.5966  161.6642 N   0  0  0  0  0  0  0  0  0  0  0  0
  147.8763  136.8834  160.7718 N   0  0  0  0  0  0  0  0  0  0  0  0
  148.2841  135.8119  160.0774 C   0  0  0  0  0  0  0  0  0  0  0  0
  149.2616  135.8772  159.1581 N   0  5  0  0  0  0  0  0  0  0  0  0
  149.6871  137.0809  158.7103 C   0  0  0  0  0  0  0  0  0  0  0  0
  149.2634  138.1829  159.0663 O   0  0  0  0  0  0  0  0  0  0  0  0
  150.6632  137.0028  157.7940 N   0  0  0  0  0  0  0  0  0  0  0  0
  151.3112  138.1291  157.1244 C   0  0  1  0  0  0  0  0  0  0  0  0
  152.5761  137.6396  156.3966 C   0  0  0  0  0  0  0  0  0  0  0  0
  150.3060  138.7944  156.1639 C   0  0  2  0  0  0  0  0  0  0  0  0
  150.9139  139.8386  155.2267 C   0  0  0  0  0  0  0  0  0  0  0  0
  149.7021  140.6645  154.8614 C   0  0  0  0  0  0  0  0  0  0  0  0
  148.9224  140.6864  156.1733 C   0  0  0  0  0  0  0  0  0  0  0  0
  149.3206  139.5223  156.8936 O   0  0  0  0  0  0  0  0  0  0  0  0
  147.4309  134.3299  160.5067 S   0  0  0  0  0  0  0  0  0  0  0  0
  146.0974  132.6651  162.3215 H   0  0  0  0  0  0  0  0  0  0  0  0
  144.8254  133.0973  161.1814 H   0  0  0  0  0  0  0  0  0  0  0  0
  144.4350  132.8263  162.8775 H   0  0  0  0  0  0  0  0  0  0  0  0
  145.7910  134.7811  163.5255 H   0  0  0  0  0  0  0  0  0  0  0  0
  144.3416  136.6039  162.7540 H   0  0  0  0  0  0  0  0  0  0  0  0
  143.3883  135.1738  163.1343 H   0  0  0  0  0  0  0  0  0  0  0  0
  143.7139  135.5923  161.4546 H   0  0  0  0  0  0  0  0  0  0  0  0
  150.9733  136.0792  157.5294 H   0  0  0  0  0  0  0  0  0  0  0  0
  151.6025  138.8678  157.8733 H   0  0  0  0  0  0  0  0  0  0  0  0
  153.1050  138.4634  155.9178 H   0  0  0  0  0  0  0  0  0  0  0  0
  152.3311  136.9075  155.6266 H   0  0  0  0  0  0  0  0  0  0  0  0
  153.2740  137.1699  157.0903 H   0  0  0  0  0  0  0  0  0  0  0  0
  149.7910  138.0370  155.5701 H   0  0  0  0  0  0  0  0  0  0  0  0
  151.6403  140.4555  155.7575 H   0  0  0  0  0  0  0  0  0  0  0  0
  151.4051  139.3994  154.3582 H   0  0  0  0  0  0  0  0  0  0  0  0
  149.9537  141.6610  154.4978 H   0  0  0  0  0  0  0  0  0  0  0  0
  149.1238  140.1548  154.0897 H   0  0  0  0  0  0  0  0  0  0  0  0
  149.1854  141.5648  156.7634 H   0  0  0  0  0  0  0  0  0  0  0  0
  147.8448  140.7000  156.0088 H   0  0  0  0  0  0  0  0  0  0  0  0
  1  2  1  0  0  0  0
  1 20  1  0  0  0  0
  1 21  1  0  0  0  0
  1 22  1  0  0  0  0
  2  3  1  0  0  0  0
  2  4  1  0  0  0  0
  2 23  1  0  0  0  0
  3 24  1  0  0  0  0
  3 25  1  0  0  0  0
  3 26  1  0  0  0  0
  4 19  1  0  0  0  0
  4  5  2  0  0  0  0
  5  6  1  0  0  0  0
  6  7  2  0  0  0  0
  7  8  1  0  0  0  0
  7 19  1  0  0  0  0
  8  9  1  0  0  0  0
  9 10  2  0  0  0  0
  9 11  1  0  0  0  0
 11 12  1  0  0  0  0
 11 27  1  0  0  0  0
 12 13  1  0  0  0  0
 12 14  1  0  0  0  0
 12 28  1  0  0  0  0
 13 29  1  0  0  0  0
 13 30  1  0  0  0  0
 13 31  1  0  0  0  0
 14 18  1  0  0  0  0
 14 15  1  0  0  0  0
 14 32  1  0  0  0  0
 15 16  1  0  0  0  0
 15 33  1  0  0  0  0
 15 34  1  0  0  0  0
 16 17  1  0  0  0  0
 16 35  1  0  0  0  0
 16 36  1  0  0  0  0
 17 18  1  0  0  0  0
 17 37  1  0  0  0  0
 17 38  1  0  0  0  0
M  CHG  1   8  -1
M  END
> <s_m_source_file>
AV-unprocessed.smi

> <i_m_source_file_index>
2063

> <i_lp_mmshare_version>
43012

> <i_f3d_flags>
0

> <s_epik_input>
W0NIM11bQ0hdKFtDSDNdKWMxbm5jKHMxKVtOSF1DKD1PKVtOSF1bQ0BIXShbQ0gzXSlbQ0BASF0yW0NIMl1bQ0gyXVtDSDJdTzI=

> <s_epik_cmdline>
J2VwaWtfcHl0aG9uJywgJy1waCcsICc3LjAnLCAnLXRuJywgJzgnLCAnLW1hJywgJzIwMCcsICctbWV0YWxfYmluZGluZycsICctaW1hZScsICc8aW5maWxlLm1hZT4nLCAnLW9tYWUnLCAnPG91dGZpbGUubWFlPic=

> <r_lp_tautomer_probability>
1

> <r_epik_Ionization_Penalty>
4.37022

> <r_epik_Ionization_Penalty_Charging>
4.21437

> <r_epik_Ionization_Penalty_Neutral>
0.15585

> <r_epik_State_Penalty>
4.21389

> <r_epik_Charging_Adjusted_Penalty>
8.42826

> <i_epik_Tot_Q>
-1

> <i_epik_Tot_abs_Q>
1

> <r_epik_Metal_State_Penalty>
0.693772

> <b_epik_Metal_Only>
1

> <s_lp_Force_Field>
OPLS_2005

> <r_lp_Energy>
10.2416

> <b_lp_Chiralities_Consistent>
1

> <s_lp_Variant>
AV-unprocessed.smi:2063-6

> <Gold.Version>
5.8.1

> <Gold.Id.Protein>
6NUR|6NUR_protein|mol2

> <Gold.PLP.Fitness>
36.6403

> <Gold.PLP.PLP>
-27.9166

> <Gold.PLP.part.hbond>
-5.0751

> <Gold.PLP.part.metal>
0.0000

> <Gold.PLP.part.buried>
-1.4299

> <Gold.PLP.part.nonpolar>
-21.6526

> <Gold.PLP.part.repulsive>
0.0885

> <Gold.PLP.ligand.clash>
0.0000

> <Gold.PLP.ligand.torsion>
0.4406

> <Gold.PLP.Chemscore.Hbond>
3.1664

> <Gold.PLP.Chemscore.CHOScore>
0.0000

> <Gold.PLP.Chemscore.Metal>
0.0000

> <Gold.Chemscore.Hbonds>
donor molecule, donor type, donor heavy atom, donor atom, acceptor molecule, acceptor atom, score
      P1  H  6896  6909       L1     8  2.00
      P1  H  6931  6943       L1     6  0.76
      P1  H  6934  6947       L1     6  0.12

> <Gold.PLP.Chemscore.Internal.Correction>
0.1058

> <Gold.Rescore>
     Score         DG    S(hbond)    S(metal)    S(lipo)     H(rot)  DE(clash)    DE(int)     intcor
     11.14     -15.37       1.76        0.00      64.74       1.39       0.36       3.87       ----

> <Gold.Chemscore.Fitness>
11.1394

> <Gold.Chemscore.DG>
-15.3706

> <Gold.Chemscore.ZeroCoef>
-5.4800

> <Gold.Chemscore.Hbond>
1.7584

> <Gold.Chemscore.Metal>
0.0000

> <Gold.Chemscore.Lipo>
64.7363

> <Gold.Chemscore.Internal_Hbond>
0.0000

> <Gold.Chemscore.DEClash>
0.3563

> <Gold.Chemscore.DEInternal>
3.8748

> <Gold.Chemscore.Rot>
1.3893

> <Gold.Chemscore.Internal.Correction>
   9.000000E+99

> <Gold.Chemscore.Hbonds>
donor molecule, donor type, donor heavy atom, donor atom, acceptor molecule, acceptor atom, score
      P1  H  6896  6909       L1     8  0.58
      P1  H  6931  6943       L1     6  0.21

> <Gold.Chemscore.Hbond.Weighted>
-5.8731

> <Gold.Chemscore.Metal.Weighted>
-0.0000

> <Gold.Chemscore.Lipo.Weighted>
-7.5741

> <Gold.Chemscore.Internal_Hbond.Weighted>
0.0000

> <Gold.Chemscore.DEClash.Weighted>
0.3563

> <Gold.Chemscore.DEInternal.Weighted>
3.8748

> <Gold.Chemscore.Rot.Weighted>
3.5567

> <Gold.Chemscore.Internal.Correction.Weighted>
   9.000000E+99

> <Gold.Protein.RotatedTorsions>
[ 6907 6896 6895 6894 ] final   65.32 input  -60.11 | X-H torsion
[ 7974 7965 7964 7962 ] final -112.79 input  175.53 | X-H torsion
[ 8008 7997 7996 7995 ] final  -98.38 input   59.86 | X-H torsion
[ 10167 10162 10161 10158 ] final   59.67 input  -65.29 | X-H torsion
[ 10718 10713 10712 10709 ] final  -52.71 input   66.30 | X-H torsion
[ 10763 10752 10751 10750 ] final -173.99 input  -60.55 | X-H torsion
[ 11005 11000 10999 10996 ] final   92.94 input  -57.11 | X-H torsion

> <Gold.Protein.ActiveResidues>
 VAL166  LYS551  ARG553  GLY616  TRP617  ASP618  TYR619  PRO620  LYS621  CYS622 
 ASP623  PHE694  ASN695  SER759  ASP760  ASP761  ALA762  ILE779  LEU786  VAL792 
 PHE793  MET794  SER795  GLU796  ALA797  LYS798  CYS799  TRP800  GLU811  SER814 

> <Gold.Protein.RotatedAtoms>
  152.4398  134.5613  159.9894 H   0  0  0  0  0  0  0  0  0  0  0  0  # atno 6907 bound_to 6896
  151.5713  133.3384  159.2998 H   0  0  0  0  0  0  0  0  0  0  0  0  # atno 6908 bound_to 6896
  150.8303  134.7586  159.6911 H   0  0  0  0  0  0  0  0  0  0  0  0  # atno 6909 bound_to 6896
  145.1398  140.8771  143.3709 H   0  0  0  0  0  0  0  0  0  0  0  0  # atno 7974 bound_to 7965
  154.8005  140.0455  157.1269 H   0  0  0  0  0  0  0  0  0  0  0  0  # atno 8008 bound_to 7997
  154.9485  140.3062  155.5067 H   0  0  0  0  0  0  0  0  0  0  0  0  # atno 8009 bound_to 7997
  156.2961  140.2292  156.4560 H   0  0  0  0  0  0  0  0  0  0  0  0  # atno 8010 bound_to 7997
  140.1739  144.4249  150.6648 H   0  0  0  0  0  0  0  0  0  0  0  0  # atno 10167 bound_to 10162
  156.1597  130.4150  149.9812 H   0  0  0  0  0  0  0  0  0  0  0  0  # atno 10718 bound_to 10713
  154.6015  135.2855  155.0530 H   0  0  0  0  0  0  0  0  0  0  0  0  # atno 10763 bound_to 10752
  154.1793  135.6459  153.5034 H   0  0  0  0  0  0  0  0  0  0  0  0  # atno 10764 bound_to 10752
  153.0159  135.5420  154.6736 H   0  0  0  0  0  0  0  0  0  0  0  0  # atno 10765 bound_to 10752
  139.8816  134.8761  156.3645 H   0  0  0  0  0  0  0  0  0  0  0  0  # atno 11005 bound_to 11000
  145.0545  139.3155  143.5912 LP  0  0  0  0  0  0  0  0  0  0  0  0  # atno 17320 bound_to 7965
  146.3506  139.9965  142.8680 LP  0  0  0  0  0  0  0  0  0  0  0  0  # atno 17321 bound_to 7965
  140.6564  143.2239  151.5959 LP  0  0  0  0  0  0  0  0  0  0  0  0  # atno 17342 bound_to 10162
  139.5325  144.2874  152.1180 LP  0  0  0  0  0  0  0  0  0  0  0  0  # atno 17343 bound_to 10162
  156.7645  130.9163  151.3642 LP  0  0  0  0  0  0  0  0  0  0  0  0  # atno 17370 bound_to 10713
  157.6723  130.9062  150.0069 LP  0  0  0  0  0  0  0  0  0  0  0  0  # atno 17371 bound_to 10713
  140.9507  133.7453  156.0268 LP  0  0  0  0  0  0  0  0  0  0  0  0  # atno 17394 bound_to 11000
  140.8109  134.3400  157.5412 LP  0  0  0  0  0  0  0  0  0  0  0  0  # atno 17395 bound_to 11000

$$$$
