AV-unprocessed.smi:249|AV-procd|sdf|1924|dock2
  -GOLD-   2262021 33D 1   1.00000     0.00000
 Structure written by MMmdl.
 64 67  0  0  0  0  0  0  0  0  2 V2000
  146.4850  129.3971  151.8906 C   0  0  0  0  0  0  0  0  0  0  0  0
  147.2460  129.8661  153.1401 C   0  0  0  0  0  0  0  0  0  0  0  0
  148.1152  131.0535  152.8884 N   0  3  2  0  0  0  0  0  0  0  0  0
  149.2931  131.1503  153.7969 C   0  0  0  0  0  0  0  0  0  0  0  0
  148.8883  131.5712  155.2229 C   0  0  0  0  0  0  0  0  0  0  0  0
  148.1073  132.8998  155.1998 C   0  0  2  0  0  0  0  0  0  0  0  0
  147.7044  133.3381  156.5412 N   0  0  0  0  0  0  0  0  0  0  0  0
  147.5006  132.3491  157.5996 C   0  0  0  0  0  0  0  0  0  0  0  0
  148.1814  134.5510  156.9250 C   0  0  0  0  0  0  0  0  0  0  0  0
  147.7474  135.1074  158.0877 N   0  0  0  0  0  0  0  0  0  0  0  0
  148.2221  136.2901  158.4893 C   0  0  0  0  0  0  0  0  0  0  0  0
  149.1236  137.0725  157.8937 N   0  0  0  0  0  0  0  0  0  0  0  0
  149.5601  136.5236  156.7246 C   0  0  0  0  0  0  0  0  0  0  0  0
  149.1400  135.2827  156.1677 C   0  0  0  0  0  0  0  0  0  0  0  0
  149.7855  135.0666  154.9553 N   0  0  0  0  0  0  0  0  0  0  0  0
  150.5526  136.1124  154.8109 C   0  0  0  0  0  0  0  0  0  0  0  0
  150.4995  137.0252  155.8402 N   0  0  0  0  0  0  0  0  0  0  0  0
  151.2439  138.2690  155.9349 C   0  0  0  0  0  0  0  0  0  0  0  0
  150.3812  139.5289  156.2298 C   0  0  2  0  0  0  0  0  0  0  0  0
  149.5370  139.8684  154.9776 C   0  0  0  0  0  0  0  0  0  0  0  0
  150.3522  140.0375  153.8360 O   0  0  0  0  0  0  0  0  0  0  0  0
  151.2217  140.7561  156.6954 C   0  0  1  0  0  0  0  0  0  0  0  0
  150.4064  141.9567  157.1535 C   0  0  0  0  0  0  0  0  0  0  0  0
  151.4255  142.7626  157.9458 C   0  0  0  0  0  0  0  0  0  0  0  0
  152.2117  141.7876  158.6121 O   0  0  0  0  0  0  0  0  0  0  0  0
  152.0992  140.5368  157.9399 C   0  0  0  0  0  0  0  0  0  0  0  0
  146.9194  132.8108  154.2215 C   0  0  0  0  0  0  0  0  0  0  0  0
  147.3976  132.3643  152.8240 C   0  0  2  0  0  0  0  0  0  0  0  0
  146.2707  132.4003  151.7760 C   0  0  0  0  0  0  0  0  0  0  0  0
  145.7504  128.6368  152.1569 H   0  0  0  0  0  0  0  0  0  0  0  0
  147.1457  128.9504  151.1485 H   0  0  0  0  0  0  0  0  0  0  0  0
  145.9488  130.2213  151.4196 H   0  0  0  0  0  0  0  0  0  0  0  0
  146.4903  130.1159  153.8824 H   0  0  0  0  0  0  0  0  0  0  0  0
  147.8215  129.0408  153.5584 H   0  0  0  0  0  0  0  0  0  0  0  0
  149.8576  130.2198  153.8188 H   0  0  0  0  0  0  0  0  0  0  0  0
  149.9803  131.8925  153.3877 H   0  0  0  0  0  0  0  0  0  0  0  0
  148.2958  130.7833  155.6876 H   0  0  0  0  0  0  0  0  0  0  0  0
  149.7839  131.6786  155.8363 H   0  0  0  0  0  0  0  0  0  0  0  0
  148.7853  133.6424  154.7814 H   0  0  0  0  0  0  0  0  0  0  0  0
  147.0339  132.8078  158.4724 H   0  0  0  0  0  0  0  0  0  0  0  0
  148.4483  131.9099  157.9118 H   0  0  0  0  0  0  0  0  0  0  0  0
  146.8435  131.5452  157.2714 H   0  0  0  0  0  0  0  0  0  0  0  0
  147.8264  136.6605  159.4235 H   0  0  0  0  0  0  0  0  0  0  0  0
  151.1927  136.2400  153.9498 H   0  0  0  0  0  0  0  0  0  0  0  0
  152.0089  138.1573  156.7045 H   0  0  0  0  0  0  0  0  0  0  0  0
  151.7789  138.3829  154.9920 H   0  0  0  0  0  0  0  0  0  0  0  0
  149.6784  139.2911  157.0291 H   0  0  0  0  0  0  0  0  0  0  0  0
  148.8375  139.0690  154.7378 H   0  0  0  0  0  0  0  0  0  0  0  0
  148.9485  140.7719  155.1393 H   0  0  0  0  0  0  0  0  0  0  0  0
  149.8166  139.9303  153.0649 H   0  0  0  0  0  0  0  0  0  0  0  0
  151.8611  141.0819  155.8731 H   0  0  0  0  0  0  0  0  0  0  0  0
  149.9835  142.5335  156.3306 H   0  0  0  0  0  0  0  0  0  0  0  0
  149.5922  141.6398  157.8073 H   0  0  0  0  0  0  0  0  0  0  0  0
  152.0661  143.3349  157.2737 H   0  0  0  0  0  0  0  0  0  0  0  0
  150.9618  143.4546  158.6490 H   0  0  0  0  0  0  0  0  0  0  0  0
  151.6376  139.8286  158.6289 H   0  0  0  0  0  0  0  0  0  0  0  0
  153.0909  140.1654  157.6854 H   0  0  0  0  0  0  0  0  0  0  0  0
  146.1608  132.1187  154.5856 H   0  0  0  0  0  0  0  0  0  0  0  0
  146.4366  133.7864  154.1508 H   0  0  0  0  0  0  0  0  0  0  0  0
  148.1361  133.0930  152.4851 H   0  0  0  0  0  0  0  0  0  0  0  0
  145.9262  133.4232  151.6214 H   0  0  0  0  0  0  0  0  0  0  0  0
  145.4018  131.8184  152.0834 H   0  0  0  0  0  0  0  0  0  0  0  0
  146.6125  132.0222  150.8122 H   0  0  0  0  0  0  0  0  0  0  0  0
  148.4932  130.9089  151.9631 H   0  0  0  0  0  0  0  0  0  0  0  0
  1  2  1  0  0  0  0
  1 30  1  0  0  0  0
  1 31  1  0  0  0  0
  1 32  1  0  0  0  0
  2  3  1  0  0  0  0
  2 33  1  0  0  0  0
  2 34  1  0  0  0  0
  3 28  1  0  0  0  0
  3  4  1  0  0  0  0
  3 64  1  0  0  0  0
  4  5  1  0  0  0  0
  4 35  1  0  0  0  0
  4 36  1  0  0  0  0
  5  6  1  0  0  0  0
  5 37  1  0  0  0  0
  5 38  1  0  0  0  0
  6  7  1  0  0  0  0
  6 27  1  0  0  0  0
  6 39  1  0  0  0  0
  7  8  1  0  0  0  0
  7  9  1  0  0  0  0
  8 40  1  0  0  0  0
  8 41  1  0  0  0  0
  8 42  1  0  0  0  0
  9 14  1  0  0  0  0
  9 10  2  0  0  0  0
 10 11  1  0  0  0  0
 11 12  2  0  0  0  0
 11 43  1  0  0  0  0
 12 13  1  0  0  0  0
 13 17  1  0  0  0  0
 13 14  2  0  0  0  0
 14 15  1  0  0  0  0
 15 16  2  0  0  0  0
 16 17  1  0  0  0  0
 16 44  1  0  0  0  0
 17 18  1  0  0  0  0
 18 19  1  0  0  0  0
 18 45  1  0  0  0  0
 18 46  1  0  0  0  0
 19 20  1  0  0  0  0
 19 22  1  0  0  0  0
 19 47  1  0  0  0  0
 20 21  1  0  0  0  0
 20 48  1  0  0  0  0
 20 49  1  0  0  0  0
 21 50  1  0  0  0  0
 22 26  1  0  0  0  0
 22 23  1  0  0  0  0
 22 51  1  0  0  0  0
 23 24  1  0  0  0  0
 23 52  1  0  0  0  0
 23 53  1  0  0  0  0
 24 25  1  0  0  0  0
 24 54  1  0  0  0  0
 24 55  1  0  0  0  0
 25 26  1  0  0  0  0
 26 56  1  0  0  0  0
 26 57  1  0  0  0  0
 27 28  1  0  0  0  0
 27 58  1  0  0  0  0
 27 59  1  0  0  0  0
 28 29  1  0  0  0  0
 28 60  1  0  0  0  0
 29 61  1  0  0  0  0
 29 62  1  0  0  0  0
 29 63  1  0  0  0  0
M  CHG  1   3   1
M  END
> <s_m_source_file>
AV-unprocessed.smi

> <i_m_source_file_index>
249

> <i_lp_mmshare_version>
43012

> <i_f3d_flags>
0

> <s_epik_input>
W0NIM11bQ0gyXU4xW0NIMl1bQ0gyXVtDQEhdKFtDSDJdW0NASF0xW0NIM10pTihbQ0gzXSljKG5bY0hdbjIpYyhjMjMpbltjSF1uM1tDSDJdW0NASF0oW0NIMl1bT0hdKVtDQEBIXTRbQ0gyXVtDSDJdT1tDSDJdNA==

> <s_epik_cmdline>
J2VwaWtfcHl0aG9uJywgJy1waCcsICc3LjAnLCAnLXRuJywgJzgnLCAnLW1hJywgJzIwMCcsICctbWV0YWxfYmluZGluZycsICctaW1hZScsICc8aW5maWxlLm1hZT4nLCAnLW9tYWUnLCAnPG91dGZpbGUubWFlPic=

> <r_lp_tautomer_probability>
1

> <r_epik_Ionization_Penalty>
0.00294688

> <r_epik_Ionization_Penalty_Charging>
0.00169971

> <r_epik_Ionization_Penalty_Neutral>
0.00124717

> <r_epik_State_Penalty>
-0

> <r_epik_Charging_Adjusted_Penalty>
0.00169971

> <i_epik_Tot_Q>
1

> <i_epik_Tot_abs_Q>
1

> <r_epik_Metal_State_Penalty>
-0

> <b_epik_Metal_Only>
0

> <s_lp_Force_Field>
OPLS_2005

> <r_lp_Energy>
54.5526

> <b_lp_Chiralities_Consistent>
1

> <s_lp_Variant>
AV-unprocessed.smi:249-27

> <Gold.Version>
5.8.1

> <Gold.Id.Protein>
6NUR|6NUR_protein|mol2

> <Gold.PLP.Fitness>
43.2261

> <Gold.PLP.PLP>
-32.6251

> <Gold.PLP.part.hbond>
-2.6800

> <Gold.PLP.part.metal>
0.0000

> <Gold.PLP.part.buried>
-4.5837

> <Gold.PLP.part.nonpolar>
-25.9127

> <Gold.PLP.part.repulsive>
0.1581

> <Gold.PLP.ligand.clash>
0.0000

> <Gold.PLP.ligand.torsion>
1.1138

> <Gold.PLP.Chemscore.Hbond>
2.9040

> <Gold.PLP.Chemscore.CHOScore>
1.0000

> <Gold.PLP.Chemscore.Metal>
0.0000

> <Gold.Chemscore.Hbonds>
donor molecule, donor type, donor heavy atom, donor atom, acceptor molecule, acceptor atom, score
      L1  H     3    64       P1 10747  1.00
      L1  H    21    50       P1  7957  0.99
      P1  H  7989  7998       L1    21  0.93
      L1  C    16    44       P1  7949  1.00

> <Gold.PLP.Chemscore.Internal.Correction>
1.1166

> <Gold.Rescore>
     Score         DG    S(hbond)    S(metal)    S(lipo)     H(rot)  DE(clash)    DE(int)     intcor
     14.72     -18.43       2.62        0.00      93.89       2.65       0.09       3.63       ----

> <Gold.Chemscore.Fitness>
14.7176

> <Gold.Chemscore.DG>
-18.4323

> <Gold.Chemscore.ZeroCoef>
-5.4800

> <Gold.Chemscore.Hbond>
2.6213

> <Gold.Chemscore.Metal>
0.0000

> <Gold.Chemscore.Lipo>
93.8908

> <Gold.Chemscore.Internal_Hbond>
0.0000

> <Gold.Chemscore.DEClash>
0.0861

> <Gold.Chemscore.DEInternal>
3.6287

> <Gold.Chemscore.Rot>
2.6515

> <Gold.Chemscore.Internal.Correction>
   9.000000E+99

> <Gold.Chemscore.Hbonds>
donor molecule, donor type, donor heavy atom, donor atom, acceptor molecule, acceptor atom, score
      L1  H     3    64       P1 10747  0.97
      L1  H    21    50       P1  7957  0.93
      P1  H  7989  7998       L1    21  0.61

> <Gold.Chemscore.Hbond.Weighted>
-8.7550

> <Gold.Chemscore.Metal.Weighted>
-0.0000

> <Gold.Chemscore.Lipo.Weighted>
-10.9852

> <Gold.Chemscore.Internal_Hbond.Weighted>
0.0000

> <Gold.Chemscore.DEClash.Weighted>
0.0861

> <Gold.Chemscore.DEInternal.Weighted>
3.6287

> <Gold.Chemscore.Rot.Weighted>
6.7880

> <Gold.Chemscore.Internal.Correction.Weighted>
   9.000000E+99

> <Gold.Protein.RotatedTorsions>
[ 6907 6896 6895 6894 ] final  -15.69 input  -60.11 | X-H torsion
[ 7974 7965 7964 7962 ] final   47.45 input  175.53 | X-H torsion
[ 8008 7997 7996 7995 ] final  -62.72 input   59.86 | X-H torsion
[ 10167 10162 10161 10158 ] final  100.58 input  -65.29 | X-H torsion
[ 10718 10713 10712 10709 ] final   29.22 input   66.30 | X-H torsion
[ 10763 10752 10751 10750 ] final  154.34 input  -60.55 | X-H torsion
[ 11005 11000 10999 10996 ] final  137.99 input  -57.11 | X-H torsion

> <Gold.Protein.ActiveResidues>
 VAL166  LYS551  ARG553  GLY616  TRP617  ASP618  TYR619  PRO620  LYS621  CYS622 
 ASP623  PHE694  ASN695  SER759  ASP760  ASP761  ALA762  ILE779  LEU786  VAL792 
 PHE793  MET794  SER795  GLU796  ALA797  LYS798  CYS799  TRP800  GLU811  SER814 

> <Gold.Protein.RotatedAtoms>
  151.3200  135.0816  159.9302 H   0  0  0  0  0  0  0  0  0  0  0  0  # atno 6907 bound_to 6896
  152.5259  133.9648  159.7744 H   0  0  0  0  0  0  0  0  0  0  0  0  # atno 6908 bound_to 6896
  150.9968  133.6043  159.2730 H   0  0  0  0  0  0  0  0  0  0  0  0  # atno 6909 bound_to 6896
  146.0297  139.4748  142.9846 H   0  0  0  0  0  0  0  0  0  0  0  0  # atno 7974 bound_to 7965
  154.4515  140.0990  156.6631 H   0  0  0  0  0  0  0  0  0  0  0  0  # atno 8008 bound_to 7997
  155.5271  140.3480  155.4400 H   0  0  0  0  0  0  0  0  0  0  0  0  # atno 8009 bound_to 7997
  156.0690  140.1345  156.9840 H   0  0  0  0  0  0  0  0  0  0  0  0  # atno 8010 bound_to 7997
  139.7514  144.6983  151.0427 H   0  0  0  0  0  0  0  0  0  0  0  0  # atno 10167 bound_to 10162
  157.2437  130.7081  149.6371 H   0  0  0  0  0  0  0  0  0  0  0  0  # atno 10718 bound_to 10713
  154.1508  135.2815  155.3136 H   0  0  0  0  0  0  0  0  0  0  0  0  # atno 10763 bound_to 10752
  154.6219  135.5464  153.7588 H   0  0  0  0  0  0  0  0  0  0  0  0  # atno 10764 bound_to 10752
  153.0222  135.6441  154.1652 H   0  0  0  0  0  0  0  0  0  0  0  0  # atno 10765 bound_to 10752
  140.0152  134.9421  157.0362 H   0  0  0  0  0  0  0  0  0  0  0  0  # atno 11005 bound_to 11000
  145.7061  141.0121  143.1478 LP  0  0  0  0  0  0  0  0  0  0  0  0  # atno 17320 bound_to 7965
  144.7025  139.8702  143.7440 LP  0  0  0  0  0  0  0  0  0  0  0  0  # atno 17321 bound_to 7965
  140.7798  143.4804  151.0025 LP  0  0  0  0  0  0  0  0  0  0  0  0  # atno 17342 bound_to 10162
  139.8492  143.7461  152.3178 LP  0  0  0  0  0  0  0  0  0  0  0  0  # atno 17343 bound_to 10162
  155.9669  130.4450  150.5483 LP  0  0  0  0  0  0  0  0  0  0  0  0  # atno 17370 bound_to 10713
  157.3352  131.0707  151.1830 LP  0  0  0  0  0  0  0  0  0  0  0  0  # atno 17371 bound_to 10713
  140.4483  134.1609  155.7179 LP  0  0  0  0  0  0  0  0  0  0  0  0  # atno 17394 bound_to 11000
  141.1738  133.8555  157.1487 LP  0  0  0  0  0  0  0  0  0  0  0  0  # atno 17395 bound_to 11000

$$$$
