AV-unprocessed.smi:1032|AV-procd|sdf|4482|dock8
  -GOLD-   22720 2463D 1   1.00000     0.00000
 Structure written by MMmdl.
 46 47  0  0  0  0  0  0  0  0  2 V2000
  142.9145  145.2533  154.7626 C   0  0  0  0  0  0  0  0  0  0  0  0
  144.0749  144.2861  155.0364 C   0  0  2  0  0  0  0  0  0  0  0  0
  144.9397  144.0683  153.7833 C   0  0  0  0  0  0  0  0  0  0  0  0
  146.0770  143.0688  154.0528 C   0  0  0  0  0  0  0  0  0  0  0  0
  145.5429  141.7714  154.5457 N   0  3  1  0  0  0  0  0  0  0  0  0
  146.5846  140.7222  154.6919 C   0  0  0  0  0  0  0  0  0  0  0  0
  147.7682  140.9260  153.7239 C   0  0  2  0  0  0  0  0  0  0  0  0
  147.6687  139.9425  152.7128 O   0  0  0  0  0  0  0  0  0  0  0  0
  149.1228  140.7424  154.4393 C   0  0  0  0  0  0  0  0  0  0  0  0
  149.4364  141.8620  155.3226 N   0  0  0  0  0  0  0  0  0  0  0  0
  150.2438  141.7957  156.3917 C   0  0  0  0  0  0  0  0  0  0  0  0
  150.7913  140.7557  156.7581 O   0  0  0  0  0  0  0  0  0  0  0  0
  150.3474  142.9910  156.9985 N   0  0  0  0  0  0  0  0  0  0  0  0
  151.1045  143.3466  158.1486 C   0  0  0  0  0  0  0  0  0  0  0  0
  151.2022  144.7167  158.4688 C   0  0  0  0  0  0  0  0  0  0  0  0
  151.9593  145.0999  159.5940 C   0  0  0  0  0  0  0  0  0  0  0  0
  152.6089  144.2207  160.3853 N   0  0  0  0  0  0  0  0  0  0  0  0
  152.5258  142.9109  160.0703 C   0  0  0  0  0  0  0  0  0  0  0  0
  151.7955  142.4215  158.9685 C   0  0  0  0  0  0  0  0  0  0  0  0
  144.7407  141.9507  155.7830 C   0  0  0  0  0  0  0  0  0  0  0  0
  143.5739  142.9255  155.5500 C   0  0  0  0  0  0  0  0  0  0  0  0
  142.2429  144.8623  153.9976 H   0  0  0  0  0  0  0  0  0  0  0  0
  143.2827  146.2203  154.4183 H   0  0  0  0  0  0  0  0  0  0  0  0
  142.3264  145.4274  155.6641 H   0  0  0  0  0  0  0  0  0  0  0  0
  144.7027  144.7317  155.8096 H   0  0  0  0  0  0  0  0  0  0  0  0
  144.3197  143.7005  152.9644 H   0  0  0  0  0  0  0  0  0  0  0  0
  145.3591  145.0183  153.4501 H   0  0  0  0  0  0  0  0  0  0  0  0
  146.6432  142.9247  153.1336 H   0  0  0  0  0  0  0  0  0  0  0  0
  146.7714  143.4807  154.7868 H   0  0  0  0  0  0  0  0  0  0  0  0
  146.9313  140.7076  155.7263 H   0  0  0  0  0  0  0  0  0  0  0  0
  146.1515  139.7380  154.5056 H   0  0  0  0  0  0  0  0  0  0  0  0
  147.7172  141.9136  153.2674 H   0  0  0  0  0  0  0  0  0  0  0  0
  148.2295  140.1939  151.9943 H   0  0  0  0  0  0  0  0  0  0  0  0
  149.1076  139.8307  155.0393 H   0  0  0  0  0  0  0  0  0  0  0  0
  149.9309  140.6126  153.7183 H   0  0  0  0  0  0  0  0  0  0  0  0
  149.0234  142.7541  155.0917 H   0  0  0  0  0  0  0  0  0  0  0  0
  149.7787  143.7314  156.6148 H   0  0  0  0  0  0  0  0  0  0  0  0
  150.7047  145.4651  157.8692 H   0  0  0  0  0  0  0  0  0  0  0  0
  152.0469  146.1421  159.8635 H   0  0  0  0  0  0  0  0  0  0  0  0
  153.0640  142.2302  160.7135 H   0  0  0  0  0  0  0  0  0  0  0  0
  151.7941  141.3607  158.7729 H   0  0  0  0  0  0  0  0  0  0  0  0
  144.3405  140.9890  156.1067 H   0  0  0  0  0  0  0  0  0  0  0  0
  145.3830  142.3140  156.5870 H   0  0  0  0  0  0  0  0  0  0  0  0
  143.0165  143.0587  156.4778 H   0  0  0  0  0  0  0  0  0  0  0  0
  142.8771  142.4919  154.8310 H   0  0  0  0  0  0  0  0  0  0  0  0
  144.9013  141.4290  153.8443 H   0  0  0  0  0  0  0  0  0  0  0  0
  1  2  1  0  0  0  0
  1 22  1  0  0  0  0
  1 23  1  0  0  0  0
  1 24  1  0  0  0  0
  2 21  1  0  0  0  0
  2  3  1  0  0  0  0
  2 25  1  0  0  0  0
  3  4  1  0  0  0  0
  3 26  1  0  0  0  0
  3 27  1  0  0  0  0
  4  5  1  0  0  0  0
  4 28  1  0  0  0  0
  4 29  1  0  0  0  0
  5  6  1  0  0  0  0
  5 20  1  0  0  0  0
  5 46  1  0  0  0  0
  6  7  1  0  0  0  0
  6 30  1  0  0  0  0
  6 31  1  0  0  0  0
  7  8  1  0  0  0  0
  7  9  1  0  0  0  0
  7 32  1  0  0  0  0
  8 33  1  0  0  0  0
  9 10  1  0  0  0  0
  9 34  1  0  0  0  0
  9 35  1  0  0  0  0
 10 11  1  0  0  0  0
 10 36  1  0  0  0  0
 11 12  2  0  0  0  0
 11 13  1  0  0  0  0
 13 14  1  0  0  0  0
 13 37  1  0  0  0  0
 14 19  1  0  0  0  0
 14 15  2  0  0  0  0
 15 16  1  0  0  0  0
 15 38  1  0  0  0  0
 16 17  2  0  0  0  0
 16 39  1  0  0  0  0
 17 18  1  0  0  0  0
 18 19  2  0  0  0  0
 18 40  1  0  0  0  0
 19 41  1  0  0  0  0
 20 21  1  0  0  0  0
 20 42  1  0  0  0  0
 20 43  1  0  0  0  0
 21 44  1  0  0  0  0
 21 45  1  0  0  0  0
M  CHG  1   5   1
M  END
> <s_m_source_file>
AV-unprocessed.smi

> <i_m_source_file_index>
1032

> <i_lp_mmshare_version>
43012

> <i_f3d_flags>
0

> <s_epik_input>
W0NIM11bQ0hdMVtDSDJdW0NIMl1OKFtDSDJdW0NIMl0xKVtDSDJdW0NASF0oW09IXSlbQ0gyXVtOSF1DKD1PKVtOSF1jMltjSF1bY0hdbltjSF1bY0hdMg==

> <s_epik_cmdline>
J2VwaWtfcHl0aG9uJywgJy1waCcsICc3LjAnLCAnLXRuJywgJzgnLCAnLW1hJywgJzIwMCcsICctbWV0YWxfYmluZGluZycsICctaW1hZScsICc8aW5maWxlLm1hZT4nLCAnLW9tYWUnLCAnPG91dGZpbGUubWFlPic=

> <r_epik_Ionization_Penalty>
0.11743

> <r_epik_Ionization_Penalty_Charging>
0.00147689

> <r_epik_Ionization_Penalty_Neutral>
0.115954

> <r_epik_State_Penalty>
0.105552

> <r_epik_Charging_Adjusted_Penalty>
0.107029

> <i_epik_Tot_Q>
1

> <i_epik_Tot_abs_Q>
1

> <r_epik_Metal_State_Penalty>
0.0881315

> <b_epik_Metal_Only>
0

> <s_lp_Force_Field>
OPLS_2005

> <r_lp_Energy>
24.9442

> <b_lp_Chiralities_Consistent>
1

> <s_lp_Variant>
AV-unprocessed.smi:1032-1

> <Gold.Version>
5.8.1

> <Gold.Id.Protein>
6NUR|6NUR_protein|mol2

> <Gold.PLP.Fitness>
55.4751

> <Gold.PLP.PLP>
-43.5393

> <Gold.PLP.part.hbond>
-3.5965

> <Gold.PLP.part.metal>
0.0000

> <Gold.PLP.part.buried>
-7.9645

> <Gold.PLP.part.nonpolar>
-34.8782

> <Gold.PLP.part.repulsive>
0.2656

> <Gold.PLP.ligand.clash>
0.0198

> <Gold.PLP.ligand.torsion>
1.2672

> <Gold.PLP.Chemscore.Hbond>
4.8199

> <Gold.PLP.Chemscore.CHOScore>
0.0000

> <Gold.PLP.Chemscore.Metal>
0.0000

> <Gold.Chemscore.Hbonds>
donor molecule, donor type, donor heavy atom, donor atom, acceptor molecule, acceptor atom, score
      L1  H     5    46       P1 10175  1.95
      L1  H     8    33       P1  7957  1.00
      L1  H    10    36       P1  8028  0.89
      L1  H    13    37       P1  8028  1.00

> <Gold.PLP.Chemscore.Internal.Correction>
0.0302

> <Gold.Rescore>
     Score         DG    S(hbond)    S(metal)    S(lipo)     H(rot)  DE(clash)    DE(int)     intcor
     19.71     -22.17       3.05        0.00     105.56       2.29       0.00       2.46       ----

> <Gold.Chemscore.Fitness>
19.7140

> <Gold.Chemscore.DG>
-22.1720

> <Gold.Chemscore.ZeroCoef>
-5.4800

> <Gold.Chemscore.Hbond>
3.0524

> <Gold.Chemscore.Metal>
0.0000

> <Gold.Chemscore.Lipo>
105.5601

> <Gold.Chemscore.Internal_Hbond>
0.0000

> <Gold.Chemscore.DEClash>
0.0004

> <Gold.Chemscore.DEInternal>
2.4576

> <Gold.Chemscore.Rot>
2.2865

> <Gold.Chemscore.Internal.Correction>
   9.000000E+99

> <Gold.Chemscore.Hbonds>
donor molecule, donor type, donor heavy atom, donor atom, acceptor molecule, acceptor atom, score
      L1  H     5    46       P1 10175  0.27
      L1  H     8    33       P1  7957  0.95
      L1  H    10    36       P1  8028  0.80
      L1  H    13    37       P1  8028  0.99

> <Gold.Chemscore.Hbond.Weighted>
-10.1950

> <Gold.Chemscore.Metal.Weighted>
-0.0000

> <Gold.Chemscore.Lipo.Weighted>
-12.3505

> <Gold.Chemscore.Internal_Hbond.Weighted>
0.0000

> <Gold.Chemscore.DEClash.Weighted>
0.0004

> <Gold.Chemscore.DEInternal.Weighted>
2.4576

> <Gold.Chemscore.Rot.Weighted>
5.8536

> <Gold.Chemscore.Internal.Correction.Weighted>
   9.000000E+99

> <Gold.Protein.RotatedTorsions>
[ 6907 6896 6895 6894 ] final  113.52 input  -60.11 | X-H torsion
[ 7974 7965 7964 7962 ] final -164.80 input  175.53 | X-H torsion
[ 8008 7997 7996 7995 ] final -177.28 input   59.86 | X-H torsion
[ 10167 10162 10161 10158 ] final   48.67 input  -65.29 | X-H torsion
[ 10718 10713 10712 10709 ] final    5.80 input   66.30 | X-H torsion
[ 10763 10752 10751 10750 ] final  -53.29 input  -60.55 | X-H torsion
[ 11005 11000 10999 10996 ] final   45.49 input  -57.11 | X-H torsion

> <Gold.Protein.ActiveResidues>
 VAL166  LYS551  ARG553  GLY616  TRP617  ASP618  TYR619  PRO620  LYS621  CYS622 
 ASP623  PHE694  ASN695  SER759  ASP760  ASP761  ALA762  ILE779  LEU786  VAL792 
 PHE793  MET794  SER795  GLU796  ALA797  LYS798  CYS799  TRP800  GLU811  SER814 

> <Gold.Protein.RotatedAtoms>
  152.4856  133.8364  159.7129 H   0  0  0  0  0  0  0  0  0  0  0  0  # atno 6907 bound_to 6896
  150.8940  133.7197  159.2903 H   0  0  0  0  0  0  0  0  0  0  0  0  # atno 6908 bound_to 6896
  151.4660  135.1046  159.9790 H   0  0  0  0  0  0  0  0  0  0  0  0  # atno 6909 bound_to 6896
  144.7287  140.2908  143.6221 H   0  0  0  0  0  0  0  0  0  0  0  0  # atno 7974 bound_to 7965
  156.0051  140.1228  157.0509 H   0  0  0  0  0  0  0  0  0  0  0  0  # atno 8008 bound_to 7997
  154.4256  140.1099  156.5820 H   0  0  0  0  0  0  0  0  0  0  0  0  # atno 8009 bound_to 7997
  155.6158  140.3472  155.4639 H   0  0  0  0  0  0  0  0  0  0  0  0  # atno 8010 bound_to 7997
  140.2909  144.3047  150.6241 H   0  0  0  0  0  0  0  0  0  0  0  0  # atno 10167 bound_to 10162
  156.9127  130.5762  149.5647 H   0  0  0  0  0  0  0  0  0  0  0  0  # atno 10718 bound_to 10713
  154.1565  135.6481  153.4975 H   0  0  0  0  0  0  0  0  0  0  0  0  # atno 10763 bound_to 10752
  153.0123  135.5350  154.6755 H   0  0  0  0  0  0  0  0  0  0  0  0  # atno 10764 bound_to 10752
  154.6057  135.2948  155.0459 H   0  0  0  0  0  0  0  0  0  0  0  0  # atno 10765 bound_to 10752
  140.1454  134.4529  155.8419 H   0  0  0  0  0  0  0  0  0  0  0  0  # atno 11005 bound_to 11000
  145.7857  139.1908  143.2132 LP  0  0  0  0  0  0  0  0  0  0  0  0  # atno 17320 bound_to 7965
  146.0797  140.7777  142.9647 LP  0  0  0  0  0  0  0  0  0  0  0  0  # atno 17321 bound_to 7965
  140.5733  143.2179  151.7560 LP  0  0  0  0  0  0  0  0  0  0  0  0  # atno 17342 bound_to 10162
  139.4938  144.4185  152.0003 LP  0  0  0  0  0  0  0  0  0  0  0  0  # atno 17343 bound_to 10162
  156.0528  130.5594  150.9026 LP  0  0  0  0  0  0  0  0  0  0  0  0  # atno 17370 bound_to 10713
  157.5957  131.0943  150.9045 LP  0  0  0  0  0  0  0  0  0  0  0  0  # atno 17371 bound_to 10713
  141.2192  133.6850  156.7325 LP  0  0  0  0  0  0  0  0  0  0  0  0  # atno 17394 bound_to 11000
  140.2669  134.8422  157.3811 LP  0  0  0  0  0  0  0  0  0  0  0  0  # atno 17395 bound_to 11000

$$$$
