AV-unprocessed.smi:249|AV-procd|sdf|1912|dock3
  -GOLD-   2262021 03D 1   1.00000     0.00000
 Structure written by MMmdl.
 64 67  0  0  0  0  0  0  0  0  2 V2000
  146.1774  134.3013  150.9525 C   0  0  0  0  0  0  0  0  0  0  0  0
  145.2473  135.4493  150.5267 C   0  0  0  0  0  0  0  0  0  0  0  0
  145.2063  136.5742  151.5058 N   0  3  2  0  0  0  0  0  0  0  0  0
  146.4920  137.3287  151.5327 C   0  0  0  0  0  0  0  0  0  0  0  0
  146.4298  138.5461  152.4675 C   0  0  0  0  0  0  0  0  0  0  0  0
  146.0713  138.1355  153.9108 C   0  0  2  0  0  0  0  0  0  0  0  0
  147.1106  137.3341  154.5782 N   0  0  0  0  0  0  0  0  0  0  0  0
  146.7038  136.5088  155.7113 C   0  0  0  0  0  0  0  0  0  0  0  0
  148.2814  137.9564  154.8449 C   0  0  0  0  0  0  0  0  0  0  0  0
  149.4170  137.2411  154.6540 N   0  0  0  0  0  0  0  0  0  0  0  0
  150.6064  137.8025  154.8916 C   0  0  0  0  0  0  0  0  0  0  0  0
  150.8759  139.0380  155.3186 N   0  0  0  0  0  0  0  0  0  0  0  0
  149.7335  139.7538  155.5265 C   0  0  0  0  0  0  0  0  0  0  0  0
  148.4034  139.2941  155.3159 C   0  0  0  0  0  0  0  0  0  0  0  0
  147.4980  140.3010  155.6271 N   0  0  0  0  0  0  0  0  0  0  0  0
  148.2503  141.3033  155.9914 C   0  0  0  0  0  0  0  0  0  0  0  0
  149.6049  141.0555  155.9798 N   0  0  0  0  0  0  0  0  0  0  0  0
  150.6585  141.9940  156.3260 C   0  0  0  0  0  0  0  0  0  0  0  0
  151.2462  141.8201  157.7517 C   0  0  1  0  0  0  0  0  0  0  0  0
  152.1841  140.5907  157.7676 C   0  0  0  0  0  0  0  0  0  0  0  0
  152.4396  140.1476  159.0852 O   0  0  0  0  0  0  0  0  0  0  0  0
  151.9307  143.0920  158.3327 C   0  0  1  0  0  0  0  0  0  0  0  0
  151.1515  144.3918  158.2008 C   0  0  0  0  0  0  0  0  0  0  0  0
  151.8065  145.2860  159.2479 C   0  0  0  0  0  0  0  0  0  0  0  0
  152.2630  144.4143  160.2738 O   0  0  0  0  0  0  0  0  0  0  0  0
  152.1249  143.0623  159.8540 C   0  0  0  0  0  0  0  0  0  0  0  0
  144.7254  137.3912  153.8285 C   0  0  0  0  0  0  0  0  0  0  0  0
  144.7718  136.1675  152.8828 C   0  0  1  0  0  0  0  0  0  0  0  0
  143.3910  135.4790  152.9040 C   0  0  0  0  0  0  0  0  0  0  0  0
  146.2945  133.5858  150.1381 H   0  0  0  0  0  0  0  0  0  0  0  0
  145.7890  133.7449  151.8047 H   0  0  0  0  0  0  0  0  0  0  0  0
  147.1708  134.6709  151.2087 H   0  0  0  0  0  0  0  0  0  0  0  0
  145.6257  135.7939  149.5674 H   0  0  0  0  0  0  0  0  0  0  0  0
  144.2384  135.0757  150.3462 H   0  0  0  0  0  0  0  0  0  0  0  0
  147.3013  136.6612  151.8323 H   0  0  0  0  0  0  0  0  0  0  0  0
  146.7419  137.6935  150.5380 H   0  0  0  0  0  0  0  0  0  0  0  0
  147.3688  139.0980  152.4264 H   0  0  0  0  0  0  0  0  0  0  0  0
  145.6749  139.2396  152.0950 H   0  0  0  0  0  0  0  0  0  0  0  0
  145.9198  139.0381  154.5033 H   0  0  0  0  0  0  0  0  0  0  0  0
  147.5571  136.1656  156.2993 H   0  0  0  0  0  0  0  0  0  0  0  0
  146.1755  135.6217  155.3621 H   0  0  0  0  0  0  0  0  0  0  0  0
  146.0397  137.0653  156.3737 H   0  0  0  0  0  0  0  0  0  0  0  0
  151.4654  137.1724  154.7136 H   0  0  0  0  0  0  0  0  0  0  0  0
  147.8340  142.2538  156.2924 H   0  0  0  0  0  0  0  0  0  0  0  0
  151.4470  141.8743  155.5820 H   0  0  0  0  0  0  0  0  0  0  0  0
  150.2740  143.0071  156.2015 H   0  0  0  0  0  0  0  0  0  0  0  0
  150.4226  141.5660  158.4190 H   0  0  0  0  0  0  0  0  0  0  0  0
  151.7622  139.7652  157.1944 H   0  0  0  0  0  0  0  0  0  0  0  0
  153.1349  140.8329  157.2919 H   0  0  0  0  0  0  0  0  0  0  0  0
  151.6134  139.9749  159.5101 H   0  0  0  0  0  0  0  0  0  0  0  0
  152.9070  143.2258  157.8637 H   0  0  0  0  0  0  0  0  0  0  0  0
  151.2090  144.8387  157.2102 H   0  0  0  0  0  0  0  0  0  0  0  0
  150.1001  144.2345  158.4466 H   0  0  0  0  0  0  0  0  0  0  0  0
  152.6697  145.7994  158.8228 H   0  0  0  0  0  0  0  0  0  0  0  0
  151.1222  146.0396  159.6382 H   0  0  0  0  0  0  0  0  0  0  0  0
  151.2463  142.6436  160.3468 H   0  0  0  0  0  0  0  0  0  0  0  0
  152.9920  142.4738  160.1544 H   0  0  0  0  0  0  0  0  0  0  0  0
  144.3957  137.0914  154.8234 H   0  0  0  0  0  0  0  0  0  0  0  0
  143.9616  138.0845  153.4727 H   0  0  0  0  0  0  0  0  0  0  0  0
  145.5049  135.4584  153.2714 H   0  0  0  0  0  0  0  0  0  0  0  0
  143.0373  135.3481  153.9272 H   0  0  0  0  0  0  0  0  0  0  0  0
  143.4161  134.4811  152.4679 H   0  0  0  0  0  0  0  0  0  0  0  0
  142.6427  136.0681  152.3727 H   0  0  0  0  0  0  0  0  0  0  0  0
  144.5027  137.2168  151.1708 H   0  0  0  0  0  0  0  0  0  0  0  0
  1  2  1  0  0  0  0
  1 30  1  0  0  0  0
  1 31  1  0  0  0  0
  1 32  1  0  0  0  0
  2  3  1  0  0  0  0
  2 33  1  0  0  0  0
  2 34  1  0  0  0  0
  3 28  1  0  0  0  0
  3  4  1  0  0  0  0
  3 64  1  0  0  0  0
  4  5  1  0  0  0  0
  4 35  1  0  0  0  0
  4 36  1  0  0  0  0
  5  6  1  0  0  0  0
  5 37  1  0  0  0  0
  5 38  1  0  0  0  0
  6  7  1  0  0  0  0
  6 27  1  0  0  0  0
  6 39  1  0  0  0  0
  7  8  1  0  0  0  0
  7  9  1  0  0  0  0
  8 40  1  0  0  0  0
  8 41  1  0  0  0  0
  8 42  1  0  0  0  0
  9 14  1  0  0  0  0
  9 10  2  0  0  0  0
 10 11  1  0  0  0  0
 11 12  2  0  0  0  0
 11 43  1  0  0  0  0
 12 13  1  0  0  0  0
 13 17  1  0  0  0  0
 13 14  2  0  0  0  0
 14 15  1  0  0  0  0
 15 16  2  0  0  0  0
 16 17  1  0  0  0  0
 16 44  1  0  0  0  0
 17 18  1  0  0  0  0
 18 19  1  0  0  0  0
 18 45  1  0  0  0  0
 18 46  1  0  0  0  0
 19 20  1  0  0  0  0
 19 22  1  0  0  0  0
 19 47  1  0  0  0  0
 20 21  1  0  0  0  0
 20 48  1  0  0  0  0
 20 49  1  0  0  0  0
 21 50  1  0  0  0  0
 22 26  1  0  0  0  0
 22 23  1  0  0  0  0
 22 51  1  0  0  0  0
 23 24  1  0  0  0  0
 23 52  1  0  0  0  0
 23 53  1  0  0  0  0
 24 25  1  0  0  0  0
 24 54  1  0  0  0  0
 24 55  1  0  0  0  0
 25 26  1  0  0  0  0
 26 56  1  0  0  0  0
 26 57  1  0  0  0  0
 27 28  1  0  0  0  0
 27 58  1  0  0  0  0
 27 59  1  0  0  0  0
 28 29  1  0  0  0  0
 28 60  1  0  0  0  0
 29 61  1  0  0  0  0
 29 62  1  0  0  0  0
 29 63  1  0  0  0  0
M  CHG  1   3   1
M  END
> <s_m_source_file>
AV-unprocessed.smi

> <i_m_source_file_index>
249

> <i_lp_mmshare_version>
43012

> <i_f3d_flags>
0

> <s_epik_input>
W0NIM11bQ0gyXU4xW0NIMl1bQ0gyXVtDQEhdKFtDSDJdW0NASF0xW0NIM10pTihbQ0gzXSljKG5bY0hdbjIpYyhjMjMpbltjSF1uM1tDSDJdW0NASF0oW0NIMl1bT0hdKVtDQEBIXTRbQ0gyXVtDSDJdT1tDSDJdNA==

> <s_epik_cmdline>
J2VwaWtfcHl0aG9uJywgJy1waCcsICc3LjAnLCAnLXRuJywgJzgnLCAnLW1hJywgJzIwMCcsICctbWV0YWxfYmluZGluZycsICctaW1hZScsICc8aW5maWxlLm1hZT4nLCAnLW9tYWUnLCAnPG91dGZpbGUubWFlPic=

> <r_lp_tautomer_probability>
1

> <r_epik_Ionization_Penalty>
0.00294688

> <r_epik_Ionization_Penalty_Charging>
0.00169971

> <r_epik_Ionization_Penalty_Neutral>
0.00124717

> <r_epik_State_Penalty>
-0

> <r_epik_Charging_Adjusted_Penalty>
0.00169971

> <i_epik_Tot_Q>
1

> <i_epik_Tot_abs_Q>
1

> <r_epik_Metal_State_Penalty>
-0

> <b_epik_Metal_Only>
0

> <s_lp_Force_Field>
OPLS_2005

> <r_lp_Energy>
57.4157

> <b_lp_Chiralities_Consistent>
1

> <s_lp_Variant>
AV-unprocessed.smi:249-15

> <Gold.Version>
5.8.1

> <Gold.Id.Protein>
6NUR|6NUR_protein|mol2

> <Gold.PLP.Fitness>
46.4633

> <Gold.PLP.PLP>
-42.9992

> <Gold.PLP.part.hbond>
-1.0000

> <Gold.PLP.part.metal>
0.0000

> <Gold.PLP.part.buried>
-2.1177

> <Gold.PLP.part.nonpolar>
-40.7712

> <Gold.PLP.part.repulsive>
1.1116

> <Gold.PLP.ligand.clash>
0.0000

> <Gold.PLP.ligand.torsion>
1.5969

> <Gold.PLP.Chemscore.Hbond>
1.0000

> <Gold.PLP.Chemscore.CHOScore>
1.0000

> <Gold.PLP.Chemscore.Metal>
0.0000

> <Gold.Chemscore.Hbonds>
donor molecule, donor type, donor heavy atom, donor atom, acceptor molecule, acceptor atom, score
      L1  H     3    64       P1 10171  1.00
      L1  C    16    44       P1  8028  0.44

> <Gold.PLP.Chemscore.Internal.Correction>
0.6578

> <Gold.Rescore>
     Score         DG    S(hbond)    S(metal)    S(lipo)     H(rot)  DE(clash)    DE(int)     intcor
     11.02     -13.99       0.97        0.00     108.53       2.90       1.23       1.74       ----

> <Gold.Chemscore.Fitness>
11.0189

> <Gold.Chemscore.DG>
-13.9884

> <Gold.Chemscore.ZeroCoef>
-5.4800

> <Gold.Chemscore.Hbond>
0.9688

> <Gold.Chemscore.Metal>
0.0000

> <Gold.Chemscore.Lipo>
108.5319

> <Gold.Chemscore.Internal_Hbond>
0.0000

> <Gold.Chemscore.DEClash>
1.2285

> <Gold.Chemscore.DEInternal>
1.7409

> <Gold.Chemscore.Rot>
2.9006

> <Gold.Chemscore.Internal.Correction>
   9.000000E+99

> <Gold.Chemscore.Hbonds>
donor molecule, donor type, donor heavy atom, donor atom, acceptor molecule, acceptor atom, score
      L1  H     3    64       P1 10171  0.88

> <Gold.Chemscore.Hbond.Weighted>
-3.2358

> <Gold.Chemscore.Metal.Weighted>
-0.0000

> <Gold.Chemscore.Lipo.Weighted>
-12.6982

> <Gold.Chemscore.Internal_Hbond.Weighted>
0.0000

> <Gold.Chemscore.DEClash.Weighted>
1.2285

> <Gold.Chemscore.DEInternal.Weighted>
1.7409

> <Gold.Chemscore.Rot.Weighted>
7.4256

> <Gold.Chemscore.Internal.Correction.Weighted>
   9.000000E+99

> <Gold.Protein.RotatedTorsions>
[ 6907 6896 6895 6894 ] final   36.33 input  -60.11 | X-H torsion
[ 7974 7965 7964 7962 ] final   73.22 input  175.53 | X-H torsion
[ 8008 7997 7996 7995 ] final  151.39 input   59.86 | X-H torsion
[ 10167 10162 10161 10158 ] final  126.92 input  -65.29 | X-H torsion
[ 10718 10713 10712 10709 ] final -106.11 input   66.30 | X-H torsion
[ 10763 10752 10751 10750 ] final -114.60 input  -60.55 | X-H torsion
[ 11005 11000 10999 10996 ] final  -23.68 input  -57.11 | X-H torsion

> <Gold.Protein.ActiveResidues>
 VAL166  LYS551  ARG553  GLY616  TRP617  ASP618  TYR619  PRO620  LYS621  CYS622 
 ASP623  PHE694  ASN695  SER759  ASP760  ASP761  ALA762  ILE779  LEU786  VAL792 
 PHE793  MET794  SER795  GLU796  ALA797  LYS798  CYS799  TRP800  GLU811  SER814 

> <Gold.Protein.RotatedAtoms>
  152.1283  134.9154  160.0559 H   0  0  0  0  0  0  0  0  0  0  0  0  # atno 6907 bound_to 6896
  152.0268  133.3916  159.4289 H   0  0  0  0  0  0  0  0  0  0  0  0  # atno 6908 bound_to 6896
  150.6854  134.3486  159.4943 H   0  0  0  0  0  0  0  0  0  0  0  0  # atno 6909 bound_to 6896
  145.7436  139.2731  143.1472 H   0  0  0  0  0  0  0  0  0  0  0  0  # atno 7974 bound_to 7965
  156.2675  140.2049  156.6169 H   0  0  0  0  0  0  0  0  0  0  0  0  # atno 8008 bound_to 7997
  154.6787  140.0542  157.0267 H   0  0  0  0  0  0  0  0  0  0  0  0  # atno 8009 bound_to 7997
  155.1031  140.3208  155.4544 H   0  0  0  0  0  0  0  0  0  0  0  0  # atno 8010 bound_to 7997
  139.5606  144.6879  151.4055 H   0  0  0  0  0  0  0  0  0  0  0  0  # atno 10167 bound_to 10162
  156.0375  130.5596  150.7634 H   0  0  0  0  0  0  0  0  0  0  0  0  # atno 10718 bound_to 10713
  154.8447  135.4412  154.1531 H   0  0  0  0  0  0  0  0  0  0  0  0  # atno 10763 bound_to 10752
  153.2687  135.6943  153.7509 H   0  0  0  0  0  0  0  0  0  0  0  0  # atno 10764 bound_to 10752
  153.6758  135.3411  155.3140 H   0  0  0  0  0  0  0  0  0  0  0  0  # atno 10765 bound_to 10752
  140.8774  133.7678  156.0260 H   0  0  0  0  0  0  0  0  0  0  0  0  # atno 11005 bound_to 11000
  146.0424  140.8152  142.9822 LP  0  0  0  0  0  0  0  0  0  0  0  0  # atno 17320 bound_to 7965
  144.6865  140.2930  143.7275 LP  0  0  0  0  0  0  0  0  0  0  0  0  # atno 17321 bound_to 7965
  140.6885  143.7918  150.7220 LP  0  0  0  0  0  0  0  0  0  0  0  0  # atno 17342 bound_to 10162
  140.1393  143.4455  152.2204 LP  0  0  0  0  0  0  0  0  0  0  0  0  # atno 17343 bound_to 10162
  157.5147  131.0928  151.0154 LP  0  0  0  0  0  0  0  0  0  0  0  0  # atno 17370 bound_to 10713
  157.0500  130.5783  149.5369 LP  0  0  0  0  0  0  0  0  0  0  0  0  # atno 17371 bound_to 10713
  140.8502  134.2963  157.5278 LP  0  0  0  0  0  0  0  0  0  0  0  0  # atno 17394 bound_to 11000
  139.8717  134.9463  156.3935 LP  0  0  0  0  0  0  0  0  0  0  0  0  # atno 17395 bound_to 11000

$$$$
