AV-unprocessed.smi:1762|AV-procd|sdf|7120|dock10
  -GOLD-   22720 8353D 1   1.00000     0.00000
 Structure written by MMmdl.
 52 53  0  0  0  0  0  0  0  0  3 V2000
  148.7574  141.7517  154.4122 C   0  0  0  0  0  0  0  0  0  0  0  0
  149.1937  140.3311  154.7862 C   0  0  1  0  0  0  0  0  0  0  0  0
  148.6314  139.2777  153.8107 C   0  0  0  0  0  0  0  0  0  0  0  0
  149.1039  137.9115  154.1649 N   0  3  2  0  0  0  0  0  0  0  0  0
  148.4649  137.2647  155.3671 C   0  0  2  0  0  0  0  0  0  0  0  0
  149.2234  135.9939  155.8268 C   0  0  0  0  0  0  0  0  0  0  0  0
  149.8218  135.3377  154.9679 O   0  0  0  0  0  0  0  0  0  0  0  0
  149.0944  135.7712  157.1665 N   0  5  0  0  0  0  0  0  0  0  0  0
  148.3563  136.6481  158.0741 C   0  0  0  0  0  0  0  0  0  0  0  0
  149.1379  136.8351  159.3952 C   0  0  0  0  0  0  0  0  0  0  0  0
  148.3915  136.3593  160.6373 C   0  0  0  0  0  0  0  0  0  0  0  0
  148.1079  134.9871  160.8239 C   0  0  0  0  0  0  0  0  0  0  0  0
  147.4284  134.5906  161.9916 C   0  0  0  0  0  0  0  0  0  0  0  0
  147.0614  135.5736  162.9299 C   0  0  0  0  0  0  0  0  0  0  0  0
  147.3928  136.9157  162.6580 C   0  0  0  0  0  0  0  0  0  0  0  0
  148.0456  137.3069  161.5428 N   0  0  0  0  0  0  0  0  0  0  0  0
  146.9229  137.0122  155.2394 C   0  0  0  0  0  0  0  0  0  0  0  0
  146.5710  135.9656  154.1639 C   0  0  0  0  0  0  0  0  0  0  0  0
  146.0737  138.2842  155.0358 C   0  0  0  0  0  0  0  0  0  0  0  0
  150.5953  137.9247  154.1805 C   0  0  0  0  0  0  0  0  0  0  0  0
  151.1445  139.0164  155.1245 C   0  0  1  0  0  0  0  0  0  0  0  0
  152.6734  139.1057  155.0685 C   0  0  0  0  0  0  0  0  0  0  0  0
  150.6160  140.2817  154.7402 O   0  0  0  0  0  0  0  0  0  0  0  0
  147.6716  141.8475  154.4348 H   0  0  0  0  0  0  0  0  0  0  0  0
  149.0964  142.0184  153.4107 H   0  0  0  0  0  0  0  0  0  0  0  0
  149.1693  142.4822  155.1089 H   0  0  0  0  0  0  0  0  0  0  0  0
  148.8557  140.1245  155.8028 H   0  0  0  0  0  0  0  0  0  0  0  0
  147.5481  139.3421  153.7384 H   0  0  0  0  0  0  0  0  0  0  0  0
  148.9876  139.5017  152.8040 H   0  0  0  0  0  0  0  0  0  0  0  0
  148.5686  137.9767  156.1857 H   0  0  0  0  0  0  0  0  0  0  0  0
  148.1553  137.6234  157.6285 H   0  0  0  0  0  0  0  0  0  0  0  0
  147.3773  136.2266  158.3032 H   0  0  0  0  0  0  0  0  0  0  0  0
  150.0885  136.3025  159.3385 H   0  0  0  0  0  0  0  0  0  0  0  0
  149.3927  137.8876  159.5300 H   0  0  0  0  0  0  0  0  0  0  0  0
  148.4016  134.2549  160.0861 H   0  0  0  0  0  0  0  0  0  0  0  0
  147.1932  133.5508  162.1646 H   0  0  0  0  0  0  0  0  0  0  0  0
  146.5390  135.3057  163.8362 H   0  0  0  0  0  0  0  0  0  0  0  0
  147.1278  137.6962  163.3556 H   0  0  0  0  0  0  0  0  0  0  0  0
  146.5922  136.5513  156.1693 H   0  0  0  0  0  0  0  0  0  0  0  0
  146.7646  136.3344  153.1561 H   0  0  0  0  0  0  0  0  0  0  0  0
  145.5153  135.6972  154.2121 H   0  0  0  0  0  0  0  0  0  0  0  0
  147.1469  135.0500  154.3013 H   0  0  0  0  0  0  0  0  0  0  0  0
  146.2271  138.7171  154.0474 H   0  0  0  0  0  0  0  0  0  0  0  0
  146.3031  139.0544  155.7713 H   0  0  0  0  0  0  0  0  0  0  0  0
  145.0110  138.0572  155.1240 H   0  0  0  0  0  0  0  0  0  0  0  0
  151.0117  136.9519  154.4401 H   0  0  0  0  0  0  0  0  0  0  0  0
  150.9389  138.1226  153.1642 H   0  0  0  0  0  0  0  0  0  0  0  0
  150.8576  138.8075  156.1555 H   0  0  0  0  0  0  0  0  0  0  0  0
  153.1319  138.1616  155.3638 H   0  0  0  0  0  0  0  0  0  0  0  0
  153.0434  139.8790  155.7419 H   0  0  0  0  0  0  0  0  0  0  0  0
  153.0190  139.3461  154.0628 H   0  0  0  0  0  0  0  0  0  0  0  0
  148.8375  137.3097  153.3978 H   0  0  0  0  0  0  0  0  0  0  0  0
  1  2  1  0  0  0  0
  1 24  1  0  0  0  0
  1 25  1  0  0  0  0
  1 26  1  0  0  0  0
  2 23  1  0  0  0  0
  2  3  1  0  0  0  0
  2 27  1  0  0  0  0
  3  4  1  0  0  0  0
  3 28  1  0  0  0  0
  3 29  1  0  0  0  0
  4  5  1  0  0  0  0
  4 20  1  0  0  0  0
  4 52  1  0  0  0  0
  5  6  1  0  0  0  0
  5 17  1  0  0  0  0
  5 30  1  0  0  0  0
  6  7  2  0  0  0  0
  6  8  1  0  0  0  0
  8  9  1  0  0  0  0
  9 10  1  0  0  0  0
  9 31  1  0  0  0  0
  9 32  1  0  0  0  0
 10 11  1  0  0  0  0
 10 33  1  0  0  0  0
 10 34  1  0  0  0  0
 11 16  1  0  0  0  0
 11 12  2  0  0  0  0
 12 13  1  0  0  0  0
 12 35  1  0  0  0  0
 13 14  2  0  0  0  0
 13 36  1  0  0  0  0
 14 15  1  0  0  0  0
 14 37  1  0  0  0  0
 15 16  2  0  0  0  0
 15 38  1  0  0  0  0
 17 18  1  0  0  0  0
 17 19  1  0  0  0  0
 17 39  1  0  0  0  0
 18 40  1  0  0  0  0
 18 41  1  0  0  0  0
 18 42  1  0  0  0  0
 19 43  1  0  0  0  0
 19 44  1  0  0  0  0
 19 45  1  0  0  0  0
 20 21  1  0  0  0  0
 20 46  1  0  0  0  0
 20 47  1  0  0  0  0
 21 22  1  0  0  0  0
 21 23  1  0  0  0  0
 21 48  1  0  0  0  0
 22 49  1  0  0  0  0
 22 50  1  0  0  0  0
 22 51  1  0  0  0  0
M  CHG  1   4   1
M  CHG  1   8  -1
M  END
> <s_m_source_file>
AV-unprocessed.smi

> <i_m_source_file_index>
1762

> <i_lp_mmshare_version>
43012

> <i_f3d_flags>
0

> <s_epik_input>
W0NIM11bQ0BASF0xW0NIMl1OKFtDSDJdW0NASF0oTzEpW0NIM10pW0NAQEhdKFtDSF0oW0NIM10pW0NIM10pQyg9TylbTkhdW0NIMl1bQ0gyXWMyW2NIXVtjSF1bY0hdW2NIXW4y

> <s_epik_cmdline>
J2VwaWtfcHl0aG9uJywgJy1waCcsICc3LjAnLCAnLXRuJywgJzgnLCAnLW1hJywgJzIwMCcsICctbWV0YWxfYmluZGluZycsICctaW1hZScsICc8aW5maWxlLm1hZT4nLCAnLW9tYWUnLCAnPG91dGZpbGUubWFlPic=

> <r_epik_Ionization_Penalty>
7.82966

> <r_epik_Ionization_Penalty_Charging>
7.7461

> <r_epik_Ionization_Penalty_Neutral>
0.0835571

> <r_epik_State_Penalty>
8.52273

> <r_epik_Charging_Adjusted_Penalty>
16.2688

> <i_epik_Tot_Q>
0

> <i_epik_Tot_abs_Q>
2

> <r_epik_Metal_State_Penalty>
4.47451

> <b_epik_Metal_Only>
1

> <s_lp_Force_Field>
OPLS_2005

> <r_lp_Energy>
23.0584

> <b_lp_Chiralities_Consistent>
1

> <s_lp_Variant>
AV-unprocessed.smi:1762-22

> <Gold.Version>
5.8.1

> <Gold.Id.Protein>
6NUR|6NUR_protein|mol2

> <Gold.PLP.Fitness>
50.8717

> <Gold.PLP.PLP>
-38.8710

> <Gold.PLP.part.hbond>
-4.0000

> <Gold.PLP.part.metal>
0.0000

> <Gold.PLP.part.buried>
-1.6371

> <Gold.PLP.part.nonpolar>
-32.9608

> <Gold.PLP.part.repulsive>
0.2371

> <Gold.PLP.ligand.clash>
0.0000

> <Gold.PLP.ligand.torsion>
1.3639

> <Gold.PLP.Chemscore.Hbond>
4.7840

> <Gold.PLP.Chemscore.CHOScore>
0.0000

> <Gold.PLP.Chemscore.Metal>
0.0000

> <Gold.Chemscore.Hbonds>
donor molecule, donor type, donor heavy atom, donor atom, acceptor molecule, acceptor atom, score
      L1  H     4    52       P1  7948  2.00
      P1  H  6931  6943       L1    16  0.70
      P1  H  6934  6947       L1    16  0.58
      P1  H  7989  7998       L1    23  1.00

> <Gold.PLP.Chemscore.Internal.Correction>
0.3765

> <Gold.Rescore>
     Score         DG    S(hbond)    S(metal)    S(lipo)     H(rot)  DE(clash)    DE(int)     intcor
     19.71     -22.79       3.18        0.00      92.31       1.60       0.10       2.98       ----

> <Gold.Chemscore.Fitness>
19.7146

> <Gold.Chemscore.DG>
-22.7896

> <Gold.Chemscore.ZeroCoef>
-5.4800

> <Gold.Chemscore.Hbond>
3.1760

> <Gold.Chemscore.Metal>
0.0000

> <Gold.Chemscore.Lipo>
92.3132

> <Gold.Chemscore.Internal_Hbond>
0.0000

> <Gold.Chemscore.DEClash>
0.0951

> <Gold.Chemscore.DEInternal>
2.9799

> <Gold.Chemscore.Rot>
1.6012

> <Gold.Chemscore.Internal.Correction>
   9.000000E+99

> <Gold.Chemscore.Hbonds>
donor molecule, donor type, donor heavy atom, donor atom, acceptor molecule, acceptor atom, score
      L1  H     4    52       P1  7948  1.00
      P1  H  6931  6943       L1    16  0.43
      P1  H  6934  6947       L1    16  0.33
      P1  H  7989  7998       L1    23  0.60

> <Gold.Chemscore.Hbond.Weighted>
-10.6079

> <Gold.Chemscore.Metal.Weighted>
-0.0000

> <Gold.Chemscore.Lipo.Weighted>
-10.8006

> <Gold.Chemscore.Internal_Hbond.Weighted>
0.0000

> <Gold.Chemscore.DEClash.Weighted>
0.0951

> <Gold.Chemscore.DEInternal.Weighted>
2.9799

> <Gold.Chemscore.Rot.Weighted>
4.0990

> <Gold.Chemscore.Internal.Correction.Weighted>
   9.000000E+99

> <Gold.Protein.RotatedTorsions>
[ 6907 6896 6895 6894 ] final  -91.16 input  -60.11 | X-H torsion
[ 7974 7965 7964 7962 ] final   61.63 input  175.53 | X-H torsion
[ 8008 7997 7996 7995 ] final  177.13 input   59.86 | X-H torsion
[ 10167 10162 10161 10158 ] final -130.32 input  -65.29 | X-H torsion
[ 10718 10713 10712 10709 ] final   37.82 input   66.30 | X-H torsion
[ 10763 10752 10751 10750 ] final  142.29 input  -60.55 | X-H torsion
[ 11005 11000 10999 10996 ] final   34.70 input  -57.11 | X-H torsion

> <Gold.Protein.ActiveResidues>
 VAL166  LYS551  ARG553  GLY616  TRP617  ASP618  TYR619  PRO620  LYS621  CYS622 
 ASP623  PHE694  ASN695  SER759  ASP760  ASP761  ALA762  ILE779  LEU786  VAL792 
 PHE793  MET794  SER795  GLU796  ALA797  LYS798  CYS799  TRP800  GLU811  SER814 

> <Gold.Protein.RotatedAtoms>
  150.6889  134.2320  159.4438 H   0  0  0  0  0  0  0  0  0  0  0  0  # atno 6907 bound_to 6896
  152.0270  134.9787  160.0581 H   0  0  0  0  0  0  0  0  0  0  0  0  # atno 6908 bound_to 6896
  152.1342  133.4390  159.4772 H   0  0  0  0  0  0  0  0  0  0  0  0  # atno 6909 bound_to 6896
  145.8826  139.3454  143.0697 H   0  0  0  0  0  0  0  0  0  0  0  0  # atno 7974 bound_to 7965
  156.0690  140.1366  156.9851 H   0  0  0  0  0  0  0  0  0  0  0  0  # atno 8008 bound_to 7997
  154.4521  140.0976  156.6702 H   0  0  0  0  0  0  0  0  0  0  0  0  # atno 8009 bound_to 7997
  155.5258  140.3457  155.4418 H   0  0  0  0  0  0  0  0  0  0  0  0  # atno 8010 bound_to 7997
  139.9306  143.6276  152.2530 H   0  0  0  0  0  0  0  0  0  0  0  0  # atno 10167 bound_to 10162
  157.3515  130.7601  149.6982 H   0  0  0  0  0  0  0  0  0  0  0  0  # atno 10718 bound_to 10713
  153.9534  135.2967  155.3437 H   0  0  0  0  0  0  0  0  0  0  0  0  # atno 10763 bound_to 10752
  154.7414  135.5023  153.9132 H   0  0  0  0  0  0  0  0  0  0  0  0  # atno 10764 bound_to 10752
  153.0982  135.6727  153.9831 H   0  0  0  0  0  0  0  0  0  0  0  0  # atno 10765 bound_to 10752
  140.2501  134.3313  155.7893 H   0  0  0  0  0  0  0  0  0  0  0  0  # atno 11005 bound_to 11000
  145.9005  140.9246  143.0505 LP  0  0  0  0  0  0  0  0  0  0  0  0  # atno 17320 bound_to 7965
  144.6727  140.1026  143.7459 LP  0  0  0  0  0  0  0  0  0  0  0  0  # atno 17321 bound_to 7965
  139.6785  144.7657  151.1651 LP  0  0  0  0  0  0  0  0  0  0  0  0  # atno 17342 bound_to 10162
  140.7638  143.5759  150.8946 LP  0  0  0  0  0  0  0  0  0  0  0  0  # atno 17343 bound_to 10162
  155.9722  130.4139  150.4106 LP  0  0  0  0  0  0  0  0  0  0  0  0  # atno 17370 bound_to 10713
  157.2169  131.0473  151.2568 LP  0  0  0  0  0  0  0  0  0  0  0  0  # atno 17371 bound_to 10713
  141.2202  133.7349  156.9024 LP  0  0  0  0  0  0  0  0  0  0  0  0  # atno 17394 bound_to 11000
  140.1566  134.9194  157.2661 LP  0  0  0  0  0  0  0  0  0  0  0  0  # atno 17395 bound_to 11000

$$$$
