AV-unprocessed.smi:739|AV-procd|sdf|3542|dock4
  -GOLD-   22720 0533D 1   1.00000     0.00000
 Structure written by MMmdl.
 32 34  0  0  0  0  0  0  0  0  1 V2000
  149.3995  142.3150  155.7736 O   0  0  0  0  0  0  0  0  0  0  0  0
  150.1948  141.6841  156.7562 C   0  0  2  0  0  0  0  0  0  0  0  0
  151.4757  142.5197  156.9503 C   0  0  0  0  0  0  0  0  0  0  0  0
  151.4478  143.2875  158.1824 N   0  0  0  0  0  0  0  0  0  0  0  0
  150.7818  144.4368  158.4049 C   0  0  0  0  0  0  0  0  0  0  0  0
  150.8776  144.9714  159.6187 N   0  0  0  0  0  0  0  0  0  0  0  0
  151.7046  144.0648  160.2594 C   0  0  0  0  0  0  0  0  0  0  0  0
  152.1954  144.0490  161.5844 C   0  0  0  0  0  0  0  0  0  0  0  0
  153.0351  143.0043  162.0236 C   0  0  0  0  0  0  0  0  0  0  0  0
  153.4957  143.0044  163.2971 F   0  0  0  0  0  0  0  0  0  0  0  0
  153.3968  141.9615  161.1450 C   0  0  0  0  0  0  0  0  0  0  0  0
  154.2021  140.9612  161.5745 F   0  0  0  0  0  0  0  0  0  0  0  0
  152.9214  141.9570  159.8199 C   0  0  0  0  0  0  0  0  0  0  0  0
  152.0828  143.0005  159.3866 C   0  0  0  0  0  0  0  0  0  0  0  0
  150.4982  140.2332  156.4067 C   0  0  0  0  0  0  0  0  0  0  0  0
  151.1404  139.9215  155.1886 C   0  0  0  0  0  0  0  0  0  0  0  0
  151.3958  138.5802  154.8431 C   0  0  0  0  0  0  0  0  0  0  0  0
  151.0125  137.5428  155.7142 C   0  0  0  0  0  0  0  0  0  0  0  0
  151.2574  136.2533  155.3816 F   0  0  0  0  0  0  0  0  0  0  0  0
  150.3733  137.8471  156.9312 C   0  0  0  0  0  0  0  0  0  0  0  0
  150.1161  139.1880  157.2767 C   0  0  0  0  0  0  0  0  0  0  0  0
  149.4009  143.2455  155.9393 H   0  0  0  0  0  0  0  0  0  0  0  0
  149.6154  141.7063  157.6803 H   0  0  0  0  0  0  0  0  0  0  0  0
  152.3610  141.8825  156.9488 H   0  0  0  0  0  0  0  0  0  0  0  0
  151.5957  143.2203  156.1226 H   0  0  0  0  0  0  0  0  0  0  0  0
  150.1881  144.9042  157.6328 H   0  0  0  0  0  0  0  0  0  0  0  0
  151.9246  144.8416  162.2661 H   0  0  0  0  0  0  0  0  0  0  0  0
  153.1952  141.1582  159.1471 H   0  0  0  0  0  0  0  0  0  0  0  0
  151.4298  140.7099  154.5094 H   0  0  0  0  0  0  0  0  0  0  0  0
  151.8832  138.3470  153.9079 H   0  0  0  0  0  0  0  0  0  0  0  0
  150.0769  137.0516  157.5988 H   0  0  0  0  0  0  0  0  0  0  0  0
  149.6154  139.4107  158.2076 H   0  0  0  0  0  0  0  0  0  0  0  0
  1  2  1  0  0  0  0
  1 22  1  0  0  0  0
  2  3  1  0  0  0  0
  2 15  1  0  0  0  0
  2 23  1  0  0  0  0
  3  4  1  0  0  0  0
  3 24  1  0  0  0  0
  3 25  1  0  0  0  0
  4 14  1  0  0  0  0
  4  5  1  0  0  0  0
  5  6  2  0  0  0  0
  5 26  1  0  0  0  0
  6  7  1  0  0  0  0
  7 14  2  0  0  0  0
  7  8  1  0  0  0  0
  8  9  2  0  0  0  0
  8 27  1  0  0  0  0
  9 10  1  0  0  0  0
  9 11  1  0  0  0  0
 11 12  1  0  0  0  0
 11 13  2  0  0  0  0
 13 14  1  0  0  0  0
 13 28  1  0  0  0  0
 15 21  1  0  0  0  0
 15 16  2  0  0  0  0
 16 17  1  0  0  0  0
 16 29  1  0  0  0  0
 17 18  2  0  0  0  0
 17 30  1  0  0  0  0
 18 19  1  0  0  0  0
 18 20  1  0  0  0  0
 20 21  2  0  0  0  0
 20 31  1  0  0  0  0
 21 32  1  0  0  0  0
M  END
> <s_m_source_file>
AV-unprocessed.smi

> <i_m_source_file_index>
739

> <i_lp_mmshare_version>
43012

> <i_f3d_flags>
0

> <s_epik_input>
W2NIXTFbY0hdYyhGKVtjSF1bY0hdYzFbQ0BIXShbT0hdKVtDSDJdbihbY0hdbjIpYyhjMjMpW2NIXWMoRiljKEYpW2NIXTM=

> <s_epik_cmdline>
J2VwaWtfcHl0aG9uJywgJy1waCcsICc3LjAnLCAnLXRuJywgJzgnLCAnLW1hJywgJzIwMCcsICctbWV0YWxfYmluZGluZycsICctaW1hZScsICc8aW5maWxlLm1hZT4nLCAnLW9tYWUnLCAnPG91dGZpbGUubWFlPic=

> <r_epik_Ionization_Penalty>
0.0156356

> <r_epik_Ionization_Penalty_Charging>
0

> <r_epik_Ionization_Penalty_Neutral>
0.0156356

> <r_epik_State_Penalty>
0.0122974

> <r_epik_Charging_Adjusted_Penalty>
0.0122974

> <i_epik_Tot_Q>
0

> <i_epik_Tot_abs_Q>
0

> <r_epik_Metal_State_Penalty>
1.24258e-05

> <b_epik_Metal_Only>
0

> <s_lp_Force_Field>
OPLS_2005

> <r_lp_Energy>
11.0566

> <b_lp_Chiralities_Consistent>
1

> <s_lp_Variant>
AV-unprocessed.smi:739-1

> <Gold.Version>
5.8.1

> <Gold.Id.Protein>
6NUR|6NUR_protein|mol2

> <Gold.PLP.Fitness>
53.3901

> <Gold.PLP.PLP>
-49.4708

> <Gold.PLP.part.hbond>
-0.7531

> <Gold.PLP.part.metal>
0.0000

> <Gold.PLP.part.buried>
-6.3134

> <Gold.PLP.part.nonpolar>
-41.9167

> <Gold.PLP.part.repulsive>
0.1411

> <Gold.PLP.ligand.clash>
0.0000

> <Gold.PLP.ligand.torsion>
0.9417

> <Gold.PLP.Chemscore.Hbond>
1.0000

> <Gold.PLP.Chemscore.CHOScore>
0.9225

> <Gold.PLP.Chemscore.Metal>
0.0000

> <Gold.Chemscore.Hbonds>
donor molecule, donor type, donor heavy atom, donor atom, acceptor molecule, acceptor atom, score
      L1  H     1    22       P1  8028  1.00
      L1  C     5    26       P1  8028  0.68
      L1  C     5    26       P1  8029  0.24

> <Gold.PLP.Chemscore.Internal.Correction>
0.0352

> <Gold.Rescore>
     Score         DG    S(hbond)    S(metal)    S(lipo)     H(rot)  DE(clash)    DE(int)     intcor
     15.22     -16.16       0.95        0.00     109.36       2.07       0.05       0.89       ----

> <Gold.Chemscore.Fitness>
15.2184

> <Gold.Chemscore.DG>
-16.1616

> <Gold.Chemscore.ZeroCoef>
-5.4800

> <Gold.Chemscore.Hbond>
0.9537

> <Gold.Chemscore.Metal>
0.0000

> <Gold.Chemscore.Lipo>
109.3638

> <Gold.Chemscore.Internal_Hbond>
0.0000

> <Gold.Chemscore.DEClash>
0.0505

> <Gold.Chemscore.DEInternal>
0.8927

> <Gold.Chemscore.Rot>
2.0700

> <Gold.Chemscore.Internal.Correction>
   9.000000E+99

> <Gold.Chemscore.Hbonds>
donor molecule, donor type, donor heavy atom, donor atom, acceptor molecule, acceptor atom, score
      L1  H     1    22       P1  8028  0.94

> <Gold.Chemscore.Hbond.Weighted>
-3.1852

> <Gold.Chemscore.Metal.Weighted>
-0.0000

> <Gold.Chemscore.Lipo.Weighted>
-12.7956

> <Gold.Chemscore.Internal_Hbond.Weighted>
0.0000

> <Gold.Chemscore.DEClash.Weighted>
0.0505

> <Gold.Chemscore.DEInternal.Weighted>
0.8927

> <Gold.Chemscore.Rot.Weighted>
5.2992

> <Gold.Chemscore.Internal.Correction.Weighted>
   9.000000E+99

> <Gold.Protein.RotatedTorsions>
[ 6907 6896 6895 6894 ] final   52.83 input  -60.11 | X-H torsion
[ 7974 7965 7964 7962 ] final  -65.50 input  175.53 | X-H torsion
[ 8008 7997 7996 7995 ] final  151.03 input   59.86 | X-H torsion
[ 10167 10162 10161 10158 ] final  -99.25 input  -65.29 | X-H torsion
[ 10718 10713 10712 10709 ] final  -46.40 input   66.30 | X-H torsion
[ 10763 10752 10751 10750 ] final -130.08 input  -60.55 | X-H torsion
[ 11005 11000 10999 10996 ] final  -10.74 input  -57.11 | X-H torsion

> <Gold.Protein.ActiveResidues>
 VAL166  LYS551  ARG553  GLY616  TRP617  ASP618  TYR619  PRO620  LYS621  CYS622 
 ASP623  PHE694  ASN695  SER759  ASP760  ASP761  ALA762  ILE779  LEU786  VAL792 
 PHE793  MET794  SER795  GLU796  ALA797  LYS798  CYS799  TRP800  GLU811  SER814 

> <Gold.Protein.RotatedAtoms>
  152.3274  134.7303  160.0298 H   0  0  0  0  0  0  0  0  0  0  0  0  # atno 6907 bound_to 6896
  151.7731  133.3337  159.3458 H   0  0  0  0  0  0  0  0  0  0  0  0  # atno 6908 bound_to 6896
  150.7403  134.5932  159.6042 H   0  0  0  0  0  0  0  0  0  0  0  0  # atno 6909 bound_to 6896
  145.7535  140.8896  143.0467 H   0  0  0  0  0  0  0  0  0  0  0  0  # atno 7974 bound_to 7965
  156.2691  140.2059  156.6111 H   0  0  0  0  0  0  0  0  0  0  0  0  # atno 8008 bound_to 7997
  154.6830  140.0538  157.0310 H   0  0  0  0  0  0  0  0  0  0  0  0  # atno 8009 bound_to 7997
  155.0973  140.3202  155.4559 H   0  0  0  0  0  0  0  0  0  0  0  0  # atno 8010 bound_to 7997
  140.2644  143.3386  152.0595 H   0  0  0  0  0  0  0  0  0  0  0  0  # atno 10167 bound_to 10162
  156.2187  130.4165  149.9020 H   0  0  0  0  0  0  0  0  0  0  0  0  # atno 10718 bound_to 10713
  154.8756  135.3874  154.4025 H   0  0  0  0  0  0  0  0  0  0  0  0  # atno 10763 bound_to 10752
  153.4748  135.7030  153.5977 H   0  0  0  0  0  0  0  0  0  0  0  0  # atno 10764 bound_to 10752
  153.4418  135.3854  155.2200 H   0  0  0  0  0  0  0  0  0  0  0  0  # atno 10765 bound_to 10752
  140.7479  133.8616  155.9021 H   0  0  0  0  0  0  0  0  0  0  0  0  # atno 11005 bound_to 11000
  144.6845  139.9625  143.7480 LP  0  0  0  0  0  0  0  0  0  0  0  0  # atno 17320 bound_to 7965
  146.0333  139.3355  143.0742 LP  0  0  0  0  0  0  0  0  0  0  0  0  # atno 17321 bound_to 7965
  139.5007  144.6698  151.6271 LP  0  0  0  0  0  0  0  0  0  0  0  0  # atno 17342 bound_to 10162
  140.5940  143.9729  150.6342 LP  0  0  0  0  0  0  0  0  0  0  0  0  # atno 17343 bound_to 10162
  156.6674  130.8806  151.3557 LP  0  0  0  0  0  0  0  0  0  0  0  0  # atno 17370 bound_to 10713
  157.7076  130.9403  150.0983 LP  0  0  0  0  0  0  0  0  0  0  0  0  # atno 17371 bound_to 10713
  140.9777  134.1447  157.4522 LP  0  0  0  0  0  0  0  0  0  0  0  0  # atno 17394 bound_to 11000
  139.8793  135.0000  156.5986 LP  0  0  0  0  0  0  0  0  0  0  0  0  # atno 17395 bound_to 11000

$$$$
