AV-unprocessed.smi:2059|AV-procd|sdf|8348|dock6
  -GOLD-   2272011 13D 1   1.00000     0.00000
 Structure written by MMmdl.
 30 31  0  0  0  0  0  0  0  0  1 V2000
  143.4771  132.9080  148.8035 C   0  0  0  0  0  0  0  0  0  0  0  0
  144.5763  132.8369  149.8073 C   0  0  0  0  0  0  0  0  0  0  0  0
  145.3641  133.7875  150.3929 C   0  0  0  0  0  0  0  0  0  0  0  0
  146.2027  133.0292  151.2530 C   0  0  0  0  0  0  0  0  0  0  0  0
  147.1863  133.6783  152.0525 N   0  0  0  0  0  0  0  0  0  0  0  0
  147.6331  133.4101  153.2975 C   0  0  0  0  0  0  0  0  0  0  0  0
  147.1833  132.4651  153.9436 O   0  0  0  0  0  0  0  0  0  0  0  0
  148.5856  134.2276  153.7756 N   0  0  0  0  0  0  0  0  0  0  0  0
  149.2083  134.1197  155.0903 C   0  0  2  0  0  0  0  0  0  0  0  0
  150.4598  135.0125  155.2152 C   0  0  0  0  0  0  0  0  0  0  0  0
  151.2600  134.5710  156.4470 C   0  0  0  0  0  0  0  0  0  0  0  0
  150.9408  132.7772  156.6487 S   0  0  0  0  0  0  0  0  0  0  0  0
  152.1146  132.0123  156.2013 O   0  0  0  0  0  0  0  0  0  0  0  0
  150.3474  132.5465  157.9746 O   0  0  0  0  0  0  0  0  0  0  0  0
  149.6330  132.6721  155.3700 C   0  0  0  0  0  0  0  0  0  0  0  0
  145.9485  131.7298  151.1925 N   0  0  0  0  0  0  0  0  0  0  0  0
  144.9063  131.6001  150.2672 O   0  0  0  0  0  0  0  0  0  0  0  0
  143.0695  133.9172  148.7439 H   0  0  0  0  0  0  0  0  0  0  0  0
  142.6641  132.2320  149.0688 H   0  0  0  0  0  0  0  0  0  0  0  0
  143.8399  132.6301  147.8140 H   0  0  0  0  0  0  0  0  0  0  0  0
  145.3405  134.8550  150.2301 H   0  0  0  0  0  0  0  0  0  0  0  0
  147.6309  134.4687  151.6084 H   0  0  0  0  0  0  0  0  0  0  0  0
  148.9009  134.9808  153.1805 H   0  0  0  0  0  0  0  0  0  0  0  0
  148.4925  134.4150  155.8598 H   0  0  0  0  0  0  0  0  0  0  0  0
  151.0833  134.8804  154.3299 H   0  0  0  0  0  0  0  0  0  0  0  0
  150.2027  136.0708  155.2668 H   0  0  0  0  0  0  0  0  0  0  0  0
  152.3297  134.7553  156.3469 H   0  0  0  0  0  0  0  0  0  0  0  0
  150.9011  135.0786  157.3425 H   0  0  0  0  0  0  0  0  0  0  0  0
  148.8131  132.0444  155.7200 H   0  0  0  0  0  0  0  0  0  0  0  0
  150.0725  132.2102  154.4848 H   0  0  0  0  0  0  0  0  0  0  0  0
  1  2  1  0  0  0  0
  1 18  1  0  0  0  0
  1 19  1  0  0  0  0
  1 20  1  0  0  0  0
  2 17  1  0  0  0  0
  2  3  2  0  0  0  0
  3  4  1  0  0  0  0
  3 21  1  0  0  0  0
  4  5  1  0  0  0  0
  4 16  2  0  0  0  0
  5  6  1  0  0  0  0
  5 22  1  0  0  0  0
  6  7  2  0  0  0  0
  6  8  1  0  0  0  0
  8  9  1  0  0  0  0
  8 23  1  0  0  0  0
  9 15  1  0  0  0  0
  9 10  1  0  0  0  0
  9 24  1  0  0  0  0
 10 11  1  0  0  0  0
 10 25  1  0  0  0  0
 10 26  1  0  0  0  0
 11 12  1  0  0  0  0
 11 27  1  0  0  0  0
 11 28  1  0  0  0  0
 12 13  2  0  0  0  0
 12 14  2  0  0  0  0
 12 15  1  0  0  0  0
 15 29  1  0  0  0  0
 15 30  1  0  0  0  0
 16 17  1  0  0  0  0
M  END
> <s_m_source_file>
AV-unprocessed.smi

> <i_m_source_file_index>
2059

> <i_lp_mmshare_version>
43012

> <i_f3d_flags>
0

> <s_epik_input>
W0NIM11jMVtjSF1jKG5vMSlbTkhdQyg9TylbTkhdW0NAQEhdKFtDSDJdMilbQ0gyXVtDSDJdUzIoPU8pPU8=

> <s_epik_cmdline>
J2VwaWtfcHl0aG9uJywgJy1waCcsICc3LjAnLCAnLXRuJywgJzgnLCAnLW1hJywgJzIwMCcsICctbWV0YWxfYmluZGluZycsICctaW1hZScsICc8aW5maWxlLm1hZT4nLCAnLW9tYWUnLCAnPG91dGZpbGUubWFlPic=

> <r_lp_tautomer_probability>
1

> <r_epik_Ionization_Penalty>
3.88767e-05

> <r_epik_Ionization_Penalty_Charging>
0

> <r_epik_Ionization_Penalty_Neutral>
3.88767e-05

> <r_epik_State_Penalty>
-0

> <r_epik_Charging_Adjusted_Penalty>
0

> <i_epik_Tot_Q>
0

> <i_epik_Tot_abs_Q>
0

> <r_epik_Metal_State_Penalty>
0.0251347

> <b_epik_Metal_Only>
0

> <s_lp_Force_Field>
OPLS_2005

> <r_lp_Energy>
4.38419

> <b_lp_Chiralities_Consistent>
1

> <s_lp_Variant>
AV-unprocessed.smi:2059-1

> <Gold.Version>
5.8.1

> <Gold.Id.Protein>
6NUR|6NUR_protein|mol2

> <Gold.PLP.Fitness>
31.3103

> <Gold.PLP.PLP>
-24.2368

> <Gold.PLP.part.hbond>
-3.1269

> <Gold.PLP.part.metal>
0.0000

> <Gold.PLP.part.buried>
-0.4217

> <Gold.PLP.part.nonpolar>
-20.7133

> <Gold.PLP.part.repulsive>
0.3315

> <Gold.PLP.ligand.clash>
0.0000

> <Gold.PLP.ligand.torsion>
0.3952

> <Gold.PLP.Chemscore.Hbond>
2.6213

> <Gold.PLP.Chemscore.CHOScore>
0.0000

> <Gold.PLP.Chemscore.Metal>
0.0000

> <Gold.Chemscore.Hbonds>
donor molecule, donor type, donor heavy atom, donor atom, acceptor molecule, acceptor atom, score
      L1  H     5    22       P1  7948  0.59
      L1  H     8    23       P1  7948  1.00
      P1  H  6896  6908       L1    14  1.00

> <Gold.PLP.Chemscore.Internal.Correction>
0.0002

> <Gold.Rescore>
     Score         DG    S(hbond)    S(metal)    S(lipo)     H(rot)  DE(clash)    DE(int)     intcor
     12.22     -15.27       1.92        0.00      50.63       1.00       1.31       1.74       ----

> <Gold.Chemscore.Fitness>
12.2201

> <Gold.Chemscore.DG>
-15.2678

> <Gold.Chemscore.ZeroCoef>
-5.4800

> <Gold.Chemscore.Hbond>
1.9235

> <Gold.Chemscore.Metal>
0.0000

> <Gold.Chemscore.Lipo>
50.6260

> <Gold.Chemscore.Internal_Hbond>
0.0000

> <Gold.Chemscore.DEClash>
1.3081

> <Gold.Chemscore.DEInternal>
1.7396

> <Gold.Chemscore.Rot>
1.0000

> <Gold.Chemscore.Internal.Correction>
   9.000000E+99

> <Gold.Chemscore.Hbonds>
donor molecule, donor type, donor heavy atom, donor atom, acceptor molecule, acceptor atom, score
      L1  H     5    22       P1  7948  0.11
      L1  H     8    23       P1  7948  0.26
      P1  H  6896  6908       L1    14  0.85

> <Gold.Chemscore.Hbond.Weighted>
-6.4246

> <Gold.Chemscore.Metal.Weighted>
-0.0000

> <Gold.Chemscore.Lipo.Weighted>
-5.9232

> <Gold.Chemscore.Internal_Hbond.Weighted>
0.0000

> <Gold.Chemscore.DEClash.Weighted>
1.3081

> <Gold.Chemscore.DEInternal.Weighted>
1.7396

> <Gold.Chemscore.Rot.Weighted>
2.5600

> <Gold.Chemscore.Internal.Correction.Weighted>
   9.000000E+99

> <Gold.Protein.RotatedTorsions>
[ 6907 6896 6895 6894 ] final   96.36 input  -60.11 | X-H torsion
[ 7974 7965 7964 7962 ] final  178.88 input  175.53 | X-H torsion
[ 8008 7997 7996 7995 ] final  153.99 input   59.86 | X-H torsion
[ 10167 10162 10161 10158 ] final   41.84 input  -65.29 | X-H torsion
[ 10718 10713 10712 10709 ] final  -63.33 input   66.30 | X-H torsion
[ 10763 10752 10751 10750 ] final  -59.15 input  -60.55 | X-H torsion
[ 11005 11000 10999 10996 ] final  123.79 input  -57.11 | X-H torsion

> <Gold.Protein.ActiveResidues>
 VAL166  LYS551  ARG553  GLY616  TRP617  ASP618  TYR619  PRO620  LYS621  CYS622 
 ASP623  PHE694  ASN695  SER759  ASP760  ASP761  ALA762  ILE779  LEU786  VAL792 
 PHE793  MET794  SER795  GLU796  ALA797  LYS798  CYS799  TRP800  GLU811  SER814 

> <Gold.Protein.RotatedAtoms>
  152.5435  134.0898  159.8271 H   0  0  0  0  0  0  0  0  0  0  0  0  # atno 6907 bound_to 6896
  151.0989  133.5251  159.2618 H   0  0  0  0  0  0  0  0  0  0  0  0  # atno 6908 bound_to 6896
  151.2014  135.0453  159.8928 H   0  0  0  0  0  0  0  0  0  0  0  0  # atno 6909 bound_to 6896
  144.7151  140.0464  143.6436 H   0  0  0  0  0  0  0  0  0  0  0  0  # atno 7974 bound_to 7965
  156.2554  140.1978  156.6577 H   0  0  0  0  0  0  0  0  0  0  0  0  # atno 8008 bound_to 7997
  154.6488  140.0574  156.9957 H   0  0  0  0  0  0  0  0  0  0  0  0  # atno 8009 bound_to 7997
  155.1450  140.3246  155.4446 H   0  0  0  0  0  0  0  0  0  0  0  0  # atno 8010 bound_to 7997
  140.3603  144.2237  150.6138 H   0  0  0  0  0  0  0  0  0  0  0  0  # atno 10167 bound_to 10162
  156.0798  130.4219  150.1261 H   0  0  0  0  0  0  0  0  0  0  0  0  # atno 10718 bound_to 10713
  154.2492  135.6329  153.5234 H   0  0  0  0  0  0  0  0  0  0  0  0  # atno 10763 bound_to 10752
  152.9915  135.5561  154.5826 H   0  0  0  0  0  0  0  0  0  0  0  0  # atno 10764 bound_to 10752
  154.5349  135.2891  155.1122 H   0  0  0  0  0  0  0  0  0  0  0  0  # atno 10765 bound_to 10752
  139.9329  134.9641  156.8312 H   0  0  0  0  0  0  0  0  0  0  0  0  # atno 11005 bound_to 11000
  145.9981  139.3068  143.0944 LP  0  0  0  0  0  0  0  0  0  0  0  0  # atno 17320 bound_to 7965
  145.8826  140.9353  143.0593 LP  0  0  0  0  0  0  0  0  0  0  0  0  # atno 17321 bound_to 7965
  140.5133  143.2284  151.8501 LP  0  0  0  0  0  0  0  0  0  0  0  0  # atno 17342 bound_to 10162
  139.4815  144.4923  151.9168 LP  0  0  0  0  0  0  0  0  0  0  0  0  # atno 17343 bound_to 10162
  156.9295  130.9709  151.3535 LP  0  0  0  0  0  0  0  0  0  0  0  0  # atno 17370 bound_to 10713
  157.5910  130.8443  149.8659 LP  0  0  0  0  0  0  0  0  0  0  0  0  # atno 17371 bound_to 10713
  140.6154  134.0043  155.7595 LP  0  0  0  0  0  0  0  0  0  0  0  0  # atno 17394 bound_to 11000
  141.0927  133.9891  157.3211 LP  0  0  0  0  0  0  0  0  0  0  0  0  # atno 17395 bound_to 11000

$$$$
