AV-unprocessed.smi:1604|AV-procd|sdf|6447|dock7
  -GOLD-   22720 7103D 1   1.00000     0.00000
 Structure written by MMmdl.
 46 48  0  0  0  0  0  0  0  0  1 V2000
  148.6815  136.4831  157.7973 O   0  0  0  0  0  0  0  0  0  0  0  0
  149.3682  136.9485  158.7073 C   0  0  0  0  0  0  0  0  0  0  0  0
  150.4649  137.7055  158.5402 N   0  0  0  0  0  0  0  0  0  0  0  0
  151.0317  138.1643  157.3184 C   0  0  0  0  0  0  0  0  0  0  0  0
  150.9365  137.4006  156.1296 C   0  0  0  0  0  0  0  0  0  0  0  0
  151.5716  137.8590  154.9627 C   0  0  0  0  0  0  0  0  0  0  0  0
  152.2957  139.0608  155.0291 C   0  0  0  0  0  0  0  0  0  0  0  0
  152.4072  139.7919  156.1561 N   0  0  0  0  0  0  0  0  0  0  0  0
  151.7882  139.3709  157.2866 C   0  0  0  0  0  0  0  0  0  0  0  0
  151.9252  140.1886  158.4322 N   0  0  0  0  0  0  0  0  0  0  0  0
  151.3671  141.5373  158.3824 C   0  0  0  0  0  0  0  0  0  0  0  0
  152.3316  142.4359  159.1639 C   0  0  0  0  0  0  0  0  0  0  0  0
  153.0908  141.4594  160.0568 C   0  0  0  0  0  0  0  0  0  0  0  0
  153.1806  140.2169  159.1756 C   0  0  0  0  0  0  0  0  0  0  0  0
  149.0949  136.7773  160.0083 N   0  0  0  0  0  0  0  0  0  0  0  0
  147.9740  136.0122  160.5534 C   0  0  2  0  0  0  0  0  0  0  0  0
  147.9766  136.0715  162.1028 C   0  0  0  0  0  0  0  0  0  0  0  0
  147.2767  134.9031  162.8277 C   0  0  0  0  0  0  0  0  0  0  0  0
  145.8261  134.6221  162.3868 C   0  0  0  0  0  0  0  0  0  0  0  0
  145.5940  134.3645  160.8785 C   0  0  0  0  0  0  0  0  0  0  0  0
  146.7738  133.8882  160.1570 N   0  0  0  0  0  0  0  0  0  0  0  0
  147.8961  134.5977  159.9475 C   0  0  0  0  0  0  0  0  0  0  0  0
  148.8414  134.1304  159.3136 O   0  0  0  0  0  0  0  0  0  0  0  0
  150.8704  138.0948  159.3787 H   0  0  0  0  0  0  0  0  0  0  0  0
  150.4075  136.4602  156.1015 H   0  0  0  0  0  0  0  0  0  0  0  0
  151.5158  137.2954  154.0434 H   0  0  0  0  0  0  0  0  0  0  0  0
  152.8051  139.4425  154.1567 H   0  0  0  0  0  0  0  0  0  0  0  0
  151.2346  141.8911  157.3588 H   0  0  0  0  0  0  0  0  0  0  0  0
  150.3907  141.5316  158.8675 H   0  0  0  0  0  0  0  0  0  0  0  0
  153.0274  142.9155  158.4742 H   0  0  0  0  0  0  0  0  0  0  0  0
  151.8211  143.2192  159.7245 H   0  0  0  0  0  0  0  0  0  0  0  0
  154.0671  141.8324  160.3669 H   0  0  0  0  0  0  0  0  0  0  0  0
  152.5083  141.2421  160.9532 H   0  0  0  0  0  0  0  0  0  0  0  0
  153.3151  139.3095  159.7649 H   0  0  0  0  0  0  0  0  0  0  0  0
  154.0298  140.3159  158.4983 H   0  0  0  0  0  0  0  0  0  0  0  0
  149.7176  137.1975  160.6829 H   0  0  0  0  0  0  0  0  0  0  0  0
  147.0707  136.5175  160.2087 H   0  0  0  0  0  0  0  0  0  0  0  0
  149.0065  136.1060  162.4609 H   0  0  0  0  0  0  0  0  0  0  0  0
  147.5253  137.0124  162.4199 H   0  0  0  0  0  0  0  0  0  0  0  0
  147.8710  133.9960  162.7100 H   0  0  0  0  0  0  0  0  0  0  0  0
  147.2826  135.1053  163.8990 H   0  0  0  0  0  0  0  0  0  0  0  0
  145.4795  133.7488  162.9405 H   0  0  0  0  0  0  0  0  0  0  0  0
  145.1829  135.4422  162.7076 H   0  0  0  0  0  0  0  0  0  0  0  0
  144.7969  133.6312  160.7542 H   0  0  0  0  0  0  0  0  0  0  0  0
  145.2251  135.2711  160.3977 H   0  0  0  0  0  0  0  0  0  0  0  0
  146.7282  132.9554  159.7730 H   0  0  0  0  0  0  0  0  0  0  0  0
  1  2  2  0  0  0  0
  2  3  1  0  0  0  0
  2 15  1  0  0  0  0
  3  4  1  0  0  0  0
  3 24  1  0  0  0  0
  4  9  1  0  0  0  0
  4  5  2  0  0  0  0
  5  6  1  0  0  0  0
  5 25  1  0  0  0  0
  6  7  2  0  0  0  0
  6 26  1  0  0  0  0
  7  8  1  0  0  0  0
  7 27  1  0  0  0  0
  8  9  2  0  0  0  0
  9 10  1  0  0  0  0
 10 14  1  0  0  0  0
 10 11  1  0  0  0  0
 11 12  1  0  0  0  0
 11 28  1  0  0  0  0
 11 29  1  0  0  0  0
 12 13  1  0  0  0  0
 12 30  1  0  0  0  0
 12 31  1  0  0  0  0
 13 14  1  0  0  0  0
 13 32  1  0  0  0  0
 13 33  1  0  0  0  0
 14 34  1  0  0  0  0
 14 35  1  0  0  0  0
 15 16  1  0  0  0  0
 15 36  1  0  0  0  0
 16 22  1  0  0  0  0
 16 17  1  0  0  0  0
 16 37  1  0  0  0  0
 17 18  1  0  0  0  0
 17 38  1  0  0  0  0
 17 39  1  0  0  0  0
 18 19  1  0  0  0  0
 18 40  1  0  0  0  0
 18 41  1  0  0  0  0
 19 20  1  0  0  0  0
 19 42  1  0  0  0  0
 19 43  1  0  0  0  0
 20 21  1  0  0  0  0
 20 44  1  0  0  0  0
 20 45  1  0  0  0  0
 21 22  1  0  0  0  0
 21 46  1  0  0  0  0
 22 23  2  0  0  0  0
M  END
> <s_m_source_file>
AV-unprocessed.smi

> <i_m_source_file_index>
1604

> <i_lp_mmshare_version>
43012

> <i_f3d_flags>
0

> <s_epik_input>
Tz1DMVtOSF1bQ0gyXVtDSDJdW0NIMl1bQ0gyXVtDQEhdMVtOSF1DKD1PKVtOSF1jMltjSF1bY0hdW2NIXW5jMk4zW0NIMl1bQ0gyXVtDSDJdW0NIMl0z

> <s_epik_cmdline>
J2VwaWtfcHl0aG9uJywgJy1waCcsICc3LjAnLCAnLXRuJywgJzgnLCAnLW1hJywgJzIwMCcsICctbWV0YWxfYmluZGluZycsICctaW1hZScsICc8aW5maWxlLm1hZT4nLCAnLW9tYWUnLCAnPG91dGZpbGUubWFlPic=

> <r_lp_tautomer_probability>
1

> <r_epik_Ionization_Penalty>
0.0837267

> <r_epik_Ionization_Penalty_Charging>
0

> <r_epik_Ionization_Penalty_Neutral>
0.0837267

> <r_epik_State_Penalty>
0.0738331

> <r_epik_Charging_Adjusted_Penalty>
0.0738331

> <i_epik_Tot_Q>
0

> <i_epik_Tot_abs_Q>
0

> <r_epik_Metal_State_Penalty>
0.0646802

> <b_epik_Metal_Only>
0

> <s_lp_Force_Field>
OPLS_2005

> <r_lp_Energy>
41.479

> <b_lp_Chiralities_Consistent>
1

> <s_lp_Variant>
AV-unprocessed.smi:1604-1

> <Gold.Version>
5.8.1

> <Gold.Id.Protein>
6NUR|6NUR_protein|mol2

> <Gold.PLP.Fitness>
43.1018

> <Gold.PLP.PLP>
-37.5665

> <Gold.PLP.part.hbond>
-2.0000

> <Gold.PLP.part.metal>
0.0000

> <Gold.PLP.part.buried>
-6.3045

> <Gold.PLP.part.nonpolar>
-30.0917

> <Gold.PLP.part.repulsive>
0.3844

> <Gold.PLP.ligand.clash>
0.0000

> <Gold.PLP.ligand.torsion>
0.4151

> <Gold.PLP.Chemscore.Hbond>
2.0000

> <Gold.PLP.Chemscore.CHOScore>
0.0000

> <Gold.PLP.Chemscore.Metal>
0.0000

> <Gold.Chemscore.Hbonds>
donor molecule, donor type, donor heavy atom, donor atom, acceptor molecule, acceptor atom, score
      P1  H  6896  6908       L1    23  1.00
      P1  H  7997  8009       L1     8  1.00

> <Gold.PLP.Chemscore.Internal.Correction>
0.3654

> <Gold.Rescore>
     Score         DG    S(hbond)    S(metal)    S(lipo)     H(rot)  DE(clash)    DE(int)     intcor
     16.92     -18.56       1.81        0.00      87.27       1.25       0.02       1.62       ----

> <Gold.Chemscore.Fitness>
16.9211

> <Gold.Chemscore.DG>
-18.5619

> <Gold.Chemscore.ZeroCoef>
-5.4800

> <Gold.Chemscore.Hbond>
1.8147

> <Gold.Chemscore.Metal>
0.0000

> <Gold.Chemscore.Lipo>
87.2715

> <Gold.Chemscore.Internal_Hbond>
0.0000

> <Gold.Chemscore.DEClash>
0.0222

> <Gold.Chemscore.DEInternal>
1.6185

> <Gold.Chemscore.Rot>
1.2461

> <Gold.Chemscore.Internal.Correction>
   9.000000E+99

> <Gold.Chemscore.Hbonds>
donor molecule, donor type, donor heavy atom, donor atom, acceptor molecule, acceptor atom, score
      P1  H  6896  6908       L1    23  0.95
      P1  H  7997  8009       L1     8  0.49

> <Gold.Chemscore.Hbond.Weighted>
-6.0610

> <Gold.Chemscore.Metal.Weighted>
-0.0000

> <Gold.Chemscore.Lipo.Weighted>
-10.2108

> <Gold.Chemscore.Internal_Hbond.Weighted>
0.0000

> <Gold.Chemscore.DEClash.Weighted>
0.0222

> <Gold.Chemscore.DEInternal.Weighted>
1.6185

> <Gold.Chemscore.Rot.Weighted>
3.1899

> <Gold.Chemscore.Internal.Correction.Weighted>
   9.000000E+99

> <Gold.Protein.RotatedTorsions>
[ 6907 6896 6895 6894 ] final  149.38 input  -60.11 | X-H torsion
[ 7974 7965 7964 7962 ] final   12.46 input  175.53 | X-H torsion
[ 8008 7997 7996 7995 ] final -175.01 input   59.86 | X-H torsion
[ 10167 10162 10161 10158 ] final   68.38 input  -65.29 | X-H torsion
[ 10718 10713 10712 10709 ] final -148.88 input   66.30 | X-H torsion
[ 10763 10752 10751 10750 ] final   45.77 input  -60.55 | X-H torsion
[ 11005 11000 10999 10996 ] final  -47.45 input  -57.11 | X-H torsion

> <Gold.Protein.ActiveResidues>
 VAL166  LYS551  ARG553  GLY616  TRP617  ASP618  TYR619  PRO620  LYS621  CYS622 
 ASP623  PHE694  ASN695  SER759  ASP760  ASP761  ALA762  ILE779  LEU786  VAL792 
 PHE793  MET794  SER795  GLU796  ALA797  LYS798  CYS799  TRP800  GLU811  SER814 

> <Gold.Protein.RotatedAtoms>
  152.1287  133.4395  159.4710 H   0  0  0  0  0  0  0  0  0  0  0  0  # atno 6907 bound_to 6896
  150.6876  134.2446  159.4495 H   0  0  0  0  0  0  0  0  0  0  0  0  # atno 6908 bound_to 6896
  152.0329  134.9757  160.0623 H   0  0  0  0  0  0  0  0  0  0  0  0  # atno 6909 bound_to 6896
  146.2350  139.9333  142.8493 H   0  0  0  0  0  0  0  0  0  0  0  0  # atno 7974 bound_to 7965
  155.9772  140.1174  157.0759 H   0  0  0  0  0  0  0  0  0  0  0  0  # atno 8008 bound_to 7997
  154.4172  140.1151  156.5454 H   0  0  0  0  0  0  0  0  0  0  0  0  # atno 8009 bound_to 7997
  155.6518  140.3473  155.4753 H   0  0  0  0  0  0  0  0  0  0  0  0  # atno 8010 bound_to 7997
  140.0793  144.5084  150.7173 H   0  0  0  0  0  0  0  0  0  0  0  0  # atno 10167 bound_to 10162
  156.4260  130.8052  151.2277 H   0  0  0  0  0  0  0  0  0  0  0  0  # atno 10718 bound_to 10713
  152.9820  135.6029  154.3491 H   0  0  0  0  0  0  0  0  0  0  0  0  # atno 10763 bound_to 10752
  154.3182  135.2770  155.2534 H   0  0  0  0  0  0  0  0  0  0  0  0  # atno 10764 bound_to 10752
  154.4713  135.5941  153.6379 H   0  0  0  0  0  0  0  0  0  0  0  0  # atno 10765 bound_to 10752
  141.0641  133.6699  156.3299 H   0  0  0  0  0  0  0  0  0  0  0  0  # atno 11005 bound_to 11000
  145.2023  140.9860  143.4148 LP  0  0  0  0  0  0  0  0  0  0  0  0  # atno 17320 bound_to 7965
  144.9762  139.3829  143.6284 LP  0  0  0  0  0  0  0  0  0  0  0  0  # atno 17321 bound_to 7965
  140.7086  143.2487  151.4652 LP  0  0  0  0  0  0  0  0  0  0  0  0  # atno 17342 bound_to 10162
  139.5789  144.1755  152.1941 LP  0  0  0  0  0  0  0  0  0  0  0  0  # atno 17343 bound_to 10162
  157.7508  131.0213  150.3745 LP  0  0  0  0  0  0  0  0  0  0  0  0  # atno 17370 bound_to 10713
  156.4072  130.3927  149.6917 LP  0  0  0  0  0  0  0  0  0  0  0  0  # atno 17371 bound_to 10713
  140.5809  134.5746  157.5479 LP  0  0  0  0  0  0  0  0  0  0  0  0  # atno 17394 bound_to 11000
  139.9460  134.7702  156.0562 LP  0  0  0  0  0  0  0  0  0  0  0  0  # atno 17395 bound_to 11000

$$$$
