AV-unprocessed.smi:2451|AV-procd|sdf|9674|dock1
  -GOLD-   2272013313D 1   1.00000     0.00000
 Structure written by MMmdl.
 38 39  0  0  0  0  0  0  0  0  1 V2000
  151.6236  144.8108  159.8528 C   0  0  0  0  0  0  0  0  0  0  0  0
  152.4368  143.5342  159.5701 C   0  0  1  0  0  0  0  0  0  0  0  0
  152.9086  142.9180  160.9024 C   0  0  0  0  0  0  0  0  0  0  0  0
  153.7571  141.6620  160.6783 C   0  0  0  0  0  0  0  0  0  0  0  0
  152.9673  140.6180  159.8851 C   0  0  0  0  0  0  0  0  0  0  0  0
  152.4769  141.1878  158.5427 C   0  0  1  0  0  0  0  0  0  0  0  0
  151.6644  140.1655  157.8755 N   0  0  0  0  0  0  0  0  0  0  0  0
  152.4281  138.7153  157.3398 S   0  0  0  0  0  0  0  0  0  0  0  0
  153.8022  138.7146  157.8654 O   0  0  0  0  0  0  0  0  0  0  0  0
  151.5236  137.5972  157.6480 O   0  0  0  0  0  0  0  0  0  0  0  0
  152.4976  138.9561  155.5153 C   0  0  0  0  0  0  0  0  0  0  0  0
  151.1257  139.2770  154.9965 C   0  0  0  0  0  0  0  0  0  0  0  0
  150.1010  138.3759  154.5947 C   0  0  0  0  0  0  0  0  0  0  0  0
  149.0820  139.2011  154.2152 C   0  0  0  0  0  0  0  0  0  0  0  0
  149.4428  140.5007  154.3640 O   0  0  0  0  0  0  0  0  0  0  0  0
  150.7505  140.5392  154.8615 N   0  0  0  0  0  0  0  0  0  0  0  0
  151.6597  142.4963  158.7105 C   0  0  2  0  0  0  0  0  0  0  0  0
  151.2750  143.0761  157.3315 C   0  0  0  0  0  0  0  0  0  0  0  0
  150.6693  144.5765  160.3255 H   0  0  0  0  0  0  0  0  0  0  0  0
  151.4195  145.3740  158.9428 H   0  0  0  0  0  0  0  0  0  0  0  0
  152.1666  145.4811  160.5196 H   0  0  0  0  0  0  0  0  0  0  0  0
  153.3283  143.8311  159.0154 H   0  0  0  0  0  0  0  0  0  0  0  0
  153.4908  143.6483  161.4659 H   0  0  0  0  0  0  0  0  0  0  0  0
  152.0453  142.6695  161.5216 H   0  0  0  0  0  0  0  0  0  0  0  0
  154.6705  141.9221  160.1418 H   0  0  0  0  0  0  0  0  0  0  0  0
  154.0668  141.2453  161.6372 H   0  0  0  0  0  0  0  0  0  0  0  0
  153.5898  139.7387  159.7145 H   0  0  0  0  0  0  0  0  0  0  0  0
  152.1160  140.2838  160.4798 H   0  0  0  0  0  0  0  0  0  0  0  0
  153.3504  141.4060  157.9265 H   0  0  0  0  0  0  0  0  0  0  0  0
  150.8151  139.9654  158.4032 H   0  0  0  0  0  0  0  0  0  0  0  0
  153.2087  139.7532  155.2967 H   0  0  0  0  0  0  0  0  0  0  0  0
  152.8765  138.0390  155.0647 H   0  0  0  0  0  0  0  0  0  0  0  0
  150.1111  137.2962  154.5902 H   0  0  0  0  0  0  0  0  0  0  0  0
  148.0867  139.0250  153.8346 H   0  0  0  0  0  0  0  0  0  0  0  0
  150.7371  142.2498  159.2388 H   0  0  0  0  0  0  0  0  0  0  0  0
  152.1579  143.3940  156.7762 H   0  0  0  0  0  0  0  0  0  0  0  0
  150.6082  143.9325  157.4219 H   0  0  0  0  0  0  0  0  0  0  0  0
  150.7488  142.3453  156.7176 H   0  0  0  0  0  0  0  0  0  0  0  0
  1  2  1  0  0  0  0
  1 19  1  0  0  0  0
  1 20  1  0  0  0  0
  1 21  1  0  0  0  0
  2 17  1  0  0  0  0
  2  3  1  0  0  0  0
  2 22  1  0  0  0  0
  3  4  1  0  0  0  0
  3 23  1  0  0  0  0
  3 24  1  0  0  0  0
  4  5  1  0  0  0  0
  4 25  1  0  0  0  0
  4 26  1  0  0  0  0
  5  6  1  0  0  0  0
  5 27  1  0  0  0  0
  5 28  1  0  0  0  0
  6  7  1  0  0  0  0
  6 17  1  0  0  0  0
  6 29  1  0  0  0  0
  7  8  1  0  0  0  0
  7 30  1  0  0  0  0
  8  9  2  0  0  0  0
  8 10  2  0  0  0  0
  8 11  1  0  0  0  0
 11 12  1  0  0  0  0
 11 31  1  0  0  0  0
 11 32  1  0  0  0  0
 12 16  2  0  0  0  0
 12 13  1  0  0  0  0
 13 14  2  0  0  0  0
 13 33  1  0  0  0  0
 14 15  1  0  0  0  0
 14 34  1  0  0  0  0
 15 16  1  0  0  0  0
 17 18  1  0  0  0  0
 17 35  1  0  0  0  0
 18 36  1  0  0  0  0
 18 37  1  0  0  0  0
 18 38  1  0  0  0  0
M  END
> <s_m_source_file>
AV-unprocessed.smi

> <i_m_source_file_index>
2451

> <i_lp_mmshare_version>
43012

> <i_f3d_flags>
0

> <s_epik_input>
W0NIM11bQ0BASF0xW0NIMl1bQ0gyXVtDSDJdW0NASF0oW0NASF0xW0NIM10pW05IXVMoPU8pKD1PKVtDSDJdYzJbY0hdW2NIXW9uMg==

> <s_epik_cmdline>
J2VwaWtfcHl0aG9uJywgJy1waCcsICc3LjAnLCAnLXRuJywgJzgnLCAnLW1hJywgJzIwMCcsICctbWV0YWxfYmluZGluZycsICctaW1hZScsICc8aW5maWxlLm1hZT4nLCAnLW9tYWUnLCAnPG91dGZpbGUubWFlPic=

> <r_lp_tautomer_probability>
1

> <r_epik_Ionization_Penalty>
8.73668e-05

> <r_epik_Ionization_Penalty_Charging>
0

> <r_epik_Ionization_Penalty_Neutral>
8.73668e-05

> <r_epik_State_Penalty>
-0

> <r_epik_Charging_Adjusted_Penalty>
0

> <i_epik_Tot_Q>
0

> <i_epik_Tot_abs_Q>
0

> <r_epik_Metal_State_Penalty>
0.0716439

> <b_epik_Metal_Only>
0

> <s_lp_Force_Field>
OPLS_2005

> <r_lp_Energy>
6.58047

> <b_lp_Chiralities_Consistent>
1

> <s_lp_Variant>
AV-unprocessed.smi:2451-6

> <Gold.Version>
5.8.1

> <Gold.Id.Protein>
6NUR|6NUR_protein|mol2

> <Gold.PLP.Fitness>
43.8709

> <Gold.PLP.PLP>
-39.1940

> <Gold.PLP.part.hbond>
-2.7194

> <Gold.PLP.part.metal>
0.0000

> <Gold.PLP.part.buried>
-3.6711

> <Gold.PLP.part.nonpolar>
-32.8613

> <Gold.PLP.part.repulsive>
0.2007

> <Gold.PLP.ligand.clash>
0.0000

> <Gold.PLP.ligand.torsion>
0.7434

> <Gold.PLP.Chemscore.Hbond>
2.0000

> <Gold.PLP.Chemscore.CHOScore>
0.0000

> <Gold.PLP.Chemscore.Metal>
0.0000

> <Gold.Chemscore.Hbonds>
donor molecule, donor type, donor heavy atom, donor atom, acceptor molecule, acceptor atom, score
      P1  H  7989  7998       L1    16  0.90
      P1  H  7997  8009       L1     9  1.00

> <Gold.PLP.Chemscore.Internal.Correction>
0.1636

> <Gold.Rescore>
     Score         DG    S(hbond)    S(metal)    S(lipo)     H(rot)  DE(clash)    DE(int)     intcor
     18.08     -19.96       1.90        0.00     105.91       1.66       0.14       1.74       ----

> <Gold.Chemscore.Fitness>
18.0802

> <Gold.Chemscore.DG>
-19.9558

> <Gold.Chemscore.ZeroCoef>
-5.4800

> <Gold.Chemscore.Hbond>
1.8956

> <Gold.Chemscore.Metal>
0.0000

> <Gold.Chemscore.Lipo>
105.9073

> <Gold.Chemscore.Internal_Hbond>
0.0000

> <Gold.Chemscore.DEClash>
0.1372

> <Gold.Chemscore.DEInternal>
1.7385

> <Gold.Chemscore.Rot>
1.6588

> <Gold.Chemscore.Internal.Correction>
   9.000000E+99

> <Gold.Chemscore.Hbonds>
donor molecule, donor type, donor heavy atom, donor atom, acceptor molecule, acceptor atom, score
      P1  H  7989  7998       L1    16  0.06
      P1  H  7997  8009       L1     9  0.44

> <Gold.Chemscore.Hbond.Weighted>
-6.3313

> <Gold.Chemscore.Metal.Weighted>
-0.0000

> <Gold.Chemscore.Lipo.Weighted>
-12.3912

> <Gold.Chemscore.Internal_Hbond.Weighted>
0.0000

> <Gold.Chemscore.DEClash.Weighted>
0.1372

> <Gold.Chemscore.DEInternal.Weighted>
1.7385

> <Gold.Chemscore.Rot.Weighted>
4.2466

> <Gold.Chemscore.Internal.Correction.Weighted>
   9.000000E+99

> <Gold.Protein.RotatedTorsions>
[ 6907 6896 6895 6894 ] final  174.02 input  -60.11 | X-H torsion
[ 7974 7965 7964 7962 ] final   75.79 input  175.53 | X-H torsion
[ 8008 7997 7996 7995 ] final  156.05 input   59.86 | X-H torsion
[ 10167 10162 10161 10158 ] final  147.10 input  -65.29 | X-H torsion
[ 10718 10713 10712 10709 ] final   -3.54 input   66.30 | X-H torsion
[ 10763 10752 10751 10750 ] final   48.72 input  -60.55 | X-H torsion
[ 11005 11000 10999 10996 ] final  -43.80 input  -57.11 | X-H torsion

> <Gold.Protein.ActiveResidues>
 VAL166  LYS551  ARG553  GLY616  TRP617  ASP618  TYR619  PRO620  LYS621  CYS622 
 ASP623  PHE694  ASN695  SER759  ASP760  ASP761  ALA762  ILE779  LEU786  VAL792 
 PHE793  MET794  SER795  GLU796  ALA797  LYS798  CYS799  TRP800  GLU811  SER814 

> <Gold.Protein.RotatedAtoms>
  151.7591  133.3332  159.3412 H   0  0  0  0  0  0  0  0  0  0  0  0  # atno 6907 bound_to 6896
  150.7505  134.6122  159.6102 H   0  0  0  0  0  0  0  0  0  0  0  0  # atno 6908 bound_to 6896
  152.3418  134.7127  160.0313 H   0  0  0  0  0  0  0  0  0  0  0  0  # atno 6909 bound_to 6896
  145.7111  139.2615  143.1650 H   0  0  0  0  0  0  0  0  0  0  0  0  # atno 7974 bound_to 7965
  156.2444  140.1923  156.6896 H   0  0  0  0  0  0  0  0  0  0  0  0  # atno 8008 bound_to 7997
  154.6261  140.0602  156.9702 H   0  0  0  0  0  0  0  0  0  0  0  0  # atno 8009 bound_to 7997
  155.1784  140.3274  155.4382 H   0  0  0  0  0  0  0  0  0  0  0  0  # atno 8010 bound_to 7997
  139.4896  144.5781  151.6926 H   0  0  0  0  0  0  0  0  0  0  0  0  # atno 10167 bound_to 10162
  156.7746  130.5311  149.5761 H   0  0  0  0  0  0  0  0  0  0  0  0  # atno 10718 bound_to 10713
  152.9790  135.5935  154.3972 H   0  0  0  0  0  0  0  0  0  0  0  0  # atno 10763 bound_to 10752
  154.3622  135.2767  155.2315 H   0  0  0  0  0  0  0  0  0  0  0  0  # atno 10764 bound_to 10752
  154.4308  135.6037  153.6122 H   0  0  0  0  0  0  0  0  0  0  0  0  # atno 10765 bound_to 10752
  141.0408  133.6781  156.2784 H   0  0  0  0  0  0  0  0  0  0  0  0  # atno 11005 bound_to 11000
  146.0712  140.7867  142.9687 LP  0  0  0  0  0  0  0  0  0  0  0  0  # atno 17320 bound_to 7965
  144.6942  140.3345  143.7210 LP  0  0  0  0  0  0  0  0  0  0  0  0  # atno 17321 bound_to 7965
  140.5381  144.0623  150.6078 LP  0  0  0  0  0  0  0  0  0  0  0  0  # atno 17342 bound_to 10162
  140.3636  143.2894  152.0356 LP  0  0  0  0  0  0  0  0  0  0  0  0  # atno 17343 bound_to 10162
  156.1256  130.6141  151.0259 LP  0  0  0  0  0  0  0  0  0  0  0  0  # atno 17370 bound_to 10713
  157.6675  131.0868  150.7693 LP  0  0  0  0  0  0  0  0  0  0  0  0  # atno 17371 bound_to 10713
  140.6237  134.5335  157.5551 LP  0  0  0  0  0  0  0  0  0  0  0  0  # atno 17394 bound_to 11000
  139.9274  134.8029  156.1028 LP  0  0  0  0  0  0  0  0  0  0  0  0  # atno 17395 bound_to 11000

$$$$
