AV-unprocessed.smi:2073|AV-procd|sdf|8450|dock1
  -GOLD-   2272011143D 1   1.00000     0.00000
 Structure written by MMmdl.
 28 28  0  0  0  0  0  0  0  0  1 V2000
  152.8270  144.7348  157.9779 C   0  0  0  0  0  0  0  0  0  0  0  0
  151.3894  144.2049  158.1098 C   0  0  0  0  0  0  0  0  0  0  0  0
  150.9457  144.1570  159.5811 C   0  0  0  0  0  0  0  0  0  0  0  0
  151.2574  142.8220  157.4572 C   0  0  0  0  0  0  0  0  0  0  0  0
  151.8578  141.8611  157.9407 O   0  0  0  0  0  0  0  0  0  0  0  0
  150.4682  142.7593  156.3678 N   0  0  0  0  0  0  0  0  0  0  0  0
  150.1723  141.6306  155.5597 C   0  0  0  0  0  0  0  0  0  0  0  0
  150.9733  140.5675  155.4286 N   0  0  0  0  0  0  0  0  0  0  0  0
  150.4435  139.6077  154.5594 C   0  0  0  0  0  0  0  0  0  0  0  0
  151.2079  138.3458  154.2825 C   0  0  0  0  0  0  0  0  0  0  0  0
  152.5750  138.3921  154.9678 C   0  0  0  0  0  0  0  0  0  0  0  0
  152.7641  137.5741  156.0071 N   0  0  0  0  0  0  0  0  0  0  0  0
  153.4504  139.1538  154.5625 O   0  0  0  0  0  0  0  0  0  0  0  0
  149.2184  139.9602  154.0465 C   0  0  0  0  0  0  0  0  0  0  0  0
  148.6885  141.5167  154.6263 S   0  0  0  0  0  0  0  0  0  0  0  0
  153.1469  144.7603  156.9354 H   0  0  0  0  0  0  0  0  0  0  0  0
  153.5361  144.1161  158.5296 H   0  0  0  0  0  0  0  0  0  0  0  0
  152.9045  145.7503  158.3672 H   0  0  0  0  0  0  0  0  0  0  0  0
  150.7295  144.8981  157.5851 H   0  0  0  0  0  0  0  0  0  0  0  0
  149.9285  143.7750  159.6770 H   0  0  0  0  0  0  0  0  0  0  0  0
  150.9632  145.1527  160.0245 H   0  0  0  0  0  0  0  0  0  0  0  0
  151.5991  143.5191  160.1780 H   0  0  0  0  0  0  0  0  0  0  0  0
  150.0354  143.6245  156.0793 H   0  0  0  0  0  0  0  0  0  0  0  0
  150.6551  137.4716  154.6297 H   0  0  0  0  0  0  0  0  0  0  0  0
  151.3505  138.2114  153.2095 H   0  0  0  0  0  0  0  0  0  0  0  0
  153.6547  137.5635  156.4835 H   0  0  0  0  0  0  0  0  0  0  0  0
  152.0194  136.9618  156.3066 H   0  0  0  0  0  0  0  0  0  0  0  0
  148.5997  139.4004  153.3609 H   0  0  0  0  0  0  0  0  0  0  0  0
  1  2  1  0  0  0  0
  1 16  1  0  0  0  0
  1 17  1  0  0  0  0
  1 18  1  0  0  0  0
  2  3  1  0  0  0  0
  2  4  1  0  0  0  0
  2 19  1  0  0  0  0
  3 20  1  0  0  0  0
  3 21  1  0  0  0  0
  3 22  1  0  0  0  0
  4  5  2  0  0  0  0
  4  6  1  0  0  0  0
  6  7  1  0  0  0  0
  6 23  1  0  0  0  0
  7 15  1  0  0  0  0
  7  8  2  0  0  0  0
  8  9  1  0  0  0  0
  9 10  1  0  0  0  0
  9 14  2  0  0  0  0
 10 11  1  0  0  0  0
 10 24  1  0  0  0  0
 10 25  1  0  0  0  0
 11 12  1  0  0  0  0
 11 13  2  0  0  0  0
 12 26  1  0  0  0  0
 12 27  1  0  0  0  0
 14 15  1  0  0  0  0
 14 28  1  0  0  0  0
M  END
> <s_m_source_file>
AV-unprocessed.smi

> <i_m_source_file_index>
2073

> <i_lp_mmshare_version>
43012

> <i_f3d_flags>
0

> <s_epik_input>
W0NIM11bQ0hdKFtDSDNdKUMoPU8pW05IXWMxbmMoW2NIXXMxKVtDSDJdQyg9TylbTkgyXQ==

> <s_epik_cmdline>
J2VwaWtfcHl0aG9uJywgJy1waCcsICc3LjAnLCAnLXRuJywgJzgnLCAnLW1hJywgJzIwMCcsICctbWV0YWxfYmluZGluZycsICctaW1hZScsICc8aW5maWxlLm1hZT4nLCAnLW9tYWUnLCAnPG91dGZpbGUubWFlPic=

> <r_lp_tautomer_probability>
1

> <r_epik_Ionization_Penalty>
0.000158353

> <r_epik_Ionization_Penalty_Charging>
0

> <r_epik_Ionization_Penalty_Neutral>
0.000158353

> <r_epik_State_Penalty>
-0

> <r_epik_Charging_Adjusted_Penalty>
0

> <i_epik_Tot_Q>
0

> <i_epik_Tot_abs_Q>
0

> <r_epik_Metal_State_Penalty>
0.0986865

> <b_epik_Metal_Only>
0

> <s_lp_Force_Field>
OPLS_2005

> <r_lp_Energy>
2.86857

> <b_lp_Chiralities_Consistent>
1

> <s_lp_Variant>
AV-unprocessed.smi:2073-1

> <Gold.Version>
5.8.1

> <Gold.Id.Protein>
6NUR|6NUR_protein|mol2

> <Gold.PLP.Fitness>
41.6884

> <Gold.PLP.PLP>
-34.9056

> <Gold.PLP.part.hbond>
-2.9977

> <Gold.PLP.part.metal>
0.0000

> <Gold.PLP.part.buried>
-3.2462

> <Gold.PLP.part.nonpolar>
-29.3163

> <Gold.PLP.part.repulsive>
0.2978

> <Gold.PLP.ligand.clash>
0.0000

> <Gold.PLP.ligand.torsion>
0.3036

> <Gold.PLP.Chemscore.Hbond>
2.0000

> <Gold.PLP.Chemscore.CHOScore>
0.4563

> <Gold.PLP.Chemscore.Metal>
0.0000

> <Gold.Chemscore.Hbonds>
donor molecule, donor type, donor heavy atom, donor atom, acceptor molecule, acceptor atom, score
      L1  H     6    23       P1  8028  1.00
      P1  H  7997  8009       L1    13  1.00
      L1  C    14    28       P1  7957  0.43

> <Gold.PLP.Chemscore.Internal.Correction>
0.0210

> <Gold.Rescore>
     Score         DG    S(hbond)    S(metal)    S(lipo)     H(rot)  DE(clash)    DE(int)     intcor
     12.64     -15.05       1.97        0.00      67.78       1.93       0.04       2.36       ----

> <Gold.Chemscore.Fitness>
12.6437

> <Gold.Chemscore.DG>
-15.0456

> <Gold.Chemscore.ZeroCoef>
-5.4800

> <Gold.Chemscore.Hbond>
1.9706

> <Gold.Chemscore.Metal>
0.0000

> <Gold.Chemscore.Lipo>
67.7832

> <Gold.Chemscore.Internal_Hbond>
0.0000

> <Gold.Chemscore.DEClash>
0.0437

> <Gold.Chemscore.DEInternal>
2.3582

> <Gold.Chemscore.Rot>
1.9323

> <Gold.Chemscore.Internal.Correction>
   9.000000E+99

> <Gold.Chemscore.Hbonds>
donor molecule, donor type, donor heavy atom, donor atom, acceptor molecule, acceptor atom, score
      L1  H     6    23       P1  8028  0.99
      P1  H  7997  8009       L1    13  0.99

> <Gold.Chemscore.Hbond.Weighted>
-6.5817

> <Gold.Chemscore.Metal.Weighted>
-0.0000

> <Gold.Chemscore.Lipo.Weighted>
-7.9306

> <Gold.Chemscore.Internal_Hbond.Weighted>
0.0000

> <Gold.Chemscore.DEClash.Weighted>
0.0437

> <Gold.Chemscore.DEInternal.Weighted>
2.3582

> <Gold.Chemscore.Rot.Weighted>
4.9468

> <Gold.Chemscore.Internal.Correction.Weighted>
   9.000000E+99

> <Gold.Protein.RotatedTorsions>
[ 6907 6896 6895 6894 ] final  -22.87 input  -60.11 | X-H torsion
[ 7974 7965 7964 7962 ] final -101.29 input  175.53 | X-H torsion
[ 8008 7997 7996 7995 ] final -126.16 input   59.86 | X-H torsion
[ 10167 10162 10161 10158 ] final  -51.26 input  -65.29 | X-H torsion
[ 10718 10713 10712 10709 ] final   -5.92 input   66.30 | X-H torsion
[ 10763 10752 10751 10750 ] final  -33.56 input  -60.55 | X-H torsion
[ 11005 11000 10999 10996 ] final  -34.09 input  -57.11 | X-H torsion

> <Gold.Protein.ActiveResidues>
 VAL166  LYS551  ARG553  GLY616  TRP617  ASP618  TYR619  PRO620  LYS621  CYS622 
 ASP623  PHE694  ASN695  SER759  ASP760  ASP761  ALA762  ILE779  LEU786  VAL792 
 PHE793  MET794  SER795  GLU796  ALA797  LYS798  CYS799  TRP800  GLU811  SER814 

> <Gold.Protein.RotatedAtoms>
  151.2123  135.0486  159.8915 H   0  0  0  0  0  0  0  0  0  0  0  0  # atno 6907 bound_to 6896
  152.5423  134.0732  159.8213 H   0  0  0  0  0  0  0  0  0  0  0  0  # atno 6908 bound_to 6896
  151.0887  133.5285  159.2648 H   0  0  0  0  0  0  0  0  0  0  0  0  # atno 6909 bound_to 6896
  145.2835  140.9333  143.2918 H   0  0  0  0  0  0  0  0  0  0  0  0  # atno 7974 bound_to 7965
  155.2251  140.0423  157.2954 H   0  0  0  0  0  0  0  0  0  0  0  0  # atno 8008 bound_to 7997
  154.5924  140.2430  155.7873 H   0  0  0  0  0  0  0  0  0  0  0  0  # atno 8009 bound_to 7997
  156.2268  140.2952  156.0096 H   0  0  0  0  0  0  0  0  0  0  0  0  # atno 8010 bound_to 7997
  140.6597  143.2626  151.4478 H   0  0  0  0  0  0  0  0  0  0  0  0  # atno 10167 bound_to 10162
  156.7395  130.5205  149.5827 H   0  0  0  0  0  0  0  0  0  0  0  0  # atno 10718 bound_to 10713
  153.8322  135.6865  153.4813 H   0  0  0  0  0  0  0  0  0  0  0  0  # atno 10763 bound_to 10752
  153.1504  135.4620  154.9626 H   0  0  0  0  0  0  0  0  0  0  0  0  # atno 10764 bound_to 10752
  154.7882  135.3292  154.7784 H   0  0  0  0  0  0  0  0  0  0  0  0  # atno 10765 bound_to 10752
  140.9687  133.7122  156.1489 H   0  0  0  0  0  0  0  0  0  0  0  0  # atno 11005 bound_to 11000
  144.9233  139.4386  143.6530 LP  0  0  0  0  0  0  0  0  0  0  0  0  # atno 17320 bound_to 7965
  146.3208  139.8105  142.8947 LP  0  0  0  0  0  0  0  0  0  0  0  0  # atno 17321 bound_to 7965
  139.5828  144.1672  152.1990 LP  0  0  0  0  0  0  0  0  0  0  0  0  # atno 17342 bound_to 10162
  140.1002  144.5546  150.6994 LP  0  0  0  0  0  0  0  0  0  0  0  0  # atno 17343 bound_to 10162
  156.1474  130.6287  151.0550 LP  0  0  0  0  0  0  0  0  0  0  0  0  # atno 17370 bound_to 10713
  157.6825  131.0834  150.7333 LP  0  0  0  0  0  0  0  0  0  0  0  0  # atno 17371 bound_to 10713
  140.7360  134.4202  157.5560 LP  0  0  0  0  0  0  0  0  0  0  0  0  # atno 17394 bound_to 11000
  139.8904  134.8805  156.2371 LP  0  0  0  0  0  0  0  0  0  0  0  0  # atno 17395 bound_to 11000

$$$$
