AV-unprocessed.smi:77|AV-procd|sdf|774|dock5
  -GOLD-   2262017123D 1   1.00000     0.00000
 Structure written by MMmdl.
 57 61  0  0  0  0  0  0  0  0  1 V2000
  141.8816  137.8771  153.4592 O   0  0  0  0  0  0  0  0  0  0  0  0
  141.4333  136.7297  153.4368 C   0  0  0  0  0  0  0  0  0  0  0  0
  142.2801  135.5589  152.9203 C   0  0  0  0  0  0  0  0  0  0  0  0
  143.6603  135.9416  152.5949 N   0  0  0  0  0  0  0  0  0  0  0  0
  144.4927  136.2332  153.6349 C   0  0  0  0  0  0  0  0  0  0  0  0
  144.3319  135.5759  154.8157 N   0  0  0  0  0  0  0  0  0  0  0  0
  145.1246  135.8382  155.8578 C   0  0  0  0  0  0  0  0  0  0  0  0
  146.1278  136.7117  155.9416 N   0  0  0  0  0  0  0  0  0  0  0  0
  146.3014  137.3782  154.7656 C   0  0  0  0  0  0  0  0  0  0  0  0
  145.5418  137.1994  153.5728 C   0  0  0  0  0  0  0  0  0  0  0  0
  146.0330  138.0410  152.5806 N   0  0  0  0  0  0  0  0  0  0  0  0
  147.0143  138.6818  153.1521 C   0  0  0  0  0  0  0  0  0  0  0  0
  147.2276  138.3655  154.4740 N   0  0  0  0  0  0  0  0  0  0  0  0
  148.2506  138.9250  155.3413 C   0  0  0  0  0  0  0  0  0  0  0  0
  149.0326  140.1319  154.7494 C   0  0  1  0  0  0  0  0  0  0  0  0
  148.0750  141.3421  154.6256 C   0  0  0  0  0  0  0  0  0  0  0  0
  148.7822  142.5330  154.3464 O   0  0  0  0  0  0  0  0  0  0  0  0
  150.3099  140.5100  155.5590 C   0  0  1  0  0  0  0  0  0  0  0  0
  150.1328  140.6681  157.0628 C   0  0  0  0  0  0  0  0  0  0  0  0
  151.5542  140.5283  157.5947 C   0  0  0  0  0  0  0  0  0  0  0  0
  152.2263  139.6685  156.6853 O   0  0  0  0  0  0  0  0  0  0  0  0
  151.4075  139.4365  155.5458 C   0  0  0  0  0  0  0  0  0  0  0  0
  144.2421  135.3505  151.3900 C   0  0  0  0  0  0  0  0  0  0  0  0
  145.5561  134.6077  151.4918 C   0  0  0  0  0  0  0  0  0  0  0  0
  145.5008  135.9532  150.8091 C   0  0  0  0  0  0  0  0  0  0  0  0
  140.2008  136.4126  153.8579 N   0  0  0  0  0  0  0  0  0  0  0  0
  139.2429  137.3296  154.3853 C   0  0  0  0  0  0  0  0  0  0  0  0
  137.8613  137.3328  153.7675 C   0  0  0  0  0  0  0  0  0  0  0  0
  138.8025  138.4741  153.4985 C   0  0  0  0  0  0  0  0  0  0  0  0
  142.2527  134.7468  153.6484 H   0  0  0  0  0  0  0  0  0  0  0  0
  141.8011  135.1632  152.0232 H   0  0  0  0  0  0  0  0  0  0  0  0
  144.9250  135.2678  156.7527 H   0  0  0  0  0  0  0  0  0  0  0  0
  147.6030  139.4177  152.6241 H   0  0  0  0  0  0  0  0  0  0  0  0
  147.7485  139.2114  156.2656 H   0  0  0  0  0  0  0  0  0  0  0  0
  148.9490  138.1318  155.6104 H   0  0  0  0  0  0  0  0  0  0  0  0
  149.3509  139.8780  153.7379 H   0  0  0  0  0  0  0  0  0  0  0  0
  147.3323  141.1716  153.8455 H   0  0  0  0  0  0  0  0  0  0  0  0
  147.5300  141.5195  155.5514 H   0  0  0  0  0  0  0  0  0  0  0  0
  148.5821  143.1672  155.0178 H   0  0  0  0  0  0  0  0  0  0  0  0
  150.7290  141.4352  155.1602 H   0  0  0  0  0  0  0  0  0  0  0  0
  149.7006  141.6229  157.3564 H   0  0  0  0  0  0  0  0  0  0  0  0
  149.5045  139.8696  157.4601 H   0  0  0  0  0  0  0  0  0  0  0  0
  152.0586  141.4950  157.5932 H   0  0  0  0  0  0  0  0  0  0  0  0
  151.5801  140.1340  158.6107 H   0  0  0  0  0  0  0  0  0  0  0  0
  150.9724  138.4403  155.6384 H   0  0  0  0  0  0  0  0  0  0  0  0
  152.0075  139.4597  154.6359 H   0  0  0  0  0  0  0  0  0  0  0  0
  143.5279  134.9595  150.6673 H   0  0  0  0  0  0  0  0  0  0  0  0
  146.0391  134.5601  152.4659 H   0  0  0  0  0  0  0  0  0  0  0  0
  145.6829  133.7278  150.8648 H   0  0  0  0  0  0  0  0  0  0  0  0
  145.5946  135.9704  149.7252 H   0  0  0  0  0  0  0  0  0  0  0  0
  145.9580  136.7925  151.3286 H   0  0  0  0  0  0  0  0  0  0  0  0
  139.9193  135.4444  153.8040 H   0  0  0  0  0  0  0  0  0  0  0  0
  139.2874  137.5411  155.4528 H   0  0  0  0  0  0  0  0  0  0  0  0
  137.6663  136.6402  152.9508 H   0  0  0  0  0  0  0  0  0  0  0  0
  137.0169  137.5235  154.4269 H   0  0  0  0  0  0  0  0  0  0  0  0
  138.5880  139.4263  153.9794 H   0  0  0  0  0  0  0  0  0  0  0  0
  139.2368  138.5432  152.5030 H   0  0  0  0  0  0  0  0  0  0  0  0
  1  2  2  0  0  0  0
  2  3  1  0  0  0  0
  2 26  1  0  0  0  0
  3  4  1  0  0  0  0
  3 30  1  0  0  0  0
  3 31  1  0  0  0  0
  4  5  1  0  0  0  0
  4 23  1  0  0  0  0
  5 10  1  0  0  0  0
  5  6  2  0  0  0  0
  6  7  1  0  0  0  0
  7  8  2  0  0  0  0
  7 32  1  0  0  0  0
  8  9  1  0  0  0  0
  9 13  1  0  0  0  0
  9 10  2  0  0  0  0
 10 11  1  0  0  0  0
 11 12  2  0  0  0  0
 12 13  1  0  0  0  0
 12 33  1  0  0  0  0
 13 14  1  0  0  0  0
 14 15  1  0  0  0  0
 14 34  1  0  0  0  0
 14 35  1  0  0  0  0
 15 16  1  0  0  0  0
 15 18  1  0  0  0  0
 15 36  1  0  0  0  0
 16 17  1  0  0  0  0
 16 37  1  0  0  0  0
 16 38  1  0  0  0  0
 17 39  1  0  0  0  0
 18 22  1  0  0  0  0
 18 19  1  0  0  0  0
 18 40  1  0  0  0  0
 19 20  1  0  0  0  0
 19 41  1  0  0  0  0
 19 42  1  0  0  0  0
 20 21  1  0  0  0  0
 20 43  1  0  0  0  0
 20 44  1  0  0  0  0
 21 22  1  0  0  0  0
 22 45  1  0  0  0  0
 22 46  1  0  0  0  0
 23 25  1  0  0  0  0
 23 24  1  0  0  0  0
 23 47  1  0  0  0  0
 24 25  1  0  0  0  0
 24 48  1  0  0  0  0
 24 49  1  0  0  0  0
 25 50  1  0  0  0  0
 25 51  1  0  0  0  0
 26 27  1  0  0  0  0
 26 52  1  0  0  0  0
 27 29  1  0  0  0  0
 27 28  1  0  0  0  0
 27 53  1  0  0  0  0
 28 29  1  0  0  0  0
 28 54  1  0  0  0  0
 28 55  1  0  0  0  0
 29 56  1  0  0  0  0
 29 57  1  0  0  0  0
M  END
> <s_m_source_file>
AV-unprocessed.smi

> <i_m_source_file_index>
77

> <i_lp_mmshare_version>
43012

> <i_f3d_flags>
0

> <s_epik_input>
W0NIMl0xW0NIMl1bQ0hdMVtOSF1DKD1PKVtDSDJdTihbQ0hdMltDSDJdW0NIMl0yKWMobltjSF1uMyljKGMzNCluW2NIXW40W0NIMl1bQ0BIXShbQ0gyXVtPSF0pW0NAQEhdNVtDSDJdW0NIMl1PW0NIMl01

> <s_epik_cmdline>
J2VwaWtfcHl0aG9uJywgJy1waCcsICc3LjAnLCAnLXRuJywgJzgnLCAnLW1hJywgJzIwMCcsICctbWV0YWxfYmluZGluZycsICctaW1hZScsICc8aW5maWxlLm1hZT4nLCAnLW9tYWUnLCAnPG91dGZpbGUubWFlPic=

> <r_lp_tautomer_probability>
1

> <r_epik_Ionization_Penalty>
0.000703847

> <r_epik_Ionization_Penalty_Charging>
0

> <r_epik_Ionization_Penalty_Neutral>
0.000703847

> <r_epik_State_Penalty>
0.00034025

> <r_epik_Charging_Adjusted_Penalty>
0.00034025

> <i_epik_Tot_Q>
0

> <i_epik_Tot_abs_Q>
0

> <r_epik_Metal_State_Penalty>
-0

> <b_epik_Metal_Only>
0

> <s_lp_Force_Field>
OPLS_2005

> <r_lp_Energy>
54.3031

> <b_lp_Chiralities_Consistent>
1

> <s_lp_Variant>
AV-unprocessed.smi:77-4

> <Gold.Version>
5.8.1

> <Gold.Id.Protein>
6NUR|6NUR_protein|mol2

> <Gold.PLP.Fitness>
50.6153

> <Gold.PLP.PLP>
-43.2632

> <Gold.PLP.part.hbond>
-3.4348

> <Gold.PLP.part.metal>
0.0000

> <Gold.PLP.part.buried>
-6.5783

> <Gold.PLP.part.nonpolar>
-33.9704

> <Gold.PLP.part.repulsive>
0.6034

> <Gold.PLP.ligand.clash>
0.0000

> <Gold.PLP.ligand.torsion>
1.7603

> <Gold.PLP.Chemscore.Hbond>
2.0767

> <Gold.PLP.Chemscore.CHOScore>
1.0000

> <Gold.PLP.Chemscore.Metal>
0.0000

> <Gold.Chemscore.Hbonds>
donor molecule, donor type, donor heavy atom, donor atom, acceptor molecule, acceptor atom, score
      L1  H    17    39       P1  8028  0.94
      P1  H  7997  8009       L1    21  0.65
      P1  H  8011  8017       L1    17  0.05
      L1  C    12    33       P1  7957  0.97

> <Gold.PLP.Chemscore.Internal.Correction>
1.6427

> <Gold.Rescore>
     Score         DG    S(hbond)    S(metal)    S(lipo)     H(rot)  DE(clash)    DE(int)     intcor
     10.20     -13.76       1.98        0.00      90.17       3.47       0.42       3.14       ----

> <Gold.Chemscore.Fitness>
10.2016

> <Gold.Chemscore.DG>
-13.7649

> <Gold.Chemscore.ZeroCoef>
-5.4800

> <Gold.Chemscore.Hbond>
1.9810

> <Gold.Chemscore.Metal>
0.0000

> <Gold.Chemscore.Lipo>
90.1729

> <Gold.Chemscore.Internal_Hbond>
0.0000

> <Gold.Chemscore.DEClash>
0.4186

> <Gold.Chemscore.DEInternal>
3.1447

> <Gold.Chemscore.Rot>
3.4695

> <Gold.Chemscore.Internal.Correction>
   9.000000E+99

> <Gold.Chemscore.Hbonds>
donor molecule, donor type, donor heavy atom, donor atom, acceptor molecule, acceptor atom, score
      L1  H    17    39       P1  8028  0.91
      P1  H  7997  8009       L1    21  0.57
      P1  H  8011  8017       L1    17  0.05

> <Gold.Chemscore.Hbond.Weighted>
-6.6166

> <Gold.Chemscore.Metal.Weighted>
-0.0000

> <Gold.Chemscore.Lipo.Weighted>
-10.5502

> <Gold.Chemscore.Internal_Hbond.Weighted>
0.0000

> <Gold.Chemscore.DEClash.Weighted>
0.4186

> <Gold.Chemscore.DEInternal.Weighted>
3.1447

> <Gold.Chemscore.Rot.Weighted>
8.8820

> <Gold.Chemscore.Internal.Correction.Weighted>
   9.000000E+99

> <Gold.Protein.RotatedTorsions>
[ 6907 6896 6895 6894 ] final  -75.52 input  -60.11 | X-H torsion
[ 7974 7965 7964 7962 ] final  -20.30 input  175.53 | X-H torsion
[ 8008 7997 7996 7995 ] final -164.97 input   59.86 | X-H torsion
[ 10167 10162 10161 10158 ] final  140.62 input  -65.29 | X-H torsion
[ 10718 10713 10712 10709 ] final    4.72 input   66.30 | X-H torsion
[ 10763 10752 10751 10750 ] final   19.87 input  -60.55 | X-H torsion
[ 11005 11000 10999 10996 ] final -118.75 input  -57.11 | X-H torsion

> <Gold.Protein.ActiveResidues>
 VAL166  LYS551  ARG553  GLY616  TRP617  ASP618  TYR619  PRO620  LYS621  CYS622 
 ASP623  PHE694  ASN695  SER759  ASP760  ASP761  ALA762  ILE779  LEU786  VAL792 
 PHE793  MET794  SER795  GLU796  ALA797  LYS798  CYS799  TRP800  GLU811  SER814 

> <Gold.Protein.RotatedAtoms>
  150.7056  134.4709  159.5424 H   0  0  0  0  0  0  0  0  0  0  0  0  # atno 6907 bound_to 6896
  152.2365  134.8268  160.0475 H   0  0  0  0  0  0  0  0  0  0  0  0  # atno 6908 bound_to 6896
  151.9065  133.3515  159.3885 H   0  0  0  0  0  0  0  0  0  0  0  0  # atno 6909 bound_to 6896
  146.1795  140.4183  142.8500 H   0  0  0  0  0  0  0  0  0  0  0  0  # atno 7974 bound_to 7965
  155.8432  140.0951  157.1721 H   0  0  0  0  0  0  0  0  0  0  0  0  # atno 8008 bound_to 7997
  154.3982  140.1397  156.3816 H   0  0  0  0  0  0  0  0  0  0  0  0  # atno 8009 bound_to 7997
  155.8041  140.3452  155.5422 H   0  0  0  0  0  0  0  0  0  0  0  0  # atno 8010 bound_to 7997
  139.5043  144.6223  151.6022 H   0  0  0  0  0  0  0  0  0  0  0  0  # atno 10167 bound_to 10162
  156.8968  130.5707  149.5648 H   0  0  0  0  0  0  0  0  0  0  0  0  # atno 10718 bound_to 10713
  153.1125  135.6700  153.9476 H   0  0  0  0  0  0  0  0  0  0  0  0  # atno 10763 bound_to 10752
  153.9015  135.3035  155.3450 H   0  0  0  0  0  0  0  0  0  0  0  0  # atno 10764 bound_to 10752
  154.7544  135.5019  153.9424 H   0  0  0  0  0  0  0  0  0  0  0  0  # atno 10765 bound_to 10752
  141.0264  134.0047  157.3208 H   0  0  0  0  0  0  0  0  0  0  0  0  # atno 11005 bound_to 11000
  144.8292  140.6679  143.6302 LP  0  0  0  0  0  0  0  0  0  0  0  0  # atno 17320 bound_to 7965
  145.4115  139.1579  143.4123 LP  0  0  0  0  0  0  0  0  0  0  0  0  # atno 17321 bound_to 7965
  140.5929  143.9748  150.6336 LP  0  0  0  0  0  0  0  0  0  0  0  0  # atno 17342 bound_to 10162
  140.2934  143.3309  152.1040 LP  0  0  0  0  0  0  0  0  0  0  0  0  # atno 17343 bound_to 10162
  156.0602  130.5656  150.9176 LP  0  0  0  0  0  0  0  0  0  0  0  0  # atno 17370 bound_to 10713
  157.6050  131.0939  150.8894 LP  0  0  0  0  0  0  0  0  0  0  0  0  # atno 17371 bound_to 10713
  139.9179  135.0198  156.7951 LP  0  0  0  0  0  0  0  0  0  0  0  0  # atno 17394 bound_to 11000
  140.6483  133.9754  155.7742 LP  0  0  0  0  0  0  0  0  0  0  0  0  # atno 17395 bound_to 11000

$$$$
