AV-unprocessed.smi:2066|AV-procd|sdf|8422|dock4
  -GOLD-   2272011113D 1   1.00000     0.00000
 Structure written by MMmdl.
 39 40  0  0  0  0  0  0  0  0  3 V2000
  149.5372  138.7621  154.7742 C   0  0  0  0  0  0  0  0  0  0  0  0
  150.3966  137.5180  155.1125 C   0  0  0  0  0  0  0  0  0  0  0  0
  151.6947  137.6568  154.2776 C   0  0  0  0  0  0  0  0  0  0  0  0
  150.7507  137.4882  156.6304 C   0  0  0  0  0  0  0  0  0  0  0  0
  149.5778  137.5498  157.5017 N   0  0  0  0  0  0  0  0  0  0  0  0
  149.2100  136.6337  158.4091 C   0  0  0  0  0  0  0  0  0  0  0  0
  149.8943  135.6219  158.5771 O   0  0  0  0  0  0  0  0  0  0  0  0
  148.0642  136.9428  159.0560 N   0  5  0  0  0  0  0  0  0  0  0  0
  147.7924  136.3781  160.2439 C   0  0  0  0  0  0  0  0  0  0  0  0
  147.5266  137.0873  161.3468 N   0  0  0  0  0  0  0  0  0  0  0  0
  147.2712  136.2951  162.4675 C   0  0  0  0  0  0  0  0  0  0  0  0
  147.3336  134.9513  162.2093 C   0  0  0  0  0  0  0  0  0  0  0  0
  147.7187  134.6389  160.5410 S   0  0  0  0  0  0  0  0  0  0  0  0
  149.6503  136.2750  154.7004 N   0  3  0  0  0  0  0  0  0  0  0  0
  150.3577  134.9834  154.9293 C   0  0  0  0  0  0  0  0  0  0  0  0
  149.5762  133.8200  154.2962 C   0  0  0  0  0  0  0  0  0  0  0  0
  148.2612  133.7752  154.8315 O   0  0  0  0  0  0  0  0  0  0  0  0
  147.5388  134.9650  154.5481 C   0  0  0  0  0  0  0  0  0  0  0  0
  148.2477  136.1668  155.1936 C   0  0  0  0  0  0  0  0  0  0  0  0
  150.1125  139.6851  154.8544 H   0  0  0  0  0  0  0  0  0  0  0  0
  148.6883  138.8763  155.4477 H   0  0  0  0  0  0  0  0  0  0  0  0
  149.1541  138.7165  153.7542 H   0  0  0  0  0  0  0  0  0  0  0  0
  152.1537  138.6379  154.4057 H   0  0  0  0  0  0  0  0  0  0  0  0
  151.4977  137.5334  153.2120 H   0  0  0  0  0  0  0  0  0  0  0  0
  152.4535  136.9303  154.5672 H   0  0  0  0  0  0  0  0  0  0  0  0
  151.3447  136.6095  156.8815 H   0  0  0  0  0  0  0  0  0  0  0  0
  151.3683  138.3466  156.8918 H   0  0  0  0  0  0  0  0  0  0  0  0
  148.9846  138.3610  157.4062 H   0  0  0  0  0  0  0  0  0  0  0  0
  147.0521  136.7727  163.4108 H   0  0  0  0  0  0  0  0  0  0  0  0
  147.1770  134.1310  162.8932 H   0  0  0  0  0  0  0  0  0  0  0  0
  151.3531  134.9866  154.4901 H   0  0  0  0  0  0  0  0  0  0  0  0
  150.4768  134.8018  155.9976 H   0  0  0  0  0  0  0  0  0  0  0  0
  149.5374  133.9217  153.2103 H   0  0  0  0  0  0  0  0  0  0  0  0
  150.0749  132.8742  154.5084 H   0  0  0  0  0  0  0  0  0  0  0  0
  147.4417  135.1015  153.4699 H   0  0  0  0  0  0  0  0  0  0  0  0
  146.5296  134.8663  154.9481 H   0  0  0  0  0  0  0  0  0  0  0  0
  148.2343  136.0474  156.2771 H   0  0  0  0  0  0  0  0  0  0  0  0
  147.6704  137.0596  154.9619 H   0  0  0  0  0  0  0  0  0  0  0  0
  149.5699  136.3543  153.6969 H   0  0  0  0  0  0  0  0  0  0  0  0
  1  2  1  0  0  0  0
  1 20  1  0  0  0  0
  1 21  1  0  0  0  0
  1 22  1  0  0  0  0
  2  3  1  0  0  0  0
  2  4  1  0  0  0  0
  2 14  1  0  0  0  0
  3 23  1  0  0  0  0
  3 24  1  0  0  0  0
  3 25  1  0  0  0  0
  4  5  1  0  0  0  0
  4 26  1  0  0  0  0
  4 27  1  0  0  0  0
  5  6  1  0  0  0  0
  5 28  1  0  0  0  0
  6  7  2  0  0  0  0
  6  8  1  0  0  0  0
  8  9  1  0  0  0  0
  9 13  1  0  0  0  0
  9 10  2  0  0  0  0
 10 11  1  0  0  0  0
 11 12  2  0  0  0  0
 11 29  1  0  0  0  0
 12 13  1  0  0  0  0
 12 30  1  0  0  0  0
 14 19  1  0  0  0  0
 14 15  1  0  0  0  0
 14 39  1  0  0  0  0
 15 16  1  0  0  0  0
 15 31  1  0  0  0  0
 15 32  1  0  0  0  0
 16 17  1  0  0  0  0
 16 33  1  0  0  0  0
 16 34  1  0  0  0  0
 17 18  1  0  0  0  0
 18 19  1  0  0  0  0
 18 35  1  0  0  0  0
 18 36  1  0  0  0  0
 19 37  1  0  0  0  0
 19 38  1  0  0  0  0
M  CHG  1   8  -1
M  CHG  1  14   1
M  END
> <s_m_source_file>
AV-unprocessed.smi

> <i_m_source_file_index>
2066

> <i_lp_mmshare_version>
43012

> <i_f3d_flags>
0

> <s_epik_input>
W0NIMl0xW0NIMl1PW0NIMl1bQ0gyXU4xQyhbQ0gzXSkoW0NIM10pW0NIMl1bTkhdQyg9TylbTkhdYzJuW2NIXVtjSF1zMg==

> <s_epik_cmdline>
J2VwaWtfcHl0aG9uJywgJy1waCcsICc3LjAnLCAnLXRuJywgJzgnLCAnLW1hJywgJzIwMCcsICctbWV0YWxfYmluZGluZycsICctaW1hZScsICc8aW5maWxlLm1hZT4nLCAnLW9tYWUnLCAnPG91dGZpbGUubWFlPic=

> <r_lp_tautomer_probability>
0.999

> <r_epik_Ionization_Penalty>
6.71078

> <r_epik_Ionization_Penalty_Charging>
5.8797

> <r_epik_Ionization_Penalty_Neutral>
0.831074

> <r_epik_State_Penalty>
6.07743

> <r_epik_Charging_Adjusted_Penalty>
11.9571

> <i_epik_Tot_Q>
0

> <i_epik_Tot_abs_Q>
2

> <r_epik_Metal_State_Penalty>
2.08929

> <b_epik_Metal_Only>
1

> <s_lp_Force_Field>
OPLS_2005

> <r_lp_Energy>
15.1529

> <b_lp_Chiralities_Consistent>
1

> <s_lp_Variant>
AV-unprocessed.smi:2066-4

> <Gold.Version>
5.8.1

> <Gold.Id.Protein>
6NUR|6NUR_protein|mol2

> <Gold.PLP.Fitness>
43.5882

> <Gold.PLP.PLP>
-30.4313

> <Gold.PLP.part.hbond>
-4.0000

> <Gold.PLP.part.metal>
0.0000

> <Gold.PLP.part.buried>
-4.7391

> <Gold.PLP.part.nonpolar>
-22.3667

> <Gold.PLP.part.repulsive>
0.1274

> <Gold.PLP.ligand.clash>
0.0000

> <Gold.PLP.ligand.torsion>
0.7439

> <Gold.PLP.Chemscore.Hbond>
4.8240

> <Gold.PLP.Chemscore.CHOScore>
0.0000

> <Gold.PLP.Chemscore.Metal>
0.0000

> <Gold.Chemscore.Hbonds>
donor molecule, donor type, donor heavy atom, donor atom, acceptor molecule, acceptor atom, score
      L1  H    14    39       P1  7948  2.00
      P1  H  6896  6907       L1     7  1.00
      P1  H  6931  6943       L1    10  0.98
      P1  H  6934  6947       L1    10  0.91

> <Gold.PLP.Chemscore.Internal.Correction>
0.1729

> <Gold.Rescore>
     Score         DG    S(hbond)    S(metal)    S(lipo)     H(rot)  DE(clash)    DE(int)     intcor
     16.92     -17.91       2.80        0.00      61.06       1.59       0.00       0.98       ----

> <Gold.Chemscore.Fitness>
16.9221

> <Gold.Chemscore.DG>
-17.9078

> <Gold.Chemscore.ZeroCoef>
-5.4800

> <Gold.Chemscore.Hbond>
2.8027

> <Gold.Chemscore.Metal>
0.0000

> <Gold.Chemscore.Lipo>
61.0598

> <Gold.Chemscore.Internal_Hbond>
0.0000

> <Gold.Chemscore.DEClash>
0.0048

> <Gold.Chemscore.DEInternal>
0.9809

> <Gold.Chemscore.Rot>
1.5926

> <Gold.Chemscore.Internal.Correction>
   9.000000E+99

> <Gold.Chemscore.Hbonds>
donor molecule, donor type, donor heavy atom, donor atom, acceptor molecule, acceptor atom, score
      L1  H    14    39       P1  7948  0.60
      P1  H  6896  6907       L1     7  0.96
      P1  H  6931  6943       L1    10  0.35
      P1  H  6934  6947       L1    10  0.69

> <Gold.Chemscore.Hbond.Weighted>
-9.3609

> <Gold.Chemscore.Metal.Weighted>
-0.0000

> <Gold.Chemscore.Lipo.Weighted>
-7.1440

> <Gold.Chemscore.Internal_Hbond.Weighted>
0.0000

> <Gold.Chemscore.DEClash.Weighted>
0.0048

> <Gold.Chemscore.DEInternal.Weighted>
0.9809

> <Gold.Chemscore.Rot.Weighted>
4.0770

> <Gold.Chemscore.Internal.Correction.Weighted>
   9.000000E+99

> <Gold.Protein.RotatedTorsions>
[ 6907 6896 6895 6894 ] final  -50.16 input  -60.11 | X-H torsion
[ 7974 7965 7964 7962 ] final  164.04 input  175.53 | X-H torsion
[ 8008 7997 7996 7995 ] final   81.44 input   59.86 | X-H torsion
[ 10167 10162 10161 10158 ] final   95.58 input  -65.29 | X-H torsion
[ 10718 10713 10712 10709 ] final  178.84 input   66.30 | X-H torsion
[ 10763 10752 10751 10750 ] final  140.70 input  -60.55 | X-H torsion
[ 11005 11000 10999 10996 ] final -101.58 input  -57.11 | X-H torsion

> <Gold.Protein.ActiveResidues>
 VAL166  LYS551  ARG553  GLY616  TRP617  ASP618  TYR619  PRO620  LYS621  CYS622 
 ASP623  PHE694  ASN695  SER759  ASP760  ASP761  ALA762  ILE779  LEU786  VAL792 
 PHE793  MET794  SER795  GLU796  ALA797  LYS798  CYS799  TRP800  GLU811  SER814 

> <Gold.Protein.RotatedAtoms>
  150.8734  134.8112  159.7171 H   0  0  0  0  0  0  0  0  0  0  0  0  # atno 6907 bound_to 6896
  152.4730  134.4911  159.9705 H   0  0  0  0  0  0  0  0  0  0  0  0  # atno 6908 bound_to 6896
  151.4996  133.3469  159.2902 H   0  0  0  0  0  0  0  0  0  0  0  0  # atno 6909 bound_to 6896
  144.7563  139.8268  143.6349 H   0  0  0  0  0  0  0  0  0  0  0  0  # atno 7974 bound_to 7965
  155.8971  140.3435  155.5999 H   0  0  0  0  0  0  0  0  0  0  0  0  # atno 8008 bound_to 7997
  155.7543  140.0824  157.2205 H   0  0  0  0  0  0  0  0  0  0  0  0  # atno 8009 bound_to 7997
  154.4039  140.1547  156.2747 H   0  0  0  0  0  0  0  0  0  0  0  0  # atno 8010 bound_to 7997
  139.7975  144.6827  150.9809 H   0  0  0  0  0  0  0  0  0  0  0  0  # atno 10167 bound_to 10162
  156.8846  130.9827  151.3057 H   0  0  0  0  0  0  0  0  0  0  0  0  # atno 10718 bound_to 10713
  153.9271  135.2994  155.3446 H   0  0  0  0  0  0  0  0  0  0  0  0  # atno 10763 bound_to 10752
  154.7546  135.4964  153.9354 H   0  0  0  0  0  0  0  0  0  0  0  0  # atno 10764 bound_to 10752
  153.1111  135.6759  153.9603 H   0  0  0  0  0  0  0  0  0  0  0  0  # atno 10765 bound_to 10752
  141.1225  133.8489  157.1249 H   0  0  0  0  0  0  0  0  0  0  0  0  # atno 11005 bound_to 11000
  146.1576  139.4679  143.0009 LP  0  0  0  0  0  0  0  0  0  0  0  0  # atno 17320 bound_to 7965
  145.6769  141.0201  143.1627 LP  0  0  0  0  0  0  0  0  0  0  0  0  # atno 17321 bound_to 7965
  140.7820  143.4316  151.0686 LP  0  0  0  0  0  0  0  0  0  0  0  0  # atno 17342 bound_to 10162
  139.7989  143.8111  152.3161 LP  0  0  0  0  0  0  0  0  0  0  0  0  # atno 17343 bound_to 10162
  157.6120  130.8590  149.8967 LP  0  0  0  0  0  0  0  0  0  0  0  0  # atno 17370 bound_to 10713
  156.0660  130.3692  150.0878 LP  0  0  0  0  0  0  0  0  0  0  0  0  # atno 17371 bound_to 10713
  140.0194  134.9952  157.0561 LP  0  0  0  0  0  0  0  0  0  0  0  0  # atno 17394 bound_to 11000
  140.4465  134.1627  155.7178 LP  0  0  0  0  0  0  0  0  0  0  0  0  # atno 17395 bound_to 11000

$$$$
