AV-unprocessed.smi:658|AV-procd|sdf|3235|dock8
  -GOLD-   22720 0183D 1   1.00000     0.00000
 Structure written by MMmdl.
 37 37  0  0  0  0  0  0  0  0  3 V2000
  147.2064  132.3435  152.2371 C   0  0  0  0  0  0  0  0  0  0  0  0
  146.6248  133.4591  153.1242 C   0  0  1  0  0  0  0  0  0  0  0  0
  147.7382  134.2542  153.6871 N   0  3  0  0  0  0  0  0  0  0  0  0
  148.8412  133.4586  154.2630 C   0  0  0  0  0  0  0  0  0  0  0  0
  149.9104  134.3666  154.8802 C   0  0  0  0  0  0  0  0  0  0  0  0
  149.3140  135.4210  155.8270 C   0  0  0  0  0  0  0  0  0  0  0  0
  150.6144  136.2463  156.8401 S   0  0  0  0  0  0  0  0  0  0  0  0
  150.0725  135.9443  158.3294 N   0  5  0  0  0  0  0  0  0  0  0  0
  151.8745  135.5455  156.5483 O   0  0  0  0  0  0  0  0  0  0  0  0
  150.5311  137.6755  156.5054 O   0  0  0  0  0  0  0  0  0  0  0  0
  145.6321  134.3835  152.3693 C   0  0  2  0  0  0  0  0  0  0  0  0
  144.6178  135.0642  153.3088 C   0  0  0  0  0  0  0  0  0  0  0  0
  144.9293  133.6766  151.3062 N   0  0  0  0  0  0  0  0  0  0  0  0
  145.0155  133.8752  149.9432 C   0  0  0  0  0  0  0  0  0  0  0  0
  144.1774  132.9780  149.3457 C   0  0  0  0  0  0  0  0  0  0  0  0
  143.6093  132.2660  150.4385 C   0  0  0  0  0  0  0  0  0  0  0  0
  144.0597  132.6863  151.6094 N   0  0  0  0  0  0  0  0  0  0  0  0
  146.4322  131.6648  151.8787 H   0  0  0  0  0  0  0  0  0  0  0  0
  147.9262  131.7394  152.7904 H   0  0  0  0  0  0  0  0  0  0  0  0
  147.7172  132.7559  151.3663 H   0  0  0  0  0  0  0  0  0  0  0  0
  146.0887  132.9714  153.9406 H   0  0  0  0  0  0  0  0  0  0  0  0
  148.1179  134.8420  152.9590 H   0  0  0  0  0  0  0  0  0  0  0  0
  148.4540  132.7732  155.0185 H   0  0  0  0  0  0  0  0  0  0  0  0
  149.2833  132.8499  153.4732 H   0  0  0  0  0  0  0  0  0  0  0  0
  150.6155  133.7488  155.4371 H   0  0  0  0  0  0  0  0  0  0  0  0
  150.4859  134.8484  154.0889 H   0  0  0  0  0  0  0  0  0  0  0  0
  148.8133  136.2019  155.2553 H   0  0  0  0  0  0  0  0  0  0  0  0
  148.5765  134.9887  156.5038 H   0  0  0  0  0  0  0  0  0  0  0  0
  149.7953  136.8362  158.7564 H   0  0  0  0  0  0  0  0  0  0  0  0
  146.2112  135.1728  151.8870 H   0  0  0  0  0  0  0  0  0  0  0  0
  145.1122  135.7166  154.0286 H   0  0  0  0  0  0  0  0  0  0  0  0
  144.0376  134.3314  153.8706 H   0  0  0  0  0  0  0  0  0  0  0  0
  143.9163  135.6805  152.7452 H   0  0  0  0  0  0  0  0  0  0  0  0
  145.6598  134.6286  149.5145 H   0  0  0  0  0  0  0  0  0  0  0  0
  143.9963  132.8501  148.2888 H   0  0  0  0  0  0  0  0  0  0  0  0
  142.8886  131.4620  150.4161 H   0  0  0  0  0  0  0  0  0  0  0  0
  147.3658  134.8484  154.4141 H   0  0  0  0  0  0  0  0  0  0  0  0
  1  2  1  0  0  0  0
  1 18  1  0  0  0  0
  1 19  1  0  0  0  0
  1 20  1  0  0  0  0
  2  3  1  0  0  0  0
  2 11  1  0  0  0  0
  2 21  1  0  0  0  0
  3  4  1  0  0  0  0
  3 22  1  0  0  0  0
  3 37  1  0  0  0  0
  4  5  1  0  0  0  0
  4 23  1  0  0  0  0
  4 24  1  0  0  0  0
  5  6  1  0  0  0  0
  5 25  1  0  0  0  0
  5 26  1  0  0  0  0
  6  7  1  0  0  0  0
  6 27  1  0  0  0  0
  6 28  1  0  0  0  0
  7  8  1  0  0  0  0
  7  9  2  0  0  0  0
  7 10  2  0  0  0  0
  8 29  1  0  0  0  0
 11 12  1  0  0  0  0
 11 13  1  0  0  0  0
 11 30  1  0  0  0  0
 12 31  1  0  0  0  0
 12 32  1  0  0  0  0
 12 33  1  0  0  0  0
 13 17  1  0  0  0  0
 13 14  1  0  0  0  0
 14 15  2  0  0  0  0
 14 34  1  0  0  0  0
 15 16  1  0  0  0  0
 15 35  1  0  0  0  0
 16 17  2  0  0  0  0
 16 36  1  0  0  0  0
M  CHG  1   3   1
M  CHG  1   8  -1
M  END
> <s_m_source_file>
AV-unprocessed.smi

> <i_m_source_file_index>
658

> <i_lp_mmshare_version>
43012

> <i_f3d_flags>
0

> <s_epik_input>
bjFbY0hdW2NIXVtjSF1uMVtDQEBIXShbQ0gzXSlbQ0BIXShbQ0gzXSlbTkhdW0NIMl1bQ0gyXVtDSDJdUyg9TykoPU8pW05IMl0=

> <s_epik_cmdline>
J2VwaWtfcHl0aG9uJywgJy1waCcsICc3LjAnLCAnLXRuJywgJzgnLCAnLW1hJywgJzIwMCcsICctbWV0YWxfYmluZGluZycsICctaW1hZScsICc8aW5maWxlLm1hZT4nLCAnLW9tYWUnLCAnPG91dGZpbGUubWFlPic=

> <r_lp_tautomer_probability>
1

> <r_epik_Ionization_Penalty>
4.63642

> <r_epik_Ionization_Penalty_Charging>
4.63641

> <r_epik_Ionization_Penalty_Neutral>
1.08396e-05

> <r_epik_State_Penalty>
4.63466

> <r_epik_Charging_Adjusted_Penalty>
9.27106

> <i_epik_Tot_Q>
0

> <i_epik_Tot_abs_Q>
2

> <r_epik_Metal_State_Penalty>
0.890424

> <b_epik_Metal_Only>
1

> <s_lp_Force_Field>
OPLS_2005

> <r_lp_Energy>
-2.21025

> <b_lp_Chiralities_Consistent>
1

> <s_lp_Variant>
AV-unprocessed.smi:658-6

> <Gold.Version>
5.8.1

> <Gold.Id.Protein>
6NUR|6NUR_protein|mol2

> <Gold.PLP.Fitness>
43.2387

> <Gold.PLP.PLP>
-23.6962

> <Gold.PLP.part.hbond>
-3.0000

> <Gold.PLP.part.metal>
0.0000

> <Gold.PLP.part.buried>
-1.2492

> <Gold.PLP.part.nonpolar>
-19.9584

> <Gold.PLP.part.repulsive>
0.1862

> <Gold.PLP.ligand.clash>
0.0000

> <Gold.PLP.ligand.torsion>
0.7943

> <Gold.PLP.Chemscore.Hbond>
4.9840

> <Gold.PLP.Chemscore.CHOScore>
1.9979

> <Gold.PLP.Chemscore.Metal>
0.0000

> <Gold.Chemscore.Hbonds>
donor molecule, donor type, donor heavy atom, donor atom, acceptor molecule, acceptor atom, score
      L1  H     3    22       P1  7948  2.00
      P1  H  6896  6907       L1     8  1.98
      P1  H 10752 10765       L1     9  1.00
      L1  C    14    34       P1  7921  0.74
      L1  C    16    36       P1 10952  1.00

> <Gold.PLP.Chemscore.Internal.Correction>
0.1853

> <Gold.Rescore>
     Score         DG    S(hbond)    S(metal)    S(lipo)     H(rot)  DE(clash)    DE(int)     intcor
     12.92     -13.65       2.80        0.00      56.31       3.04       0.12       0.61       ----

> <Gold.Chemscore.Fitness>
12.9189

> <Gold.Chemscore.DG>
-13.6494

> <Gold.Chemscore.ZeroCoef>
-5.4800

> <Gold.Chemscore.Hbond>
2.8041

> <Gold.Chemscore.Metal>
0.0000

> <Gold.Chemscore.Lipo>
56.3130

> <Gold.Chemscore.Internal_Hbond>
0.0000

> <Gold.Chemscore.DEClash>
0.1239

> <Gold.Chemscore.DEInternal>
0.6066

> <Gold.Chemscore.Rot>
3.0409

> <Gold.Chemscore.Internal.Correction>
   9.000000E+99

> <Gold.Chemscore.Hbonds>
donor molecule, donor type, donor heavy atom, donor atom, acceptor molecule, acceptor atom, score
      L1  H     3    22       P1  7948  0.85
      P1  H  6896  6907       L1     8  0.70
      P1  H 10752 10765       L1     9  0.99

> <Gold.Chemscore.Hbond.Weighted>
-9.3656

> <Gold.Chemscore.Metal.Weighted>
-0.0000

> <Gold.Chemscore.Lipo.Weighted>
-6.5886

> <Gold.Chemscore.Internal_Hbond.Weighted>
0.0000

> <Gold.Chemscore.DEClash.Weighted>
0.1239

> <Gold.Chemscore.DEInternal.Weighted>
0.6066

> <Gold.Chemscore.Rot.Weighted>
7.7848

> <Gold.Chemscore.Internal.Correction.Weighted>
   9.000000E+99

> <Gold.Protein.RotatedTorsions>
[ 6907 6896 6895 6894 ] final  -54.64 input  -60.11 | X-H torsion
[ 7974 7965 7964 7962 ] final  -46.57 input  175.53 | X-H torsion
[ 8008 7997 7996 7995 ] final   47.12 input   59.86 | X-H torsion
[ 10167 10162 10161 10158 ] final   55.41 input  -65.29 | X-H torsion
[ 10718 10713 10712 10709 ] final   79.60 input   66.30 | X-H torsion
[ 10763 10752 10751 10750 ] final -139.21 input  -60.55 | X-H torsion
[ 11005 11000 10999 10996 ] final    8.06 input  -57.11 | X-H torsion

> <Gold.Protein.ActiveResidues>
 VAL166  LYS551  ARG553  GLY616  TRP617  ASP618  TYR619  PRO620  LYS621  CYS622 
 ASP623  PHE694  ASN695  SER759  ASP760  ASP761  ALA762  ILE779  LEU786  VAL792 
 PHE793  MET794  SER795  GLU796  ALA797  LYS798  CYS799  TRP800  GLU811  SER814 

> <Gold.Protein.RotatedAtoms>
  150.8320  134.7577  159.6861 H   0  0  0  0  0  0  0  0  0  0  0  0  # atno 6907 bound_to 6896
  152.4423  134.5563  159.9891 H   0  0  0  0  0  0  0  0  0  0  0  0  # atno 6908 bound_to 6896
  151.5721  133.3351  159.3027 H   0  0  0  0  0  0  0  0  0  0  0  0  # atno 6909 bound_to 6896
  145.9705  140.7388  142.9412 H   0  0  0  0  0  0  0  0  0  0  0  0  # atno 7974 bound_to 7965
  155.3639  140.3420  155.4241 H   0  0  0  0  0  0  0  0  0  0  0  0  # atno 8008 bound_to 7997
  156.1699  140.1628  156.8500 H   0  0  0  0  0  0  0  0  0  0  0  0  # atno 8009 bound_to 7997
  154.5222  140.0764  156.8176 H   0  0  0  0  0  0  0  0  0  0  0  0  # atno 8010 bound_to 7997
  140.2197  144.3802  150.6455 H   0  0  0  0  0  0  0  0  0  0  0  0  # atno 10167 bound_to 10162
  157.6781  130.9921  150.1956 H   0  0  0  0  0  0  0  0  0  0  0  0  # atno 10718 bound_to 10713
  154.8616  135.3589  154.5509 H   0  0  0  0  0  0  0  0  0  0  0  0  # atno 10763 bound_to 10752
  153.6127  135.7009  153.5345 H   0  0  0  0  0  0  0  0  0  0  0  0  # atno 10764 bound_to 10752
  153.3195  135.4155  155.1365 H   0  0  0  0  0  0  0  0  0  0  0  0  # atno 10765 bound_to 10752
  140.5412  134.0372  155.7905 H   0  0  0  0  0  0  0  0  0  0  0  0  # atno 11005 bound_to 11000
  144.6836  140.2741  143.7301 LP  0  0  0  0  0  0  0  0  0  0  0  0  # atno 17320 bound_to 7965
  145.7912  139.1928  143.2101 LP  0  0  0  0  0  0  0  0  0  0  0  0  # atno 17321 bound_to 7965
  140.6264  143.2182  151.6588 LP  0  0  0  0  0  0  0  0  0  0  0  0  # atno 17342 bound_to 10162
  139.5149  144.3396  152.0752 LP  0  0  0  0  0  0  0  0  0  0  0  0  # atno 17343 bound_to 10162
  156.2658  130.3716  149.8083 LP  0  0  0  0  0  0  0  0  0  0  0  0  # atno 17370 bound_to 10713
  156.5814  130.8467  151.3384 LP  0  0  0  0  0  0  0  0  0  0  0  0  # atno 17371 bound_to 10713
  141.1226  133.9436  157.2699 LP  0  0  0  0  0  0  0  0  0  0  0  0  # atno 17394 bound_to 11000
  139.9503  135.0176  156.8974 LP  0  0  0  0  0  0  0  0  0  0  0  0  # atno 17395 bound_to 11000

$$$$
