AV-unprocessed.smi:2551|AV-procd|sdf|10014|dock1
  -GOLD-   2272014 53D 1   1.00000     0.00000
 Structure written by MMmdl.
 25 26  0  0  0  0  0  0  0  0  2 V2000
  151.6558  141.2941  157.1438 O   0  0  0  0  0  0  0  0  0  0  0  0
  150.9355  142.1935  156.7126 C   0  0  0  0  0  0  0  0  0  0  0  0
  149.9376  141.9817  155.8142 N   0  5  0  0  0  0  0  0  0  0  0  0
  149.7504  140.7973  155.2030 C   0  0  0  0  0  0  0  0  0  0  0  0
  150.7662  139.9693  154.9109 N   0  0  0  0  0  0  0  0  0  0  0  0
  150.3558  138.8031  154.2796 N   0  0  0  0  0  0  0  0  0  0  0  0
  149.0329  138.7764  154.1206 C   0  0  0  0  0  0  0  0  0  0  0  0
  148.1689  140.1741  154.7252 S   0  0  0  0  0  0  0  0  0  0  0  0
  151.1383  143.4539  157.1442 N   0  0  0  0  0  0  0  0  0  0  0  0
  152.1512  143.8844  158.1046 C   0  0  0  0  0  0  0  0  0  0  0  0
  152.1619  142.9579  159.3356 C   0  0  0  0  0  0  0  0  0  0  0  0
  152.1498  143.8772  160.5579 C   0  0  0  0  0  0  0  0  0  0  0  0
  151.4033  145.1205  160.0860 C   0  0  0  0  0  0  0  0  0  0  0  0
  151.8570  145.3010  158.6373 C   0  0  0  0  0  0  0  0  0  0  0  0
  148.5628  137.9282  153.6456 H   0  0  0  0  0  0  0  0  0  0  0  0
  150.5387  144.1733  156.7677 H   0  0  0  0  0  0  0  0  0  0  0  0
  153.1354  143.8688  157.6331 H   0  0  0  0  0  0  0  0  0  0  0  0
  151.2674  142.3329  159.3543 H   0  0  0  0  0  0  0  0  0  0  0  0
  153.0216  142.2871  159.3382 H   0  0  0  0  0  0  0  0  0  0  0  0
  151.6857  143.4126  161.4282 H   0  0  0  0  0  0  0  0  0  0  0  0
  153.1725  144.1445  160.8274 H   0  0  0  0  0  0  0  0  0  0  0  0
  150.3285  144.9365  160.1145 H   0  0  0  0  0  0  0  0  0  0  0  0
  151.6095  145.9956  160.7030 H   0  0  0  0  0  0  0  0  0  0  0  0
  152.7763  145.8877  158.6183 H   0  0  0  0  0  0  0  0  0  0  0  0
  151.1200  145.8445  158.0441 H   0  0  0  0  0  0  0  0  0  0  0  0
  1  2  2  0  0  0  0
  2  3  1  0  0  0  0
  2  9  1  0  0  0  0
  3  4  1  0  0  0  0
  4  8  1  0  0  0  0
  4  5  2  0  0  0  0
  5  6  1  0  0  0  0
  6  7  2  0  0  0  0
  7  8  1  0  0  0  0
  7 15  1  0  0  0  0
  9 10  1  0  0  0  0
  9 16  1  0  0  0  0
 10 14  1  0  0  0  0
 10 11  1  0  0  0  0
 10 17  1  0  0  0  0
 11 12  1  0  0  0  0
 11 18  1  0  0  0  0
 11 19  1  0  0  0  0
 12 13  1  0  0  0  0
 12 20  1  0  0  0  0
 12 21  1  0  0  0  0
 13 14  1  0  0  0  0
 13 22  1  0  0  0  0
 13 23  1  0  0  0  0
 14 24  1  0  0  0  0
 14 25  1  0  0  0  0
M  CHG  1   3  -1
M  END
> <s_m_source_file>
AV-unprocessed.smi

> <i_m_source_file_index>
2551

> <i_lp_mmshare_version>
43012

> <i_f3d_flags>
0

> <s_epik_input>
W0NIMl0xW0NIMl1bQ0gyXVtDSDJdW0NIXTFbTkhdQyg9TylbTkhdYzJubltjSF1zMg==

> <s_epik_cmdline>
J2VwaWtfcHl0aG9uJywgJy1waCcsICc3LjAnLCAnLXRuJywgJzgnLCAnLW1hJywgJzIwMCcsICctbWV0YWxfYmluZGluZycsICctaW1hZScsICc8aW5maWxlLm1hZT4nLCAnLW9tYWUnLCAnPG91dGZpbGUubWFlPic=

> <r_lp_tautomer_probability>
1

> <r_epik_Ionization_Penalty>
4.51495

> <r_epik_Ionization_Penalty_Charging>
4.46823

> <r_epik_Ionization_Penalty_Neutral>
0.0467187

> <r_epik_State_Penalty>
4.46792

> <r_epik_Charging_Adjusted_Penalty>
8.93614

> <i_epik_Tot_Q>
-1

> <i_epik_Tot_abs_Q>
1

> <r_epik_Metal_State_Penalty>
0.803637

> <b_epik_Metal_Only>
1

> <s_lp_Force_Field>
OPLS_2005

> <r_lp_Energy>
17.7165

> <b_lp_Chiralities_Consistent>
1

> <s_lp_Variant>
AV-unprocessed.smi:2551-2

> <Gold.Version>
5.8.1

> <Gold.Id.Protein>
6NUR|6NUR_protein|mol2

> <Gold.PLP.Fitness>
38.5817

> <Gold.PLP.PLP>
-30.3840

> <Gold.PLP.part.hbond>
-2.0000

> <Gold.PLP.part.metal>
0.0000

> <Gold.PLP.part.buried>
-4.8444

> <Gold.PLP.part.nonpolar>
-24.9382

> <Gold.PLP.part.repulsive>
1.6272

> <Gold.PLP.ligand.clash>
0.0000

> <Gold.PLP.ligand.torsion>
0.3922

> <Gold.PLP.Chemscore.Hbond>
1.9913

> <Gold.PLP.Chemscore.CHOScore>
1.0000

> <Gold.PLP.Chemscore.Metal>
0.0000

> <Gold.Chemscore.Hbonds>
donor molecule, donor type, donor heavy atom, donor atom, acceptor molecule, acceptor atom, score
      L1  H     9    16       P1  8028  0.98
      P1  H  7989  7998       L1     5  1.00
      L1  C     7    15       P1  7948  1.00

> <Gold.PLP.Chemscore.Internal.Correction>
0.0083

> <Gold.Rescore>
     Score         DG    S(hbond)    S(metal)    S(lipo)     H(rot)  DE(clash)    DE(int)     intcor
     12.47     -16.16       1.49        0.00      70.53       1.00       0.43       3.27       ----

> <Gold.Chemscore.Fitness>
12.4689

> <Gold.Chemscore.DG>
-16.1612

> <Gold.Chemscore.ZeroCoef>
-5.4800

> <Gold.Chemscore.Hbond>
1.4938

> <Gold.Chemscore.Metal>
0.0000

> <Gold.Chemscore.Lipo>
70.5290

> <Gold.Chemscore.Internal_Hbond>
0.0000

> <Gold.Chemscore.DEClash>
0.4260

> <Gold.Chemscore.DEInternal>
3.2664

> <Gold.Chemscore.Rot>
1.0000

> <Gold.Chemscore.Internal.Correction>
   9.000000E+99

> <Gold.Chemscore.Hbonds>
donor molecule, donor type, donor heavy atom, donor atom, acceptor molecule, acceptor atom, score
      L1  H     9    16       P1  8028  0.87
      P1  H  7989  7998       L1     5  0.10

> <Gold.Chemscore.Hbond.Weighted>
-4.9894

> <Gold.Chemscore.Metal.Weighted>
-0.0000

> <Gold.Chemscore.Lipo.Weighted>
-8.2519

> <Gold.Chemscore.Internal_Hbond.Weighted>
0.0000

> <Gold.Chemscore.DEClash.Weighted>
0.4260

> <Gold.Chemscore.DEInternal.Weighted>
3.2664

> <Gold.Chemscore.Rot.Weighted>
2.5600

> <Gold.Chemscore.Internal.Correction.Weighted>
   9.000000E+99

> <Gold.Protein.RotatedTorsions>
[ 6907 6896 6895 6894 ] final  -29.63 input  -60.11 | X-H torsion
[ 7974 7965 7964 7962 ] final   12.22 input  175.53 | X-H torsion
[ 8008 7997 7996 7995 ] final   49.93 input   59.86 | X-H torsion
[ 10167 10162 10161 10158 ] final   59.26 input  -65.29 | X-H torsion
[ 10718 10713 10712 10709 ] final  -93.89 input   66.30 | X-H torsion
[ 10763 10752 10751 10750 ] final   63.09 input  -60.55 | X-H torsion
[ 11005 11000 10999 10996 ] final  135.92 input  -57.11 | X-H torsion

> <Gold.Protein.ActiveResidues>
 VAL166  LYS551  ARG553  GLY616  TRP617  ASP618  TYR619  PRO620  LYS621  CYS622 
 ASP623  PHE694  ASN695  SER759  ASP760  ASP761  ALA762  ILE779  LEU786  VAL792 
 PHE793  MET794  SER795  GLU796  ALA797  LYS798  CYS799  TRP800  GLU811  SER814 

> <Gold.Protein.RotatedAtoms>
  151.1165  135.0056  159.8518 H   0  0  0  0  0  0  0  0  0  0  0  0  # atno 6907 bound_to 6896
  152.5446  134.1773  159.8631 H   0  0  0  0  0  0  0  0  0  0  0  0  # atno 6908 bound_to 6896
  151.1828  133.4670  159.2627 H   0  0  0  0  0  0  0  0  0  0  0  0  # atno 6909 bound_to 6896
  146.2356  139.9369  142.8488 H   0  0  0  0  0  0  0  0  0  0  0  0  # atno 7974 bound_to 7965
  155.4104  140.3442  155.4263 H   0  0  0  0  0  0  0  0  0  0  0  0  # atno 8008 bound_to 7997
  156.1452  140.1554  156.8890 H   0  0  0  0  0  0  0  0  0  0  0  0  # atno 8009 bound_to 7997
  154.5004  140.0816  156.7767 H   0  0  0  0  0  0  0  0  0  0  0  0  # atno 8010 bound_to 7997
  140.1784  144.4207  150.6627 H   0  0  0  0  0  0  0  0  0  0  0  0  # atno 10167 bound_to 10162
  156.0019  130.5045  150.5844 H   0  0  0  0  0  0  0  0  0  0  0  0  # atno 10718 bound_to 10713
  153.0005  135.5441  154.6297 H   0  0  0  0  0  0  0  0  0  0  0  0  # atno 10763 bound_to 10752
  154.5577  135.2831  155.0951 H   0  0  0  0  0  0  0  0  0  0  0  0  # atno 10764 bound_to 10752
  154.2165  135.6458  153.5184 H   0  0  0  0  0  0  0  0  0  0  0  0  # atno 10765 bound_to 10752
  140.0011  134.9478  157.0075 H   0  0  0  0  0  0  0  0  0  0  0  0  # atno 11005 bound_to 11000
  145.1990  140.9846  143.4167 LP  0  0  0  0  0  0  0  0  0  0  0  0  # atno 17320 bound_to 7965
  144.9790  139.3802  143.6271 LP  0  0  0  0  0  0  0  0  0  0  0  0  # atno 17321 bound_to 7965
  140.6536  143.2231  151.6020 LP  0  0  0  0  0  0  0  0  0  0  0  0  # atno 17342 bound_to 10162
  139.5307  144.2925  152.1140 LP  0  0  0  0  0  0  0  0  0  0  0  0  # atno 17343 bound_to 10162
  157.3719  131.0767  151.1550 LP  0  0  0  0  0  0  0  0  0  0  0  0  # atno 17370 bound_to 10713
  157.2301  130.6521  149.5846 LP  0  0  0  0  0  0  0  0  0  0  0  0  # atno 17371 bound_to 10713
  140.4726  134.1371  155.7205 LP  0  0  0  0  0  0  0  0  0  0  0  0  # atno 17394 bound_to 11000
  141.1643  133.8734  157.1760 LP  0  0  0  0  0  0  0  0  0  0  0  0  # atno 17395 bound_to 11000

$$$$
