AV-unprocessed.smi:1706|AV-procd|sdf|6886|dock1
  -GOLD-   22720 8 93D 1   1.00000     0.00000
 Structure written by MMmdl.
 35 36  0  0  0  0  0  0  0  0  1 V2000
  152.6079  143.2765  162.8830 C   0  0  0  0  0  0  0  0  0  0  0  0
  152.3072  143.7166  161.5377 N   0  0  0  0  0  0  0  0  0  0  0  0
  152.4619  143.0285  160.3539 C   0  0  0  0  0  0  0  0  0  0  0  0
  152.0602  143.8560  159.3432 C   0  0  0  0  0  0  0  0  0  0  0  0
  152.0517  143.5960  157.8596 C   0  0  0  0  0  0  0  0  0  0  0  0
  150.9681  142.5841  157.4513 C   0  0  0  0  0  0  0  0  0  0  0  0
  151.5134  141.2322  157.3830 N   0  0  0  0  0  0  0  0  0  0  0  0
  151.3588  140.3740  156.3620 C   0  0  0  0  0  0  0  0  0  0  0  0
  150.6749  140.6443  155.3740 O   0  0  0  0  0  0  0  0  0  0  0  0
  152.0522  139.2155  156.4912 N   0  0  0  0  0  0  0  0  0  0  0  0
  152.4346  138.5532  157.7476 C   0  0  0  0  0  0  0  0  0  0  0  0
  151.6352  137.2430  157.8666 C   0  0  0  0  0  0  0  0  0  0  0  0
  151.8959  136.4171  156.7343 O   0  0  0  0  0  0  0  0  0  0  0  0
  151.5641  137.0430  155.4971 C   0  0  0  0  0  0  0  0  0  0  0  0
  152.3618  138.3510  155.3491 C   0  0  0  0  0  0  0  0  0  0  0  0
  151.6659  145.0428  160.0248 C   0  0  0  0  0  0  0  0  0  0  0  0
  151.8159  144.9565  161.3365 N   0  0  0  0  0  0  0  0  0  0  0  0
  152.7658  142.1978  162.8964 H   0  0  0  0  0  0  0  0  0  0  0  0
  151.7804  143.5212  163.5498 H   0  0  0  0  0  0  0  0  0  0  0  0
  153.5124  143.7723  163.2366 H   0  0  0  0  0  0  0  0  0  0  0  0
  152.8502  142.0209  160.3267 H   0  0  0  0  0  0  0  0  0  0  0  0
  151.8923  144.5255  157.3120 H   0  0  0  0  0  0  0  0  0  0  0  0
  153.0231  143.2267  157.5298 H   0  0  0  0  0  0  0  0  0  0  0  0
  150.1461  142.6016  158.1675 H   0  0  0  0  0  0  0  0  0  0  0  0
  150.5527  142.8776  156.4855 H   0  0  0  0  0  0  0  0  0  0  0  0
  152.0955  140.9406  158.1542 H   0  0  0  0  0  0  0  0  0  0  0  0
  153.5038  138.3371  157.7270 H   0  0  0  0  0  0  0  0  0  0  0  0
  152.2733  139.1584  158.6396 H   0  0  0  0  0  0  0  0  0  0  0  0
  151.9239  136.7051  158.7696 H   0  0  0  0  0  0  0  0  0  0  0  0
  150.5657  137.4454  157.9428 H   0  0  0  0  0  0  0  0  0  0  0  0
  151.8029  136.3607  154.6814 H   0  0  0  0  0  0  0  0  0  0  0  0
  150.4909  137.2346  155.4514 H   0  0  0  0  0  0  0  0  0  0  0  0
  152.1352  138.8177  154.3895 H   0  0  0  0  0  0  0  0  0  0  0  0
  153.4320  138.1400  155.3345 H   0  0  0  0  0  0  0  0  0  0  0  0
  151.2846  145.9622  159.6057 H   0  0  0  0  0  0  0  0  0  0  0  0
  1  2  1  0  0  0  0
  1 18  1  0  0  0  0
  1 19  1  0  0  0  0
  1 20  1  0  0  0  0
  2 17  1  0  0  0  0
  2  3  1  0  0  0  0
  3  4  2  0  0  0  0
  3 21  1  0  0  0  0
  4  5  1  0  0  0  0
  4 16  1  0  0  0  0
  5  6  1  0  0  0  0
  5 22  1  0  0  0  0
  5 23  1  0  0  0  0
  6  7  1  0  0  0  0
  6 24  1  0  0  0  0
  6 25  1  0  0  0  0
  7  8  1  0  0  0  0
  7 26  1  0  0  0  0
  8  9  2  0  0  0  0
  8 10  1  0  0  0  0
 10 15  1  0  0  0  0
 10 11  1  0  0  0  0
 11 12  1  0  0  0  0
 11 27  1  0  0  0  0
 11 28  1  0  0  0  0
 12 13  1  0  0  0  0
 12 29  1  0  0  0  0
 12 30  1  0  0  0  0
 13 14  1  0  0  0  0
 14 15  1  0  0  0  0
 14 31  1  0  0  0  0
 14 32  1  0  0  0  0
 15 33  1  0  0  0  0
 15 34  1  0  0  0  0
 16 17  2  0  0  0  0
 16 35  1  0  0  0  0
M  END
> <s_m_source_file>
AV-unprocessed.smi

> <i_m_source_file_index>
1706

> <i_lp_mmshare_version>
43012

> <i_f3d_flags>
0

> <s_epik_input>
W0NIM11uMVtjSF1jKFtjSF1uMSlbQ0gyXVtDSDJdW05IXUMoPU8pTjJbQ0gyXVtDSDJdT1tDSDJdW0NIMl0y

> <s_epik_cmdline>
J2VwaWtfcHl0aG9uJywgJy1waCcsICc3LjAnLCAnLXRuJywgJzgnLCAnLW1hJywgJzIwMCcsICctbWV0YWxfYmluZGluZycsICctaW1hZScsICc8aW5maWxlLm1hZT4nLCAnLW9tYWUnLCAnPG91dGZpbGUubWFlPic=

> <r_lp_tautomer_probability>
1

> <r_epik_Ionization_Penalty>
0.000534981

> <r_epik_Ionization_Penalty_Charging>
0

> <r_epik_Ionization_Penalty_Neutral>
0.000534981

> <r_epik_State_Penalty>
-0

> <r_epik_Charging_Adjusted_Penalty>
0

> <i_epik_Tot_Q>
0

> <i_epik_Tot_abs_Q>
0

> <r_epik_Metal_State_Penalty>
-0

> <b_epik_Metal_Only>
0

> <s_lp_Force_Field>
OPLS_2005

> <r_lp_Energy>
25.9186

> <b_lp_Chiralities_Consistent>
1

> <s_lp_Variant>
AV-unprocessed.smi:1706-1

> <Gold.Version>
5.8.1

> <Gold.Id.Protein>
6NUR|6NUR_protein|mol2

> <Gold.PLP.Fitness>
45.9997

> <Gold.PLP.PLP>
-42.0087

> <Gold.PLP.part.hbond>
-2.0000

> <Gold.PLP.part.metal>
0.0000

> <Gold.PLP.part.buried>
-4.2903

> <Gold.PLP.part.nonpolar>
-35.7675

> <Gold.PLP.part.repulsive>
0.4113

> <Gold.PLP.ligand.clash>
0.0000

> <Gold.PLP.ligand.torsion>
0.6243

> <Gold.PLP.Chemscore.Hbond>
1.7360

> <Gold.PLP.Chemscore.CHOScore>
0.0000

> <Gold.PLP.Chemscore.Metal>
0.0000

> <Gold.Chemscore.Hbonds>
donor molecule, donor type, donor heavy atom, donor atom, acceptor molecule, acceptor atom, score
      P1  H  7989  7998       L1     9  0.73

> <Gold.PLP.Chemscore.Internal.Correction>
0.0316

> <Gold.Rescore>
     Score         DG    S(hbond)    S(metal)    S(lipo)     H(rot)  DE(clash)    DE(int)     intcor
     12.15     -14.52       0.43        0.00      96.48       1.44       1.67       0.70       ----

> <Gold.Chemscore.Fitness>
12.1499

> <Gold.Chemscore.DG>
-14.5188

> <Gold.Chemscore.ZeroCoef>
-5.4800

> <Gold.Chemscore.Hbond>
0.4281

> <Gold.Chemscore.Metal>
0.0000

> <Gold.Chemscore.Lipo>
96.4773

> <Gold.Chemscore.Internal_Hbond>
0.0000

> <Gold.Chemscore.DEClash>
1.6700

> <Gold.Chemscore.DEInternal>
0.6990

> <Gold.Chemscore.Rot>
1.4371

> <Gold.Chemscore.Internal.Correction>
   9.000000E+99

> <Gold.Chemscore.Hbonds>
donor molecule, donor type, donor heavy atom, donor atom, acceptor molecule, acceptor atom, score
      P1  H  7989  7998       L1     9  0.67

> <Gold.Chemscore.Hbond.Weighted>
-1.4300

> <Gold.Chemscore.Metal.Weighted>
-0.0000

> <Gold.Chemscore.Lipo.Weighted>
-11.2878

> <Gold.Chemscore.Internal_Hbond.Weighted>
0.0000

> <Gold.Chemscore.DEClash.Weighted>
1.6700

> <Gold.Chemscore.DEInternal.Weighted>
0.6990

> <Gold.Chemscore.Rot.Weighted>
3.6790

> <Gold.Chemscore.Internal.Correction.Weighted>
   9.000000E+99

> <Gold.Protein.RotatedTorsions>
[ 6907 6896 6895 6894 ] final  123.98 input  -60.11 | X-H torsion
[ 7974 7965 7964 7962 ] final -129.58 input  175.53 | X-H torsion
[ 8008 7997 7996 7995 ] final  173.16 input   59.86 | X-H torsion
[ 10167 10162 10161 10158 ] final  -46.88 input  -65.29 | X-H torsion
[ 10718 10713 10712 10709 ] final  -26.69 input   66.30 | X-H torsion
[ 10763 10752 10751 10750 ] final   76.38 input  -60.55 | X-H torsion
[ 11005 11000 10999 10996 ] final  -16.29 input  -57.11 | X-H torsion

> <Gold.Protein.ActiveResidues>
 VAL166  LYS551  ARG553  GLY616  TRP617  ASP618  TYR619  PRO620  LYS621  CYS622 
 ASP623  PHE694  ASN695  SER759  ASP760  ASP761  ALA762  ILE779  LEU786  VAL792 
 PHE793  MET794  SER795  GLU796  ALA797  LYS798  CYS799  TRP800  GLU811  SER814 

> <Gold.Protein.RotatedAtoms>
  152.4116  133.6973  159.6402 H   0  0  0  0  0  0  0  0  0  0  0  0  # atno 6907 bound_to 6896
  150.7996  133.8613  159.3241 H   0  0  0  0  0  0  0  0  0  0  0  0  # atno 6908 bound_to 6896
  151.6354  135.1020  160.0182 H   0  0  0  0  0  0  0  0  0  0  0  0  # atno 6909 bound_to 6896
  144.9558  140.7394  143.4760 H   0  0  0  0  0  0  0  0  0  0  0  0  # atno 7974 bound_to 7965
  156.1103  140.1467  156.9347 H   0  0  0  0  0  0  0  0  0  0  0  0  # atno 8008 bound_to 7997
  154.4762  140.0893  156.7311 H   0  0  0  0  0  0  0  0  0  0  0  0  # atno 8009 bound_to 7997
  155.4608  140.3438  155.4314 H   0  0  0  0  0  0  0  0  0  0  0  0  # atno 8010 bound_to 7997
  140.6799  143.2810  151.3846 H   0  0  0  0  0  0  0  0  0  0  0  0  # atno 10167 bound_to 10162
  156.4480  130.4478  149.7009 H   0  0  0  0  0  0  0  0  0  0  0  0  # atno 10718 bound_to 10713
  153.0721  135.4953  154.8327 H   0  0  0  0  0  0  0  0  0  0  0  0  # atno 10763 bound_to 10752
  154.7037  135.3006  154.9305 H   0  0  0  0  0  0  0  0  0  0  0  0  # atno 10764 bound_to 10752
  154.0021  135.6765  153.4813 H   0  0  0  0  0  0  0  0  0  0  0  0  # atno 10765 bound_to 10752
  140.8053  133.8182  155.9510 H   0  0  0  0  0  0  0  0  0  0  0  0  # atno 11005 bound_to 11000
  145.2775  139.1931  143.4809 LP  0  0  0  0  0  0  0  0  0  0  0  0  # atno 17320 bound_to 7965
  146.3336  140.2731  142.8607 LP  0  0  0  0  0  0  0  0  0  0  0  0  # atno 17321 bound_to 7965
  139.6114  144.1090  152.2303 LP  0  0  0  0  0  0  0  0  0  0  0  0  # atno 17342 bound_to 10162
  140.0505  144.5936  150.7340 LP  0  0  0  0  0  0  0  0  0  0  0  0  # atno 17343 bound_to 10162
  156.3847  130.7597  151.2592 LP  0  0  0  0  0  0  0  0  0  0  0  0  # atno 17370 bound_to 10713
  157.7504  131.0285  150.4053 LP  0  0  0  0  0  0  0  0  0  0  0  0  # atno 17371 bound_to 10713
  140.9253  134.2090  157.4900 LP  0  0  0  0  0  0  0  0  0  0  0  0  # atno 17394 bound_to 11000
  139.8718  134.9810  156.5098 LP  0  0  0  0  0  0  0  0  0  0  0  0  # atno 17395 bound_to 11000

$$$$
