AV-unprocessed.smi:2158|AV-procd|sdf|8789|dock1
  -GOLD-   2272011563D 1   1.00000     0.00000
 Structure written by MMmdl.
 30 30  0  0  0  0  0  0  0  0  2 V2000
  151.8104  144.8103  158.4776 C   0  0  0  0  0  0  0  0  0  0  0  0
  152.8262  144.0477  159.3410 C   0  0  0  0  0  0  0  0  0  0  0  0
  152.4280  142.5857  159.6176 C   0  0  2  0  0  0  0  0  0  0  0  0
  153.5199  141.8366  160.3970 C   0  0  0  0  0  0  0  0  0  0  0  0
  152.1486  141.8940  158.3616 N   0  0  0  0  0  0  0  0  0  0  0  0
  150.9316  141.5469  157.9159 C   0  0  0  0  0  0  0  0  0  0  0  0
  149.8951  141.7446  158.5514 O   0  0  0  0  0  0  0  0  0  0  0  0
  150.8866  140.8411  156.5548 C   0  0  0  0  0  0  0  0  0  0  0  0
  151.3945  139.4617  156.6196 N   0  0  0  0  0  0  0  0  0  0  0  0
  150.8637  138.6132  157.6073 C   0  0  0  0  0  0  0  0  0  0  0  0
  151.2649  137.3340  157.7348 C   0  0  0  0  0  0  0  0  0  0  0  0
  152.2788  136.8334  156.8148 C   0  0  0  0  0  0  0  0  0  0  0  0
  152.6602  135.6692  156.9199 O   0  0  0  0  0  0  0  0  0  0  0  0
  152.7603  137.6945  155.8710 N   0  5  0  0  0  0  0  0  0  0  0  0
  152.3405  138.9922  155.7509 C   0  0  0  0  0  0  0  0  0  0  0  0
  152.7855  139.7519  154.8894 O   0  0  0  0  0  0  0  0  0  0  0  0
  152.1147  145.8492  158.3497 H   0  0  0  0  0  0  0  0  0  0  0  0
  150.8227  144.8079  158.9389 H   0  0  0  0  0  0  0  0  0  0  0  0
  151.7160  144.3706  157.4843 H   0  0  0  0  0  0  0  0  0  0  0  0
  153.8042  144.0804  158.8591 H   0  0  0  0  0  0  0  0  0  0  0  0
  152.9389  144.5734  160.2899 H   0  0  0  0  0  0  0  0  0  0  0  0
  151.5236  142.5995  160.2289 H   0  0  0  0  0  0  0  0  0  0  0  0
  153.7279  142.3260  161.3487 H   0  0  0  0  0  0  0  0  0  0  0  0
  154.4523  141.7950  159.8333 H   0  0  0  0  0  0  0  0  0  0  0  0
  153.2163  140.8122  160.6159 H   0  0  0  0  0  0  0  0  0  0  0  0
  152.9414  141.6876  157.7712 H   0  0  0  0  0  0  0  0  0  0  0  0
  149.8686  140.8484  156.1598 H   0  0  0  0  0  0  0  0  0  0  0  0
  151.4715  141.4306  155.8481 H   0  0  0  0  0  0  0  0  0  0  0  0
  150.1130  139.0597  158.2426 H   0  0  0  0  0  0  0  0  0  0  0  0
  150.8448  136.6939  158.4964 H   0  0  0  0  0  0  0  0  0  0  0  0
  1  2  1  0  0  0  0
  1 17  1  0  0  0  0
  1 18  1  0  0  0  0
  1 19  1  0  0  0  0
  2  3  1  0  0  0  0
  2 20  1  0  0  0  0
  2 21  1  0  0  0  0
  3  4  1  0  0  0  0
  3  5  1  0  0  0  0
  3 22  1  0  0  0  0
  4 23  1  0  0  0  0
  4 24  1  0  0  0  0
  4 25  1  0  0  0  0
  5  6  1  0  0  0  0
  5 26  1  0  0  0  0
  6  7  2  0  0  0  0
  6  8  1  0  0  0  0
  8  9  1  0  0  0  0
  8 27  1  0  0  0  0
  8 28  1  0  0  0  0
  9 15  1  0  0  0  0
  9 10  1  0  0  0  0
 10 11  2  0  0  0  0
 10 29  1  0  0  0  0
 11 12  1  0  0  0  0
 11 30  1  0  0  0  0
 12 13  2  0  0  0  0
 12 14  1  0  0  0  0
 14 15  1  0  0  0  0
 15 16  2  0  0  0  0
M  CHG  1  14  -1
M  END
> <s_m_source_file>
AV-unprocessed.smi

> <i_m_source_file_index>
2158

> <i_lp_mmshare_version>
43012

> <i_f3d_flags>
0

> <s_epik_input>
W0NIM11bQ0gyXVtDQEhdKFtDSDNdKVtOSF1DKD1PKVtDSDJdbjFbY0hdW2NIXWMoPU8pW25IXWMxPU8=

> <s_epik_cmdline>
J2VwaWtfcHl0aG9uJywgJy1waCcsICc3LjAnLCAnLXRuJywgJzgnLCAnLW1hJywgJzIwMCcsICctbWV0YWxfYmluZGluZycsICctaW1hZScsICc8aW5maWxlLm1hZT4nLCAnLW9tYWUnLCAnPG91dGZpbGUubWFlPic=

> <r_lp_tautomer_probability>
0.999537

> <r_epik_Ionization_Penalty>
3.08395

> <r_epik_Ionization_Penalty_Charging>
2.76809e-08

> <r_epik_Ionization_Penalty_Neutral>
3.08395

> <r_epik_State_Penalty>
3.08299

> <r_epik_Charging_Adjusted_Penalty>
3.08299

> <i_epik_Tot_Q>
-1

> <i_epik_Tot_abs_Q>
1

> <r_epik_Metal_State_Penalty>
0.460296

> <b_epik_Metal_Only>
1

> <s_lp_Force_Field>
OPLS_2005

> <r_lp_Energy>
12.2606

> <b_lp_Chiralities_Consistent>
1

> <s_lp_Variant>
AV-unprocessed.smi:2158-3

> <Gold.Version>
5.8.1

> <Gold.Id.Protein>
6NUR|6NUR_protein|mol2

> <Gold.PLP.Fitness>
37.8897

> <Gold.PLP.PLP>
-31.3366

> <Gold.PLP.part.hbond>
-3.9770

> <Gold.PLP.part.metal>
0.0000

> <Gold.PLP.part.buried>
-4.4910

> <Gold.PLP.part.nonpolar>
-23.6014

> <Gold.PLP.part.repulsive>
0.1470

> <Gold.PLP.ligand.clash>
0.0000

> <Gold.PLP.ligand.torsion>
0.3644

> <Gold.PLP.Chemscore.Hbond>
2.4191

> <Gold.PLP.Chemscore.CHOScore>
0.0000

> <Gold.PLP.Chemscore.Metal>
0.0000

> <Gold.Chemscore.Hbonds>
donor molecule, donor type, donor heavy atom, donor atom, acceptor molecule, acceptor atom, score
      P1  H  7989  7998       L1    16  0.41
      P1  H  7997  8010       L1    16  0.95
      P1  H 10752 10763       L1    13  1.00

> <Gold.PLP.Chemscore.Internal.Correction>
0.0246

> <Gold.Rescore>
     Score         DG    S(hbond)    S(metal)    S(lipo)     H(rot)  DE(clash)    DE(int)     intcor
     12.92     -13.35       1.90        0.00      55.74       1.94       0.13       0.30       ----

> <Gold.Chemscore.Fitness>
12.9239

> <Gold.Chemscore.DG>
-13.3547

> <Gold.Chemscore.ZeroCoef>
-5.4800

> <Gold.Chemscore.Hbond>
1.8958

> <Gold.Chemscore.Metal>
0.0000

> <Gold.Chemscore.Lipo>
55.7411

> <Gold.Chemscore.Internal_Hbond>
0.0000

> <Gold.Chemscore.DEClash>
0.1334

> <Gold.Chemscore.DEInternal>
0.2973

> <Gold.Chemscore.Rot>
1.9449

> <Gold.Chemscore.Internal.Correction>
   9.000000E+99

> <Gold.Chemscore.Hbonds>
donor molecule, donor type, donor heavy atom, donor atom, acceptor molecule, acceptor atom, score
      P1  H  7989  7998       L1    16  0.40
      P1  H  7997  8010       L1    16  0.21
      P1  H 10752 10763       L1    13  0.26

> <Gold.Chemscore.Hbond.Weighted>
-6.3320

> <Gold.Chemscore.Metal.Weighted>
-0.0000

> <Gold.Chemscore.Lipo.Weighted>
-6.5217

> <Gold.Chemscore.Internal_Hbond.Weighted>
0.0000

> <Gold.Chemscore.DEClash.Weighted>
0.1334

> <Gold.Chemscore.DEInternal.Weighted>
0.2973

> <Gold.Chemscore.Rot.Weighted>
4.9791

> <Gold.Chemscore.Internal.Correction.Weighted>
   9.000000E+99

> <Gold.Protein.RotatedTorsions>
[ 6907 6896 6895 6894 ] final   93.80 input  -60.11 | X-H torsion
[ 7974 7965 7964 7962 ] final -140.06 input  175.53 | X-H torsion
[ 8008 7997 7996 7995 ] final  112.90 input   59.86 | X-H torsion
[ 10167 10162 10161 10158 ] final  146.90 input  -65.29 | X-H torsion
[ 10718 10713 10712 10709 ] final  142.04 input   66.30 | X-H torsion
[ 10763 10752 10751 10750 ] final  104.60 input  -60.55 | X-H torsion
[ 11005 11000 10999 10996 ] final   37.73 input  -57.11 | X-H torsion

> <Gold.Protein.ActiveResidues>
 VAL166  LYS551  ARG553  GLY616  TRP617  ASP618  TYR619  PRO620  LYS621  CYS622 
 ASP623  PHE694  ASN695  SER759  ASP760  ASP761  ALA762  ILE779  LEU786  VAL792 
 PHE793  MET794  SER795  GLU796  ALA797  LYS798  CYS799  TRP800  GLU811  SER814 

> <Gold.Protein.RotatedAtoms>
  152.5451  134.1292  159.8431 H   0  0  0  0  0  0  0  0  0  0  0  0  # atno 6907 bound_to 6896
  151.1339  133.5010  159.2606 H   0  0  0  0  0  0  0  0  0  0  0  0  # atno 6908 bound_to 6896
  151.1645  135.0299  159.8779 H   0  0  0  0  0  0  0  0  0  0  0  0  # atno 6909 bound_to 6896
  144.8627  140.6244  143.5318 H   0  0  0  0  0  0  0  0  0  0  0  0  # atno 7974 bound_to 7965
  156.2223  140.2990  155.9982 H   0  0  0  0  0  0  0  0  0  0  0  0  # atno 8008 bound_to 7997
  155.2449  140.0424  157.2997 H   0  0  0  0  0  0  0  0  0  0  0  0  # atno 8009 bound_to 7997
  154.5860  140.2388  155.7995 H   0  0  0  0  0  0  0  0  0  0  0  0  # atno 8010 bound_to 7997
  139.4899  144.5795  151.6899 H   0  0  0  0  0  0  0  0  0  0  0  0  # atno 10167 bound_to 10162
  157.3851  131.0997  151.0701 H   0  0  0  0  0  0  0  0  0  0  0  0  # atno 10718 bound_to 10713
  153.3681  135.3938  155.1768 H   0  0  0  0  0  0  0  0  0  0  0  0  # atno 10763 bound_to 10752
  154.8690  135.3696  154.5013 H   0  0  0  0  0  0  0  0  0  0  0  0  # atno 10764 bound_to 10752
  153.5479  135.7083  153.5666 H   0  0  0  0  0  0  0  0  0  0  0  0  # atno 10765 bound_to 10752
  140.2196  134.3657  155.8011 H   0  0  0  0  0  0  0  0  0  0  0  0  # atno 11005 bound_to 11000
  145.4281  139.1553  143.4037 LP  0  0  0  0  0  0  0  0  0  0  0  0  # atno 17320 bound_to 7965
  146.2872  140.4396  142.8753 LP  0  0  0  0  0  0  0  0  0  0  0  0  # atno 17321 bound_to 7965
  140.5399  144.0596  150.6084 LP  0  0  0  0  0  0  0  0  0  0  0  0  # atno 17342 bound_to 10162
  140.3615  143.2905  152.0378 LP  0  0  0  0  0  0  0  0  0  0  0  0  # atno 17343 bound_to 10162
  157.1755  130.6286  149.5654 LP  0  0  0  0  0  0  0  0  0  0  0  0  # atno 17370 bound_to 10713
  155.9785  130.4771  150.6658 LP  0  0  0  0  0  0  0  0  0  0  0  0  # atno 17371 bound_to 10713
  141.2223  133.7186  156.8554 LP  0  0  0  0  0  0  0  0  0  0  0  0  # atno 17394 bound_to 11000
  140.1864  134.8997  157.3009 LP  0  0  0  0  0  0  0  0  0  0  0  0  # atno 17395 bound_to 11000

$$$$
