AV-unprocessed.smi:1817|AV-procd|sdf|7370|dock5
  -GOLD-   22720 9 33D 1   1.00000     0.00000
 Structure written by MMmdl.
 43 44  0  0  0  0  0  0  0  0  2 V2000
  150.1664  141.3820  158.0248 C   0  0  0  0  0  0  0  0  0  0  0  0
  150.1017  140.1471  157.1146 C   0  0  0  0  0  0  0  0  0  0  0  0
  150.6574  140.4152  155.7860 N   0  0  0  0  0  0  0  0  0  0  0  0
  150.8435  139.2322  154.9420 C   0  0  0  0  0  0  0  0  0  0  0  0
  149.5045  138.6216  154.4774 C   0  0  0  0  0  0  0  0  0  0  0  0
  148.6890  139.6246  153.7400 N   0  3  0  0  0  0  0  0  0  0  0  0
  147.3951  139.1222  153.1739 C   0  0  2  0  0  0  0  0  0  0  0  0
  146.7130  140.1087  152.1990 C   0  0  0  0  0  0  0  0  0  0  0  0
  146.3946  138.7210  154.2894 C   0  0  0  0  0  0  0  0  0  0  0  0
  145.0024  138.7164  153.8423 N   0  0  0  0  0  0  0  0  0  0  0  0
  144.0848  137.7874  154.1463 C   0  0  0  0  0  0  0  0  0  0  0  0
  144.3152  136.8217  154.8734 O   0  0  0  0  0  0  0  0  0  0  0  0
  142.9054  138.0598  153.5657 N   0  0  0  0  0  0  0  0  0  0  0  0
  141.6955  137.3282  153.6657 C   0  0  0  0  0  0  0  0  0  0  0  0
  141.7572  136.0738  154.1271 N   0  0  0  0  0  0  0  0  0  0  0  0
  140.5049  135.4735  154.1706 N   0  0  0  0  0  0  0  0  0  0  0  0
  139.5467  136.2999  153.7402 C   0  0  0  0  0  0  0  0  0  0  0  0
  140.0790  137.8941  153.2348 S   0  0  0  0  0  0  0  0  0  0  0  0
  148.5113  140.8327  154.5899 C   0  0  0  0  0  0  0  0  0  0  0  0
  149.8742  141.3990  155.0374 C   0  0  0  0  0  0  0  0  0  0  0  0
  149.6312  141.1956  158.9559 H   0  0  0  0  0  0  0  0  0  0  0  0
  149.7068  142.2490  157.5492 H   0  0  0  0  0  0  0  0  0  0  0  0
  151.1905  141.6428  158.2905 H   0  0  0  0  0  0  0  0  0  0  0  0
  150.5917  139.3008  157.5944 H   0  0  0  0  0  0  0  0  0  0  0  0
  149.0530  139.8710  156.9986 H   0  0  0  0  0  0  0  0  0  0  0  0
  151.4268  139.5250  154.0680 H   0  0  0  0  0  0  0  0  0  0  0  0
  151.4424  138.4839  155.4598 H   0  0  0  0  0  0  0  0  0  0  0  0
  149.7505  137.7822  153.8283 H   0  0  0  0  0  0  0  0  0  0  0  0
  148.9380  138.2178  155.3172 H   0  0  0  0  0  0  0  0  0  0  0  0
  147.6211  138.2264  152.5933 H   0  0  0  0  0  0  0  0  0  0  0  0
  145.7424  139.7288  151.8781 H   0  0  0  0  0  0  0  0  0  0  0  0
  147.2997  140.2565  151.2921 H   0  0  0  0  0  0  0  0  0  0  0  0
  146.5456  141.0834  152.6591 H   0  0  0  0  0  0  0  0  0  0  0  0
  146.6256  137.7112  154.6294 H   0  0  0  0  0  0  0  0  0  0  0  0
  146.5031  139.3454  155.1760 H   0  0  0  0  0  0  0  0  0  0  0  0
  144.7221  139.4745  153.2365 H   0  0  0  0  0  0  0  0  0  0  0  0
  142.8641  138.8858  152.9870 H   0  0  0  0  0  0  0  0  0  0  0  0
  138.5195  135.9676  153.7188 H   0  0  0  0  0  0  0  0  0  0  0  0
  147.9892  141.6127  154.0389 H   0  0  0  0  0  0  0  0  0  0  0  0
  147.8843  140.5970  155.4505 H   0  0  0  0  0  0  0  0  0  0  0  0
  149.7321  142.2942  155.6443 H   0  0  0  0  0  0  0  0  0  0  0  0
  150.4453  141.7108  154.1617 H   0  0  0  0  0  0  0  0  0  0  0  0
  149.2511  139.9082  152.9499 H   0  0  0  0  0  0  0  0  0  0  0  0
  1  2  1  0  0  0  0
  1 21  1  0  0  0  0
  1 22  1  0  0  0  0
  1 23  1  0  0  0  0
  2  3  1  0  0  0  0
  2 24  1  0  0  0  0
  2 25  1  0  0  0  0
  3 20  1  0  0  0  0
  3  4  1  0  0  0  0
  4  5  1  0  0  0  0
  4 26  1  0  0  0  0
  4 27  1  0  0  0  0
  5  6  1  0  0  0  0
  5 28  1  0  0  0  0
  5 29  1  0  0  0  0
  6  7  1  0  0  0  0
  6 19  1  0  0  0  0
  6 43  1  0  0  0  0
  7  8  1  0  0  0  0
  7  9  1  0  0  0  0
  7 30  1  0  0  0  0
  8 31  1  0  0  0  0
  8 32  1  0  0  0  0
  8 33  1  0  0  0  0
  9 10  1  0  0  0  0
  9 34  1  0  0  0  0
  9 35  1  0  0  0  0
 10 11  1  0  0  0  0
 10 36  1  0  0  0  0
 11 12  2  0  0  0  0
 11 13  1  0  0  0  0
 13 14  1  0  0  0  0
 13 37  1  0  0  0  0
 14 18  1  0  0  0  0
 14 15  2  0  0  0  0
 15 16  1  0  0  0  0
 16 17  2  0  0  0  0
 17 18  1  0  0  0  0
 17 38  1  0  0  0  0
 19 20  1  0  0  0  0
 19 39  1  0  0  0  0
 19 40  1  0  0  0  0
 20 41  1  0  0  0  0
 20 42  1  0  0  0  0
M  CHG  1   6   1
M  END
> <s_m_source_file>
AV-unprocessed.smi

> <i_m_source_file_index>
1817

> <i_lp_mmshare_version>
43012

> <i_f3d_flags>
0

> <s_epik_input>
W0NIM11bQ0gyXU4xW0NIMl1bQ0gyXU4oW0NIMl1bQ0gyXTEpW0NASF0oW0NIM10pW0NIMl1bTkhdQyg9TylbTkhdYzJubltjSF1zMg==

> <s_epik_cmdline>
J2VwaWtfcHl0aG9uJywgJy1waCcsICc3LjAnLCAnLXRuJywgJzgnLCAnLW1hJywgJzIwMCcsICctbWV0YWxfYmluZGluZycsICctaW1hZScsICc8aW5maWxlLm1hZT4nLCAnLW9tYWUnLCAnPG91dGZpbGUubWFlPic=

> <r_epik_Ionization_Penalty>
0.153808

> <r_epik_Ionization_Penalty_Charging>
0.148467

> <r_epik_Ionization_Penalty_Neutral>
0.00534086

> <r_epik_State_Penalty>
0.974087

> <r_epik_Charging_Adjusted_Penalty>
1.12255

> <i_epik_Tot_Q>
1

> <i_epik_Tot_abs_Q>
1

> <r_epik_Metal_State_Penalty>
1.30894

> <b_epik_Metal_Only>
0

> <s_lp_Force_Field>
OPLS_2005

> <r_lp_Energy>
26.4186

> <b_lp_Chiralities_Consistent>
1

> <s_lp_Variant>
AV-unprocessed.smi:1817-3

> <Gold.Version>
5.8.1

> <Gold.Id.Protein>
6NUR|6NUR_protein|mol2

> <Gold.PLP.Fitness>
41.3585

> <Gold.PLP.PLP>
-30.4507

> <Gold.PLP.part.hbond>
-4.2539

> <Gold.PLP.part.metal>
0.0000

> <Gold.PLP.part.buried>
-0.7700

> <Gold.PLP.part.nonpolar>
-24.6519

> <Gold.PLP.part.repulsive>
0.3344

> <Gold.PLP.ligand.clash>
0.0000

> <Gold.PLP.ligand.torsion>
0.5486

> <Gold.PLP.Chemscore.Hbond>
3.9760

> <Gold.PLP.Chemscore.CHOScore>
0.0000

> <Gold.PLP.Chemscore.Metal>
0.0000

> <Gold.Chemscore.Hbonds>
donor molecule, donor type, donor heavy atom, donor atom, acceptor molecule, acceptor atom, score
      L1  H     6    43       P1  7957  1.00
      L1  H    10    36       P1 10175  1.00
      L1  H    13    37       P1 10175  0.98
      P1  H 11000 11005       L1    16  1.00

> <Gold.PLP.Chemscore.Internal.Correction>
0.0769

> <Gold.Rescore>
     Score         DG    S(hbond)    S(metal)    S(lipo)     H(rot)  DE(clash)    DE(int)     intcor
     18.40     -21.31       3.75        0.00      70.37       1.92       0.94       1.97       ----

> <Gold.Chemscore.Fitness>
18.3991

> <Gold.Chemscore.DG>
-21.3147

> <Gold.Chemscore.ZeroCoef>
-5.4800

> <Gold.Chemscore.Hbond>
3.7472

> <Gold.Chemscore.Metal>
0.0000

> <Gold.Chemscore.Lipo>
70.3699

> <Gold.Chemscore.Internal_Hbond>
0.0000

> <Gold.Chemscore.DEClash>
0.9420

> <Gold.Chemscore.DEInternal>
1.9737

> <Gold.Chemscore.Rot>
1.9196

> <Gold.Chemscore.Internal.Correction>
   9.000000E+99

> <Gold.Chemscore.Hbonds>
donor molecule, donor type, donor heavy atom, donor atom, acceptor molecule, acceptor atom, score
      L1  H     6    43       P1  7957  0.97
      L1  H    10    36       P1 10175  0.98
      L1  H    13    37       P1 10175  0.93
      P1  H 11000 11005       L1    16  0.83

> <Gold.Chemscore.Hbond.Weighted>
-12.5155

> <Gold.Chemscore.Metal.Weighted>
-0.0000

> <Gold.Chemscore.Lipo.Weighted>
-8.2333

> <Gold.Chemscore.Internal_Hbond.Weighted>
0.0000

> <Gold.Chemscore.DEClash.Weighted>
0.9420

> <Gold.Chemscore.DEInternal.Weighted>
1.9737

> <Gold.Chemscore.Rot.Weighted>
4.9141

> <Gold.Chemscore.Internal.Correction.Weighted>
   9.000000E+99

> <Gold.Protein.RotatedTorsions>
[ 6907 6896 6895 6894 ] final   47.80 input  -60.11 | X-H torsion
[ 7974 7965 7964 7962 ] final   74.95 input  175.53 | X-H torsion
[ 8008 7997 7996 7995 ] final   -6.52 input   59.86 | X-H torsion
[ 10167 10162 10161 10158 ] final   -6.07 input  -65.29 | X-H torsion
[ 10718 10713 10712 10709 ] final -151.92 input   66.30 | X-H torsion
[ 10763 10752 10751 10750 ] final    5.86 input  -60.55 | X-H torsion
[ 11005 11000 10999 10996 ] final   34.08 input  -57.11 | X-H torsion

> <Gold.Protein.ActiveResidues>
 VAL166  LYS551  ARG553  GLY616  TRP617  ASP618  TYR619  PRO620  LYS621  CYS622 
 ASP623  PHE694  ASN695  SER759  ASP760  ASP761  ALA762  ILE779  LEU786  VAL792 
 PHE793  MET794  SER795  GLU796  ALA797  LYS798  CYS799  TRP800  GLU811  SER814 

> <Gold.Protein.RotatedAtoms>
  152.2722  134.7920  160.0411 H   0  0  0  0  0  0  0  0  0  0  0  0  # atno 6907 bound_to 6896
  151.8529  133.3438  159.3687 H   0  0  0  0  0  0  0  0  0  0  0  0  # atno 6908 bound_to 6896
  150.7156  134.5209  159.5697 H   0  0  0  0  0  0  0  0  0  0  0  0  # atno 6909 bound_to 6896
  145.7218  139.2651  143.1591 H   0  0  0  0  0  0  0  0  0  0  0  0  # atno 7974 bound_to 7965
  154.5930  140.2431  155.7895 H   0  0  0  0  0  0  0  0  0  0  0  0  # atno 8008 bound_to 7997
  156.2260  140.2982  156.0021 H   0  0  0  0  0  0  0  0  0  0  0  0  # atno 8009 bound_to 7997
  155.2342  140.0404  157.2957 H   0  0  0  0  0  0  0  0  0  0  0  0  # atno 8010 bound_to 7997
  140.6984  143.6236  150.8589 H   0  0  0  0  0  0  0  0  0  0  0  0  # atno 10167 bound_to 10162
  156.4656  130.8234  151.2464 H   0  0  0  0  0  0  0  0  0  0  0  0  # atno 10718 bound_to 10713
  153.2544  135.6917  153.7645 H   0  0  0  0  0  0  0  0  0  0  0  0  # atno 10763 bound_to 10752
  153.6727  135.3341  155.3158 H   0  0  0  0  0  0  0  0  0  0  0  0  # atno 10764 bound_to 10752
  154.8406  135.4503  154.1512 H   0  0  0  0  0  0  0  0  0  0  0  0  # atno 10765 bound_to 10752
  140.2565  134.3242  155.7872 H   0  0  0  0  0  0  0  0  0  0  0  0  # atno 11005 bound_to 11000
  146.0618  140.7962  142.9731 LP  0  0  0  0  0  0  0  0  0  0  0  0  # atno 17320 bound_to 7965
  144.6915  140.3209  143.7232 LP  0  0  0  0  0  0  0  0  0  0  0  0  # atno 17321 bound_to 7965
  139.9956  143.5800  152.2894 LP  0  0  0  0  0  0  0  0  0  0  0  0  # atno 17342 bound_to 10162
  139.6470  144.7659  151.2223 LP  0  0  0  0  0  0  0  0  0  0  0  0  # atno 17343 bound_to 10162
  157.7495  131.0093  150.3261 LP  0  0  0  0  0  0  0  0  0  0  0  0  # atno 17370 bound_to 10713
  156.3671  130.3857  149.7205 LP  0  0  0  0  0  0  0  0  0  0  0  0  # atno 17371 bound_to 10713
  141.2195  133.7384  156.9119 LP  0  0  0  0  0  0  0  0  0  0  0  0  # atno 17394 bound_to 11000
  140.1506  134.9232  157.2588 LP  0  0  0  0  0  0  0  0  0  0  0  0  # atno 17395 bound_to 11000

$$$$
