AV-unprocessed.smi:3270|AV-procd|sdf|12513|dock8
  -GOLD-   2272018423D 1   1.00000     0.00000
 Structure written by MMmdl.
 38 39  0  0  0  0  0  0  0  0  1 V2000
  154.6905  140.0090  160.7867 C   0  0  0  0  0  0  0  0  0  0  0  0
  153.7717  140.9093  159.9358 C   0  0  1  0  0  0  0  0  0  0  0  0
  152.6117  140.1352  159.2778 C   0  0  0  0  0  0  0  0  0  0  0  0
  152.4483  138.9358  159.5047 O   0  0  0  0  0  0  0  0  0  0  0  0
  151.8188  140.8284  158.4450 N   0  0  0  0  0  0  0  0  0  0  0  0
  150.6710  140.2752  157.7410 C   0  0  0  0  0  0  0  0  0  0  0  0
  150.5916  140.8499  156.3176 C   0  0  0  0  0  0  0  0  0  0  0  0
  149.2373  141.1132  155.8349 N   0  0  0  0  0  0  0  0  0  0  0  0
  149.2212  141.7091  154.5003 C   0  0  0  0  0  0  0  0  0  0  0  0
  147.7892  142.0055  154.0207 C   0  0  0  0  0  0  0  0  0  0  0  0
  147.1315  142.8465  154.9627 O   0  0  0  0  0  0  0  0  0  0  0  0
  147.0844  142.2767  156.2668 C   0  0  0  0  0  0  0  0  0  0  0  0
  148.5154  141.9882  156.7528 C   0  0  0  0  0  0  0  0  0  0  0  0
  153.2867  142.0498  160.7077 N   0  0  0  0  0  0  0  0  0  0  0  0
  153.4035  142.2675  162.0658 C   0  0  0  0  0  0  0  0  0  0  0  0
  152.8222  143.4722  162.3399 C   0  0  0  0  0  0  0  0  0  0  0  0
  152.3747  143.9284  161.0690 C   0  0  0  0  0  0  0  0  0  0  0  0
  152.6556  143.0788  160.0950 N   0  0  0  0  0  0  0  0  0  0  0  0
  155.1423  139.2202  160.1841 H   0  0  0  0  0  0  0  0  0  0  0  0
  154.1475  139.5326  161.6042 H   0  0  0  0  0  0  0  0  0  0  0  0
  155.5040  140.5880  161.2246 H   0  0  0  0  0  0  0  0  0  0  0  0
  154.3746  141.3093  159.1193 H   0  0  0  0  0  0  0  0  0  0  0  0
  152.0148  141.8091  158.3055 H   0  0  0  0  0  0  0  0  0  0  0  0
  150.7719  139.1900  157.7235 H   0  0  0  0  0  0  0  0  0  0  0  0
  149.7533  140.5092  158.2835 H   0  0  0  0  0  0  0  0  0  0  0  0
  151.1530  141.7855  156.3085 H   0  0  0  0  0  0  0  0  0  0  0  0
  151.1073  140.1844  155.6235 H   0  0  0  0  0  0  0  0  0  0  0  0
  149.7997  142.6344  154.5007 H   0  0  0  0  0  0  0  0  0  0  0  0
  149.6963  141.0428  153.7812 H   0  0  0  0  0  0  0  0  0  0  0  0
  147.8092  142.5034  153.0511 H   0  0  0  0  0  0  0  0  0  0  0  0
  147.2253  141.0799  153.8943 H   0  0  0  0  0  0  0  0  0  0  0  0
  146.5868  142.9724  156.9423 H   0  0  0  0  0  0  0  0  0  0  0  0
  146.4890  141.3626  156.2514 H   0  0  0  0  0  0  0  0  0  0  0  0
  148.4730  141.5325  157.7426 H   0  0  0  0  0  0  0  0  0  0  0  0
  149.0538  142.9306  156.8661 H   0  0  0  0  0  0  0  0  0  0  0  0
  153.8854  141.5537  162.7180 H   0  0  0  0  0  0  0  0  0  0  0  0
  152.7313  143.9547  163.3016 H   0  0  0  0  0  0  0  0  0  0  0  0
  151.8590  144.8462  160.8271 H   0  0  0  0  0  0  0  0  0  0  0  0
  1  2  1  0  0  0  0
  1 19  1  0  0  0  0
  1 20  1  0  0  0  0
  1 21  1  0  0  0  0
  2  3  1  0  0  0  0
  2 14  1  0  0  0  0
  2 22  1  0  0  0  0
  3  4  2  0  0  0  0
  3  5  1  0  0  0  0
  5  6  1  0  0  0  0
  5 23  1  0  0  0  0
  6  7  1  0  0  0  0
  6 24  1  0  0  0  0
  6 25  1  0  0  0  0
  7  8  1  0  0  0  0
  7 26  1  0  0  0  0
  7 27  1  0  0  0  0
  8 13  1  0  0  0  0
  8  9  1  0  0  0  0
  9 10  1  0  0  0  0
  9 28  1  0  0  0  0
  9 29  1  0  0  0  0
 10 11  1  0  0  0  0
 10 30  1  0  0  0  0
 10 31  1  0  0  0  0
 11 12  1  0  0  0  0
 12 13  1  0  0  0  0
 12 32  1  0  0  0  0
 12 33  1  0  0  0  0
 13 34  1  0  0  0  0
 13 35  1  0  0  0  0
 14 18  1  0  0  0  0
 14 15  1  0  0  0  0
 15 16  2  0  0  0  0
 15 36  1  0  0  0  0
 16 17  1  0  0  0  0
 16 37  1  0  0  0  0
 17 18  2  0  0  0  0
 17 38  1  0  0  0  0
M  END
> <s_m_source_file>
AV-unprocessed.smi

> <i_m_source_file_index>
3270

> <i_lp_mmshare_version>
43012

> <i_f3d_flags>
0

> <s_epik_input>
bjFbY0hdW2NIXVtjSF1uMVtDQEhdKFtDSDNdKUMoPU8pW05IXVtDSDJdW0NIMl1OMltDSDJdW0NIMl1PW0NIMl1bQ0gyXTI=

> <s_epik_cmdline>
J2VwaWtfcHl0aG9uJywgJy1waCcsICc3LjAnLCAnLXRuJywgJzgnLCAnLW1hJywgJzIwMCcsICctbWV0YWxfYmluZGluZycsICctaW1hZScsICc8aW5maWxlLm1hZT4nLCAnLW9tYWUnLCAnPG91dGZpbGUubWFlPic=

> <r_lp_tautomer_probability>
1

> <r_epik_Ionization_Penalty>
0.203323

> <r_epik_Ionization_Penalty_Charging>
0

> <r_epik_Ionization_Penalty_Neutral>
0.203323

> <r_epik_State_Penalty>
0.193192

> <r_epik_Charging_Adjusted_Penalty>
0.193192

> <i_epik_Tot_Q>
0

> <i_epik_Tot_abs_Q>
0

> <r_epik_Metal_State_Penalty>
0.193187

> <b_epik_Metal_Only>
0

> <s_lp_Force_Field>
OPLS_2005

> <r_lp_Energy>
25.3567

> <b_lp_Chiralities_Consistent>
1

> <s_lp_Variant>
AV-unprocessed.smi:3270-2

> <Gold.Version>
5.8.1

> <Gold.Id.Protein>
6NUR|6NUR_protein|mol2

> <Gold.PLP.Fitness>
36.9854

> <Gold.PLP.PLP>
-37.9876

> <Gold.PLP.part.hbond>
0.0000

> <Gold.PLP.part.metal>
0.0000

> <Gold.PLP.part.buried>
-4.4734

> <Gold.PLP.part.nonpolar>
-32.5299

> <Gold.PLP.part.repulsive>
0.3333

> <Gold.PLP.ligand.clash>
0.0000

> <Gold.PLP.ligand.torsion>
0.5543

> <Gold.PLP.Chemscore.Hbond>
0.0000

> <Gold.PLP.Chemscore.CHOScore>
0.0000

> <Gold.PLP.Chemscore.Metal>
0.0000

> <Gold.PLP.Chemscore.Internal.Correction>
0.1065

> <Gold.Rescore>
     Score         DG    S(hbond)    S(metal)    S(lipo)     H(rot)  DE(clash)    DE(int)     intcor
      9.55     -11.34       0.00        0.00      90.08       1.83       0.02       1.76       ----

> <Gold.Chemscore.Fitness>
9.5512

> <Gold.Chemscore.DG>
-11.3370

> <Gold.Chemscore.ZeroCoef>
-5.4800

> <Gold.Chemscore.Hbond>
0.0000

> <Gold.Chemscore.Metal>
0.0000

> <Gold.Chemscore.Lipo>
90.0780

> <Gold.Chemscore.Internal_Hbond>
0.0000

> <Gold.Chemscore.DEClash>
0.0233

> <Gold.Chemscore.DEInternal>
1.7625

> <Gold.Chemscore.Rot>
1.8290

> <Gold.Chemscore.Internal.Correction>
   9.000000E+99

> <Gold.Chemscore.Hbond.Weighted>
-0.0000

> <Gold.Chemscore.Metal.Weighted>
-0.0000

> <Gold.Chemscore.Lipo.Weighted>
-10.5391

> <Gold.Chemscore.Internal_Hbond.Weighted>
0.0000

> <Gold.Chemscore.DEClash.Weighted>
0.0233

> <Gold.Chemscore.DEInternal.Weighted>
1.7625

> <Gold.Chemscore.Rot.Weighted>
4.6821

> <Gold.Chemscore.Internal.Correction.Weighted>
   9.000000E+99

> <Gold.Protein.RotatedTorsions>
[ 6907 6896 6895 6894 ] final -109.75 input  -60.11 | X-H torsion
[ 7974 7965 7964 7962 ] final  144.50 input  175.53 | X-H torsion
[ 8008 7997 7996 7995 ] final -113.06 input   59.86 | X-H torsion
[ 10167 10162 10161 10158 ] final  140.93 input  -65.29 | X-H torsion
[ 10718 10713 10712 10709 ] final  -36.81 input   66.30 | X-H torsion
[ 10763 10752 10751 10750 ] final   88.22 input  -60.55 | X-H torsion
[ 11005 11000 10999 10996 ] final   58.47 input  -57.11 | X-H torsion

> <Gold.Protein.ActiveResidues>
 VAL166  LYS551  ARG553  GLY616  TRP617  ASP618  TYR619  PRO620  LYS621  CYS622 
 ASP623  PHE694  ASN695  SER759  ASP760  ASP761  ALA762  ILE779  LEU786  VAL792 
 PHE793  MET794  SER795  GLU796  ALA797  LYS798  CYS799  TRP800  GLU811  SER814 

> <Gold.Protein.RotatedAtoms>
  150.7581  133.9483  159.3477 H   0  0  0  0  0  0  0  0  0  0  0  0  # atno 6907 bound_to 6896
  151.7398  135.0854  160.0323 H   0  0  0  0  0  0  0  0  0  0  0  0  # atno 6908 bound_to 6896
  152.3535  133.6172  159.5998 H   0  0  0  0  0  0  0  0  0  0  0  0  # atno 6909 bound_to 6896
  144.8831  139.5670  143.5834 H   0  0  0  0  0  0  0  0  0  0  0  0  # atno 7974 bound_to 7965
  155.0149  140.0393  157.2414 H   0  0  0  0  0  0  0  0  0  0  0  0  # atno 8008 bound_to 7997
  154.7428  140.2752  155.6335 H   0  0  0  0  0  0  0  0  0  0  0  0  # atno 8009 bound_to 7997
  156.2868  140.2662  156.2160 H   0  0  0  0  0  0  0  0  0  0  0  0  # atno 8010 bound_to 7997
  139.5035  144.6203  151.6066 H   0  0  0  0  0  0  0  0  0  0  0  0  # atno 10167 bound_to 10162
  156.3225  130.4267  149.7947 H   0  0  0  0  0  0  0  0  0  0  0  0  # atno 10718 bound_to 10713
  153.1746  135.4515  154.9948 H   0  0  0  0  0  0  0  0  0  0  0  0  # atno 10763 bound_to 10752
  154.7989  135.3248  154.7600 H   0  0  0  0  0  0  0  0  0  0  0  0  # atno 10764 bound_to 10752
  153.8072  135.6958  153.4901 H   0  0  0  0  0  0  0  0  0  0  0  0  # atno 10765 bound_to 10752
  140.0375  134.5921  155.9424 H   0  0  0  0  0  0  0  0  0  0  0  0  # atno 11005 bound_to 11000
  146.3007  139.7417  142.9093 LP  0  0  0  0  0  0  0  0  0  0  0  0  # atno 17320 bound_to 7965
  145.3919  141.0373  143.3119 LP  0  0  0  0  0  0  0  0  0  0  0  0  # atno 17321 bound_to 7965
  140.5903  143.9790  150.6321 LP  0  0  0  0  0  0  0  0  0  0  0  0  # atno 17342 bound_to 10162
  140.2969  143.3286  152.1009 LP  0  0  0  0  0  0  0  0  0  0  0  0  # atno 17343 bound_to 10162
  156.5249  130.8232  151.3217 LP  0  0  0  0  0  0  0  0  0  0  0  0  # atno 17370 bound_to 10713
  157.7414  130.9870  150.2447 LP  0  0  0  0  0  0  0  0  0  0  0  0  # atno 17371 bound_to 10713
  141.1865  133.6557  156.5244 LP  0  0  0  0  0  0  0  0  0  0  0  0  # atno 17394 bound_to 11000
  140.4123  134.7261  157.4843 LP  0  0  0  0  0  0  0  0  0  0  0  0  # atno 17395 bound_to 11000

$$$$
