AV-unprocessed.smi:1717|AV-procd|sdf|6920|dock10
  -GOLD-   22720 8123D 1   1.00000     0.00000
 Structure written by MMmdl.
 40 41  0  0  0  0  0  0  0  0  3 V2000
  144.3729  143.1359  155.1791 C   0  0  0  0  0  0  0  0  0  0  0  0
  145.7010  143.4854  154.6891 N   0  5  0  0  0  0  0  0  0  0  0  0
  146.6676  142.5669  154.4220 C   0  0  0  0  0  0  0  0  0  0  0  0
  147.7248  142.6692  153.7903 O   0  0  0  0  0  0  0  0  0  0  0  0
  146.3359  141.2132  155.0600 C   0  0  0  0  0  0  0  0  0  0  0  0
  146.0386  140.2125  154.0052 N   0  3  2  0  0  0  0  0  0  0  0  0
  145.7056  138.8800  154.5692 C   0  0  0  0  0  0  0  0  0  0  0  0
  145.2561  137.9065  153.4666 C   0  0  0  0  0  0  0  0  0  0  0  0
  146.3247  137.7754  152.3694 C   0  0  1  0  0  0  0  0  0  0  0  0
  145.8303  136.9207  151.2938 N   0  0  0  0  0  0  0  0  0  0  0  0
  145.1755  135.7634  151.4670 C   0  0  0  0  0  0  0  0  0  0  0  0
  144.9085  135.2918  152.5721 O   0  0  0  0  0  0  0  0  0  0  0  0
  144.8612  135.1991  150.2897 N   0  0  0  0  0  0  0  0  0  0  0  0
  144.1607  133.9848  150.0805 C   0  0  0  0  0  0  0  0  0  0  0  0
  143.9646  133.2519  148.8731 C   0  0  0  0  0  0  0  0  0  0  0  0
  143.2510  132.1555  149.0883 N   0  0  0  0  0  0  0  0  0  0  0  0
  142.9914  132.1807  150.4149 N   0  0  0  0  0  0  0  0  0  0  0  0
  143.5263  133.2759  151.0565 C   0  0  0  0  0  0  0  0  0  0  0  0
  146.6854  139.1720  151.8315 C   0  0  0  0  0  0  0  0  0  0  0  0
  147.1025  140.1171  152.9696 C   0  0  0  0  0  0  0  0  0  0  0  0
  142.4544  131.4511  150.8618 H   0  0  0  0  0  0  0  0  0  0  0  0
  143.7750  144.0209  155.3958 H   0  0  0  0  0  0  0  0  0  0  0  0
  144.4074  142.5538  156.1003 H   0  0  0  0  0  0  0  0  0  0  0  0
  143.8060  142.5494  154.4556 H   0  0  0  0  0  0  0  0  0  0  0  0
  147.1239  140.8500  155.7237 H   0  0  0  0  0  0  0  0  0  0  0  0
  145.4562  141.3681  155.6864 H   0  0  0  0  0  0  0  0  0  0  0  0
  146.5730  138.4799  155.0967 H   0  0  0  0  0  0  0  0  0  0  0  0
  144.9053  138.9801  155.3036 H   0  0  0  0  0  0  0  0  0  0  0  0
  145.0455  136.9292  153.9028 H   0  0  0  0  0  0  0  0  0  0  0  0
  144.3191  138.2605  153.0337 H   0  0  0  0  0  0  0  0  0  0  0  0
  147.2146  137.3219  152.8107 H   0  0  0  0  0  0  0  0  0  0  0  0
  146.0047  137.2303  150.3489 H   0  0  0  0  0  0  0  0  0  0  0  0
  145.1498  135.6893  149.4556 H   0  0  0  0  0  0  0  0  0  0  0  0
  144.3037  133.4636  147.8700 H   0  0  0  0  0  0  0  0  0  0  0  0
  143.4114  133.4475  152.1168 H   0  0  0  0  0  0  0  0  0  0  0  0
  147.4943  139.0987  151.1033 H   0  0  0  0  0  0  0  0  0  0  0  0
  145.8318  139.5991  151.3031 H   0  0  0  0  0  0  0  0  0  0  0  0
  147.3134  141.1012  152.5508 H   0  0  0  0  0  0  0  0  0  0  0  0
  148.0281  139.7658  153.4283 H   0  0  0  0  0  0  0  0  0  0  0  0
  145.2047  140.5442  153.5412 H   0  0  0  0  0  0  0  0  0  0  0  0
  1  2  1  0  0  0  0
  1 22  1  0  0  0  0
  1 23  1  0  0  0  0
  1 24  1  0  0  0  0
  2  3  1  0  0  0  0
  3  4  2  0  0  0  0
  3  5  1  0  0  0  0
  5  6  1  0  0  0  0
  5 25  1  0  0  0  0
  5 26  1  0  0  0  0
  6 20  1  0  0  0  0
  6  7  1  0  0  0  0
  6 40  1  0  0  0  0
  7  8  1  0  0  0  0
  7 27  1  0  0  0  0
  7 28  1  0  0  0  0
  8  9  1  0  0  0  0
  8 29  1  0  0  0  0
  8 30  1  0  0  0  0
  9 10  1  0  0  0  0
  9 19  1  0  0  0  0
  9 31  1  0  0  0  0
 10 11  1  0  0  0  0
 10 32  1  0  0  0  0
 11 12  2  0  0  0  0
 11 13  1  0  0  0  0
 13 14  1  0  0  0  0
 13 33  1  0  0  0  0
 14 18  2  0  0  0  0
 14 15  1  0  0  0  0
 15 16  2  0  0  0  0
 15 34  1  0  0  0  0
 16 17  1  0  0  0  0
 17 21  1  0  0  0  0
 17 18  1  0  0  0  0
 18 35  1  0  0  0  0
 19 20  1  0  0  0  0
 19 36  1  0  0  0  0
 19 37  1  0  0  0  0
 20 38  1  0  0  0  0
 20 39  1  0  0  0  0
M  CHG  1   2  -1
M  CHG  1   6   1
M  END
> <s_m_source_file>
AV-unprocessed.smi

> <i_m_source_file_index>
1717

> <i_lp_mmshare_version>
43012

> <i_f3d_flags>
0

> <s_epik_input>
W0NIM11bTkhdQyg9TylbQ0gyXU4xW0NIMl1bQ0gyXVtDSF0oW0NIMl1bQ0gyXTEpW05IXUMoPU8pW05IXWMyW2NIXW5bbkhdW2NIXTI=

> <s_epik_cmdline>
J2VwaWtfcHl0aG9uJywgJy1waCcsICc3LjAnLCAnLXRuJywgJzgnLCAnLW1hJywgJzIwMCcsICctbWV0YWxfYmluZGluZycsICctaW1hZScsICc8aW5maWxlLm1hZT4nLCAnLW9tYWUnLCAnPG91dGZpbGUubWFlPic=

> <r_lp_tautomer_probability>
0.5

> <r_epik_Ionization_Penalty>
6.1395

> <r_epik_Ionization_Penalty_Charging>
6.13946

> <r_epik_Ionization_Penalty_Neutral>
4.21226e-05

> <r_epik_State_Penalty>
6.9595

> <r_epik_Charging_Adjusted_Penalty>
13.099

> <i_epik_Tot_Q>
0

> <i_epik_Tot_abs_Q>
2

> <r_epik_Metal_State_Penalty>
2.89141

> <b_epik_Metal_Only>
1

> <s_lp_Force_Field>
OPLS_2005

> <r_lp_Energy>
12.4493

> <b_lp_Chiralities_Consistent>
1

> <s_lp_Variant>
AV-unprocessed.smi:1717-4

> <Gold.Version>
5.8.1

> <Gold.Id.Protein>
6NUR|6NUR_protein|mol2

> <Gold.PLP.Fitness>
42.7181

> <Gold.PLP.PLP>
-30.0424

> <Gold.PLP.part.hbond>
-7.4187

> <Gold.PLP.part.metal>
0.0000

> <Gold.PLP.part.buried>
3.1667

> <Gold.PLP.part.nonpolar>
-27.2625

> <Gold.PLP.part.repulsive>
2.0916

> <Gold.PLP.ligand.clash>
0.0000

> <Gold.PLP.ligand.torsion>
0.3507

> <Gold.PLP.Chemscore.Hbond>
3.6338

> <Gold.PLP.Chemscore.CHOScore>
0.8117

> <Gold.PLP.Chemscore.Metal>
0.0000

> <Gold.Chemscore.Hbonds>
donor molecule, donor type, donor heavy atom, donor atom, acceptor molecule, acceptor atom, score
      L1  H     6    40       P1 10175  2.00
      L1  H    13    33       P1  7921  0.27
      L1  H    17    21       P1 10952  0.06
      P1  H  8022  8030       L1     4  0.30
      P1  H 10785 10796       L1    16  0.98
      L1  C    15    34       P1  7921  0.78

> <Gold.PLP.Chemscore.Internal.Correction>
0.0406

> <Gold.Rescore>
     Score         DG    S(hbond)    S(metal)    S(lipo)     H(rot)  DE(clash)    DE(int)     intcor
      9.31     -13.83       1.86        0.00      56.72       1.75       0.23       4.29       ----

> <Gold.Chemscore.Fitness>
9.3067

> <Gold.Chemscore.DG>
-13.8295

> <Gold.Chemscore.ZeroCoef>
-5.4800

> <Gold.Chemscore.Hbond>
1.8577

> <Gold.Chemscore.Metal>
0.0000

> <Gold.Chemscore.Lipo>
56.7210

> <Gold.Chemscore.Internal_Hbond>
0.0000

> <Gold.Chemscore.DEClash>
0.2305

> <Gold.Chemscore.DEInternal>
4.2923

> <Gold.Chemscore.Rot>
1.7546

> <Gold.Chemscore.Internal.Correction>
   9.000000E+99

> <Gold.Chemscore.Hbonds>
donor molecule, donor type, donor heavy atom, donor atom, acceptor molecule, acceptor atom, score
      L1  H     6    40       P1 10175  0.98
      L1  H    13    33       P1  7921  0.27
      L1  H    17    21       P1 10952  0.01
      P1  H  8022  8030       L1     4  0.28
      P1  H 10785 10796       L1    16  0.26

> <Gold.Chemscore.Hbond.Weighted>
-6.2049

> <Gold.Chemscore.Metal.Weighted>
-0.0000

> <Gold.Chemscore.Lipo.Weighted>
-6.6364

> <Gold.Chemscore.Internal_Hbond.Weighted>
0.0000

> <Gold.Chemscore.DEClash.Weighted>
0.2305

> <Gold.Chemscore.DEInternal.Weighted>
4.2923

> <Gold.Chemscore.Rot.Weighted>
4.4917

> <Gold.Chemscore.Internal.Correction.Weighted>
   9.000000E+99

> <Gold.Protein.RotatedTorsions>
[ 6907 6896 6895 6894 ] final  -13.37 input  -60.11 | X-H torsion
[ 7974 7965 7964 7962 ] final   23.63 input  175.53 | X-H torsion
[ 8008 7997 7996 7995 ] final  105.81 input   59.86 | X-H torsion
[ 10167 10162 10161 10158 ] final  -56.30 input  -65.29 | X-H torsion
[ 10718 10713 10712 10709 ] final  142.82 input   66.30 | X-H torsion
[ 10763 10752 10751 10750 ] final -121.92 input  -60.55 | X-H torsion
[ 11005 11000 10999 10996 ] final  153.36 input  -57.11 | X-H torsion

> <Gold.Protein.ActiveResidues>
 VAL166  LYS551  ARG553  GLY616  TRP617  ASP618  TYR619  PRO620  LYS621  CYS622 
 ASP623  PHE694  ASN695  SER759  ASP760  ASP761  ALA762  ILE779  LEU786  VAL792 
 PHE793  MET794  SER795  GLU796  ALA797  LYS798  CYS799  TRP800  GLU811  SER814 

> <Gold.Protein.RotatedAtoms>
  151.3560  135.0894  159.9418 H   0  0  0  0  0  0  0  0  0  0  0  0  # atno 6907 bound_to 6896
  152.5174  133.9305  159.7588 H   0  0  0  0  0  0  0  0  0  0  0  0  # atno 6908 bound_to 6896
  150.9690  133.6310  159.2770 H   0  0  0  0  0  0  0  0  0  0  0  0  # atno 6909 bound_to 6896
  146.1975  139.7718  142.8786 H   0  0  0  0  0  0  0  0  0  0  0  0  # atno 7974 bound_to 7965
  156.1691  140.3124  155.8941 H   0  0  0  0  0  0  0  0  0  0  0  0  # atno 8008 bound_to 7997
  155.3625  140.0477  157.3063 H   0  0  0  0  0  0  0  0  0  0  0  0  # atno 8009 bound_to 7997
  154.5222  140.2202  155.8965 H   0  0  0  0  0  0  0  0  0  0  0  0  # atno 8010 bound_to 7997
  140.6325  143.2466  151.5205 H   0  0  0  0  0  0  0  0  0  0  0  0  # atno 10167 bound_to 10162
  157.3762  131.0986  151.0782 H   0  0  0  0  0  0  0  0  0  0  0  0  # atno 10718 bound_to 10713
  154.8679  135.4151  154.2699 H   0  0  0  0  0  0  0  0  0  0  0  0  # atno 10763 bound_to 10752
  153.3611  135.7003  153.6717 H   0  0  0  0  0  0  0  0  0  0  0  0  # atno 10764 bound_to 10752
  153.5618  135.3608  155.2774 H   0  0  0  0  0  0  0  0  0  0  0  0  # atno 10765 bound_to 10752
  140.1390  134.8751  157.2306 H   0  0  0  0  0  0  0  0  0  0  0  0  # atno 11005 bound_to 11000
  145.3593  141.0323  143.3294 LP  0  0  0  0  0  0  0  0  0  0  0  0  # atno 17320 bound_to 7965
  144.8612  139.5174  143.6811 LP  0  0  0  0  0  0  0  0  0  0  0  0  # atno 17321 bound_to 7965
  139.5538  144.2328  152.1576 LP  0  0  0  0  0  0  0  0  0  0  0  0  # atno 17342 bound_to 10162
  140.1576  144.5056  150.6651 LP  0  0  0  0  0  0  0  0  0  0  0  0  # atno 17343 bound_to 10162
  157.1868  130.6334  149.5690 LP  0  0  0  0  0  0  0  0  0  0  0  0  # atno 17370 bound_to 10713
  155.9766  130.4735  150.6537 LP  0  0  0  0  0  0  0  0  0  0  0  0  # atno 17371 bound_to 10713
  140.2745  134.3421  155.7362 LP  0  0  0  0  0  0  0  0  0  0  0  0  # atno 17394 bound_to 11000
  141.2183  133.7443  156.9273 LP  0  0  0  0  0  0  0  0  0  0  0  0  # atno 17395 bound_to 11000

$$$$
