AV-unprocessed.smi:2204|AV-procd|sdf|8939|dock4
  -GOLD-   2272012153D 1   1.00000     0.00000
 Structure written by MMmdl.
 39 40  0  0  0  0  0  0  0  0  1 V2000
  153.6218  141.9592  162.1801 C   0  0  0  0  0  0  0  0  0  0  0  0
  152.8595  142.8612  161.2551 C   0  0  0  0  0  0  0  0  0  0  0  0
  152.0523  143.9842  161.5878 C   0  0  0  0  0  0  0  0  0  0  0  0
  151.5763  144.4259  160.3856 C   0  0  0  0  0  0  0  0  0  0  0  0
  150.6559  145.5603  160.0761 C   0  0  0  0  0  0  0  0  0  0  0  0
  152.1005  143.5910  159.4138 N   0  0  0  0  0  0  0  0  0  0  0  0
  151.8854  143.6039  157.9717 C   0  0  0  0  0  0  0  0  0  0  0  0
  151.2485  142.2987  157.4832 C   0  0  0  0  0  0  0  0  0  0  0  0
  151.5779  141.2267  157.9895 O   0  0  0  0  0  0  0  0  0  0  0  0
  150.3288  142.4100  156.5118 N   0  0  0  0  0  0  0  0  0  0  0  0
  149.4613  141.3466  156.0146 C   0  0  2  0  0  0  0  0  0  0  0  0
  148.9318  140.5110  157.1887 C   0  0  0  0  0  0  0  0  0  0  0  0
  150.2246  140.4916  154.9819 C   0  0  1  0  0  0  0  0  0  0  0  0
  151.5014  139.8232  155.5104 C   0  0  0  0  0  0  0  0  0  0  0  0
  151.5820  138.5758  154.6610 C   0  0  0  0  0  0  0  0  0  0  0  0
  150.1117  138.1944  154.5456 C   0  0  0  0  0  0  0  0  0  0  0  0
  149.4049  139.4290  154.4915 O   0  0  0  0  0  0  0  0  0  0  0  0
  152.8901  142.6354  159.9524 N   0  0  0  0  0  0  0  0  0  0  0  0
  153.6923  142.3894  163.1793 H   0  0  0  0  0  0  0  0  0  0  0  0
  154.6370  141.7889  161.8205 H   0  0  0  0  0  0  0  0  0  0  0  0
  153.1314  140.9897  162.2704 H   0  0  0  0  0  0  0  0  0  0  0  0
  151.8436  144.3958  162.5642 H   0  0  0  0  0  0  0  0  0  0  0  0
  150.3426  146.0675  160.9891 H   0  0  0  0  0  0  0  0  0  0  0  0
  149.7597  145.2055  159.5665 H   0  0  0  0  0  0  0  0  0  0  0  0
  151.1450  146.2947  159.4359 H   0  0  0  0  0  0  0  0  0  0  0  0
  151.2456  144.4443  157.7021 H   0  0  0  0  0  0  0  0  0  0  0  0
  152.8435  143.7620  157.4742 H   0  0  0  0  0  0  0  0  0  0  0  0
  150.1422  143.3357  156.1542 H   0  0  0  0  0  0  0  0  0  0  0  0
  148.5995  141.7799  155.5043 H   0  0  0  0  0  0  0  0  0  0  0  0
  148.2685  139.7201  156.8378 H   0  0  0  0  0  0  0  0  0  0  0  0
  148.3658  141.1298  157.8857 H   0  0  0  0  0  0  0  0  0  0  0  0
  149.7447  140.0417  157.7440 H   0  0  0  0  0  0  0  0  0  0  0  0
  150.4921  141.1093  154.1233 H   0  0  0  0  0  0  0  0  0  0  0  0
  152.3813  140.4601  155.4175 H   0  0  0  0  0  0  0  0  0  0  0  0
  151.4043  139.5387  156.5585 H   0  0  0  0  0  0  0  0  0  0  0  0
  151.9894  138.8140  153.6778 H   0  0  0  0  0  0  0  0  0  0  0  0
  152.1924  137.7906  155.1079 H   0  0  0  0  0  0  0  0  0  0  0  0
  149.9045  137.5750  153.6730 H   0  0  0  0  0  0  0  0  0  0  0  0
  149.7906  137.6488  155.4331 H   0  0  0  0  0  0  0  0  0  0  0  0
  1  2  1  0  0  0  0
  1 19  1  0  0  0  0
  1 20  1  0  0  0  0
  1 21  1  0  0  0  0
  2 18  2  0  0  0  0
  2  3  1  0  0  0  0
  3  4  2  0  0  0  0
  3 22  1  0  0  0  0
  4  5  1  0  0  0  0
  4  6  1  0  0  0  0
  5 23  1  0  0  0  0
  5 24  1  0  0  0  0
  5 25  1  0  0  0  0
  6  7  1  0  0  0  0
  6 18  1  0  0  0  0
  7  8  1  0  0  0  0
  7 26  1  0  0  0  0
  7 27  1  0  0  0  0
  8  9  2  0  0  0  0
  8 10  1  0  0  0  0
 10 11  1  0  0  0  0
 10 28  1  0  0  0  0
 11 12  1  0  0  0  0
 11 13  1  0  0  0  0
 11 29  1  0  0  0  0
 12 30  1  0  0  0  0
 12 31  1  0  0  0  0
 12 32  1  0  0  0  0
 13 17  1  0  0  0  0
 13 14  1  0  0  0  0
 13 33  1  0  0  0  0
 14 15  1  0  0  0  0
 14 34  1  0  0  0  0
 14 35  1  0  0  0  0
 15 16  1  0  0  0  0
 15 36  1  0  0  0  0
 15 37  1  0  0  0  0
 16 17  1  0  0  0  0
 16 38  1  0  0  0  0
 16 39  1  0  0  0  0
M  END
> <s_m_source_file>
AV-unprocessed.smi

> <i_m_source_file_index>
2204

> <i_lp_mmshare_version>
43012

> <i_f3d_flags>
0

> <s_epik_input>
W0NIM11jMVtjSF1jKFtDSDNdKW4objEpW0NIMl1DKD1PKVtOSF1bQ0BIXShbQ0gzXSlbQ0BASF0yW0NIMl1bQ0gyXVtDSDJdTzI=

> <s_epik_cmdline>
J2VwaWtfcHl0aG9uJywgJy1waCcsICc3LjAnLCAnLXRuJywgJzgnLCAnLW1hJywgJzIwMCcsICctbWV0YWxfYmluZGluZycsICctaW1hZScsICc8aW5maWxlLm1hZT4nLCAnLW9tYWUnLCAnPG91dGZpbGUubWFlPic=

> <r_lp_tautomer_probability>
1

> <r_epik_Ionization_Penalty>
0.000433354

> <r_epik_Ionization_Penalty_Charging>
0

> <r_epik_Ionization_Penalty_Neutral>
0.000433354

> <r_epik_State_Penalty>
-0

> <r_epik_Charging_Adjusted_Penalty>
0

> <i_epik_Tot_Q>
0

> <i_epik_Tot_abs_Q>
0

> <r_epik_Metal_State_Penalty>
-0

> <b_epik_Metal_Only>
0

> <s_lp_Force_Field>
OPLS_2005

> <r_lp_Energy>
16.4317

> <b_lp_Chiralities_Consistent>
1

> <s_lp_Variant>
AV-unprocessed.smi:2204-3

> <Gold.Version>
5.8.1

> <Gold.Id.Protein>
6NUR|6NUR_protein|mol2

> <Gold.PLP.Fitness>
44.6635

> <Gold.PLP.PLP>
-43.0123

> <Gold.PLP.part.hbond>
-1.0000

> <Gold.PLP.part.metal>
0.0000

> <Gold.PLP.part.buried>
-4.2112

> <Gold.PLP.part.nonpolar>
-38.0528

> <Gold.PLP.part.repulsive>
0.1910

> <Gold.PLP.ligand.clash>
0.0000

> <Gold.PLP.ligand.torsion>
0.6066

> <Gold.PLP.Chemscore.Hbond>
0.9440

> <Gold.PLP.Chemscore.CHOScore>
0.0000

> <Gold.PLP.Chemscore.Metal>
0.0000

> <Gold.Chemscore.Hbonds>
donor molecule, donor type, donor heavy atom, donor atom, acceptor molecule, acceptor atom, score
      L1  H    10    28       P1  8028  1.00

> <Gold.PLP.Chemscore.Internal.Correction>
0.0325

> <Gold.Rescore>
     Score         DG    S(hbond)    S(metal)    S(lipo)     H(rot)  DE(clash)    DE(int)     intcor
     12.34     -17.03       0.98        0.00     103.56       1.50       0.04       4.66       ----

> <Gold.Chemscore.Fitness>
12.3400

> <Gold.Chemscore.DG>
-17.0342

> <Gold.Chemscore.ZeroCoef>
-5.4800

> <Gold.Chemscore.Hbond>
0.9817

> <Gold.Chemscore.Metal>
0.0000

> <Gold.Chemscore.Lipo>
103.5607

> <Gold.Chemscore.Internal_Hbond>
0.0000

> <Gold.Chemscore.DEClash>
0.0377

> <Gold.Chemscore.DEInternal>
4.6564

> <Gold.Chemscore.Rot>
1.5005

> <Gold.Chemscore.Internal.Correction>
   9.000000E+99

> <Gold.Chemscore.Hbonds>
donor molecule, donor type, donor heavy atom, donor atom, acceptor molecule, acceptor atom, score
      L1  H    10    28       P1  8028  0.95

> <Gold.Chemscore.Hbond.Weighted>
-3.2788

> <Gold.Chemscore.Metal.Weighted>
-0.0000

> <Gold.Chemscore.Lipo.Weighted>
-12.1166

> <Gold.Chemscore.Internal_Hbond.Weighted>
0.0000

> <Gold.Chemscore.DEClash.Weighted>
0.0377

> <Gold.Chemscore.DEInternal.Weighted>
4.6564

> <Gold.Chemscore.Rot.Weighted>
3.8412

> <Gold.Chemscore.Internal.Correction.Weighted>
   9.000000E+99

> <Gold.Protein.RotatedTorsions>
[ 6907 6896 6895 6894 ] final  177.78 input  -60.11 | X-H torsion
[ 7974 7965 7964 7962 ] final  -63.25 input  175.53 | X-H torsion
[ 8008 7997 7996 7995 ] final  -92.10 input   59.86 | X-H torsion
[ 10167 10162 10161 10158 ] final  111.81 input  -65.29 | X-H torsion
[ 10718 10713 10712 10709 ] final  178.78 input   66.30 | X-H torsion
[ 10763 10752 10751 10750 ] final   46.47 input  -60.55 | X-H torsion
[ 11005 11000 10999 10996 ] final  -15.46 input  -57.11 | X-H torsion

> <Gold.Protein.ActiveResidues>
 VAL166  LYS551  ARG553  GLY616  TRP617  ASP618  TYR619  PRO620  LYS621  CYS622 
 ASP623  PHE694  ASN695  SER759  ASP760  ASP761  ALA762  ILE779  LEU786  VAL792 
 PHE793  MET794  SER795  GLU796  ALA797  LYS798  CYS799  TRP800  GLU811  SER814 

> <Gold.Protein.RotatedAtoms>
  151.6984  133.3311  159.3260 H   0  0  0  0  0  0  0  0  0  0  0  0  # atno 6907 bound_to 6896
  150.7747  134.6637  159.6363 H   0  0  0  0  0  0  0  0  0  0  0  0  # atno 6908 bound_to 6896
  152.3784  134.6630  160.0203 H   0  0  0  0  0  0  0  0  0  0  0  0  # atno 6909 bound_to 6896
  145.7814  140.8760  143.0328 H   0  0  0  0  0  0  0  0  0  0  0  0  # atno 7974 bound_to 7965
  154.7189  140.0512  157.0620 H   0  0  0  0  0  0  0  0  0  0  0  0  # atno 8008 bound_to 7997
  155.0454  140.3173  155.4691 H   0  0  0  0  0  0  0  0  0  0  0  0  # atno 8009 bound_to 7997
  156.2811  140.2125  156.5579 H   0  0  0  0  0  0  0  0  0  0  0  0  # atno 8010 bound_to 7997
  139.6583  144.7129  151.1915 H   0  0  0  0  0  0  0  0  0  0  0  0  # atno 10167 bound_to 10162
  156.8855  130.9830  151.3056 H   0  0  0  0  0  0  0  0  0  0  0  0  # atno 10718 bound_to 10713
  152.9810  135.6007  154.3605 H   0  0  0  0  0  0  0  0  0  0  0  0  # atno 10763 bound_to 10752
  154.3287  135.2769  155.2484 H   0  0  0  0  0  0  0  0  0  0  0  0  # atno 10764 bound_to 10752
  154.4618  135.5964  153.6316 H   0  0  0  0  0  0  0  0  0  0  0  0  # atno 10765 bound_to 10752
  140.7969  133.8244  155.9432 H   0  0  0  0  0  0  0  0  0  0  0  0  # atno 11005 bound_to 11000
  144.6796  139.9994  143.7484 LP  0  0  0  0  0  0  0  0  0  0  0  0  # atno 17320 bound_to 7965
  146.0070  139.3138  143.0893 LP  0  0  0  0  0  0  0  0  0  0  0  0  # atno 17321 bound_to 7965
  140.7569  143.6036  150.8675 LP  0  0  0  0  0  0  0  0  0  0  0  0  # atno 17342 bound_to 10162
  139.9691  143.6077  152.2979 LP  0  0  0  0  0  0  0  0  0  0  0  0  # atno 17343 bound_to 10162
  157.6115  130.8586  149.8959 LP  0  0  0  0  0  0  0  0  0  0  0  0  # atno 17370 bound_to 10713
  156.0655  130.3693  150.0888 LP  0  0  0  0  0  0  0  0  0  0  0  0  # atno 17371 bound_to 10713
  140.9334  134.1993  157.4848 LP  0  0  0  0  0  0  0  0  0  0  0  0  # atno 17394 bound_to 11000
  139.8725  134.9842  156.5230 LP  0  0  0  0  0  0  0  0  0  0  0  0  # atno 17395 bound_to 11000

$$$$
