AV-unprocessed.smi:2997|AV-procd|sdf|11413|dock1
  -GOLD-   2272016333D 1   1.00000     0.00000
 Structure written by MMmdl.
 38 40  0  0  0  0  0  0  0  0  1 V2000
  153.9145  142.6093  163.5640 C   0  0  0  0  0  0  0  0  0  0  0  0
  153.2773  142.7310  162.1910 C   0  0  0  0  0  0  0  0  0  0  0  0
  152.3991  143.8080  161.9344 C   0  0  0  0  0  0  0  0  0  0  0  0
  151.7866  143.9576  160.6709 C   0  0  0  0  0  0  0  0  0  0  0  0
  150.9090  144.9223  160.2062 N   0  0  0  0  0  0  0  0  0  0  0  0
  150.7017  144.5156  158.9569 C   0  0  0  0  0  0  0  0  0  0  0  0
  151.3422  143.4000  158.5571 N   0  0  0  0  0  0  0  0  0  0  0  0
  151.2737  142.7674  157.2520 C   0  0  0  0  0  0  0  0  0  0  0  0
  150.0139  141.8972  157.0845 C   0  0  1  0  0  0  0  0  0  0  0  0
  148.8644  142.6515  157.4234 O   0  0  0  0  0  0  0  0  0  0  0  0
  149.8781  141.3534  155.6491 C   0  0  0  0  0  0  0  0  0  0  0  0
  150.6873  140.1699  155.4173 N   0  0  0  0  0  0  0  0  0  0  0  0
  151.4768  139.4813  156.3143 C   0  0  0  0  0  0  0  0  0  0  0  0
  152.0405  138.4360  155.6405 C   0  0  0  0  0  0  0  0  0  0  0  0
  151.5275  138.5693  154.3199 C   0  0  0  0  0  0  0  0  0  0  0  0
  150.7147  139.6057  154.1903 N   0  0  0  0  0  0  0  0  0  0  0  0
  152.0782  142.9919  159.6636 C   0  0  0  0  0  0  0  0  0  0  0  0
  152.9493  141.9155  159.9069 C   0  0  0  0  0  0  0  0  0  0  0  0
  153.5531  141.7811  161.1748 C   0  0  0  0  0  0  0  0  0  0  0  0
  154.4922  140.6152  161.4288 C   0  0  0  0  0  0  0  0  0  0  0  0
  153.6227  143.4354  164.2131 H   0  0  0  0  0  0  0  0  0  0  0  0
  155.0017  142.6163  163.4835 H   0  0  0  0  0  0  0  0  0  0  0  0
  153.6081  141.6806  164.0458 H   0  0  0  0  0  0  0  0  0  0  0  0
  152.1876  144.5311  162.7084 H   0  0  0  0  0  0  0  0  0  0  0  0
  150.0442  145.0585  158.2937 H   0  0  0  0  0  0  0  0  0  0  0  0
  151.3100  143.5420  156.4843 H   0  0  0  0  0  0  0  0  0  0  0  0
  152.1703  142.1598  157.1231 H   0  0  0  0  0  0  0  0  0  0  0  0
  150.0721  141.0563  157.7771 H   0  0  0  0  0  0  0  0  0  0  0  0
  148.9768  143.5330  157.1025 H   0  0  0  0  0  0  0  0  0  0  0  0
  148.8373  141.1095  155.4317 H   0  0  0  0  0  0  0  0  0  0  0  0
  150.1759  142.1160  154.9281 H   0  0  0  0  0  0  0  0  0  0  0  0
  151.5717  139.7898  157.3449 H   0  0  0  0  0  0  0  0  0  0  0  0
  152.7163  137.6900  156.0313 H   0  0  0  0  0  0  0  0  0  0  0  0
  151.7191  137.9471  153.4582 H   0  0  0  0  0  0  0  0  0  0  0  0
  153.1493  141.1993  159.1235 H   0  0  0  0  0  0  0  0  0  0  0  0
  154.5801  139.9764  160.5495 H   0  0  0  0  0  0  0  0  0  0  0  0
  154.1263  140.0016  162.2522 H   0  0  0  0  0  0  0  0  0  0  0  0
  155.4893  140.9759  161.6813 H   0  0  0  0  0  0  0  0  0  0  0  0
  1  2  1  0  0  0  0
  1 21  1  0  0  0  0
  1 22  1  0  0  0  0
  1 23  1  0  0  0  0
  2 19  1  0  0  0  0
  2  3  2  0  0  0  0
  3  4  1  0  0  0  0
  3 24  1  0  0  0  0
  4 17  2  0  0  0  0
  4  5  1  0  0  0  0
  5  6  2  0  0  0  0
  6  7  1  0  0  0  0
  6 25  1  0  0  0  0
  7  8  1  0  0  0  0
  7 17  1  0  0  0  0
  8  9  1  0  0  0  0
  8 26  1  0  0  0  0
  8 27  1  0  0  0  0
  9 10  1  0  0  0  0
  9 11  1  0  0  0  0
  9 28  1  0  0  0  0
 10 29  1  0  0  0  0
 11 12  1  0  0  0  0
 11 30  1  0  0  0  0
 11 31  1  0  0  0  0
 12 16  1  0  0  0  0
 12 13  1  0  0  0  0
 13 14  2  0  0  0  0
 13 32  1  0  0  0  0
 14 15  1  0  0  0  0
 14 33  1  0  0  0  0
 15 16  2  0  0  0  0
 15 34  1  0  0  0  0
 17 18  1  0  0  0  0
 18 19  2  0  0  0  0
 18 35  1  0  0  0  0
 19 20  1  0  0  0  0
 20 36  1  0  0  0  0
 20 37  1  0  0  0  0
 20 38  1  0  0  0  0
M  END
> <s_m_source_file>
AV-unprocessed.smi

> <i_m_source_file_index>
2997

> <i_lp_mmshare_version>
43012

> <i_f3d_flags>
0

> <s_epik_input>
W0NIM11jKFtjSF0xKWMoW0NIM10pW2NIXWMoYzEyKW4oW2NIXW4yKVtDSDJdW0NASF0oW09IXSlbQ0gyXW4zW2NIXVtjSF1bY0hdbjM=

> <s_epik_cmdline>
J2VwaWtfcHl0aG9uJywgJy1waCcsICc3LjAnLCAnLXRuJywgJzgnLCAnLW1hJywgJzIwMCcsICctbWV0YWxfYmluZGluZycsICctaW1hZScsICc8aW5maWxlLm1hZT4nLCAnLW9tYWUnLCAnPG91dGZpbGUubWFlPic=

> <r_lp_tautomer_probability>
1

> <r_epik_Ionization_Penalty>
0.102113

> <r_epik_Ionization_Penalty_Charging>
0

> <r_epik_Ionization_Penalty_Neutral>
0.102113

> <r_epik_State_Penalty>
0.0920694

> <r_epik_Charging_Adjusted_Penalty>
0.0920694

> <i_epik_Tot_Q>
0

> <i_epik_Tot_abs_Q>
0

> <r_epik_Metal_State_Penalty>
0.0784306

> <b_epik_Metal_Only>
0

> <s_lp_Force_Field>
OPLS_2005

> <r_lp_Energy>
7.68531

> <b_lp_Chiralities_Consistent>
1

> <s_lp_Variant>
AV-unprocessed.smi:2997-2

> <Gold.Version>
5.8.1

> <Gold.Id.Protein>
6NUR|6NUR_protein|mol2

> <Gold.PLP.Fitness>
60.4153

> <Gold.PLP.PLP>
-52.2618

> <Gold.PLP.part.hbond>
-2.0000

> <Gold.PLP.part.metal>
0.0000

> <Gold.PLP.part.buried>
-5.7303

> <Gold.PLP.part.nonpolar>
-44.6700

> <Gold.PLP.part.repulsive>
0.3242

> <Gold.PLP.ligand.clash>
0.0000

> <Gold.PLP.ligand.torsion>
0.5617

> <Gold.PLP.Chemscore.Hbond>
1.7500

> <Gold.PLP.Chemscore.CHOScore>
1.3279

> <Gold.PLP.Chemscore.Metal>
0.0000

> <Gold.Chemscore.Hbonds>
donor molecule, donor type, donor heavy atom, donor atom, acceptor molecule, acceptor atom, score
      L1  H    10    29       P1  8028  0.98
      P1  H  7989  7998       L1    16  0.75
      L1  C     6    25       P1  8028  0.05
      L1  C     6    25       P1  8029  1.00
      L1  C    15    34       P1  7949  0.26

> <Gold.PLP.Chemscore.Internal.Correction>
0.0432

> <Gold.Rescore>
     Score         DG    S(hbond)    S(metal)    S(lipo)     H(rot)  DE(clash)    DE(int)     intcor
     17.78     -18.40       0.99        0.00     129.25       2.15       0.02       0.60       ----

> <Gold.Chemscore.Fitness>
17.7833

> <Gold.Chemscore.DG>
-18.3992

> <Gold.Chemscore.ZeroCoef>
-5.4800

> <Gold.Chemscore.Hbond>
0.9909

> <Gold.Chemscore.Metal>
0.0000

> <Gold.Chemscore.Lipo>
129.2515

> <Gold.Chemscore.Internal_Hbond>
0.0000

> <Gold.Chemscore.DEClash>
0.0174

> <Gold.Chemscore.DEInternal>
0.5985

> <Gold.Chemscore.Rot>
2.1534

> <Gold.Chemscore.Internal.Correction>
   9.000000E+99

> <Gold.Chemscore.Hbonds>
donor molecule, donor type, donor heavy atom, donor atom, acceptor molecule, acceptor atom, score
      L1  H    10    29       P1  8028  0.47
      P1  H  7989  7998       L1    16  0.06

> <Gold.Chemscore.Hbond.Weighted>
-3.3095

> <Gold.Chemscore.Metal.Weighted>
-0.0000

> <Gold.Chemscore.Lipo.Weighted>
-15.1224

> <Gold.Chemscore.Internal_Hbond.Weighted>
0.0000

> <Gold.Chemscore.DEClash.Weighted>
0.0174

> <Gold.Chemscore.DEInternal.Weighted>
0.5985

> <Gold.Chemscore.Rot.Weighted>
5.5127

> <Gold.Chemscore.Internal.Correction.Weighted>
   9.000000E+99

> <Gold.Protein.RotatedTorsions>
[ 6907 6896 6895 6894 ] final -139.13 input  -60.11 | X-H torsion
[ 7974 7965 7964 7962 ] final  -71.54 input  175.53 | X-H torsion
[ 8008 7997 7996 7995 ] final   42.78 input   59.86 | X-H torsion
[ 10167 10162 10161 10158 ] final  -69.80 input  -65.29 | X-H torsion
[ 10718 10713 10712 10709 ] final  -94.77 input   66.30 | X-H torsion
[ 10763 10752 10751 10750 ] final   18.25 input  -60.55 | X-H torsion
[ 11005 11000 10999 10996 ] final -137.68 input  -57.11 | X-H torsion

> <Gold.Protein.ActiveResidues>
 VAL166  LYS551  ARG553  GLY616  TRP617  ASP618  TYR619  PRO620  LYS621  CYS622 
 ASP623  PHE694  ASN695  SER759  ASP760  ASP761  ALA762  ILE779  LEU786  VAL792 
 PHE793  MET794  SER795  GLU796  ALA797  LYS798  CYS799  TRP800  GLU811  SER814 

> <Gold.Protein.RotatedAtoms>
  151.0439  133.5682  159.2648 H   0  0  0  0  0  0  0  0  0  0  0  0  # atno 6907 bound_to 6896
  151.2719  135.0686  159.9147 H   0  0  0  0  0  0  0  0  0  0  0  0  # atno 6908 bound_to 6896
  152.5369  134.0167  159.8017 H   0  0  0  0  0  0  0  0  0  0  0  0  # atno 6909 bound_to 6896
  145.6768  140.9202  143.0853 H   0  0  0  0  0  0  0  0  0  0  0  0  # atno 7974 bound_to 7965
  155.2919  140.3379  155.4252 H   0  0  0  0  0  0  0  0  0  0  0  0  # atno 8008 bound_to 7997
  156.2042  140.1744  156.7875 H   0  0  0  0  0  0  0  0  0  0  0  0  # atno 8009 bound_to 7997
  154.5598  140.0689  156.8786 H   0  0  0  0  0  0  0  0  0  0  0  0  # atno 8010 bound_to 7997
  140.5402  143.2315  151.7103 H   0  0  0  0  0  0  0  0  0  0  0  0  # atno 10167 bound_to 10162
  156.0032  130.5081  150.5976 H   0  0  0  0  0  0  0  0  0  0  0  0  # atno 10718 bound_to 10713
  153.1266  135.6731  153.9247 H   0  0  0  0  0  0  0  0  0  0  0  0  # atno 10763 bound_to 10752
  153.8746  135.3065  155.3444 H   0  0  0  0  0  0  0  0  0  0  0  0  # atno 10764 bound_to 10752
  154.7670  135.4959  153.9654 H   0  0  0  0  0  0  0  0  0  0  0  0  # atno 10765 bound_to 10752
  140.8688  134.2077  157.4663 H   0  0  0  0  0  0  0  0  0  0  0  0  # atno 11005 bound_to 11000
  144.7039  139.8644  143.7436 LP  0  0  0  0  0  0  0  0  0  0  0  0  # atno 17320 bound_to 7965
  146.0998  139.3993  143.0353 LP  0  0  0  0  0  0  0  0  0  0  0  0  # atno 17321 bound_to 7965
  139.4986  144.3980  152.0211 LP  0  0  0  0  0  0  0  0  0  0  0  0  # atno 17342 bound_to 10162
  140.3088  144.3561  150.6039 LP  0  0  0  0  0  0  0  0  0  0  0  0  # atno 17343 bound_to 10162
  157.3831  131.0784  151.1460 LP  0  0  0  0  0  0  0  0  0  0  0  0  # atno 17370 bound_to 10713
  157.2176  130.6466  149.5798 LP  0  0  0  0  0  0  0  0  0  0  0  0  # atno 17371 bound_to 10713
  139.8711  134.9764  156.4921 LP  0  0  0  0  0  0  0  0  0  0  0  0  # atno 17394 bound_to 11000
  140.8597  133.8069  155.9253 LP  0  0  0  0  0  0  0  0  0  0  0  0  # atno 17395 bound_to 11000

$$$$
