AV-unprocessed.smi:1190|AV-procd|sdf|4980|dock4
  -GOLD-   22720 3573D 1   1.00000     0.00000
 Structure written by MMmdl.
 43 44  0  0  0  0  0  0  0  0  1 V2000
  151.7635  141.4051  158.1059 C   0  0  0  0  0  0  0  0  0  0  0  0
  151.6139  141.3805  156.6905 O   0  0  0  0  0  0  0  0  0  0  0  0
  151.0197  140.2766  156.1140 C   0  0  0  0  0  0  0  0  0  0  0  0
  150.2917  139.3961  156.9382 C   0  0  0  0  0  0  0  0  0  0  0  0
  149.6834  138.2690  156.3547 C   0  0  0  0  0  0  0  0  0  0  0  0
  149.8219  138.0501  154.9693 C   0  0  0  0  0  0  0  0  0  0  0  0
  149.1786  136.9104  154.4141 N   0  0  0  0  0  0  0  0  0  0  0  0
  148.4965  135.9349  155.0383 C   0  0  0  0  0  0  0  0  0  0  0  0
  148.2809  135.8748  156.2484 O   0  0  0  0  0  0  0  0  0  0  0  0
  148.0627  135.0183  154.1620 N   0  0  0  0  0  0  0  0  0  0  0  0
  147.3216  133.8028  154.4935 C   0  0  0  0  0  0  0  0  0  0  0  0
  147.1181  132.8836  153.2603 C   0  0  2  0  0  0  0  0  0  0  0  0
  148.4078  132.9161  152.4089 C   0  0  0  0  0  0  0  0  0  0  0  0
  145.8920  133.1784  152.4862 N   0  0  0  0  0  0  0  0  0  0  0  0
  145.9490  134.4797  151.8137 C   0  0  0  0  0  0  0  0  0  0  0  0
  144.6790  134.7789  150.9983 C   0  0  0  0  0  0  0  0  0  0  0  0
  144.4670  133.7442  150.0467 O   0  0  0  0  0  0  0  0  0  0  0  0
  144.3385  132.4684  150.6604 C   0  0  0  0  0  0  0  0  0  0  0  0
  145.6051  132.1555  151.4759 C   0  0  0  0  0  0  0  0  0  0  0  0
  150.5651  138.9993  154.2248 C   0  0  0  0  0  0  0  0  0  0  0  0
  151.1522  140.0816  154.7789 N   0  0  0  0  0  0  0  0  0  0  0  0
  152.2584  142.3303  158.4006 H   0  0  0  0  0  0  0  0  0  0  0  0
  152.3784  140.5758  158.4583 H   0  0  0  0  0  0  0  0  0  0  0  0
  150.7958  141.3727  158.6083 H   0  0  0  0  0  0  0  0  0  0  0  0
  150.2002  139.5828  157.9982 H   0  0  0  0  0  0  0  0  0  0  0  0
  149.1184  137.5813  156.9672 H   0  0  0  0  0  0  0  0  0  0  0  0
  149.2156  136.8453  153.4075 H   0  0  0  0  0  0  0  0  0  0  0  0
  148.2896  135.1526  153.1876 H   0  0  0  0  0  0  0  0  0  0  0  0
  147.8182  133.2507  155.2931 H   0  0  0  0  0  0  0  0  0  0  0  0
  146.3642  134.0945  154.9236 H   0  0  0  0  0  0  0  0  0  0  0  0
  147.0327  131.8671  153.6474 H   0  0  0  0  0  0  0  0  0  0  0  0
  149.2963  132.8154  153.0332 H   0  0  0  0  0  0  0  0  0  0  0  0
  148.4993  133.8511  151.8557 H   0  0  0  0  0  0  0  0  0  0  0  0
  148.4462  132.0962  151.6925 H   0  0  0  0  0  0  0  0  0  0  0  0
  146.0668  135.2815  152.5413 H   0  0  0  0  0  0  0  0  0  0  0  0
  146.8188  134.5190  151.1561 H   0  0  0  0  0  0  0  0  0  0  0  0
  143.8110  134.8652  151.6538 H   0  0  0  0  0  0  0  0  0  0  0  0
  144.7803  135.7292  150.4742 H   0  0  0  0  0  0  0  0  0  0  0  0
  143.4539  132.4504  151.2989 H   0  0  0  0  0  0  0  0  0  0  0  0
  144.1906  131.7145  149.8869 H   0  0  0  0  0  0  0  0  0  0  0  0
  146.4551  132.0555  150.7991 H   0  0  0  0  0  0  0  0  0  0  0  0
  145.4592  131.1838  151.9445 H   0  0  0  0  0  0  0  0  0  0  0  0
  150.6914  138.9235  153.1568 H   0  0  0  0  0  0  0  0  0  0  0  0
  1  2  1  0  0  0  0
  1 22  1  0  0  0  0
  1 23  1  0  0  0  0
  1 24  1  0  0  0  0
  2  3  1  0  0  0  0
  3 21  1  0  0  0  0
  3  4  2  0  0  0  0
  4  5  1  0  0  0  0
  4 25  1  0  0  0  0
  5  6  2  0  0  0  0
  5 26  1  0  0  0  0
  6  7  1  0  0  0  0
  6 20  1  0  0  0  0
  7  8  1  0  0  0  0
  7 27  1  0  0  0  0
  8  9  2  0  0  0  0
  8 10  1  0  0  0  0
 10 11  1  0  0  0  0
 10 28  1  0  0  0  0
 11 12  1  0  0  0  0
 11 29  1  0  0  0  0
 11 30  1  0  0  0  0
 12 13  1  0  0  0  0
 12 14  1  0  0  0  0
 12 31  1  0  0  0  0
 13 32  1  0  0  0  0
 13 33  1  0  0  0  0
 13 34  1  0  0  0  0
 14 19  1  0  0  0  0
 14 15  1  0  0  0  0
 15 16  1  0  0  0  0
 15 35  1  0  0  0  0
 15 36  1  0  0  0  0
 16 17  1  0  0  0  0
 16 37  1  0  0  0  0
 16 38  1  0  0  0  0
 17 18  1  0  0  0  0
 18 19  1  0  0  0  0
 18 39  1  0  0  0  0
 18 40  1  0  0  0  0
 19 41  1  0  0  0  0
 19 42  1  0  0  0  0
 20 21  2  0  0  0  0
 20 43  1  0  0  0  0
M  END
> <s_m_source_file>
AV-unprocessed.smi

> <i_m_source_file_index>
1190

> <i_lp_mmshare_version>
43012

> <i_f3d_flags>
0

> <s_epik_input>
W0NIM11PYzFbY0hdW2NIXWMoW2NIXW4xKVtOSF1DKD1PKVtOSF1bQ0gyXVtDQEhdKFtDSDNdKU4yW0NIMl1bQ0gyXU9bQ0gyXVtDSDJdMg==

> <s_epik_cmdline>
J2VwaWtfcHl0aG9uJywgJy1waCcsICc3LjAnLCAnLXRuJywgJzgnLCAnLW1hJywgJzIwMCcsICctbWV0YWxfYmluZGluZycsICctaW1hZScsICc8aW5maWxlLm1hZT4nLCAnLW9tYWUnLCAnPG91dGZpbGUubWFlPic=

> <r_lp_tautomer_probability>
1

> <r_epik_Ionization_Penalty>
0.266084

> <r_epik_Ionization_Penalty_Charging>
0

> <r_epik_Ionization_Penalty_Neutral>
0.266084

> <r_epik_State_Penalty>
0.257924

> <r_epik_Charging_Adjusted_Penalty>
0.257924

> <i_epik_Tot_Q>
0

> <i_epik_Tot_abs_Q>
0

> <r_epik_Metal_State_Penalty>
0.257922

> <b_epik_Metal_Only>
0

> <s_lp_Force_Field>
OPLS_2005

> <r_lp_Energy>
36.3321

> <b_lp_Chiralities_Consistent>
1

> <s_lp_Variant>
AV-unprocessed.smi:1190-1

> <Gold.Version>
5.8.1

> <Gold.Id.Protein>
6NUR|6NUR_protein|mol2

> <Gold.PLP.Fitness>
38.9946

> <Gold.PLP.PLP>
-28.0008

> <Gold.PLP.part.hbond>
-3.0000

> <Gold.PLP.part.metal>
0.0000

> <Gold.PLP.part.buried>
-4.2388

> <Gold.PLP.part.nonpolar>
-21.2709

> <Gold.PLP.part.repulsive>
1.4002

> <Gold.PLP.ligand.clash>
0.0000

> <Gold.PLP.ligand.torsion>
0.5558

> <Gold.PLP.Chemscore.Hbond>
3.0000

> <Gold.PLP.Chemscore.CHOScore>
1.0000

> <Gold.PLP.Chemscore.Metal>
0.0000

> <Gold.Chemscore.Hbonds>
donor molecule, donor type, donor heavy atom, donor atom, acceptor molecule, acceptor atom, score
      L1  H     7    27       P1  7948  1.00
      L1  H    10    28       P1  7948  1.00
      P1  H  7989  7998       L1    21  1.00
      L1  C    20    43       P1  7957  1.00

> <Gold.PLP.Chemscore.Internal.Correction>
0.1053

> <Gold.Rescore>
     Score         DG    S(hbond)    S(metal)    S(lipo)     H(rot)  DE(clash)    DE(int)     intcor
     14.97     -17.04       2.51        0.00      65.03       1.73       0.03       2.04       ----

> <Gold.Chemscore.Fitness>
14.9679

> <Gold.Chemscore.DG>
-17.0368

> <Gold.Chemscore.ZeroCoef>
-5.4800

> <Gold.Chemscore.Hbond>
2.5077

> <Gold.Chemscore.Metal>
0.0000

> <Gold.Chemscore.Lipo>
65.0258

> <Gold.Chemscore.Internal_Hbond>
0.0000

> <Gold.Chemscore.DEClash>
0.0296

> <Gold.Chemscore.DEInternal>
2.0394

> <Gold.Chemscore.Rot>
1.7292

> <Gold.Chemscore.Internal.Correction>
   9.000000E+99

> <Gold.Chemscore.Hbonds>
donor molecule, donor type, donor heavy atom, donor atom, acceptor molecule, acceptor atom, score
      L1  H     7    27       P1  7948  0.98
      L1  H    10    28       P1  7948  0.90
      P1  H  7989  7998       L1    21  0.34

> <Gold.Chemscore.Hbond.Weighted>
-8.3756

> <Gold.Chemscore.Metal.Weighted>
-0.0000

> <Gold.Chemscore.Lipo.Weighted>
-7.6080

> <Gold.Chemscore.Internal_Hbond.Weighted>
0.0000

> <Gold.Chemscore.DEClash.Weighted>
0.0296

> <Gold.Chemscore.DEInternal.Weighted>
2.0394

> <Gold.Chemscore.Rot.Weighted>
4.4268

> <Gold.Chemscore.Internal.Correction.Weighted>
   9.000000E+99

> <Gold.Protein.RotatedTorsions>
[ 6907 6896 6895 6894 ] final  174.62 input  -60.11 | X-H torsion
[ 7974 7965 7964 7962 ] final   34.42 input  175.53 | X-H torsion
[ 8008 7997 7996 7995 ] final  172.58 input   59.86 | X-H torsion
[ 10167 10162 10161 10158 ] final -100.48 input  -65.29 | X-H torsion
[ 10718 10713 10712 10709 ] final   25.85 input   66.30 | X-H torsion
[ 10763 10752 10751 10750 ] final  175.57 input  -60.55 | X-H torsion
[ 11005 11000 10999 10996 ] final   51.41 input  -57.11 | X-H torsion

> <Gold.Protein.ActiveResidues>
 VAL166  LYS551  ARG553  GLY616  TRP617  ASP618  TYR619  PRO620  LYS621  CYS622 
 ASP623  PHE694  ASN695  SER759  ASP760  ASP761  ALA762  ILE779  LEU786  VAL792 
 PHE793  MET794  SER795  GLU796  ALA797  LYS798  CYS799  TRP800  GLU811  SER814 

> <Gold.Protein.RotatedAtoms>
  151.7493  133.3326  159.3386 H   0  0  0  0  0  0  0  0  0  0  0  0  # atno 6907 bound_to 6896
  150.7541  134.6207  159.6144 H   0  0  0  0  0  0  0  0  0  0  0  0  # atno 6908 bound_to 6896
  152.3479  134.7048  160.0296 H   0  0  0  0  0  0  0  0  0  0  0  0  # atno 6909 bound_to 6896
  146.1354  139.6272  142.9199 H   0  0  0  0  0  0  0  0  0  0  0  0  # atno 7974 bound_to 7965
  156.1160  140.1482  156.9272 H   0  0  0  0  0  0  0  0  0  0  0  0  # atno 8008 bound_to 7997
  154.4801  140.0882  156.7399 H   0  0  0  0  0  0  0  0  0  0  0  0  # atno 8009 bound_to 7997
  155.4512  140.3435  155.4303 H   0  0  0  0  0  0  0  0  0  0  0  0  # atno 8010 bound_to 7997
  140.2514  143.3470  152.0711 H   0  0  0  0  0  0  0  0  0  0  0  0  # atno 10167 bound_to 10162
  157.1990  130.6881  149.6180 H   0  0  0  0  0  0  0  0  0  0  0  0  # atno 10718 bound_to 10713
  154.4694  135.2770  155.1654 H   0  0  0  0  0  0  0  0  0  0  0  0  # atno 10763 bound_to 10752
  154.3409  135.6170  153.5599 H   0  0  0  0  0  0  0  0  0  0  0  0  # atno 10764 bound_to 10752
  152.9862  135.5788  154.5072 H   0  0  0  0  0  0  0  0  0  0  0  0  # atno 10765 bound_to 10752
  140.0935  134.5177  155.8829 H   0  0  0  0  0  0  0  0  0  0  0  0  # atno 11005 bound_to 11000
  145.5167  141.0433  143.2458 LP  0  0  0  0  0  0  0  0  0  0  0  0  # atno 17320 bound_to 7965
  144.7734  139.6683  143.7185 LP  0  0  0  0  0  0  0  0  0  0  0  0  # atno 17321 bound_to 7965
  139.5045  144.6777  151.6088 LP  0  0  0  0  0  0  0  0  0  0  0  0  # atno 17342 bound_to 10162
  140.6037  143.9562  150.6404 LP  0  0  0  0  0  0  0  0  0  0  0  0  # atno 17343 bound_to 10162
  155.9702  130.4589  150.6017 LP  0  0  0  0  0  0  0  0  0  0  0  0  # atno 17370 bound_to 10713
  157.3786  131.0777  151.1496 LP  0  0  0  0  0  0  0  0  0  0  0  0  # atno 17371 bound_to 10713
  141.2085  133.6674  156.6375 LP  0  0  0  0  0  0  0  0  0  0  0  0  # atno 17394 bound_to 11000
  140.3319  134.7922  157.4332 LP  0  0  0  0  0  0  0  0  0  0  0  0  # atno 17395 bound_to 11000

$$$$
