AV-unprocessed.smi:2565|AV-procd|sdf|10069|dock3
  -GOLD-   2272014103D 1   1.00000     0.00000
 Structure written by MMmdl.
 25 26  0  0  0  0  0  0  0  0  2 V2000
  150.6625  142.2584  157.2542 C   0  0  0  0  0  0  0  0  0  0  0  0
  151.4451  141.0408  157.1802 N   0  0  0  0  0  0  0  0  0  0  0  0
  152.4232  140.6248  157.9989 C   0  0  0  0  0  0  0  0  0  0  0  0
  152.9733  139.4568  157.6710 N   0  0  0  0  0  0  0  0  0  0  0  0
  152.3001  139.0631  156.5322 N   0  0  0  0  0  0  0  0  0  0  0  0
  151.4039  140.0289  156.2888 C   0  0  0  0  0  0  0  0  0  0  0  0
  150.4652  140.0218  155.1179 C   0  0  1  0  0  0  0  0  0  0  0  0
  150.4900  138.6809  154.3587 C   0  0  0  0  0  0  0  0  0  0  0  0
  149.4805  138.6902  153.2820 N   0  3  0  0  0  0  0  0  0  0  0  0
  148.1374  139.0121  153.8036 C   0  0  0  0  0  0  0  0  0  0  0  0
  148.1771  140.3342  154.5901 C   0  0  0  0  0  0  0  0  0  0  0  0
  149.1519  140.2499  155.6248 O   0  0  0  0  0  0  0  0  0  0  0  0
  151.0518  142.9070  158.0397 H   0  0  0  0  0  0  0  0  0  0  0  0
  149.6238  142.0151  157.4790 H   0  0  0  0  0  0  0  0  0  0  0  0
  150.7114  142.7885  156.3027 H   0  0  0  0  0  0  0  0  0  0  0  0
  152.7471  141.1945  158.8578 H   0  0  0  0  0  0  0  0  0  0  0  0
  150.7272  140.8405  154.4455 H   0  0  0  0  0  0  0  0  0  0  0  0
  151.4752  138.4987  153.9285 H   0  0  0  0  0  0  0  0  0  0  0  0
  150.2773  137.8540  155.0381 H   0  0  0  0  0  0  0  0  0  0  0  0
  149.7389  139.3890  152.6000 H   0  0  0  0  0  0  0  0  0  0  0  0
  147.4332  139.0796  152.9741 H   0  0  0  0  0  0  0  0  0  0  0  0
  147.7990  138.1998  154.4485 H   0  0  0  0  0  0  0  0  0  0  0  0
  148.4032  141.1735  153.9305 H   0  0  0  0  0  0  0  0  0  0  0  0
  147.2033  140.5348  155.0371 H   0  0  0  0  0  0  0  0  0  0  0  0
  149.4586  137.7849  152.8339 H   0  0  0  0  0  0  0  0  0  0  0  0
  1  2  1  0  0  0  0
  1 13  1  0  0  0  0
  1 14  1  0  0  0  0
  1 15  1  0  0  0  0
  2  6  1  0  0  0  0
  2  3  1  0  0  0  0
  3  4  2  0  0  0  0
  3 16  1  0  0  0  0
  4  5  1  0  0  0  0
  5  6  2  0  0  0  0
  6  7  1  0  0  0  0
  7 12  1  0  0  0  0
  7  8  1  0  0  0  0
  7 17  1  0  0  0  0
  8  9  1  0  0  0  0
  8 18  1  0  0  0  0
  8 19  1  0  0  0  0
  9 10  1  0  0  0  0
  9 20  1  0  0  0  0
  9 25  1  0  0  0  0
 10 11  1  0  0  0  0
 10 21  1  0  0  0  0
 10 22  1  0  0  0  0
 11 12  1  0  0  0  0
 11 23  1  0  0  0  0
 11 24  1  0  0  0  0
M  CHG  1   9   1
M  END
> <s_m_source_file>
AV-unprocessed.smi

> <i_m_source_file_index>
2565

> <i_lp_mmshare_version>
43012

> <i_f3d_flags>
0

> <s_epik_input>
W0NIM11uMVtjSF1ubmMxW0NAQEhdMltDSDJdW05IXVtDSDJdW0NIMl1PMg==

> <s_epik_cmdline>
J2VwaWtfcHl0aG9uJywgJy1waCcsICc3LjAnLCAnLXRuJywgJzgnLCAnLW1hJywgJzIwMCcsICctbWV0YWxfYmluZGluZycsICctaW1hZScsICc8aW5maWxlLm1hZT4nLCAnLW9tYWUnLCAnPG91dGZpbGUubWFlPic=

> <r_lp_tautomer_probability>
1

> <r_epik_Ionization_Penalty>
0.12571

> <r_epik_Ionization_Penalty_Charging>
0.125708

> <r_epik_Ionization_Penalty_Neutral>
1.64918e-06

> <r_epik_State_Penalty>
0.115169

> <r_epik_Charging_Adjusted_Penalty>
0.240877

> <i_epik_Tot_Q>
1

> <i_epik_Tot_abs_Q>
1

> <r_epik_Metal_State_Penalty>
0.115216

> <b_epik_Metal_Only>
0

> <s_lp_Force_Field>
OPLS_2005

> <r_lp_Energy>
13.9295

> <b_lp_Chiralities_Consistent>
1

> <s_lp_Variant>
AV-unprocessed.smi:2565-2

> <Gold.Version>
5.8.1

> <Gold.Id.Protein>
6NUR|6NUR_protein|mol2

> <Gold.PLP.Fitness>
31.9616

> <Gold.PLP.PLP>
-20.2209

> <Gold.PLP.part.hbond>
-3.0015

> <Gold.PLP.part.metal>
0.0000

> <Gold.PLP.part.buried>
-0.7209

> <Gold.PLP.part.nonpolar>
-15.3284

> <Gold.PLP.part.repulsive>
0.1550

> <Gold.PLP.ligand.clash>
0.0000

> <Gold.PLP.ligand.torsion>
0.1316

> <Gold.PLP.Chemscore.Hbond>
4.0000

> <Gold.PLP.Chemscore.CHOScore>
0.0000

> <Gold.PLP.Chemscore.Metal>
0.0000

> <Gold.Chemscore.Hbonds>
donor molecule, donor type, donor heavy atom, donor atom, acceptor molecule, acceptor atom, score
      L1  H     9    20       P1  7957  1.00
      L1  H     9    25       P1  7948  2.00
      P1  H  7997  8008       L1     4  0.86

> <Gold.PLP.Chemscore.Internal.Correction>
0.0038

> <Gold.Rescore>
     Score         DG    S(hbond)    S(metal)    S(lipo)     H(rot)  DE(clash)    DE(int)     intcor
     14.51     -15.59       2.80        0.00      28.44       1.00       0.00       1.09       ----

> <Gold.Chemscore.Fitness>
14.5053

> <Gold.Chemscore.DG>
-15.5931

> <Gold.Chemscore.ZeroCoef>
-5.4800

> <Gold.Chemscore.Hbond>
2.7980

> <Gold.Chemscore.Metal>
0.0000

> <Gold.Chemscore.Lipo>
28.4428

> <Gold.Chemscore.Internal_Hbond>
0.0000

> <Gold.Chemscore.DEClash>
0.0021

> <Gold.Chemscore.DEInternal>
1.0858

> <Gold.Chemscore.Rot>
1.0000

> <Gold.Chemscore.Internal.Correction>
   9.000000E+99

> <Gold.Chemscore.Hbonds>
donor molecule, donor type, donor heavy atom, donor atom, acceptor molecule, acceptor atom, score
      L1  H     9    20       P1  7957  0.91
      L1  H     9    25       P1  7948  0.85
      P1  H  7997  8008       L1     4  0.04

> <Gold.Chemscore.Hbond.Weighted>
-9.3453

> <Gold.Chemscore.Metal.Weighted>
-0.0000

> <Gold.Chemscore.Lipo.Weighted>
-3.3278

> <Gold.Chemscore.Internal_Hbond.Weighted>
0.0000

> <Gold.Chemscore.DEClash.Weighted>
0.0021

> <Gold.Chemscore.DEInternal.Weighted>
1.0858

> <Gold.Chemscore.Rot.Weighted>
2.5600

> <Gold.Chemscore.Internal.Correction.Weighted>
   9.000000E+99

> <Gold.Protein.RotatedTorsions>
[ 6907 6896 6895 6894 ] final -151.92 input  -60.11 | X-H torsion
[ 7974 7965 7964 7962 ] final   51.28 input  175.53 | X-H torsion
[ 8008 7997 7996 7995 ] final  -74.77 input   59.86 | X-H torsion
[ 10167 10162 10161 10158 ] final  -39.75 input  -65.29 | X-H torsion
[ 10718 10713 10712 10709 ] final  -63.70 input   66.30 | X-H torsion
[ 10763 10752 10751 10750 ] final  122.86 input  -60.55 | X-H torsion
[ 11005 11000 10999 10996 ] final  -66.16 input  -57.11 | X-H torsion

> <Gold.Protein.ActiveResidues>
 VAL166  LYS551  ARG553  GLY616  TRP617  ASP618  TYR619  PRO620  LYS621  CYS622 
 ASP623  PHE694  ASN695  SER759  ASP760  ASP761  ALA762  ILE779  LEU786  VAL792 
 PHE793  MET794  SER795  GLU796  ALA797  LYS798  CYS799  TRP800  GLU811  SER814 

> <Gold.Protein.RotatedAtoms>
  151.2202  133.4506  159.2600 H   0  0  0  0  0  0  0  0  0  0  0  0  # atno 6907 bound_to 6896
  151.0892  134.9906  159.8404 H   0  0  0  0  0  0  0  0  0  0  0  0  # atno 6908 bound_to 6896
  152.5433  134.2137  159.8813 H   0  0  0  0  0  0  0  0  0  0  0  0  # atno 6909 bound_to 6896
  145.9929  139.4358  143.0062 H   0  0  0  0  0  0  0  0  0  0  0  0  # atno 7974 bound_to 7965
  154.5359  140.0755  156.8426 H   0  0  0  0  0  0  0  0  0  0  0  0  # atno 8008 bound_to 7997
  155.3279  140.3400  155.4222 H   0  0  0  0  0  0  0  0  0  0  0  0  # atno 8009 bound_to 7997
  156.1827  140.1658  156.8230 H   0  0  0  0  0  0  0  0  0  0  0  0  # atno 8010 bound_to 7997
  140.7055  143.3195  151.2827 H   0  0  0  0  0  0  0  0  0  0  0  0  # atno 10167 bound_to 10162
  156.0775  130.4224  150.1314 H   0  0  0  0  0  0  0  0  0  0  0  0  # atno 10718 bound_to 10713
  153.6364  135.3387  155.3058 H   0  0  0  0  0  0  0  0  0  0  0  0  # atno 10763 bound_to 10752
  154.8569  135.4308  154.2051 H   0  0  0  0  0  0  0  0  0  0  0  0  # atno 10764 bound_to 10752
  153.2959  135.7021  153.7322 H   0  0  0  0  0  0  0  0  0  0  0  0  # atno 10765 bound_to 10752
  141.1474  133.6694  156.6097 H   0  0  0  0  0  0  0  0  0  0  0  0  # atno 11005 bound_to 11000
  145.7603  140.9938  143.1203 LP  0  0  0  0  0  0  0  0  0  0  0  0  # atno 17320 bound_to 7965
  144.6894  139.9322  143.7472 LP  0  0  0  0  0  0  0  0  0  0  0  0  # atno 17321 bound_to 7965
  139.6644  144.0131  152.2713 LP  0  0  0  0  0  0  0  0  0  0  0  0  # atno 17342 bound_to 10162
  139.9709  144.6494  150.7990 LP  0  0  0  0  0  0  0  0  0  0  0  0  # atno 17343 bound_to 10162
  156.9352  130.9727  151.3526 LP  0  0  0  0  0  0  0  0  0  0  0  0  # atno 17370 bound_to 10713
  157.5877  130.8421  149.8613 LP  0  0  0  0  0  0  0  0  0  0  0  0  # atno 17371 bound_to 10713
  140.3624  134.7676  157.4543 LP  0  0  0  0  0  0  0  0  0  0  0  0  # atno 17394 bound_to 11000
  140.0775  134.5777  155.8576 LP  0  0  0  0  0  0  0  0  0  0  0  0  # atno 17395 bound_to 11000

$$$$
