AV-unprocessed.smi:1071|AV-procd|sdf|4680|dock2
  -GOLD-   22720 3193D 1   1.00000     0.00000
 Structure written by MMmdl.
 47 48  0  0  0  0  0  0  0  0  2 V2000
  154.2873  133.5182  157.4327 C   0  0  0  0  0  0  0  0  0  0  0  0
  153.1592  132.7460  157.8046 O   0  0  0  0  0  0  0  0  0  0  0  0
  152.5559  132.0980  156.6973 C   0  0  0  0  0  0  0  0  0  0  0  0
  151.3455  131.2973  157.1859 C   0  0  0  0  0  0  0  0  0  0  0  0
  150.7087  130.6978  156.0615 O   0  0  0  0  0  0  0  0  0  0  0  0
  149.9651  131.5004  155.2206 C   0  0  0  0  0  0  0  0  0  0  0  0
  149.0817  130.8868  154.3104 C   0  0  0  0  0  0  0  0  0  0  0  0
  148.3211  131.7004  153.4499 C   0  0  0  0  0  0  0  0  0  0  0  0
  148.4556  133.1009  153.5314 C   0  0  0  0  0  0  0  0  0  0  0  0
  147.6936  133.9017  152.6394 N   0  0  0  0  0  0  0  0  0  0  0  0
  146.4389  133.6930  152.1962 C   0  0  0  0  0  0  0  0  0  0  0  0
  145.8286  132.6355  152.3493 O   0  0  0  0  0  0  0  0  0  0  0  0
  145.9850  134.7078  151.4211 N   0  0  0  0  0  0  0  0  0  0  0  0
  146.3029  136.0988  151.7767 C   0  0  0  0  0  0  0  0  0  0  0  0
  145.1823  136.6597  152.6763 C   0  0  0  0  0  0  0  0  0  0  0  0
  143.8495  136.5334  152.0304 N   0  3  2  0  0  0  0  0  0  0  0  0
  142.7564  137.0441  152.8845 C   0  0  0  0  0  0  0  0  0  0  0  0
  143.5724  135.1697  151.5074 C   0  0  0  0  0  0  0  0  0  0  0  0
  144.7380  134.6646  150.6317 C   0  0  2  0  0  0  0  0  0  0  0  0
  144.4339  133.3087  149.9600 C   0  0  0  0  0  0  0  0  0  0  0  0
  149.3783  133.6212  154.4713 C   0  0  0  0  0  0  0  0  0  0  0  0
  150.1135  132.8460  155.2959 N   0  0  0  0  0  0  0  0  0  0  0  0
  154.7072  134.0013  158.3150 H   0  0  0  0  0  0  0  0  0  0  0  0
  154.0147  134.2976  156.7199 H   0  0  0  0  0  0  0  0  0  0  0  0
  155.0635  132.8933  156.9892 H   0  0  0  0  0  0  0  0  0  0  0  0
  152.2401  132.8370  155.9593 H   0  0  0  0  0  0  0  0  0  0  0  0
  153.2728  131.4326  156.2138 H   0  0  0  0  0  0  0  0  0  0  0  0
  151.6724  130.5329  157.8928 H   0  0  0  0  0  0  0  0  0  0  0  0
  150.6509  131.9618  157.7026 H   0  0  0  0  0  0  0  0  0  0  0  0
  148.9905  129.8114  154.2718 H   0  0  0  0  0  0  0  0  0  0  0  0
  147.6412  131.2512  152.7406 H   0  0  0  0  0  0  0  0  0  0  0  0
  148.1559  134.7309  152.2958 H   0  0  0  0  0  0  0  0  0  0  0  0
  147.2622  136.1985  152.2865 H   0  0  0  0  0  0  0  0  0  0  0  0
  146.3920  136.6970  150.8685 H   0  0  0  0  0  0  0  0  0  0  0  0
  145.1726  136.1275  153.6292 H   0  0  0  0  0  0  0  0  0  0  0  0
  145.3791  137.7084  152.9020 H   0  0  0  0  0  0  0  0  0  0  0  0
  142.6572  136.4469  153.7920 H   0  0  0  0  0  0  0  0  0  0  0  0
  141.8058  137.0166  152.3509 H   0  0  0  0  0  0  0  0  0  0  0  0
  142.9455  138.0784  153.1738 H   0  0  0  0  0  0  0  0  0  0  0  0
  143.4039  134.4860  152.3412 H   0  0  0  0  0  0  0  0  0  0  0  0
  142.6510  135.1917  150.9242 H   0  0  0  0  0  0  0  0  0  0  0  0
  144.8636  135.3693  149.8076 H   0  0  0  0  0  0  0  0  0  0  0  0
  143.6227  133.4145  149.2393 H   0  0  0  0  0  0  0  0  0  0  0  0
  144.1212  132.5468  150.6735 H   0  0  0  0  0  0  0  0  0  0  0  0
  145.3021  132.9321  149.4182 H   0  0  0  0  0  0  0  0  0  0  0  0
  149.5621  134.6804  154.5631 H   0  0  0  0  0  0  0  0  0  0  0  0
  143.8804  137.1351  151.2197 H   0  0  0  0  0  0  0  0  0  0  0  0
  1  2  1  0  0  0  0
  1 23  1  0  0  0  0
  1 24  1  0  0  0  0
  1 25  1  0  0  0  0
  2  3  1  0  0  0  0
  3  4  1  0  0  0  0
  3 26  1  0  0  0  0
  3 27  1  0  0  0  0
  4  5  1  0  0  0  0
  4 28  1  0  0  0  0
  4 29  1  0  0  0  0
  5  6  1  0  0  0  0
  6 22  1  0  0  0  0
  6  7  2  0  0  0  0
  7  8  1  0  0  0  0
  7 30  1  0  0  0  0
  8  9  2  0  0  0  0
  8 31  1  0  0  0  0
  9 10  1  0  0  0  0
  9 21  1  0  0  0  0
 10 11  1  0  0  0  0
 10 32  1  0  0  0  0
 11 12  2  0  0  0  0
 11 13  1  0  0  0  0
 13 19  1  0  0  0  0
 13 14  1  0  0  0  0
 14 15  1  0  0  0  0
 14 33  1  0  0  0  0
 14 34  1  0  0  0  0
 15 16  1  0  0  0  0
 15 35  1  0  0  0  0
 15 36  1  0  0  0  0
 16 17  1  0  0  0  0
 16 18  1  0  0  0  0
 16 47  1  0  0  0  0
 17 37  1  0  0  0  0
 17 38  1  0  0  0  0
 17 39  1  0  0  0  0
 18 19  1  0  0  0  0
 18 40  1  0  0  0  0
 18 41  1  0  0  0  0
 19 20  1  0  0  0  0
 19 42  1  0  0  0  0
 20 43  1  0  0  0  0
 20 44  1  0  0  0  0
 20 45  1  0  0  0  0
 21 22  2  0  0  0  0
 21 46  1  0  0  0  0
M  CHG  1  16   1
M  END
> <s_m_source_file>
AV-unprocessed.smi

> <i_m_source_file_index>
1071

> <i_lp_mmshare_version>
43012

> <i_f3d_flags>
0

> <s_epik_input>
W0NIM11PW0NIMl1bQ0gyXU9jMVtjSF1bY0hdYyhbY0hdbjEpW05IXUMoPU8pTjJbQ0gyXVtDSDJdTihbQ0gzXSlbQ0gyXVtDQEhdMltDSDNd

> <s_epik_cmdline>
J2VwaWtfcHl0aG9uJywgJy1waCcsICc3LjAnLCAnLXRuJywgJzgnLCAnLW1hJywgJzIwMCcsICctbWV0YWxfYmluZGluZycsICctaW1hZScsICc8aW5maWxlLm1hZT4nLCAnLW9tYWUnLCAnPG91dGZpbGUubWFlPic=

> <r_lp_tautomer_probability>
1

> <r_epik_Ionization_Penalty>
0.25455

> <r_epik_Ionization_Penalty_Charging>
0.254506

> <r_epik_Ionization_Penalty_Neutral>
4.43365e-05

> <r_epik_State_Penalty>
0.245983

> <r_epik_Charging_Adjusted_Penalty>
0.500488

> <i_epik_Tot_Q>
1

> <i_epik_Tot_abs_Q>
1

> <r_epik_Metal_State_Penalty>
0.245987

> <b_epik_Metal_Only>
0

> <s_lp_Force_Field>
OPLS_2005

> <r_lp_Energy>
54.7367

> <b_lp_Chiralities_Consistent>
1

> <s_lp_Variant>
AV-unprocessed.smi:1071-4

> <Gold.Version>
5.8.1

> <Gold.Id.Protein>
6NUR|6NUR_protein|mol2

> <Gold.PLP.Fitness>
39.8829

> <Gold.PLP.PLP>
-32.1348

> <Gold.PLP.part.hbond>
-3.0000

> <Gold.PLP.part.metal>
0.0000

> <Gold.PLP.part.buried>
-2.1269

> <Gold.PLP.part.nonpolar>
-27.8212

> <Gold.PLP.part.repulsive>
0.1575

> <Gold.PLP.ligand.clash>
0.3762

> <Gold.PLP.ligand.torsion>
0.7665

> <Gold.PLP.Chemscore.Hbond>
3.0000

> <Gold.PLP.Chemscore.CHOScore>
0.0000

> <Gold.PLP.Chemscore.Metal>
0.0000

> <Gold.Chemscore.Hbonds>
donor molecule, donor type, donor heavy atom, donor atom, acceptor molecule, acceptor atom, score
      L1  H    10    32       P1  7948  1.00
      L1  H    16    47       P1 10171  1.00
      P1  H  6896  6907       L1     2  1.00

> <Gold.PLP.Chemscore.Internal.Correction>
0.6572

> <Gold.Rescore>
     Score         DG    S(hbond)    S(metal)    S(lipo)     H(rot)  DE(clash)    DE(int)     intcor
     14.33     -18.78       2.90        0.00      66.02       1.60       0.98       3.47       ----

> <Gold.Chemscore.Fitness>
14.3331

> <Gold.Chemscore.DG>
-18.7764

> <Gold.Chemscore.ZeroCoef>
-5.4800

> <Gold.Chemscore.Hbond>
2.8981

> <Gold.Chemscore.Metal>
0.0000

> <Gold.Chemscore.Lipo>
66.0204

> <Gold.Chemscore.Internal_Hbond>
0.0000

> <Gold.Chemscore.DEClash>
0.9769

> <Gold.Chemscore.DEInternal>
3.4664

> <Gold.Chemscore.Rot>
1.6045

> <Gold.Chemscore.Internal.Correction>
   9.000000E+99

> <Gold.Chemscore.Hbonds>
donor molecule, donor type, donor heavy atom, donor atom, acceptor molecule, acceptor atom, score
      L1  H    10    32       P1  7948  0.35
      L1  H    16    47       P1 10171  0.94
      P1  H  6896  6907       L1     2  0.86

> <Gold.Chemscore.Hbond.Weighted>
-9.6795

> <Gold.Chemscore.Metal.Weighted>
-0.0000

> <Gold.Chemscore.Lipo.Weighted>
-7.7244

> <Gold.Chemscore.Internal_Hbond.Weighted>
0.0000

> <Gold.Chemscore.DEClash.Weighted>
0.9769

> <Gold.Chemscore.DEInternal.Weighted>
3.4664

> <Gold.Chemscore.Rot.Weighted>
4.1075

> <Gold.Chemscore.Internal.Correction.Weighted>
   9.000000E+99

> <Gold.Protein.RotatedTorsions>
[ 6907 6896 6895 6894 ] final  151.15 input  -60.11 | X-H torsion
[ 7974 7965 7964 7962 ] final   73.64 input  175.53 | X-H torsion
[ 8008 7997 7996 7995 ] final   90.31 input   59.86 | X-H torsion
[ 10167 10162 10161 10158 ] final   87.57 input  -65.29 | X-H torsion
[ 10718 10713 10712 10709 ] final   84.33 input   66.30 | X-H torsion
[ 10763 10752 10751 10750 ] final   94.48 input  -60.55 | X-H torsion
[ 11005 11000 10999 10996 ] final   47.32 input  -57.11 | X-H torsion

> <Gold.Protein.ActiveResidues>
 VAL166  LYS551  ARG553  GLY616  TRP617  ASP618  TYR619  PRO620  LYS621  CYS622 
 ASP623  PHE694  ASN695  SER759  ASP760  ASP761  ALA762  ILE779  LEU786  VAL792 
 PHE793  MET794  SER795  GLU796  ALA797  LYS798  CYS799  TRP800  GLU811  SER814 

> <Gold.Protein.RotatedAtoms>
  152.1046  133.4268  159.4602 H   0  0  0  0  0  0  0  0  0  0  0  0  # atno 6907 bound_to 6896
  150.6865  134.2720  159.4601 H   0  0  0  0  0  0  0  0  0  0  0  0  # atno 6908 bound_to 6896
  152.0583  134.9610  160.0625 H   0  0  0  0  0  0  0  0  0  0  0  0  # atno 6909 bound_to 6896
  145.7383  139.2711  143.1501 H   0  0  0  0  0  0  0  0  0  0  0  0  # atno 7974 bound_to 7965
  156.0104  140.3351  155.6935 H   0  0  0  0  0  0  0  0  0  0  0  0  # atno 8008 bound_to 7997
  155.6165  140.0670  157.2708 H   0  0  0  0  0  0  0  0  0  0  0  0  # atno 8009 bound_to 7997
  154.4279  140.1784  156.1315 H   0  0  0  0  0  0  0  0  0  0  0  0  # atno 8010 bound_to 7997
  139.8761  144.6466  150.8895 H   0  0  0  0  0  0  0  0  0  0  0  0  # atno 10167 bound_to 10162
  157.6896  131.0128  150.2656 H   0  0  0  0  0  0  0  0  0  0  0  0  # atno 10718 bound_to 10713
  153.2421  135.4288  155.0709 H   0  0  0  0  0  0  0  0  0  0  0  0  # atno 10763 bound_to 10752
  154.8345  135.3405  154.6634 H   0  0  0  0  0  0  0  0  0  0  0  0  # atno 10764 bound_to 10752
  153.7058  135.7025  153.5107 H   0  0  0  0  0  0  0  0  0  0  0  0  # atno 10765 bound_to 10752
  140.1290  134.4730  155.8536 H   0  0  0  0  0  0  0  0  0  0  0  0  # atno 11005 bound_to 11000
  146.0472  140.8106  142.9799 LP  0  0  0  0  0  0  0  0  0  0  0  0  # atno 17320 bound_to 7965
  144.6876  140.2998  143.7265 LP  0  0  0  0  0  0  0  0  0  0  0  0  # atno 17321 bound_to 7965
  140.7752  143.3624  151.1803 LP  0  0  0  0  0  0  0  0  0  0  0  0  # atno 17342 bound_to 10162
  139.7239  143.9179  152.2995 LP  0  0  0  0  0  0  0  0  0  0  0  0  # atno 17343 bound_to 10162
  156.3228  130.3788  149.7560 LP  0  0  0  0  0  0  0  0  0  0  0  0  # atno 17370 bound_to 10713
  156.5124  130.8178  151.3174 LP  0  0  0  0  0  0  0  0  0  0  0  0  # atno 17371 bound_to 10713
  141.2166  133.6788  156.7033 LP  0  0  0  0  0  0  0  0  0  0  0  0  # atno 17394 bound_to 11000
  140.2867  134.8274  157.3981 LP  0  0  0  0  0  0  0  0  0  0  0  0  # atno 17395 bound_to 11000

$$$$
