AV-unprocessed.smi:973|AV-procd|sdf|4299|dock9
  -GOLD-   22720 2203D 1   1.00000     0.00000
 Structure written by MMmdl.
 41 42  0  0  0  0  0  0  0  0  1 V2000
  146.1435  134.9556  162.5821 C   0  0  0  0  0  0  0  0  0  0  0  0
  146.9851  134.9963  161.3834 N   0  0  0  0  0  0  0  0  0  0  0  0
  147.1660  133.7962  160.6750 C   0  0  0  0  0  0  0  0  0  0  0  0
  147.9211  133.7392  159.5694 C   0  0  0  0  0  0  0  0  0  0  0  0
  148.5575  134.9502  159.1096 C   0  0  0  0  0  0  0  0  0  0  0  0
  148.4046  136.1175  159.7843 C   0  0  0  0  0  0  0  0  0  0  0  0
  148.9816  137.3408  159.4006 N   0  0  0  0  0  0  0  0  0  0  0  0
  150.2446  137.6022  159.0159 C   0  0  0  0  0  0  0  0  0  0  0  0
  151.1644  136.7862  158.9580 O   0  0  0  0  0  0  0  0  0  0  0  0
  150.3941  138.9003  158.7154 N   0  0  0  0  0  0  0  0  0  0  0  0
  151.6440  139.5270  158.3006 C   0  0  0  0  0  0  0  0  0  0  0  0
  152.2755  140.3466  159.4396 C   0  0  0  0  0  0  0  0  0  0  0  0
  152.2317  141.8429  159.1771 C   0  0  0  0  0  0  0  0  0  0  0  0
  151.8007  142.3487  158.0051 C   0  0  0  0  0  0  0  0  0  0  0  0
  151.7540  143.8317  157.6810 C   0  0  0  0  0  0  0  0  0  0  0  0
  152.5630  144.6757  158.6801 C   0  0  0  0  0  0  0  0  0  0  0  0
  152.3140  144.2150  160.1215 C   0  0  0  0  0  0  0  0  0  0  0  0
  152.7087  142.7397  160.3145 C   0  0  0  0  0  0  0  0  0  0  0  0
  147.5626  136.1723  160.9953 C   0  0  0  0  0  0  0  0  0  0  0  0
  147.3825  137.2126  161.6334 O   0  0  0  0  0  0  0  0  0  0  0  0
  145.7244  133.9666  162.7698 H   0  0  0  0  0  0  0  0  0  0  0  0
  145.3067  135.6494  162.4886 H   0  0  0  0  0  0  0  0  0  0  0  0
  146.7215  135.2363  163.4636 H   0  0  0  0  0  0  0  0  0  0  0  0
  146.6581  132.9342  161.0824 H   0  0  0  0  0  0  0  0  0  0  0  0
  148.0519  132.8092  159.0358 H   0  0  0  0  0  0  0  0  0  0  0  0
  149.1403  134.8883  158.2049 H   0  0  0  0  0  0  0  0  0  0  0  0
  148.3609  138.1344  159.4674 H   0  0  0  0  0  0  0  0  0  0  0  0
  149.5880  139.5030  158.7945 H   0  0  0  0  0  0  0  0  0  0  0  0
  152.3215  138.7337  157.9849 H   0  0  0  0  0  0  0  0  0  0  0  0
  151.4736  140.1565  157.4253 H   0  0  0  0  0  0  0  0  0  0  0  0
  151.7581  140.1334  160.3763 H   0  0  0  0  0  0  0  0  0  0  0  0
  153.3135  140.0475  159.5892 H   0  0  0  0  0  0  0  0  0  0  0  0
  151.4537  141.6833  157.2278 H   0  0  0  0  0  0  0  0  0  0  0  0
  152.1310  143.9915  156.6706 H   0  0  0  0  0  0  0  0  0  0  0  0
  150.7091  144.1436  157.6835 H   0  0  0  0  0  0  0  0  0  0  0  0
  153.6269  144.5871  158.4554 H   0  0  0  0  0  0  0  0  0  0  0  0
  152.3105  145.7305  158.5681 H   0  0  0  0  0  0  0  0  0  0  0  0
  152.8667  144.8426  160.8213 H   0  0  0  0  0  0  0  0  0  0  0  0
  151.2574  144.3433  160.3604 H   0  0  0  0  0  0  0  0  0  0  0  0
  152.3053  142.3764  161.2603 H   0  0  0  0  0  0  0  0  0  0  0  0
  153.7938  142.6576  160.3817 H   0  0  0  0  0  0  0  0  0  0  0  0
  1  2  1  0  0  0  0
  1 21  1  0  0  0  0
  1 22  1  0  0  0  0
  1 23  1  0  0  0  0
  2 19  1  0  0  0  0
  2  3  1  0  0  0  0
  3  4  2  0  0  0  0
  3 24  1  0  0  0  0
  4  5  1  0  0  0  0
  4 25  1  0  0  0  0
  5  6  2  0  0  0  0
  5 26  1  0  0  0  0
  6  7  1  0  0  0  0
  6 19  1  0  0  0  0
  7  8  1  0  0  0  0
  7 27  1  0  0  0  0
  8  9  2  0  0  0  0
  8 10  1  0  0  0  0
 10 11  1  0  0  0  0
 10 28  1  0  0  0  0
 11 12  1  0  0  0  0
 11 29  1  0  0  0  0
 11 30  1  0  0  0  0
 12 13  1  0  0  0  0
 12 31  1  0  0  0  0
 12 32  1  0  0  0  0
 13 18  1  0  0  0  0
 13 14  2  0  0  0  0
 14 15  1  0  0  0  0
 14 33  1  0  0  0  0
 15 16  1  0  0  0  0
 15 34  1  0  0  0  0
 15 35  1  0  0  0  0
 16 17  1  0  0  0  0
 16 36  1  0  0  0  0
 16 37  1  0  0  0  0
 17 18  1  0  0  0  0
 17 38  1  0  0  0  0
 17 39  1  0  0  0  0
 18 40  1  0  0  0  0
 18 41  1  0  0  0  0
 19 20  2  0  0  0  0
M  END
> <s_m_source_file>
AV-unprocessed.smi

> <i_m_source_file_index>
973

> <i_lp_mmshare_version>
43012

> <i_f3d_flags>
0

> <s_epik_input>
W0NIM11uMVtjSF1bY0hdW2NIXWMoYzE9TylbTkhdQyg9TylbTkhdW0NIMl1bQ0gyXUMyPVtDSF1bQ0gyXVtDSDJdW0NIMl1bQ0gyXTI=

> <s_epik_cmdline>
J2VwaWtfcHl0aG9uJywgJy1waCcsICc3LjAnLCAnLXRuJywgJzgnLCAnLW1hJywgJzIwMCcsICctbWV0YWxfYmluZGluZycsICctaW1hZScsICc8aW5maWxlLm1hZT4nLCAnLW9tYWUnLCAnPG91dGZpbGUubWFlPic=

> <r_lp_tautomer_probability>
1

> <r_epik_Ionization_Penalty>
2.5397e-05

> <r_epik_Ionization_Penalty_Charging>
4.7783e-06

> <r_epik_Ionization_Penalty_Neutral>
2.06187e-05

> <r_epik_State_Penalty>
-0

> <r_epik_Charging_Adjusted_Penalty>
4.7783e-06

> <i_epik_Tot_Q>
0

> <i_epik_Tot_abs_Q>
0

> <r_epik_Metal_State_Penalty>
-0

> <b_epik_Metal_Only>
0

> <s_lp_Force_Field>
OPLS_2005

> <r_lp_Energy>
20.1854

> <b_lp_Chiralities_Consistent>
1

> <s_lp_Variant>
AV-unprocessed.smi:973-1

> <Gold.Version>
5.8.1

> <Gold.Id.Protein>
6NUR|6NUR_protein|mol2

> <Gold.PLP.Fitness>
49.8048

> <Gold.PLP.PLP>
-43.5175

> <Gold.PLP.part.hbond>
-3.0000

> <Gold.PLP.part.metal>
0.0000

> <Gold.PLP.part.buried>
-5.2849

> <Gold.PLP.part.nonpolar>
-36.0772

> <Gold.PLP.part.repulsive>
0.4250

> <Gold.PLP.ligand.clash>
0.0000

> <Gold.PLP.ligand.torsion>
0.8798

> <Gold.PLP.Chemscore.Hbond>
2.6813

> <Gold.PLP.Chemscore.CHOScore>
0.0000

> <Gold.PLP.Chemscore.Metal>
0.0000

> <Gold.Chemscore.Hbonds>
donor molecule, donor type, donor heavy atom, donor atom, acceptor molecule, acceptor atom, score
      P1  H  6896  6907       L1     9  0.99
      P1  H  6931  6943       L1    20  0.90
      P1  H  6934  6947       L1    20  0.85

> <Gold.PLP.Chemscore.Internal.Correction>
0.0030

> <Gold.Rescore>
     Score         DG    S(hbond)    S(metal)    S(lipo)     H(rot)  DE(clash)    DE(int)     intcor
     21.68     -22.57       2.49        0.00     105.57       1.40       0.01       0.89       ----

> <Gold.Chemscore.Fitness>
21.6779

> <Gold.Chemscore.DG>
-22.5748

> <Gold.Chemscore.ZeroCoef>
-5.4800

> <Gold.Chemscore.Hbond>
2.4899

> <Gold.Chemscore.Metal>
0.0000

> <Gold.Chemscore.Lipo>
105.5715

> <Gold.Chemscore.Internal_Hbond>
0.0000

> <Gold.Chemscore.DEClash>
0.0064

> <Gold.Chemscore.DEInternal>
0.8905

> <Gold.Chemscore.Rot>
1.3958

> <Gold.Chemscore.Internal.Correction>
   9.000000E+99

> <Gold.Chemscore.Hbonds>
donor molecule, donor type, donor heavy atom, donor atom, acceptor molecule, acceptor atom, score
      P1  H  6896  6907       L1     9  0.94
      P1  H  6931  6943       L1    20  0.76
      P1  H  6934  6947       L1    20  0.84

> <Gold.Chemscore.Hbond.Weighted>
-8.3162

> <Gold.Chemscore.Metal.Weighted>
-0.0000

> <Gold.Chemscore.Lipo.Weighted>
-12.3519

> <Gold.Chemscore.Internal_Hbond.Weighted>
0.0000

> <Gold.Chemscore.DEClash.Weighted>
0.0064

> <Gold.Chemscore.DEInternal.Weighted>
0.8905

> <Gold.Chemscore.Rot.Weighted>
3.5733

> <Gold.Chemscore.Internal.Correction.Weighted>
   9.000000E+99

> <Gold.Protein.RotatedTorsions>
[ 6907 6896 6895 6894 ] final  -25.82 input  -60.11 | X-H torsion
[ 7974 7965 7964 7962 ] final   66.40 input  175.53 | X-H torsion
[ 8008 7997 7996 7995 ] final  -78.13 input   59.86 | X-H torsion
[ 10167 10162 10161 10158 ] final -176.41 input  -65.29 | X-H torsion
[ 10718 10713 10712 10709 ] final  112.09 input   66.30 | X-H torsion
[ 10763 10752 10751 10750 ] final  120.43 input  -60.55 | X-H torsion
[ 11005 11000 10999 10996 ] final -156.22 input  -57.11 | X-H torsion

> <Gold.Protein.ActiveResidues>
 VAL166  LYS551  ARG553  GLY616  TRP617  ASP618  TYR619  PRO620  LYS621  CYS622 
 ASP623  PHE694  ASN695  SER759  ASP760  ASP761  ALA762  ILE779  LEU786  VAL792 
 PHE793  MET794  SER795  GLU796  ALA797  LYS798  CYS799  TRP800  GLU811  SER814 

> <Gold.Protein.RotatedAtoms>
  151.1697  135.0312  159.8746 H   0  0  0  0  0  0  0  0  0  0  0  0  # atno 6907 bound_to 6896
  152.5449  134.1184  159.8398 H   0  0  0  0  0  0  0  0  0  0  0  0  # atno 6908 bound_to 6896
  151.1289  133.5004  159.2632 H   0  0  0  0  0  0  0  0  0  0  0  0  # atno 6909 bound_to 6896
  145.8270  139.3117  143.1009 H   0  0  0  0  0  0  0  0  0  0  0  0  # atno 7974 bound_to 7965
  154.5661  140.0699  156.8893 H   0  0  0  0  0  0  0  0  0  0  0  0  # atno 8008 bound_to 7997
  155.2721  140.3366  155.4246 H   0  0  0  0  0  0  0  0  0  0  0  0  # atno 8009 bound_to 7997
  156.2081  140.1748  156.7740 H   0  0  0  0  0  0  0  0  0  0  0  0  # atno 8010 bound_to 7997
  139.5531  144.2058  152.1112 H   0  0  0  0  0  0  0  0  0  0  0  0  # atno 10167 bound_to 10162
  157.6411  131.0962  150.6845 H   0  0  0  0  0  0  0  0  0  0  0  0  # atno 10718 bound_to 10713
  153.5985  135.3452  155.2936 H   0  0  0  0  0  0  0  0  0  0  0  0  # atno 10763 bound_to 10752
  154.8640  135.4222  154.2439 H   0  0  0  0  0  0  0  0  0  0  0  0  # atno 10764 bound_to 10752
  153.3262  135.7041  153.7058 H   0  0  0  0  0  0  0  0  0  0  0  0  # atno 10765 bound_to 10752
  140.6779  134.4176  157.5228 H   0  0  0  0  0  0  0  0  0  0  0  0  # atno 11005 bound_to 11000
  145.9612  140.8834  143.0210 LP  0  0  0  0  0  0  0  0  0  0  0  0  # atno 17320 bound_to 7965
  144.6743  140.1815  143.7405 LP  0  0  0  0  0  0  0  0  0  0  0  0  # atno 17321 bound_to 7965
  140.1557  144.5073  150.6661 LP  0  0  0  0  0  0  0  0  0  0  0  0  # atno 17342 bound_to 10162
  140.6798  143.2321  151.5413 LP  0  0  0  0  0  0  0  0  0  0  0  0  # atno 17343 bound_to 10162
  156.7169  130.4668  149.5533 LP  0  0  0  0  0  0  0  0  0  0  0  0  # atno 17370 bound_to 10713
  156.1692  130.6426  151.0816 LP  0  0  0  0  0  0  0  0  0  0  0  0  # atno 17371 bound_to 10713
  139.8961  134.8668  156.2103 LP  0  0  0  0  0  0  0  0  0  0  0  0  # atno 17394 bound_to 11000
  141.0340  133.6973  156.1481 LP  0  0  0  0  0  0  0  0  0  0  0  0  # atno 17395 bound_to 11000

$$$$
