AV-unprocessed.smi:2180|AV-procd|sdf|8859|dock4
  -GOLD-   2272012 53D 1   1.00000     0.00000
 Structure written by MMmdl.
 39 40  0  0  0  0  0  0  0  0  1 V2000
  150.8645  145.1670  159.9197 C   0  0  0  0  0  0  0  0  0  0  0  0
  151.6509  143.8945  160.0372 C   0  0  0  0  0  0  0  0  0  0  0  0
  152.5208  143.4900  161.0878 C   0  0  0  0  0  0  0  0  0  0  0  0
  152.9738  142.2610  160.6982 C   0  0  0  0  0  0  0  0  0  0  0  0
  153.9218  141.3298  161.3813 C   0  0  0  0  0  0  0  0  0  0  0  0
  152.3835  141.9849  159.4757 N   0  0  0  0  0  0  0  0  0  0  0  0
  152.5280  140.8142  158.6237 C   0  0  0  0  0  0  0  0  0  0  0  0
  151.2349  140.5224  157.8608 C   0  0  0  0  0  0  0  0  0  0  0  0
  150.6837  139.4279  157.9755 O   0  0  0  0  0  0  0  0  0  0  0  0
  150.7605  141.5147  157.0917 N   0  0  0  0  0  0  0  0  0  0  0  0
  149.5204  141.4823  156.3184 C   0  0  2  0  0  0  0  0  0  0  0  0
  148.3421  140.9813  157.1924 C   0  0  0  0  0  0  0  0  0  0  0  0
  147.1591  140.3436  156.4341 C   0  0  0  0  0  0  0  0  0  0  0  0
  146.5530  141.2023  155.3054 C   0  0  0  0  0  0  0  0  0  0  0  0
  147.5258  141.6968  154.2079 C   0  0  0  0  0  0  0  0  0  0  0  0
  148.7302  140.8812  154.0548 N   0  0  0  0  0  0  0  0  0  0  0  0
  149.7040  140.7540  154.9727 C   0  0  0  0  0  0  0  0  0  0  0  0
  150.7011  140.0649  154.7598 O   0  0  0  0  0  0  0  0  0  0  0  0
  151.5708  142.9882  159.0775 N   0  0  0  0  0  0  0  0  0  0  0  0
  151.1904  145.9002  160.6576 H   0  0  0  0  0  0  0  0  0  0  0  0
  149.8012  144.9855  160.0779 H   0  0  0  0  0  0  0  0  0  0  0  0
  150.9836  145.6158  158.9331 H   0  0  0  0  0  0  0  0  0  0  0  0
  152.7752  144.0234  161.9917 H   0  0  0  0  0  0  0  0  0  0  0  0
  154.0697  141.6217  162.4211 H   0  0  0  0  0  0  0  0  0  0  0  0
  154.8953  141.3404  160.8913 H   0  0  0  0  0  0  0  0  0  0  0  0
  153.5469  140.3063  161.3741 H   0  0  0  0  0  0  0  0  0  0  0  0
  153.3575  140.9749  157.9341 H   0  0  0  0  0  0  0  0  0  0  0  0
  152.7908  139.9489  159.2347 H   0  0  0  0  0  0  0  0  0  0  0  0
  151.2820  142.3791  157.0623 H   0  0  0  0  0  0  0  0  0  0  0  0
  149.3083  142.5183  156.0505 H   0  0  0  0  0  0  0  0  0  0  0  0
  148.7100  140.2409  157.9044 H   0  0  0  0  0  0  0  0  0  0  0  0
  147.9752  141.8114  157.7972 H   0  0  0  0  0  0  0  0  0  0  0  0
  147.4674  139.3799  156.0266 H   0  0  0  0  0  0  0  0  0  0  0  0
  146.3734  140.1062  157.1518 H   0  0  0  0  0  0  0  0  0  0  0  0
  145.7710  140.6107  154.8280 H   0  0  0  0  0  0  0  0  0  0  0  0
  146.0420  142.0635  155.7371 H   0  0  0  0  0  0  0  0  0  0  0  0
  147.0068  141.7263  153.2497 H   0  0  0  0  0  0  0  0  0  0  0  0
  147.8181  142.7286  154.4056 H   0  0  0  0  0  0  0  0  0  0  0  0
  148.8422  140.3916  153.1785 H   0  0  0  0  0  0  0  0  0  0  0  0
  1  2  1  0  0  0  0
  1 20  1  0  0  0  0
  1 21  1  0  0  0  0
  1 22  1  0  0  0  0
  2 19  2  0  0  0  0
  2  3  1  0  0  0  0
  3  4  2  0  0  0  0
  3 23  1  0  0  0  0
  4  5  1  0  0  0  0
  4  6  1  0  0  0  0
  5 24  1  0  0  0  0
  5 25  1  0  0  0  0
  5 26  1  0  0  0  0
  6  7  1  0  0  0  0
  6 19  1  0  0  0  0
  7  8  1  0  0  0  0
  7 27  1  0  0  0  0
  7 28  1  0  0  0  0
  8  9  2  0  0  0  0
  8 10  1  0  0  0  0
 10 11  1  0  0  0  0
 10 29  1  0  0  0  0
 11 17  1  0  0  0  0
 11 12  1  0  0  0  0
 11 30  1  0  0  0  0
 12 13  1  0  0  0  0
 12 31  1  0  0  0  0
 12 32  1  0  0  0  0
 13 14  1  0  0  0  0
 13 33  1  0  0  0  0
 13 34  1  0  0  0  0
 14 15  1  0  0  0  0
 14 35  1  0  0  0  0
 14 36  1  0  0  0  0
 15 16  1  0  0  0  0
 15 37  1  0  0  0  0
 15 38  1  0  0  0  0
 16 17  1  0  0  0  0
 16 39  1  0  0  0  0
 17 18  2  0  0  0  0
M  END
> <s_m_source_file>
AV-unprocessed.smi

> <i_m_source_file_index>
2180

> <i_lp_mmshare_version>
43012

> <i_f3d_flags>
0

> <s_epik_input>
W0NIM11jMVtjSF1jKFtDSDNdKW4objEpW0NIMl1DKD1PKVtOSF1bQ0BASF0yW0NIMl1bQ0gyXVtDSDJdW0NIMl1bTkhdQzI9Tw==

> <s_epik_cmdline>
J2VwaWtfcHl0aG9uJywgJy1waCcsICc3LjAnLCAnLXRuJywgJzgnLCAnLW1hJywgJzIwMCcsICctbWV0YWxfYmluZGluZycsICctaW1hZScsICc8aW5maWxlLm1hZT4nLCAnLW9tYWUnLCAnPG91dGZpbGUubWFlPic=

> <r_lp_tautomer_probability>
1

> <r_epik_Ionization_Penalty>
0.000287215

> <r_epik_Ionization_Penalty_Charging>
0

> <r_epik_Ionization_Penalty_Neutral>
0.000287215

> <r_epik_State_Penalty>
-0

> <r_epik_Charging_Adjusted_Penalty>
0

> <i_epik_Tot_Q>
0

> <i_epik_Tot_abs_Q>
0

> <r_epik_Metal_State_Penalty>
-0

> <b_epik_Metal_Only>
0

> <s_lp_Force_Field>
OPLS_2005

> <r_lp_Energy>
13.5369

> <b_lp_Chiralities_Consistent>
1

> <s_lp_Variant>
AV-unprocessed.smi:2180-1

> <Gold.Version>
5.8.1

> <Gold.Id.Protein>
6NUR|6NUR_protein|mol2

> <Gold.PLP.Fitness>
44.1452

> <Gold.PLP.PLP>
-39.3025

> <Gold.PLP.part.hbond>
-2.0000

> <Gold.PLP.part.metal>
0.0000

> <Gold.PLP.part.buried>
-6.1381

> <Gold.PLP.part.nonpolar>
-32.0193

> <Gold.PLP.part.repulsive>
0.3413

> <Gold.PLP.ligand.clash>
0.0000

> <Gold.PLP.ligand.torsion>
0.5923

> <Gold.PLP.Chemscore.Hbond>
1.9913

> <Gold.PLP.Chemscore.CHOScore>
0.0000

> <Gold.PLP.Chemscore.Metal>
0.0000

> <Gold.Chemscore.Hbonds>
donor molecule, donor type, donor heavy atom, donor atom, acceptor molecule, acceptor atom, score
      L1  H    16    39       P1  7957  0.62
      P1  H  7989  7998       L1    18  1.00

> <Gold.PLP.Chemscore.Internal.Correction>
0.0534

> <Gold.Rescore>
     Score         DG    S(hbond)    S(metal)    S(lipo)     H(rot)  DE(clash)    DE(int)     intcor
     13.91     -17.63       1.91        0.00      81.83       1.48       0.08       3.64       ----

> <Gold.Chemscore.Fitness>
13.9106

> <Gold.Chemscore.DG>
-17.6335

> <Gold.Chemscore.ZeroCoef>
-5.4800

> <Gold.Chemscore.Hbond>
1.9096

> <Gold.Chemscore.Metal>
0.0000

> <Gold.Chemscore.Lipo>
81.8335

> <Gold.Chemscore.Internal_Hbond>
0.0000

> <Gold.Chemscore.DEClash>
0.0787

> <Gold.Chemscore.DEInternal>
3.6442

> <Gold.Chemscore.Rot>
1.4840

> <Gold.Chemscore.Internal.Correction>
   9.000000E+99

> <Gold.Chemscore.Hbonds>
donor molecule, donor type, donor heavy atom, donor atom, acceptor molecule, acceptor atom, score
      L1  H    16    39       P1  7957  0.60
      P1  H  7989  7998       L1    18  0.60

> <Gold.Chemscore.Hbond.Weighted>
-6.3781

> <Gold.Chemscore.Metal.Weighted>
-0.0000

> <Gold.Chemscore.Lipo.Weighted>
-9.5745

> <Gold.Chemscore.Internal_Hbond.Weighted>
0.0000

> <Gold.Chemscore.DEClash.Weighted>
0.0787

> <Gold.Chemscore.DEInternal.Weighted>
3.6442

> <Gold.Chemscore.Rot.Weighted>
3.7991

> <Gold.Chemscore.Internal.Correction.Weighted>
   9.000000E+99

> <Gold.Protein.RotatedTorsions>
[ 6907 6896 6895 6894 ] final  149.71 input  -60.11 | X-H torsion
[ 7974 7965 7964 7962 ] final  -86.61 input  175.53 | X-H torsion
[ 8008 7997 7996 7995 ] final -140.60 input   59.86 | X-H torsion
[ 10167 10162 10161 10158 ] final  162.62 input  -65.29 | X-H torsion
[ 10718 10713 10712 10709 ] final   85.13 input   66.30 | X-H torsion
[ 10763 10752 10751 10750 ] final   -1.21 input  -60.55 | X-H torsion
[ 11005 11000 10999 10996 ] final -108.72 input  -57.11 | X-H torsion

> <Gold.Protein.ActiveResidues>
 VAL166  LYS551  ARG553  GLY616  TRP617  ASP618  TYR619  PRO620  LYS621  CYS622 
 ASP623  PHE694  ASN695  SER759  ASP760  ASP761  ALA762  ILE779  LEU786  VAL792 
 PHE793  MET794  SER795  GLU796  ALA797  LYS798  CYS799  TRP800  GLU811  SER814 

> <Gold.Protein.RotatedAtoms>
  152.1243  133.4371  159.4690 H   0  0  0  0  0  0  0  0  0  0  0  0  # atno 6907 bound_to 6896
  150.6874  134.2497  159.4515 H   0  0  0  0  0  0  0  0  0  0  0  0  # atno 6908 bound_to 6896
  152.0376  134.9730  160.0624 H   0  0  0  0  0  0  0  0  0  0  0  0  # atno 6909 bound_to 6896
  145.4776  140.9558  143.1882 H   0  0  0  0  0  0  0  0  0  0  0  0  # atno 7974 bound_to 7965
  155.4640  140.0548  157.2987 H   0  0  0  0  0  0  0  0  0  0  0  0  # atno 8008 bound_to 7997
  154.4726  140.2047  155.9912 H   0  0  0  0  0  0  0  0  0  0  0  0  # atno 8009 bound_to 7997
  156.1080  140.3208  155.8037 H   0  0  0  0  0  0  0  0  0  0  0  0  # atno 8010 bound_to 7997
  139.4863  144.4419  151.8941 H   0  0  0  0  0  0  0  0  0  0  0  0  # atno 10167 bound_to 10162
  157.6910  131.0162  150.2777 H   0  0  0  0  0  0  0  0  0  0  0  0  # atno 10718 bound_to 10713
  153.3419  135.6981  153.6860 H   0  0  0  0  0  0  0  0  0  0  0  0  # atno 10763 bound_to 10752
  153.5622  135.3533  155.2804 H   0  0  0  0  0  0  0  0  0  0  0  0  # atno 10764 bound_to 10752
  154.8638  135.4252  154.2633 H   0  0  0  0  0  0  0  0  0  0  0  0  # atno 10765 bound_to 10752
  141.0887  133.9094  157.2127 H   0  0  0  0  0  0  0  0  0  0  0  0  # atno 11005 bound_to 11000
  144.7908  139.6332  143.7114 LP  0  0  0  0  0  0  0  0  0  0  0  0  # atno 17320 bound_to 7965
  146.2360  139.5906  142.9523 LP  0  0  0  0  0  0  0  0  0  0  0  0  # atno 17321 bound_to 7965
  140.3871  144.2662  150.5903 LP  0  0  0  0  0  0  0  0  0  0  0  0  # atno 17342 bound_to 10162
  140.5180  143.2273  151.8433 LP  0  0  0  0  0  0  0  0  0  0  0  0  # atno 17343 bound_to 10162
  156.3328  130.3803  149.7476 LP  0  0  0  0  0  0  0  0  0  0  0  0  # atno 17370 bound_to 10713
  156.5010  130.8128  151.3132 LP  0  0  0  0  0  0  0  0  0  0  0  0  # atno 17371 bound_to 10713
  139.9709  135.0128  156.9508 LP  0  0  0  0  0  0  0  0  0  0  0  0  # atno 17394 bound_to 11000
  140.5304  134.0819  155.7314 LP  0  0  0  0  0  0  0  0  0  0  0  0  # atno 17395 bound_to 11000

$$$$
