AV-unprocessed.smi:76|AV-procd|sdf|769|dock6
  -GOLD-   2262017113D 1   1.00000     0.00000
 Structure written by MMmdl.
 55 58  0  0  0  0  0  0  0  0  1 V2000
  149.8336  141.7126  155.4536 C   0  0  0  0  0  0  0  0  0  0  0  0
  150.4734  141.4560  156.8345 C   0  0  2  0  0  0  0  0  0  0  0  0
  150.6501  142.7946  157.5825 C   0  0  0  0  0  0  0  0  0  0  0  0
  151.3140  142.6078  158.9612 C   0  0  2  0  0  0  0  0  0  0  0  0
  151.4969  143.9448  159.7076 C   0  0  0  0  0  0  0  0  0  0  0  0
  150.3206  144.5351  159.9214 F   0  0  0  0  0  0  0  0  0  0  0  0
  152.0930  143.7339  160.8809 F   0  0  0  0  0  0  0  0  0  0  0  0
  152.2664  144.7643  158.9911 F   0  0  0  0  0  0  0  0  0  0  0  0
  152.6449  141.8551  158.7782 C   0  0  0  0  0  0  0  0  0  0  0  0
  152.4264  140.5317  158.0322 C   0  0  0  0  0  0  0  0  0  0  0  0
  151.7612  140.7529  156.7488 N   0  0  0  0  0  0  0  0  0  0  0  0
  151.7553  139.6317  155.9929 C   0  0  0  0  0  0  0  0  0  0  0  0
  152.8203  139.3386  155.2004 N   0  0  0  0  0  0  0  0  0  0  0  0
  152.8148  138.2216  154.4662 C   0  0  0  0  0  0  0  0  0  0  0  0
  151.8693  137.2826  154.3808 N   0  0  0  0  0  0  0  0  0  0  0  0
  150.8009  137.5787  155.1762 C   0  0  0  0  0  0  0  0  0  0  0  0
  150.6653  138.7234  156.0089 C   0  0  0  0  0  0  0  0  0  0  0  0
  149.4515  138.6857  156.6817 N   0  0  0  0  0  0  0  0  0  0  0  0
  148.8993  137.5766  156.2707 C   0  0  0  0  0  0  0  0  0  0  0  0
  149.6327  136.8565  155.3534 N   0  0  0  0  0  0  0  0  0  0  0  0
  149.2623  135.5887  154.7402 C   0  0  0  0  0  0  0  0  0  0  0  0
  149.0392  134.4089  155.7383 C   0  0  0  0  0  0  0  0  0  0  0  0
  150.2211  134.3825  156.7474 C   0  0  0  0  0  0  0  0  0  0  0  0
  150.1805  133.2808  157.6331 O   0  0  0  0  0  0  0  0  0  0  0  0
  147.7001  134.6319  156.4875 C   0  0  0  0  0  0  0  0  0  0  0  0
  146.4701  134.4138  155.5852 C   0  0  0  0  0  0  0  0  0  0  0  0
  146.5152  133.1193  154.9972 O   0  0  0  0  0  0  0  0  0  0  0  0
  147.6551  132.9203  154.1701 C   0  0  0  0  0  0  0  0  0  0  0  0
  148.9390  133.0431  155.0102 C   0  0  0  0  0  0  0  0  0  0  0  0
  148.9082  142.2803  155.5534 H   0  0  0  0  0  0  0  0  0  0  0  0
  149.5806  140.7845  154.9406 H   0  0  0  0  0  0  0  0  0  0  0  0
  150.5026  142.2809  154.8064 H   0  0  0  0  0  0  0  0  0  0  0  0
  149.7914  140.8318  157.4140 H   0  0  0  0  0  0  0  0  0  0  0  0
  151.2536  143.4721  156.9767 H   0  0  0  0  0  0  0  0  0  0  0  0
  149.6790  143.2754  157.7034 H   0  0  0  0  0  0  0  0  0  0  0  0
  150.6560  141.9811  159.5654 H   0  0  0  0  0  0  0  0  0  0  0  0
  153.3506  142.4736  158.2223 H   0  0  0  0  0  0  0  0  0  0  0  0
  153.1038  141.6555  159.7467 H   0  0  0  0  0  0  0  0  0  0  0  0
  153.3868  140.0393  157.8718 H   0  0  0  0  0  0  0  0  0  0  0  0
  151.8234  139.8608  158.6465 H   0  0  0  0  0  0  0  0  0  0  0  0
  153.6945  138.0557  153.8618 H   0  0  0  0  0  0  0  0  0  0  0  0
  147.9314  137.2533  156.6255 H   0  0  0  0  0  0  0  0  0  0  0  0
  148.3538  135.7547  154.1598 H   0  0  0  0  0  0  0  0  0  0  0  0
  150.0303  135.3514  154.0059 H   0  0  0  0  0  0  0  0  0  0  0  0
  151.1764  134.3381  156.2244 H   0  0  0  0  0  0  0  0  0  0  0  0
  150.2294  135.2946  157.3451 H   0  0  0  0  0  0  0  0  0  0  0  0
  150.2542  132.4860  157.1274 H   0  0  0  0  0  0  0  0  0  0  0  0
  147.6151  133.9371  157.3233 H   0  0  0  0  0  0  0  0  0  0  0  0
  147.6696  135.6305  156.9248 H   0  0  0  0  0  0  0  0  0  0  0  0
  145.5601  134.4903  156.1806 H   0  0  0  0  0  0  0  0  0  0  0  0
  146.3945  135.1771  154.8107 H   0  0  0  0  0  0  0  0  0  0  0  0
  147.5943  131.9237  153.7327 H   0  0  0  0  0  0  0  0  0  0  0  0
  147.6473  133.6253  153.3386 H   0  0  0  0  0  0  0  0  0  0  0  0
  149.8161  132.8595  154.3911 H   0  0  0  0  0  0  0  0  0  0  0  0
  148.9273  132.2344  155.7415 H   0  0  0  0  0  0  0  0  0  0  0  0
  1  2  1  0  0  0  0
  1 30  1  0  0  0  0
  1 31  1  0  0  0  0
  1 32  1  0  0  0  0
  2 11  1  0  0  0  0
  2  3  1  0  0  0  0
  2 33  1  0  0  0  0
  3  4  1  0  0  0  0
  3 34  1  0  0  0  0
  3 35  1  0  0  0  0
  4  5  1  0  0  0  0
  4  9  1  0  0  0  0
  4 36  1  0  0  0  0
  5  6  1  0  0  0  0
  5  7  1  0  0  0  0
  5  8  1  0  0  0  0
  9 10  1  0  0  0  0
  9 37  1  0  0  0  0
  9 38  1  0  0  0  0
 10 11  1  0  0  0  0
 10 39  1  0  0  0  0
 10 40  1  0  0  0  0
 11 12  1  0  0  0  0
 12 17  1  0  0  0  0
 12 13  2  0  0  0  0
 13 14  1  0  0  0  0
 14 15  2  0  0  0  0
 14 41  1  0  0  0  0
 15 16  1  0  0  0  0
 16 20  1  0  0  0  0
 16 17  2  0  0  0  0
 17 18  1  0  0  0  0
 18 19  2  0  0  0  0
 19 20  1  0  0  0  0
 19 42  1  0  0  0  0
 20 21  1  0  0  0  0
 21 22  1  0  0  0  0
 21 43  1  0  0  0  0
 21 44  1  0  0  0  0
 22 29  1  0  0  0  0
 22 23  1  0  0  0  0
 22 25  1  0  0  0  0
 23 24  1  0  0  0  0
 23 45  1  0  0  0  0
 23 46  1  0  0  0  0
 24 47  1  0  0  0  0
 25 26  1  0  0  0  0
 25 48  1  0  0  0  0
 25 49  1  0  0  0  0
 26 27  1  0  0  0  0
 26 50  1  0  0  0  0
 26 51  1  0  0  0  0
 27 28  1  0  0  0  0
 28 29  1  0  0  0  0
 28 52  1  0  0  0  0
 28 53  1  0  0  0  0
 29 54  1  0  0  0  0
 29 55  1  0  0  0  0
M  END
> <s_m_source_file>
AV-unprocessed.smi

> <i_m_source_file_index>
76

> <i_lp_mmshare_version>
43012

> <i_f3d_flags>
0

> <s_epik_input>
W0NIM11bQ0BASF0xW0NIMl1bQ0BASF0oQyhGKShGKUYpW0NIMl1bQ0gyXU4xYyhuW2NIXW4yKWMoYzIzKW5bY0hdbjNbQ0gyXUM0KFtDSDJdW09IXSlbQ0gyXVtDSDJdT1tDSDJdW0NIMl00

> <s_epik_cmdline>
J2VwaWtfcHl0aG9uJywgJy1waCcsICc3LjAnLCAnLXRuJywgJzgnLCAnLW1hJywgJzIwMCcsICctbWV0YWxfYmluZGluZycsICctaW1hZScsICc8aW5maWxlLm1hZT4nLCAnLW9tYWUnLCAnPG91dGZpbGUubWFlPic=

> <r_lp_tautomer_probability>
1

> <r_epik_Ionization_Penalty>
0.00244097

> <r_epik_Ionization_Penalty_Charging>
0

> <r_epik_Ionization_Penalty_Neutral>
0.00244097

> <r_epik_State_Penalty>
0.00151846

> <r_epik_Charging_Adjusted_Penalty>
0.00151846

> <i_epik_Tot_Q>
0

> <i_epik_Tot_abs_Q>
0

> <r_epik_Metal_State_Penalty>
-0

> <b_epik_Metal_Only>
0

> <s_lp_Force_Field>
OPLS_2005

> <r_lp_Energy>
38.0325

> <b_lp_Chiralities_Consistent>
1

> <s_lp_Variant>
AV-unprocessed.smi:76-3

> <Gold.Version>
5.8.1

> <Gold.Id.Protein>
6NUR|6NUR_protein|mol2

> <Gold.PLP.Fitness>
52.7739

> <Gold.PLP.PLP>
-45.8019

> <Gold.PLP.part.hbond>
-3.3971

> <Gold.PLP.part.metal>
0.0000

> <Gold.PLP.part.buried>
-1.5765

> <Gold.PLP.part.nonpolar>
-39.9770

> <Gold.PLP.part.repulsive>
0.1794

> <Gold.PLP.ligand.clash>
0.0000

> <Gold.PLP.ligand.torsion>
0.8156

> <Gold.PLP.Chemscore.Hbond>
2.7920

> <Gold.PLP.Chemscore.CHOScore>
0.0000

> <Gold.PLP.Chemscore.Metal>
0.0000

> <Gold.Chemscore.Hbonds>
donor molecule, donor type, donor heavy atom, donor atom, acceptor molecule, acceptor atom, score
      P1  H  6896  6907       L1    24  1.00
      P1  H  7997  8009       L1    13  1.00
      P1  H 10752 10765       L1    15  1.00

> <Gold.PLP.Chemscore.Internal.Correction>
0.2272

> <Gold.Rescore>
     Score         DG    S(hbond)    S(metal)    S(lipo)     H(rot)  DE(clash)    DE(int)     intcor
     15.35     -17.42       2.39        0.00      87.72       2.47       0.07       1.99       ----

> <Gold.Chemscore.Fitness>
15.3525

> <Gold.Chemscore.DG>
-17.4186

> <Gold.Chemscore.ZeroCoef>
-5.4800

> <Gold.Chemscore.Hbond>
2.3920

> <Gold.Chemscore.Metal>
0.0000

> <Gold.Chemscore.Lipo>
87.7222

> <Gold.Chemscore.Internal_Hbond>
0.0000

> <Gold.Chemscore.DEClash>
0.0718

> <Gold.Chemscore.DEInternal>
1.9943

> <Gold.Chemscore.Rot>
2.4665

> <Gold.Chemscore.Internal.Correction>
   9.000000E+99

> <Gold.Chemscore.Hbonds>
donor molecule, donor type, donor heavy atom, donor atom, acceptor molecule, acceptor atom, score
      P1  H  6896  6907       L1    24  0.87
      P1  H  7997  8009       L1    13  0.43
      P1  H 10752 10765       L1    15  0.24

> <Gold.Chemscore.Hbond.Weighted>
-7.9892

> <Gold.Chemscore.Metal.Weighted>
-0.0000

> <Gold.Chemscore.Lipo.Weighted>
-10.2635

> <Gold.Chemscore.Internal_Hbond.Weighted>
0.0000

> <Gold.Chemscore.DEClash.Weighted>
0.0718

> <Gold.Chemscore.DEInternal.Weighted>
1.9943

> <Gold.Chemscore.Rot.Weighted>
6.3142

> <Gold.Chemscore.Internal.Correction.Weighted>
   9.000000E+99

> <Gold.Protein.RotatedTorsions>
[ 6907 6896 6895 6894 ] final -142.83 input  -60.11 | X-H torsion
[ 7974 7965 7964 7962 ] final  143.26 input  175.53 | X-H torsion
[ 8008 7997 7996 7995 ] final -153.61 input   59.86 | X-H torsion
[ 10167 10162 10161 10158 ] final -179.95 input  -65.29 | X-H torsion
[ 10718 10713 10712 10709 ] final  -11.99 input   66.30 | X-H torsion
[ 10763 10752 10751 10750 ] final  157.55 input  -60.55 | X-H torsion
[ 11005 11000 10999 10996 ] final    4.27 input  -57.11 | X-H torsion

> <Gold.Protein.ActiveResidues>
 VAL166  LYS551  ARG553  GLY616  TRP617  ASP618  TYR619  PRO620  LYS621  CYS622 
 ASP623  PHE694  ASN695  SER759  ASP760  ASP761  ALA762  ILE779  LEU786  VAL792 
 PHE793  MET794  SER795  GLU796  ALA797  LYS798  CYS799  TRP800  GLU811  SER814 

> <Gold.Protein.RotatedAtoms>
  151.0922  133.5307  159.2614 H   0  0  0  0  0  0  0  0  0  0  0  0  # atno 6907 bound_to 6896
  151.2169  135.0503  159.8944 H   0  0  0  0  0  0  0  0  0  0  0  0  # atno 6908 bound_to 6896
  152.5435  134.0730  159.8256 H   0  0  0  0  0  0  0  0  0  0  0  0  # atno 6909 bound_to 6896
  144.8936  139.5522  143.5787 H   0  0  0  0  0  0  0  0  0  0  0  0  # atno 7974 bound_to 7965
  155.6735  140.0736  157.2511 H   0  0  0  0  0  0  0  0  0  0  0  0  # atno 8008 bound_to 7997
  154.4119  140.1695  156.1956 H   0  0  0  0  0  0  0  0  0  0  0  0  # atno 8009 bound_to 7997
  155.9596  140.3371  155.6482 H   0  0  0  0  0  0  0  0  0  0  0  0  # atno 8010 bound_to 7997
  139.5363  144.2487  152.0802 H   0  0  0  0  0  0  0  0  0  0  0  0  # atno 10167 bound_to 10162
  156.6510  130.4955  149.6062 H   0  0  0  0  0  0  0  0  0  0  0  0  # atno 10718 bound_to 10713
  154.2020  135.2790  155.2987 H   0  0  0  0  0  0  0  0  0  0  0  0  # atno 10763 bound_to 10752
  154.5846  135.5579  153.7222 H   0  0  0  0  0  0  0  0  0  0  0  0  # atno 10764 bound_to 10752
  153.0085  135.6353  154.2159 H   0  0  0  0  0  0  0  0  0  0  0  0  # atno 10765 bound_to 10752
  140.5838  133.9987  155.8059 H   0  0  0  0  0  0  0  0  0  0  0  0  # atno 11005 bound_to 11000
  146.3068  139.7608  142.9050 LP  0  0  0  0  0  0  0  0  0  0  0  0  # atno 17320 bound_to 7965
  145.3739  141.0347  143.3215 LP  0  0  0  0  0  0  0  0  0  0  0  0  # atno 17321 bound_to 7965
  140.1958  144.4706  150.6456 LP  0  0  0  0  0  0  0  0  0  0  0  0  # atno 17342 bound_to 10162
  140.6571  143.2241  151.5942 LP  0  0  0  0  0  0  0  0  0  0  0  0  # atno 17343 bound_to 10162
  156.2084  130.6663  151.1243 LP  0  0  0  0  0  0  0  0  0  0  0  0  # atno 17370 bound_to 10713
  157.7141  131.0719  150.6394 LP  0  0  0  0  0  0  0  0  0  0  0  0  # atno 17371 bound_to 10713
  141.0979  133.9815  157.3129 LP  0  0  0  0  0  0  0  0  0  0  0  0  # atno 17394 bound_to 11000
  139.9305  135.0200  156.8383 LP  0  0  0  0  0  0  0  0  0  0  0  0  # atno 17395 bound_to 11000

$$$$
