AV-unprocessed.smi:75|AV-procd|sdf|765|dock3
  -GOLD-   2262017103D 1   1.00000     0.00000
 Structure written by MMmdl.
 51 54  0  0  0  0  0  0  0  0  1 V2000
  148.8654  131.8316  159.7195 N   0  0  0  0  0  0  0  0  0  0  0  0
  149.1314  132.0080  158.4232 C   0  0  0  0  0  0  0  0  0  0  0  0
  149.7875  132.9671  158.0226 O   0  0  0  0  0  0  0  0  0  0  0  0
  148.5672  130.9492  157.4608 C   0  0  0  0  0  0  0  0  0  0  0  0
  149.5991  130.1488  156.6144 C   0  0  2  0  0  0  0  0  0  0  0  0
  150.6690  129.4700  157.5010 C   0  0  0  0  0  0  0  0  0  0  0  0
  151.5525  128.7001  156.6936 O   0  0  0  0  0  0  0  0  0  0  0  0
  152.2550  129.5107  155.7596 C   0  0  0  0  0  0  0  0  0  0  0  0
  151.2485  130.1721  154.8068 C   0  0  0  0  0  0  0  0  0  0  0  0
  150.2593  130.9326  155.5613 N   0  0  0  0  0  0  0  0  0  0  0  0
  149.4599  131.6447  154.7353 C   0  0  0  0  0  0  0  0  0  0  0  0
  149.6406  132.9879  154.7138 N   0  0  0  0  0  0  0  0  0  0  0  0
  148.8828  133.7515  153.9217 C   0  0  0  0  0  0  0  0  0  0  0  0
  147.9112  133.3809  153.0848 N   0  0  0  0  0  0  0  0  0  0  0  0
  147.7346  132.0279  153.0952 C   0  0  0  0  0  0  0  0  0  0  0  0
  148.4633  131.0911  153.8816 C   0  0  0  0  0  0  0  0  0  0  0  0
  148.0167  129.8025  153.6163 N   0  0  0  0  0  0  0  0  0  0  0  0
  147.0762  129.9675  152.7273 C   0  0  0  0  0  0  0  0  0  0  0  0
  146.8332  131.2733  152.3631 N   0  0  0  0  0  0  0  0  0  0  0  0
  145.8710  131.7308  151.4013 C   0  0  0  0  0  0  0  0  0  0  0  0
  146.1898  132.8785  150.4383 C   0  0  0  0  0  0  0  0  0  0  0  0
  144.7125  133.3330  150.5112 C   0  0  0  0  0  0  0  0  0  0  0  0
  144.4411  134.8484  150.5936 C   0  0  0  0  0  0  0  0  0  0  0  0
  144.4430  135.4689  149.3231 O   0  0  0  0  0  0  0  0  0  0  0  0
  143.7916  132.7635  149.4157 C   0  0  0  0  0  0  0  0  0  0  0  0
  142.5686  132.3009  149.9519 O   0  0  0  0  0  0  0  0  0  0  0  0
  144.6595  132.5530  151.8454 C   0  0  0  0  0  0  0  0  0  0  0  0
  149.2094  132.4985  160.3951 H   0  0  0  0  0  0  0  0  0  0  0  0
  148.3208  131.0368  160.0210 H   0  0  0  0  0  0  0  0  0  0  0  0
  147.9803  130.2403  158.0465 H   0  0  0  0  0  0  0  0  0  0  0  0
  147.8494  131.4443  156.8063 H   0  0  0  0  0  0  0  0  0  0  0  0
  149.0541  129.3423  156.1239 H   0  0  0  0  0  0  0  0  0  0  0  0
  151.2434  130.1987  158.0744 H   0  0  0  0  0  0  0  0  0  0  0  0
  150.1930  128.8055  158.2224 H   0  0  0  0  0  0  0  0  0  0  0  0
  152.8497  130.2616  156.2826 H   0  0  0  0  0  0  0  0  0  0  0  0
  152.9498  128.8864  155.1978 H   0  0  0  0  0  0  0  0  0  0  0  0
  151.7751  130.8285  154.1125 H   0  0  0  0  0  0  0  0  0  0  0  0
  150.7458  129.4093  154.2105 H   0  0  0  0  0  0  0  0  0  0  0  0
  149.0838  134.8119  153.9646 H   0  0  0  0  0  0  0  0  0  0  0  0
  146.5329  129.1332  152.3078 H   0  0  0  0  0  0  0  0  0  0  0  0
  145.5459  130.8556  150.8366 H   0  0  0  0  0  0  0  0  0  0  0  0
  146.8884  133.6031  150.8582 H   0  0  0  0  0  0  0  0  0  0  0  0
  146.5237  132.5523  149.4530 H   0  0  0  0  0  0  0  0  0  0  0  0
  143.4748  135.0515  151.0558 H   0  0  0  0  0  0  0  0  0  0  0  0
  145.1939  135.3432  151.2082 H   0  0  0  0  0  0  0  0  0  0  0  0
  145.2556  135.2597  148.8881 H   0  0  0  0  0  0  0  0  0  0  0  0
  143.5603  133.5157  148.6612 H   0  0  0  0  0  0  0  0  0  0  0  0
  144.2745  131.9409  148.8869 H   0  0  0  0  0  0  0  0  0  0  0  0
  141.8654  132.8094  149.5778 H   0  0  0  0  0  0  0  0  0  0  0  0
  143.7528  131.9666  151.9970 H   0  0  0  0  0  0  0  0  0  0  0  0
  144.8733  133.1641  152.7236 H   0  0  0  0  0  0  0  0  0  0  0  0
  1  2  1  0  0  0  0
  1 28  1  0  0  0  0
  1 29  1  0  0  0  0
  2  3  2  0  0  0  0
  2  4  1  0  0  0  0
  4  5  1  0  0  0  0
  4 30  1  0  0  0  0
  4 31  1  0  0  0  0
  5 10  1  0  0  0  0
  5  6  1  0  0  0  0
  5 32  1  0  0  0  0
  6  7  1  0  0  0  0
  6 33  1  0  0  0  0
  6 34  1  0  0  0  0
  7  8  1  0  0  0  0
  8  9  1  0  0  0  0
  8 35  1  0  0  0  0
  8 36  1  0  0  0  0
  9 10  1  0  0  0  0
  9 37  1  0  0  0  0
  9 38  1  0  0  0  0
 10 11  1  0  0  0  0
 11 16  1  0  0  0  0
 11 12  2  0  0  0  0
 12 13  1  0  0  0  0
 13 14  2  0  0  0  0
 13 39  1  0  0  0  0
 14 15  1  0  0  0  0
 15 19  1  0  0  0  0
 15 16  2  0  0  0  0
 16 17  1  0  0  0  0
 17 18  2  0  0  0  0
 18 19  1  0  0  0  0
 18 40  1  0  0  0  0
 19 20  1  0  0  0  0
 20 27  1  0  0  0  0
 20 21  1  0  0  0  0
 20 41  1  0  0  0  0
 21 22  1  0  0  0  0
 21 42  1  0  0  0  0
 21 43  1  0  0  0  0
 22 23  1  0  0  0  0
 22 25  1  0  0  0  0
 22 27  1  0  0  0  0
 23 24  1  0  0  0  0
 23 44  1  0  0  0  0
 23 45  1  0  0  0  0
 24 46  1  0  0  0  0
 25 26  1  0  0  0  0
 25 47  1  0  0  0  0
 25 48  1  0  0  0  0
 26 49  1  0  0  0  0
 27 50  1  0  0  0  0
 27 51  1  0  0  0  0
M  END
> <s_m_source_file>
AV-unprocessed.smi

> <i_m_source_file_index>
75

> <i_lp_mmshare_version>
43012

> <i_f3d_flags>
0

> <s_epik_input>
W05IMl1DKD1PKVtDSDJdW0NAQEhdMVtDSDJdT1tDSDJdW0NIMl1OMWMobltjSF1uMiljKGMyMyluW2NIXW4zW0NIXShbQ0gyXTQpW0NIMl1DNChbQ0gyXVtPSF0pW0NIMl1bT0hd

> <s_epik_cmdline>
J2VwaWtfcHl0aG9uJywgJy1waCcsICc3LjAnLCAnLXRuJywgJzgnLCAnLW1hJywgJzIwMCcsICctbWV0YWxfYmluZGluZycsICctaW1hZScsICc8aW5maWxlLm1hZT4nLCAnLW9tYWUnLCAnPG91dGZpbGUubWFlPic=

> <r_lp_tautomer_probability>
1

> <r_epik_Ionization_Penalty>
5.29078e-05

> <r_epik_Ionization_Penalty_Charging>
0

> <r_epik_Ionization_Penalty_Neutral>
5.29078e-05

> <r_epik_State_Penalty>
-0

> <r_epik_Charging_Adjusted_Penalty>
0

> <i_epik_Tot_Q>
0

> <i_epik_Tot_abs_Q>
0

> <r_epik_Metal_State_Penalty>
-0

> <b_epik_Metal_Only>
0

> <s_lp_Force_Field>
OPLS_2005

> <r_lp_Energy>
38.8238

> <b_lp_Chiralities_Consistent>
1

> <s_lp_Variant>
AV-unprocessed.smi:75-1

> <Gold.Version>
5.8.1

> <Gold.Id.Protein>
6NUR|6NUR_protein|mol2

> <Gold.PLP.Fitness>
47.5512

> <Gold.PLP.PLP>
-38.2438

> <Gold.PLP.part.hbond>
-4.1644

> <Gold.PLP.part.metal>
0.0000

> <Gold.PLP.part.buried>
-4.6224

> <Gold.PLP.part.nonpolar>
-29.6145

> <Gold.PLP.part.repulsive>
0.3891

> <Gold.PLP.ligand.clash>
0.0000

> <Gold.PLP.ligand.torsion>
1.3435

> <Gold.PLP.Chemscore.Hbond>
3.0000

> <Gold.PLP.Chemscore.CHOScore>
0.7637

> <Gold.PLP.Chemscore.Metal>
0.0000

> <Gold.Chemscore.Hbonds>
donor molecule, donor type, donor heavy atom, donor atom, acceptor molecule, acceptor atom, score
      L1  H    24    46       P1  7921  1.00
      L1  H    26    49       P1 10186  0.94
      P1  H  6896  6907       L1     3  0.93
      L1  C    13    39       P1  7948  0.79

> <Gold.PLP.Chemscore.Internal.Correction>
0.7033

> <Gold.Rescore>
     Score         DG    S(hbond)    S(metal)    S(lipo)     H(rot)  DE(clash)    DE(int)     intcor
     10.07     -11.64       2.97        0.00      69.12       4.63       0.33       1.24       ----

> <Gold.Chemscore.Fitness>
10.0690

> <Gold.Chemscore.DG>
-11.6432

> <Gold.Chemscore.ZeroCoef>
-5.4800

> <Gold.Chemscore.Hbond>
2.9699

> <Gold.Chemscore.Metal>
0.0000

> <Gold.Chemscore.Lipo>
69.1156

> <Gold.Chemscore.Internal_Hbond>
0.0000

> <Gold.Chemscore.DEClash>
0.3350

> <Gold.Chemscore.DEInternal>
1.2392

> <Gold.Chemscore.Rot>
4.6261

> <Gold.Chemscore.Internal.Correction>
   9.000000E+99

> <Gold.Chemscore.Hbonds>
donor molecule, donor type, donor heavy atom, donor atom, acceptor molecule, acceptor atom, score
      L1  H    24    46       P1  7921  0.95
      L1  H    26    49       P1 10186  0.91
      P1  H  6896  6907       L1     3  0.75

> <Gold.Chemscore.Hbond.Weighted>
-9.9195

> <Gold.Chemscore.Metal.Weighted>
-0.0000

> <Gold.Chemscore.Lipo.Weighted>
-8.0865

> <Gold.Chemscore.Internal_Hbond.Weighted>
0.0000

> <Gold.Chemscore.DEClash.Weighted>
0.3350

> <Gold.Chemscore.DEInternal.Weighted>
1.2392

> <Gold.Chemscore.Rot.Weighted>
11.8429

> <Gold.Chemscore.Internal.Correction.Weighted>
   9.000000E+99

> <Gold.Protein.RotatedTorsions>
[ 6907 6896 6895 6894 ] final -151.86 input  -60.11 | X-H torsion
[ 7974 7965 7964 7962 ] final  -85.42 input  175.53 | X-H torsion
[ 8008 7997 7996 7995 ] final -151.33 input   59.86 | X-H torsion
[ 10167 10162 10161 10158 ] final -124.00 input  -65.29 | X-H torsion
[ 10718 10713 10712 10709 ] final  -79.55 input   66.30 | X-H torsion
[ 10763 10752 10751 10750 ] final  138.03 input  -60.55 | X-H torsion
[ 11005 11000 10999 10996 ] final  146.23 input  -57.11 | X-H torsion

> <Gold.Protein.ActiveResidues>
 VAL166  LYS551  ARG553  GLY616  TRP617  ASP618  TYR619  PRO620  LYS621  CYS622 
 ASP623  PHE694  ASN695  SER759  ASP760  ASP761  ALA762  ILE779  LEU786  VAL792 
 PHE793  MET794  SER795  GLU796  ALA797  LYS798  CYS799  TRP800  GLU811  SER814 

> <Gold.Protein.RotatedAtoms>
  151.2193  133.4511  159.2600 H   0  0  0  0  0  0  0  0  0  0  0  0  # atno 6907 bound_to 6896
  151.0900  134.9911  159.8408 H   0  0  0  0  0  0  0  0  0  0  0  0  # atno 6908 bound_to 6896
  152.5433  134.2127  159.8809 H   0  0  0  0  0  0  0  0  0  0  0  0  # atno 6909 bound_to 6896
  145.4935  140.9551  143.1799 H   0  0  0  0  0  0  0  0  0  0  0  0  # atno 7974 bound_to 7965
  155.6377  140.0698  157.2628 H   0  0  0  0  0  0  0  0  0  0  0  0  # atno 8008 bound_to 7997
  154.4191  140.1756  156.1589 H   0  0  0  0  0  0  0  0  0  0  0  0  # atno 8009 bound_to 7997
  155.9881  140.3347  155.6730 H   0  0  0  0  0  0  0  0  0  0  0  0  # atno 8010 bound_to 7997
  139.9975  143.5575  152.2317 H   0  0  0  0  0  0  0  0  0  0  0  0  # atno 10167 bound_to 10162
  156.0090  130.4549  150.3666 H   0  0  0  0  0  0  0  0  0  0  0  0  # atno 10718 bound_to 10713
  153.8828  135.3042  155.3445 H   0  0  0  0  0  0  0  0  0  0  0  0  # atno 10763 bound_to 10752
  154.7753  135.4864  153.9735 H   0  0  0  0  0  0  0  0  0  0  0  0  # atno 10764 bound_to 10752
  153.1341  135.6810  153.9228 H   0  0  0  0  0  0  0  0  0  0  0  0  # atno 10765 bound_to 10752
  140.0777  134.9115  157.1449 H   0  0  0  0  0  0  0  0  0  0  0  0  # atno 11005 bound_to 11000
  144.7820  139.6506  143.7150 LP  0  0  0  0  0  0  0  0  0  0  0  0  # atno 17320 bound_to 7965
  146.2269  139.5740  142.9581 LP  0  0  0  0  0  0  0  0  0  0  0  0  # atno 17321 bound_to 7965
  139.6295  144.7642  151.2566 LP  0  0  0  0  0  0  0  0  0  0  0  0  # atno 17342 bound_to 10162
  140.7431  143.6504  150.8254 LP  0  0  0  0  0  0  0  0  0  0  0  0  # atno 17343 bound_to 10162
  157.1752  131.0378  151.2776 LP  0  0  0  0  0  0  0  0  0  0  0  0  # atno 17370 bound_to 10713
  157.4194  130.7429  149.6901 LP  0  0  0  0  0  0  0  0  0  0  0  0  # atno 17371 bound_to 10713
  140.3534  134.2574  155.7195 LP  0  0  0  0  0  0  0  0  0  0  0  0  # atno 17394 bound_to 11000
  141.2035  133.7910  157.0335 LP  0  0  0  0  0  0  0  0  0  0  0  0  # atno 17395 bound_to 11000

$$$$
