AV-unprocessed.smi:827|AV-procd|sdf|3856|dock1
  -GOLD-   22720 1303D 1   1.00000     0.00000
 Structure written by MMmdl.
 46 47  0  0  0  0  0  0  0  0  1 V2000
  148.1713  132.1401  153.2545 C   0  0  0  0  0  0  0  0  0  0  0  0
  147.6642  133.3045  152.6115 O   0  0  0  0  0  0  0  0  0  0  0  0
  146.4723  133.2096  151.9186 C   0  0  0  0  0  0  0  0  0  0  0  0
  145.9509  131.9766  151.6981 N   0  0  0  0  0  0  0  0  0  0  0  0
  144.7896  131.8815  151.0185 C   0  0  0  0  0  0  0  0  0  0  0  0
  144.0956  132.9989  150.5189 C   0  0  0  0  0  0  0  0  0  0  0  0
  144.6339  134.2789  150.7466 C   0  0  0  0  0  0  0  0  0  0  0  0
  145.8436  134.3961  151.4734 C   0  0  0  0  0  0  0  0  0  0  0  0
  146.4809  135.6386  151.7428 N   0  0  0  0  0  0  0  0  0  0  0  0
  145.9154  136.8109  152.0764 C   0  0  0  0  0  0  0  0  0  0  0  0
  144.7070  137.0068  152.2077 O   0  0  0  0  0  0  0  0  0  0  0  0
  146.8431  137.7575  152.2773 N   0  0  0  0  0  0  0  0  0  0  0  0
  146.5599  139.1278  152.6863 C   0  0  0  0  0  0  0  0  0  0  0  0
  147.0513  139.3890  154.1235 C   0  0  0  0  0  0  0  0  0  0  0  0
  148.3779  140.0029  154.1557 N   0  0  0  0  0  0  0  0  0  0  0  0
  148.4703  141.0100  155.2209 C   0  0  0  0  0  0  0  0  0  0  0  0
  149.8849  141.6205  155.2604 C   0  0  0  0  0  0  0  0  0  0  0  0
  150.8592  140.5489  155.4887 N   0  0  0  0  0  0  0  0  0  0  0  0
  151.6475  140.4090  156.5809 C   0  0  0  0  0  0  0  0  0  0  0  0
  151.5880  141.4658  157.6860 C   0  0  0  0  0  0  0  0  0  0  0  0
  152.4171  139.4596  156.7287 O   0  0  0  0  0  0  0  0  0  0  0  0
  150.7955  139.5595  154.4102 C   0  0  0  0  0  0  0  0  0  0  0  0
  149.3791  138.9537  154.3755 C   0  0  0  0  0  0  0  0  0  0  0  0
  149.1075  132.3842  153.7562 H   0  0  0  0  0  0  0  0  0  0  0  0
  148.3789  131.3464  152.5354 H   0  0  0  0  0  0  0  0  0  0  0  0
  147.4790  131.7668  154.0106 H   0  0  0  0  0  0  0  0  0  0  0  0
  144.4053  130.8843  150.8630 H   0  0  0  0  0  0  0  0  0  0  0  0
  143.1739  132.8767  149.9696 H   0  0  0  0  0  0  0  0  0  0  0  0
  144.1190  135.1397  150.3491 H   0  0  0  0  0  0  0  0  0  0  0  0
  147.4898  135.6101  151.7615 H   0  0  0  0  0  0  0  0  0  0  0  0
  147.8135  137.5102  152.1500 H   0  0  0  0  0  0  0  0  0  0  0  0
  147.0661  139.7996  151.9923 H   0  0  0  0  0  0  0  0  0  0  0  0
  145.4915  139.3172  152.5808 H   0  0  0  0  0  0  0  0  0  0  0  0
  146.3399  140.0065  154.6745 H   0  0  0  0  0  0  0  0  0  0  0  0
  147.0957  138.4291  154.6401 H   0  0  0  0  0  0  0  0  0  0  0  0
  147.7501  141.8093  155.0508 H   0  0  0  0  0  0  0  0  0  0  0  0
  148.2283  140.5606  156.1856 H   0  0  0  0  0  0  0  0  0  0  0  0
  150.1088  142.1127  154.3126 H   0  0  0  0  0  0  0  0  0  0  0  0
  149.9176  142.4064  156.0132 H   0  0  0  0  0  0  0  0  0  0  0  0
  150.5826  141.5339  158.1023 H   0  0  0  0  0  0  0  0  0  0  0  0
  151.8810  142.4433  157.3023 H   0  0  0  0  0  0  0  0  0  0  0  0
  152.2680  141.2100  158.4993 H   0  0  0  0  0  0  0  0  0  0  0  0
  151.0265  140.0417  153.4589 H   0  0  0  0  0  0  0  0  0  0  0  0
  151.5292  138.7611  154.5275 H   0  0  0  0  0  0  0  0  0  0  0  0
  149.1726  138.4269  155.3090 H   0  0  0  0  0  0  0  0  0  0  0  0
  149.3206  138.2182  153.5722 H   0  0  0  0  0  0  0  0  0  0  0  0
  1  2  1  0  0  0  0
  1 24  1  0  0  0  0
  1 25  1  0  0  0  0
  1 26  1  0  0  0  0
  2  3  1  0  0  0  0
  3  8  1  0  0  0  0
  3  4  2  0  0  0  0
  4  5  1  0  0  0  0
  5  6  2  0  0  0  0
  5 27  1  0  0  0  0
  6  7  1  0  0  0  0
  6 28  1  0  0  0  0
  7  8  2  0  0  0  0
  7 29  1  0  0  0  0
  8  9  1  0  0  0  0
  9 10  1  0  0  0  0
  9 30  1  0  0  0  0
 10 11  2  0  0  0  0
 10 12  1  0  0  0  0
 12 13  1  0  0  0  0
 12 31  1  0  0  0  0
 13 14  1  0  0  0  0
 13 32  1  0  0  0  0
 13 33  1  0  0  0  0
 14 15  1  0  0  0  0
 14 34  1  0  0  0  0
 14 35  1  0  0  0  0
 15 23  1  0  0  0  0
 15 16  1  0  0  0  0
 16 17  1  0  0  0  0
 16 36  1  0  0  0  0
 16 37  1  0  0  0  0
 17 18  1  0  0  0  0
 17 38  1  0  0  0  0
 17 39  1  0  0  0  0
 18 19  1  0  0  0  0
 18 22  1  0  0  0  0
 19 20  1  0  0  0  0
 19 21  2  0  0  0  0
 20 40  1  0  0  0  0
 20 41  1  0  0  0  0
 20 42  1  0  0  0  0
 22 23  1  0  0  0  0
 22 43  1  0  0  0  0
 22 44  1  0  0  0  0
 23 45  1  0  0  0  0
 23 46  1  0  0  0  0
M  END
> <s_m_source_file>
AV-unprocessed.smi

> <i_m_source_file_index>
827

> <i_lp_mmshare_version>
43012

> <i_f3d_flags>
0

> <s_epik_input>
W0NIM11PYzFuW2NIXVtjSF1bY0hdYzFbTkhdQyg9TylbTkhdW0NIMl1bQ0gyXU4yW0NIMl1bQ0gyXU4oQyg9TylbQ0gzXSlbQ0gyXVtDSDJdMg==

> <s_epik_cmdline>
J2VwaWtfcHl0aG9uJywgJy1waCcsICc3LjAnLCAnLXRuJywgJzgnLCAnLW1hJywgJzIwMCcsICctbWV0YWxfYmluZGluZycsICctaW1hZScsICc8aW5maWxlLm1hZT4nLCAnLW9tYWUnLCAnPG91dGZpbGUubWFlPic=

> <r_lp_tautomer_probability>
1

> <r_epik_Ionization_Penalty>
0.251055

> <r_epik_Ionization_Penalty_Charging>
0

> <r_epik_Ionization_Penalty_Neutral>
0.251055

> <r_epik_State_Penalty>
0.242297

> <r_epik_Charging_Adjusted_Penalty>
0.242297

> <i_epik_Tot_Q>
0

> <i_epik_Tot_abs_Q>
0

> <r_epik_Metal_State_Penalty>
0.242294

> <b_epik_Metal_Only>
0

> <s_lp_Force_Field>
OPLS_2005

> <r_lp_Energy>
35.7173

> <b_lp_Chiralities_Consistent>
1

> <s_lp_Variant>
AV-unprocessed.smi:827-1

> <Gold.Version>
5.8.1

> <Gold.Id.Protein>
6NUR|6NUR_protein|mol2

> <Gold.PLP.Fitness>
44.3566

> <Gold.PLP.PLP>
-37.7283

> <Gold.PLP.part.hbond>
-2.9028

> <Gold.PLP.part.metal>
0.0000

> <Gold.PLP.part.buried>
-3.2424

> <Gold.PLP.part.nonpolar>
-32.3620

> <Gold.PLP.part.repulsive>
0.9604

> <Gold.PLP.ligand.clash>
0.0000

> <Gold.PLP.ligand.torsion>
1.2084

> <Gold.PLP.Chemscore.Hbond>
2.9920

> <Gold.PLP.Chemscore.CHOScore>
0.0000

> <Gold.PLP.Chemscore.Metal>
0.0000

> <Gold.Chemscore.Hbonds>
donor molecule, donor type, donor heavy atom, donor atom, acceptor molecule, acceptor atom, score
      L1  H     9    30       P1  7948  1.00
      L1  H    12    31       P1  7948  0.94
      P1  H  7997  8010       L1    21  0.96

> <Gold.PLP.Chemscore.Internal.Correction>
0.0691

> <Gold.Rescore>
     Score         DG    S(hbond)    S(metal)    S(lipo)     H(rot)  DE(clash)    DE(int)     intcor
     16.31     -19.14       2.79        0.00      77.21       1.83       0.84       1.98       ----

> <Gold.Chemscore.Fitness>
16.3094

> <Gold.Chemscore.DG>
-19.1366

> <Gold.Chemscore.ZeroCoef>
-5.4800

> <Gold.Chemscore.Hbond>
2.7853

> <Gold.Chemscore.Metal>
0.0000

> <Gold.Chemscore.Lipo>
77.2085

> <Gold.Chemscore.Internal_Hbond>
0.0000

> <Gold.Chemscore.DEClash>
0.8424

> <Gold.Chemscore.DEInternal>
1.9848

> <Gold.Chemscore.Rot>
1.8280

> <Gold.Chemscore.Internal.Correction>
   9.000000E+99

> <Gold.Chemscore.Hbonds>
donor molecule, donor type, donor heavy atom, donor atom, acceptor molecule, acceptor atom, score
      L1  H     9    30       P1  7948  0.94
      L1  H    12    31       P1  7948  0.91
      P1  H  7997  8010       L1    21  0.68

> <Gold.Chemscore.Hbond.Weighted>
-9.3028

> <Gold.Chemscore.Metal.Weighted>
-0.0000

> <Gold.Chemscore.Lipo.Weighted>
-9.0334

> <Gold.Chemscore.Internal_Hbond.Weighted>
0.0000

> <Gold.Chemscore.DEClash.Weighted>
0.8424

> <Gold.Chemscore.DEInternal.Weighted>
1.9848

> <Gold.Chemscore.Rot.Weighted>
4.6796

> <Gold.Chemscore.Internal.Correction.Weighted>
   9.000000E+99

> <Gold.Protein.RotatedTorsions>
[ 6907 6896 6895 6894 ] final   53.91 input  -60.11 | X-H torsion
[ 7974 7965 7964 7962 ] final  -42.03 input  175.53 | X-H torsion
[ 8008 7997 7996 7995 ] final   65.15 input   59.86 | X-H torsion
[ 10167 10162 10161 10158 ] final  159.10 input  -65.29 | X-H torsion
[ 10718 10713 10712 10709 ] final  112.45 input   66.30 | X-H torsion
[ 10763 10752 10751 10750 ] final  -57.68 input  -60.55 | X-H torsion
[ 11005 11000 10999 10996 ] final  -61.76 input  -57.11 | X-H torsion

> <Gold.Protein.ActiveResidues>
 VAL166  LYS551  ARG553  GLY616  TRP617  ASP618  TYR619  PRO620  LYS621  CYS622 
 ASP623  PHE694  ASN695  SER759  ASP760  ASP761  ALA762  ILE779  LEU786  VAL792 
 PHE793  MET794  SER795  GLU796  ALA797  LYS798  CYS799  TRP800  GLU811  SER814 

> <Gold.Protein.RotatedAtoms>
  152.3385  134.7166  160.0270 H   0  0  0  0  0  0  0  0  0  0  0  0  # atno 6907 bound_to 6896
  151.7559  133.3325  159.3412 H   0  0  0  0  0  0  0  0  0  0  0  0  # atno 6908 bound_to 6896
  150.7465  134.6082  159.6117 H   0  0  0  0  0  0  0  0  0  0  0  0  # atno 6909 bound_to 6896
  146.0154  140.6914  142.9204 H   0  0  0  0  0  0  0  0  0  0  0  0  # atno 7974 bound_to 7965
  155.6572  140.3497  155.4769 H   0  0  0  0  0  0  0  0  0  0  0  0  # atno 8008 bound_to 7997
  155.9799  140.1172  157.0759 H   0  0  0  0  0  0  0  0  0  0  0  0  # atno 8009 bound_to 7997
  154.4189  140.1140  156.5407 H   0  0  0  0  0  0  0  0  0  0  0  0  # atno 8010 bound_to 7997
  139.4830  144.4762  151.8507 H   0  0  0  0  0  0  0  0  0  0  0  0  # atno 10167 bound_to 10162
  157.6391  131.0968  150.6897 H   0  0  0  0  0  0  0  0  0  0  0  0  # atno 10718 bound_to 10713
  154.2262  135.6369  153.5160 H   0  0  0  0  0  0  0  0  0  0  0  0  # atno 10763 bound_to 10752
  152.9958  135.5508  154.6061 H   0  0  0  0  0  0  0  0  0  0  0  0  # atno 10764 bound_to 10752
  154.5533  135.2903  155.0962 H   0  0  0  0  0  0  0  0  0  0  0  0  # atno 10765 bound_to 10752
  141.1336  133.6633  156.5425 H   0  0  0  0  0  0  0  0  0  0  0  0  # atno 11005 bound_to 11000
  144.6969  140.3472  143.7188 LP  0  0  0  0  0  0  0  0  0  0  0  0  # atno 17320 bound_to 7965
  145.7277  139.1727  143.2448 LP  0  0  0  0  0  0  0  0  0  0  0  0  # atno 17321 bound_to 7965
  140.4235  144.2212  150.5887 LP  0  0  0  0  0  0  0  0  0  0  0  0  # atno 17342 bound_to 10162
  140.4850  143.2366  151.8900 LP  0  0  0  0  0  0  0  0  0  0  0  0  # atno 17343 bound_to 10162
  156.7224  130.4684  149.5519 LP  0  0  0  0  0  0  0  0  0  0  0  0  # atno 17370 bound_to 10713
  156.1656  130.6403  151.0774 LP  0  0  0  0  0  0  0  0  0  0  0  0  # atno 17371 bound_to 10713
  140.4128  134.7257  157.4846 LP  0  0  0  0  0  0  0  0  0  0  0  0  # atno 17394 bound_to 11000
  140.0415  134.6261  155.8975 LP  0  0  0  0  0  0  0  0  0  0  0  0  # atno 17395 bound_to 11000

$$$$
