AV-unprocessed.smi:21|AV-procd|sdf|159|dock6
  -GOLD-   2262015393D 1   1.00000     0.00000
 Structure written by MMmdl.
 61 64  0  0  0  0  0  0  0  0  1 V2000
  154.3684  140.1573  161.1985 C   0  0  0  0  0  0  0  0  0  0  0  0
  153.4862  141.2536  161.3769 O   0  0  0  0  0  0  0  0  0  0  0  0
  153.5230  142.1895  160.3086 C   0  0  1  0  0  0  0  0  0  0  0  0
  152.9090  141.5764  159.0405 C   0  0  0  0  0  0  0  0  0  0  0  0
  151.6943  142.4646  158.7250 C   0  0  2  0  0  0  0  0  0  0  0  0
  151.3365  142.5148  157.2231 C   0  0  0  0  0  0  0  0  0  0  0  0
  149.9921  142.0076  156.9466 N   0  0  0  0  0  0  0  0  0  0  0  0
  148.9809  142.1088  157.9907 C   0  0  0  0  0  0  0  0  0  0  0  0
  149.8295  141.0994  155.9483 C   0  0  0  0  0  0  0  0  0  0  0  0
  150.8739  140.2797  155.6581 N   0  0  0  0  0  0  0  0  0  0  0  0
  150.7727  139.3659  154.6893 C   0  0  0  0  0  0  0  0  0  0  0  0
  149.7327  139.1022  153.8978 N   0  0  0  0  0  0  0  0  0  0  0  0
  148.6764  139.9147  154.1845 C   0  0  0  0  0  0  0  0  0  0  0  0
  148.6362  140.9300  155.1836 C   0  0  0  0  0  0  0  0  0  0  0  0
  147.3786  141.5251  155.1894 N   0  0  0  0  0  0  0  0  0  0  0  0
  146.7208  140.9065  154.2482 C   0  0  0  0  0  0  0  0  0  0  0  0
  147.4325  139.9382  153.5786 N   0  0  0  0  0  0  0  0  0  0  0  0
  146.9495  139.0965  152.4985 C   0  0  0  0  0  0  0  0  0  0  0  0
  145.7389  138.1932  152.8653 C   0  0  1  0  0  0  0  0  0  0  0  0
  145.5178  137.1612  151.7325 C   0  0  0  0  0  0  0  0  0  0  0  0
  144.1437  136.8970  151.5375 O   0  0  0  0  0  0  0  0  0  0  0  0
  145.8935  137.4987  154.2521 C   0  0  2  0  0  0  0  0  0  0  0  0
  147.1313  136.6262  154.4066 C   0  0  0  0  0  0  0  0  0  0  0  0
  146.7653  135.7500  155.5946 C   0  0  0  0  0  0  0  0  0  0  0  0
  145.3948  135.4518  155.3895 O   0  0  0  0  0  0  0  0  0  0  0  0
  144.7913  136.4878  154.6202 C   0  0  0  0  0  0  0  0  0  0  0  0
  152.0222  143.7536  159.3128 N   0  0  0  0  0  0  0  0  0  0  0  0
  150.8739  144.6349  159.4784 C   0  0  0  0  0  0  0  0  0  0  0  0
  152.6339  143.4101  160.5815 C   0  0  0  0  0  0  0  0  0  0  0  0
  154.5488  142.4961  160.0956 H   0  0  0  0  0  0  0  0  0  0  0  0
  150.8418  142.0543  159.2695 H   0  0  0  0  0  0  0  0  0  0  0  0
  154.2747  139.4738  162.0422 H   0  0  0  0  0  0  0  0  0  0  0  0
  155.4079  140.4825  161.1461 H   0  0  0  0  0  0  0  0  0  0  0  0
  154.1289  139.6030  160.2902 H   0  0  0  0  0  0  0  0  0  0  0  0
  153.6381  141.6133  158.2298 H   0  0  0  0  0  0  0  0  0  0  0  0
  152.6202  140.5332  159.1754 H   0  0  0  0  0  0  0  0  0  0  0  0
  151.3667  143.5457  156.8711 H   0  0  0  0  0  0  0  0  0  0  0  0
  152.0931  141.9884  156.6410 H   0  0  0  0  0  0  0  0  0  0  0  0
  147.9766  142.0499  157.5700 H   0  0  0  0  0  0  0  0  0  0  0  0
  149.0666  143.0626  158.5112 H   0  0  0  0  0  0  0  0  0  0  0  0
  149.1014  141.3125  158.7253 H   0  0  0  0  0  0  0  0  0  0  0  0
  151.6514  138.7599  154.5247 H   0  0  0  0  0  0  0  0  0  0  0  0
  145.6960  141.1501  154.0083 H   0  0  0  0  0  0  0  0  0  0  0  0
  146.6942  139.7620  151.6736 H   0  0  0  0  0  0  0  0  0  0  0  0
  147.7770  138.4803  152.1447 H   0  0  0  0  0  0  0  0  0  0  0  0
  144.8428  138.8137  152.9067 H   0  0  0  0  0  0  0  0  0  0  0  0
  145.9551  137.5109  150.7969 H   0  0  0  0  0  0  0  0  0  0  0  0
  145.9826  136.2044  151.9656 H   0  0  0  0  0  0  0  0  0  0  0  0
  143.8571  137.3528  150.7611 H   0  0  0  0  0  0  0  0  0  0  0  0
  145.9332  138.2643  155.0288 H   0  0  0  0  0  0  0  0  0  0  0  0
  147.2799  136.0078  153.5201 H   0  0  0  0  0  0  0  0  0  0  0  0
  148.0417  137.1986  154.5862 H   0  0  0  0  0  0  0  0  0  0  0  0
  147.3697  134.8450  155.6563 H   0  0  0  0  0  0  0  0  0  0  0  0
  146.8755  136.3033  156.5284 H   0  0  0  0  0  0  0  0  0  0  0  0
  143.9902  136.9506  155.1950 H   0  0  0  0  0  0  0  0  0  0  0  0
  144.3509  136.0328  153.7326 H   0  0  0  0  0  0  0  0  0  0  0  0
  151.1695  145.5576  159.9785 H   0  0  0  0  0  0  0  0  0  0  0  0
  150.0932  144.1617  160.0751 H   0  0  0  0  0  0  0  0  0  0  0  0
  150.4468  144.9081  158.5138 H   0  0  0  0  0  0  0  0  0  0  0  0
  151.8599  143.1391  161.3019 H   0  0  0  0  0  0  0  0  0  0  0  0
  153.1943  144.2477  160.9977 H   0  0  0  0  0  0  0  0  0  0  0  0
  1  2  1  0  0  0  0
  1 32  1  0  0  0  0
  1 33  1  0  0  0  0
  1 34  1  0  0  0  0
  2  3  1  0  0  0  0
  3 30  1  0  0  0  0
  3 29  1  0  0  0  0
  3  4  1  0  0  0  0
  4  5  1  0  0  0  0
  4 35  1  0  0  0  0
  4 36  1  0  0  0  0
  5 31  1  0  0  0  0
  5  6  1  0  0  0  0
  5 27  1  0  0  0  0
  6  7  1  0  0  0  0
  6 37  1  0  0  0  0
  6 38  1  0  0  0  0
  7  8  1  0  0  0  0
  7  9  1  0  0  0  0
  8 39  1  0  0  0  0
  8 40  1  0  0  0  0
  8 41  1  0  0  0  0
  9 14  1  0  0  0  0
  9 10  2  0  0  0  0
 10 11  1  0  0  0  0
 11 12  2  0  0  0  0
 11 42  1  0  0  0  0
 12 13  1  0  0  0  0
 13 17  1  0  0  0  0
 13 14  2  0  0  0  0
 14 15  1  0  0  0  0
 15 16  2  0  0  0  0
 16 17  1  0  0  0  0
 16 43  1  0  0  0  0
 17 18  1  0  0  0  0
 18 19  1  0  0  0  0
 18 44  1  0  0  0  0
 18 45  1  0  0  0  0
 19 20  1  0  0  0  0
 19 22  1  0  0  0  0
 19 46  1  0  0  0  0
 20 21  1  0  0  0  0
 20 47  1  0  0  0  0
 20 48  1  0  0  0  0
 21 49  1  0  0  0  0
 22 26  1  0  0  0  0
 22 23  1  0  0  0  0
 22 50  1  0  0  0  0
 23 24  1  0  0  0  0
 23 51  1  0  0  0  0
 23 52  1  0  0  0  0
 24 25  1  0  0  0  0
 24 53  1  0  0  0  0
 24 54  1  0  0  0  0
 25 26  1  0  0  0  0
 26 55  1  0  0  0  0
 26 56  1  0  0  0  0
 27 28  1  0  0  0  0
 27 29  1  0  0  0  0
 28 57  1  0  0  0  0
 28 58  1  0  0  0  0
 28 59  1  0  0  0  0
 29 60  1  0  0  0  0
 29 61  1  0  0  0  0
M  END
> <s_m_source_file>
AV-unprocessed.smi

> <i_m_source_file_index>
21

> <i_lp_mmshare_version>
43012

> <i_f3d_flags>
0

> <s_epik_input>
W0NIM11PW0NASF0xW0NIMl1bQ0BIXShOKFtDSDNdKVtDSDJdMSlbQ0gyXU4oW0NIM10pYyhuW2NIXW4yKWMoYzIzKW5bY0hdbjNbQ0gyXVtDQEhdKFtDSDJdW09IXSlbQ0BASF00W0NIMl1bQ0gyXU9bQ0gyXTQ=

> <s_epik_cmdline>
J2VwaWtfcHl0aG9uJywgJy1waCcsICc3LjAnLCAnLXRuJywgJzgnLCAnLW1hJywgJzIwMCcsICctbWV0YWxfYmluZGluZycsICctaW1hZScsICc8aW5maWxlLm1hZT4nLCAnLW9tYWUnLCAnPG91dGZpbGUubWFlPic=

> <r_lp_tautomer_probability>
1

> <r_epik_Ionization_Penalty>
2.17574

> <r_epik_Ionization_Penalty_Charging>
0

> <r_epik_Ionization_Penalty_Neutral>
2.17574

> <r_epik_State_Penalty>
2.31336

> <r_epik_Charging_Adjusted_Penalty>
2.31336

> <i_epik_Tot_Q>
0

> <i_epik_Tot_abs_Q>
0

> <r_epik_Metal_State_Penalty>
2.31025

> <b_epik_Metal_Only>
0

> <s_lp_Force_Field>
OPLS_2005

> <r_lp_Energy>
70.5477

> <b_lp_Chiralities_Consistent>
1

> <s_lp_Variant>
AV-unprocessed.smi:21-39

> <Gold.Version>
5.8.1

> <Gold.Id.Protein>
6NUR|6NUR_protein|mol2

> <Gold.PLP.Fitness>
46.0552

> <Gold.PLP.PLP>
-44.0988

> <Gold.PLP.part.hbond>
-1.0000

> <Gold.PLP.part.metal>
0.0000

> <Gold.PLP.part.buried>
-5.6245

> <Gold.PLP.part.nonpolar>
-37.8809

> <Gold.PLP.part.repulsive>
0.5167

> <Gold.PLP.ligand.clash>
0.0000

> <Gold.PLP.ligand.torsion>
2.1828

> <Gold.PLP.Chemscore.Hbond>
1.0000

> <Gold.PLP.Chemscore.CHOScore>
0.8827

> <Gold.PLP.Chemscore.Metal>
0.0000

> <Gold.Chemscore.Hbonds>
donor molecule, donor type, donor heavy atom, donor atom, acceptor molecule, acceptor atom, score
      L1  H    21    49       P1 10171  1.00
      L1  C    16    43       P1 10175  0.81

> <Gold.PLP.Chemscore.Internal.Correction>
0.6740

> <Gold.Rescore>
     Score         DG    S(hbond)    S(metal)    S(lipo)     H(rot)  DE(clash)    DE(int)     intcor
     10.10     -12.97       1.00        0.00     101.24       3.00       0.44       2.43       ----

> <Gold.Chemscore.Fitness>
10.1033

> <Gold.Chemscore.DG>
-12.9738

> <Gold.Chemscore.ZeroCoef>
-5.4800

> <Gold.Chemscore.Hbond>
0.9990

> <Gold.Chemscore.Metal>
0.0000

> <Gold.Chemscore.Lipo>
101.2396

> <Gold.Chemscore.Internal_Hbond>
0.0000

> <Gold.Chemscore.DEClash>
0.4443

> <Gold.Chemscore.DEInternal>
2.4263

> <Gold.Chemscore.Rot>
3.0031

> <Gold.Chemscore.Internal.Correction>
   9.000000E+99

> <Gold.Chemscore.Hbonds>
donor molecule, donor type, donor heavy atom, donor atom, acceptor molecule, acceptor atom, score
      L1  H    21    49       P1 10171  0.92

> <Gold.Chemscore.Hbond.Weighted>
-3.3367

> <Gold.Chemscore.Metal.Weighted>
-0.0000

> <Gold.Chemscore.Lipo.Weighted>
-11.8450

> <Gold.Chemscore.Internal_Hbond.Weighted>
0.0000

> <Gold.Chemscore.DEClash.Weighted>
0.4443

> <Gold.Chemscore.DEInternal.Weighted>
2.4263

> <Gold.Chemscore.Rot.Weighted>
7.6880

> <Gold.Chemscore.Internal.Correction.Weighted>
   9.000000E+99

> <Gold.Protein.RotatedTorsions>
[ 6907 6896 6895 6894 ] final  153.66 input  -60.11 | X-H torsion
[ 7974 7965 7964 7962 ] final   -7.93 input  175.53 | X-H torsion
[ 8008 7997 7996 7995 ] final   40.89 input   59.86 | X-H torsion
[ 10167 10162 10161 10158 ] final -178.99 input  -65.29 | X-H torsion
[ 10718 10713 10712 10709 ] final  -77.82 input   66.30 | X-H torsion
[ 10763 10752 10751 10750 ] final  119.03 input  -60.55 | X-H torsion
[ 11005 11000 10999 10996 ] final   51.69 input  -57.11 | X-H torsion

> <Gold.Protein.ActiveResidues>
 VAL166  LYS551  ARG553  GLY616  TRP617  ASP618  TYR619  PRO620  LYS621  CYS622 
 ASP623  PHE694  ASN695  SER759  ASP760  ASP761  ALA762  ILE779  LEU786  VAL792 
 PHE793  MET794  SER795  GLU796  ALA797  LYS798  CYS799  TRP800  GLU811  SER814 

> <Gold.Protein.RotatedAtoms>
  152.0695  133.4100  159.4452 H   0  0  0  0  0  0  0  0  0  0  0  0  # atno 6907 bound_to 6896
  150.6864  134.3108  159.4754 H   0  0  0  0  0  0  0  0  0  0  0  0  # atno 6908 bound_to 6896
  152.0938  134.9388  160.0622 H   0  0  0  0  0  0  0  0  0  0  0  0  # atno 6909 bound_to 6896
  146.2294  140.2392  142.8343 H   0  0  0  0  0  0  0  0  0  0  0  0  # atno 7974 bound_to 7965
  155.2606  140.3359  155.4273 H   0  0  0  0  0  0  0  0  0  0  0  0  # atno 8008 bound_to 7997
  156.2176  140.1795  156.7595 H   0  0  0  0  0  0  0  0  0  0  0  0  # atno 8009 bound_to 7997
  154.5777  140.0659  156.9043 H   0  0  0  0  0  0  0  0  0  0  0  0  # atno 8010 bound_to 7997
  139.5407  144.2372  152.0888 H   0  0  0  0  0  0  0  0  0  0  0  0  # atno 10167 bound_to 10162
  156.0134  130.4501  150.3403 H   0  0  0  0  0  0  0  0  0  0  0  0  # atno 10718 bound_to 10713
  153.5768  135.3491  155.2859 H   0  0  0  0  0  0  0  0  0  0  0  0  # atno 10763 bound_to 10752
  154.8674  135.4172  154.2665 H   0  0  0  0  0  0  0  0  0  0  0  0  # atno 10764 bound_to 10752
  153.3442  135.7051  153.6912 H   0  0  0  0  0  0  0  0  0  0  0  0  # atno 10765 bound_to 10752
  140.0912  134.5207  155.8850 H   0  0  0  0  0  0  0  0  0  0  0  0  # atno 11005 bound_to 11000
  144.9497  140.8166  143.5579 LP  0  0  0  0  0  0  0  0  0  0  0  0  # atno 17320 bound_to 7965
  145.2352  139.2097  143.5022 LP  0  0  0  0  0  0  0  0  0  0  0  0  # atno 17321 bound_to 7965
  140.1850  144.4807  150.6508 LP  0  0  0  0  0  0  0  0  0  0  0  0  # atno 17342 bound_to 10162
  140.6635  143.2260  151.5800 LP  0  0  0  0  0  0  0  0  0  0  0  0  # atno 17343 bound_to 10162
  157.1499  131.0318  151.2890 LP  0  0  0  0  0  0  0  0  0  0  0  0  # atno 17370 bound_to 10713
  157.4401  130.7539  149.7062 LP  0  0  0  0  0  0  0  0  0  0  0  0  # atno 17371 bound_to 10713
  141.2078  133.6668  156.6331 LP  0  0  0  0  0  0  0  0  0  0  0  0  # atno 17394 bound_to 11000
  140.3350  134.7897  157.4355 LP  0  0  0  0  0  0  0  0  0  0  0  0  # atno 17395 bound_to 11000

$$$$
