AV-unprocessed.smi:1682|AV-procd|sdf|6746|dock8
  -GOLD-   22720 7503D 1   1.00000     0.00000
 Structure written by MMmdl.
 39 40  0  0  0  0  0  0  0  0  2 V2000
  152.3977  139.9423  156.2656 O   0  0  0  0  0  0  0  0  0  0  0  0
  151.7180  139.5110  157.1974 C   0  0  0  0  0  0  0  0  0  0  0  0
  150.5463  140.0523  157.5643 N   0  0  0  0  0  0  0  0  0  0  0  0
  149.9103  141.1980  156.9194 C   0  0  0  0  0  0  0  0  0  0  0  0
  150.9066  142.3140  156.5426 C   0  0  0  0  0  0  0  0  0  0  0  0
  151.2422  143.2475  157.6928 C   0  0  0  0  0  0  0  0  0  0  0  0
  152.2184  142.9257  158.6615 C   0  0  0  0  0  0  0  0  0  0  0  0
  152.4877  143.8411  159.6997 C   0  0  0  0  0  0  0  0  0  0  0  0
  151.7743  145.0567  159.7497 C   0  0  0  0  0  0  0  0  0  0  0  0
  150.8089  145.3264  158.7581 C   0  0  0  0  0  0  0  0  0  0  0  0
  150.5812  144.4247  157.7778 N   0  3  0  0  0  0  0  0  0  0  0  0
  152.1848  138.2836  157.9951 C   0  0  1  0  0  0  0  0  0  0  0  0
  153.5193  137.7396  157.4488 C   0  0  0  0  0  0  0  0  0  0  0  0
  154.5121  138.0054  158.5672 C   0  0  0  0  0  0  0  0  0  0  0  0
  155.7196  137.8079  158.4439 O   0  0  0  0  0  0  0  0  0  0  0  0
  153.8963  138.4820  159.6540 N   0  0  0  0  0  0  0  0  0  0  0  0
  154.5341  138.8772  160.9091 C   0  0  0  0  0  0  0  0  0  0  0  0
  154.8705  140.3790  160.9527 C   0  0  0  0  0  0  0  0  0  0  0  0
  153.8020  141.1233  160.6685 F   0  0  0  0  0  0  0  0  0  0  0  0
  155.2893  140.6936  162.1776 F   0  0  0  0  0  0  0  0  0  0  0  0
  155.8435  140.6609  160.0862 F   0  0  0  0  0  0  0  0  0  0  0  0
  152.4577  138.6055  159.4811 C   0  0  0  0  0  0  0  0  0  0  0  0
  150.0573  139.6376  158.3448 H   0  0  0  0  0  0  0  0  0  0  0  0
  149.4205  140.8306  156.0174 H   0  0  0  0  0  0  0  0  0  0  0  0
  149.1200  141.5949  157.5584 H   0  0  0  0  0  0  0  0  0  0  0  0
  151.8288  141.8689  156.1670 H   0  0  0  0  0  0  0  0  0  0  0  0
  150.5057  142.9049  155.7183 H   0  0  0  0  0  0  0  0  0  0  0  0
  152.7582  141.9910  158.6079 H   0  0  0  0  0  0  0  0  0  0  0  0
  153.2321  143.6132  160.4488 H   0  0  0  0  0  0  0  0  0  0  0  0
  151.9644  145.7710  160.5377 H   0  0  0  0  0  0  0  0  0  0  0  0
  150.2166  146.2292  158.7197 H   0  0  0  0  0  0  0  0  0  0  0  0
  151.4201  137.5075  157.9310 H   0  0  0  0  0  0  0  0  0  0  0  0
  153.4605  136.6669  157.2625 H   0  0  0  0  0  0  0  0  0  0  0  0
  153.8476  138.2234  156.5274 H   0  0  0  0  0  0  0  0  0  0  0  0
  153.8838  138.6164  161.7456 H   0  0  0  0  0  0  0  0  0  0  0  0
  155.4468  138.2950  161.0437 H   0  0  0  0  0  0  0  0  0  0  0  0
  152.1206  139.6022  159.7714 H   0  0  0  0  0  0  0  0  0  0  0  0
  151.9533  137.8883  160.1298 H   0  0  0  0  0  0  0  0  0  0  0  0
  149.8781  144.6410  157.0708 H   0  0  0  0  0  0  0  0  0  0  0  0
  1  2  2  0  0  0  0
  2  3  1  0  0  0  0
  2 12  1  0  0  0  0
  3  4  1  0  0  0  0
  3 23  1  0  0  0  0
  4  5  1  0  0  0  0
  4 24  1  0  0  0  0
  4 25  1  0  0  0  0
  5  6  1  0  0  0  0
  5 26  1  0  0  0  0
  5 27  1  0  0  0  0
  6 11  1  0  0  0  0
  6  7  2  0  0  0  0
  7  8  1  0  0  0  0
  7 28  1  0  0  0  0
  8  9  2  0  0  0  0
  8 29  1  0  0  0  0
  9 10  1  0  0  0  0
  9 30  1  0  0  0  0
 10 11  2  0  0  0  0
 10 31  1  0  0  0  0
 11 39  1  0  0  0  0
 12 22  1  0  0  0  0
 12 13  1  0  0  0  0
 12 32  1  0  0  0  0
 13 14  1  0  0  0  0
 13 33  1  0  0  0  0
 13 34  1  0  0  0  0
 14 15  2  0  0  0  0
 14 16  1  0  0  0  0
 16 17  1  0  0  0  0
 16 22  1  0  0  0  0
 17 18  1  0  0  0  0
 17 35  1  0  0  0  0
 17 36  1  0  0  0  0
 18 19  1  0  0  0  0
 18 20  1  0  0  0  0
 18 21  1  0  0  0  0
 22 37  1  0  0  0  0
 22 38  1  0  0  0  0
M  CHG  1  11   1
M  END
> <s_m_source_file>
AV-unprocessed.smi

> <i_m_source_file_index>
1682

> <i_lp_mmshare_version>
43012

> <i_f3d_flags>
0

> <s_epik_input>
RkMoRikoRilbQ0gyXU4oW0NIMl0xKUMoPU8pW0NIMl1bQ0BIXTFDKD1PKVtOSF1bQ0gyXVtDSDJdYzJbY0hdW2NIXVtjSF1bY0hdbjI=

> <s_epik_cmdline>
J2VwaWtfcHl0aG9uJywgJy1waCcsICc3LjAnLCAnLXRuJywgJzgnLCAnLW1hJywgJzIwMCcsICctbWV0YWxfYmluZGluZycsICctaW1hZScsICc8aW5maWxlLm1hZT4nLCAnLW9tYWUnLCAnPG91dGZpbGUubWFlPic=

> <r_epik_Ionization_Penalty>
1.88249

> <r_epik_Ionization_Penalty_Charging>
1.88249

> <r_epik_Ionization_Penalty_Neutral>
2.8664e-08

> <r_epik_State_Penalty>
2.00238

> <r_epik_Charging_Adjusted_Penalty>
3.88487

> <i_epik_Tot_Q>
1

> <i_epik_Tot_abs_Q>
1

> <r_epik_Metal_State_Penalty>
2.02677

> <b_epik_Metal_Only>
0

> <s_lp_Force_Field>
OPLS_2005

> <r_lp_Energy>
19.2524

> <b_lp_Chiralities_Consistent>
1

> <s_lp_Variant>
AV-unprocessed.smi:1682-4

> <Gold.Version>
5.8.1

> <Gold.Id.Protein>
6NUR|6NUR_protein|mol2

> <Gold.PLP.Fitness>
48.3186

> <Gold.PLP.PLP>
-41.1899

> <Gold.PLP.part.hbond>
-2.2657

> <Gold.PLP.part.metal>
0.0000

> <Gold.PLP.part.buried>
-4.8755

> <Gold.PLP.part.nonpolar>
-33.3646

> <Gold.PLP.part.repulsive>
0.1155

> <Gold.PLP.ligand.clash>
0.0000

> <Gold.PLP.ligand.torsion>
0.9894

> <Gold.PLP.Chemscore.Hbond>
3.0000

> <Gold.PLP.Chemscore.CHOScore>
0.0000

> <Gold.PLP.Chemscore.Metal>
0.0000

> <Gold.Chemscore.Hbonds>
donor molecule, donor type, donor heavy atom, donor atom, acceptor molecule, acceptor atom, score
      L1  H    11    39       P1  8028  2.00
      P1  H  7997  8009       L1     1  1.00

> <Gold.PLP.Chemscore.Internal.Correction>
0.1075

> <Gold.Rescore>
     Score         DG    S(hbond)    S(metal)    S(lipo)     H(rot)  DE(clash)    DE(int)     intcor
     15.31     -18.21       1.95        0.00     101.10       2.19       0.58       2.31       ----

> <Gold.Chemscore.Fitness>
15.3137

> <Gold.Chemscore.DG>
-18.2119

> <Gold.Chemscore.ZeroCoef>
-5.4800

> <Gold.Chemscore.Hbond>
1.9515

> <Gold.Chemscore.Metal>
0.0000

> <Gold.Chemscore.Lipo>
101.0969

> <Gold.Chemscore.Internal_Hbond>
0.0000

> <Gold.Chemscore.DEClash>
0.5841

> <Gold.Chemscore.DEInternal>
2.3141

> <Gold.Chemscore.Rot>
2.1932

> <Gold.Chemscore.Internal.Correction>
   9.000000E+99

> <Gold.Chemscore.Hbonds>
donor molecule, donor type, donor heavy atom, donor atom, acceptor molecule, acceptor atom, score
      L1  H    11    39       P1  8028  0.26
      P1  H  7997  8009       L1     1  0.98

> <Gold.Chemscore.Hbond.Weighted>
-6.5181

> <Gold.Chemscore.Metal.Weighted>
-0.0000

> <Gold.Chemscore.Lipo.Weighted>
-11.8283

> <Gold.Chemscore.Internal_Hbond.Weighted>
0.0000

> <Gold.Chemscore.DEClash.Weighted>
0.5841

> <Gold.Chemscore.DEInternal.Weighted>
2.3141

> <Gold.Chemscore.Rot.Weighted>
5.6145

> <Gold.Chemscore.Internal.Correction.Weighted>
   9.000000E+99

> <Gold.Protein.RotatedTorsions>
[ 6907 6896 6895 6894 ] final  -48.17 input  -60.11 | X-H torsion
[ 7974 7965 7964 7962 ] final  113.03 input  175.53 | X-H torsion
[ 8008 7997 7996 7995 ] final -165.67 input   59.86 | X-H torsion
[ 10167 10162 10161 10158 ] final   52.72 input  -65.29 | X-H torsion
[ 10718 10713 10712 10709 ] final  -43.82 input   66.30 | X-H torsion
[ 10763 10752 10751 10750 ] final -123.49 input  -60.55 | X-H torsion
[ 11005 11000 10999 10996 ] final  138.46 input  -57.11 | X-H torsion

> <Gold.Protein.ActiveResidues>
 VAL166  LYS551  ARG553  GLY616  TRP617  ASP618  TYR619  PRO620  LYS621  CYS622 
 ASP623  PHE694  ASN695  SER759  ASP760  ASP761  ALA762  ILE779  LEU786  VAL792 
 PHE793  MET794  SER795  GLU796  ALA797  LYS798  CYS799  TRP800  GLU811  SER814 

> <Gold.Protein.RotatedAtoms>
  150.8933  134.8338  159.7308 H   0  0  0  0  0  0  0  0  0  0  0  0  # atno 6907 bound_to 6896
  152.4850  134.4615  159.9616 H   0  0  0  0  0  0  0  0  0  0  0  0  # atno 6908 bound_to 6896
  151.4675  133.3538  159.2854 H   0  0  0  0  0  0  0  0  0  0  0  0  # atno 6909 bound_to 6896
  145.2221  139.2857  143.4213 H   0  0  0  0  0  0  0  0  0  0  0  0  # atno 7974 bound_to 7965
  155.8531  140.0966  157.1662 H   0  0  0  0  0  0  0  0  0  0  0  0  # atno 8008 bound_to 7997
  154.3986  140.1379  156.3930 H   0  0  0  0  0  0  0  0  0  0  0  0  # atno 8009 bound_to 7997
  155.7940  140.3455  155.5367 H   0  0  0  0  0  0  0  0  0  0  0  0  # atno 8010 bound_to 7997
  140.2483  144.3507  150.6356 H   0  0  0  0  0  0  0  0  0  0  0  0  # atno 10167 bound_to 10162
  156.2450  130.4183  149.8716 H   0  0  0  0  0  0  0  0  0  0  0  0  # atno 10718 bound_to 10713
  154.8708  135.4096  154.2952 H   0  0  0  0  0  0  0  0  0  0  0  0  # atno 10763 bound_to 10752
  153.3821  135.7012  153.6563 H   0  0  0  0  0  0  0  0  0  0  0  0  # atno 10764 bound_to 10752
  153.5381  135.3653  155.2677 H   0  0  0  0  0  0  0  0  0  0  0  0  # atno 10765 bound_to 10752
  140.0185  134.9407  157.0425 H   0  0  0  0  0  0  0  0  0  0  0  0  # atno 11005 bound_to 11000
  146.3373  140.2530  142.8599 LP  0  0  0  0  0  0  0  0  0  0  0  0  # atno 17320 bound_to 7965
  144.9756  140.8410  143.5429 LP  0  0  0  0  0  0  0  0  0  0  0  0  # atno 17321 bound_to 7965
  140.6060  143.2168  151.6980 LP  0  0  0  0  0  0  0  0  0  0  0  0  # atno 17342 bound_to 10162
  139.5054  144.3718  152.0463 LP  0  0  0  0  0  0  0  0  0  0  0  0  # atno 17343 bound_to 10162
  156.6284  130.8655  151.3490 LP  0  0  0  0  0  0  0  0  0  0  0  0  # atno 17370 bound_to 10713
  157.7191  130.9535  150.1369 LP  0  0  0  0  0  0  0  0  0  0  0  0  # atno 17371 bound_to 10713
  140.4429  134.1662  155.7175 LP  0  0  0  0  0  0  0  0  0  0  0  0  # atno 17394 bound_to 11000
  141.1758  133.8516  157.1424 LP  0  0  0  0  0  0  0  0  0  0  0  0  # atno 17395 bound_to 11000

$$$$
