AV-unprocessed.smi:1196|AV-procd|sdf|5006|dock6
  -GOLD-   22720 4 23D 1   1.00000     0.00000
 Structure written by MMmdl.
 36 37  0  0  0  0  0  0  0  0  2 V2000
  143.4784  136.4863  151.9586 C   0  0  0  0  0  0  0  0  0  0  0  0
  144.9917  136.2525  151.8587 C   0  0  2  0  0  0  0  0  0  0  0  0
  145.3810  134.8575  152.3932 C   0  0  0  0  0  0  0  0  0  0  0  0
  145.2795  133.8208  151.3805 N   0  0  0  0  0  0  0  0  0  0  0  0
  144.2413  133.5749  150.5069 C   0  0  0  0  0  0  0  0  0  0  0  0
  144.6066  132.5127  149.7306 C   0  0  0  0  0  0  0  0  0  0  0  0
  145.9017  132.1720  150.2118 C   0  0  0  0  0  0  0  0  0  0  0  0
  146.2987  132.9521  151.2038 N   0  0  0  0  0  0  0  0  0  0  0  0
  145.6843  137.3073  152.5981 N   0  0  0  0  0  0  0  0  0  0  0  0
  146.5464  138.1942  152.0755 C   0  0  0  0  0  0  0  0  0  0  0  0
  146.8310  138.2414  150.8785 O   0  0  0  0  0  0  0  0  0  0  0  0
  147.1921  139.1741  153.0557 C   0  0  0  0  0  0  0  0  0  0  0  0
  147.9459  138.4472  154.1843 C   0  0  0  0  0  0  0  0  0  0  0  0
  148.5734  139.4149  155.2070 C   0  0  1  0  0  0  0  0  0  0  0  0
  149.6194  138.7677  155.9694 N   0  0  0  0  0  0  0  0  0  0  0  0
  150.7778  139.4131  155.8494 C   0  0  0  0  0  0  0  0  0  0  0  0
  151.7892  139.0409  156.4404 O   0  0  0  0  0  0  0  0  0  0  0  0
  150.6394  140.4647  155.0190 N   0  5  0  0  0  0  0  0  0  0  0  0
  149.3693  140.5529  154.5683 C   0  0  0  0  0  0  0  0  0  0  0  0
  148.8524  141.3618  153.7991 O   0  0  0  0  0  0  0  0  0  0  0  0
  142.9276  135.7371  151.3893 H   0  0  0  0  0  0  0  0  0  0  0  0
  143.2046  137.4651  151.5636 H   0  0  0  0  0  0  0  0  0  0  0  0
  143.1357  136.4362  152.9929 H   0  0  0  0  0  0  0  0  0  0  0  0
  145.2561  136.3058  150.8010 H   0  0  0  0  0  0  0  0  0  0  0  0
  146.3960  134.8693  152.7943 H   0  0  0  0  0  0  0  0  0  0  0  0
  144.7253  134.5790  153.2192 H   0  0  0  0  0  0  0  0  0  0  0  0
  143.3428  134.1743  150.5059 H   0  0  0  0  0  0  0  0  0  0  0  0
  144.0376  132.0516  148.9372 H   0  0  0  0  0  0  0  0  0  0  0  0
  146.5599  131.3852  149.8737 H   0  0  0  0  0  0  0  0  0  0  0  0
  145.5197  137.3452  153.5936 H   0  0  0  0  0  0  0  0  0  0  0  0
  147.8804  139.8114  152.4997 H   0  0  0  0  0  0  0  0  0  0  0  0
  146.4292  139.8313  153.4755 H   0  0  0  0  0  0  0  0  0  0  0  0
  147.2736  137.7526  154.6919 H   0  0  0  0  0  0  0  0  0  0  0  0
  148.7380  137.8361  153.7486 H   0  0  0  0  0  0  0  0  0  0  0  0
  147.8190  139.8270  155.8786 H   0  0  0  0  0  0  0  0  0  0  0  0
  149.4701  137.9479  156.5388 H   0  0  0  0  0  0  0  0  0  0  0  0
  1  2  1  0  0  0  0
  1 21  1  0  0  0  0
  1 22  1  0  0  0  0
  1 23  1  0  0  0  0
  2  3  1  0  0  0  0
  2  9  1  0  0  0  0
  2 24  1  0  0  0  0
  3  4  1  0  0  0  0
  3 25  1  0  0  0  0
  3 26  1  0  0  0  0
  4  8  1  0  0  0  0
  4  5  1  0  0  0  0
  5  6  2  0  0  0  0
  5 27  1  0  0  0  0
  6  7  1  0  0  0  0
  6 28  1  0  0  0  0
  7  8  2  0  0  0  0
  7 29  1  0  0  0  0
  9 10  1  0  0  0  0
  9 30  1  0  0  0  0
 10 11  2  0  0  0  0
 10 12  1  0  0  0  0
 12 13  1  0  0  0  0
 12 31  1  0  0  0  0
 12 32  1  0  0  0  0
 13 14  1  0  0  0  0
 13 33  1  0  0  0  0
 13 34  1  0  0  0  0
 14 19  1  0  0  0  0
 14 15  1  0  0  0  0
 14 35  1  0  0  0  0
 15 16  1  0  0  0  0
 15 36  1  0  0  0  0
 16 17  2  0  0  0  0
 16 18  1  0  0  0  0
 18 19  1  0  0  0  0
 19 20  2  0  0  0  0
M  CHG  1  18  -1
M  END
> <s_m_source_file>
AV-unprocessed.smi

> <i_m_source_file_index>
1196

> <i_lp_mmshare_version>
43012

> <i_f3d_flags>
0

> <s_epik_input>
bjFbY0hdW2NIXVtjSF1uMVtDSDJdW0NAQEhdKFtDSDNdKVtOSF1DKD1PKVtDSDJdW0NIMl1bQ0BASF0yW05IXUMoPU8pW05IXUMyPU8=

> <s_epik_cmdline>
J2VwaWtfcHl0aG9uJywgJy1waCcsICc3LjAnLCAnLXRuJywgJzgnLCAnLW1hJywgJzIwMCcsICctbWV0YWxfYmluZGluZycsICctaW1hZScsICc8aW5maWxlLm1hZT4nLCAnLW9tYWUnLCAnPG91dGZpbGUubWFlPic=

> <r_lp_tautomer_probability>
1

> <r_epik_Ionization_Penalty>
2.57056

> <r_epik_Ionization_Penalty_Charging>
2.57023

> <r_epik_Ionization_Penalty_Neutral>
0.000331301

> <r_epik_State_Penalty>
2.56828

> <r_epik_Charging_Adjusted_Penalty>
5.13851

> <i_epik_Tot_Q>
-1

> <i_epik_Tot_abs_Q>
1

> <r_epik_Metal_State_Penalty>
0.444883

> <b_epik_Metal_Only>
1

> <s_lp_Force_Field>
OPLS_2005

> <r_lp_Energy>
7.37265

> <b_lp_Chiralities_Consistent>
1

> <s_lp_Variant>
AV-unprocessed.smi:1196-11

> <Gold.Version>
5.8.1

> <Gold.Id.Protein>
6NUR|6NUR_protein|mol2

> <Gold.PLP.Fitness>
44.4210

> <Gold.PLP.PLP>
-31.4801

> <Gold.PLP.part.hbond>
-3.0000

> <Gold.PLP.part.metal>
0.0000

> <Gold.PLP.part.buried>
-4.4516

> <Gold.PLP.part.nonpolar>
-26.3495

> <Gold.PLP.part.repulsive>
2.0356

> <Gold.PLP.ligand.clash>
0.0000

> <Gold.PLP.ligand.torsion>
0.5786

> <Gold.PLP.Chemscore.Hbond>
2.7680

> <Gold.PLP.Chemscore.CHOScore>
1.8933

> <Gold.PLP.Chemscore.Metal>
0.0000

> <Gold.Chemscore.Hbonds>
donor molecule, donor type, donor heavy atom, donor atom, acceptor molecule, acceptor atom, score
      P1  H  7954  7966       L1    11  1.00
      P1  H  7989  7998       L1    18  1.00
      P1  H  8011  8017       L1    20  0.78
      L1  C     5    27       P1 10186  1.00
      L1  C     7    29       P1 10747  1.00

> <Gold.PLP.Chemscore.Internal.Correction>
0.1140

> <Gold.Rescore>
     Score         DG    S(hbond)    S(metal)    S(lipo)     H(rot)  DE(clash)    DE(int)     intcor
      9.46     -12.34       2.39        0.00      53.82       2.89       0.99       1.90       ----

> <Gold.Chemscore.Fitness>
9.4597

> <Gold.Chemscore.DG>
-12.3448

> <Gold.Chemscore.ZeroCoef>
-5.4800

> <Gold.Chemscore.Hbond>
2.3886

> <Gold.Chemscore.Metal>
0.0000

> <Gold.Chemscore.Lipo>
53.8192

> <Gold.Chemscore.Internal_Hbond>
0.0000

> <Gold.Chemscore.DEClash>
0.9882

> <Gold.Chemscore.DEInternal>
1.8969

> <Gold.Chemscore.Rot>
2.8946

> <Gold.Chemscore.Internal.Correction>
   9.000000E+99

> <Gold.Chemscore.Hbonds>
donor molecule, donor type, donor heavy atom, donor atom, acceptor molecule, acceptor atom, score
      P1  H  7954  7966       L1    11  0.98
      P1  H  7989  7998       L1    18  0.33
      P1  H  8011  8017       L1    20  0.73

> <Gold.Chemscore.Hbond.Weighted>
-7.9781

> <Gold.Chemscore.Metal.Weighted>
-0.0000

> <Gold.Chemscore.Lipo.Weighted>
-6.2968

> <Gold.Chemscore.Internal_Hbond.Weighted>
0.0000

> <Gold.Chemscore.DEClash.Weighted>
0.9882

> <Gold.Chemscore.DEInternal.Weighted>
1.8969

> <Gold.Chemscore.Rot.Weighted>
7.4101

> <Gold.Chemscore.Internal.Correction.Weighted>
   9.000000E+99

> <Gold.Protein.RotatedTorsions>
[ 6907 6896 6895 6894 ] final  125.28 input  -60.11 | X-H torsion
[ 7974 7965 7964 7962 ] final -115.34 input  175.53 | X-H torsion
[ 8008 7997 7996 7995 ] final   58.12 input   59.86 | X-H torsion
[ 10167 10162 10161 10158 ] final  -48.94 input  -65.29 | X-H torsion
[ 10718 10713 10712 10709 ] final  152.98 input   66.30 | X-H torsion
[ 10763 10752 10751 10750 ] final  -29.48 input  -60.55 | X-H torsion
[ 11005 11000 10999 10996 ] final   -5.25 input  -57.11 | X-H torsion

> <Gold.Protein.ActiveResidues>
 VAL166  LYS551  ARG553  GLY616  TRP617  ASP618  TYR619  PRO620  LYS621  CYS622 
 ASP623  PHE694  ASN695  SER759  ASP760  ASP761  ALA762  ILE779  LEU786  VAL792 
 PHE793  MET794  SER795  GLU796  ALA797  LYS798  CYS799  TRP800  GLU811  SER814 

> <Gold.Protein.RotatedAtoms>
  152.4005  133.6811  159.6312 H   0  0  0  0  0  0  0  0  0  0  0  0  # atno 6907 bound_to 6896
  150.7897  133.8799  159.3291 H   0  0  0  0  0  0  0  0  0  0  0  0  # atno 6908 bound_to 6896
  151.6566  135.0996  160.0222 H   0  0  0  0  0  0  0  0  0  0  0  0  # atno 6909 bound_to 6896
  145.1095  140.8603  143.3878 H   0  0  0  0  0  0  0  0  0  0  0  0  # atno 7974 bound_to 7965
  155.5449  140.3485  155.4455 H   0  0  0  0  0  0  0  0  0  0  0  0  # atno 8008 bound_to 7997
  156.0625  140.1343  156.9951 H   0  0  0  0  0  0  0  0  0  0  0  0  # atno 8009 bound_to 7997
  154.4486  140.0982  156.6522 H   0  0  0  0  0  0  0  0  0  0  0  0  # atno 8010 bound_to 7997
  140.6708  143.2719  151.4143 H   0  0  0  0  0  0  0  0  0  0  0  0  # atno 10167 bound_to 10162
  157.2507  131.0778  151.1731 H   0  0  0  0  0  0  0  0  0  0  0  0  # atno 10718 bound_to 10713
  153.7653  135.6916  153.4917 H   0  0  0  0  0  0  0  0  0  0  0  0  # atno 10763 bound_to 10752
  153.1911  135.4471  155.0149 H   0  0  0  0  0  0  0  0  0  0  0  0  # atno 10764 bound_to 10752
  154.8138  135.3389  154.7166 H   0  0  0  0  0  0  0  0  0  0  0  0  # atno 10765 bound_to 10752
  140.6891  133.9087  155.8606 H   0  0  0  0  0  0  0  0  0  0  0  0  # atno 11005 bound_to 11000
  145.0863  139.2923  143.5758 LP  0  0  0  0  0  0  0  0  0  0  0  0  # atno 17320 bound_to 7965
  146.3527  140.0386  142.8645 LP  0  0  0  0  0  0  0  0  0  0  0  0  # atno 17321 bound_to 7965
  139.5976  144.1364  152.2161 LP  0  0  0  0  0  0  0  0  0  0  0  0  # atno 17342 bound_to 10162
  140.0738  144.5757  150.7172 LP  0  0  0  0  0  0  0  0  0  0  0  0  # atno 17343 bound_to 10162
  157.3280  130.6971  149.6308 LP  0  0  0  0  0  0  0  0  0  0  0  0  # atno 17370 bound_to 10713
  155.9666  130.4316  150.4925 LP  0  0  0  0  0  0  0  0  0  0  0  0  # atno 17371 bound_to 10713
  141.0256  134.0828  157.4072 LP  0  0  0  0  0  0  0  0  0  0  0  0  # atno 17394 bound_to 11000
  139.8929  135.0127  156.6869 LP  0  0  0  0  0  0  0  0  0  0  0  0  # atno 17395 bound_to 11000

$$$$
