AV-unprocessed.smi:3271|AV-procd|sdf|12517|dock2
  -GOLD-   2272018423D 1   1.00000     0.00000
 Structure written by MMmdl.
 41 41  0  0  0  0  0  0  0  0  1 V2000
  154.1589  141.3510  160.7515 C   0  0  0  0  0  0  0  0  0  0  0  0
  153.3956  142.6162  160.3279 C   0  0  0  0  0  0  0  0  0  0  0  0
  152.8766  142.5952  158.8714 C   0  0  0  0  0  0  0  0  0  0  0  0
  152.2880  143.9709  158.4834 C   0  0  0  0  0  0  0  0  0  0  0  0
  151.7085  144.7693  159.6622 C   0  0  0  0  0  0  0  0  0  0  0  0
  151.8513  141.4686  158.6573 C   0  0  0  0  0  0  0  0  0  0  0  0
  151.1210  141.1080  159.5806 O   0  0  0  0  0  0  0  0  0  0  0  0
  151.8181  140.9190  157.4344 N   0  0  0  0  0  0  0  0  0  0  0  0
  150.9690  139.7991  157.0370 C   0  0  0  0  0  0  0  0  0  0  0  0
  150.8357  139.6434  155.4994 C   0  0  2  0  0  0  0  0  0  0  0  0
  151.0790  138.1800  155.0919 C   0  0  0  0  0  0  0  0  0  0  0  0
  151.9039  140.3654  154.9162 O   0  0  0  0  0  0  0  0  0  0  0  0
  149.4907  140.1092  154.9788 C   0  0  0  0  0  0  0  0  0  0  0  0
  148.5454  139.3862  154.1929 C   0  0  0  0  0  0  0  0  0  0  0  0
  147.4705  140.0957  153.8908 N   0  0  0  0  0  0  0  0  0  0  0  0
  147.6826  141.2900  154.4785 N   0  0  0  0  0  0  0  0  0  0  0  0
  146.6899  142.3350  154.3501 C   0  0  0  0  0  0  0  0  0  0  0  0
  148.8880  141.3259  155.1446 C   0  0  0  0  0  0  0  0  0  0  0  0
  154.5831  141.4718  161.7482 H   0  0  0  0  0  0  0  0  0  0  0  0
  154.9786  141.1347  160.0657 H   0  0  0  0  0  0  0  0  0  0  0  0
  153.5050  140.4796  160.7808 H   0  0  0  0  0  0  0  0  0  0  0  0
  152.5679  142.7853  161.0184 H   0  0  0  0  0  0  0  0  0  0  0  0
  154.0632  143.4696  160.4512 H   0  0  0  0  0  0  0  0  0  0  0  0
  153.7343  142.4077  158.2227 H   0  0  0  0  0  0  0  0  0  0  0  0
  153.0447  144.5723  157.9773 H   0  0  0  0  0  0  0  0  0  0  0  0
  151.4919  143.8222  157.7532 H   0  0  0  0  0  0  0  0  0  0  0  0
  151.2566  145.6977  159.3124 H   0  0  0  0  0  0  0  0  0  0  0  0
  152.4765  145.0347  160.3891 H   0  0  0  0  0  0  0  0  0  0  0  0
  150.9367  144.2003  160.1809 H   0  0  0  0  0  0  0  0  0  0  0  0
  152.4553  141.2768  156.7380 H   0  0  0  0  0  0  0  0  0  0  0  0
  151.2760  138.8662  157.5140 H   0  0  0  0  0  0  0  0  0  0  0  0
  149.9873  140.0297  157.4521 H   0  0  0  0  0  0  0  0  0  0  0  0
  150.3165  137.5205  155.5079 H   0  0  0  0  0  0  0  0  0  0  0  0
  152.0474  137.8222  155.4444 H   0  0  0  0  0  0  0  0  0  0  0  0
  151.0575  138.0606  154.0078 H   0  0  0  0  0  0  0  0  0  0  0  0
  152.6413  140.3428  155.5068 H   0  0  0  0  0  0  0  0  0  0  0  0
  148.6132  138.3726  153.8258 H   0  0  0  0  0  0  0  0  0  0  0  0
  146.9332  143.1655  155.0137 H   0  0  0  0  0  0  0  0  0  0  0  0
  145.7055  141.9473  154.6154 H   0  0  0  0  0  0  0  0  0  0  0  0
  146.6680  142.6963  153.3216 H   0  0  0  0  0  0  0  0  0  0  0  0
  149.2210  142.2081  155.6710 H   0  0  0  0  0  0  0  0  0  0  0  0
  1  2  1  0  0  0  0
  1 19  1  0  0  0  0
  1 20  1  0  0  0  0
  1 21  1  0  0  0  0
  2  3  1  0  0  0  0
  2 22  1  0  0  0  0
  2 23  1  0  0  0  0
  3  4  1  0  0  0  0
  3  6  1  0  0  0  0
  3 24  1  0  0  0  0
  4  5  1  0  0  0  0
  4 25  1  0  0  0  0
  4 26  1  0  0  0  0
  5 27  1  0  0  0  0
  5 28  1  0  0  0  0
  5 29  1  0  0  0  0
  6  7  2  0  0  0  0
  6  8  1  0  0  0  0
  8  9  1  0  0  0  0
  8 30  1  0  0  0  0
  9 10  1  0  0  0  0
  9 31  1  0  0  0  0
  9 32  1  0  0  0  0
 10 11  1  0  0  0  0
 10 12  1  0  0  0  0
 10 13  1  0  0  0  0
 11 33  1  0  0  0  0
 11 34  1  0  0  0  0
 11 35  1  0  0  0  0
 12 36  1  0  0  0  0
 13 18  2  0  0  0  0
 13 14  1  0  0  0  0
 14 15  2  0  0  0  0
 14 37  1  0  0  0  0
 15 16  1  0  0  0  0
 16 17  1  0  0  0  0
 16 18  1  0  0  0  0
 17 38  1  0  0  0  0
 17 39  1  0  0  0  0
 17 40  1  0  0  0  0
 18 41  1  0  0  0  0
M  END
> <s_m_source_file>
AV-unprocessed.smi

> <i_m_source_file_index>
3271

> <i_lp_mmshare_version>
43012

> <i_f3d_flags>
0

> <s_epik_input>
W0NIM11bQ0gyXVtDSF0oW0NIMl1bQ0gzXSlDKD1PKVtOSF1bQ0gyXVtDQEBdKFtDSDNdKShbT0hdKWMxW2NIXW5uKFtDSDNdKVtjSF0x

> <s_epik_cmdline>
J2VwaWtfcHl0aG9uJywgJy1waCcsICc3LjAnLCAnLXRuJywgJzgnLCAnLW1hJywgJzIwMCcsICctbWV0YWxfYmluZGluZycsICctaW1hZScsICc8aW5maWxlLm1hZT4nLCAnLW9tYWUnLCAnPG91dGZpbGUubWFlPic=

> <r_lp_tautomer_probability>
1

> <r_epik_Ionization_Penalty>
6.03488e-05

> <r_epik_Ionization_Penalty_Charging>
0

> <r_epik_Ionization_Penalty_Neutral>
6.03488e-05

> <r_epik_State_Penalty>
-0

> <r_epik_Charging_Adjusted_Penalty>
0

> <i_epik_Tot_Q>
0

> <i_epik_Tot_abs_Q>
0

> <r_epik_Metal_State_Penalty>
-0

> <b_epik_Metal_Only>
0

> <s_lp_Force_Field>
OPLS_2005

> <r_lp_Energy>
0.383254

> <b_lp_Chiralities_Consistent>
1

> <s_lp_Variant>
AV-unprocessed.smi:3271-2

> <Gold.Version>
5.8.1

> <Gold.Id.Protein>
6NUR|6NUR_protein|mol2

> <Gold.PLP.Fitness>
42.7863

> <Gold.PLP.PLP>
-40.8375

> <Gold.PLP.part.hbond>
-1.9030

> <Gold.PLP.part.metal>
0.0000

> <Gold.PLP.part.buried>
-3.6355

> <Gold.PLP.part.nonpolar>
-36.5772

> <Gold.PLP.part.repulsive>
1.0301

> <Gold.PLP.ligand.clash>
0.0000

> <Gold.PLP.ligand.torsion>
2.3272

> <Gold.PLP.Chemscore.Hbond>
0.7680

> <Gold.PLP.Chemscore.CHOScore>
1.3813

> <Gold.PLP.Chemscore.Metal>
0.0000

> <Gold.Chemscore.Hbonds>
donor molecule, donor type, donor heavy atom, donor atom, acceptor molecule, acceptor atom, score
      P1  H  7989  7998       L1    12  0.74
      L1  C    14    37       P1  7948  0.06
      L1  C    18    41       P1  8028  1.00

> <Gold.PLP.Chemscore.Internal.Correction>
0.1554

> <Gold.Rescore>
     Score         DG    S(hbond)    S(metal)    S(lipo)     H(rot)  DE(clash)    DE(int)     intcor
     12.00     -14.27       0.84        0.00     102.35       2.33       0.04       2.23       ----

> <Gold.Chemscore.Fitness>
12.0030

> <Gold.Chemscore.DG>
-14.2684

> <Gold.Chemscore.ZeroCoef>
-5.4800

> <Gold.Chemscore.Hbond>
0.8351

> <Gold.Chemscore.Metal>
0.0000

> <Gold.Chemscore.Lipo>
102.3454

> <Gold.Chemscore.Internal_Hbond>
0.0000

> <Gold.Chemscore.DEClash>
0.0392

> <Gold.Chemscore.DEInternal>
2.2262

> <Gold.Chemscore.Rot>
2.3341

> <Gold.Chemscore.Internal.Correction>
   9.000000E+99

> <Gold.Chemscore.Hbonds>
donor molecule, donor type, donor heavy atom, donor atom, acceptor molecule, acceptor atom, score
      P1  H  7989  7998       L1    12  0.66

> <Gold.Chemscore.Hbond.Weighted>
-2.7892

> <Gold.Chemscore.Metal.Weighted>
-0.0000

> <Gold.Chemscore.Lipo.Weighted>
-11.9744

> <Gold.Chemscore.Internal_Hbond.Weighted>
0.0000

> <Gold.Chemscore.DEClash.Weighted>
0.0392

> <Gold.Chemscore.DEInternal.Weighted>
2.2262

> <Gold.Chemscore.Rot.Weighted>
5.9753

> <Gold.Chemscore.Internal.Correction.Weighted>
   9.000000E+99

> <Gold.Protein.RotatedTorsions>
[ 6907 6896 6895 6894 ] final  -36.75 input  -60.11 | X-H torsion
[ 7974 7965 7964 7962 ] final  177.33 input  175.53 | X-H torsion
[ 8008 7997 7996 7995 ] final -118.21 input   59.86 | X-H torsion
[ 10167 10162 10161 10158 ] final   19.88 input  -65.29 | X-H torsion
[ 10718 10713 10712 10709 ] final  105.09 input   66.30 | X-H torsion
[ 10763 10752 10751 10750 ] final   87.94 input  -60.55 | X-H torsion
[ 11005 11000 10999 10996 ] final  121.34 input  -57.11 | X-H torsion

> <Gold.Protein.ActiveResidues>
 VAL166  LYS551  ARG553  GLY616  TRP617  ASP618  TYR619  PRO620  LYS621  CYS622 
 ASP623  PHE694  ASN695  SER759  ASP760  ASP761  ALA762  ILE779  LEU786  VAL792 
 PHE793  MET794  SER795  GLU796  ALA797  LYS798  CYS799  TRP800  GLU811  SER814 

> <Gold.Protein.RotatedAtoms>
  151.0233  134.9485  159.8071 H   0  0  0  0  0  0  0  0  0  0  0  0  # atno 6907 bound_to 6896
  152.5330  134.2875  159.9040 H   0  0  0  0  0  0  0  0  0  0  0  0  # atno 6908 bound_to 6896
  151.2883  133.4135  159.2665 H   0  0  0  0  0  0  0  0  0  0  0  0  # atno 6909 bound_to 6896
  144.7170  140.0231  143.6440 H   0  0  0  0  0  0  0  0  0  0  0  0  # atno 7974 bound_to 7965
  155.0960  140.0395  157.2683 H   0  0  0  0  0  0  0  0  0  0  0  0  # atno 8008 bound_to 7997
  154.6795  140.2630  155.6898 H   0  0  0  0  0  0  0  0  0  0  0  0  # atno 8009 bound_to 7997
  156.2689  140.2781  156.1333 H   0  0  0  0  0  0  0  0  0  0  0  0  # atno 8010 bound_to 7997
  140.5546  143.9448  150.6600 H   0  0  0  0  0  0  0  0  0  0  0  0  # atno 10167 bound_to 10162
  157.6718  131.0819  150.5804 H   0  0  0  0  0  0  0  0  0  0  0  0  # atno 10718 bound_to 10713
  153.1719  135.4525  154.9913 H   0  0  0  0  0  0  0  0  0  0  0  0  # atno 10763 bound_to 10752
  154.7971  135.3242  154.7642 H   0  0  0  0  0  0  0  0  0  0  0  0  # atno 10764 bound_to 10752
  153.8117  135.6954  153.4895 H   0  0  0  0  0  0  0  0  0  0  0  0  # atno 10765 bound_to 10752
  139.9222  134.9638  156.7943 H   0  0  0  0  0  0  0  0  0  0  0  0  # atno 11005 bound_to 11000
  146.0165  139.3214  143.0839 LP  0  0  0  0  0  0  0  0  0  0  0  0  # atno 17320 bound_to 7965
  145.8620  140.9470  143.0695 LP  0  0  0  0  0  0  0  0  0  0  0  0  # atno 17321 bound_to 7965
  140.2883  143.3342  152.1087 LP  0  0  0  0  0  0  0  0  0  0  0  0  # atno 17342 bound_to 10162
  139.5042  144.6771  151.6102 LP  0  0  0  0  0  0  0  0  0  0  0  0  # atno 17343 bound_to 10162
  156.6104  130.4378  149.5861 LP  0  0  0  0  0  0  0  0  0  0  0  0  # atno 17370 bound_to 10713
  156.2435  130.6865  151.1578 LP  0  0  0  0  0  0  0  0  0  0  0  0  # atno 17371 bound_to 10713
  140.6441  133.9791  155.7722 LP  0  0  0  0  0  0  0  0  0  0  0  0  # atno 17394 bound_to 11000
  141.0752  134.0146  157.3469 LP  0  0  0  0  0  0  0  0  0  0  0  0  # atno 17395 bound_to 11000

$$$$
