AV-unprocessed.smi:1552|AV-procd|sdf|6235|dock3
  -GOLD-   22720 6413D 1   1.00000     0.00000
 Structure written by MMmdl.
 50 51  0  0  0  0  0  0  0  0  2 V2000
  151.4225  139.8655  155.3520 C   0  0  0  0  0  0  0  0  0  0  0  0
  150.4019  140.3765  156.3009 N   0  3  0  0  0  0  0  0  0  0  0  0
  149.0818  139.7501  156.0590 C   0  0  0  0  0  0  0  0  0  0  0  0
  150.7855  140.3815  157.7486 C   0  0  1  0  0  0  0  0  0  0  0  0
  151.3279  139.0183  158.2514 C   0  0  0  0  0  0  0  0  0  0  0  0
  150.3028  137.9821  158.2041 N   0  0  0  0  0  0  0  0  0  0  0  0
  150.1325  136.9532  159.0512 C   0  0  0  0  0  0  0  0  0  0  0  0
  150.8778  136.8186  160.0192 O   0  0  0  0  0  0  0  0  0  0  0  0
  148.9831  135.9488  158.8410 C   0  0  0  0  0  0  0  0  0  0  0  0
  148.6314  135.2671  160.0938 N   0  0  0  0  0  0  0  0  0  0  0  0
  148.6962  133.8825  160.1625 C   0  0  0  0  0  0  0  0  0  0  0  0
  148.4036  133.1751  161.2792 C   0  0  0  0  0  0  0  0  0  0  0  0
  147.9941  133.8598  162.5004 C   0  0  0  0  0  0  0  0  0  0  0  0
  147.7070  133.3081  163.5603 O   0  0  0  0  0  0  0  0  0  0  0  0
  147.9439  135.2521  162.3935 N   0  0  0  0  0  0  0  0  0  0  0  0
  148.2462  135.9876  161.2463 C   0  0  0  0  0  0  0  0  0  0  0  0
  148.1740  137.2156  161.2651 O   0  0  0  0  0  0  0  0  0  0  0  0
  151.6881  141.6002  158.1018 C   0  0  0  0  0  0  0  0  0  0  0  0
  152.2503  141.5199  159.5387 C   0  0  0  0  0  0  0  0  0  0  0  0
  153.2427  142.6604  159.8206 C   0  0  0  0  0  0  0  0  0  0  0  0
  152.6078  144.0347  159.5567 C   0  0  0  0  0  0  0  0  0  0  0  0
  152.0432  144.1206  158.1304 C   0  0  0  0  0  0  0  0  0  0  0  0
  151.0445  142.9843  157.8589 C   0  0  0  0  0  0  0  0  0  0  0  0
  147.6685  135.7703  163.2151 H   0  0  0  0  0  0  0  0  0  0  0  0
  151.5401  138.7845  155.4367 H   0  0  0  0  0  0  0  0  0  0  0  0
  152.3964  140.3256  155.5088 H   0  0  0  0  0  0  0  0  0  0  0  0
  151.1229  140.0847  154.3267 H   0  0  0  0  0  0  0  0  0  0  0  0
  149.0961  138.6925  156.3258 H   0  0  0  0  0  0  0  0  0  0  0  0
  148.8003  139.8338  155.0088 H   0  0  0  0  0  0  0  0  0  0  0  0
  148.3046  140.2428  156.6445 H   0  0  0  0  0  0  0  0  0  0  0  0
  149.8681  140.5506  158.3157 H   0  0  0  0  0  0  0  0  0  0  0  0
  152.1716  138.6990  157.6382 H   0  0  0  0  0  0  0  0  0  0  0  0
  151.6860  139.1118  159.2763 H   0  0  0  0  0  0  0  0  0  0  0  0
  149.6188  138.0716  157.4663 H   0  0  0  0  0  0  0  0  0  0  0  0
  148.1300  136.4980  158.4395 H   0  0  0  0  0  0  0  0  0  0  0  0
  149.1966  135.2034  158.0765 H   0  0  0  0  0  0  0  0  0  0  0  0
  148.9989  133.3349  159.2812 H   0  0  0  0  0  0  0  0  0  0  0  0
  148.4737  132.0969  161.2693 H   0  0  0  0  0  0  0  0  0  0  0  0
  152.5574  141.5465  157.4451 H   0  0  0  0  0  0  0  0  0  0  0  0
  151.4378  141.5659  160.2648 H   0  0  0  0  0  0  0  0  0  0  0  0
  152.7488  140.5625  159.6941 H   0  0  0  0  0  0  0  0  0  0  0  0
  153.5904  142.6044  160.8524 H   0  0  0  0  0  0  0  0  0  0  0  0
  154.1257  142.5402  159.1913 H   0  0  0  0  0  0  0  0  0  0  0  0
  151.8092  144.2139  160.2777 H   0  0  0  0  0  0  0  0  0  0  0  0
  153.3465  144.8217  159.7123 H   0  0  0  0  0  0  0  0  0  0  0  0
  151.5576  145.0855  157.9812 H   0  0  0  0  0  0  0  0  0  0  0  0
  152.8598  144.0716  157.4088 H   0  0  0  0  0  0  0  0  0  0  0  0
  150.6825  143.0673  156.8344 H   0  0  0  0  0  0  0  0  0  0  0  0
  150.1828  143.1185  158.5120 H   0  0  0  0  0  0  0  0  0  0  0  0
  150.2728  141.3501  156.0642 H   0  0  0  0  0  0  0  0  0  0  0  0
  1  2  1  0  0  0  0
  1 25  1  0  0  0  0
  1 26  1  0  0  0  0
  1 27  1  0  0  0  0
  2  3  1  0  0  0  0
  2  4  1  0  0  0  0
  2 50  1  0  0  0  0
  3 28  1  0  0  0  0
  3 29  1  0  0  0  0
  3 30  1  0  0  0  0
  4  5  1  0  0  0  0
  4 18  1  0  0  0  0
  4 31  1  0  0  0  0
  5  6  1  0  0  0  0
  5 32  1  0  0  0  0
  5 33  1  0  0  0  0
  6  7  1  0  0  0  0
  6 34  1  0  0  0  0
  7  8  2  0  0  0  0
  7  9  1  0  0  0  0
  9 10  1  0  0  0  0
  9 35  1  0  0  0  0
  9 36  1  0  0  0  0
 10 16  1  0  0  0  0
 10 11  1  0  0  0  0
 11 12  2  0  0  0  0
 11 37  1  0  0  0  0
 12 13  1  0  0  0  0
 12 38  1  0  0  0  0
 13 14  2  0  0  0  0
 13 15  1  0  0  0  0
 15 24  1  0  0  0  0
 15 16  1  0  0  0  0
 16 17  2  0  0  0  0
 18 23  1  0  0  0  0
 18 19  1  0  0  0  0
 18 39  1  0  0  0  0
 19 20  1  0  0  0  0
 19 40  1  0  0  0  0
 19 41  1  0  0  0  0
 20 21  1  0  0  0  0
 20 42  1  0  0  0  0
 20 43  1  0  0  0  0
 21 22  1  0  0  0  0
 21 44  1  0  0  0  0
 21 45  1  0  0  0  0
 22 23  1  0  0  0  0
 22 46  1  0  0  0  0
 22 47  1  0  0  0  0
 23 48  1  0  0  0  0
 23 49  1  0  0  0  0
M  CHG  1   2   1
M  END
> <s_m_source_file>
AV-unprocessed.smi

> <i_m_source_file_index>
1552

> <i_lp_mmshare_version>
43012

> <i_f3d_flags>
0

> <s_epik_input>
W0NIMl0xW0NIMl1bQ0gyXVtDSDJdW0NIMl1bQ0hdMVtDQEhdKE4oW0NIM10pW0NIM10pW0NIMl1bTkhdQyg9TylbQ0gyXW4yW2NIXVtjSF1jKD1PKVtuSF1jMj1P

> <s_epik_cmdline>
J2VwaWtfcHl0aG9uJywgJy1waCcsICc3LjAnLCAnLXRuJywgJzgnLCAnLW1hJywgJzIwMCcsICctbWV0YWxfYmluZGluZycsICctaW1hZScsICc8aW5maWxlLm1hZT4nLCAnLW9tYWUnLCAnPG91dGZpbGUubWFlPic=

> <r_lp_tautomer_probability>
1

> <r_epik_Ionization_Penalty>
0.00705217

> <r_epik_Ionization_Penalty_Charging>
0.00705209

> <r_epik_Ionization_Penalty_Neutral>
7.66101e-08

> <r_epik_State_Penalty>
-0

> <r_epik_Charging_Adjusted_Penalty>
0.00705209

> <i_epik_Tot_Q>
1

> <i_epik_Tot_abs_Q>
1

> <r_epik_Metal_State_Penalty>
0.375122

> <b_epik_Metal_Only>
0

> <s_lp_Force_Field>
OPLS_2005

> <r_lp_Energy>
31.5593

> <b_lp_Chiralities_Consistent>
1

> <s_lp_Variant>
AV-unprocessed.smi:1552-2

> <Gold.Version>
5.8.1

> <Gold.Id.Protein>
6NUR|6NUR_protein|mol2

> <Gold.PLP.Fitness>
46.8276

> <Gold.PLP.PLP>
-40.3645

> <Gold.PLP.part.hbond>
-4.2396

> <Gold.PLP.part.metal>
0.0000

> <Gold.PLP.part.buried>
-2.1866

> <Gold.PLP.part.nonpolar>
-35.1973

> <Gold.PLP.part.repulsive>
0.2771

> <Gold.PLP.ligand.clash>
0.0000

> <Gold.PLP.ligand.torsion>
1.0738

> <Gold.PLP.Chemscore.Hbond>
2.6720

> <Gold.PLP.Chemscore.CHOScore>
0.0000

> <Gold.PLP.Chemscore.Metal>
0.0000

> <Gold.Chemscore.Hbonds>
donor molecule, donor type, donor heavy atom, donor atom, acceptor molecule, acceptor atom, score
      P1  H  6896  6909       L1     8  0.80
      P1  H  6931  6943       L1    17  0.89
      P1  H  6934  6947       L1    17  0.53

> <Gold.PLP.Chemscore.Internal.Correction>
0.5949

> <Gold.Rescore>
     Score         DG    S(hbond)    S(metal)    S(lipo)     H(rot)  DE(clash)    DE(int)     intcor
     12.03     -18.29       2.70        0.00      86.92       2.50       0.21       6.05       ----

> <Gold.Chemscore.Fitness>
12.0307

> <Gold.Chemscore.DG>
-18.2855

> <Gold.Chemscore.ZeroCoef>
-5.4800

> <Gold.Chemscore.Hbond>
2.7030

> <Gold.Chemscore.Metal>
0.0000

> <Gold.Chemscore.Lipo>
86.9158

> <Gold.Chemscore.Internal_Hbond>
0.0000

> <Gold.Chemscore.DEClash>
0.2098

> <Gold.Chemscore.DEInternal>
6.0451

> <Gold.Chemscore.Rot>
2.4968

> <Gold.Chemscore.Internal.Correction>
   9.000000E+99

> <Gold.Chemscore.Hbonds>
donor molecule, donor type, donor heavy atom, donor atom, acceptor molecule, acceptor atom, score
      P1  H  6896  6909       L1     8  0.12
      P1  H  6931  6943       L1    17  0.85
      P1  H  6934  6947       L1    17  0.51

> <Gold.Chemscore.Hbond.Weighted>
-9.0281

> <Gold.Chemscore.Metal.Weighted>
-0.0000

> <Gold.Chemscore.Lipo.Weighted>
-10.1692

> <Gold.Chemscore.Internal_Hbond.Weighted>
0.0000

> <Gold.Chemscore.DEClash.Weighted>
0.2098

> <Gold.Chemscore.DEInternal.Weighted>
6.0451

> <Gold.Chemscore.Rot.Weighted>
6.3917

> <Gold.Chemscore.Internal.Correction.Weighted>
   9.000000E+99

> <Gold.Protein.RotatedTorsions>
[ 6907 6896 6895 6894 ] final   88.84 input  -60.11 | X-H torsion
[ 7974 7965 7964 7962 ] final   10.98 input  175.53 | X-H torsion
[ 8008 7997 7996 7995 ] final   88.33 input   59.86 | X-H torsion
[ 10167 10162 10161 10158 ] final   46.18 input  -65.29 | X-H torsion
[ 10718 10713 10712 10709 ] final  -30.33 input   66.30 | X-H torsion
[ 10763 10752 10751 10750 ] final -139.71 input  -60.55 | X-H torsion
[ 11005 11000 10999 10996 ] final   16.96 input  -57.11 | X-H torsion

> <Gold.Protein.ActiveResidues>
 VAL166  LYS551  ARG553  GLY616  TRP617  ASP618  TYR619  PRO620  LYS621  CYS622 
 ASP623  PHE694  ASN695  SER759  ASP760  ASP761  ALA762  ILE779  LEU786  VAL792 
 PHE793  MET794  SER795  GLU796  ALA797  LYS798  CYS799  TRP800  GLU811  SER814 

> <Gold.Protein.RotatedAtoms>
  152.5430  134.2059  159.8730 H   0  0  0  0  0  0  0  0  0  0  0  0  # atno 6907 bound_to 6896
  151.2044  133.4585  159.2604 H   0  0  0  0  0  0  0  0  0  0  0  0  # atno 6908 bound_to 6896
  151.0957  134.9955  159.8480 H   0  0  0  0  0  0  0  0  0  0  0  0  # atno 6909 bound_to 6896
  146.2379  139.9553  142.8465 H   0  0  0  0  0  0  0  0  0  0  0  0  # atno 7974 bound_to 7965
  155.9865  140.3372  155.6712 H   0  0  0  0  0  0  0  0  0  0  0  0  # atno 8008 bound_to 7997
  155.6479  140.0702  157.2615 H   0  0  0  0  0  0  0  0  0  0  0  0  # atno 8009 bound_to 7997
  154.4206  140.1731  156.1630 H   0  0  0  0  0  0  0  0  0  0  0  0  # atno 8010 bound_to 7997
  140.3166  144.2757  150.6190 H   0  0  0  0  0  0  0  0  0  0  0  0  # atno 10167 bound_to 10162
  156.4012  130.4390  149.7321 H   0  0  0  0  0  0  0  0  0  0  0  0  # atno 10718 bound_to 10713
  154.8601  135.3574  154.5590 H   0  0  0  0  0  0  0  0  0  0  0  0  # atno 10763 bound_to 10752
  153.6206  135.7006  153.5316 H   0  0  0  0  0  0  0  0  0  0  0  0  # atno 10764 bound_to 10752
  153.3132  135.4172  155.1314 H   0  0  0  0  0  0  0  0  0  0  0  0  # atno 10765 bound_to 10752
  140.4413  134.1319  155.7691 H   0  0  0  0  0  0  0  0  0  0  0  0  # atno 11005 bound_to 11000
  145.1823  140.9773  143.4259 LP  0  0  0  0  0  0  0  0  0  0  0  0  # atno 17320 bound_to 7965
  144.9931  139.3670  143.6205 LP  0  0  0  0  0  0  0  0  0  0  0  0  # atno 17321 bound_to 7965
  140.5521  143.2205  151.7909 LP  0  0  0  0  0  0  0  0  0  0  0  0  # atno 17342 bound_to 10162
  139.4883  144.4462  151.9707 LP  0  0  0  0  0  0  0  0  0  0  0  0  # atno 17343 bound_to 10162
  156.4336  130.7827  151.2847 LP  0  0  0  0  0  0  0  0  0  0  0  0  # atno 17370 bound_to 10713
  157.7504  131.0146  150.3472 LP  0  0  0  0  0  0  0  0  0  0  0  0  # atno 17371 bound_to 10713
  141.1704  133.8619  157.1587 LP  0  0  0  0  0  0  0  0  0  0  0  0  # atno 17394 bound_to 11000
  140.0068  135.0005  157.0310 LP  0  0  0  0  0  0  0  0  0  0  0  0  # atno 17395 bound_to 11000

$$$$
