AV-unprocessed.smi:2416|AV-procd|sdf|9545|dock7
  -GOLD-   2272013173D 1   1.00000     0.00000
 Structure written by MMmdl.
 40 41  0  0  0  0  0  0  0  0  1 V2000
  152.7728  143.3803  161.8963 C   0  0  0  0  0  0  0  0  0  0  0  0
  151.4859  143.5544  161.3163 O   0  0  0  0  0  0  0  0  0  0  0  0
  151.3903  144.4093  160.1683 C   0  0  2  0  0  0  0  0  0  0  0  0
  152.1937  145.6973  160.3885 C   0  0  0  0  0  0  0  0  0  0  0  0
  149.9268  144.5032  159.6947 C   0  0  0  0  0  0  0  0  0  0  0  0
  150.1617  143.1899  158.9512 C   0  0  1  0  0  0  0  0  0  0  0  0
  149.4831  143.1411  157.6600 N   0  0  0  0  0  0  0  0  0  0  0  0
  149.1373  142.0085  157.0322 C   0  0  0  0  0  0  0  0  0  0  0  0
  149.3673  140.8868  157.4852 O   0  0  0  0  0  0  0  0  0  0  0  0
  148.5206  142.2650  155.8647 N   0  0  0  0  0  0  0  0  0  0  0  0
  148.0052  141.3353  154.9219 C   0  0  0  0  0  0  0  0  0  0  0  0
  148.5757  140.0433  154.9820 C   0  0  0  0  0  0  0  0  0  0  0  0
  148.1350  139.0486  154.0873 C   0  0  0  0  0  0  0  0  0  0  0  0
  147.1329  139.3735  153.1558 C   0  0  0  0  0  0  0  0  0  0  0  0
  146.6772  138.4507  152.2757 F   0  0  0  0  0  0  0  0  0  0  0  0
  146.6158  140.6819  153.1625 C   0  0  0  0  0  0  0  0  0  0  0  0
  147.0381  141.6362  154.0191 N   0  0  0  0  0  0  0  0  0  0  0  0
  151.6683  143.5521  158.8897 C   0  0  0  0  0  0  0  0  0  0  0  0
  152.1446  144.3285  157.6472 C   0  0  0  0  0  0  0  0  0  0  0  0
  152.6451  142.3815  159.0473 C   0  0  0  0  0  0  0  0  0  0  0  0
  152.6666  142.8492  162.8420 H   0  0  0  0  0  0  0  0  0  0  0  0
  153.2680  144.3283  162.1035 H   0  0  0  0  0  0  0  0  0  0  0  0
  153.4209  142.7780  161.2601 H   0  0  0  0  0  0  0  0  0  0  0  0
  152.2206  146.3161  159.4923 H   0  0  0  0  0  0  0  0  0  0  0  0
  153.2252  145.4778  160.6648 H   0  0  0  0  0  0  0  0  0  0  0  0
  151.7613  146.3196  161.1717 H   0  0  0  0  0  0  0  0  0  0  0  0
  149.1652  144.4463  160.4718 H   0  0  0  0  0  0  0  0  0  0  0  0
  149.7488  145.3544  159.0350 H   0  0  0  0  0  0  0  0  0  0  0  0
  149.9582  142.3263  159.5891 H   0  0  0  0  0  0  0  0  0  0  0  0
  149.2598  144.0236  157.2238 H   0  0  0  0  0  0  0  0  0  0  0  0
  148.4006  143.2379  155.6254 H   0  0  0  0  0  0  0  0  0  0  0  0
  149.3450  139.8121  155.7043 H   0  0  0  0  0  0  0  0  0  0  0  0
  148.5589  138.0556  154.1158 H   0  0  0  0  0  0  0  0  0  0  0  0
  145.8449  140.9711  152.4637 H   0  0  0  0  0  0  0  0  0  0  0  0
  152.1417  143.7014  156.7550 H   0  0  0  0  0  0  0  0  0  0  0  0
  153.1617  144.7007  157.7742 H   0  0  0  0  0  0  0  0  0  0  0  0
  151.5124  145.1900  157.4318 H   0  0  0  0  0  0  0  0  0  0  0  0
  152.7246  141.7988  158.1292 H   0  0  0  0  0  0  0  0  0  0  0  0
  152.3299  141.6890  159.8280 H   0  0  0  0  0  0  0  0  0  0  0  0
  153.6456  142.7291  159.3062 H   0  0  0  0  0  0  0  0  0  0  0  0
  1  2  1  0  0  0  0
  1 21  1  0  0  0  0
  1 22  1  0  0  0  0
  1 23  1  0  0  0  0
  2  3  1  0  0  0  0
  3 18  1  0  0  0  0
  3  4  1  0  0  0  0
  3  5  1  0  0  0  0
  4 24  1  0  0  0  0
  4 25  1  0  0  0  0
  4 26  1  0  0  0  0
  5  6  1  0  0  0  0
  5 27  1  0  0  0  0
  5 28  1  0  0  0  0
  6  7  1  0  0  0  0
  6 18  1  0  0  0  0
  6 29  1  0  0  0  0
  7  8  1  0  0  0  0
  7 30  1  0  0  0  0
  8  9  2  0  0  0  0
  8 10  1  0  0  0  0
 10 11  1  0  0  0  0
 10 31  1  0  0  0  0
 11 17  1  0  0  0  0
 11 12  2  0  0  0  0
 12 13  1  0  0  0  0
 12 32  1  0  0  0  0
 13 14  2  0  0  0  0
 13 33  1  0  0  0  0
 14 15  1  0  0  0  0
 14 16  1  0  0  0  0
 16 17  2  0  0  0  0
 16 34  1  0  0  0  0
 18 19  1  0  0  0  0
 18 20  1  0  0  0  0
 19 35  1  0  0  0  0
 19 36  1  0  0  0  0
 19 37  1  0  0  0  0
 20 38  1  0  0  0  0
 20 39  1  0  0  0  0
 20 40  1  0  0  0  0
M  END
> <s_m_source_file>
AV-unprocessed.smi

> <i_m_source_file_index>
2416

> <i_lp_mmshare_version>
43012

> <i_f3d_flags>
0

> <s_epik_input>
W0NIM11PW0NAQF0xKFtDSDNdKVtDSDJdW0NASF0oQzEoW0NIM10pW0NIM10pW05IXUMoPU8pW05IXWMyW2NIXVtjSF1jKEYpW2NIXW4y

> <s_epik_cmdline>
J2VwaWtfcHl0aG9uJywgJy1waCcsICc3LjAnLCAnLXRuJywgJzgnLCAnLW1hJywgJzIwMCcsICctbWV0YWxfYmluZGluZycsICctaW1hZScsICc8aW5maWxlLm1hZT4nLCAnLW9tYWUnLCAnPG91dGZpbGUubWFlPic=

> <r_lp_tautomer_probability>
1

> <r_epik_Ionization_Penalty>
3.67756e-05

> <r_epik_Ionization_Penalty_Charging>
0

> <r_epik_Ionization_Penalty_Neutral>
3.67756e-05

> <r_epik_State_Penalty>
-0

> <r_epik_Charging_Adjusted_Penalty>
0

> <i_epik_Tot_Q>
0

> <i_epik_Tot_abs_Q>
0

> <r_epik_Metal_State_Penalty>
-0

> <b_epik_Metal_Only>
0

> <s_lp_Force_Field>
OPLS_2005

> <r_lp_Energy>
27.4355

> <b_lp_Chiralities_Consistent>
1

> <s_lp_Variant>
AV-unprocessed.smi:2416-2

> <Gold.Version>
5.8.1

> <Gold.Id.Protein>
6NUR|6NUR_protein|mol2

> <Gold.PLP.Fitness>
45.5847

> <Gold.PLP.PLP>
-38.9073

> <Gold.PLP.part.hbond>
-2.8978

> <Gold.PLP.part.metal>
0.0000

> <Gold.PLP.part.buried>
-1.8534

> <Gold.PLP.part.nonpolar>
-34.2935

> <Gold.PLP.part.repulsive>
0.4856

> <Gold.PLP.ligand.clash>
0.0000

> <Gold.PLP.ligand.torsion>
0.5952

> <Gold.PLP.Chemscore.Hbond>
1.8553

> <Gold.PLP.Chemscore.CHOScore>
0.6430

> <Gold.PLP.Chemscore.Metal>
0.0000

> <Gold.Chemscore.Hbonds>
donor molecule, donor type, donor heavy atom, donor atom, acceptor molecule, acceptor atom, score
      L1  H     7    30       P1  8028  0.86
      L1  H    10    31       P1  8028  1.00
      L1  C    16    34       P1 10175  0.73

> <Gold.PLP.Chemscore.Internal.Correction>
0.3730

> <Gold.Rescore>
     Score         DG    S(hbond)    S(metal)    S(lipo)     H(rot)  DE(clash)    DE(int)     intcor
     18.18     -20.92       1.82        0.00     107.73       1.27       0.66       2.09       ----

> <Gold.Chemscore.Fitness>
18.1758

> <Gold.Chemscore.DG>
-20.9232

> <Gold.Chemscore.ZeroCoef>
-5.4800

> <Gold.Chemscore.Hbond>
1.8199

> <Gold.Chemscore.Metal>
0.0000

> <Gold.Chemscore.Lipo>
107.7273

> <Gold.Chemscore.Internal_Hbond>
0.0000

> <Gold.Chemscore.DEClash>
0.6577

> <Gold.Chemscore.DEInternal>
2.0897

> <Gold.Chemscore.Rot>
1.2653

> <Gold.Chemscore.Internal.Correction>
   9.000000E+99

> <Gold.Chemscore.Hbonds>
donor molecule, donor type, donor heavy atom, donor atom, acceptor molecule, acceptor atom, score
      L1  H     7    30       P1  8028  0.22
      L1  H    10    31       P1  8028  0.89
      P1  H  6933  6945       L1     2  0.01

> <Gold.Chemscore.Hbond.Weighted>
-6.0784

> <Gold.Chemscore.Metal.Weighted>
-0.0000

> <Gold.Chemscore.Lipo.Weighted>
-12.6041

> <Gold.Chemscore.Internal_Hbond.Weighted>
0.0000

> <Gold.Chemscore.DEClash.Weighted>
0.6577

> <Gold.Chemscore.DEInternal.Weighted>
2.0897

> <Gold.Chemscore.Rot.Weighted>
3.2392

> <Gold.Chemscore.Internal.Correction.Weighted>
   9.000000E+99

> <Gold.Protein.RotatedTorsions>
[ 6907 6896 6895 6894 ] final   -9.02 input  -60.11 | X-H torsion
[ 7974 7965 7964 7962 ] final  -22.54 input  175.53 | X-H torsion
[ 8008 7997 7996 7995 ] final  138.76 input   59.86 | X-H torsion
[ 10167 10162 10161 10158 ] final  -96.54 input  -65.29 | X-H torsion
[ 10718 10713 10712 10709 ] final  -92.49 input   66.30 | X-H torsion
[ 10763 10752 10751 10750 ] final  -96.43 input  -60.55 | X-H torsion
[ 11005 11000 10999 10996 ] final -143.94 input  -57.11 | X-H torsion

> <Gold.Protein.ActiveResidues>
 VAL166  LYS551  ARG553  GLY616  TRP617  ASP618  TYR619  PRO620  LYS621  CYS622 
 ASP623  PHE694  ASN695  SER759  ASP760  ASP761  ALA762  ILE779  LEU786  VAL792 
 PHE793  MET794  SER795  GLU796  ALA797  LYS798  CYS799  TRP800  GLU811  SER814 

> <Gold.Protein.RotatedAtoms>
  151.4244  135.1002  159.9623 H   0  0  0  0  0  0  0  0  0  0  0  0  # atno 6907 bound_to 6896
  152.4977  133.8676  159.7292 H   0  0  0  0  0  0  0  0  0  0  0  0  # atno 6908 bound_to 6896
  150.9200  133.6835  159.2862 H   0  0  0  0  0  0  0  0  0  0  0  0  # atno 6909 bound_to 6896
  146.1669  140.4493  142.8548 H   0  0  0  0  0  0  0  0  0  0  0  0  # atno 7974 bound_to 7965
  156.2995  140.2385  156.4127 H   0  0  0  0  0  0  0  0  0  0  0  0  # atno 8008 bound_to 7997
  154.8427  140.0427  157.1572 H   0  0  0  0  0  0  0  0  0  0  0  0  # atno 8009 bound_to 7997
  154.9085  140.2987  155.5282 H   0  0  0  0  0  0  0  0  0  0  0  0  # atno 8010 bound_to 7997
  140.2928  143.3211  152.0329 H   0  0  0  0  0  0  0  0  0  0  0  0  # atno 10167 bound_to 10162
  156.0003  130.4989  150.5633 H   0  0  0  0  0  0  0  0  0  0  0  0  # atno 10718 bound_to 10713
  154.7239  135.5084  153.8855 H   0  0  0  0  0  0  0  0  0  0  0  0  # atno 10763 bound_to 10752
  153.0887  135.6653  153.9907 H   0  0  0  0  0  0  0  0  0  0  0  0  # atno 10764 bound_to 10752
  153.9723  135.3037  155.3406 H   0  0  0  0  0  0  0  0  0  0  0  0  # atno 10765 bound_to 10752
  140.8074  134.2785  157.4954 H   0  0  0  0  0  0  0  0  0  0  0  0  # atno 11005 bound_to 11000
  144.8106  140.6379  143.6418 LP  0  0  0  0  0  0  0  0  0  0  0  0  # atno 17320 bound_to 7965
  145.4442  139.1531  143.3953 LP  0  0  0  0  0  0  0  0  0  0  0  0  # atno 17321 bound_to 7965
  139.4934  144.6513  151.6670 LP  0  0  0  0  0  0  0  0  0  0  0  0  # atno 17342 bound_to 10162
  140.5718  144.0096  150.6220 LP  0  0  0  0  0  0  0  0  0  0  0  0  # atno 17343 bound_to 10162
  157.3539  131.0738  151.1691 LP  0  0  0  0  0  0  0  0  0  0  0  0  # atno 17370 bound_to 10713
  157.2498  130.6608  149.5926 LP  0  0  0  0  0  0  0  0  0  0  0  0  # atno 17371 bound_to 10713
  139.8716  134.9464  156.3937 LP  0  0  0  0  0  0  0  0  0  0  0  0  # atno 17394 bound_to 11000
  140.9233  133.7630  155.9933 LP  0  0  0  0  0  0  0  0  0  0  0  0  # atno 17395 bound_to 11000

$$$$
