AV-unprocessed.smi:1072|AV-procd|sdf|4685|dock5
  -GOLD-   22720 3203D 1   1.00000     0.00000
 Structure written by MMmdl.
 46 47  0  0  0  0  0  0  0  0  1 V2000
  153.5636  142.2530  162.0764 C   0  0  0  0  0  0  0  0  0  0  0  0
  152.9171  142.1409  160.7126 C   0  0  0  0  0  0  0  0  0  0  0  0
  151.9657  143.1170  160.4657 N   0  0  0  0  0  0  0  0  0  0  0  0
  151.3161  143.0936  159.2440 C   0  0  0  0  0  0  0  0  0  0  0  0
  150.2863  144.1941  159.0551 C   0  0  0  0  0  0  0  0  0  0  0  0
  151.6049  142.1495  158.3126 C   0  0  0  0  0  0  0  0  0  0  0  0
  150.9129  142.0940  156.9511 C   0  0  0  0  0  0  0  0  0  0  0  0
  149.8195  141.0333  156.8021 C   0  0  0  0  0  0  0  0  0  0  0  0
  149.7769  140.0775  157.5761 O   0  0  0  0  0  0  0  0  0  0  0  0
  148.9497  141.2236  155.7943 N   0  0  0  0  0  0  0  0  0  0  0  0
  147.8133  140.3815  155.3924 C   0  0  1  0  0  0  0  0  0  0  0  0
  148.1438  138.8961  155.6547 C   0  0  0  0  0  0  0  0  0  0  0  0
  146.5109  140.7842  156.1342 C   0  0  0  0  0  0  0  0  0  0  0  0
  146.0449  142.2107  155.7920 C   0  0  0  0  0  0  0  0  0  0  0  0
  145.8407  142.3875  154.2766 C   0  0  1  0  0  0  0  0  0  0  0  0
  145.3835  143.8120  153.9334 C   0  0  0  0  0  0  0  0  0  0  0  0
  147.1229  142.0052  153.5152 C   0  0  0  0  0  0  0  0  0  0  0  0
  147.5940  140.5826  153.8733 C   0  0  0  0  0  0  0  0  0  0  0  0
  152.6406  141.1378  158.6301 C   0  0  0  0  0  0  0  0  0  0  0  0
  152.9592  140.2668  157.8219 O   0  0  0  0  0  0  0  0  0  0  0  0
  153.2628  141.1996  159.8877 N   0  0  0  0  0  0  0  0  0  0  0  0
  151.7230  143.8392  161.1286 H   0  0  0  0  0  0  0  0  0  0  0  0
  154.1725  141.3741  162.2921 H   0  0  0  0  0  0  0  0  0  0  0  0
  152.8048  142.3391  162.8549 H   0  0  0  0  0  0  0  0  0  0  0  0
  154.2064  143.1326  162.1185 H   0  0  0  0  0  0  0  0  0  0  0  0
  149.2954  143.7667  158.9016 H   0  0  0  0  0  0  0  0  0  0  0  0
  150.5370  144.8070  158.1888 H   0  0  0  0  0  0  0  0  0  0  0  0
  150.2358  144.8504  159.9248 H   0  0  0  0  0  0  0  0  0  0  0  0
  151.6743  141.9175  156.1905 H   0  0  0  0  0  0  0  0  0  0  0  0
  150.4851  143.0634  156.6939 H   0  0  0  0  0  0  0  0  0  0  0  0
  149.0897  142.0516  155.2337 H   0  0  0  0  0  0  0  0  0  0  0  0
  147.3531  138.2445  155.2813 H   0  0  0  0  0  0  0  0  0  0  0  0
  148.2549  138.6816  156.7176 H   0  0  0  0  0  0  0  0  0  0  0  0
  149.0702  138.6022  155.1600 H   0  0  0  0  0  0  0  0  0  0  0  0
  145.7161  140.0870  155.8652 H   0  0  0  0  0  0  0  0  0  0  0  0
  146.6264  140.6868  157.2135 H   0  0  0  0  0  0  0  0  0  0  0  0
  145.1134  142.4228  156.3177 H   0  0  0  0  0  0  0  0  0  0  0  0
  146.7727  142.9361  156.1579 H   0  0  0  0  0  0  0  0  0  0  0  0
  145.0492  141.7052  153.9630 H   0  0  0  0  0  0  0  0  0  0  0  0
  146.1295  144.5505  154.2288 H   0  0  0  0  0  0  0  0  0  0  0  0
  144.4514  144.0583  154.4430 H   0  0  0  0  0  0  0  0  0  0  0  0
  145.2115  143.9215  152.8624 H   0  0  0  0  0  0  0  0  0  0  0  0
  146.9472  142.0677  152.4408 H   0  0  0  0  0  0  0  0  0  0  0  0
  147.9132  142.7240  153.7355 H   0  0  0  0  0  0  0  0  0  0  0  0
  148.5105  140.3546  153.3269 H   0  0  0  0  0  0  0  0  0  0  0  0
  146.8487  139.8707  153.5153 H   0  0  0  0  0  0  0  0  0  0  0  0
  1 23  1  0  0  0  0
  1 24  1  0  0  0  0
  1 25  1  0  0  0  0
  1  2  1  0  0  0  0
  2  3  1  0  0  0  0
  2 21  2  0  0  0  0
  3  4  1  0  0  0  0
  3 22  1  0  0  0  0
  4  6  2  0  0  0  0
  4  5  1  0  0  0  0
  5 26  1  0  0  0  0
  5 27  1  0  0  0  0
  5 28  1  0  0  0  0
  6 19  1  0  0  0  0
  6  7  1  0  0  0  0
  7  8  1  0  0  0  0
  7 29  1  0  0  0  0
  7 30  1  0  0  0  0
  8  9  2  0  0  0  0
  8 10  1  0  0  0  0
 10 11  1  0  0  0  0
 10 31  1  0  0  0  0
 11 18  1  0  0  0  0
 11 12  1  0  0  0  0
 11 13  1  0  0  0  0
 12 32  1  0  0  0  0
 12 33  1  0  0  0  0
 12 34  1  0  0  0  0
 13 14  1  0  0  0  0
 13 35  1  0  0  0  0
 13 36  1  0  0  0  0
 14 15  1  0  0  0  0
 14 37  1  0  0  0  0
 14 38  1  0  0  0  0
 15 16  1  0  0  0  0
 15 17  1  0  0  0  0
 15 39  1  0  0  0  0
 16 40  1  0  0  0  0
 16 41  1  0  0  0  0
 16 42  1  0  0  0  0
 17 18  1  0  0  0  0
 17 43  1  0  0  0  0
 17 44  1  0  0  0  0
 18 45  1  0  0  0  0
 18 46  1  0  0  0  0
 19 20  2  0  0  0  0
 19 21  1  0  0  0  0
M  END
> <s_m_source_file>
AV-unprocessed.smi

> <i_m_source_file_index>
1072

> <i_lp_mmshare_version>
43012

> <i_f3d_flags>
0

> <s_epik_input>
W0NIM11jMW5jKFtDSDNdKWMoYyg9TylbbkhdMSlbQ0gyXUMoPU8pW05IXVtDQEBdMihbQ0gzXSlbQ0gyXVtDSDJdW0NAQEhdKFtDSDNdKVtDSDJdW0NIMl0y

> <s_epik_cmdline>
J2VwaWtfcHl0aG9uJywgJy1waCcsICc3LjAnLCAnLXRuJywgJzgnLCAnLW1hJywgJzIwMCcsICctbWV0YWxfYmluZGluZycsICctaW1hZScsICc8aW5maWxlLm1hZT4nLCAnLW9tYWUnLCAnPG91dGZpbGUubWFlPic=

> <r_lp_tautomer_probability>
0.156392

> <r_epik_Ionization_Penalty>
0.0131066

> <r_epik_Ionization_Penalty_Charging>
0.0129643

> <r_epik_Ionization_Penalty_Neutral>
0.000142248

> <r_epik_State_Penalty>
1.15342

> <r_epik_Charging_Adjusted_Penalty>
1.16638

> <i_epik_Tot_Q>
0

> <i_epik_Tot_abs_Q>
0

> <r_epik_Metal_State_Penalty>
1.30766

> <b_epik_Metal_Only>
0

> <s_lp_Force_Field>
OPLS_2005

> <r_lp_Energy>
14.6826

> <b_lp_Chiralities_Consistent>
1

> <s_lp_Variant>
AV-unprocessed.smi:1072-3

> <Gold.Version>
5.8.1

> <Gold.Id.Protein>
6NUR|6NUR_protein|mol2

> <Gold.PLP.Fitness>
36.2701

> <Gold.PLP.PLP>
-35.4181

> <Gold.PLP.part.hbond>
-1.0000

> <Gold.PLP.part.metal>
0.0000

> <Gold.PLP.part.buried>
-7.5494

> <Gold.PLP.part.nonpolar>
-26.5846

> <Gold.PLP.part.repulsive>
0.1452

> <Gold.PLP.ligand.clash>
0.0000

> <Gold.PLP.ligand.torsion>
1.0647

> <Gold.PLP.Chemscore.Hbond>
0.9920

> <Gold.PLP.Chemscore.CHOScore>
0.0000

> <Gold.PLP.Chemscore.Metal>
0.0000

> <Gold.Chemscore.Hbonds>
donor molecule, donor type, donor heavy atom, donor atom, acceptor molecule, acceptor atom, score
      P1  H  7997  8009       L1    20  0.94

> <Gold.PLP.Chemscore.Internal.Correction>
0.0054

> <Gold.Rescore>
     Score         DG    S(hbond)    S(metal)    S(lipo)     H(rot)  DE(clash)    DE(int)     intcor
     11.27     -13.96       0.93        0.00      78.07       1.47       0.11       2.58       ----

> <Gold.Chemscore.Fitness>
11.2682

> <Gold.Chemscore.DG>
-13.9559

> <Gold.Chemscore.ZeroCoef>
-5.4800

> <Gold.Chemscore.Hbond>
0.9290

> <Gold.Chemscore.Metal>
0.0000

> <Gold.Chemscore.Lipo>
78.0656

> <Gold.Chemscore.Internal_Hbond>
0.0000

> <Gold.Chemscore.DEClash>
0.1072

> <Gold.Chemscore.DEInternal>
2.5805

> <Gold.Chemscore.Rot>
1.4690

> <Gold.Chemscore.Internal.Correction>
   9.000000E+99

> <Gold.Chemscore.Hbonds>
donor molecule, donor type, donor heavy atom, donor atom, acceptor molecule, acceptor atom, score
      P1  H  7997  8009       L1    20  0.91

> <Gold.Chemscore.Hbond.Weighted>
-3.1029

> <Gold.Chemscore.Metal.Weighted>
-0.0000

> <Gold.Chemscore.Lipo.Weighted>
-9.1337

> <Gold.Chemscore.Internal_Hbond.Weighted>
0.0000

> <Gold.Chemscore.DEClash.Weighted>
0.1072

> <Gold.Chemscore.DEInternal.Weighted>
2.5805

> <Gold.Chemscore.Rot.Weighted>
3.7607

> <Gold.Chemscore.Internal.Correction.Weighted>
   9.000000E+99

> <Gold.Protein.RotatedTorsions>
[ 6907 6896 6895 6894 ] final -161.41 input  -60.11 | X-H torsion
[ 7974 7965 7964 7962 ] final  -48.92 input  175.53 | X-H torsion
[ 8008 7997 7996 7995 ] final  165.16 input   59.86 | X-H torsion
[ 10167 10162 10161 10158 ] final  127.82 input  -65.29 | X-H torsion
[ 10718 10713 10712 10709 ] final -169.64 input   66.30 | X-H torsion
[ 10763 10752 10751 10750 ] final  -51.60 input  -60.55 | X-H torsion
[ 11005 11000 10999 10996 ] final  -42.20 input  -57.11 | X-H torsion

> <Gold.Protein.ActiveResidues>
 VAL166  LYS551  ARG553  GLY616  TRP617  ASP618  TYR619  PRO620  LYS621  CYS622 
 ASP623  PHE694  ASN695  SER759  ASP760  ASP761  ALA762  ILE779  LEU786  VAL792 
 PHE793  MET794  SER795  GLU796  ALA797  LYS798  CYS799  TRP800  GLU811  SER814 

> <Gold.Protein.RotatedAtoms>
  151.3642  133.3878  159.2692 H   0  0  0  0  0  0  0  0  0  0  0  0  # atno 6907 bound_to 6896
  150.9702  134.9077  159.7794 H   0  0  0  0  0  0  0  0  0  0  0  0  # atno 6908 bound_to 6896
  152.5181  134.3603  159.9335 H   0  0  0  0  0  0  0  0  0  0  0  0  # atno 6909 bound_to 6896
  145.9460  140.7617  142.9528 H   0  0  0  0  0  0  0  0  0  0  0  0  # atno 7974 bound_to 7965
  156.1822  140.1677  156.8252 H   0  0  0  0  0  0  0  0  0  0  0  0  # atno 8008 bound_to 7997
  154.5373  140.0744  156.8483 H   0  0  0  0  0  0  0  0  0  0  0  0  # atno 8009 bound_to 7997
  155.3285  140.3377  155.4242 H   0  0  0  0  0  0  0  0  0  0  0  0  # atno 8010 bound_to 7997
  139.5558  144.6847  151.4186 H   0  0  0  0  0  0  0  0  0  0  0  0  # atno 10167 bound_to 10162
  156.7144  130.9246  151.3092 H   0  0  0  0  0  0  0  0  0  0  0  0  # atno 10718 bound_to 10713
  154.1292  135.6522  153.4918 H   0  0  0  0  0  0  0  0  0  0  0  0  # atno 10763 bound_to 10752
  153.0200  135.5289  154.7018 H   0  0  0  0  0  0  0  0  0  0  0  0  # atno 10764 bound_to 10752
  154.6248  135.2969  155.0255 H   0  0  0  0  0  0  0  0  0  0  0  0  # atno 10765 bound_to 10752
  141.0299  133.6824  156.2562 H   0  0  0  0  0  0  0  0  0  0  0  0  # atno 11005 bound_to 11000
  144.6787  140.2357  143.7350 LP  0  0  0  0  0  0  0  0  0  0  0  0  # atno 17320 bound_to 7965
  145.8235  139.2054  143.1924 LP  0  0  0  0  0  0  0  0  0  0  0  0  # atno 17321 bound_to 7965
  140.6831  143.8037  150.7148 LP  0  0  0  0  0  0  0  0  0  0  0  0  # atno 17342 bound_to 10162
  140.1496  143.4369  152.2140 LP  0  0  0  0  0  0  0  0  0  0  0  0  # atno 17343 bound_to 10162
  157.6923  130.9246  150.0547 LP  0  0  0  0  0  0  0  0  0  0  0  0  # atno 17370 bound_to 10713
  156.1638  130.3644  149.9261 LP  0  0  0  0  0  0  0  0  0  0  0  0  # atno 17371 bound_to 10713
  140.6425  134.5151  157.5571 LP  0  0  0  0  0  0  0  0  0  0  0  0  # atno 17394 bound_to 11000
  139.9201  134.8166  156.1239 LP  0  0  0  0  0  0  0  0  0  0  0  0  # atno 17395 bound_to 11000

$$$$
