AV-unprocessed.smi:3287|AV-procd|sdf|12590|dock1
  -GOLD-   2272018513D 1   1.00000     0.00000
 Structure written by MMmdl.
 43 44  0  0  0  0  0  0  0  0  2 V2000
  153.7181  142.1206  160.9949 C   0  0  0  0  0  0  0  0  0  0  0  0
  152.4700  142.1308  160.0943 C   0  0  2  0  0  0  0  0  0  0  0  0
  152.6457  141.1156  158.9469 C   0  0  0  0  0  0  0  0  0  0  0  0
  151.4235  141.0777  158.0196 C   0  0  0  0  0  0  0  0  0  0  0  0
  151.1265  142.4679  157.4373 C   0  0  1  0  0  0  0  0  0  0  0  0
  149.9391  142.3977  156.5574 N   0  3  0  0  0  0  0  0  0  0  0  0
  149.9623  141.3161  155.5490 C   0  0  0  0  0  0  0  0  0  0  0  0
  148.7284  141.3754  154.6315 C   0  0  2  0  0  0  0  0  0  0  0  0
  148.6161  142.6812  154.0993 O   0  0  0  0  0  0  0  0  0  0  0  0
  147.4703  140.9611  155.3783 C   0  0  0  0  0  0  0  0  0  0  0  0
  146.2342  140.8736  154.7044 C   0  0  0  0  0  0  0  0  0  0  0  0
  145.0952  140.4776  155.4341 C   0  0  0  0  0  0  0  0  0  0  0  0
  145.1259  140.1743  156.7494 N   0  0  0  0  0  0  0  0  0  0  0  0
  146.3114  140.2576  157.3897 C   0  0  0  0  0  0  0  0  0  0  0  0
  147.5084  140.6428  156.7533 C   0  0  0  0  0  0  0  0  0  0  0  0
  150.9273  143.4823  158.5810 C   0  0  0  0  0  0  0  0  0  0  0  0
  152.1419  143.5394  159.5319 C   0  0  1  0  0  0  0  0  0  0  0  0
  151.8911  144.5815  160.6369 C   0  0  0  0  0  0  0  0  0  0  0  0
  154.5897  142.5103  160.4684 H   0  0  0  0  0  0  0  0  0  0  0  0
  153.9556  141.1080  161.3225 H   0  0  0  0  0  0  0  0  0  0  0  0
  153.5740  142.7171  161.8952 H   0  0  0  0  0  0  0  0  0  0  0  0
  151.6246  141.8019  160.7009 H   0  0  0  0  0  0  0  0  0  0  0  0
  153.5339  141.3670  158.3652 H   0  0  0  0  0  0  0  0  0  0  0  0
  152.8189  140.1189  159.3546 H   0  0  0  0  0  0  0  0  0  0  0  0
  151.6000  140.3642  157.2137 H   0  0  0  0  0  0  0  0  0  0  0  0
  150.5580  140.7111  158.5737 H   0  0  0  0  0  0  0  0  0  0  0  0
  151.9829  142.7710  156.8325 H   0  0  0  0  0  0  0  0  0  0  0  0
  149.1336  142.2319  157.1441 H   0  0  0  0  0  0  0  0  0  0  0  0
  150.8645  141.4105  154.9445 H   0  0  0  0  0  0  0  0  0  0  0  0
  150.0131  140.3482  156.0504 H   0  0  0  0  0  0  0  0  0  0  0  0
  148.8712  140.6937  153.7916 H   0  0  0  0  0  0  0  0  0  0  0  0
  148.8106  143.3022  154.7854 H   0  0  0  0  0  0  0  0  0  0  0  0
  146.1539  141.1036  153.6520 H   0  0  0  0  0  0  0  0  0  0  0  0
  144.1340  140.4010  154.9478 H   0  0  0  0  0  0  0  0  0  0  0  0
  146.3071  140.0079  158.4404 H   0  0  0  0  0  0  0  0  0  0  0  0
  148.4316  140.6900  157.3125 H   0  0  0  0  0  0  0  0  0  0  0  0
  150.7515  144.4773  158.1719 H   0  0  0  0  0  0  0  0  0  0  0  0
  150.0328  143.2222  159.1490 H   0  0  0  0  0  0  0  0  0  0  0  0
  153.0003  143.8799  158.9504 H   0  0  0  0  0  0  0  0  0  0  0  0
  151.0916  144.2647  161.3075 H   0  0  0  0  0  0  0  0  0  0  0  0
  151.6035  145.5429  160.2107 H   0  0  0  0  0  0  0  0  0  0  0  0
  152.7830  144.7580  161.2373 H   0  0  0  0  0  0  0  0  0  0  0  0
  149.8181  143.2871  156.0947 H   0  0  0  0  0  0  0  0  0  0  0  0
  1  2  1  0  0  0  0
  1 19  1  0  0  0  0
  1 20  1  0  0  0  0
  1 21  1  0  0  0  0
  2 17  1  0  0  0  0
  2  3  1  0  0  0  0
  2 22  1  0  0  0  0
  3  4  1  0  0  0  0
  3 23  1  0  0  0  0
  3 24  1  0  0  0  0
  4  5  1  0  0  0  0
  4 25  1  0  0  0  0
  4 26  1  0  0  0  0
  5  6  1  0  0  0  0
  5 16  1  0  0  0  0
  5 27  1  0  0  0  0
  6  7  1  0  0  0  0
  6 28  1  0  0  0  0
  6 43  1  0  0  0  0
  7  8  1  0  0  0  0
  7 29  1  0  0  0  0
  7 30  1  0  0  0  0
  8  9  1  0  0  0  0
  8 10  1  0  0  0  0
  8 31  1  0  0  0  0
  9 32  1  0  0  0  0
 10 15  1  0  0  0  0
 10 11  2  0  0  0  0
 11 12  1  0  0  0  0
 11 33  1  0  0  0  0
 12 13  2  0  0  0  0
 12 34  1  0  0  0  0
 13 14  1  0  0  0  0
 14 15  2  0  0  0  0
 14 35  1  0  0  0  0
 15 36  1  0  0  0  0
 16 17  1  0  0  0  0
 16 37  1  0  0  0  0
 16 38  1  0  0  0  0
 17 18  1  0  0  0  0
 17 39  1  0  0  0  0
 18 40  1  0  0  0  0
 18 41  1  0  0  0  0
 18 42  1  0  0  0  0
M  CHG  1   6   1
M  END
> <s_m_source_file>
AV-unprocessed.smi

> <i_m_source_file_index>
3287

> <i_lp_mmshare_version>
43012

> <i_f3d_flags>
0

> <s_epik_input>
W0NIM11bQ0BASF0xW0NIMl1bQ0gyXVtDQEhdKFtDSDJdW0NASF0xW0NIM10pW05IXVtDSDJdW0NASF0oW09IXSljMltjSF1bY0hdbltjSF1bY0hdMg==

> <s_epik_cmdline>
J2VwaWtfcHl0aG9uJywgJy1waCcsICc3LjAnLCAnLXRuJywgJzgnLCAnLW1hJywgJzIwMCcsICctbWV0YWxfYmluZGluZycsICctaW1hZScsICc8aW5maWxlLm1hZT4nLCAnLW9tYWUnLCAnPG91dGZpbGUubWFlPic=

> <r_lp_tautomer_probability>
1

> <r_epik_Ionization_Penalty>
0.00537262

> <r_epik_Ionization_Penalty_Charging>
0.00321624

> <r_epik_Ionization_Penalty_Neutral>
0.00215638

> <r_epik_State_Penalty>
-0

> <r_epik_Charging_Adjusted_Penalty>
0.00321624

> <i_epik_Tot_Q>
1

> <i_epik_Tot_abs_Q>
1

> <r_epik_Metal_State_Penalty>
-0

> <b_epik_Metal_Only>
0

> <s_lp_Force_Field>
OPLS_2005

> <r_lp_Energy>
16.0387

> <b_lp_Chiralities_Consistent>
1

> <s_lp_Variant>
AV-unprocessed.smi:3287-1

> <Gold.Version>
5.8.1

> <Gold.Id.Protein>
6NUR|6NUR_protein|mol2

> <Gold.PLP.Fitness>
47.7340

> <Gold.PLP.PLP>
-35.9293

> <Gold.PLP.part.hbond>
-3.8777

> <Gold.PLP.part.metal>
0.0000

> <Gold.PLP.part.buried>
-3.6695

> <Gold.PLP.part.nonpolar>
-28.7651

> <Gold.PLP.part.repulsive>
0.0787

> <Gold.PLP.ligand.clash>
0.0000

> <Gold.PLP.ligand.torsion>
0.1047

> <Gold.PLP.Chemscore.Hbond>
3.0374

> <Gold.PLP.Chemscore.CHOScore>
0.9603

> <Gold.PLP.Chemscore.Metal>
0.0000

> <Gold.Chemscore.Hbonds>
donor molecule, donor type, donor heavy atom, donor atom, acceptor molecule, acceptor atom, score
      L1  H     6    43       P1  8028  2.00
      L1  H     9    32       P1  8028  1.00
      P1  H  8011  8017       L1     9  0.04
      L1  C    12    34       P1 10175  0.96

> <Gold.PLP.Chemscore.Internal.Correction>
0.0209

> <Gold.Rescore>
     Score         DG    S(hbond)    S(metal)    S(lipo)     H(rot)  DE(clash)    DE(int)     intcor
     19.38     -19.52       1.97        0.00     105.37       1.90       0.02       0.12       ----

> <Gold.Chemscore.Fitness>
19.3820

> <Gold.Chemscore.DG>
-19.5208

> <Gold.Chemscore.ZeroCoef>
-5.4800

> <Gold.Chemscore.Hbond>
1.9716

> <Gold.Chemscore.Metal>
0.0000

> <Gold.Chemscore.Lipo>
105.3730

> <Gold.Chemscore.Internal_Hbond>
0.0000

> <Gold.Chemscore.DEClash>
0.0174

> <Gold.Chemscore.DEInternal>
0.1214

> <Gold.Chemscore.Rot>
1.9035

> <Gold.Chemscore.Internal.Correction>
   9.000000E+99

> <Gold.Chemscore.Hbonds>
donor molecule, donor type, donor heavy atom, donor atom, acceptor molecule, acceptor atom, score
      L1  H     6    43       P1  8028  0.98
      L1  H     9    32       P1  8028  0.99
      P1  H  8011  8017       L1     9  0.02

> <Gold.Chemscore.Hbond.Weighted>
-6.5850

> <Gold.Chemscore.Metal.Weighted>
-0.0000

> <Gold.Chemscore.Lipo.Weighted>
-12.3286

> <Gold.Chemscore.Internal_Hbond.Weighted>
0.0000

> <Gold.Chemscore.DEClash.Weighted>
0.0174

> <Gold.Chemscore.DEInternal.Weighted>
0.1214

> <Gold.Chemscore.Rot.Weighted>
4.8729

> <Gold.Chemscore.Internal.Correction.Weighted>
   9.000000E+99

> <Gold.Protein.RotatedTorsions>
[ 6907 6896 6895 6894 ] final -172.64 input  -60.11 | X-H torsion
[ 7974 7965 7964 7962 ] final  -12.73 input  175.53 | X-H torsion
[ 8008 7997 7996 7995 ] final -178.54 input   59.86 | X-H torsion
[ 10167 10162 10161 10158 ] final  -47.35 input  -65.29 | X-H torsion
[ 10718 10713 10712 10709 ] final  148.81 input   66.30 | X-H torsion
[ 10763 10752 10751 10750 ] final -100.87 input  -60.55 | X-H torsion
[ 11005 11000 10999 10996 ] final   48.70 input  -57.11 | X-H torsion

> <Gold.Protein.ActiveResidues>
 VAL166  LYS551  ARG553  GLY616  TRP617  ASP618  TYR619  PRO620  LYS621  CYS622 
 ASP623  PHE694  ASN695  SER759  ASP760  ASP761  ALA762  ILE779  LEU786  VAL792 
 PHE793  MET794  SER795  GLU796  ALA797  LYS798  CYS799  TRP800  GLU811  SER814 

> <Gold.Protein.RotatedAtoms>
  151.5432  133.3429  159.2939 H   0  0  0  0  0  0  0  0  0  0  0  0  # atno 6907 bound_to 6896
  150.8523  134.7854  159.7029 H   0  0  0  0  0  0  0  0  0  0  0  0  # atno 6908 bound_to 6896
  152.4566  134.5286  159.9856 H   0  0  0  0  0  0  0  0  0  0  0  0  # atno 6909 bound_to 6896
  146.2141  140.3101  142.8382 H   0  0  0  0  0  0  0  0  0  0  0  0  # atno 7974 bound_to 7965
  156.0200  140.1259  157.0367 H   0  0  0  0  0  0  0  0  0  0  0  0  # atno 8008 bound_to 7997
  154.4308  140.1070  156.6020 H   0  0  0  0  0  0  0  0  0  0  0  0  # atno 8009 bound_to 7997
  155.5959  140.3470  155.4582 H   0  0  0  0  0  0  0  0  0  0  0  0  # atno 8010 bound_to 7997
  140.6778  143.2788  151.3914 H   0  0  0  0  0  0  0  0  0  0  0  0  # atno 10167 bound_to 10162
  157.3039  131.0876  151.1369 H   0  0  0  0  0  0  0  0  0  0  0  0  # atno 10718 bound_to 10713
  154.7614  135.4919  153.9471 H   0  0  0  0  0  0  0  0  0  0  0  0  # atno 10763 bound_to 10752
  153.1255  135.6741  153.9271 H   0  0  0  0  0  0  0  0  0  0  0  0  # atno 10764 bound_to 10752
  153.8990  135.3112  155.3427 H   0  0  0  0  0  0  0  0  0  0  0  0  # atno 10765 bound_to 10752
  140.1168  134.4882  155.8631 H   0  0  0  0  0  0  0  0  0  0  0  0  # atno 11005 bound_to 11000
  144.8995  140.7624  143.5876 LP  0  0  0  0  0  0  0  0  0  0  0  0  # atno 17320 bound_to 7965
  145.3026  139.1845  143.4681 LP  0  0  0  0  0  0  0  0  0  0  0  0  # atno 17321 bound_to 7965
  139.6082  144.1154  152.2271 LP  0  0  0  0  0  0  0  0  0  0  0  0  # atno 17342 bound_to 10162
  140.0559  144.5895  150.7300 LP  0  0  0  0  0  0  0  0  0  0  0  0  # atno 17343 bound_to 10162
  157.2717  130.6707  149.6022 LP  0  0  0  0  0  0  0  0  0  0  0  0  # atno 17370 bound_to 10713
  155.9673  130.4477  150.5590 LP  0  0  0  0  0  0  0  0  0  0  0  0  # atno 17371 bound_to 10713
  141.2143  133.6746  156.6811 LP  0  0  0  0  0  0  0  0  0  0  0  0  # atno 17394 bound_to 11000
  140.3018  134.8158  157.4104 LP  0  0  0  0  0  0  0  0  0  0  0  0  # atno 17395 bound_to 11000

$$$$
