AV-unprocessed.smi:1834|AV-procd|sdf|7472|dock2
  -GOLD-   22720 9163D 1   1.00000     0.00000
 Structure written by MMmdl.
 46 47  0  0  0  0  0  0  0  0  2 V2000
  151.0296  139.1231  156.0488 C   0  0  0  0  0  0  0  0  0  0  0  0
  151.0101  139.1665  154.5136 C   0  0  0  0  0  0  0  0  0  0  0  0
  149.7348  139.7009  153.9718 N   0  3  2  0  0  0  0  0  0  0  0  0
  149.3303  140.9631  154.6412 C   0  0  0  0  0  0  0  0  0  0  0  0
  148.0884  141.5682  153.9707 C   0  0  0  0  0  0  0  0  0  0  0  0
  146.9290  140.5653  153.9647 C   0  0  0  0  0  0  0  0  0  0  0  0
  147.3549  139.2470  153.2940 C   0  0  2  0  0  0  0  0  0  0  0  0
  146.1860  138.2369  153.3028 C   0  0  0  0  0  0  0  0  0  0  0  0
  146.5290  136.9641  152.6731 N   0  0  0  0  0  0  0  0  0  0  0  0
  145.7574  135.8669  152.6663 C   0  0  0  0  0  0  0  0  0  0  0  0
  144.6610  135.8079  153.2234 O   0  0  0  0  0  0  0  0  0  0  0  0
  146.3447  134.8638  151.9911 N   0  0  0  0  0  0  0  0  0  0  0  0
  145.9014  133.5921  151.8048 C   0  0  0  0  0  0  0  0  0  0  0  0
  146.6007  132.4179  151.8733 C   0  0  0  0  0  0  0  0  0  0  0  0
  145.6032  131.4416  151.5853 C   0  0  0  0  0  0  0  0  0  0  0  0
  145.7624  129.9518  151.5127 C   0  0  0  0  0  0  0  0  0  0  0  0
  144.4092  131.9793  151.3624 N   0  0  0  0  0  0  0  0  0  0  0  0
  144.5891  133.3109  151.4968 N   0  0  0  0  0  0  0  0  0  0  0  0
  143.4700  134.2155  151.3191 C   0  0  0  0  0  0  0  0  0  0  0  0
  148.6328  138.7014  153.9745 C   0  0  0  0  0  0  0  0  0  0  0  0
  151.9350  138.6312  156.4048 H   0  0  0  0  0  0  0  0  0  0  0  0
  150.1774  138.5656  156.4386 H   0  0  0  0  0  0  0  0  0  0  0  0
  151.0125  140.1194  156.4899 H   0  0  0  0  0  0  0  0  0  0  0  0
  151.8518  139.7474  154.1338 H   0  0  0  0  0  0  0  0  0  0  0  0
  151.1524  138.1465  154.1537 H   0  0  0  0  0  0  0  0  0  0  0  0
  149.1340  140.7710  155.6974 H   0  0  0  0  0  0  0  0  0  0  0  0
  150.1468  141.6851  154.5960 H   0  0  0  0  0  0  0  0  0  0  0  0
  147.7901  142.4783  154.4919 H   0  0  0  0  0  0  0  0  0  0  0  0
  148.3276  141.8615  152.9476 H   0  0  0  0  0  0  0  0  0  0  0  0
  146.6057  140.3742  154.9890 H   0  0  0  0  0  0  0  0  0  0  0  0
  146.0731  140.9959  153.4438 H   0  0  0  0  0  0  0  0  0  0  0  0
  147.5961  139.4667  152.2525 H   0  0  0  0  0  0  0  0  0  0  0  0
  145.8242  138.0808  154.3208 H   0  0  0  0  0  0  0  0  0  0  0  0
  145.3441  138.6505  152.7469 H   0  0  0  0  0  0  0  0  0  0  0  0
  147.4141  136.9230  152.1888 H   0  0  0  0  0  0  0  0  0  0  0  0
  147.2428  135.0693  151.5787 H   0  0  0  0  0  0  0  0  0  0  0  0
  147.6461  132.2599  152.0908 H   0  0  0  0  0  0  0  0  0  0  0  0
  146.7889  129.6543  151.7281 H   0  0  0  0  0  0  0  0  0  0  0  0
  145.5105  129.5779  150.5200 H   0  0  0  0  0  0  0  0  0  0  0  0
  145.1147  129.4517  152.2331 H   0  0  0  0  0  0  0  0  0  0  0  0
  143.7450  135.0093  150.6234 H   0  0  0  0  0  0  0  0  0  0  0  0
  143.2032  134.6584  152.2790 H   0  0  0  0  0  0  0  0  0  0  0  0
  142.6050  133.6826  150.9215 H   0  0  0  0  0  0  0  0  0  0  0  0
  148.9661  137.8094  153.4480 H   0  0  0  0  0  0  0  0  0  0  0  0
  148.4149  138.4002  155.0006 H   0  0  0  0  0  0  0  0  0  0  0  0
  149.9130  139.9401  153.0069 H   0  0  0  0  0  0  0  0  0  0  0  0
  1  2  1  0  0  0  0
  1 21  1  0  0  0  0
  1 22  1  0  0  0  0
  1 23  1  0  0  0  0
  2  3  1  0  0  0  0
  2 24  1  0  0  0  0
  2 25  1  0  0  0  0
  3 20  1  0  0  0  0
  3  4  1  0  0  0  0
  3 46  1  0  0  0  0
  4  5  1  0  0  0  0
  4 26  1  0  0  0  0
  4 27  1  0  0  0  0
  5  6  1  0  0  0  0
  5 28  1  0  0  0  0
  5 29  1  0  0  0  0
  6  7  1  0  0  0  0
  6 30  1  0  0  0  0
  6 31  1  0  0  0  0
  7  8  1  0  0  0  0
  7 20  1  0  0  0  0
  7 32  1  0  0  0  0
  8  9  1  0  0  0  0
  8 33  1  0  0  0  0
  8 34  1  0  0  0  0
  9 10  1  0  0  0  0
  9 35  1  0  0  0  0
 10 11  2  0  0  0  0
 10 12  1  0  0  0  0
 12 13  1  0  0  0  0
 12 36  1  0  0  0  0
 13 18  1  0  0  0  0
 13 14  2  0  0  0  0
 14 15  1  0  0  0  0
 14 37  1  0  0  0  0
 15 16  1  0  0  0  0
 15 17  2  0  0  0  0
 16 38  1  0  0  0  0
 16 39  1  0  0  0  0
 16 40  1  0  0  0  0
 17 18  1  0  0  0  0
 18 19  1  0  0  0  0
 19 41  1  0  0  0  0
 19 42  1  0  0  0  0
 19 43  1  0  0  0  0
 20 44  1  0  0  0  0
 20 45  1  0  0  0  0
M  CHG  1   3   1
M  END
> <s_m_source_file>
AV-unprocessed.smi

> <i_m_source_file_index>
1834

> <i_lp_mmshare_version>
43012

> <i_f3d_flags>
0

> <s_epik_input>
W0NIM11bQ0gyXU4xW0NIMl1bQ0gyXVtDSDJdW0NASF0oW0NIMl0xKVtDSDJdW05IXUMoPU8pW05IXWMyW2NIXWMoW0NIM10pbm4yW0NIM10=

> <s_epik_cmdline>
J2VwaWtfcHl0aG9uJywgJy1waCcsICc3LjAnLCAnLXRuJywgJzgnLCAnLW1hJywgJzIwMCcsICctbWV0YWxfYmluZGluZycsICctaW1hZScsICc8aW5maWxlLm1hZT4nLCAnLW9tYWUnLCAnPG91dGZpbGUubWFlPic=

> <r_lp_tautomer_probability>
1

> <r_epik_Ionization_Penalty>
0.000466842

> <r_epik_Ionization_Penalty_Charging>
0.000378984

> <r_epik_Ionization_Penalty_Neutral>
8.78572e-05

> <r_epik_State_Penalty>
0.000231434

> <r_epik_Charging_Adjusted_Penalty>
0.000610418

> <i_epik_Tot_Q>
1

> <i_epik_Tot_abs_Q>
1

> <r_epik_Metal_State_Penalty>
-0

> <b_epik_Metal_Only>
0

> <s_lp_Force_Field>
OPLS_2005

> <r_lp_Energy>
19.5344

> <b_lp_Chiralities_Consistent>
1

> <s_lp_Variant>
AV-unprocessed.smi:1834-4

> <Gold.Version>
5.8.1

> <Gold.Id.Protein>
6NUR|6NUR_protein|mol2

> <Gold.PLP.Fitness>
42.1497

> <Gold.PLP.PLP>
-34.2672

> <Gold.PLP.part.hbond>
-3.0000

> <Gold.PLP.part.metal>
0.0000

> <Gold.PLP.part.buried>
-2.3077

> <Gold.PLP.part.nonpolar>
-28.8913

> <Gold.PLP.part.repulsive>
0.4074

> <Gold.PLP.ligand.clash>
0.0000

> <Gold.PLP.ligand.torsion>
0.4929

> <Gold.PLP.Chemscore.Hbond>
2.9440

> <Gold.PLP.Chemscore.CHOScore>
0.0000

> <Gold.PLP.Chemscore.Metal>
0.0000

> <Gold.Chemscore.Hbonds>
donor molecule, donor type, donor heavy atom, donor atom, acceptor molecule, acceptor atom, score
      L1  H     3    46       P1  7957  1.00
      L1  H     9    35       P1  7948  1.00
      L1  H    12    36       P1  7948  0.86

> <Gold.PLP.Chemscore.Internal.Correction>
0.0364

> <Gold.Rescore>
     Score         DG    S(hbond)    S(metal)    S(lipo)     H(rot)  DE(clash)    DE(int)     intcor
     20.11     -20.72       2.79        0.00      81.93       1.43       0.06       0.54       ----

> <Gold.Chemscore.Fitness>
20.1143

> <Gold.Chemscore.DG>
-20.7214

> <Gold.Chemscore.ZeroCoef>
-5.4800

> <Gold.Chemscore.Hbond>
2.7888

> <Gold.Chemscore.Metal>
0.0000

> <Gold.Chemscore.Lipo>
81.9255

> <Gold.Chemscore.Internal_Hbond>
0.0000

> <Gold.Chemscore.DEClash>
0.0649

> <Gold.Chemscore.DEInternal>
0.5421

> <Gold.Chemscore.Rot>
1.4291

> <Gold.Chemscore.Internal.Correction>
   9.000000E+99

> <Gold.Chemscore.Hbonds>
donor molecule, donor type, donor heavy atom, donor atom, acceptor molecule, acceptor atom, score
      L1  H     3    46       P1  7957  0.99
      L1  H     9    35       P1  7948  0.98
      L1  H    12    36       P1  7948  0.68

> <Gold.Chemscore.Hbond.Weighted>
-9.3145

> <Gold.Chemscore.Metal.Weighted>
-0.0000

> <Gold.Chemscore.Lipo.Weighted>
-9.5853

> <Gold.Chemscore.Internal_Hbond.Weighted>
0.0000

> <Gold.Chemscore.DEClash.Weighted>
0.0649

> <Gold.Chemscore.DEInternal.Weighted>
0.5421

> <Gold.Chemscore.Rot.Weighted>
3.6584

> <Gold.Chemscore.Internal.Correction.Weighted>
   9.000000E+99

> <Gold.Protein.RotatedTorsions>
[ 6907 6896 6895 6894 ] final  -80.21 input  -60.11 | X-H torsion
[ 7974 7965 7964 7962 ] final  -32.64 input  175.53 | X-H torsion
[ 8008 7997 7996 7995 ] final  -51.21 input   59.86 | X-H torsion
[ 10167 10162 10161 10158 ] final -112.39 input  -65.29 | X-H torsion
[ 10718 10713 10712 10709 ] final   56.59 input   66.30 | X-H torsion
[ 10763 10752 10751 10750 ] final  121.74 input  -60.55 | X-H torsion
[ 11005 11000 10999 10996 ] final  -43.55 input  -57.11 | X-H torsion

> <Gold.Protein.ActiveResidues>
 VAL166  LYS551  ARG553  GLY616  TRP617  ASP618  TYR619  PRO620  LYS621  CYS622 
 ASP623  PHE694  ASN695  SER759  ASP760  ASP761  ALA762  ILE779  LEU786  VAL792 
 PHE793  MET794  SER795  GLU796  ALA797  LYS798  CYS799  TRP800  GLU811  SER814 

> <Gold.Protein.RotatedAtoms>
  150.6934  134.4005  159.5116 H   0  0  0  0  0  0  0  0  0  0  0  0  # atno 6907 bound_to 6896
  152.1779  134.8776  160.0538 H   0  0  0  0  0  0  0  0  0  0  0  0  # atno 6908 bound_to 6896
  151.9778  133.3712  159.4132 H   0  0  0  0  0  0  0  0  0  0  0  0  # atno 6909 bound_to 6896
  146.0974  140.5818  142.8837 H   0  0  0  0  0  0  0  0  0  0  0  0  # atno 7974 bound_to 7965
  154.4078  140.1253  156.4791 H   0  0  0  0  0  0  0  0  0  0  0  0  # atno 8008 bound_to 7997
  155.7103  140.3494  155.4951 H   0  0  0  0  0  0  0  0  0  0  0  0  # atno 8009 bound_to 7997
  155.9306  140.1069  157.1125 H   0  0  0  0  0  0  0  0  0  0  0  0  # atno 8010 bound_to 7997
  140.1232  143.4425  152.1677 H   0  0  0  0  0  0  0  0  0  0  0  0  # atno 10167 bound_to 10162
  157.5444  130.8720  149.8869 H   0  0  0  0  0  0  0  0  0  0  0  0  # atno 10718 bound_to 10713
  153.6188  135.3417  155.3004 H   0  0  0  0  0  0  0  0  0  0  0  0  # atno 10763 bound_to 10752
  154.8604  135.4268  154.2230 H   0  0  0  0  0  0  0  0  0  0  0  0  # atno 10764 bound_to 10752
  153.3098  135.7031  153.7199 H   0  0  0  0  0  0  0  0  0  0  0  0  # atno 10765 bound_to 10752
  141.0391  133.6787  156.2749 H   0  0  0  0  0  0  0  0  0  0  0  0  # atno 11005 bound_to 11000
  144.7405  140.4930  143.6872 LP  0  0  0  0  0  0  0  0  0  0  0  0  # atno 17320 bound_to 7965
  145.5922  139.1496  143.3176 LP  0  0  0  0  0  0  0  0  0  0  0  0  # atno 17321 bound_to 7965
  139.5558  144.7371  151.4300 LP  0  0  0  0  0  0  0  0  0  0  0  0  # atno 17342 bound_to 10162
  140.6860  143.7973  150.7186 LP  0  0  0  0  0  0  0  0  0  0  0  0  # atno 17343 bound_to 10162
  156.0523  130.3715  150.1172 LP  0  0  0  0  0  0  0  0  0  0  0  0  # atno 17370 bound_to 10713
  156.9350  130.9726  151.3526 LP  0  0  0  0  0  0  0  0  0  0  0  0  # atno 17371 bound_to 10713
  140.6267  134.5306  157.5554 LP  0  0  0  0  0  0  0  0  0  0  0  0  # atno 17394 bound_to 11000
  139.9263  134.8050  156.1060 LP  0  0  0  0  0  0  0  0  0  0  0  0  # atno 17395 bound_to 11000

$$$$
