AV-unprocessed.smi:229|AV-procd|sdf|1752|dock9
  -GOLD-   2262020273D 1   1.00000     0.00000
 Structure written by MMmdl.
 58 62  0  0  0  0  0  0  0  0  1 V2000
  153.9034  141.5960  161.2129 C   0  0  0  0  0  0  0  0  0  0  0  0
  153.0591  140.7831  160.2200 C   0  0  0  0  0  0  0  0  0  0  0  0
  152.2673  141.6324  159.2101 C   0  0  1  0  0  0  0  0  0  0  0  0
  151.2145  140.8298  158.4229 C   0  0  0  0  0  0  0  0  0  0  0  0
  150.4569  141.7298  157.5625 N   0  0  0  0  0  0  0  0  0  0  0  0
  149.7056  141.1975  156.5676 C   0  0  0  0  0  0  0  0  0  0  0  0
  150.0230  141.4384  155.2675 N   0  0  0  0  0  0  0  0  0  0  0  0
  149.2919  140.9028  154.2852 C   0  0  0  0  0  0  0  0  0  0  0  0
  148.2197  140.1132  154.3777 N   0  0  0  0  0  0  0  0  0  0  0  0
  147.8899  139.8779  155.6796 C   0  0  0  0  0  0  0  0  0  0  0  0
  148.5725  140.3763  156.8248 C   0  0  0  0  0  0  0  0  0  0  0  0
  147.9411  139.9354  157.9823 N   0  0  0  0  0  0  0  0  0  0  0  0
  146.9475  139.2105  157.5464 C   0  0  0  0  0  0  0  0  0  0  0  0
  146.8450  139.1191  156.1772 N   0  0  0  0  0  0  0  0  0  0  0  0
  145.8393  138.3801  155.4346 C   0  0  0  0  0  0  0  0  0  0  0  0
  146.4559  137.2764  154.5538 C   0  0  2  0  0  0  0  0  0  0  0  0
  147.2393  137.8760  153.5395 O   0  0  0  0  0  0  0  0  0  0  0  0
  145.3833  136.3870  153.8994 C   0  0  1  0  0  0  0  0  0  0  0  0
  144.4145  137.1316  152.9797 C   0  0  0  0  0  0  0  0  0  0  0  0
  143.9241  136.0511  152.0293 C   0  0  0  0  0  0  0  0  0  0  0  0
  144.9488  134.9243  152.1860 C   0  0  0  0  0  0  0  0  0  0  0  0
  145.9805  135.4660  152.9992 O   0  0  0  0  0  0  0  0  0  0  0  0
  149.8211  142.8130  158.3021 C   0  0  0  0  0  0  0  0  0  0  0  0
  150.8698  143.6115  159.1025 C   0  0  1  0  0  0  0  0  0  0  0  0
  151.7374  144.5294  158.2465 C   0  0  0  0  0  0  0  0  0  0  0  0
  152.1837  145.5769  159.2546 C   0  0  0  0  0  0  0  0  0  0  0  0
  151.0271  145.7997  160.0466 O   0  0  0  0  0  0  0  0  0  0  0  0
  150.2257  144.6203  160.0676 C   0  0  0  0  0  0  0  0  0  0  0  0
  151.6481  142.7158  159.9071 O   0  0  0  0  0  0  0  0  0  0  0  0
  154.4860  140.9333  161.8529 H   0  0  0  0  0  0  0  0  0  0  0  0
  153.2815  142.2112  161.8626 H   0  0  0  0  0  0  0  0  0  0  0  0
  154.6031  142.2525  160.6951 H   0  0  0  0  0  0  0  0  0  0  0  0
  153.7183  140.1102  159.6708 H   0  0  0  0  0  0  0  0  0  0  0  0
  152.3712  140.1435  160.7737 H   0  0  0  0  0  0  0  0  0  0  0  0
  152.9900  142.0346  158.5009 H   0  0  0  0  0  0  0  0  0  0  0  0
  151.7075  140.0608  157.8265 H   0  0  0  0  0  0  0  0  0  0  0  0
  150.5233  140.3268  159.1000 H   0  0  0  0  0  0  0  0  0  0  0  0
  149.6126  141.1399  153.2815 H   0  0  0  0  0  0  0  0  0  0  0  0
  146.2581  138.7172  158.2161 H   0  0  0  0  0  0  0  0  0  0  0  0
  145.1439  137.9457  156.1536 H   0  0  0  0  0  0  0  0  0  0  0  0
  145.2618  139.0783  154.8273 H   0  0  0  0  0  0  0  0  0  0  0  0
  147.1140  136.6550  155.1626 H   0  0  0  0  0  0  0  0  0  0  0  0
  147.6055  137.1919  153.0001 H   0  0  0  0  0  0  0  0  0  0  0  0
  144.8273  135.8320  154.6579 H   0  0  0  0  0  0  0  0  0  0  0  0
  143.6040  137.6160  153.5249 H   0  0  0  0  0  0  0  0  0  0  0  0
  144.9456  137.8993  152.4154 H   0  0  0  0  0  0  0  0  0  0  0  0
  142.9291  135.7016  152.3065 H   0  0  0  0  0  0  0  0  0  0  0  0
  143.8777  136.4209  151.0047 H   0  0  0  0  0  0  0  0  0  0  0  0
  144.5020  134.0685  152.6938 H   0  0  0  0  0  0  0  0  0  0  0  0
  145.3451  134.5832  151.2294 H   0  0  0  0  0  0  0  0  0  0  0  0
  149.2644  143.4810  157.6454 H   0  0  0  0  0  0  0  0  0  0  0  0
  149.0924  142.3754  158.9861 H   0  0  0  0  0  0  0  0  0  0  0  0
  152.5700  144.0401  157.7443 H   0  0  0  0  0  0  0  0  0  0  0  0
  151.1305  145.0079  157.4766 H   0  0  0  0  0  0  0  0  0  0  0  0
  152.9849  145.1883  159.8846 H   0  0  0  0  0  0  0  0  0  0  0  0
  152.5309  146.4967  158.7840 H   0  0  0  0  0  0  0  0  0  0  0  0
  149.2230  144.8972  159.7395 H   0  0  0  0  0  0  0  0  0  0  0  0
  150.1399  144.2246  161.0802 H   0  0  0  0  0  0  0  0  0  0  0  0
  1  2  1  0  0  0  0
  1 30  1  0  0  0  0
  1 31  1  0  0  0  0
  1 32  1  0  0  0  0
  2  3  1  0  0  0  0
  2 33  1  0  0  0  0
  2 34  1  0  0  0  0
  3 29  1  0  0  0  0
  3  4  1  0  0  0  0
  3 35  1  0  0  0  0
  4  5  1  0  0  0  0
  4 36  1  0  0  0  0
  4 37  1  0  0  0  0
  5  6  1  0  0  0  0
  5 23  1  0  0  0  0
  6 11  1  0  0  0  0
  6  7  2  0  0  0  0
  7  8  1  0  0  0  0
  8  9  2  0  0  0  0
  8 38  1  0  0  0  0
  9 10  1  0  0  0  0
 10 14  1  0  0  0  0
 10 11  2  0  0  0  0
 11 12  1  0  0  0  0
 12 13  2  0  0  0  0
 13 14  1  0  0  0  0
 13 39  1  0  0  0  0
 14 15  1  0  0  0  0
 15 16  1  0  0  0  0
 15 40  1  0  0  0  0
 15 41  1  0  0  0  0
 16 17  1  0  0  0  0
 16 18  1  0  0  0  0
 16 42  1  0  0  0  0
 17 43  1  0  0  0  0
 18 22  1  0  0  0  0
 18 19  1  0  0  0  0
 18 44  1  0  0  0  0
 19 20  1  0  0  0  0
 19 45  1  0  0  0  0
 19 46  1  0  0  0  0
 20 21  1  0  0  0  0
 20 47  1  0  0  0  0
 20 48  1  0  0  0  0
 21 22  1  0  0  0  0
 21 49  1  0  0  0  0
 21 50  1  0  0  0  0
 23 24  1  0  0  0  0
 23 51  1  0  0  0  0
 23 52  1  0  0  0  0
 24 28  1  0  0  0  0
 24 25  1  0  0  0  0
 24 29  1  0  0  0  0
 25 26  1  0  0  0  0
 25 53  1  0  0  0  0
 25 54  1  0  0  0  0
 26 27  1  0  0  0  0
 26 55  1  0  0  0  0
 26 56  1  0  0  0  0
 27 28  1  0  0  0  0
 28 57  1  0  0  0  0
 28 58  1  0  0  0  0
M  END
> <s_m_source_file>
AV-unprocessed.smi

> <i_m_source_file_index>
229

> <i_lp_mmshare_version>
43012

> <i_f3d_flags>
0

> <s_epik_input>
W0NIMl0xT1tDSDJdW0NIMl1bQ0BdMTJbQ0gyXU4oW0NIMl1bQ0BIXShPMilbQ0gyXVtDSDNdKWMobltjSF1uMyljKGMzNCluW2NIXW40W0NIMl1bQ0BIXShbT0hdKVtDQEBIXTVbQ0gyXVtDSDJdW0NIMl1PNQ==

> <s_epik_cmdline>
J2VwaWtfcHl0aG9uJywgJy1waCcsICc3LjAnLCAnLXRuJywgJzgnLCAnLW1hJywgJzIwMCcsICctbWV0YWxfYmluZGluZycsICctaW1hZScsICc8aW5maWxlLm1hZT4nLCAnLW9tYWUnLCAnPG91dGZpbGUubWFlPic=

> <r_lp_tautomer_probability>
1

> <r_epik_Ionization_Penalty>
0.00318402

> <r_epik_Ionization_Penalty_Charging>
0

> <r_epik_Ionization_Penalty_Neutral>
0.00318402

> <r_epik_State_Penalty>
0.00215642

> <r_epik_Charging_Adjusted_Penalty>
0.00215642

> <i_epik_Tot_Q>
0

> <i_epik_Tot_abs_Q>
0

> <r_epik_Metal_State_Penalty>
-0

> <b_epik_Metal_Only>
0

> <s_lp_Force_Field>
OPLS_2005

> <r_lp_Energy>
54.3536

> <b_lp_Chiralities_Consistent>
1

> <s_lp_Variant>
AV-unprocessed.smi:229-6

> <Gold.Version>
5.8.1

> <Gold.Id.Protein>
6NUR|6NUR_protein|mol2

> <Gold.PLP.Fitness>
46.6161

> <Gold.PLP.PLP>
-40.8417

> <Gold.PLP.part.hbond>
-4.0939

> <Gold.PLP.part.metal>
0.0000

> <Gold.PLP.part.buried>
-6.5376

> <Gold.PLP.part.nonpolar>
-30.1501

> <Gold.PLP.part.repulsive>
0.6164

> <Gold.PLP.ligand.clash>
0.0000

> <Gold.PLP.ligand.torsion>
0.2952

> <Gold.PLP.Chemscore.Hbond>
1.0000

> <Gold.PLP.Chemscore.CHOScore>
1.0000

> <Gold.PLP.Chemscore.Metal>
0.0000

> <Gold.Chemscore.Hbonds>
donor molecule, donor type, donor heavy atom, donor atom, acceptor molecule, acceptor atom, score
      L1  H    17    43       P1  7948  1.00
      L1  C     8    38       P1  7957  1.00

> <Gold.PLP.Chemscore.Internal.Correction>
0.3649

> <Gold.Rescore>
     Score         DG    S(hbond)    S(metal)    S(lipo)     H(rot)  DE(clash)    DE(int)     intcor
     13.46     -13.93       0.98        0.00      97.96       2.46       0.10       0.37       ----

> <Gold.Chemscore.Fitness>
13.4554

> <Gold.Chemscore.DG>
-13.9340

> <Gold.Chemscore.ZeroCoef>
-5.4800

> <Gold.Chemscore.Hbond>
0.9846

> <Gold.Chemscore.Metal>
0.0000

> <Gold.Chemscore.Lipo>
97.9556

> <Gold.Chemscore.Internal_Hbond>
0.0000

> <Gold.Chemscore.DEClash>
0.1041

> <Gold.Chemscore.DEInternal>
0.3745

> <Gold.Chemscore.Rot>
2.4591

> <Gold.Chemscore.Internal.Correction>
   9.000000E+99

> <Gold.Chemscore.Hbonds>
donor molecule, donor type, donor heavy atom, donor atom, acceptor molecule, acceptor atom, score
      L1  H    17    43       P1  7948  0.95

> <Gold.Chemscore.Hbond.Weighted>
-3.2885

> <Gold.Chemscore.Metal.Weighted>
-0.0000

> <Gold.Chemscore.Lipo.Weighted>
-11.4608

> <Gold.Chemscore.Internal_Hbond.Weighted>
0.0000

> <Gold.Chemscore.DEClash.Weighted>
0.1041

> <Gold.Chemscore.DEInternal.Weighted>
0.3745

> <Gold.Chemscore.Rot.Weighted>
6.2953

> <Gold.Chemscore.Internal.Correction.Weighted>
   9.000000E+99

> <Gold.Protein.RotatedTorsions>
[ 6907 6896 6895 6894 ] final   83.89 input  -60.11 | X-H torsion
[ 7974 7965 7964 7962 ] final  -60.47 input  175.53 | X-H torsion
[ 8008 7997 7996 7995 ] final  -37.09 input   59.86 | X-H torsion
[ 10167 10162 10161 10158 ] final   96.84 input  -65.29 | X-H torsion
[ 10718 10713 10712 10709 ] final  -22.51 input   66.30 | X-H torsion
[ 10763 10752 10751 10750 ] final -176.94 input  -60.55 | X-H torsion
[ 11005 11000 10999 10996 ] final   93.89 input  -57.11 | X-H torsion

> <Gold.Protein.ActiveResidues>
 VAL166  LYS551  ARG553  GLY616  TRP617  ASP618  TYR619  PRO620  LYS621  CYS622 
 ASP623  PHE694  ASN695  SER759  ASP760  ASP761  ALA762  ILE779  LEU786  VAL792 
 PHE793  MET794  SER795  GLU796  ALA797  LYS798  CYS799  TRP800  GLU811  SER814 

> <Gold.Protein.RotatedAtoms>
  152.5339  134.2826  159.9012 H   0  0  0  0  0  0  0  0  0  0  0  0  # atno 6907 bound_to 6896
  151.2779  133.4217  159.2633 H   0  0  0  0  0  0  0  0  0  0  0  0  # atno 6908 bound_to 6896
  151.0309  134.9554  159.8167 H   0  0  0  0  0  0  0  0  0  0  0  0  # atno 6909 bound_to 6896
  145.8151  140.8575  143.0161 H   0  0  0  0  0  0  0  0  0  0  0  0  # atno 7974 bound_to 7965
  154.4060  140.1613  156.2481 H   0  0  0  0  0  0  0  0  0  0  0  0  # atno 8008 bound_to 7997
  155.9143  140.3425  155.6100 H   0  0  0  0  0  0  0  0  0  0  0  0  # atno 8009 bound_to 7997
  155.7298  140.0779  157.2284 H   0  0  0  0  0  0  0  0  0  0  0  0  # atno 8010 bound_to 7997
  139.7856  144.6872  150.9962 H   0  0  0  0  0  0  0  0  0  0  0  0  # atno 10167 bound_to 10162
  156.5035  130.4593  149.6687 H   0  0  0  0  0  0  0  0  0  0  0  0  # atno 10718 bound_to 10713
  154.5662  135.2824  155.0871 H   0  0  0  0  0  0  0  0  0  0  0  0  # atno 10763 bound_to 10752
  154.2261  135.6382  153.5164 H   0  0  0  0  0  0  0  0  0  0  0  0  # atno 10764 bound_to 10752
  153.0044  135.5526  154.6272 H   0  0  0  0  0  0  0  0  0  0  0  0  # atno 10765 bound_to 10752
  139.8804  134.8815  156.3784 H   0  0  0  0  0  0  0  0  0  0  0  0  # atno 11005 bound_to 11000
  144.6753  140.0452  143.7480 LP  0  0  0  0  0  0  0  0  0  0  0  0  # atno 17320 bound_to 7965
  145.9735  139.2887  143.1084 LP  0  0  0  0  0  0  0  0  0  0  0  0  # atno 17321 bound_to 7965
  140.7819  143.4435  151.0516 LP  0  0  0  0  0  0  0  0  0  0  0  0  # atno 17342 bound_to 10162
  139.8114  143.7946  152.3171 LP  0  0  0  0  0  0  0  0  0  0  0  0  # atno 17343 bound_to 10162
  156.3309  130.7331  151.2260 LP  0  0  0  0  0  0  0  0  0  0  0  0  # atno 17370 bound_to 10713
  157.7460  131.0430  150.4722 LP  0  0  0  0  0  0  0  0  0  0  0  0  # atno 17371 bound_to 10713
  140.9416  133.7511  156.0153 LP  0  0  0  0  0  0  0  0  0  0  0  0  # atno 17394 bound_to 11000
  140.8213  134.3286  157.5380 LP  0  0  0  0  0  0  0  0  0  0  0  0  # atno 17395 bound_to 11000

$$$$
