AV-unprocessed.smi:1685|AV-procd|sdf|6757|dock4
  -GOLD-   22720 7513D 1   1.00000     0.00000
 Structure written by MMmdl.
 40 41  0  0  0  0  0  0  0  0  1 V2000
  146.3491  133.1449  162.2505 C   0  0  0  0  0  0  0  0  0  0  0  0
  147.6958  133.8686  162.1452 C   0  0  0  0  0  0  0  0  0  0  0  0
  147.5440  135.3540  162.0509 C   0  0  0  0  0  0  0  0  0  0  0  0
  147.4147  136.1754  163.0849 N   0  0  0  0  0  0  0  0  0  0  0  0
  147.2838  137.4218  162.5023 N   0  0  0  0  0  0  0  0  0  0  0  0
  147.3232  137.3438  161.2036 N   0  0  0  0  0  0  0  0  0  0  0  0
  147.4856  136.0326  160.8958 N   0  0  0  0  0  0  0  0  0  0  0  0
  147.5688  135.5969  159.5108 C   0  0  0  0  0  0  0  0  0  0  0  0
  148.7968  136.1847  158.8129 C   0  0  0  0  0  0  0  0  0  0  0  0
  149.6941  135.4402  158.4194 O   0  0  0  0  0  0  0  0  0  0  0  0
  148.8217  137.5183  158.6631 N   0  0  0  0  0  0  0  0  0  0  0  0
  149.9024  138.2815  158.0486 C   0  0  0  0  0  0  0  0  0  0  0  0
  151.2281  137.9727  158.7772 C   0  0  0  0  0  0  0  0  0  0  0  0
  152.3587  138.8997  158.2976 C   0  0  0  0  0  0  0  0  0  0  0  0
  151.9381  140.2929  158.4900 N   0  0  0  0  0  0  0  0  0  0  0  0
  152.4277  141.1372  159.4296 C   0  0  0  0  0  0  0  0  0  0  0  0
  151.8339  142.5422  159.5555 C   0  0  0  0  0  0  0  0  0  0  0  0
  153.3421  140.8254  160.1927 O   0  0  0  0  0  0  0  0  0  0  0  0
  150.7950  140.6331  157.6352 C   0  0  0  0  0  0  0  0  0  0  0  0
  149.5808  139.7937  158.0724 C   0  0  0  0  0  0  0  0  0  0  0  0
  146.4920  132.0668  162.3233 H   0  0  0  0  0  0  0  0  0  0  0  0
  145.7284  133.3406  161.3757 H   0  0  0  0  0  0  0  0  0  0  0  0
  145.7961  133.4684  163.1330 H   0  0  0  0  0  0  0  0  0  0  0  0
  148.3059  133.6375  163.0190 H   0  0  0  0  0  0  0  0  0  0  0  0
  148.2502  133.5025  161.2810 H   0  0  0  0  0  0  0  0  0  0  0  0
  147.6044  134.5073  159.4843 H   0  0  0  0  0  0  0  0  0  0  0  0
  146.6650  135.8994  158.9797 H   0  0  0  0  0  0  0  0  0  0  0  0
  148.0369  138.0470  159.0164 H   0  0  0  0  0  0  0  0  0  0  0  0
  150.0182  137.9701  157.0087 H   0  0  0  0  0  0  0  0  0  0  0  0
  151.0982  138.0974  159.8536 H   0  0  0  0  0  0  0  0  0  0  0  0
  151.5081  136.9306  158.6187 H   0  0  0  0  0  0  0  0  0  0  0  0
  153.2873  138.6489  158.8084 H   0  0  0  0  0  0  0  0  0  0  0  0
  152.5557  138.7278  157.2385 H   0  0  0  0  0  0  0  0  0  0  0  0
  151.9288  143.0887  158.6166 H   0  0  0  0  0  0  0  0  0  0  0  0
  152.3551  143.1122  160.3255 H   0  0  0  0  0  0  0  0  0  0  0  0
  150.7808  142.4927  159.8331 H   0  0  0  0  0  0  0  0  0  0  0  0
  150.5437  141.6941  157.6678 H   0  0  0  0  0  0  0  0  0  0  0  0
  151.0435  140.4198  156.5947 H   0  0  0  0  0  0  0  0  0  0  0  0
  148.7299  140.0083  157.4249 H   0  0  0  0  0  0  0  0  0  0  0  0
  149.2856  140.0931  159.0793 H   0  0  0  0  0  0  0  0  0  0  0  0
  1  2  1  0  0  0  0
  1 21  1  0  0  0  0
  1 22  1  0  0  0  0
  1 23  1  0  0  0  0
  2  3  1  0  0  0  0
  2 24  1  0  0  0  0
  2 25  1  0  0  0  0
  3  7  1  0  0  0  0
  3  4  2  0  0  0  0
  4  5  1  0  0  0  0
  5  6  2  0  0  0  0
  6  7  1  0  0  0  0
  7  8  1  0  0  0  0
  8  9  1  0  0  0  0
  8 26  1  0  0  0  0
  8 27  1  0  0  0  0
  9 10  2  0  0  0  0
  9 11  1  0  0  0  0
 11 12  1  0  0  0  0
 11 28  1  0  0  0  0
 12 20  1  0  0  0  0
 12 13  1  0  0  0  0
 12 29  1  0  0  0  0
 13 14  1  0  0  0  0
 13 30  1  0  0  0  0
 13 31  1  0  0  0  0
 14 15  1  0  0  0  0
 14 32  1  0  0  0  0
 14 33  1  0  0  0  0
 15 16  1  0  0  0  0
 15 19  1  0  0  0  0
 16 17  1  0  0  0  0
 16 18  2  0  0  0  0
 17 34  1  0  0  0  0
 17 35  1  0  0  0  0
 17 36  1  0  0  0  0
 19 20  1  0  0  0  0
 19 37  1  0  0  0  0
 19 38  1  0  0  0  0
 20 39  1  0  0  0  0
 20 40  1  0  0  0  0
M  END
> <s_m_source_file>
AV-unprocessed.smi

> <i_m_source_file_index>
1685

> <i_lp_mmshare_version>
43012

> <i_f3d_flags>
0

> <s_epik_input>
W0NIM11bQ0gyXWMxbm5ubjFbQ0gyXUMoPU8pW05IXVtDSF0yW0NIMl1bQ0gyXU4oQyg9TylbQ0gzXSlbQ0gyXVtDSDJdMg==

> <s_epik_cmdline>
J2VwaWtfcHl0aG9uJywgJy1waCcsICc3LjAnLCAnLXRuJywgJzgnLCAnLW1hJywgJzIwMCcsICctbWV0YWxfYmluZGluZycsICctaW1hZScsICc8aW5maWxlLm1hZT4nLCAnLW9tYWUnLCAnPG91dGZpbGUubWFlPic=

> <r_lp_tautomer_probability>
1

> <r_epik_Ionization_Penalty>
1.8486e-06

> <r_epik_Ionization_Penalty_Charging>
0

> <r_epik_Ionization_Penalty_Neutral>
1.8486e-06

> <r_epik_State_Penalty>
-0

> <r_epik_Charging_Adjusted_Penalty>
0

> <i_epik_Tot_Q>
0

> <i_epik_Tot_abs_Q>
0

> <r_epik_Metal_State_Penalty>
-0

> <b_epik_Metal_Only>
0

> <s_lp_Force_Field>
OPLS_2005

> <r_lp_Energy>
22.135

> <b_lp_Chiralities_Consistent>
1

> <s_lp_Variant>
AV-unprocessed.smi:1685-1

> <Gold.Version>
5.8.1

> <Gold.Id.Protein>
6NUR|6NUR_protein|mol2

> <Gold.PLP.Fitness>
40.5773

> <Gold.PLP.PLP>
-35.6282

> <Gold.PLP.part.hbond>
-4.9671

> <Gold.PLP.part.metal>
0.0000

> <Gold.PLP.part.buried>
-4.7742

> <Gold.PLP.part.nonpolar>
-26.0728

> <Gold.PLP.part.repulsive>
0.1974

> <Gold.PLP.ligand.clash>
0.0000

> <Gold.PLP.ligand.torsion>
0.4053

> <Gold.PLP.Chemscore.Hbond>
1.9120

> <Gold.PLP.Chemscore.CHOScore>
0.0000

> <Gold.PLP.Chemscore.Metal>
0.0000

> <Gold.Chemscore.Hbonds>
donor molecule, donor type, donor heavy atom, donor atom, acceptor molecule, acceptor atom, score
      P1  H  6896  6907       L1    10  1.00
      P1  H  6934  6947       L1     6  0.75

> <Gold.PLP.Chemscore.Internal.Correction>
0.0237

> <Gold.Rescore>
     Score         DG    S(hbond)    S(metal)    S(lipo)     H(rot)  DE(clash)    DE(int)     intcor
     11.48     -12.05       1.73        0.00      47.04       1.85       0.03       0.53       ----

> <Gold.Chemscore.Fitness>
11.4842

> <Gold.Chemscore.DG>
-12.0478

> <Gold.Chemscore.ZeroCoef>
-5.4800

> <Gold.Chemscore.Hbond>
1.7347

> <Gold.Chemscore.Metal>
0.0000

> <Gold.Chemscore.Lipo>
47.0403

> <Gold.Chemscore.Internal_Hbond>
0.0000

> <Gold.Chemscore.DEClash>
0.0310

> <Gold.Chemscore.DEInternal>
0.5326

> <Gold.Chemscore.Rot>
1.8476

> <Gold.Chemscore.Internal.Correction>
   9.000000E+99

> <Gold.Chemscore.Hbonds>
donor molecule, donor type, donor heavy atom, donor atom, acceptor molecule, acceptor atom, score
      P1  H  6896  6907       L1    10  0.97
      P1  H  6934  6947       L1     6  0.09

> <Gold.Chemscore.Hbond.Weighted>
-5.7938

> <Gold.Chemscore.Metal.Weighted>
-0.0000

> <Gold.Chemscore.Lipo.Weighted>
-5.5037

> <Gold.Chemscore.Internal_Hbond.Weighted>
0.0000

> <Gold.Chemscore.DEClash.Weighted>
0.0310

> <Gold.Chemscore.DEInternal.Weighted>
0.5326

> <Gold.Chemscore.Rot.Weighted>
4.7298

> <Gold.Chemscore.Internal.Correction.Weighted>
   9.000000E+99

> <Gold.Protein.RotatedTorsions>
[ 6907 6896 6895 6894 ] final  -66.27 input  -60.11 | X-H torsion
[ 7974 7965 7964 7962 ] final  -57.15 input  175.53 | X-H torsion
[ 8008 7997 7996 7995 ] final   16.10 input   59.86 | X-H torsion
[ 10167 10162 10161 10158 ] final -120.10 input  -65.29 | X-H torsion
[ 10718 10713 10712 10709 ] final -179.14 input   66.30 | X-H torsion
[ 10763 10752 10751 10750 ] final -122.44 input  -60.55 | X-H torsion
[ 11005 11000 10999 10996 ] final  -34.69 input  -57.11 | X-H torsion

> <Gold.Protein.ActiveResidues>
 VAL166  LYS551  ARG553  GLY616  TRP617  ASP618  TYR619  PRO620  LYS621  CYS622 
 ASP623  PHE694  ASN695  SER759  ASP760  ASP761  ALA762  ILE779  LEU786  VAL792 
 PHE793  MET794  SER795  GLU796  ALA797  LYS798  CYS799  TRP800  GLU811  SER814 

> <Gold.Protein.RotatedAtoms>
  150.7475  134.6044  159.6053 H   0  0  0  0  0  0  0  0  0  0  0  0  # atno 6907 bound_to 6896
  152.3396  134.7149  160.0276 H   0  0  0  0  0  0  0  0  0  0  0  0  # atno 6908 bound_to 6896
  151.7606  133.3297  159.3453 H   0  0  0  0  0  0  0  0  0  0  0  0  # atno 6909 bound_to 6896
  145.8544  140.8330  142.9969 H   0  0  0  0  0  0  0  0  0  0  0  0  # atno 7974 bound_to 7965
  154.8721  140.2960  155.5475 H   0  0  0  0  0  0  0  0  0  0  0  0  # atno 8008 bound_to 7997
  156.3021  140.2458  156.3644 H   0  0  0  0  0  0  0  0  0  0  0  0  # atno 8009 bound_to 7997
  154.8806  140.0398  157.1769 H   0  0  0  0  0  0  0  0  0  0  0  0  # atno 8010 bound_to 7997
  140.0395  143.5168  152.2137 H   0  0  0  0  0  0  0  0  0  0  0  0  # atno 10167 bound_to 10162
  156.8547  130.9731  151.3089 H   0  0  0  0  0  0  0  0  0  0  0  0  # atno 10718 bound_to 10713
  154.8689  135.4133  154.2782 H   0  0  0  0  0  0  0  0  0  0  0  0  # atno 10763 bound_to 10752
  153.3679  135.7006  153.6666 H   0  0  0  0  0  0  0  0  0  0  0  0  # atno 10764 bound_to 10752
  153.5539  135.3623  155.2743 H   0  0  0  0  0  0  0  0  0  0  0  0  # atno 10765 bound_to 10752
  140.9736  133.7095  156.1565 H   0  0  0  0  0  0  0  0  0  0  0  0  # atno 11005 bound_to 11000
  144.6728  140.1001  143.7461 LP  0  0  0  0  0  0  0  0  0  0  0  0  # atno 17320 bound_to 7965
  145.9321  139.2613  143.1319 LP  0  0  0  0  0  0  0  0  0  0  0  0  # atno 17321 bound_to 7965
  139.6023  144.7586  151.3143 LP  0  0  0  0  0  0  0  0  0  0  0  0  # atno 17342 bound_to 10162
  140.7266  143.6985  150.7864 LP  0  0  0  0  0  0  0  0  0  0  0  0  # atno 17343 bound_to 10162
  157.6284  130.8710  149.9230 LP  0  0  0  0  0  0  0  0  0  0  0  0  # atno 17370 bound_to 10713
  156.0809  130.3673  150.0582 LP  0  0  0  0  0  0  0  0  0  0  0  0  # atno 17371 bound_to 10713
  140.7292  134.4273  157.5567 LP  0  0  0  0  0  0  0  0  0  0  0  0  # atno 17394 bound_to 11000
  139.8922  134.8761  156.2283 LP  0  0  0  0  0  0  0  0  0  0  0  0  # atno 17395 bound_to 11000

$$$$
