AV-unprocessed.smi:2855|AV-procd|sdf|10981|dock1
  -GOLD-   2272015433D 1   1.00000     0.00000
 Structure written by MMmdl.
 47 48  0  0  0  0  0  0  0  0  1 V2000
  153.1267  138.4241  159.5594 C   0  0  0  0  0  0  0  0  0  0  0  0
  153.0938  139.9161  159.1987 C   0  0  2  0  0  0  0  0  0  0  0  0
  152.9850  140.7974  160.4546 C   0  0  0  0  0  0  0  0  0  0  0  0
  152.9559  142.2910  160.0952 C   0  0  0  0  0  0  0  0  0  0  0  0
  151.8031  142.6282  159.1201 C   0  0  1  0  0  0  0  0  0  0  0  0
  151.6816  144.1513  158.8106 C   0  0  0  0  0  0  0  0  0  0  0  0
  152.8099  144.7050  157.9211 C   0  0  0  0  0  0  0  0  0  0  0  0
  151.5285  145.0002  160.0843 C   0  0  0  0  0  0  0  0  0  0  0  0
  151.9053  141.7312  157.8549 C   0  0  2  0  0  0  0  0  0  0  0  0
  150.7750  141.9642  156.9576 N   0  0  0  0  0  0  0  0  0  0  0  0
  150.5949  141.3981  155.7542 C   0  0  0  0  0  0  0  0  0  0  0  0
  151.3507  140.5482  155.2818 O   0  0  0  0  0  0  0  0  0  0  0  0
  149.3621  141.8617  154.9674 C   0  0  0  0  0  0  0  0  0  0  0  0
  148.4874  140.7434  154.5866 N   0  0  0  0  0  0  0  0  0  0  0  0
  148.8798  139.4330  154.8204 C   0  0  0  0  0  0  0  0  0  0  0  0
  148.1275  138.3584  154.4842 C   0  0  0  0  0  0  0  0  0  0  0  0
  146.8303  138.5368  153.8405 C   0  0  0  0  0  0  0  0  0  0  0  0
  146.0763  137.6278  153.5004 O   0  0  0  0  0  0  0  0  0  0  0  0
  146.4721  139.8694  153.6199 N   0  0  0  0  0  0  0  0  0  0  0  0
  147.2429  140.9814  153.9624 C   0  0  0  0  0  0  0  0  0  0  0  0
  146.8337  142.1162  153.7187 O   0  0  0  0  0  0  0  0  0  0  0  0
  151.9444  140.2364  158.2271 C   0  0  0  0  0  0  0  0  0  0  0  0
  145.5827  140.0423  153.1745 H   0  0  0  0  0  0  0  0  0  0  0  0
  152.2113  138.1181  160.0665 H   0  0  0  0  0  0  0  0  0  0  0  0
  153.9645  138.1985  160.2197 H   0  0  0  0  0  0  0  0  0  0  0  0
  153.2356  137.8071  158.6670 H   0  0  0  0  0  0  0  0  0  0  0  0
  154.0343  140.1543  158.6994 H   0  0  0  0  0  0  0  0  0  0  0  0
  152.0828  140.5397  161.0112 H   0  0  0  0  0  0  0  0  0  0  0  0
  153.8250  140.6005  161.1217 H   0  0  0  0  0  0  0  0  0  0  0  0
  152.8623  142.8663  161.0154 H   0  0  0  0  0  0  0  0  0  0  0  0
  153.9139  142.5675  159.6543 H   0  0  0  0  0  0  0  0  0  0  0  0
  150.8766  142.3459  159.6234 H   0  0  0  0  0  0  0  0  0  0  0  0
  150.7530  144.3013  158.2601 H   0  0  0  0  0  0  0  0  0  0  0  0
  153.7804  144.6453  158.4132 H   0  0  0  0  0  0  0  0  0  0  0  0
  152.6318  145.7536  157.6811 H   0  0  0  0  0  0  0  0  0  0  0  0
  152.8792  144.1708  156.9744 H   0  0  0  0  0  0  0  0  0  0  0  0
  152.4438  145.0176  160.6755 H   0  0  0  0  0  0  0  0  0  0  0  0
  150.7258  144.6220  160.7180 H   0  0  0  0  0  0  0  0  0  0  0  0
  151.2859  146.0334  159.8344 H   0  0  0  0  0  0  0  0  0  0  0  0
  152.8427  141.9605  157.3462 H   0  0  0  0  0  0  0  0  0  0  0  0
  150.0925  142.6433  157.2615 H   0  0  0  0  0  0  0  0  0  0  0  0
  148.8198  142.5818  155.5815 H   0  0  0  0  0  0  0  0  0  0  0  0
  149.6668  142.4134  154.0753 H   0  0  0  0  0  0  0  0  0  0  0  0
  149.8357  139.2519  155.2910 H   0  0  0  0  0  0  0  0  0  0  0  0
  148.4881  137.3613  154.6916 H   0  0  0  0  0  0  0  0  0  0  0  0
  152.0536  139.6373  157.3218 H   0  0  0  0  0  0  0  0  0  0  0  0
  150.9941  139.9434  158.6766 H   0  0  0  0  0  0  0  0  0  0  0  0
  1  2  1  0  0  0  0
  1 24  1  0  0  0  0
  1 25  1  0  0  0  0
  1 26  1  0  0  0  0
  2 22  1  0  0  0  0
  2  3  1  0  0  0  0
  2 27  1  0  0  0  0
  3  4  1  0  0  0  0
  3 28  1  0  0  0  0
  3 29  1  0  0  0  0
  4  5  1  0  0  0  0
  4 30  1  0  0  0  0
  4 31  1  0  0  0  0
  5  6  1  0  0  0  0
  5  9  1  0  0  0  0
  5 32  1  0  0  0  0
  6  7  1  0  0  0  0
  6  8  1  0  0  0  0
  6 33  1  0  0  0  0
  7 34  1  0  0  0  0
  7 35  1  0  0  0  0
  7 36  1  0  0  0  0
  8 37  1  0  0  0  0
  8 38  1  0  0  0  0
  8 39  1  0  0  0  0
  9 10  1  0  0  0  0
  9 22  1  0  0  0  0
  9 40  1  0  0  0  0
 10 11  1  0  0  0  0
 10 41  1  0  0  0  0
 11 12  2  0  0  0  0
 11 13  1  0  0  0  0
 13 14  1  0  0  0  0
 13 42  1  0  0  0  0
 13 43  1  0  0  0  0
 14 20  1  0  0  0  0
 14 15  1  0  0  0  0
 15 16  2  0  0  0  0
 15 44  1  0  0  0  0
 16 17  1  0  0  0  0
 16 45  1  0  0  0  0
 17 18  2  0  0  0  0
 17 19  1  0  0  0  0
 19 23  1  0  0  0  0
 19 20  1  0  0  0  0
 20 21  2  0  0  0  0
 22 46  1  0  0  0  0
 22 47  1  0  0  0  0
M  END
> <s_m_source_file>
AV-unprocessed.smi

> <i_m_source_file_index>
2855

> <i_lp_mmshare_version>
43012

> <i_f3d_flags>
0

> <s_epik_input>
W0NIM11bQ0BASF0xW0NIMl1bQ0gyXVtDQEBIXShbQ0hdKFtDSDNdKVtDSDNdKVtDQEhdKFtDSDJdMSlbTkhdQyg9TylbQ0gyXW4yW2NIXVtjSF1jKD1PKVtuSF1jMj1P

> <s_epik_cmdline>
J2VwaWtfcHl0aG9uJywgJy1waCcsICc3LjAnLCAnLXRuJywgJzgnLCAnLW1hJywgJzIwMCcsICctbWV0YWxfYmluZGluZycsICctaW1hZScsICc8aW5maWxlLm1hZT4nLCAnLW9tYWUnLCAnPG91dGZpbGUubWFlPic=

> <r_lp_tautomer_probability>
0.999537

> <r_epik_Ionization_Penalty>
0.00306256

> <r_epik_Ionization_Penalty_Charging>
0.00306254

> <r_epik_Ionization_Penalty_Neutral>
2.0223e-08

> <r_epik_State_Penalty>
0.0021533

> <r_epik_Charging_Adjusted_Penalty>
0.00521583

> <i_epik_Tot_Q>
0

> <i_epik_Tot_abs_Q>
0

> <r_epik_Metal_State_Penalty>
0.362116

> <b_epik_Metal_Only>
0

> <s_lp_Force_Field>
OPLS_2005

> <r_lp_Energy>
14.402

> <b_lp_Chiralities_Consistent>
1

> <s_lp_Variant>
AV-unprocessed.smi:2855-5

> <Gold.Version>
5.8.1

> <Gold.Id.Protein>
6NUR|6NUR_protein|mol2

> <Gold.PLP.Fitness>
47.2020

> <Gold.PLP.PLP>
-41.7104

> <Gold.PLP.part.hbond>
-1.9744

> <Gold.PLP.part.metal>
0.0000

> <Gold.PLP.part.buried>
-4.4931

> <Gold.PLP.part.nonpolar>
-35.6297

> <Gold.PLP.part.repulsive>
0.4220

> <Gold.PLP.ligand.clash>
0.0039

> <Gold.PLP.ligand.torsion>
0.1075

> <Gold.PLP.Chemscore.Hbond>
1.8800

> <Gold.PLP.Chemscore.CHOScore>
0.0000

> <Gold.PLP.Chemscore.Metal>
0.0000

> <Gold.Chemscore.Hbonds>
donor molecule, donor type, donor heavy atom, donor atom, acceptor molecule, acceptor atom, score
      L1  H    19    23       P1 10175  0.89
      P1  H  7989  7998       L1    12  0.86

> <Gold.PLP.Chemscore.Internal.Correction>
0.0705

> <Gold.Rescore>
     Score         DG    S(hbond)    S(metal)    S(lipo)     H(rot)  DE(clash)    DE(int)     intcor
     16.19     -19.58       1.85        0.00     108.13       1.85       0.79       2.60       ----

> <Gold.Chemscore.Fitness>
16.1929

> <Gold.Chemscore.DG>
-19.5808

> <Gold.Chemscore.ZeroCoef>
-5.4800

> <Gold.Chemscore.Hbond>
1.8550

> <Gold.Chemscore.Metal>
0.0000

> <Gold.Chemscore.Lipo>
108.1294

> <Gold.Chemscore.Internal_Hbond>
0.0000

> <Gold.Chemscore.DEClash>
0.7926

> <Gold.Chemscore.DEInternal>
2.5953

> <Gold.Chemscore.Rot>
1.8539

> <Gold.Chemscore.Internal.Correction>
   9.000000E+99

> <Gold.Chemscore.Hbonds>
donor molecule, donor type, donor heavy atom, donor atom, acceptor molecule, acceptor atom, score
      L1  H    19    23       P1 10175  0.87
      P1  H  7989  7998       L1    12  0.63

> <Gold.Chemscore.Hbond.Weighted>
-6.1957

> <Gold.Chemscore.Metal.Weighted>
-0.0000

> <Gold.Chemscore.Lipo.Weighted>
-12.6511

> <Gold.Chemscore.Internal_Hbond.Weighted>
0.0000

> <Gold.Chemscore.DEClash.Weighted>
0.7926

> <Gold.Chemscore.DEInternal.Weighted>
2.5953

> <Gold.Chemscore.Rot.Weighted>
4.7460

> <Gold.Chemscore.Internal.Correction.Weighted>
   9.000000E+99

> <Gold.Protein.RotatedTorsions>
[ 6907 6896 6895 6894 ] final -135.89 input  -60.11 | X-H torsion
[ 7974 7965 7964 7962 ] final  -35.83 input  175.53 | X-H torsion
[ 8008 7997 7996 7995 ] final   48.84 input   59.86 | X-H torsion
[ 10167 10162 10161 10158 ] final -118.06 input  -65.29 | X-H torsion
[ 10718 10713 10712 10709 ] final  173.11 input   66.30 | X-H torsion
[ 10763 10752 10751 10750 ] final -151.04 input  -60.55 | X-H torsion
[ 11005 11000 10999 10996 ] final   82.41 input  -57.11 | X-H torsion

> <Gold.Protein.ActiveResidues>
 VAL166  LYS551  ARG553  GLY616  TRP617  ASP618  TYR619  PRO620  LYS621  CYS622 
 ASP623  PHE694  ASN695  SER759  ASP760  ASP761  ALA762  ILE779  LEU786  VAL792 
 PHE793  MET794  SER795  GLU796  ALA797  LYS798  CYS799  TRP800  GLU811  SER814 

> <Gold.Protein.RotatedAtoms>
  151.0033  133.6035  159.2691 H   0  0  0  0  0  0  0  0  0  0  0  0  # atno 6907 bound_to 6896
  151.3213  135.0818  159.9316 H   0  0  0  0  0  0  0  0  0  0  0  0  # atno 6908 bound_to 6896
  152.5280  133.9680  159.7803 H   0  0  0  0  0  0  0  0  0  0  0  0  # atno 6909 bound_to 6896
  146.0713  140.6206  142.8951 H   0  0  0  0  0  0  0  0  0  0  0  0  # atno 7974 bound_to 7965
  155.3923  140.3434  155.4252 H   0  0  0  0  0  0  0  0  0  0  0  0  # atno 8008 bound_to 7997
  156.1550  140.1583  156.8740 H   0  0  0  0  0  0  0  0  0  0  0  0  # atno 8009 bound_to 7997
  154.5087  140.0795  156.7927 H   0  0  0  0  0  0  0  0  0  0  0  0  # atno 8010 bound_to 7997
  140.0616  143.4962  152.2028 H   0  0  0  0  0  0  0  0  0  0  0  0  # atno 10167 bound_to 10162
  156.9690  131.0084  151.2909 H   0  0  0  0  0  0  0  0  0  0  0  0  # atno 10718 bound_to 10713
  154.8082  135.3269  154.7375 H   0  0  0  0  0  0  0  0  0  0  0  0  # atno 10763 bound_to 10752
  153.8029  135.6902  153.4857 H   0  0  0  0  0  0  0  0  0  0  0  0  # atno 10764 bound_to 10752
  153.1842  135.4575  155.0013 H   0  0  0  0  0  0  0  0  0  0  0  0  # atno 10765 bound_to 10752
  139.9064  134.8069  156.2171 H   0  0  0  0  0  0  0  0  0  0  0  0  # atno 11005 bound_to 11000
  144.7233  140.4445  143.6991 LP  0  0  0  0  0  0  0  0  0  0  0  0  # atno 17320 bound_to 7965
  145.6386  139.1546  143.2928 LP  0  0  0  0  0  0  0  0  0  0  0  0  # atno 17321 bound_to 7965
  139.5890  144.7542  151.3448 LP  0  0  0  0  0  0  0  0  0  0  0  0  # atno 17342 bound_to 10162
  140.7169  143.7242  150.7672 LP  0  0  0  0  0  0  0  0  0  0  0  0  # atno 17343 bound_to 10162
  157.5605  130.8243  149.8260 LP  0  0  0  0  0  0  0  0  0  0  0  0  # atno 17370 bound_to 10713
  156.0290  130.3770  150.1740 LP  0  0  0  0  0  0  0  0  0  0  0  0  # atno 17371 bound_to 10713
  141.0429  133.6928  156.1630 LP  0  0  0  0  0  0  0  0  0  0  0  0  # atno 17394 bound_to 11000
  140.6928  134.4647  157.5588 LP  0  0  0  0  0  0  0  0  0  0  0  0  # atno 17395 bound_to 11000

$$$$
