AV-unprocessed.smi:233|AV-procd|sdf|1783|dock10
  -GOLD-   2262020333D 1   1.00000     0.00000
 Structure written by MMmdl.
 59 62  0  0  0  0  0  0  0  0  1 V2000
  151.8046  144.3113  157.9181 C   0  0  0  0  0  0  0  0  0  0  0  0
  150.7778  143.1986  158.1001 C   0  0  0  0  0  0  0  0  0  0  0  0
  150.3326  142.9461  159.2192 O   0  0  0  0  0  0  0  0  0  0  0  0
  150.4110  142.5440  156.9879 N   0  0  0  0  0  0  0  0  0  0  0  0
  149.4507  141.4459  156.9296 C   0  0  2  0  0  0  0  0  0  0  0  0
  149.5885  140.7154  155.5806 C   0  0  0  0  0  0  0  0  0  0  0  0
  148.5502  139.5915  155.4365 C   0  0  0  0  0  0  0  0  0  0  0  0
  147.1175  140.1323  155.6211 C   0  0  1  0  0  0  0  0  0  0  0  0
  146.1015  139.0914  155.4251 N   0  0  0  0  0  0  0  0  0  0  0  0
  145.7332  138.2170  156.5382 C   0  0  0  0  0  0  0  0  0  0  0  0
  146.0594  138.5441  154.1825 C   0  0  0  0  0  0  0  0  0  0  0  0
  146.6690  139.1799  153.1459 N   0  0  0  0  0  0  0  0  0  0  0  0
  146.6285  138.6594  151.9160 C   0  0  0  0  0  0  0  0  0  0  0  0
  146.0433  137.5329  151.5060 N   0  0  0  0  0  0  0  0  0  0  0  0
  145.4327  136.8877  152.5407 C   0  0  0  0  0  0  0  0  0  0  0  0
  145.3973  137.3159  153.8980 C   0  0  0  0  0  0  0  0  0  0  0  0
  144.7089  136.3856  154.6683 N   0  0  0  0  0  0  0  0  0  0  0  0
  144.3550  135.4638  153.8147 C   0  0  0  0  0  0  0  0  0  0  0  0
  144.7240  135.6995  152.5096 N   0  0  0  0  0  0  0  0  0  0  0  0
  144.5027  134.8407  151.3834 C   0  0  0  0  0  0  0  0  0  0  0  0
  144.1790  133.3573  151.5752 C   0  0  0  0  0  0  0  0  0  0  0  0
  144.9192  133.0325  150.2579 C   0  0  0  0  0  0  0  0  0  0  0  0
  145.8052  131.7762  150.2872 C   0  0  0  0  0  0  0  0  0  0  0  0
  146.6817  131.7431  149.1793 O   0  0  0  0  0  0  0  0  0  0  0  0
  144.0318  132.9970  148.9974 C   0  0  0  0  0  0  0  0  0  0  0  0
  142.9391  132.1153  149.1600 O   0  0  0  0  0  0  0  0  0  0  0  0
  145.6612  134.3653  150.5033 C   0  0  0  0  0  0  0  0  0  0  0  0
  146.9783  140.8432  156.9825 C   0  0  0  0  0  0  0  0  0  0  0  0
  148.0132  141.9709  157.1247 C   0  0  0  0  0  0  0  0  0  0  0  0
  152.6849  143.9382  157.3939 H   0  0  0  0  0  0  0  0  0  0  0  0
  152.1243  144.7053  158.8833 H   0  0  0  0  0  0  0  0  0  0  0  0
  151.3778  145.1307  157.3389 H   0  0  0  0  0  0  0  0  0  0  0  0
  150.8303  142.8264  156.1138 H   0  0  0  0  0  0  0  0  0  0  0  0
  149.6758  140.7317  157.7243 H   0  0  0  0  0  0  0  0  0  0  0  0
  149.4647  141.4251  154.7612 H   0  0  0  0  0  0  0  0  0  0  0  0
  150.5923  140.3009  155.4809 H   0  0  0  0  0  0  0  0  0  0  0  0
  148.6533  139.1259  154.4557 H   0  0  0  0  0  0  0  0  0  0  0  0
  148.7583  138.8143  156.1727 H   0  0  0  0  0  0  0  0  0  0  0  0
  146.9759  140.8997  154.8608 H   0  0  0  0  0  0  0  0  0  0  0  0
  144.8499  137.6270  156.2907 H   0  0  0  0  0  0  0  0  0  0  0  0
  145.4947  138.7923  157.4313 H   0  0  0  0  0  0  0  0  0  0  0  0
  146.5449  137.5308  156.7809 H   0  0  0  0  0  0  0  0  0  0  0  0
  147.1367  139.2273  151.1509 H   0  0  0  0  0  0  0  0  0  0  0  0
  143.8076  134.5832  154.1179 H   0  0  0  0  0  0  0  0  0  0  0  0
  143.7345  135.3276  150.7807 H   0  0  0  0  0  0  0  0  0  0  0  0
  144.6680  132.9371  152.4561 H   0  0  0  0  0  0  0  0  0  0  0  0
  143.1130  133.1280  151.5774 H   0  0  0  0  0  0  0  0  0  0  0  0
  146.4130  131.7519  151.1922 H   0  0  0  0  0  0  0  0  0  0  0  0
  145.2100  130.8629  150.2963 H   0  0  0  0  0  0  0  0  0  0  0  0
  147.4782  131.3066  149.4404 H   0  0  0  0  0  0  0  0  0  0  0  0
  143.6294  133.9844  148.7707 H   0  0  0  0  0  0  0  0  0  0  0  0
  144.5997  132.6943  148.1174 H   0  0  0  0  0  0  0  0  0  0  0  0
  142.1660  132.6264  149.3443 H   0  0  0  0  0  0  0  0  0  0  0  0
  145.8274  134.9682  149.6100 H   0  0  0  0  0  0  0  0  0  0  0  0
  146.5883  134.2357  151.0649 H   0  0  0  0  0  0  0  0  0  0  0  0
  145.9733  141.2528  157.0886 H   0  0  0  0  0  0  0  0  0  0  0  0
  147.1160  140.1369  157.8013 H   0  0  0  0  0  0  0  0  0  0  0  0
  147.9119  142.4360  158.1060 H   0  0  0  0  0  0  0  0  0  0  0  0
  147.8013  142.7500  156.3911 H   0  0  0  0  0  0  0  0  0  0  0  0
  1  2  1  0  0  0  0
  1 30  1  0  0  0  0
  1 31  1  0  0  0  0
  1 32  1  0  0  0  0
  2  3  2  0  0  0  0
  2  4  1  0  0  0  0
  4  5  1  0  0  0  0
  4 33  1  0  0  0  0
  5 29  1  0  0  0  0
  5  6  1  0  0  0  0
  5 34  1  0  0  0  0
  6  7  1  0  0  0  0
  6 35  1  0  0  0  0
  6 36  1  0  0  0  0
  7  8  1  0  0  0  0
  7 37  1  0  0  0  0
  7 38  1  0  0  0  0
  8  9  1  0  0  0  0
  8 28  1  0  0  0  0
  8 39  1  0  0  0  0
  9 10  1  0  0  0  0
  9 11  1  0  0  0  0
 10 40  1  0  0  0  0
 10 41  1  0  0  0  0
 10 42  1  0  0  0  0
 11 16  1  0  0  0  0
 11 12  2  0  0  0  0
 12 13  1  0  0  0  0
 13 14  2  0  0  0  0
 13 43  1  0  0  0  0
 14 15  1  0  0  0  0
 15 19  1  0  0  0  0
 15 16  2  0  0  0  0
 16 17  1  0  0  0  0
 17 18  2  0  0  0  0
 18 19  1  0  0  0  0
 18 44  1  0  0  0  0
 19 20  1  0  0  0  0
 20 27  1  0  0  0  0
 20 21  1  0  0  0  0
 20 45  1  0  0  0  0
 21 22  1  0  0  0  0
 21 46  1  0  0  0  0
 21 47  1  0  0  0  0
 22 23  1  0  0  0  0
 22 25  1  0  0  0  0
 22 27  1  0  0  0  0
 23 24  1  0  0  0  0
 23 48  1  0  0  0  0
 23 49  1  0  0  0  0
 24 50  1  0  0  0  0
 25 26  1  0  0  0  0
 25 51  1  0  0  0  0
 25 52  1  0  0  0  0
 26 53  1  0  0  0  0
 27 54  1  0  0  0  0
 27 55  1  0  0  0  0
 28 29  1  0  0  0  0
 28 56  1  0  0  0  0
 28 57  1  0  0  0  0
 29 58  1  0  0  0  0
 29 59  1  0  0  0  0
M  END
> <s_m_source_file>
AV-unprocessed.smi

> <i_m_source_file_index>
233

> <i_lp_mmshare_version>
43012

> <i_f3d_flags>
0

> <s_epik_input>
W0NIM11DKD1PKVtOSF1bQ0BASF0xW0NIMl1bQ0gyXVtDQEhdKFtDSDJdW0NIMl0xKU4oW0NIM10pYyhuW2NIXW4yKWMoYzIzKW5bY0hdbjNbQ0hdKFtDSDJdNClbQ0gyXUM0KFtDSDJdW09IXSlbQ0gyXVtPSF0=

> <s_epik_cmdline>
J2VwaWtfcHl0aG9uJywgJy1waCcsICc3LjAnLCAnLXRuJywgJzgnLCAnLW1hJywgJzIwMCcsICctbWV0YWxfYmluZGluZycsICctaW1hZScsICc8aW5maWxlLm1hZT4nLCAnLW9tYWUnLCAnPG91dGZpbGUubWFlPic=

> <r_lp_tautomer_probability>
1

> <r_epik_Ionization_Penalty>
0.0029036

> <r_epik_Ionization_Penalty_Charging>
0

> <r_epik_Ionization_Penalty_Neutral>
0.0029036

> <r_epik_State_Penalty>
0.00183591

> <r_epik_Charging_Adjusted_Penalty>
0.00183591

> <i_epik_Tot_Q>
0

> <i_epik_Tot_abs_Q>
0

> <r_epik_Metal_State_Penalty>
-0

> <b_epik_Metal_Only>
0

> <s_lp_Force_Field>
OPLS_2005

> <r_lp_Energy>
37.3152

> <b_lp_Chiralities_Consistent>
1

> <s_lp_Variant>
AV-unprocessed.smi:233-1

> <Gold.Version>
5.8.1

> <Gold.Id.Protein>
6NUR|6NUR_protein|mol2

> <Gold.PLP.Fitness>
52.6294

> <Gold.PLP.PLP>
-42.2851

> <Gold.PLP.part.hbond>
-5.7292

> <Gold.PLP.part.metal>
0.0000

> <Gold.PLP.part.buried>
-6.9916

> <Gold.PLP.part.nonpolar>
-32.1593

> <Gold.PLP.part.repulsive>
1.7376

> <Gold.PLP.ligand.clash>
0.0000

> <Gold.PLP.ligand.torsion>
1.3071

> <Gold.PLP.Chemscore.Hbond>
2.8525

> <Gold.PLP.Chemscore.CHOScore>
1.0000

> <Gold.PLP.Chemscore.Metal>
0.0000

> <Gold.Chemscore.Hbonds>
donor molecule, donor type, donor heavy atom, donor atom, acceptor molecule, acceptor atom, score
      L1  H    24    50       P1 10747  1.00
      L1  H    26    53       P1 10186  0.75
      P1  H 10785 10796       L1    26  0.99
      L1  C    13    43       P1  7957  0.94

> <Gold.PLP.Chemscore.Internal.Correction>
1.4010

> <Gold.Rescore>
     Score         DG    S(hbond)    S(metal)    S(lipo)     H(rot)  DE(clash)    DE(int)     intcor
     10.80     -14.48       2.62        0.00      80.38       3.57       1.04       2.64       ----

> <Gold.Chemscore.Fitness>
10.7971

> <Gold.Chemscore.DG>
-14.4771

> <Gold.Chemscore.ZeroCoef>
-5.4800

> <Gold.Chemscore.Hbond>
2.6156

> <Gold.Chemscore.Metal>
0.0000

> <Gold.Chemscore.Lipo>
80.3830

> <Gold.Chemscore.Internal_Hbond>
0.0000

> <Gold.Chemscore.DEClash>
1.0414

> <Gold.Chemscore.DEInternal>
2.6385

> <Gold.Chemscore.Rot>
3.5719

> <Gold.Chemscore.Internal.Correction>
   9.000000E+99

> <Gold.Chemscore.Hbonds>
donor molecule, donor type, donor heavy atom, donor atom, acceptor molecule, acceptor atom, score
      L1  H    24    50       P1 10747  1.00
      L1  H    26    53       P1 10186  0.72
      P1  H 10785 10796       L1    26  0.89

> <Gold.Chemscore.Hbond.Weighted>
-8.7363

> <Gold.Chemscore.Metal.Weighted>
-0.0000

> <Gold.Chemscore.Lipo.Weighted>
-9.4048

> <Gold.Chemscore.Internal_Hbond.Weighted>
0.0000

> <Gold.Chemscore.DEClash.Weighted>
1.0414

> <Gold.Chemscore.DEInternal.Weighted>
2.6385

> <Gold.Chemscore.Rot.Weighted>
9.1440

> <Gold.Chemscore.Internal.Correction.Weighted>
   9.000000E+99

> <Gold.Protein.RotatedTorsions>
[ 6907 6896 6895 6894 ] final -159.04 input  -60.11 | X-H torsion
[ 7974 7965 7964 7962 ] final  164.81 input  175.53 | X-H torsion
[ 8008 7997 7996 7995 ] final -166.01 input   59.86 | X-H torsion
[ 10167 10162 10161 10158 ] final -102.96 input  -65.29 | X-H torsion
[ 10718 10713 10712 10709 ] final  134.13 input   66.30 | X-H torsion
[ 10763 10752 10751 10750 ] final  -64.84 input  -60.55 | X-H torsion
[ 11005 11000 10999 10996 ] final  -37.76 input  -57.11 | X-H torsion

> <Gold.Protein.ActiveResidues>
 VAL166  LYS551  ARG553  GLY616  TRP617  ASP618  TYR619  PRO620  LYS621  CYS622 
 ASP623  PHE694  ASN695  SER759  ASP760  ASP761  ALA762  ILE779  LEU786  VAL792 
 PHE793  MET794  SER795  GLU796  ALA797  LYS798  CYS799  TRP800  GLU811  SER814 

> <Gold.Protein.RotatedAtoms>
  151.3275  133.4014  159.2659 H   0  0  0  0  0  0  0  0  0  0  0  0  # atno 6907 bound_to 6896
  150.9983  134.9302  159.7950 H   0  0  0  0  0  0  0  0  0  0  0  0  # atno 6908 bound_to 6896
  152.5268  134.3240  159.9211 H   0  0  0  0  0  0  0  0  0  0  0  0  # atno 6909 bound_to 6896
  144.7529  139.8380  143.6360 H   0  0  0  0  0  0  0  0  0  0  0  0  # atno 7974 bound_to 7965
  155.8579  140.0973  157.1633 H   0  0  0  0  0  0  0  0  0  0  0  0  # atno 8008 bound_to 7997
  154.3989  140.1371  156.3986 H   0  0  0  0  0  0  0  0  0  0  0  0  # atno 8009 bound_to 7997
  155.7889  140.3456  155.5341 H   0  0  0  0  0  0  0  0  0  0  0  0  # atno 8010 bound_to 7997
  140.2251  143.3647  152.0936 H   0  0  0  0  0  0  0  0  0  0  0  0  # atno 10167 bound_to 10162
  157.4704  131.1079  150.9810 H   0  0  0  0  0  0  0  0  0  0  0  0  # atno 10718 bound_to 10713
  154.3361  135.6166  153.5574 H   0  0  0  0  0  0  0  0  0  0  0  0  # atno 10763 bound_to 10752
  152.9807  135.5758  154.4906 H   0  0  0  0  0  0  0  0  0  0  0  0  # atno 10764 bound_to 10752
  154.4602  135.2855  155.1695 H   0  0  0  0  0  0  0  0  0  0  0  0  # atno 10765 bound_to 10752
  140.9977  133.6972  156.1964 H   0  0  0  0  0  0  0  0  0  0  0  0  # atno 11005 bound_to 11000
  146.1502  139.4583  143.0053 LP  0  0  0  0  0  0  0  0  0  0  0  0  # atno 17320 bound_to 7965
  145.6881  141.0172  143.1570 LP  0  0  0  0  0  0  0  0  0  0  0  0  # atno 17321 bound_to 7965
  139.5130  144.6926  151.5719 LP  0  0  0  0  0  0  0  0  0  0  0  0  # atno 17342 bound_to 10162
  140.6226  143.9228  150.6539 LP  0  0  0  0  0  0  0  0  0  0  0  0  # atno 17343 bound_to 10162
  157.0577  130.5813  149.5380 LP  0  0  0  0  0  0  0  0  0  0  0  0  # atno 17370 bound_to 10713
  156.0070  130.5158  150.7864 LP  0  0  0  0  0  0  0  0  0  0  0  0  # atno 17371 bound_to 10713
  140.6940  134.4635  157.5588 LP  0  0  0  0  0  0  0  0  0  0  0  0  # atno 17394 bound_to 11000
  139.9023  134.8528  156.1846 LP  0  0  0  0  0  0  0  0  0  0  0  0  # atno 17395 bound_to 11000

$$$$
