AV-unprocessed.smi:1046|AV-procd|sdf|4559|dock6
  -GOLD-   22720 3 03D 1   1.00000     0.00000
 Structure written by MMmdl.
 54 56  0  0  0  0  0  0  0  0  3 V2000
  151.4562  145.7357  160.6257 C   0  0  0  0  0  0  0  0  0  0  0  0
  151.5234  144.4538  159.8130 C   0  0  0  0  0  0  0  0  0  0  0  0
  150.9088  144.4291  158.5407 C   0  0  0  0  0  0  0  0  0  0  0  0
  150.9903  143.2437  157.8197 C   0  0  0  0  0  0  0  0  0  0  0  0
  150.4993  142.9062  156.5566 N   0  3  0  0  0  0  0  0  0  0  0  0
  150.8323  141.6177  156.2685 C   0  0  0  0  0  0  0  0  0  0  0  0
  151.5274  141.1257  157.3298 N   0  0  0  0  0  0  0  0  0  0  0  0
  152.1125  139.7925  157.5328 C   0  0  0  0  0  0  0  0  0  0  0  0
  152.2020  138.9772  156.2272 C   0  0  1  0  0  0  0  0  0  0  0  0
  153.5215  138.9788  155.7194 O   0  0  0  0  0  0  0  0  0  0  0  0
  151.6957  137.5188  156.2970 C   0  0  0  0  0  0  0  0  0  0  0  0
  151.3586  136.8848  155.0136 N   0  0  0  0  0  0  0  0  0  0  0  0
  150.2618  135.9106  155.0804 C   0  0  0  0  0  0  0  0  0  0  0  0
  148.8725  136.5499  155.2955 C   0  0  0  0  0  0  0  0  0  0  0  0
  148.5926  137.5601  154.2437 N   0  3  0  0  0  0  0  0  0  0  0  0
  147.2413  138.1605  154.3775 C   0  0  0  0  0  0  0  0  0  0  0  0
  146.8128  138.9383  153.1213 C   0  0  0  0  0  0  0  0  0  0  0  0
  147.3211  138.3062  151.9658 O   0  0  0  0  0  0  0  0  0  0  0  0
  149.6876  138.5628  154.1820 C   0  0  0  0  0  0  0  0  0  0  0  0
  151.0392  137.8554  153.9665 C   0  0  0  0  0  0  0  0  0  0  0  0
  151.6511  142.1060  158.3224 C   0  0  0  0  0  0  0  0  0  0  0  0
  152.2614  142.1141  159.5746 C   0  0  0  0  0  0  0  0  0  0  0  0
  152.1931  143.3112  160.3223 C   0  0  0  0  0  0  0  0  0  0  0  0
  152.8570  143.3501  161.6882 C   0  0  0  0  0  0  0  0  0  0  0  0
  150.8401  146.4882  160.1331 H   0  0  0  0  0  0  0  0  0  0  0  0
  152.4537  146.1549  160.7585 H   0  0  0  0  0  0  0  0  0  0  0  0
  151.0249  145.5476  161.6091 H   0  0  0  0  0  0  0  0  0  0  0  0
  150.4000  145.2958  158.1452 H   0  0  0  0  0  0  0  0  0  0  0  0
  150.5881  141.0835  155.3617 H   0  0  0  0  0  0  0  0  0  0  0  0
  153.0900  139.9115  157.9991 H   0  0  0  0  0  0  0  0  0  0  0  0
  151.4794  139.2731  158.2530 H   0  0  0  0  0  0  0  0  0  0  0  0
  151.5918  139.4860  155.4797 H   0  0  0  0  0  0  0  0  0  0  0  0
  153.9207  138.1448  155.9145 H   0  0  0  0  0  0  0  0  0  0  0  0
  152.4195  136.9131  156.8407 H   0  0  0  0  0  0  0  0  0  0  0  0
  150.8097  137.5300  156.9336 H   0  0  0  0  0  0  0  0  0  0  0  0
  150.2419  135.3430  154.1489 H   0  0  0  0  0  0  0  0  0  0  0  0
  150.4387  135.1754  155.8611 H   0  0  0  0  0  0  0  0  0  0  0  0
  148.1117  135.7693  155.2583 H   0  0  0  0  0  0  0  0  0  0  0  0
  148.7969  137.0098  156.2811 H   0  0  0  0  0  0  0  0  0  0  0  0
  146.5059  137.3759  154.5633 H   0  0  0  0  0  0  0  0  0  0  0  0
  147.2185  138.8115  155.2526 H   0  0  0  0  0  0  0  0  0  0  0  0
  145.7249  138.9515  153.0507 H   0  0  0  0  0  0  0  0  0  0  0  0
  147.1382  139.9775  153.1470 H   0  0  0  0  0  0  0  0  0  0  0  0
  148.1708  138.6724  151.7699 H   0  0  0  0  0  0  0  0  0  0  0  0
  149.5176  139.2570  153.3600 H   0  0  0  0  0  0  0  0  0  0  0  0
  149.7041  139.1559  155.0977 H   0  0  0  0  0  0  0  0  0  0  0  0
  151.8375  138.5947  153.8904 H   0  0  0  0  0  0  0  0  0  0  0  0
  151.0204  137.3453  153.0023 H   0  0  0  0  0  0  0  0  0  0  0  0
  152.7770  141.2472  159.9608 H   0  0  0  0  0  0  0  0  0  0  0  0
  153.3678  142.4128  161.9106 H   0  0  0  0  0  0  0  0  0  0  0  0
  152.1151  143.5194  162.4687 H   0  0  0  0  0  0  0  0  0  0  0  0
  153.5968  144.1497  161.7330 H   0  0  0  0  0  0  0  0  0  0  0  0
  148.5971  137.0608  153.3655 H   0  0  0  0  0  0  0  0  0  0  0  0
  149.9758  143.5091  155.9349 H   0  0  0  0  0  0  0  0  0  0  0  0
  1  2  1  0  0  0  0
  1 25  1  0  0  0  0
  1 26  1  0  0  0  0
  1 27  1  0  0  0  0
  2 23  1  0  0  0  0
  2  3  2  0  0  0  0
  3  4  1  0  0  0  0
  3 28  1  0  0  0  0
  4 21  2  0  0  0  0
  4  5  1  0  0  0  0
  5  6  2  0  0  0  0
  5 54  1  0  0  0  0
  6  7  1  0  0  0  0
  6 29  1  0  0  0  0
  7  8  1  0  0  0  0
  7 21  1  0  0  0  0
  8  9  1  0  0  0  0
  8 30  1  0  0  0  0
  8 31  1  0  0  0  0
  9 10  1  0  0  0  0
  9 11  1  0  0  0  0
  9 32  1  0  0  0  0
 10 33  1  0  0  0  0
 11 12  1  0  0  0  0
 11 34  1  0  0  0  0
 11 35  1  0  0  0  0
 12 20  1  0  0  0  0
 12 13  1  0  0  0  0
 13 14  1  0  0  0  0
 13 36  1  0  0  0  0
 13 37  1  0  0  0  0
 14 15  1  0  0  0  0
 14 38  1  0  0  0  0
 14 39  1  0  0  0  0
 15 16  1  0  0  0  0
 15 19  1  0  0  0  0
 15 53  1  0  0  0  0
 16 17  1  0  0  0  0
 16 40  1  0  0  0  0
 16 41  1  0  0  0  0
 17 18  1  0  0  0  0
 17 42  1  0  0  0  0
 17 43  1  0  0  0  0
 18 44  1  0  0  0  0
 19 20  1  0  0  0  0
 19 45  1  0  0  0  0
 19 46  1  0  0  0  0
 20 47  1  0  0  0  0
 20 48  1  0  0  0  0
 21 22  1  0  0  0  0
 22 23  2  0  0  0  0
 22 49  1  0  0  0  0
 23 24  1  0  0  0  0
 24 50  1  0  0  0  0
 24 51  1  0  0  0  0
 24 52  1  0  0  0  0
M  CHG  1   5   1
M  CHG  1  15   1
M  END
> <s_m_source_file>
AV-unprocessed.smi

> <i_m_source_file_index>
1046

> <i_lp_mmshare_version>
43012

> <i_f3d_flags>
0

> <s_epik_input>
W0NIM11jKFtjSF0xKWMoW0NIM10pW2NIXWMoYzEyKW4oW2NIXW4yKVtDSDJdW0NASF0oW09IXSlbQ0gyXU4zW0NIMl1bQ0gyXU4oW0NIMl1bQ0gyXTMpW0NIMl1bQ0gyXVtPSF0=

> <s_epik_cmdline>
J2VwaWtfcHl0aG9uJywgJy1waCcsICc3LjAnLCAnLXRuJywgJzgnLCAnLW1hJywgJzIwMCcsICctbWV0YWxfYmluZGluZycsICctaW1hZScsICc8aW5maWxlLm1hZT4nLCAnLW9tYWUnLCAnPG91dGZpbGUubWFlPic=

> <r_epik_Ionization_Penalty>
1.37806

> <r_epik_Ionization_Penalty_Charging>
1.32954

> <r_epik_Ionization_Penalty_Neutral>
0.0485178

> <r_epik_State_Penalty>
2.26587

> <r_epik_Charging_Adjusted_Penalty>
3.59541

> <i_epik_Tot_Q>
2

> <i_epik_Tot_abs_Q>
2

> <r_epik_Metal_State_Penalty>
6.27317

> <b_epik_Metal_Only>
0

> <s_lp_Force_Field>
OPLS_2005

> <r_lp_Energy>
47.9713

> <b_lp_Chiralities_Consistent>
1

> <s_lp_Variant>
AV-unprocessed.smi:1046-12

> <Gold.Version>
5.8.1

> <Gold.Id.Protein>
6NUR|6NUR_protein|mol2

> <Gold.PLP.Fitness>
67.4727

> <Gold.PLP.PLP>
-50.8082

> <Gold.PLP.part.hbond>
-6.5376

> <Gold.PLP.part.metal>
0.0000

> <Gold.PLP.part.buried>
-4.6478

> <Gold.PLP.part.nonpolar>
-40.6198

> <Gold.PLP.part.repulsive>
0.1921

> <Gold.PLP.ligand.clash>
0.0000

> <Gold.PLP.ligand.torsion>
1.6207

> <Gold.PLP.Chemscore.Hbond>
6.6080

> <Gold.PLP.Chemscore.CHOScore>
0.0000

> <Gold.PLP.Chemscore.Metal>
0.0000

> <Gold.Chemscore.Hbonds>
donor molecule, donor type, donor heavy atom, donor atom, acceptor molecule, acceptor atom, score
      L1  H     5    54       P1  8028  2.00
      L1  H    15    53       P1  7948  2.00
      L1  H    18    44       P1  7957  0.98
      P1  H  7997  8009       L1    10  0.87
      P1  H 10752 10764       L1    12  0.88

> <Gold.PLP.Chemscore.Internal.Correction>
0.0819

> <Gold.Rescore>
     Score         DG    S(hbond)    S(metal)    S(lipo)     H(rot)  DE(clash)    DE(int)     intcor
     23.14     -25.29       3.68        0.00     136.25       3.29       0.52       1.63       ----

> <Gold.Chemscore.Fitness>
23.1382

> <Gold.Chemscore.DG>
-25.2877

> <Gold.Chemscore.ZeroCoef>
-5.4800

> <Gold.Chemscore.Hbond>
3.6792

> <Gold.Chemscore.Metal>
0.0000

> <Gold.Chemscore.Lipo>
136.2451

> <Gold.Chemscore.Internal_Hbond>
0.0000

> <Gold.Chemscore.DEClash>
0.5184

> <Gold.Chemscore.DEInternal>
1.6311

> <Gold.Chemscore.Rot>
3.2896

> <Gold.Chemscore.Internal.Correction>
   9.000000E+99

> <Gold.Chemscore.Hbonds>
donor molecule, donor type, donor heavy atom, donor atom, acceptor molecule, acceptor atom, score
      L1  H     5    54       P1  8028  0.96
      L1  H    15    53       P1  7948  1.00
      L1  H    18    44       P1  7957  0.68
      P1  H  7997  8009       L1    10  0.61
      P1  H 10752 10764       L1    12  0.11

> <Gold.Chemscore.Hbond.Weighted>
-12.2885

> <Gold.Chemscore.Metal.Weighted>
-0.0000

> <Gold.Chemscore.Lipo.Weighted>
-15.9407

> <Gold.Chemscore.Internal_Hbond.Weighted>
0.0000

> <Gold.Chemscore.DEClash.Weighted>
0.5184

> <Gold.Chemscore.DEInternal.Weighted>
1.6311

> <Gold.Chemscore.Rot.Weighted>
8.4215

> <Gold.Chemscore.Internal.Correction.Weighted>
   9.000000E+99

> <Gold.Protein.RotatedTorsions>
[ 6907 6896 6895 6894 ] final -102.48 input  -60.11 | X-H torsion
[ 7974 7965 7964 7962 ] final -152.96 input  175.53 | X-H torsion
[ 8008 7997 7996 7995 ] final -153.04 input   59.86 | X-H torsion
[ 10167 10162 10161 10158 ] final  -88.61 input  -65.29 | X-H torsion
[ 10718 10713 10712 10709 ] final -163.40 input   66.30 | X-H torsion
[ 10763 10752 10751 10750 ] final  -59.51 input  -60.55 | X-H torsion
[ 11005 11000 10999 10996 ] final   54.76 input  -57.11 | X-H torsion

> <Gold.Protein.ActiveResidues>
 VAL166  LYS551  ARG553  GLY616  TRP617  ASP618  TYR619  PRO620  LYS621  CYS622 
 ASP623  PHE694  ASN695  SER759  ASP760  ASP761  ALA762  ILE779  LEU786  VAL792 
 PHE793  MET794  SER795  GLU796  ALA797  LYS798  CYS799  TRP800  GLU811  SER814 

> <Gold.Protein.RotatedAtoms>
  150.7198  134.0575  159.3819 H   0  0  0  0  0  0  0  0  0  0  0  0  # atno 6907 bound_to 6896
  151.8554  135.0541  160.0473 H   0  0  0  0  0  0  0  0  0  0  0  0  # atno 6908 bound_to 6896
  152.2759  133.5389  159.5504 H   0  0  0  0  0  0  0  0  0  0  0  0  # atno 6909 bound_to 6896
  144.7766  140.4591  143.5869 H   0  0  0  0  0  0  0  0  0  0  0  0  # atno 7974 bound_to 7965
  155.6646  140.0726  157.2542 H   0  0  0  0  0  0  0  0  0  0  0  0  # atno 8008 bound_to 7997
  154.4135  140.1710  156.1864 H   0  0  0  0  0  0  0  0  0  0  0  0  # atno 8009 bound_to 7997
  155.9668  140.3365  155.6543 H   0  0  0  0  0  0  0  0  0  0  0  0  # atno 8010 bound_to 7997
  140.3730  143.2785  151.9478 H   0  0  0  0  0  0  0  0  0  0  0  0  # atno 10167 bound_to 10162
  156.6242  130.8903  151.2964 H   0  0  0  0  0  0  0  0  0  0  0  0  # atno 10718 bound_to 10713
  154.2549  135.6319  153.5253 H   0  0  0  0  0  0  0  0  0  0  0  0  # atno 10763 bound_to 10752
  152.9906  135.5573  154.5767 H   0  0  0  0  0  0  0  0  0  0  0  0  # atno 10764 bound_to 10752
  154.5303  135.2888  155.1161 H   0  0  0  0  0  0  0  0  0  0  0  0  # atno 10765 bound_to 10752
  140.0661  134.5535  155.9098 H   0  0  0  0  0  0  0  0  0  0  0  0  # atno 11005 bound_to 11000
  145.6169  139.1519  143.3044 LP  0  0  0  0  0  0  0  0  0  0  0  0  # atno 17320 bound_to 7965
  146.1949  140.6281  142.9129 LP  0  0  0  0  0  0  0  0  0  0  0  0  # atno 17321 bound_to 7965
  139.4802  144.5890  151.7805 LP  0  0  0  0  0  0  0  0  0  0  0  0  # atno 17342 bound_to 10162
  140.5015  144.1162  150.5972 LP  0  0  0  0  0  0  0  0  0  0  0  0  # atno 17343 bound_to 10162
  157.7219  130.9570  150.1473 LP  0  0  0  0  0  0  0  0  0  0  0  0  # atno 17370 bound_to 10713
  156.2287  130.3680  149.8470 LP  0  0  0  0  0  0  0  0  0  0  0  0  # atno 17371 bound_to 10713
  141.1993  133.6606  156.5837 LP  0  0  0  0  0  0  0  0  0  0  0  0  # atno 17394 bound_to 11000
  140.3697  134.7616  157.4590 LP  0  0  0  0  0  0  0  0  0  0  0  0  # atno 17395 bound_to 11000

$$$$
