AV-unprocessed.smi:937|AV-procd|sdf|4211|dock5
  -GOLD-   22720 2123D 1   1.00000     0.00000
 Structure written by MMmdl.
 45 46  0  0  0  0  0  0  0  0  1 V2000
  145.9985  129.6727  151.9641 C   0  0  0  0  0  0  0  0  0  0  0  0
  145.8189  131.1452  151.6597 C   0  0  0  0  0  0  0  0  0  0  0  0
  144.7918  131.5857  150.7986 C   0  0  0  0  0  0  0  0  0  0  0  0
  144.6732  132.9661  150.5485 C   0  0  0  0  0  0  0  0  0  0  0  0
  145.5820  133.8502  151.1653 C   0  0  0  0  0  0  0  0  0  0  0  0
  145.4917  135.3447  150.9272 C   0  0  0  0  0  0  0  0  0  0  0  0
  144.2818  135.9708  151.6332 C   0  0  0  0  0  0  0  0  0  0  0  0
  144.5945  137.3184  152.0869 N   0  0  0  0  0  0  0  0  0  0  0  0
  145.2205  137.6052  153.2394 C   0  0  0  0  0  0  0  0  0  0  0  0
  145.5915  136.7474  154.0383 O   0  0  0  0  0  0  0  0  0  0  0  0
  145.4179  138.9170  153.4653 N   0  0  0  0  0  0  0  0  0  0  0  0
  146.0626  139.5577  154.6134 C   0  0  2  0  0  0  0  0  0  0  0  0
  146.4768  141.0030  154.2692 C   0  0  0  0  0  0  0  0  0  0  0  0
  147.2320  141.6590  155.4336 C   0  0  0  0  0  0  0  0  0  0  0  0
  148.4542  140.8243  155.8455 C   0  0  0  0  0  0  0  0  0  0  0  0
  148.0584  139.3774  156.2080 C   0  0  2  0  0  0  0  0  0  0  0  0
  149.2781  138.5356  156.6373 C   0  0  0  0  0  0  0  0  0  0  0  0
  149.9958  138.1644  155.5766 F   0  0  0  0  0  0  0  0  0  0  0  0
  150.0558  139.2428  157.4571 F   0  0  0  0  0  0  0  0  0  0  0  0
  148.8736  137.4440  157.2869 F   0  0  0  0  0  0  0  0  0  0  0  0
  147.2910  138.7279  155.0356 C   0  0  0  0  0  0  0  0  0  0  0  0
  146.5730  133.3068  152.0099 C   0  0  0  0  0  0  0  0  0  0  0  0
  146.6948  131.9843  152.2552 N   0  0  0  0  0  0  0  0  0  0  0  0
  145.1791  129.0821  151.5537 H   0  0  0  0  0  0  0  0  0  0  0  0
  146.0300  129.5067  153.0413 H   0  0  0  0  0  0  0  0  0  0  0  0
  146.9311  129.3093  151.5320 H   0  0  0  0  0  0  0  0  0  0  0  0
  144.1097  130.8852  150.3397 H   0  0  0  0  0  0  0  0  0  0  0  0
  143.8972  133.3386  149.8958 H   0  0  0  0  0  0  0  0  0  0  0  0
  146.4126  135.8200  151.2686 H   0  0  0  0  0  0  0  0  0  0  0  0
  145.4321  135.5231  149.8526 H   0  0  0  0  0  0  0  0  0  0  0  0
  143.4285  136.0036  150.9533 H   0  0  0  0  0  0  0  0  0  0  0  0
  143.9894  135.3632  152.4911 H   0  0  0  0  0  0  0  0  0  0  0  0
  144.3218  138.0826  151.4861 H   0  0  0  0  0  0  0  0  0  0  0  0
  145.0694  139.5460  152.7561 H   0  0  0  0  0  0  0  0  0  0  0  0
  145.3691  139.5747  155.4561 H   0  0  0  0  0  0  0  0  0  0  0  0
  147.1110  141.0038  153.3815 H   0  0  0  0  0  0  0  0  0  0  0  0
  145.6008  141.6034  154.0218 H   0  0  0  0  0  0  0  0  0  0  0  0
  147.5469  142.6641  155.1516 H   0  0  0  0  0  0  0  0  0  0  0  0
  146.5615  141.7730  156.2863 H   0  0  0  0  0  0  0  0  0  0  0  0
  149.1787  140.8164  155.0303 H   0  0  0  0  0  0  0  0  0  0  0  0
  148.9489  141.3020  156.6915 H   0  0  0  0  0  0  0  0  0  0  0  0
  147.3802  139.4243  157.0616 H   0  0  0  0  0  0  0  0  0  0  0  0
  146.9707  137.7238  155.3159 H   0  0  0  0  0  0  0  0  0  0  0  0
  147.9628  138.6081  154.1841 H   0  0  0  0  0  0  0  0  0  0  0  0
  147.2879  133.9483  152.5037 H   0  0  0  0  0  0  0  0  0  0  0  0
  1  2  1  0  0  0  0
  1 24  1  0  0  0  0
  1 25  1  0  0  0  0
  1 26  1  0  0  0  0
  2 23  1  0  0  0  0
  2  3  2  0  0  0  0
  3  4  1  0  0  0  0
  3 27  1  0  0  0  0
  4  5  2  0  0  0  0
  4 28  1  0  0  0  0
  5  6  1  0  0  0  0
  5 22  1  0  0  0  0
  6  7  1  0  0  0  0
  6 29  1  0  0  0  0
  6 30  1  0  0  0  0
  7  8  1  0  0  0  0
  7 31  1  0  0  0  0
  7 32  1  0  0  0  0
  8  9  1  0  0  0  0
  8 33  1  0  0  0  0
  9 10  2  0  0  0  0
  9 11  1  0  0  0  0
 11 12  1  0  0  0  0
 11 34  1  0  0  0  0
 12 21  1  0  0  0  0
 12 13  1  0  0  0  0
 12 35  1  0  0  0  0
 13 14  1  0  0  0  0
 13 36  1  0  0  0  0
 13 37  1  0  0  0  0
 14 15  1  0  0  0  0
 14 38  1  0  0  0  0
 14 39  1  0  0  0  0
 15 16  1  0  0  0  0
 15 40  1  0  0  0  0
 15 41  1  0  0  0  0
 16 17  1  0  0  0  0
 16 21  1  0  0  0  0
 16 42  1  0  0  0  0
 17 18  1  0  0  0  0
 17 19  1  0  0  0  0
 17 20  1  0  0  0  0
 21 43  1  0  0  0  0
 21 44  1  0  0  0  0
 22 23  2  0  0  0  0
 22 45  1  0  0  0  0
M  END
> <s_m_source_file>
AV-unprocessed.smi

> <i_m_source_file_index>
937

> <i_lp_mmshare_version>
43012

> <i_f3d_flags>
0

> <s_epik_input>
W0NIM11jMVtjSF1bY0hdYyhbY0hdbjEpW0NIMl1bQ0gyXVtOSF1DKD1PKVtOSF1bQ0BASF0yW0NIMl1bQ0gyXVtDSDJdW0NAQEhdKEMoRikoRilGKVtDSDJdMg==

> <s_epik_cmdline>
J2VwaWtfcHl0aG9uJywgJy1waCcsICc3LjAnLCAnLXRuJywgJzgnLCAnLW1hJywgJzIwMCcsICctbWV0YWxfYmluZGluZycsICctaW1hZScsICc8aW5maWxlLm1hZT4nLCAnLW9tYWUnLCAnPG91dGZpbGUubWFlPic=

> <r_epik_Ionization_Penalty>
0.0563445

> <r_epik_Ionization_Penalty_Charging>
0

> <r_epik_Ionization_Penalty_Neutral>
0.0563445

> <r_epik_State_Penalty>
0.0485409

> <r_epik_Charging_Adjusted_Penalty>
0.0485409

> <i_epik_Tot_Q>
0

> <i_epik_Tot_abs_Q>
0

> <r_epik_Metal_State_Penalty>
0.0443056

> <b_epik_Metal_Only>
0

> <s_lp_Force_Field>
OPLS_2005

> <r_lp_Energy>
18.9934

> <b_lp_Chiralities_Consistent>
1

> <s_lp_Variant>
AV-unprocessed.smi:937-3

> <Gold.Version>
5.8.1

> <Gold.Id.Protein>
6NUR|6NUR_protein|mol2

> <Gold.PLP.Fitness>
49.8565

> <Gold.PLP.PLP>
-44.6514

> <Gold.PLP.part.hbond>
-2.4710

> <Gold.PLP.part.metal>
0.0000

> <Gold.PLP.part.buried>
-5.5986

> <Gold.PLP.part.nonpolar>
-36.7810

> <Gold.PLP.part.repulsive>
1.2225

> <Gold.PLP.ligand.clash>
0.0000

> <Gold.PLP.ligand.torsion>
1.1217

> <Gold.PLP.Chemscore.Hbond>
1.5840

> <Gold.PLP.Chemscore.CHOScore>
0.8853

> <Gold.PLP.Chemscore.Metal>
0.0000

> <Gold.Chemscore.Hbonds>
donor molecule, donor type, donor heavy atom, donor atom, acceptor molecule, acceptor atom, score
      L1  H     8    33       P1 10171  0.94
      L1  H    11    34       P1 10175  0.77
      L1  C    22    45       P1  7948  0.19

> <Gold.PLP.Chemscore.Internal.Correction>
0.0405

> <Gold.Rescore>
     Score         DG    S(hbond)    S(metal)    S(lipo)     H(rot)  DE(clash)    DE(int)     intcor
     14.88     -19.02       1.93        0.00      95.36       1.58       1.36       2.78       ----

> <Gold.Chemscore.Fitness>
14.8771

> <Gold.Chemscore.DG>
-19.0207

> <Gold.Chemscore.ZeroCoef>
-5.4800

> <Gold.Chemscore.Hbond>
1.9285

> <Gold.Chemscore.Metal>
0.0000

> <Gold.Chemscore.Lipo>
95.3586

> <Gold.Chemscore.Internal_Hbond>
0.0000

> <Gold.Chemscore.DEClash>
1.3588

> <Gold.Chemscore.DEInternal>
2.7847

> <Gold.Chemscore.Rot>
1.5849

> <Gold.Chemscore.Internal.Correction>
   9.000000E+99

> <Gold.Chemscore.Hbonds>
donor molecule, donor type, donor heavy atom, donor atom, acceptor molecule, acceptor atom, score
      L1  H     8    33       P1 10171  0.91
      L1  H    11    34       P1 10175  0.76

> <Gold.Chemscore.Hbond.Weighted>
-6.4412

> <Gold.Chemscore.Metal.Weighted>
-0.0000

> <Gold.Chemscore.Lipo.Weighted>
-11.1570

> <Gold.Chemscore.Internal_Hbond.Weighted>
0.0000

> <Gold.Chemscore.DEClash.Weighted>
1.3588

> <Gold.Chemscore.DEInternal.Weighted>
2.7847

> <Gold.Chemscore.Rot.Weighted>
4.0574

> <Gold.Chemscore.Internal.Correction.Weighted>
   9.000000E+99

> <Gold.Protein.RotatedTorsions>
[ 6907 6896 6895 6894 ] final   11.53 input  -60.11 | X-H torsion
[ 7974 7965 7964 7962 ] final -113.00 input  175.53 | X-H torsion
[ 8008 7997 7996 7995 ] final   77.12 input   59.86 | X-H torsion
[ 10167 10162 10161 10158 ] final  106.95 input  -65.29 | X-H torsion
[ 10718 10713 10712 10709 ] final -157.94 input   66.30 | X-H torsion
[ 10763 10752 10751 10750 ] final  -52.13 input  -60.55 | X-H torsion
[ 11005 11000 10999 10996 ] final   -2.18 input  -57.11 | X-H torsion

> <Gold.Protein.ActiveResidues>
 VAL166  LYS551  ARG553  GLY616  TRP617  ASP618  TYR619  PRO620  LYS621  CYS622 
 ASP623  PHE694  ASN695  SER759  ASP760  ASP761  ALA762  ILE779  LEU786  VAL792 
 PHE793  MET794  SER795  GLU796  ALA797  LYS798  CYS799  TRP800  GLU811  SER814 

> <Gold.Protein.RotatedAtoms>
  151.7559  135.0822  160.0337 H   0  0  0  0  0  0  0  0  0  0  0  0  # atno 6907 bound_to 6896
  152.3386  133.6036  159.5868 H   0  0  0  0  0  0  0  0  0  0  0  0  # atno 6908 bound_to 6896
  150.7465  133.9674  159.3576 H   0  0  0  0  0  0  0  0  0  0  0  0  # atno 6909 bound_to 6896
  145.1373  140.8758  143.3723 H   0  0  0  0  0  0  0  0  0  0  0  0  # atno 7974 bound_to 7965
  155.8371  140.3464  155.5608 H   0  0  0  0  0  0  0  0  0  0  0  0  # atno 8008 bound_to 7997
  155.8181  140.0909  157.1885 H   0  0  0  0  0  0  0  0  0  0  0  0  # atno 8009 bound_to 7997
  154.4004  140.1435  156.3454 H   0  0  0  0  0  0  0  0  0  0  0  0  # atno 8010 bound_to 7997
  139.6967  144.7100  151.1255 H   0  0  0  0  0  0  0  0  0  0  0  0  # atno 10167 bound_to 10162
  156.5472  130.8589  151.2768 H   0  0  0  0  0  0  0  0  0  0  0  0  # atno 10718 bound_to 10713
  154.1378  135.6510  153.4935 H   0  0  0  0  0  0  0  0  0  0  0  0  # atno 10763 bound_to 10752
  153.0175  135.5308  154.6936 H   0  0  0  0  0  0  0  0  0  0  0  0  # atno 10764 bound_to 10752
  154.6189  135.2962  155.0319 H   0  0  0  0  0  0  0  0  0  0  0  0  # atno 10765 bound_to 10752
  140.6555  133.9367  155.8405 H   0  0  0  0  0  0  0  0  0  0  0  0  # atno 11005 bound_to 11000
  145.0570  139.3135  143.5899 LP  0  0  0  0  0  0  0  0  0  0  0  0  # atno 17320 bound_to 7965
  146.3508  139.9999  142.8677 LP  0  0  0  0  0  0  0  0  0  0  0  0  # atno 17321 bound_to 7965
  140.7698  143.5482  150.9235 LP  0  0  0  0  0  0  0  0  0  0  0  0  # atno 17342 bound_to 10162
  139.9161  143.6661  152.3106 LP  0  0  0  0  0  0  0  0  0  0  0  0  # atno 17343 bound_to 10162
  157.7394  130.9831  150.2313 LP  0  0  0  0  0  0  0  0  0  0  0  0  # atno 17370 bound_to 10713
  156.2917  130.3746  149.7835 LP  0  0  0  0  0  0  0  0  0  0  0  0  # atno 17371 bound_to 10713
  141.0505  134.0492  157.3790 LP  0  0  0  0  0  0  0  0  0  0  0  0  # atno 17394 bound_to 11000
  139.9031  135.0171  156.7361 LP  0  0  0  0  0  0  0  0  0  0  0  0  # atno 17395 bound_to 11000

$$$$
