AV-unprocessed.smi:3158|AV-procd|sdf|12045|dock1
  -GOLD-   2272017473D 1   1.00000     0.00000
 Structure written by MMmdl.
 39 39  0  0  0  0  0  0  0  0  1 V2000
  152.4724  142.6397  161.8908 C   0  0  0  0  0  0  0  0  0  0  0  0
  153.3658  142.1854  160.7273 C   0  0  0  0  0  0  0  0  0  0  0  0
  153.0251  142.8578  159.3843 C   0  0  2  0  0  0  0  0  0  0  0  0
  152.2733  144.1824  159.5915 C   0  0  0  0  0  0  0  0  0  0  0  0
  152.2261  141.9575  158.5570 N   0  0  0  0  0  0  0  0  0  0  0  0
  152.5268  140.6790  158.2795 C   0  0  0  0  0  0  0  0  0  0  0  0
  153.5332  140.1120  158.7063 O   0  0  0  0  0  0  0  0  0  0  0  0
  151.5597  139.9369  157.3416 C   0  0  2  0  0  0  0  0  0  0  0  0
  151.8101  138.4209  157.3866 C   0  0  0  0  0  0  0  0  0  0  0  0
  151.6244  140.4101  155.9468 N   0  0  0  0  0  0  0  0  0  0  0  0
  150.4784  140.0304  155.1278 C   0  0  0  0  0  0  0  0  0  0  0  0
  149.1818  140.3543  155.8824 C   0  0  0  0  0  0  0  0  0  0  0  0
  148.1490  140.8277  154.9819 N   0  0  0  0  0  0  0  0  0  0  0  0
  147.5575  142.0723  154.9351 C   0  0  0  0  0  0  0  0  0  0  0  0
  146.6353  142.0457  153.9283 C   0  0  0  0  0  0  0  0  0  0  0  0
  146.7362  140.7235  153.4125 C   0  0  0  0  0  0  0  0  0  0  0  0
  147.6425  139.9965  154.0460 N   0  0  0  0  0  0  0  0  0  0  0  0
  152.7247  142.1011  162.8043 H   0  0  0  0  0  0  0  0  0  0  0  0
  151.4203  142.4518  161.6752 H   0  0  0  0  0  0  0  0  0  0  0  0
  152.5882  143.7045  162.0944 H   0  0  0  0  0  0  0  0  0  0  0  0
  154.4100  142.3735  160.9806 H   0  0  0  0  0  0  0  0  0  0  0  0
  153.2711  141.1042  160.6197 H   0  0  0  0  0  0  0  0  0  0  0  0
  153.9647  143.0749  158.8724 H   0  0  0  0  0  0  0  0  0  0  0  0
  152.8624  144.8777  160.1900 H   0  0  0  0  0  0  0  0  0  0  0  0
  151.3236  144.0241  160.1036 H   0  0  0  0  0  0  0  0  0  0  0  0
  152.0603  144.6703  158.6398 H   0  0  0  0  0  0  0  0  0  0  0  0
  151.3838  142.3407  158.1530 H   0  0  0  0  0  0  0  0  0  0  0  0
  150.5435  140.1062  157.7028 H   0  0  0  0  0  0  0  0  0  0  0  0
  151.7489  138.0387  158.4065 H   0  0  0  0  0  0  0  0  0  0  0  0
  152.7936  138.1622  156.9919 H   0  0  0  0  0  0  0  0  0  0  0  0
  151.0668  137.8859  156.7946 H   0  0  0  0  0  0  0  0  0  0  0  0
  151.7634  141.4096  155.9006 H   0  0  0  0  0  0  0  0  0  0  0  0
  150.5064  140.5729  154.1817 H   0  0  0  0  0  0  0  0  0  0  0  0
  150.5046  138.9646  154.8975 H   0  0  0  0  0  0  0  0  0  0  0  0
  148.8087  139.4691  156.3994 H   0  0  0  0  0  0  0  0  0  0  0  0
  149.3585  141.1161  156.6439 H   0  0  0  0  0  0  0  0  0  0  0  0
  147.8380  142.8634  155.6148 H   0  0  0  0  0  0  0  0  0  0  0  0
  145.9867  142.8478  153.6095 H   0  0  0  0  0  0  0  0  0  0  0  0
  146.1815  140.2731  152.6025 H   0  0  0  0  0  0  0  0  0  0  0  0
  1  2  1  0  0  0  0
  1 18  1  0  0  0  0
  1 19  1  0  0  0  0
  1 20  1  0  0  0  0
  2  3  1  0  0  0  0
  2 21  1  0  0  0  0
  2 22  1  0  0  0  0
  3  4  1  0  0  0  0
  3  5  1  0  0  0  0
  3 23  1  0  0  0  0
  4 24  1  0  0  0  0
  4 25  1  0  0  0  0
  4 26  1  0  0  0  0
  5  6  1  0  0  0  0
  5 27  1  0  0  0  0
  6  7  2  0  0  0  0
  6  8  1  0  0  0  0
  8  9  1  0  0  0  0
  8 10  1  0  0  0  0
  8 28  1  0  0  0  0
  9 29  1  0  0  0  0
  9 30  1  0  0  0  0
  9 31  1  0  0  0  0
 10 11  1  0  0  0  0
 10 32  1  0  0  0  0
 11 12  1  0  0  0  0
 11 33  1  0  0  0  0
 11 34  1  0  0  0  0
 12 13  1  0  0  0  0
 12 35  1  0  0  0  0
 12 36  1  0  0  0  0
 13 17  1  0  0  0  0
 13 14  1  0  0  0  0
 14 15  2  0  0  0  0
 14 37  1  0  0  0  0
 15 16  1  0  0  0  0
 15 38  1  0  0  0  0
 16 17  2  0  0  0  0
 16 39  1  0  0  0  0
M  END
> <s_m_source_file>
AV-unprocessed.smi

> <i_m_source_file_index>
3158

> <i_lp_mmshare_version>
43012

> <i_f3d_flags>
0

> <s_epik_input>
W0NIM11bQ0gyXVtDQEhdKFtDSDNdKVtOSF1DKD1PKVtDQEhdKFtDSDNdKVtOSF1bQ0gyXVtDSDJdbjFbY0hdW2NIXVtjSF1uMQ==

> <s_epik_cmdline>
J2VwaWtfcHl0aG9uJywgJy1waCcsICc3LjAnLCAnLXRuJywgJzgnLCAnLW1hJywgJzIwMCcsICctbWV0YWxfYmluZGluZycsICctaW1hZScsICc8aW5maWxlLm1hZT4nLCAnLW9tYWUnLCAnPG91dGZpbGUubWFlPic=

> <r_lp_tautomer_probability>
1

> <r_epik_Ionization_Penalty>
0.724013

> <r_epik_Ionization_Penalty_Charging>
0

> <r_epik_Ionization_Penalty_Neutral>
0.724013

> <r_epik_State_Penalty>
0.74758

> <r_epik_Charging_Adjusted_Penalty>
0.74758

> <i_epik_Tot_Q>
0

> <i_epik_Tot_abs_Q>
0

> <r_epik_Metal_State_Penalty>
0.746846

> <b_epik_Metal_Only>
0

> <s_lp_Force_Field>
OPLS_2005

> <r_lp_Energy>
5.18205

> <b_lp_Chiralities_Consistent>
1

> <s_lp_Variant>
AV-unprocessed.smi:3158-5

> <Gold.Version>
5.8.1

> <Gold.Id.Protein>
6NUR|6NUR_protein|mol2

> <Gold.PLP.Fitness>
39.4131

> <Gold.PLP.PLP>
-33.4498

> <Gold.PLP.part.hbond>
-1.0000

> <Gold.PLP.part.metal>
0.0000

> <Gold.PLP.part.buried>
-2.6048

> <Gold.PLP.part.nonpolar>
-30.3368

> <Gold.PLP.part.repulsive>
0.2202

> <Gold.PLP.ligand.clash>
0.0000

> <Gold.PLP.ligand.torsion>
1.3489

> <Gold.PLP.Chemscore.Hbond>
1.0000

> <Gold.PLP.Chemscore.CHOScore>
1.8019

> <Gold.PLP.Chemscore.Metal>
0.0000

> <Gold.Chemscore.Hbonds>
donor molecule, donor type, donor heavy atom, donor atom, acceptor molecule, acceptor atom, score
      P1  H  7997  8009       L1     7  0.99
      L1  C    14    37       P1  8028  1.00
      L1  C    16    39       P1 10175  0.83

> <Gold.PLP.Chemscore.Internal.Correction>
0.2555

> <Gold.Rescore>
     Score         DG    S(hbond)    S(metal)    S(lipo)     H(rot)  DE(clash)    DE(int)     intcor
     10.96     -12.58       0.68        0.00      87.61       2.12       0.02       1.60       ----

> <Gold.Chemscore.Fitness>
10.9582

> <Gold.Chemscore.DG>
-12.5777

> <Gold.Chemscore.ZeroCoef>
-5.4800

> <Gold.Chemscore.Hbond>
0.6835

> <Gold.Chemscore.Metal>
0.0000

> <Gold.Chemscore.Lipo>
87.6116

> <Gold.Chemscore.Internal_Hbond>
0.0000

> <Gold.Chemscore.DEClash>
0.0186

> <Gold.Chemscore.DEInternal>
1.6009

> <Gold.Chemscore.Rot>
2.1234

> <Gold.Chemscore.Internal.Correction>
   9.000000E+99

> <Gold.Chemscore.Hbonds>
donor molecule, donor type, donor heavy atom, donor atom, acceptor molecule, acceptor atom, score
      P1  H  7997  8009       L1     7  0.42

> <Gold.Chemscore.Hbond.Weighted>
-2.2830

> <Gold.Chemscore.Metal.Weighted>
-0.0000

> <Gold.Chemscore.Lipo.Weighted>
-10.2506

> <Gold.Chemscore.Internal_Hbond.Weighted>
0.0000

> <Gold.Chemscore.DEClash.Weighted>
0.0186

> <Gold.Chemscore.DEInternal.Weighted>
1.6009

> <Gold.Chemscore.Rot.Weighted>
5.4359

> <Gold.Chemscore.Internal.Correction.Weighted>
   9.000000E+99

> <Gold.Protein.RotatedTorsions>
[ 6907 6896 6895 6894 ] final  -92.86 input  -60.11 | X-H torsion
[ 7974 7965 7964 7962 ] final -175.17 input  175.53 | X-H torsion
[ 8008 7997 7996 7995 ] final  143.11 input   59.86 | X-H torsion
[ 10167 10162 10161 10158 ] final  -21.08 input  -65.29 | X-H torsion
[ 10718 10713 10712 10709 ] final  171.88 input   66.30 | X-H torsion
[ 10763 10752 10751 10750 ] final -148.33 input  -60.55 | X-H torsion
[ 11005 11000 10999 10996 ] final    6.52 input  -57.11 | X-H torsion

> <Gold.Protein.ActiveResidues>
 VAL166  LYS551  ARG553  GLY616  TRP617  ASP618  TYR619  PRO620  LYS621  CYS622 
 ASP623  PHE694  ASN695  SER759  ASP760  ASP761  ALA762  ILE779  LEU786  VAL792 
 PHE793  MET794  SER795  GLU796  ALA797  LYS798  CYS799  TRP800  GLU811  SER814 

> <Gold.Protein.RotatedAtoms>
  150.6913  134.2056  159.4338 H   0  0  0  0  0  0  0  0  0  0  0  0  # atno 6907 bound_to 6896
  152.0020  134.9920  160.0574 H   0  0  0  0  0  0  0  0  0  0  0  0  # atno 6908 bound_to 6896
  152.1569  133.4522  159.4878 H   0  0  0  0  0  0  0  0  0  0  0  0  # atno 6909 bound_to 6896
  144.7129  140.1361  143.6395 H   0  0  0  0  0  0  0  0  0  0  0  0  # atno 7974 bound_to 7965
  156.2937  140.2271  156.4837 H   0  0  0  0  0  0  0  0  0  0  0  0  # atno 8008 bound_to 7997
  154.7831  140.0459  157.1164 H   0  0  0  0  0  0  0  0  0  0  0  0  # atno 8009 bound_to 7997
  154.9735  140.3069  155.4981 H   0  0  0  0  0  0  0  0  0  0  0  0  # atno 8010 bound_to 7997
  140.7280  143.4661  151.0311 H   0  0  0  0  0  0  0  0  0  0  0  0  # atno 10167 bound_to 10162
  156.9871  131.0136  151.2866 H   0  0  0  0  0  0  0  0  0  0  0  0  # atno 10718 bound_to 10713
  154.8238  135.3337  154.6957 H   0  0  0  0  0  0  0  0  0  0  0  0  # atno 10763 bound_to 10752
  153.7586  135.6934  153.4935 H   0  0  0  0  0  0  0  0  0  0  0  0  # atno 10764 bound_to 10752
  153.2126  135.4477  155.0347 H   0  0  0  0  0  0  0  0  0  0  0  0  # atno 10765 bound_to 10752
  140.5585  134.0215  155.7963 H   0  0  0  0  0  0  0  0  0  0  0  0  # atno 11005 bound_to 11000
  145.9244  139.2566  143.1362 LP  0  0  0  0  0  0  0  0  0  0  0  0  # atno 17320 bound_to 7965
  145.9587  140.8852  143.0222 LP  0  0  0  0  0  0  0  0  0  0  0  0  # atno 17321 bound_to 7965
  139.8350  143.7640  152.3180 LP  0  0  0  0  0  0  0  0  0  0  0  0  # atno 17342 bound_to 10162
  139.7769  144.7458  151.0144 LP  0  0  0  0  0  0  0  0  0  0  0  0  # atno 17343 bound_to 10162
  157.5485  130.8166  149.8116 LP  0  0  0  0  0  0  0  0  0  0  0  0  # atno 17370 bound_to 10713
  156.0221  130.3792  150.1929 LP  0  0  0  0  0  0  0  0  0  0  0  0  # atno 17371 bound_to 10713
  141.1129  133.9588  157.2877 LP  0  0  0  0  0  0  0  0  0  0  0  0  # atno 17394 bound_to 11000
  139.9419  135.0190  156.8735 LP  0  0  0  0  0  0  0  0  0  0  0  0  # atno 17395 bound_to 11000

$$$$
