AV-unprocessed.smi:1216|AV-procd|sdf|5099|dock2
  -GOLD-   22720 4153D 1   1.00000     0.00000
 Structure written by MMmdl.
 43 44  0  0  0  0  0  0  0  0  2 V2000
  142.7791  135.4613  152.7540 C   0  0  0  0  0  0  0  0  0  0  0  0
  144.2889  135.7006  152.6175 C   0  0  1  0  0  0  0  0  0  0  0  0
  144.7361  135.6112  151.1421 C   0  0  0  0  0  0  0  0  0  0  0  0
  145.1543  134.2620  150.7467 N   0  0  0  0  0  0  0  0  0  0  0  0
  144.3736  133.2720  150.2069 C   0  0  0  0  0  0  0  0  0  0  0  0
  145.1972  132.1962  149.9968 C   0  0  0  0  0  0  0  0  0  0  0  0
  146.4427  132.5722  150.4231 N   0  3  0  0  0  0  0  0  0  0  0  0
  146.4138  133.8272  150.8827 C   0  0  0  0  0  0  0  0  0  0  0  0
  144.6115  137.0073  153.1889 N   0  0  0  0  0  0  0  0  0  0  0  0
  145.7153  137.3093  153.8902 C   0  0  0  0  0  0  0  0  0  0  0  0
  146.6234  136.5039  154.1016 O   0  0  0  0  0  0  0  0  0  0  0  0
  145.8082  138.7530  154.4022 C   0  0  0  0  0  0  0  0  0  0  0  0
  147.0876  139.4037  154.0811 N   0  0  0  0  0  0  0  0  0  0  0  0
  147.0311  140.5673  153.1819 C   0  0  0  0  0  0  0  0  0  0  0  0
  147.3443  141.9104  153.8811 C   0  0  0  0  0  0  0  0  0  0  0  0
  148.3215  141.8463  155.0717 C   0  0  0  0  0  0  0  0  0  0  0  0
  149.6545  141.1240  154.7839 C   0  0  0  0  0  0  0  0  0  0  0  0
  149.5545  139.6877  154.2164 C   0  0  0  0  0  0  0  0  0  0  0  0
  148.2601  138.9453  154.5878 C   0  0  0  0  0  0  0  0  0  0  0  0
  148.3316  137.9643  155.3285 O   0  0  0  0  0  0  0  0  0  0  0  0
  142.5007  134.4797  152.3694 H   0  0  0  0  0  0  0  0  0  0  0  0
  142.2060  136.2083  152.2038 H   0  0  0  0  0  0  0  0  0  0  0  0
  142.4667  135.5036  153.7981 H   0  0  0  0  0  0  0  0  0  0  0  0
  144.7889  134.9173  153.1904 H   0  0  0  0  0  0  0  0  0  0  0  0
  143.9196  135.9017  150.4795 H   0  0  0  0  0  0  0  0  0  0  0  0
  145.5612  136.2970  150.9437 H   0  0  0  0  0  0  0  0  0  0  0  0
  143.3195  133.4057  150.0116 H   0  0  0  0  0  0  0  0  0  0  0  0
  144.9958  131.2170  149.5873 H   0  0  0  0  0  0  0  0  0  0  0  0
  147.2459  134.3828  151.2772 H   0  0  0  0  0  0  0  0  0  0  0  0
  143.9244  137.7367  153.0621 H   0  0  0  0  0  0  0  0  0  0  0  0
  144.9787  139.3208  153.9793 H   0  0  0  0  0  0  0  0  0  0  0  0
  145.6449  138.7669  155.4815 H   0  0  0  0  0  0  0  0  0  0  0  0
  147.7206  140.4133  152.3517 H   0  0  0  0  0  0  0  0  0  0  0  0
  146.0546  140.6352  152.7007 H   0  0  0  0  0  0  0  0  0  0  0  0
  147.7200  142.6143  153.1379 H   0  0  0  0  0  0  0  0  0  0  0  0
  146.4093  142.3387  154.2437 H   0  0  0  0  0  0  0  0  0  0  0  0
  148.5362  142.8620  155.4048 H   0  0  0  0  0  0  0  0  0  0  0  0
  147.8267  141.3715  155.9202 H   0  0  0  0  0  0  0  0  0  0  0  0
  150.2420  141.7289  154.0923 H   0  0  0  0  0  0  0  0  0  0  0  0
  150.2327  141.0951  155.7083 H   0  0  0  0  0  0  0  0  0  0  0  0
  149.6518  139.7058  153.1312 H   0  0  0  0  0  0  0  0  0  0  0  0
  150.4110  139.1069  154.5613 H   0  0  0  0  0  0  0  0  0  0  0  0
  147.2688  131.9880  150.3939 H   0  0  0  0  0  0  0  0  0  0  0  0
  1  2  1  0  0  0  0
  1 21  1  0  0  0  0
  1 22  1  0  0  0  0
  1 23  1  0  0  0  0
  2  3  1  0  0  0  0
  2  9  1  0  0  0  0
  2 24  1  0  0  0  0
  3  4  1  0  0  0  0
  3 25  1  0  0  0  0
  3 26  1  0  0  0  0
  4  8  1  0  0  0  0
  4  5  1  0  0  0  0
  5  6  2  0  0  0  0
  5 27  1  0  0  0  0
  6  7  1  0  0  0  0
  6 28  1  0  0  0  0
  7  8  2  0  0  0  0
  7 43  1  0  0  0  0
  8 29  1  0  0  0  0
  9 10  1  0  0  0  0
  9 30  1  0  0  0  0
 10 11  2  0  0  0  0
 10 12  1  0  0  0  0
 12 13  1  0  0  0  0
 12 31  1  0  0  0  0
 12 32  1  0  0  0  0
 13 19  1  0  0  0  0
 13 14  1  0  0  0  0
 14 15  1  0  0  0  0
 14 33  1  0  0  0  0
 14 34  1  0  0  0  0
 15 16  1  0  0  0  0
 15 35  1  0  0  0  0
 15 36  1  0  0  0  0
 16 17  1  0  0  0  0
 16 37  1  0  0  0  0
 16 38  1  0  0  0  0
 17 18  1  0  0  0  0
 17 39  1  0  0  0  0
 17 40  1  0  0  0  0
 18 19  1  0  0  0  0
 18 41  1  0  0  0  0
 18 42  1  0  0  0  0
 19 20  2  0  0  0  0
M  CHG  1   7   1
M  END
> <s_m_source_file>
AV-unprocessed.smi

> <i_m_source_file_index>
1216

> <i_lp_mmshare_version>
43012

> <i_f3d_flags>
0

> <s_epik_input>
W2NIXTFuW2NIXVtjSF1uMVtDSDJdW0NAQEhdKFtDSDNdKVtOSF1DKD1PKVtDSDJdTjJbQ0gyXVtDSDJdW0NIMl1bQ0gyXVtDSDJdQzI9Tw==

> <s_epik_cmdline>
J2VwaWtfcHl0aG9uJywgJy1waCcsICc3LjAnLCAnLXRuJywgJzgnLCAnLW1hJywgJzIwMCcsICctbWV0YWxfYmluZGluZycsICctaW1hZScsICc8aW5maWxlLm1hZT4nLCAnLW9tYWUnLCAnPG91dGZpbGUubWFlPic=

> <r_lp_tautomer_probability>
1

> <r_epik_Ionization_Penalty>
0.254232

> <r_epik_Ionization_Penalty_Charging>
0

> <r_epik_Ionization_Penalty_Neutral>
0.254232

> <r_epik_State_Penalty>
0.245698

> <r_epik_Charging_Adjusted_Penalty>
0.245698

> <i_epik_Tot_Q>
1

> <i_epik_Tot_abs_Q>
1

> <r_epik_Metal_State_Penalty>
0.535799

> <b_epik_Metal_Only>
0

> <s_lp_Force_Field>
OPLS_2005

> <r_lp_Energy>
21.2202

> <b_lp_Chiralities_Consistent>
1

> <s_lp_Variant>
AV-unprocessed.smi:1216-2

> <Gold.Version>
5.8.1

> <Gold.Id.Protein>
6NUR|6NUR_protein|mol2

> <Gold.PLP.Fitness>
39.3685

> <Gold.PLP.PLP>
-33.1634

> <Gold.PLP.part.hbond>
-0.9481

> <Gold.PLP.part.metal>
0.0000

> <Gold.PLP.part.buried>
-4.1924

> <Gold.PLP.part.nonpolar>
-28.3558

> <Gold.PLP.part.repulsive>
0.2239

> <Gold.PLP.ligand.clash>
0.0000

> <Gold.PLP.ligand.torsion>
1.2412

> <Gold.PLP.Chemscore.Hbond>
0.9750

> <Gold.PLP.Chemscore.CHOScore>
1.8789

> <Gold.PLP.Chemscore.Metal>
0.0000

> <Gold.Chemscore.Hbonds>
donor molecule, donor type, donor heavy atom, donor atom, acceptor molecule, acceptor atom, score
      L1  H     7    43       P1 10747  0.96
      L1  C     5    27       P1 10186  0.91
      L1  C     8    29       P1  7948  0.96

> <Gold.PLP.Chemscore.Internal.Correction>
0.1258

> <Gold.Rescore>
     Score         DG    S(hbond)    S(metal)    S(lipo)     H(rot)  DE(clash)    DE(int)     intcor
      8.40     -11.89       1.00        0.00      74.74       2.22       0.05       3.43       ----

> <Gold.Chemscore.Fitness>
8.4015

> <Gold.Chemscore.DG>
-11.8861

> <Gold.Chemscore.ZeroCoef>
-5.4800

> <Gold.Chemscore.Hbond>
0.9986

> <Gold.Chemscore.Metal>
0.0000

> <Gold.Chemscore.Lipo>
74.7367

> <Gold.Chemscore.Internal_Hbond>
0.0000

> <Gold.Chemscore.DEClash>
0.0514

> <Gold.Chemscore.DEInternal>
3.4332

> <Gold.Chemscore.Rot>
2.2161

> <Gold.Chemscore.Internal.Correction>
   9.000000E+99

> <Gold.Chemscore.Hbonds>
donor molecule, donor type, donor heavy atom, donor atom, acceptor molecule, acceptor atom, score
      L1  H     7    43       P1 10747  0.91

> <Gold.Chemscore.Hbond.Weighted>
-3.3352

> <Gold.Chemscore.Metal.Weighted>
-0.0000

> <Gold.Chemscore.Lipo.Weighted>
-8.7442

> <Gold.Chemscore.Internal_Hbond.Weighted>
0.0000

> <Gold.Chemscore.DEClash.Weighted>
0.0514

> <Gold.Chemscore.DEInternal.Weighted>
3.4332

> <Gold.Chemscore.Rot.Weighted>
5.6733

> <Gold.Chemscore.Internal.Correction.Weighted>
   9.000000E+99

> <Gold.Protein.RotatedTorsions>
[ 6907 6896 6895 6894 ] final -137.99 input  -60.11 | X-H torsion
[ 7974 7965 7964 7962 ] final   87.23 input  175.53 | X-H torsion
[ 8008 7997 7996 7995 ] final  -14.45 input   59.86 | X-H torsion
[ 10167 10162 10161 10158 ] final -133.27 input  -65.29 | X-H torsion
[ 10718 10713 10712 10709 ] final -109.73 input   66.30 | X-H torsion
[ 10763 10752 10751 10750 ] final -106.84 input  -60.55 | X-H torsion
[ 11005 11000 10999 10996 ] final  -83.19 input  -57.11 | X-H torsion

> <Gold.Protein.ActiveResidues>
 VAL166  LYS551  ARG553  GLY616  TRP617  ASP618  TYR619  PRO620  LYS621  CYS622 
 ASP623  PHE694  ASN695  SER759  ASP760  ASP761  ALA762  ILE779  LEU786  VAL792 
 PHE793  MET794  SER795  GLU796  ALA797  LYS798  CYS799  TRP800  GLU811  SER814 

> <Gold.Protein.RotatedAtoms>
  151.0294  133.5804  159.2662 H   0  0  0  0  0  0  0  0  0  0  0  0  # atno 6907 bound_to 6896
  151.2891  135.0736  159.9207 H   0  0  0  0  0  0  0  0  0  0  0  0  # atno 6908 bound_to 6896
  152.5341  133.9995  159.7942 H   0  0  0  0  0  0  0  0  0  0  0  0  # atno 6909 bound_to 6896
  145.5618  139.2304  143.2455 H   0  0  0  0  0  0  0  0  0  0  0  0  # atno 7974 bound_to 7965
  154.5209  140.2223  155.8977 H   0  0  0  0  0  0  0  0  0  0  0  0  # atno 8008 bound_to 7997
  156.1661  140.3132  155.8856 H   0  0  0  0  0  0  0  0  0  0  0  0  # atno 8009 bound_to 7997
  155.3654  140.0463  157.3036 H   0  0  0  0  0  0  0  0  0  0  0  0  # atno 8010 bound_to 7997
  139.8999  143.6620  152.2597 H   0  0  0  0  0  0  0  0  0  0  0  0  # atno 10167 bound_to 10162
  156.0552  130.5779  150.8140 H   0  0  0  0  0  0  0  0  0  0  0  0  # atno 10718 bound_to 10713
  154.8037  135.4697  154.0340 H   0  0  0  0  0  0  0  0  0  0  0  0  # atno 10763 bound_to 10752
  153.1825  135.6843  153.8466 H   0  0  0  0  0  0  0  0  0  0  0  0  # atno 10764 bound_to 10752
  153.8011  135.3230  155.3368 H   0  0  0  0  0  0  0  0  0  0  0  0  # atno 10765 bound_to 10752
  141.1659  133.7282  156.8684 H   0  0  0  0  0  0  0  0  0  0  0  0  # atno 11005 bound_to 11000
  146.1846  140.6443  142.9173 LP  0  0  0  0  0  0  0  0  0  0  0  0  # atno 17320 bound_to 7965
  144.7479  140.5116  143.6822 LP  0  0  0  0  0  0  0  0  0  0  0  0  # atno 17321 bound_to 7965
  139.7034  144.7631  151.1234 LP  0  0  0  0  0  0  0  0  0  0  0  0  # atno 17342 bound_to 10162
  140.7709  143.5427  150.9294 LP  0  0  0  0  0  0  0  0  0  0  0  0  # atno 17343 bound_to 10162
  157.5516  131.0944  150.9687 LP  0  0  0  0  0  0  0  0  0  0  0  0  # atno 17370 bound_to 10713
  156.9946  130.5576  149.5306 LP  0  0  0  0  0  0  0  0  0  0  0  0  # atno 17371 bound_to 10713
  140.1799  134.9040  157.2936 LP  0  0  0  0  0  0  0  0  0  0  0  0  # atno 17394 bound_to 11000
  140.2407  134.3799  155.7482 LP  0  0  0  0  0  0  0  0  0  0  0  0  # atno 17395 bound_to 11000

$$$$
