AV-unprocessed.smi:1008|AV-procd|sdf|4413|dock5
  -GOLD-   22720 2353D 1   1.00000     0.00000
 Structure written by MMmdl.
 22 22  0  0  0  0  0  0  0  0  2 V2000
  151.2292  141.2672  156.8539 C   0  0  0  0  0  0  0  0  0  0  0  0
  151.4702  139.8765  156.2938 C   0  0  0  0  0  0  0  0  0  0  0  0
  151.0513  139.6677  154.9703 N   0  0  0  0  0  0  0  0  0  0  0  0
  151.2258  138.5068  154.4222 C   0  0  0  0  0  0  0  0  0  0  0  0
  150.8330  138.2512  153.1266 N   0  0  0  0  0  0  0  0  0  0  0  0
  151.8104  137.4359  155.0674 N   0  5  0  0  0  0  0  0  0  0  0  0
  152.2432  137.5700  156.3541 C   0  0  0  0  0  0  0  0  0  0  0  0
  152.7754  136.6427  156.9632 O   0  0  0  0  0  0  0  0  0  0  0  0
  152.0616  138.8782  157.0107 C   0  0  0  0  0  0  0  0  0  0  0  0
  152.5259  139.0450  158.4559 C   0  0  0  0  0  0  0  0  0  0  0  0
  151.8743  138.0184  159.3931 C   0  0  0  0  0  0  0  0  0  0  0  0
  152.7406  136.9203  159.5812 O   0  0  0  0  0  0  0  0  0  0  0  0
  152.1514  141.6829  157.2606 H   0  0  0  0  0  0  0  0  0  0  0  0
  150.4818  141.2331  157.6468 H   0  0  0  0  0  0  0  0  0  0  0  0
  150.8685  141.9472  156.0814 H   0  0  0  0  0  0  0  0  0  0  0  0
  150.3930  138.9432  152.5381 H   0  0  0  0  0  0  0  0  0  0  0  0
  150.9551  137.3581  152.6730 H   0  0  0  0  0  0  0  0  0  0  0  0
  153.6102  138.9540  158.5135 H   0  0  0  0  0  0  0  0  0  0  0  0
  152.3075  140.0584  158.7960 H   0  0  0  0  0  0  0  0  0  0  0  0
  151.6527  138.4644  160.3631 H   0  0  0  0  0  0  0  0  0  0  0  0
  150.9328  137.6604  158.9756 H   0  0  0  0  0  0  0  0  0  0  0  0
  153.6312  137.2262  159.5054 H   0  0  0  0  0  0  0  0  0  0  0  0
  1  2  1  0  0  0  0
  1 13  1  0  0  0  0
  1 14  1  0  0  0  0
  1 15  1  0  0  0  0
  2  9  2  0  0  0  0
  2  3  1  0  0  0  0
  3  4  2  0  0  0  0
  4  5  1  0  0  0  0
  4  6  1  0  0  0  0
  5 16  1  0  0  0  0
  5 17  1  0  0  0  0
  6  7  1  0  0  0  0
  7  8  2  0  0  0  0
  7  9  1  0  0  0  0
  9 10  1  0  0  0  0
 10 11  1  0  0  0  0
 10 18  1  0  0  0  0
 10 19  1  0  0  0  0
 11 12  1  0  0  0  0
 11 20  1  0  0  0  0
 11 21  1  0  0  0  0
 12 22  1  0  0  0  0
M  CHG  1   6  -1
M  END
> <s_m_source_file>
AV-unprocessed.smi

> <i_m_source_file_index>
1008

> <i_lp_mmshare_version>
43012

> <i_f3d_flags>
0

> <s_epik_input>
W0NIM11jMW5jKFtOSDJdKVtuSF1jKD1PKWMxW0NIMl1bQ0gyXVtPSF0=

> <s_epik_cmdline>
J2VwaWtfcHl0aG9uJywgJy1waCcsICc3LjAnLCAnLXRuJywgJzgnLCAnLW1hJywgJzIwMCcsICctbWV0YWxfYmluZGluZycsICctaW1hZScsICc8aW5maWxlLm1hZT4nLCAnLW9tYWUnLCAnPG91dGZpbGUubWFlPic=

> <r_lp_tautomer_probability>
0.878315

> <r_epik_Ionization_Penalty>
8.31336

> <r_epik_Ionization_Penalty_Charging>
3.16854e-07

> <r_epik_Ionization_Penalty_Neutral>
8.31336

> <r_epik_State_Penalty>
5.82337

> <r_epik_Charging_Adjusted_Penalty>
5.82337

> <i_epik_Tot_Q>
-1

> <i_epik_Tot_abs_Q>
1

> <r_epik_Metal_State_Penalty>
1.89563

> <b_epik_Metal_Only>
1

> <s_lp_Force_Field>
OPLS_2005

> <r_lp_Energy>
6.72114

> <b_lp_Chiralities_Consistent>
1

> <s_lp_Variant>
AV-unprocessed.smi:1008-4

> <Gold.Version>
5.8.1

> <Gold.Id.Protein>
6NUR|6NUR_protein|mol2

> <Gold.PLP.Fitness>
31.5574

> <Gold.PLP.PLP>
-15.2089

> <Gold.PLP.part.hbond>
-6.9216

> <Gold.PLP.part.metal>
0.0000

> <Gold.PLP.part.buried>
1.6148

> <Gold.PLP.part.nonpolar>
-10.1187

> <Gold.PLP.part.repulsive>
0.2509

> <Gold.PLP.ligand.clash>
0.0000

> <Gold.PLP.ligand.torsion>
0.2612

> <Gold.PLP.Chemscore.Hbond>
5.6235

> <Gold.PLP.Chemscore.CHOScore>
0.0000

> <Gold.PLP.Chemscore.Metal>
0.0000

> <Gold.Chemscore.Hbonds>
donor molecule, donor type, donor heavy atom, donor atom, acceptor molecule, acceptor atom, score
      L1  H     5    16       P1  7957  0.95
      L1  H     5    17       P1  7949  0.90
      P1  H  6896  6909       L1    12  0.96
      P1  H  7989  7998       L1     3  1.00
      P1  H 10752 10765       L1     6  1.07

> <Gold.PLP.Chemscore.Internal.Correction>
0.0005

> <Gold.Rescore>
     Score         DG    S(hbond)    S(metal)    S(lipo)     H(rot)  DE(clash)    DE(int)     intcor
     11.70     -14.84       3.40        0.00      27.47       2.03       1.58       1.56       ----

> <Gold.Chemscore.Fitness>
11.6997

> <Gold.Chemscore.DG>
-14.8410

> <Gold.Chemscore.ZeroCoef>
-5.4800

> <Gold.Chemscore.Hbond>
3.3968

> <Gold.Chemscore.Metal>
0.0000

> <Gold.Chemscore.Lipo>
27.4727

> <Gold.Chemscore.Internal_Hbond>
0.0000

> <Gold.Chemscore.DEClash>
1.5784

> <Gold.Chemscore.DEInternal>
1.5629

> <Gold.Chemscore.Rot>
2.0307

> <Gold.Chemscore.Internal.Correction>
   9.000000E+99

> <Gold.Chemscore.Hbonds>
donor molecule, donor type, donor heavy atom, donor atom, acceptor molecule, acceptor atom, score
      L1  H     5    16       P1  7957  0.22
      L1  H     5    17       P1  7949  0.18
      P1  H  6896  6909       L1    12  0.88
      P1  H  7989  7998       L1     3  0.29
      P1  H 10752 10765       L1     6  0.13

> <Gold.Chemscore.Hbond.Weighted>
-11.3452

> <Gold.Chemscore.Metal.Weighted>
-0.0000

> <Gold.Chemscore.Lipo.Weighted>
-3.2143

> <Gold.Chemscore.Internal_Hbond.Weighted>
0.0000

> <Gold.Chemscore.DEClash.Weighted>
1.5784

> <Gold.Chemscore.DEInternal.Weighted>
1.5629

> <Gold.Chemscore.Rot.Weighted>
5.1985

> <Gold.Chemscore.Internal.Correction.Weighted>
   9.000000E+99

> <Gold.Protein.RotatedTorsions>
[ 6907 6896 6895 6894 ] final  140.61 input  -60.11 | X-H torsion
[ 7974 7965 7964 7962 ] final    2.75 input  175.53 | X-H torsion
[ 8008 7997 7996 7995 ] final  -52.13 input   59.86 | X-H torsion
[ 10167 10162 10161 10158 ] final   60.29 input  -65.29 | X-H torsion
[ 10718 10713 10712 10709 ] final  132.23 input   66.30 | X-H torsion
[ 10763 10752 10751 10750 ] final  172.51 input  -60.55 | X-H torsion
[ 11005 11000 10999 10996 ] final  -58.28 input  -57.11 | X-H torsion

> <Gold.Protein.ActiveResidues>
 VAL166  LYS551  ARG553  GLY616  TRP617  ASP618  TYR619  PRO620  LYS621  CYS622 
 ASP623  PHE694  ASN695  SER759  ASP760  ASP761  ALA762  ILE779  LEU786  VAL792 
 PHE793  MET794  SER795  GLU796  ALA797  LYS798  CYS799  TRP800  GLU811  SER814 

> <Gold.Protein.RotatedAtoms>
  152.2410  133.5135  159.5269 H   0  0  0  0  0  0  0  0  0  0  0  0  # atno 6907 bound_to 6896
  150.7064  134.1089  159.4002 H   0  0  0  0  0  0  0  0  0  0  0  0  # atno 6908 bound_to 6896
  151.9010  135.0378  160.0557 H   0  0  0  0  0  0  0  0  0  0  0  0  # atno 6909 bound_to 6896
  146.2444  140.0789  142.8358 H   0  0  0  0  0  0  0  0  0  0  0  0  # atno 7974 bound_to 7965
  154.4099  140.1231  156.4941 H   0  0  0  0  0  0  0  0  0  0  0  0  # atno 8008 bound_to 7997
  155.6961  140.3495  155.4894 H   0  0  0  0  0  0  0  0  0  0  0  0  # atno 8009 bound_to 7997
  155.9426  140.1090  157.1033 H   0  0  0  0  0  0  0  0  0  0  0  0  # atno 8010 bound_to 7997
  140.1672  144.4312  150.6679 H   0  0  0  0  0  0  0  0  0  0  0  0  # atno 10167 bound_to 10162
  157.4891  131.1089  150.9580 H   0  0  0  0  0  0  0  0  0  0  0  0  # atno 10718 bound_to 10713
  154.4271  135.2759  155.1937 H   0  0  0  0  0  0  0  0  0  0  0  0  # atno 10763 bound_to 10752
  154.3858  135.6077  153.5819 H   0  0  0  0  0  0  0  0  0  0  0  0  # atno 10764 bound_to 10752
  152.9835  135.5891  154.4576 H   0  0  0  0  0  0  0  0  0  0  0  0  # atno 10765 bound_to 10752
  141.1201  133.6612  156.4897 H   0  0  0  0  0  0  0  0  0  0  0  0  # atno 11005 bound_to 11000
  145.0751  140.9182  143.4859 LP  0  0  0  0  0  0  0  0  0  0  0  0  # atno 17320 bound_to 7965
  145.0930  139.2876  143.5725 LP  0  0  0  0  0  0  0  0  0  0  0  0  # atno 17321 bound_to 7965
  140.6605  143.2250  151.5867 LP  0  0  0  0  0  0  0  0  0  0  0  0  # atno 17342 bound_to 10162
  139.5354  144.2796  152.1240 LP  0  0  0  0  0  0  0  0  0  0  0  0  # atno 17343 bound_to 10162
  157.0288  130.5703  149.5340 LP  0  0  0  0  0  0  0  0  0  0  0  0  # atno 17370 bound_to 10713
  156.0163  130.5257  150.8145 LP  0  0  0  0  0  0  0  0  0  0  0  0  # atno 17371 bound_to 10713
  140.4533  134.6909  157.5050 LP  0  0  0  0  0  0  0  0  0  0  0  0  # atno 17394 bound_to 11000
  140.0151  134.6631  155.9322 LP  0  0  0  0  0  0  0  0  0  0  0  0  # atno 17395 bound_to 11000

$$$$
