AV-unprocessed.smi:101|AV-procd|sdf|921|dock7
  -GOLD-   2262017423D 1   1.00000     0.00000
 Structure written by MMmdl.
 44 46  0  0  0  0  0  0  0  0  1 V2000
  152.6931  143.1156  160.4870 C   0  0  0  0  0  0  0  0  0  0  0  0
  151.9247  142.7463  159.2285 C   0  0  0  0  0  0  0  0  0  0  0  0
  151.7609  141.4593  158.8281 C   0  0  0  0  0  0  0  0  0  0  0  0
  151.0636  141.0904  157.6832 N   0  0  0  0  0  0  0  0  0  0  0  0
  150.8817  139.6410  157.2653 C   0  0  2  0  0  0  0  0  0  0  0  0
  151.4190  138.7996  158.2424 O   0  0  0  0  0  0  0  0  0  0  0  0
  152.6414  138.2398  157.7765 C   0  0  1  0  0  0  0  0  0  0  0  0
  153.0112  136.9826  158.5733 C   0  0  0  0  0  0  0  0  0  0  0  0
  153.5328  137.3946  159.8254 O   0  0  0  0  0  0  0  0  0  0  0  0
  153.7756  136.4919  160.7928 C   0  0  0  0  0  0  0  0  0  0  0  0
  153.8439  135.2776  160.5929 O   0  0  0  0  0  0  0  0  0  0  0  0
  153.9495  137.1194  162.1348 C   0  0  0  0  0  0  0  0  0  0  0  0
  153.6026  136.3861  163.2935 C   0  0  0  0  0  0  0  0  0  0  0  0
  153.7525  136.9544  164.5736 C   0  0  0  0  0  0  0  0  0  0  0  0
  154.2523  138.2626  164.7105 C   0  0  0  0  0  0  0  0  0  0  0  0
  154.6026  139.0020  163.5659 C   0  0  0  0  0  0  0  0  0  0  0  0
  154.4527  138.4359  162.2848 C   0  0  0  0  0  0  0  0  0  0  0  0
  152.3815  138.0441  156.2814 C   0  0  1  0  0  0  0  0  0  0  0  0
  151.6176  136.8748  156.0478 O   0  0  0  0  0  0  0  0  0  0  0  0
  151.5814  139.2917  155.9251 C   0  0  2  0  0  0  0  0  0  0  0  0
  152.4638  140.2983  155.4583 O   0  0  0  0  0  0  0  0  0  0  0  0
  150.4815  142.0923  156.8798 C   0  0  0  0  0  0  0  0  0  0  0  0
  149.8549  141.8382  155.8516 O   0  0  0  0  0  0  0  0  0  0  0  0
  150.6501  143.4132  157.2897 N   0  0  0  0  0  0  0  0  0  0  0  0
  151.3439  143.8282  158.4286 C   0  0  0  0  0  0  0  0  0  0  0  0
  151.4254  145.0280  158.6866 O   0  0  0  0  0  0  0  0  0  0  0  0
  150.2360  144.1322  156.7147 H   0  0  0  0  0  0  0  0  0  0  0  0
  153.0645  142.2333  161.0094 H   0  0  0  0  0  0  0  0  0  0  0  0
  152.0533  143.6668  161.1771 H   0  0  0  0  0  0  0  0  0  0  0  0
  153.5500  143.7429  160.2390 H   0  0  0  0  0  0  0  0  0  0  0  0
  152.2021  140.6937  159.4474 H   0  0  0  0  0  0  0  0  0  0  0  0
  149.8031  139.4727  157.2466 H   0  0  0  0  0  0  0  0  0  0  0  0
  153.4352  138.9808  157.8846 H   0  0  0  0  0  0  0  0  0  0  0  0
  152.1407  136.3384  158.7063 H   0  0  0  0  0  0  0  0  0  0  0  0
  153.7733  136.4109  158.0424 H   0  0  0  0  0  0  0  0  0  0  0  0
  153.2155  135.3803  163.2134 H   0  0  0  0  0  0  0  0  0  0  0  0
  153.4823  136.3855  165.4511 H   0  0  0  0  0  0  0  0  0  0  0  0
  154.3660  138.6984  165.6922 H   0  0  0  0  0  0  0  0  0  0  0  0
  154.9870  140.0059  163.6695 H   0  0  0  0  0  0  0  0  0  0  0  0
  154.7304  139.0322  161.4277 H   0  0  0  0  0  0  0  0  0  0  0  0
  153.3092  137.9607  155.7132 H   0  0  0  0  0  0  0  0  0  0  0  0
  150.7613  137.1298  155.7400 H   0  0  0  0  0  0  0  0  0  0  0  0
  150.8333  139.1029  155.1539 H   0  0  0  0  0  0  0  0  0  0  0  0
  152.2179  141.1179  155.8600 H   0  0  0  0  0  0  0  0  0  0  0  0
  1  2  1  0  0  0  0
  1 28  1  0  0  0  0
  1 29  1  0  0  0  0
  1 30  1  0  0  0  0
  2 25  1  0  0  0  0
  2  3  2  0  0  0  0
  3  4  1  0  0  0  0
  3 31  1  0  0  0  0
  4  5  1  0  0  0  0
  4 22  1  0  0  0  0
  5 20  1  0  0  0  0
  5  6  1  0  0  0  0
  5 32  1  0  0  0  0
  6  7  1  0  0  0  0
  7  8  1  0  0  0  0
  7 18  1  0  0  0  0
  7 33  1  0  0  0  0
  8  9  1  0  0  0  0
  8 34  1  0  0  0  0
  8 35  1  0  0  0  0
  9 10  1  0  0  0  0
 10 11  2  0  0  0  0
 10 12  1  0  0  0  0
 12 17  1  0  0  0  0
 12 13  2  0  0  0  0
 13 14  1  0  0  0  0
 13 36  1  0  0  0  0
 14 15  2  0  0  0  0
 14 37  1  0  0  0  0
 15 16  1  0  0  0  0
 15 38  1  0  0  0  0
 16 17  2  0  0  0  0
 16 39  1  0  0  0  0
 17 40  1  0  0  0  0
 18 19  1  0  0  0  0
 18 20  1  0  0  0  0
 18 41  1  0  0  0  0
 19 42  1  0  0  0  0
 20 21  1  0  0  0  0
 20 43  1  0  0  0  0
 21 44  1  0  0  0  0
 22 23  2  0  0  0  0
 22 24  1  0  0  0  0
 24 27  1  0  0  0  0
 24 25  1  0  0  0  0
 25 26  2  0  0  0  0
M  END
> <s_m_source_file>
AV-unprocessed.smi

> <i_m_source_file_index>
101

> <i_lp_mmshare_version>
43012

> <i_f3d_flags>
0

> <s_epik_input>
Tz1jMVtuSF1jKD1PKW4oW2NIXWMxW0NIM10pW0NAQEhdMk9bQ0BIXShbQ0BASF0oW09IXSlbQ0BIXTJbT0hdKVtDSDJdT0MoPU8pYzNbY0hdW2NIXVtjSF1bY0hdW2NIXTM=

> <s_epik_cmdline>
J2VwaWtfcHl0aG9uJywgJy1waCcsICc3LjAnLCAnLXRuJywgJzgnLCAnLW1hJywgJzIwMCcsICctbWV0YWxfYmluZGluZycsICctaW1hZScsICc8aW5maWxlLm1hZT4nLCAnLW9tYWUnLCAnPG91dGZpbGUubWFlPic=

> <r_lp_tautomer_probability>
0.999537

> <r_epik_Ionization_Penalty>
0.00263537

> <r_epik_Ionization_Penalty_Charging>
0.00263428

> <r_epik_Ionization_Penalty_Neutral>
1.09111e-06

> <r_epik_State_Penalty>
0.00183335

> <r_epik_Charging_Adjusted_Penalty>
0.00446763

> <i_epik_Tot_Q>
0

> <i_epik_Tot_abs_Q>
0

> <r_epik_Metal_State_Penalty>
1.00528

> <b_epik_Metal_Only>
0

> <s_epik_Chemistry_Notes>
This compound has an ester and may undergo hydrolysis at high or low pH. This compound contains an acetal/aminal-like group ( X-CH(R)-Y where X, Y are N, S, or O) that may be acid/base labile, releasing an aldehyde.

> <s_lp_Force_Field>
OPLS_2005

> <r_lp_Energy>
37.3052

> <b_lp_Chiralities_Consistent>
1

> <s_lp_Variant>
AV-unprocessed.smi:101-9

> <Gold.Version>
5.8.1

> <Gold.Id.Protein>
6NUR|6NUR_protein|mol2

> <Gold.PLP.Fitness>
53.7188

> <Gold.PLP.PLP>
-42.0574

> <Gold.PLP.part.hbond>
-5.0000

> <Gold.PLP.part.metal>
0.0000

> <Gold.PLP.part.buried>
-4.1153

> <Gold.PLP.part.nonpolar>
-33.2037

> <Gold.PLP.part.repulsive>
0.2060

> <Gold.PLP.ligand.clash>
0.0000

> <Gold.PLP.ligand.torsion>
0.7481

> <Gold.PLP.Chemscore.Hbond>
4.3385

> <Gold.PLP.Chemscore.CHOScore>
0.0000

> <Gold.PLP.Chemscore.Metal>
0.0000

> <Gold.Chemscore.Hbonds>
donor molecule, donor type, donor heavy atom, donor atom, acceptor molecule, acceptor atom, score
      L1  H    24    27       P1  8028  1.00
      P1  H  6896  6909       L1    11  1.00
      P1  H  7989  7998       L1    21  0.22
      P1  H  7997  8010       L1    21  0.95
      P1  H 10752 10764       L1    19  0.36

> <Gold.PLP.Chemscore.Internal.Correction>
0.1420

> <Gold.Rescore>
     Score         DG    S(hbond)    S(metal)    S(lipo)     H(rot)  DE(clash)    DE(int)     intcor
     17.19     -18.02       3.21        0.00      88.01       3.32       0.07       0.75       ----

> <Gold.Chemscore.Fitness>
17.1906

> <Gold.Chemscore.DG>
-18.0154

> <Gold.Chemscore.ZeroCoef>
-5.4800

> <Gold.Chemscore.Hbond>
3.2127

> <Gold.Chemscore.Metal>
0.0000

> <Gold.Chemscore.Lipo>
88.0084

> <Gold.Chemscore.Internal_Hbond>
0.0000

> <Gold.Chemscore.DEClash>
0.0727

> <Gold.Chemscore.DEInternal>
0.7521

> <Gold.Chemscore.Rot>
3.3172

> <Gold.Chemscore.Internal.Correction>
   9.000000E+99

> <Gold.Chemscore.Hbonds>
donor molecule, donor type, donor heavy atom, donor atom, acceptor molecule, acceptor atom, score
      L1  H    24    27       P1  8028  0.96
      P1  H  6896  6909       L1    11  0.87
      P1  H  7989  7998       L1    21  0.01
      P1  H  7997  8010       L1    21  0.29
      P1  H 10752 10764       L1    19  0.12

> <Gold.Chemscore.Hbond.Weighted>
-10.7305

> <Gold.Chemscore.Metal.Weighted>
-0.0000

> <Gold.Chemscore.Lipo.Weighted>
-10.2970

> <Gold.Chemscore.Internal_Hbond.Weighted>
0.0000

> <Gold.Chemscore.DEClash.Weighted>
0.0727

> <Gold.Chemscore.DEInternal.Weighted>
0.7521

> <Gold.Chemscore.Rot.Weighted>
8.4920

> <Gold.Chemscore.Internal.Correction.Weighted>
   9.000000E+99

> <Gold.Protein.RotatedTorsions>
[ 6907 6896 6895 6894 ] final -176.85 input  -60.11 | X-H torsion
[ 7974 7965 7964 7962 ] final  -25.55 input  175.53 | X-H torsion
[ 8008 7997 7996 7995 ] final  107.76 input   59.86 | X-H torsion
[ 10167 10162 10161 10158 ] final  100.95 input  -65.29 | X-H torsion
[ 10718 10713 10712 10709 ] final   89.15 input   66.30 | X-H torsion
[ 10763 10752 10751 10750 ] final  -30.67 input  -60.55 | X-H torsion
[ 11005 11000 10999 10996 ] final -117.87 input  -57.11 | X-H torsion

> <Gold.Protein.ActiveResidues>
 VAL166  LYS551  ARG553  GLY616  TRP617  ASP618  TYR619  PRO620  LYS621  CYS622 
 ASP623  PHE694  ASN695  SER759  ASP760  ASP761  ALA762  ILE779  LEU786  VAL792 
 PHE793  MET794  SER795  GLU796  ALA797  LYS798  CYS799  TRP800  GLU811  SER814 

> <Gold.Protein.RotatedAtoms>
  151.6115  133.3347  159.3068 H   0  0  0  0  0  0  0  0  0  0  0  0  # atno 6907 bound_to 6896
  150.8154  134.7336  159.6737 H   0  0  0  0  0  0  0  0  0  0  0  0  # atno 6908 bound_to 6896
  152.4250  134.5890  160.0020 H   0  0  0  0  0  0  0  0  0  0  0  0  # atno 6909 bound_to 6896
  146.1483  140.4901  142.8622 H   0  0  0  0  0  0  0  0  0  0  0  0  # atno 7974 bound_to 7965
  156.1850  140.3089  155.9221 H   0  0  0  0  0  0  0  0  0  0  0  0  # atno 8008 bound_to 7997
  155.3301  140.0460  157.3059 H   0  0  0  0  0  0  0  0  0  0  0  0  # atno 8009 bound_to 7997
  154.5385  140.2254  155.8691 H   0  0  0  0  0  0  0  0  0  0  0  0  # atno 8010 bound_to 7997
  139.7481  144.6992  151.0473 H   0  0  0  0  0  0  0  0  0  0  0  0  # atno 10167 bound_to 10162
  157.6953  131.0322  150.3382 H   0  0  0  0  0  0  0  0  0  0  0  0  # atno 10718 bound_to 10713
  153.7848  135.6902  153.4882 H   0  0  0  0  0  0  0  0  0  0  0  0  # atno 10763 bound_to 10752
  153.1788  135.4514  154.9999 H   0  0  0  0  0  0  0  0  0  0  0  0  # atno 10764 bound_to 10752
  154.8067  135.3360  154.7348 H   0  0  0  0  0  0  0  0  0  0  0  0  # atno 10765 bound_to 10752
  141.0325  133.9960  157.3121 H   0  0  0  0  0  0  0  0  0  0  0  0  # atno 11005 bound_to 11000
  144.7873  140.5963  143.6565 LP  0  0  0  0  0  0  0  0  0  0  0  0  # atno 17320 bound_to 7965
  145.4883  139.1490  143.3723 LP  0  0  0  0  0  0  0  0  0  0  0  0  # atno 17321 bound_to 7965
  140.7794  143.4842  150.9978 LP  0  0  0  0  0  0  0  0  0  0  0  0  # atno 17342 bound_to 10162
  139.8530  143.7414  152.3177 LP  0  0  0  0  0  0  0  0  0  0  0  0  # atno 17343 bound_to 10162
  156.3846  130.3887  149.7075 LP  0  0  0  0  0  0  0  0  0  0  0  0  # atno 17370 bound_to 10713
  156.4446  130.7877  151.2899 LP  0  0  0  0  0  0  0  0  0  0  0  0  # atno 17371 bound_to 10713
  139.9217  135.0200  156.8090 LP  0  0  0  0  0  0  0  0  0  0  0  0  # atno 17394 bound_to 11000
  140.6381  133.9843  155.7694 LP  0  0  0  0  0  0  0  0  0  0  0  0  # atno 17395 bound_to 11000

$$$$
