AV-unprocessed.smi:244|AV-procd|sdf|1871|dock2
  -GOLD-   2262020513D 1   1.00000     0.00000
 Structure written by MMmdl.
 57 61  0  0  0  0  0  0  0  0  2 V2000
  146.0739  137.6329  152.9565 C   0  0  0  0  0  0  0  0  0  0  0  0
  146.3988  136.2285  152.6264 N   0  3  2  0  0  0  0  0  0  0  0  0
  145.4321  135.6368  151.6677 C   0  0  0  0  0  0  0  0  0  0  0  0
  145.8568  134.2170  151.2583 C   0  0  0  0  0  0  0  0  0  0  0  0
  146.0214  133.3295  152.4978 C   0  0  1  0  0  0  0  0  0  0  0  0
  146.4716  132.0374  152.1065 O   0  0  0  0  0  0  0  0  0  0  0  0
  146.5774  131.1573  153.2209 C   0  0  0  0  0  0  0  0  0  0  0  0
  147.5963  131.7213  154.2246 C   0  0  0  0  0  0  0  0  0  0  0  0
  147.2300  133.0799  154.6159 N   0  0  0  0  0  0  0  0  0  0  0  0
  148.0365  133.5703  155.5837 C   0  0  0  0  0  0  0  0  0  0  0  0
  149.3801  133.3773  155.5158 N   0  0  0  0  0  0  0  0  0  0  0  0
  150.1736  133.8842  156.4645 C   0  0  0  0  0  0  0  0  0  0  0  0
  149.8380  134.6088  157.5345 N   0  0  0  0  0  0  0  0  0  0  0  0
  148.4900  134.8099  157.5960 C   0  0  0  0  0  0  0  0  0  0  0  0
  147.5254  134.3252  156.6702 C   0  0  0  0  0  0  0  0  0  0  0  0
  146.2516  134.7256  157.0503 N   0  0  0  0  0  0  0  0  0  0  0  0
  146.4510  135.4059  158.1466 C   0  0  0  0  0  0  0  0  0  0  0  0
  147.7672  135.5227  158.5365 N   0  0  0  0  0  0  0  0  0  0  0  0
  148.2708  136.2289  159.7044 C   0  0  0  0  0  0  0  0  0  0  0  0
  147.4862  135.9493  161.0119 C   0  0  0  0  0  0  0  0  0  0  0  0
  148.1776  136.6628  162.0214 O   0  0  0  0  0  0  0  0  0  0  0  0
  146.0301  136.4609  160.9636 C   0  0  0  0  0  0  0  0  0  0  0  0
  145.2490  136.0893  162.2371 C   0  0  0  0  0  0  0  0  0  0  0  0
  145.2918  134.6816  162.4406 O   0  0  0  0  0  0  0  0  0  0  0  0
  146.6117  134.1918  162.6470 C   0  0  0  0  0  0  0  0  0  0  0  0
  147.4718  134.4539  161.3975 C   0  0  0  0  0  0  0  0  0  0  0  0
  147.0466  133.9635  153.4620 C   0  0  2  0  0  0  0  0  0  0  0  0
  146.5778  135.3899  153.8389 C   0  0  0  0  0  0  0  0  0  0  0  0
  145.1155  137.7024  153.4727 H   0  0  0  0  0  0  0  0  0  0  0  0
  146.0199  138.2382  152.0511 H   0  0  0  0  0  0  0  0  0  0  0  0
  146.8410  138.0659  153.5991 H   0  0  0  0  0  0  0  0  0  0  0  0
  144.4381  135.6160  152.1174 H   0  0  0  0  0  0  0  0  0  0  0  0
  145.3656  136.2668  150.7798 H   0  0  0  0  0  0  0  0  0  0  0  0
  145.1158  133.7855  150.5848 H   0  0  0  0  0  0  0  0  0  0  0  0
  146.7955  134.2579  150.7039 H   0  0  0  0  0  0  0  0  0  0  0  0
  145.0520  133.2339  152.9917 H   0  0  0  0  0  0  0  0  0  0  0  0
  145.6012  131.0239  153.6899 H   0  0  0  0  0  0  0  0  0  0  0  0
  146.8986  130.1765  152.8701 H   0  0  0  0  0  0  0  0  0  0  0  0
  147.6424  131.0810  155.1066 H   0  0  0  0  0  0  0  0  0  0  0  0
  148.5894  131.7199  153.7729 H   0  0  0  0  0  0  0  0  0  0  0  0
  151.2286  133.6838  156.3480 H   0  0  0  0  0  0  0  0  0  0  0  0
  145.6386  135.8549  158.6996 H   0  0  0  0  0  0  0  0  0  0  0  0
  149.3196  135.9567  159.8326 H   0  0  0  0  0  0  0  0  0  0  0  0
  148.2621  137.2974  159.4827 H   0  0  0  0  0  0  0  0  0  0  0  0
  148.6303  136.0425  162.5722 H   0  0  0  0  0  0  0  0  0  0  0  0
  146.0069  137.5403  160.8090 H   0  0  0  0  0  0  0  0  0  0  0  0
  145.5100  136.0174  160.1148 H   0  0  0  0  0  0  0  0  0  0  0  0
  145.6474  136.6075  163.1107 H   0  0  0  0  0  0  0  0  0  0  0  0
  144.2078  136.3960  162.1377 H   0  0  0  0  0  0  0  0  0  0  0  0
  147.0499  134.6534  163.5333 H   0  0  0  0  0  0  0  0  0  0  0  0
  146.5594  133.1209  162.8439 H   0  0  0  0  0  0  0  0  0  0  0  0
  147.0560  133.8645  160.5808 H   0  0  0  0  0  0  0  0  0  0  0  0
  148.4871  134.0879  161.5557 H   0  0  0  0  0  0  0  0  0  0  0  0
  148.0052  134.0410  152.9454 H   0  0  0  0  0  0  0  0  0  0  0  0
  147.3127  135.8750  154.4825 H   0  0  0  0  0  0  0  0  0  0  0  0
  145.6423  135.3480  154.3996 H   0  0  0  0  0  0  0  0  0  0  0  0
  147.2932  136.2456  152.1571 H   0  0  0  0  0  0  0  0  0  0  0  0
  1  2  1  0  0  0  0
  1 29  1  0  0  0  0
  1 30  1  0  0  0  0
  1 31  1  0  0  0  0
  2 28  1  0  0  0  0
  2  3  1  0  0  0  0
  2 57  1  0  0  0  0
  3  4  1  0  0  0  0
  3 32  1  0  0  0  0
  3 33  1  0  0  0  0
  4  5  1  0  0  0  0
  4 34  1  0  0  0  0
  4 35  1  0  0  0  0
  5 27  1  0  0  0  0
  5  6  1  0  0  0  0
  5 36  1  0  0  0  0
  6  7  1  0  0  0  0
  7  8  1  0  0  0  0
  7 37  1  0  0  0  0
  7 38  1  0  0  0  0
  8  9  1  0  0  0  0
  8 39  1  0  0  0  0
  8 40  1  0  0  0  0
  9 10  1  0  0  0  0
  9 27  1  0  0  0  0
 10 15  1  0  0  0  0
 10 11  2  0  0  0  0
 11 12  1  0  0  0  0
 12 13  2  0  0  0  0
 12 41  1  0  0  0  0
 13 14  1  0  0  0  0
 14 18  1  0  0  0  0
 14 15  2  0  0  0  0
 15 16  1  0  0  0  0
 16 17  2  0  0  0  0
 17 18  1  0  0  0  0
 17 42  1  0  0  0  0
 18 19  1  0  0  0  0
 19 20  1  0  0  0  0
 19 43  1  0  0  0  0
 19 44  1  0  0  0  0
 20 26  1  0  0  0  0
 20 21  1  0  0  0  0
 20 22  1  0  0  0  0
 21 45  1  0  0  0  0
 22 23  1  0  0  0  0
 22 46  1  0  0  0  0
 22 47  1  0  0  0  0
 23 24  1  0  0  0  0
 23 48  1  0  0  0  0
 23 49  1  0  0  0  0
 24 25  1  0  0  0  0
 25 26  1  0  0  0  0
 25 50  1  0  0  0  0
 25 51  1  0  0  0  0
 26 52  1  0  0  0  0
 26 53  1  0  0  0  0
 27 28  1  0  0  0  0
 27 54  1  0  0  0  0
 28 55  1  0  0  0  0
 28 56  1  0  0  0  0
M  CHG  1   2   1
M  END
> <s_m_source_file>
AV-unprocessed.smi

> <i_m_source_file_index>
244

> <i_lp_mmshare_version>
43012

> <i_f3d_flags>
0

> <s_epik_input>
W0NIMl0xW0NIMl1OKFtDSDNdKVtDSDJdW0NAQEhdKFtDQEhdMTIpTihbQ0gyXVtDSDJdTzIpYyhuW2NIXW4zKWMoYzM0KW5bY0hdbjRbQ0gyXUM1KFtPSF0pW0NIMl1bQ0gyXU9bQ0gyXVtDSDJdNQ==

> <s_epik_cmdline>
J2VwaWtfcHl0aG9uJywgJy1waCcsICc3LjAnLCAnLXRuJywgJzgnLCAnLW1hJywgJzIwMCcsICctbWV0YWxfYmluZGluZycsICctaW1hZScsICc8aW5maWxlLm1hZT4nLCAnLW9tYWUnLCAnPG91dGZpbGUubWFlPic=

> <r_lp_tautomer_probability>
1

> <r_epik_Ionization_Penalty>
0.0136215

> <r_epik_Ionization_Penalty_Charging>
0.0131385

> <r_epik_Ionization_Penalty_Neutral>
0.000483022

> <r_epik_State_Penalty>
0.0104001

> <r_epik_Charging_Adjusted_Penalty>
0.0235387

> <i_epik_Tot_Q>
1

> <i_epik_Tot_abs_Q>
1

> <r_epik_Metal_State_Penalty>
0.0104469

> <b_epik_Metal_Only>
0

> <s_lp_Force_Field>
OPLS_2005

> <r_lp_Energy>
42.2984

> <b_lp_Chiralities_Consistent>
1

> <s_lp_Variant>
AV-unprocessed.smi:244-8

> <Gold.Version>
5.8.1

> <Gold.Id.Protein>
6NUR|6NUR_protein|mol2

> <Gold.PLP.Fitness>
41.6518

> <Gold.PLP.PLP>
-31.2358

> <Gold.PLP.part.hbond>
-3.0000

> <Gold.PLP.part.metal>
0.0000

> <Gold.PLP.part.buried>
-6.0078

> <Gold.PLP.part.nonpolar>
-23.5594

> <Gold.PLP.part.repulsive>
0.2017

> <Gold.PLP.ligand.clash>
0.0000

> <Gold.PLP.ligand.torsion>
0.7803

> <Gold.PLP.Chemscore.Hbond>
3.9440

> <Gold.PLP.Chemscore.CHOScore>
0.0000

> <Gold.PLP.Chemscore.Metal>
0.0000

> <Gold.Chemscore.Hbonds>
donor molecule, donor type, donor heavy atom, donor atom, acceptor molecule, acceptor atom, score
      L1  H     2    57       P1  7948  2.00
      P1  H  6896  6908       L1    13  0.89
      P1  H  6931  6943       L1    21  1.00

> <Gold.PLP.Chemscore.Internal.Correction>
0.1446

> <Gold.Rescore>
     Score         DG    S(hbond)    S(metal)    S(lipo)     H(rot)  DE(clash)    DE(int)     intcor
     17.55     -18.32       2.91        0.00      72.45       2.09       0.02       0.75       ----

> <Gold.Chemscore.Fitness>
17.5533

> <Gold.Chemscore.DG>
-18.3238

> <Gold.Chemscore.ZeroCoef>
-5.4800

> <Gold.Chemscore.Hbond>
2.9101

> <Gold.Chemscore.Metal>
0.0000

> <Gold.Chemscore.Lipo>
72.4533

> <Gold.Chemscore.Internal_Hbond>
0.0000

> <Gold.Chemscore.DEClash>
0.0164

> <Gold.Chemscore.DEInternal>
0.7541

> <Gold.Chemscore.Rot>
2.0911

> <Gold.Chemscore.Internal.Correction>
   9.000000E+99

> <Gold.Chemscore.Hbonds>
donor molecule, donor type, donor heavy atom, donor atom, acceptor molecule, acceptor atom, score
      L1  H     2    57       P1  7948  1.00
      P1  H  6896  6908       L1    13  0.69
      P1  H  6931  6943       L1    21  0.82

> <Gold.Chemscore.Hbond.Weighted>
-9.7198

> <Gold.Chemscore.Metal.Weighted>
-0.0000

> <Gold.Chemscore.Lipo.Weighted>
-8.4770

> <Gold.Chemscore.Internal_Hbond.Weighted>
0.0000

> <Gold.Chemscore.DEClash.Weighted>
0.0164

> <Gold.Chemscore.DEInternal.Weighted>
0.7541

> <Gold.Chemscore.Rot.Weighted>
5.3531

> <Gold.Chemscore.Internal.Correction.Weighted>
   9.000000E+99

> <Gold.Protein.RotatedTorsions>
[ 6907 6896 6895 6894 ] final  140.09 input  -60.11 | X-H torsion
[ 7974 7965 7964 7962 ] final  -74.82 input  175.53 | X-H torsion
[ 8008 7997 7996 7995 ] final   35.78 input   59.86 | X-H torsion
[ 10167 10162 10161 10158 ] final  -11.63 input  -65.29 | X-H torsion
[ 10718 10713 10712 10709 ] final -176.99 input   66.30 | X-H torsion
[ 10763 10752 10751 10750 ] final -159.10 input  -60.55 | X-H torsion
[ 11005 11000 10999 10996 ] final  -96.84 input  -57.11 | X-H torsion

> <Gold.Protein.ActiveResidues>
 VAL166  LYS551  ARG553  GLY616  TRP617  ASP618  TYR619  PRO620  LYS621  CYS622 
 ASP623  PHE694  ASN695  SER759  ASP760  ASP761  ALA762  ILE779  LEU786  VAL792 
 PHE793  MET794  SER795  GLU796  ALA797  LYS798  CYS799  TRP800  GLU811  SER814 

> <Gold.Protein.RotatedAtoms>
  152.2472  133.5184  159.5303 H   0  0  0  0  0  0  0  0  0  0  0  0  # atno 6907 bound_to 6896
  150.7082  134.1009  159.3974 H   0  0  0  0  0  0  0  0  0  0  0  0  # atno 6908 bound_to 6896
  151.8929  135.0409  160.0550 H   0  0  0  0  0  0  0  0  0  0  0  0  # atno 6909 bound_to 6896
  145.6341  140.9329  143.1071 H   0  0  0  0  0  0  0  0  0  0  0  0  # atno 7974 bound_to 7965
  155.1767  140.3296  155.4382 H   0  0  0  0  0  0  0  0  0  0  0  0  # atno 8008 bound_to 7997
  156.2491  140.1934  156.6818 H   0  0  0  0  0  0  0  0  0  0  0  0  # atno 8009 bound_to 7997
  154.6299  140.0584  156.9706 H   0  0  0  0  0  0  0  0  0  0  0  0  # atno 8010 bound_to 7997
  140.7143  143.5618  150.9187 H   0  0  0  0  0  0  0  0  0  0  0  0  # atno 10167 bound_to 10162
  156.8228  130.9626  151.3111 H   0  0  0  0  0  0  0  0  0  0  0  0  # atno 10718 bound_to 10713
  154.7503  135.3090  154.8570 H   0  0  0  0  0  0  0  0  0  0  0  0  # atno 10763 bound_to 10752
  153.9360  135.6780  153.4749 H   0  0  0  0  0  0  0  0  0  0  0  0  # atno 10764 bound_to 10752
  153.1099  135.4871  154.8944 H   0  0  0  0  0  0  0  0  0  0  0  0  # atno 10765 bound_to 10752
  141.1398  133.8127  157.0626 H   0  0  0  0  0  0  0  0  0  0  0  0  # atno 11005 bound_to 11000
  144.7182  139.8121  143.7391 LP  0  0  0  0  0  0  0  0  0  0  0  0  # atno 17320 bound_to 7965
  146.1333  139.4373  143.0155 LP  0  0  0  0  0  0  0  0  0  0  0  0  # atno 17321 bound_to 7965
  139.9344  143.6455  152.3069 LP  0  0  0  0  0  0  0  0  0  0  0  0  # atno 17342 bound_to 10162
  139.6918  144.7646  151.1426 LP  0  0  0  0  0  0  0  0  0  0  0  0  # atno 17343 bound_to 10162
  157.6448  130.8835  149.9516 LP  0  0  0  0  0  0  0  0  0  0  0  0  # atno 17370 bound_to 10713
  156.0979  130.3658  150.0273 LP  0  0  0  0  0  0  0  0  0  0  0  0  # atno 17371 bound_to 10713
  140.0562  134.9779  157.1224 LP  0  0  0  0  0  0  0  0  0  0  0  0  # atno 17394 bound_to 11000
  140.3916  134.2178  155.7166 LP  0  0  0  0  0  0  0  0  0  0  0  0  # atno 17395 bound_to 11000

$$$$
