AV-unprocessed.smi:2446|AV-procd|sdf|9642|dock1
  -GOLD-   2272013273D 1   1.00000     0.00000
 Structure written by MMmdl.
 39 40  0  0  0  0  0  0  0  0  1 V2000
  146.9698  142.6754  154.2862 C   0  0  0  0  0  0  0  0  0  0  0  0
  147.6456  141.3156  154.2369 C   0  0  0  0  0  0  0  0  0  0  0  0
  147.0303  140.2480  153.5486 C   0  0  0  0  0  0  0  0  0  0  0  0
  147.5624  139.0117  153.4604 N   0  0  0  0  0  0  0  0  0  0  0  0
  148.7446  138.7911  154.0709 C   0  0  0  0  0  0  0  0  0  0  0  0
  149.4462  139.7825  154.7840 C   0  0  0  0  0  0  0  0  0  0  0  0
  148.8944  141.0842  154.8633 C   0  0  0  0  0  0  0  0  0  0  0  0
  149.5074  142.1560  155.5706 N   0  0  0  0  0  0  0  0  0  0  0  0
  150.2651  142.1243  156.6847 C   0  0  0  0  0  0  0  0  0  0  0  0
  150.5429  141.1085  157.3182 O   0  0  0  0  0  0  0  0  0  0  0  0
  150.7326  143.3280  157.0650 N   0  0  0  0  0  0  0  0  0  0  0  0
  151.5775  143.6549  158.2164 C   0  0  1  0  0  0  0  0  0  0  0  0
  150.7388  144.3941  159.2742 C   0  0  0  0  0  0  0  0  0  0  0  0
  151.5703  144.7058  160.5276 C   0  0  0  0  0  0  0  0  0  0  0  0
  152.1951  143.4305  161.1150 C   0  0  0  0  0  0  0  0  0  0  0  0
  153.0494  142.6832  160.0694 C   0  0  1  0  0  0  0  0  0  0  0  0
  153.6991  141.4111  160.6518 C   0  0  0  0  0  0  0  0  0  0  0  0
  154.0997  141.6145  161.9073 F   0  0  0  0  0  0  0  0  0  0  0  0
  152.8245  140.4049  160.6360 F   0  0  0  0  0  0  0  0  0  0  0  0
  154.7522  141.0581  159.9149 F   0  0  0  0  0  0  0  0  0  0  0  0
  152.2021  142.3767  158.8162 C   0  0  0  0  0  0  0  0  0  0  0  0
  146.0102  142.6598  153.7686 H   0  0  0  0  0  0  0  0  0  0  0  0
  147.5971  143.4298  153.8104 H   0  0  0  0  0  0  0  0  0  0  0  0
  146.7908  142.9755  155.3191 H   0  0  0  0  0  0  0  0  0  0  0  0
  146.0802  140.3872  153.0539 H   0  0  0  0  0  0  0  0  0  0  0  0
  149.1427  137.7900  153.9944 H   0  0  0  0  0  0  0  0  0  0  0  0
  150.3778  139.5202  155.2604 H   0  0  0  0  0  0  0  0  0  0  0  0
  149.4240  143.0598  155.1292 H   0  0  0  0  0  0  0  0  0  0  0  0
  150.4644  144.1114  156.4868 H   0  0  0  0  0  0  0  0  0  0  0  0
  152.3763  144.3289  157.9016 H   0  0  0  0  0  0  0  0  0  0  0  0
  150.3437  145.3213  158.8570 H   0  0  0  0  0  0  0  0  0  0  0  0
  149.8757  143.7886  159.5548 H   0  0  0  0  0  0  0  0  0  0  0  0
  152.3582  145.4170  160.2764 H   0  0  0  0  0  0  0  0  0  0  0  0
  150.9438  145.1909  161.2767 H   0  0  0  0  0  0  0  0  0  0  0  0
  152.8047  143.6930  161.9799 H   0  0  0  0  0  0  0  0  0  0  0  0
  151.4042  142.7759  161.4832 H   0  0  0  0  0  0  0  0  0  0  0  0
  153.8585  143.3496  159.7658 H   0  0  0  0  0  0  0  0  0  0  0  0
  151.4124  141.6690  159.0726 H   0  0  0  0  0  0  0  0  0  0  0  0
  152.8225  141.8814  158.0694 H   0  0  0  0  0  0  0  0  0  0  0  0
  1  2  1  0  0  0  0
  1 22  1  0  0  0  0
  1 23  1  0  0  0  0
  1 24  1  0  0  0  0
  2  7  1  0  0  0  0
  2  3  2  0  0  0  0
  3  4  1  0  0  0  0
  3 25  1  0  0  0  0
  4  5  2  0  0  0  0
  5  6  1  0  0  0  0
  5 26  1  0  0  0  0
  6  7  2  0  0  0  0
  6 27  1  0  0  0  0
  7  8  1  0  0  0  0
  8  9  1  0  0  0  0
  8 28  1  0  0  0  0
  9 10  2  0  0  0  0
  9 11  1  0  0  0  0
 11 12  1  0  0  0  0
 11 29  1  0  0  0  0
 12 21  1  0  0  0  0
 12 13  1  0  0  0  0
 12 30  1  0  0  0  0
 13 14  1  0  0  0  0
 13 31  1  0  0  0  0
 13 32  1  0  0  0  0
 14 15  1  0  0  0  0
 14 33  1  0  0  0  0
 14 34  1  0  0  0  0
 15 16  1  0  0  0  0
 15 35  1  0  0  0  0
 15 36  1  0  0  0  0
 16 17  1  0  0  0  0
 16 21  1  0  0  0  0
 16 37  1  0  0  0  0
 17 18  1  0  0  0  0
 17 19  1  0  0  0  0
 17 20  1  0  0  0  0
 21 38  1  0  0  0  0
 21 39  1  0  0  0  0
M  END
> <s_m_source_file>
AV-unprocessed.smi

> <i_m_source_file_index>
2446

> <i_lp_mmshare_version>
43012

> <i_f3d_flags>
0

> <s_epik_input>
W0NIM11jMVtjSF1uW2NIXVtjSF1jMVtOSF1DKD1PKVtOSF1bQ0BASF0yW0NIMl1bQ0gyXVtDSDJdW0NAQEhdKEMoRikoRilGKVtDSDJdMg==

> <s_epik_cmdline>
J2VwaWtfcHl0aG9uJywgJy1waCcsICc3LjAnLCAnLXRuJywgJzgnLCAnLW1hJywgJzIwMCcsICctbWV0YWxfYmluZGluZycsICctaW1hZScsICc8aW5maWxlLm1hZT4nLCAnLW9tYWUnLCAnPG91dGZpbGUubWFlPic=

> <r_epik_Ionization_Penalty>
0.20168

> <r_epik_Ionization_Penalty_Charging>
0

> <r_epik_Ionization_Penalty_Neutral>
0.20168

> <r_epik_State_Penalty>
0.191514

> <r_epik_Charging_Adjusted_Penalty>
0.191514

> <i_epik_Tot_Q>
0

> <i_epik_Tot_abs_Q>
0

> <r_epik_Metal_State_Penalty>
0.142371

> <b_epik_Metal_Only>
0

> <s_lp_Force_Field>
OPLS_2005

> <r_lp_Energy>
26.2068

> <b_lp_Chiralities_Consistent>
1

> <s_lp_Variant>
AV-unprocessed.smi:2446-2

> <Gold.Version>
5.8.1

> <Gold.Id.Protein>
6NUR|6NUR_protein|mol2

> <Gold.PLP.Fitness>
48.4561

> <Gold.PLP.PLP>
-46.1962

> <Gold.PLP.part.hbond>
-2.0000

> <Gold.PLP.part.metal>
0.0000

> <Gold.PLP.part.buried>
-2.3619

> <Gold.PLP.part.nonpolar>
-43.9411

> <Gold.PLP.part.repulsive>
1.3094

> <Gold.PLP.ligand.clash>
6.3896

> <Gold.PLP.ligand.torsion>
0.9190

> <Gold.PLP.Chemscore.Hbond>
1.5200

> <Gold.PLP.Chemscore.CHOScore>
1.9693

> <Gold.PLP.Chemscore.Metal>
0.0000

> <Gold.Chemscore.Hbonds>
donor molecule, donor type, donor heavy atom, donor atom, acceptor molecule, acceptor atom, score
      L1  H     8    28       P1  8028  0.74
      L1  H    11    29       P1  8028  0.75
      L1  C     3    25       P1 10175  1.00
      L1  C     5    26       P1  7948  0.69

> <Gold.PLP.Chemscore.Internal.Correction>
0.0197

> <Gold.Rescore>
     Score         DG    S(hbond)    S(metal)    S(lipo)     H(rot)  DE(clash)    DE(int)     intcor
     18.69     -22.12       1.84        0.00     111.67       1.00       0.76       2.67       ----

> <Gold.Chemscore.Fitness>
18.6894

> <Gold.Chemscore.DG>
-22.1154

> <Gold.Chemscore.ZeroCoef>
-5.4800

> <Gold.Chemscore.Hbond>
1.8355

> <Gold.Chemscore.Metal>
0.0000

> <Gold.Chemscore.Lipo>
111.6669

> <Gold.Chemscore.Internal_Hbond>
0.0000

> <Gold.Chemscore.DEClash>
0.7570

> <Gold.Chemscore.DEInternal>
2.6690

> <Gold.Chemscore.Rot>
1.0000

> <Gold.Chemscore.Internal.Correction>
   9.000000E+99

> <Gold.Chemscore.Hbonds>
donor molecule, donor type, donor heavy atom, donor atom, acceptor molecule, acceptor atom, score
      L1  H     8    28       P1  8028  0.72
      L1  H    11    29       P1  8028  0.76

> <Gold.Chemscore.Hbond.Weighted>
-6.1304

> <Gold.Chemscore.Metal.Weighted>
-0.0000

> <Gold.Chemscore.Lipo.Weighted>
-13.0650

> <Gold.Chemscore.Internal_Hbond.Weighted>
0.0000

> <Gold.Chemscore.DEClash.Weighted>
0.7570

> <Gold.Chemscore.DEInternal.Weighted>
2.6690

> <Gold.Chemscore.Rot.Weighted>
2.5600

> <Gold.Chemscore.Internal.Correction.Weighted>
   9.000000E+99

> <Gold.Protein.RotatedTorsions>
[ 6907 6896 6895 6894 ] final  163.44 input  -60.11 | X-H torsion
[ 7974 7965 7964 7962 ] final    5.70 input  175.53 | X-H torsion
[ 8008 7997 7996 7995 ] final   45.61 input   59.86 | X-H torsion
[ 10167 10162 10161 10158 ] final  135.45 input  -65.29 | X-H torsion
[ 10718 10713 10712 10709 ] final   48.84 input   66.30 | X-H torsion
[ 10763 10752 10751 10750 ] final  139.99 input  -60.55 | X-H torsion
[ 11005 11000 10999 10996 ] final -127.43 input  -57.11 | X-H torsion

> <Gold.Protein.ActiveResidues>
 VAL166  LYS551  ARG553  GLY616  TRP617  ASP618  TYR619  PRO620  LYS621  CYS622 
 ASP623  PHE694  ASN695  SER759  ASP760  ASP761  ALA762  ILE779  LEU786  VAL792 
 PHE793  MET794  SER795  GLU796  ALA797  LYS798  CYS799  TRP800  GLU811  SER814 

> <Gold.Protein.RotatedAtoms>
  151.9252  133.3596  159.3910 H   0  0  0  0  0  0  0  0  0  0  0  0  # atno 6907 bound_to 6896
  150.7028  134.4594  159.5383 H   0  0  0  0  0  0  0  0  0  0  0  0  # atno 6908 bound_to 6896
  152.2225  134.8399  160.0535 H   0  0  0  0  0  0  0  0  0  0  0  0  # atno 6909 bound_to 6896
  146.2439  140.0344  142.8387 H   0  0  0  0  0  0  0  0  0  0  0  0  # atno 7974 bound_to 7965
  155.3387  140.3407  155.4239 H   0  0  0  0  0  0  0  0  0  0  0  0  # atno 8008 bound_to 7997
  156.1824  140.1668  156.8285 H   0  0  0  0  0  0  0  0  0  0  0  0  # atno 8009 bound_to 7997
  154.5348  140.0737  156.8392 H   0  0  0  0  0  0  0  0  0  0  0  0  # atno 8010 bound_to 7997
  139.5216  144.6516  151.5285 H   0  0  0  0  0  0  0  0  0  0  0  0  # atno 10167 bound_to 10162
  157.4727  130.8265  149.8005 H   0  0  0  0  0  0  0  0  0  0  0  0  # atno 10718 bound_to 10713
  153.9152  135.3006  155.3448 H   0  0  0  0  0  0  0  0  0  0  0  0  # atno 10763 bound_to 10752
  154.7603  135.4937  153.9455 H   0  0  0  0  0  0  0  0  0  0  0  0  # atno 10764 bound_to 10752
  153.1171  135.6773  153.9501 H   0  0  0  0  0  0  0  0  0  0  0  0  # atno 10765 bound_to 10752
  140.9600  134.0949  157.3978 H   0  0  0  0  0  0  0  0  0  0  0  0  # atno 11005 bound_to 11000
  145.1125  140.9414  143.4648 LP  0  0  0  0  0  0  0  0  0  0  0  0  # atno 17320 bound_to 7965
  145.0561  139.3142  143.5904 LP  0  0  0  0  0  0  0  0  0  0  0  0  # atno 17321 bound_to 7965
  140.6323  143.9051  150.6616 LP  0  0  0  0  0  0  0  0  0  0  0  0  # atno 17342 bound_to 10162
  140.2360  143.3700  152.1527 LP  0  0  0  0  0  0  0  0  0  0  0  0  # atno 17343 bound_to 10162
  156.0081  130.3846  150.2359 LP  0  0  0  0  0  0  0  0  0  0  0  0  # atno 17370 bound_to 10713
  157.0542  131.0071  151.3244 LP  0  0  0  0  0  0  0  0  0  0  0  0  # atno 17371 bound_to 10713
  139.8875  135.0090  156.6563 LP  0  0  0  0  0  0  0  0  0  0  0  0  # atno 17394 bound_to 11000
  140.7481  133.8920  155.8327 LP  0  0  0  0  0  0  0  0  0  0  0  0  # atno 17395 bound_to 11000

$$$$
