AV-unprocessed.smi:205|AV-procd|sdf|1600|dock2
  -GOLD-   2262019503D 1   1.00000     0.00000
 Structure written by MMmdl.
 54 56  0  0  0  0  0  0  0  0  1 V2000
  151.5499  142.9505  162.3326 O   0  0  0  0  0  0  0  0  0  0  0  0
  152.7266  142.9197  161.5530 C   0  0  0  0  0  0  0  0  0  0  0  0
  152.6469  141.7851  160.5246 C   0  0  0  0  0  0  0  0  0  0  0  0
  151.7425  142.1530  159.4964 O   0  0  0  0  0  0  0  0  0  0  0  0
  151.4848  141.0940  158.5898 C   0  0  0  0  0  0  0  0  0  0  0  0
  151.5247  141.6385  157.1504 C   0  0  0  0  0  0  0  0  0  0  0  0
  150.9824  140.7163  156.1515 N   0  0  0  0  0  0  0  0  0  0  0  0
  151.3170  139.2984  156.2802 C   0  0  0  0  0  0  0  0  0  0  0  0
  151.9253  138.6969  154.9998 C   0  0  0  0  0  0  0  0  0  0  0  0
  151.8344  137.2883  155.0253 O   0  0  0  0  0  0  0  0  0  0  0  0
  149.7704  140.9684  155.5968 C   0  0  0  0  0  0  0  0  0  0  0  0
  149.6035  140.6303  154.2929 N   0  0  0  0  0  0  0  0  0  0  0  0
  148.4406  140.8648  153.6793 C   0  0  0  0  0  0  0  0  0  0  0  0
  147.3331  141.4191  154.1751 N   0  0  0  0  0  0  0  0  0  0  0  0
  147.4898  141.7526  155.4885 C   0  0  0  0  0  0  0  0  0  0  0  0
  148.6604  141.5525  156.2747 C   0  0  0  0  0  0  0  0  0  0  0  0
  148.4302  141.9840  157.5762 N   0  0  0  0  0  0  0  0  0  0  0  0
  147.2032  142.4264  157.5559 C   0  0  0  0  0  0  0  0  0  0  0  0
  146.5757  142.3589  156.3331 N   0  0  0  0  0  0  0  0  0  0  0  0
  145.2262  142.7467  156.0431 C   0  0  0  0  0  0  0  0  0  0  0  0
  144.7325  142.8704  154.5986 C   0  0  0  0  0  0  0  0  0  0  0  0
  143.8768  144.0984  154.9790 C   0  0  0  0  0  0  0  0  0  0  0  0
  143.9959  145.2947  154.0224 C   0  0  0  0  0  0  0  0  0  0  0  0
  143.6262  144.9378  152.7059 O   0  0  0  0  0  0  0  0  0  0  0  0
  142.3703  143.8599  155.2236 C   0  0  0  0  0  0  0  0  0  0  0  0
  141.6343  143.6747  154.0315 O   0  0  0  0  0  0  0  0  0  0  0  0
  144.7670  144.1956  156.2381 C   0  0  0  0  0  0  0  0  0  0  0  0
  151.6701  143.5722  163.0340 H   0  0  0  0  0  0  0  0  0  0  0  0
  152.8920  143.8834  161.0702 H   0  0  0  0  0  0  0  0  0  0  0  0
  153.5650  142.7481  162.2284 H   0  0  0  0  0  0  0  0  0  0  0  0
  153.6313  141.6317  160.0799 H   0  0  0  0  0  0  0  0  0  0  0  0
  152.3558  140.8464  161.0000 H   0  0  0  0  0  0  0  0  0  0  0  0
  152.2509  140.3260  158.7046 H   0  0  0  0  0  0  0  0  0  0  0  0
  150.5284  140.6217  158.8152 H   0  0  0  0  0  0  0  0  0  0  0  0
  150.9546  142.5672  157.1092 H   0  0  0  0  0  0  0  0  0  0  0  0
  152.5466  141.9036  156.8800 H   0  0  0  0  0  0  0  0  0  0  0  0
  152.0304  139.1788  157.0963 H   0  0  0  0  0  0  0  0  0  0  0  0
  150.4331  138.7373  156.5859 H   0  0  0  0  0  0  0  0  0  0  0  0
  151.4648  139.0944  154.0950 H   0  0  0  0  0  0  0  0  0  0  0  0
  152.9849  138.9484  154.9518 H   0  0  0  0  0  0  0  0  0  0  0  0
  151.0354  137.0303  154.5916 H   0  0  0  0  0  0  0  0  0  0  0  0
  148.3928  140.5716  152.6409 H   0  0  0  0  0  0  0  0  0  0  0  0
  146.7232  142.8255  158.4378 H   0  0  0  0  0  0  0  0  0  0  0  0
  144.5926  142.0614  156.6076 H   0  0  0  0  0  0  0  0  0  0  0  0
  145.5391  143.1166  153.9059 H   0  0  0  0  0  0  0  0  0  0  0  0
  144.1649  142.0095  154.2435 H   0  0  0  0  0  0  0  0  0  0  0  0
  143.3755  146.1290  154.3518 H   0  0  0  0  0  0  0  0  0  0  0  0
  145.0204  145.6672  153.9883 H   0  0  0  0  0  0  0  0  0  0  0  0
  143.1833  144.1032  152.7359 H   0  0  0  0  0  0  0  0  0  0  0  0
  142.2154  142.9785  155.8469 H   0  0  0  0  0  0  0  0  0  0  0  0
  141.9229  144.7000  155.7554 H   0  0  0  0  0  0  0  0  0  0  0  0
  142.2296  143.3984  153.3514 H   0  0  0  0  0  0  0  0  0  0  0  0
  144.2280  144.3734  157.1692 H   0  0  0  0  0  0  0  0  0  0  0  0
  145.5865  144.9073  156.1243 H   0  0  0  0  0  0  0  0  0  0  0  0
  1  2  1  0  0  0  0
  1 28  1  0  0  0  0
  2  3  1  0  0  0  0
  2 29  1  0  0  0  0
  2 30  1  0  0  0  0
  3  4  1  0  0  0  0
  3 31  1  0  0  0  0
  3 32  1  0  0  0  0
  4  5  1  0  0  0  0
  5  6  1  0  0  0  0
  5 33  1  0  0  0  0
  5 34  1  0  0  0  0
  6  7  1  0  0  0  0
  6 35  1  0  0  0  0
  6 36  1  0  0  0  0
  7  8  1  0  0  0  0
  7 11  1  0  0  0  0
  8  9  1  0  0  0  0
  8 37  1  0  0  0  0
  8 38  1  0  0  0  0
  9 10  1  0  0  0  0
  9 39  1  0  0  0  0
  9 40  1  0  0  0  0
 10 41  1  0  0  0  0
 11 16  1  0  0  0  0
 11 12  2  0  0  0  0
 12 13  1  0  0  0  0
 13 14  2  0  0  0  0
 13 42  1  0  0  0  0
 14 15  1  0  0  0  0
 15 19  1  0  0  0  0
 15 16  2  0  0  0  0
 16 17  1  0  0  0  0
 17 18  2  0  0  0  0
 18 19  1  0  0  0  0
 18 43  1  0  0  0  0
 19 20  1  0  0  0  0
 20 27  1  0  0  0  0
 20 21  1  0  0  0  0
 20 44  1  0  0  0  0
 21 22  1  0  0  0  0
 21 45  1  0  0  0  0
 21 46  1  0  0  0  0
 22 23  1  0  0  0  0
 22 25  1  0  0  0  0
 22 27  1  0  0  0  0
 23 24  1  0  0  0  0
 23 47  1  0  0  0  0
 23 48  1  0  0  0  0
 24 49  1  0  0  0  0
 25 26  1  0  0  0  0
 25 50  1  0  0  0  0
 25 51  1  0  0  0  0
 26 52  1  0  0  0  0
 27 53  1  0  0  0  0
 27 54  1  0  0  0  0
M  END
> <s_m_source_file>
AV-unprocessed.smi

> <i_m_source_file_index>
205

> <i_lp_mmshare_version>
43012

> <i_f3d_flags>
0

> <s_epik_input>
W09IXVtDSDJdW0NIMl1PW0NIMl1bQ0gyXU4oW0NIMl1bQ0gyXVtPSF0pYyhuW2NIXW4xKWMoYzEyKW5bY0hdbjJbQ0hdKFtDSDJdMylbQ0gyXUMzKFtDSDJdW09IXSlbQ0gyXVtPSF0=

> <s_epik_cmdline>
J2VwaWtfcHl0aG9uJywgJy1waCcsICc3LjAnLCAnLXRuJywgJzgnLCAnLW1hJywgJzIwMCcsICctbWV0YWxfYmluZGluZycsICctaW1hZScsICc8aW5maWxlLm1hZT4nLCAnLW9tYWUnLCAnPG91dGZpbGUubWFlPic=

> <r_lp_tautomer_probability>
1

> <r_epik_Ionization_Penalty>
0.00545557

> <r_epik_Ionization_Penalty_Charging>
0

> <r_epik_Ionization_Penalty_Neutral>
0.00545557

> <r_epik_State_Penalty>
0.00384469

> <r_epik_Charging_Adjusted_Penalty>
0.00384469

> <i_epik_Tot_Q>
0

> <i_epik_Tot_abs_Q>
0

> <r_epik_Metal_State_Penalty>
-0

> <b_epik_Metal_Only>
0

> <s_lp_Force_Field>
OPLS_2005

> <r_lp_Energy>
40.5801

> <b_lp_Chiralities_Consistent>
1

> <s_lp_Variant>
AV-unprocessed.smi:205-1

> <Gold.Version>
5.8.1

> <Gold.Id.Protein>
6NUR|6NUR_protein|mol2

> <Gold.PLP.Fitness>
59.1517

> <Gold.PLP.PLP>
-45.9101

> <Gold.PLP.part.hbond>
-6.9021

> <Gold.PLP.part.metal>
0.0000

> <Gold.PLP.part.buried>
-8.4263

> <Gold.PLP.part.nonpolar>
-33.0305

> <Gold.PLP.part.repulsive>
0.4125

> <Gold.PLP.ligand.clash>
0.0000

> <Gold.PLP.ligand.torsion>
2.2099

> <Gold.PLP.Chemscore.Hbond>
4.3992

> <Gold.PLP.Chemscore.CHOScore>
0.9928

> <Gold.PLP.Chemscore.Metal>
0.0000

> <Gold.Chemscore.Hbonds>
donor molecule, donor type, donor heavy atom, donor atom, acceptor molecule, acceptor atom, score
      L1  H    24    49       P1 10174  1.00
      L1  H    26    52       P1 10174  1.00
      P1  H  6933  6945       L1     1  0.91
      P1  H  7989  7998       L1    12  0.43
      P1  H 10752 10763       L1    10  0.80
      L1  C    13    42       P1  7957  0.87

> <Gold.PLP.Chemscore.Internal.Correction>
1.4855

> <Gold.Rescore>
     Score         DG    S(hbond)    S(metal)    S(lipo)     H(rot)  DE(clash)    DE(int)     intcor
      2.69      -8.94       3.63        0.00      73.75       6.76       2.79       3.45       ----

> <Gold.Chemscore.Fitness>
2.6942

> <Gold.Chemscore.DG>
-8.9383

> <Gold.Chemscore.ZeroCoef>
-5.4800

> <Gold.Chemscore.Hbond>
3.6334

> <Gold.Chemscore.Metal>
0.0000

> <Gold.Chemscore.Lipo>
73.7459

> <Gold.Chemscore.Internal_Hbond>
0.0000

> <Gold.Chemscore.DEClash>
2.7948

> <Gold.Chemscore.DEInternal>
3.4493

> <Gold.Chemscore.Rot>
6.7600

> <Gold.Chemscore.Internal.Correction>
   9.000000E+99

> <Gold.Chemscore.Hbonds>
donor molecule, donor type, donor heavy atom, donor atom, acceptor molecule, acceptor atom, score
      L1  H    24    49       P1 10174  0.98
      L1  H    26    52       P1 10174  0.94
      P1  H  6933  6945       L1     1  0.88
      P1  H  7989  7998       L1    12  0.17
      P1  H 10752 10763       L1    10  0.15

> <Gold.Chemscore.Hbond.Weighted>
-12.1355

> <Gold.Chemscore.Metal.Weighted>
-0.0000

> <Gold.Chemscore.Lipo.Weighted>
-8.6283

> <Gold.Chemscore.Internal_Hbond.Weighted>
0.0000

> <Gold.Chemscore.DEClash.Weighted>
2.7948

> <Gold.Chemscore.DEInternal.Weighted>
3.4493

> <Gold.Chemscore.Rot.Weighted>
17.3055

> <Gold.Chemscore.Internal.Correction.Weighted>
   9.000000E+99

> <Gold.Protein.RotatedTorsions>
[ 6907 6896 6895 6894 ] final  -75.23 input  -60.11 | X-H torsion
[ 7974 7965 7964 7962 ] final -156.21 input  175.53 | X-H torsion
[ 8008 7997 7996 7995 ] final  146.44 input   59.86 | X-H torsion
[ 10167 10162 10161 10158 ] final  -17.24 input  -65.29 | X-H torsion
[ 10718 10713 10712 10709 ] final  108.15 input   66.30 | X-H torsion
[ 10763 10752 10751 10750 ] final   59.44 input  -60.55 | X-H torsion
[ 11005 11000 10999 10996 ] final  141.33 input  -57.11 | X-H torsion

> <Gold.Protein.ActiveResidues>
 VAL166  LYS551  ARG553  GLY616  TRP617  ASP618  TYR619  PRO620  LYS621  CYS622 
 ASP623  PHE694  ASN695  SER759  ASP760  ASP761  ALA762  ILE779  LEU786  VAL792 
 PHE793  MET794  SER795  GLU796  ALA797  LYS798  CYS799  TRP800  GLU811  SER814 

> <Gold.Protein.RotatedAtoms>
  150.7066  134.4751  159.5443 H   0  0  0  0  0  0  0  0  0  0  0  0  # atno 6907 bound_to 6896
  152.2399  134.8236  160.0471 H   0  0  0  0  0  0  0  0  0  0  0  0  # atno 6908 bound_to 6896
  151.9021  133.3505  159.3871 H   0  0  0  0  0  0  0  0  0  0  0  0  # atno 6909 bound_to 6896
  144.7604  140.4141  143.5981 H   0  0  0  0  0  0  0  0  0  0  0  0  # atno 7974 bound_to 7965
  156.2855  140.2182  156.5376 H   0  0  0  0  0  0  0  0  0  0  0  0  # atno 8008 bound_to 7997
  154.7396  140.0489  157.0821 H   0  0  0  0  0  0  0  0  0  0  0  0  # atno 8009 bound_to 7997
  155.0248  140.3128  155.4783 H   0  0  0  0  0  0  0  0  0  0  0  0  # atno 8010 bound_to 7997
  140.7244  143.5036  150.9838 H   0  0  0  0  0  0  0  0  0  0  0  0  # atno 10167 bound_to 10162
  157.6598  131.0888  150.6262 H   0  0  0  0  0  0  0  0  0  0  0  0  # atno 10718 bound_to 10713
  152.9894  135.5571  154.5713 H   0  0  0  0  0  0  0  0  0  0  0  0  # atno 10763 bound_to 10752
  154.5113  135.2802  155.1342 H   0  0  0  0  0  0  0  0  0  0  0  0  # atno 10764 bound_to 10752
  154.2733  135.6359  153.5371 H   0  0  0  0  0  0  0  0  0  0  0  0  # atno 10765 bound_to 10752
  140.0394  134.9313  157.0814 H   0  0  0  0  0  0  0  0  0  0  0  0  # atno 11005 bound_to 11000
  145.6640  139.1586  143.2792 LP  0  0  0  0  0  0  0  0  0  0  0  0  # atno 17320 bound_to 7965
  146.1660  140.6717  142.9255 LP  0  0  0  0  0  0  0  0  0  0  0  0  # atno 17321 bound_to 7965
  139.8746  143.7149  152.3163 LP  0  0  0  0  0  0  0  0  0  0  0  0  # atno 17342 bound_to 10162
  139.7409  144.7559  151.0653 LP  0  0  0  0  0  0  0  0  0  0  0  0  # atno 17343 bound_to 10162
  156.6566  130.4500  149.5701 LP  0  0  0  0  0  0  0  0  0  0  0  0  # atno 17370 bound_to 10713
  156.2098  130.6672  151.1257 LP  0  0  0  0  0  0  0  0  0  0  0  0  # atno 17371 bound_to 10713
  140.4095  134.1997  155.7163 LP  0  0  0  0  0  0  0  0  0  0  0  0  # atno 17394 bound_to 11000
  141.1875  133.8281  157.1031 LP  0  0  0  0  0  0  0  0  0  0  0  0  # atno 17395 bound_to 11000

$$$$
