AV-unprocessed.smi:2492|AV-procd|sdf|9811|dock10
  -GOLD-   2272013443D 1   1.00000     0.00000
 Structure written by MMmdl.
 33 34  0  0  0  0  0  0  0  0  1 V2000
  144.2579  132.4555  151.3739 C   0  0  0  0  0  0  0  0  0  0  0  0
  144.2542  134.0155  150.4516 S   0  0  0  0  0  0  0  0  0  0  0  0
  145.1245  135.0878  151.6304 C   0  0  2  0  0  0  0  0  0  0  0  0
  144.2341  135.5226  152.7916 C   0  0  0  0  0  0  0  0  0  0  0  0
  144.9331  136.7575  153.3616 C   0  0  0  0  0  0  0  0  0  0  0  0
  145.6637  137.4168  152.1760 C   0  0  1  0  0  0  0  0  0  0  0  0
  147.0536  137.7117  152.5200 N   0  0  0  0  0  0  0  0  0  0  0  0
  147.4660  138.6690  153.3637 C   0  0  0  0  0  0  0  0  0  0  0  0
  146.7041  139.4319  153.9582 O   0  0  0  0  0  0  0  0  0  0  0  0
  148.8058  138.6804  153.4664 N   0  0  0  0  0  0  0  0  0  0  0  0
  149.6052  139.5197  154.2831 C   0  0  0  0  0  0  0  0  0  0  0  0
  149.1766  140.5173  155.0565 N   0  0  0  0  0  0  0  0  0  0  0  0
  150.3505  140.9468  155.5953 C   0  0  0  0  0  0  0  0  0  0  0  0
  150.4237  142.0797  156.5612 C   0  0  0  0  0  0  0  0  0  0  0  0
  151.4407  140.2930  155.2100 N   0  0  0  0  0  0  0  0  0  0  0  0
  150.9440  139.3261  154.3231 O   0  0  0  0  0  0  0  0  0  0  0  0
  145.5915  136.4098  151.0133 C   0  0  0  0  0  0  0  0  0  0  0  0
  143.7389  131.6839  150.8053 H   0  0  0  0  0  0  0  0  0  0  0  0
  143.7517  132.5780  152.3315 H   0  0  0  0  0  0  0  0  0  0  0  0
  145.2783  132.1195  151.5581 H   0  0  0  0  0  0  0  0  0  0  0  0
  145.9853  134.5500  152.0306 H   0  0  0  0  0  0  0  0  0  0  0  0
  143.2468  135.8027  152.4210 H   0  0  0  0  0  0  0  0  0  0  0  0
  144.1002  134.7366  153.5355 H   0  0  0  0  0  0  0  0  0  0  0  0
  144.2284  137.4387  153.8398 H   0  0  0  0  0  0  0  0  0  0  0  0
  145.6441  136.4415  154.1267 H   0  0  0  0  0  0  0  0  0  0  0  0
  145.1307  138.3246  151.8869 H   0  0  0  0  0  0  0  0  0  0  0  0
  147.7566  137.1371  152.0789 H   0  0  0  0  0  0  0  0  0  0  0  0
  149.3104  138.0066  152.9097 H   0  0  0  0  0  0  0  0  0  0  0  0
  151.4549  142.2746  156.8583 H   0  0  0  0  0  0  0  0  0  0  0  0
  149.8448  141.8490  157.4558 H   0  0  0  0  0  0  0  0  0  0  0  0
  150.0178  142.9855  156.1101 H   0  0  0  0  0  0  0  0  0  0  0  0
  146.5363  136.3022  150.4786 H   0  0  0  0  0  0  0  0  0  0  0  0
  144.8545  136.7585  150.2883 H   0  0  0  0  0  0  0  0  0  0  0  0
  1  2  1  0  0  0  0
  1 18  1  0  0  0  0
  1 19  1  0  0  0  0
  1 20  1  0  0  0  0
  2  3  1  0  0  0  0
  3 17  1  0  0  0  0
  3  4  1  0  0  0  0
  3 21  1  0  0  0  0
  4  5  1  0  0  0  0
  4 22  1  0  0  0  0
  4 23  1  0  0  0  0
  5  6  1  0  0  0  0
  5 24  1  0  0  0  0
  5 25  1  0  0  0  0
  6  7  1  0  0  0  0
  6 17  1  0  0  0  0
  6 26  1  0  0  0  0
  7  8  1  0  0  0  0
  7 27  1  0  0  0  0
  8  9  2  0  0  0  0
  8 10  1  0  0  0  0
 10 11  1  0  0  0  0
 10 28  1  0  0  0  0
 11 16  1  0  0  0  0
 11 12  2  0  0  0  0
 12 13  1  0  0  0  0
 13 14  1  0  0  0  0
 13 15  2  0  0  0  0
 14 29  1  0  0  0  0
 14 30  1  0  0  0  0
 14 31  1  0  0  0  0
 15 16  1  0  0  0  0
 17 32  1  0  0  0  0
 17 33  1  0  0  0  0
M  END
> <s_m_source_file>
AV-unprocessed.smi

> <i_m_source_file_index>
2492

> <i_lp_mmshare_version>
43012

> <i_f3d_flags>
0

> <s_epik_input>
W0NIM11TW0NAQEhdMVtDSDJdW0NIMl1bQ0BIXShbQ0gyXTEpW05IXUMoPU8pW05IXWMybmMoW0NIM10pbm8y

> <s_epik_cmdline>
J2VwaWtfcHl0aG9uJywgJy1waCcsICc3LjAnLCAnLXRuJywgJzgnLCAnLW1hJywgJzIwMCcsICctbWV0YWxfYmluZGluZycsICctaW1hZScsICc8aW5maWxlLm1hZT4nLCAnLW9tYWUnLCAnPG91dGZpbGUubWFlPic=

> <r_lp_tautomer_probability>
1

> <r_epik_Ionization_Penalty>
3.56659e-05

> <r_epik_Ionization_Penalty_Charging>
0

> <r_epik_Ionization_Penalty_Neutral>
3.56659e-05

> <r_epik_State_Penalty>
-0

> <r_epik_Charging_Adjusted_Penalty>
0

> <i_epik_Tot_Q>
0

> <i_epik_Tot_abs_Q>
0

> <r_epik_Metal_State_Penalty>
0.0146047

> <b_epik_Metal_Only>
0

> <s_lp_Force_Field>
OPLS_2005

> <r_lp_Energy>
14.5779

> <b_lp_Chiralities_Consistent>
1

> <s_lp_Variant>
AV-unprocessed.smi:2492-1

> <Gold.Version>
5.8.1

> <Gold.Id.Protein>
6NUR|6NUR_protein|mol2

> <Gold.PLP.Fitness>
32.3771

> <Gold.PLP.PLP>
-27.4511

> <Gold.PLP.part.hbond>
-4.9613

> <Gold.PLP.part.metal>
0.0000

> <Gold.PLP.part.buried>
-3.6235

> <Gold.PLP.part.nonpolar>
-20.9973

> <Gold.PLP.part.repulsive>
0.5077

> <Gold.PLP.ligand.clash>
0.0000

> <Gold.PLP.ligand.torsion>
0.2179

> <Gold.PLP.Chemscore.Hbond>
1.7855

> <Gold.PLP.Chemscore.CHOScore>
0.0000

> <Gold.PLP.Chemscore.Metal>
0.0000

> <Gold.Chemscore.Hbonds>
donor molecule, donor type, donor heavy atom, donor atom, acceptor molecule, acceptor atom, score
      L1  H     7    27       P1  7948  0.93
      L1  H    10    28       P1  7948  0.77

> <Gold.PLP.Chemscore.Internal.Correction>
0.0053

> <Gold.Rescore>
     Score         DG    S(hbond)    S(metal)    S(lipo)     H(rot)  DE(clash)    DE(int)     intcor
     12.27     -13.91       1.94        0.00      44.80       1.28       0.10       1.55       ----

> <Gold.Chemscore.Fitness>
12.2658

> <Gold.Chemscore.DG>
-13.9116

> <Gold.Chemscore.ZeroCoef>
-5.4800

> <Gold.Chemscore.Hbond>
1.9373

> <Gold.Chemscore.Metal>
0.0000

> <Gold.Chemscore.Lipo>
44.8014

> <Gold.Chemscore.Internal_Hbond>
0.0000

> <Gold.Chemscore.DEClash>
0.0994

> <Gold.Chemscore.DEInternal>
1.5464

> <Gold.Chemscore.Rot>
1.2815

> <Gold.Chemscore.Internal.Correction>
   9.000000E+99

> <Gold.Chemscore.Hbonds>
donor molecule, donor type, donor heavy atom, donor atom, acceptor molecule, acceptor atom, score
      L1  H     7    27       P1  7948  0.88
      L1  H    10    28       P1  7948  0.69

> <Gold.Chemscore.Hbond.Weighted>
-6.4706

> <Gold.Chemscore.Metal.Weighted>
-0.0000

> <Gold.Chemscore.Lipo.Weighted>
-5.2418

> <Gold.Chemscore.Internal_Hbond.Weighted>
0.0000

> <Gold.Chemscore.DEClash.Weighted>
0.0994

> <Gold.Chemscore.DEInternal.Weighted>
1.5464

> <Gold.Chemscore.Rot.Weighted>
3.2808

> <Gold.Chemscore.Internal.Correction.Weighted>
   9.000000E+99

> <Gold.Protein.RotatedTorsions>
[ 6907 6896 6895 6894 ] final  121.61 input  -60.11 | X-H torsion
[ 7974 7965 7964 7962 ] final  -61.45 input  175.53 | X-H torsion
[ 8008 7997 7996 7995 ] final   73.73 input   59.86 | X-H torsion
[ 10167 10162 10161 10158 ] final -137.70 input  -65.29 | X-H torsion
[ 10718 10713 10712 10709 ] final -159.38 input   66.30 | X-H torsion
[ 10763 10752 10751 10750 ] final  -54.82 input  -60.55 | X-H torsion
[ 11005 11000 10999 10996 ] final   -5.65 input  -57.11 | X-H torsion

> <Gold.Protein.ActiveResidues>
 VAL166  LYS551  ARG553  GLY616  TRP617  ASP618  TYR619  PRO620  LYS621  CYS622 
 ASP623  PHE694  ASN695  SER759  ASP760  ASP761  ALA762  ILE779  LEU786  VAL792 
 PHE793  MET794  SER795  GLU796  ALA797  LYS798  CYS799  TRP800  GLU811  SER814 

> <Gold.Protein.RotatedAtoms>
  152.4308  133.7275  159.6567 H   0  0  0  0  0  0  0  0  0  0  0  0  # atno 6907 bound_to 6896
  150.8187  133.8280  159.3154 H   0  0  0  0  0  0  0  0  0  0  0  0  # atno 6908 bound_to 6896
  151.5969  135.1052  160.0103 H   0  0  0  0  0  0  0  0  0  0  0  0  # atno 6909 bound_to 6896
  145.8032  140.8642  143.0220 H   0  0  0  0  0  0  0  0  0  0  0  0  # atno 7974 bound_to 7965
  155.7880  140.3480  155.5333 H   0  0  0  0  0  0  0  0  0  0  0  0  # atno 8008 bound_to 7997
  155.8663  140.0979  157.1601 H   0  0  0  0  0  0  0  0  0  0  0  0  # atno 8009 bound_to 7997
  154.4015  140.1349  156.4010 H   0  0  0  0  0  0  0  0  0  0  0  0  # atno 8010 bound_to 7997
  139.8552  143.7148  152.2655 H   0  0  0  0  0  0  0  0  0  0  0  0  # atno 10167 bound_to 10162
  156.5673  130.8673  151.2827 H   0  0  0  0  0  0  0  0  0  0  0  0  # atno 10718 bound_to 10713
  154.1810  135.6443  153.5034 H   0  0  0  0  0  0  0  0  0  0  0  0  # atno 10763 bound_to 10752
  153.0059  135.5406  154.6514 H   0  0  0  0  0  0  0  0  0  0  0  0  # atno 10764 bound_to 10752
  154.5878  135.2931  155.0639 H   0  0  0  0  0  0  0  0  0  0  0  0  # atno 10765 bound_to 10752
  140.6935  133.9051  155.8634 H   0  0  0  0  0  0  0  0  0  0  0  0  # atno 11005 bound_to 11000
  144.6766  140.0290  143.7483 LP  0  0  0  0  0  0  0  0  0  0  0  0  # atno 17320 bound_to 7965
  145.9855  139.2974  143.1016 LP  0  0  0  0  0  0  0  0  0  0  0  0  # atno 17321 bound_to 7965
  139.7427  144.7555  151.0627 LP  0  0  0  0  0  0  0  0  0  0  0  0  # atno 17342 bound_to 10162
  140.7782  143.4953  150.9840 LP  0  0  0  0  0  0  0  0  0  0  0  0  # atno 17343 bound_to 10162
  157.7356  130.9764  150.2089 LP  0  0  0  0  0  0  0  0  0  0  0  0  # atno 17370 bound_to 10713
  156.2746  130.3726  149.7997 LP  0  0  0  0  0  0  0  0  0  0  0  0  # atno 17371 bound_to 10713
  141.0222  134.0873  157.4108 LP  0  0  0  0  0  0  0  0  0  0  0  0  # atno 17394 bound_to 11000
  139.8917  135.0120  156.6804 LP  0  0  0  0  0  0  0  0  0  0  0  0  # atno 17395 bound_to 11000

$$$$
