AV-unprocessed.smi:434|AV-procd|sdf|2552|dock1
  -GOLD-   2262022513D 1   1.00000     0.00000
 Structure written by MMmdl.
 39 41  0  0  0  0  0  0  0  0  1 V2000
  149.9300  140.6416  155.9374 C   0  0  0  0  0  0  0  0  0  0  0  0
  150.5274  141.5242  156.9870 C   0  0  0  0  0  0  0  0  0  0  0  0
  150.5399  142.8526  156.8765 N   0  0  0  0  0  0  0  0  0  0  0  0
  151.1788  143.2470  158.0365 C   0  0  0  0  0  0  0  0  0  0  0  0
  151.5007  144.5376  158.5147 C   0  0  0  0  0  0  0  0  0  0  0  0
  152.1658  144.6962  159.7482 C   0  0  0  0  0  0  0  0  0  0  0  0
  152.5179  143.5698  160.5195 C   0  0  0  0  0  0  0  0  0  0  0  0
  152.2063  142.2751  160.0620 C   0  0  0  0  0  0  0  0  0  0  0  0
  151.5419  142.1217  158.8303 C   0  0  0  0  0  0  0  0  0  0  0  0
  151.0941  141.0182  158.1098 N   0  0  0  0  0  0  0  0  0  0  0  0
  151.2187  139.6189  158.4971 C   0  0  0  0  0  0  0  0  0  0  0  0
  152.4769  139.3456  159.3458 C   0  0  2  0  0  0  0  0  0  0  0  0
  153.6215  139.7505  158.6202 O   0  0  0  0  0  0  0  0  0  0  0  0
  152.6236  137.8559  159.6933 C   0  0  0  0  0  0  0  0  0  0  0  0
  153.6717  137.7041  160.6360 O   0  0  0  0  0  0  0  0  0  0  0  0
  153.2855  136.9442  161.7675 C   0  0  0  0  0  0  0  0  0  0  0  0
  154.1834  137.3589  162.8832 C   0  0  0  0  0  0  0  0  0  0  0  0
  154.3774  136.8986  164.1565 C   0  0  0  0  0  0  0  0  0  0  0  0
  155.3847  137.7221  164.7314 C   0  0  0  0  0  0  0  0  0  0  0  0
  155.7300  138.6240  163.7656 C   0  0  0  0  0  0  0  0  0  0  0  0
  155.0063  138.4162  162.6315 O   0  0  0  0  0  0  0  0  0  0  0  0
  149.4747  141.2407  155.1479 H   0  0  0  0  0  0  0  0  0  0  0  0
  149.1591  140.0036  156.3687 H   0  0  0  0  0  0  0  0  0  0  0  0
  150.7005  140.0137  155.4899 H   0  0  0  0  0  0  0  0  0  0  0  0
  151.2346  145.4069  157.9318 H   0  0  0  0  0  0  0  0  0  0  0  0
  152.4066  145.6872  160.1046 H   0  0  0  0  0  0  0  0  0  0  0  0
  153.0265  143.7001  161.4637 H   0  0  0  0  0  0  0  0  0  0  0  0
  152.4719  141.4107  160.6525 H   0  0  0  0  0  0  0  0  0  0  0  0
  150.3219  139.3271  159.0442 H   0  0  0  0  0  0  0  0  0  0  0  0
  151.2315  139.0073  157.5938 H   0  0  0  0  0  0  0  0  0  0  0  0
  152.4212  139.9283  160.2657 H   0  0  0  0  0  0  0  0  0  0  0  0
  154.0957  140.3833  159.1377 H   0  0  0  0  0  0  0  0  0  0  0  0
  151.7021  137.4907  160.1497 H   0  0  0  0  0  0  0  0  0  0  0  0
  152.7994  137.2568  158.7979 H   0  0  0  0  0  0  0  0  0  0  0  0
  152.2434  137.1373  162.0264 H   0  0  0  0  0  0  0  0  0  0  0  0
  153.3928  135.8769  161.5691 H   0  0  0  0  0  0  0  0  0  0  0  0
  153.8594  136.0700  164.6162 H   0  0  0  0  0  0  0  0  0  0  0  0
  155.8035  137.6621  165.7250 H   0  0  0  0  0  0  0  0  0  0  0  0
  156.4359  139.4403  163.7193 H   0  0  0  0  0  0  0  0  0  0  0  0
  1  2  1  0  0  0  0
  1 22  1  0  0  0  0
  1 23  1  0  0  0  0
  1 24  1  0  0  0  0
  2 10  1  0  0  0  0
  2  3  2  0  0  0  0
  3  4  1  0  0  0  0
  4  9  2  0  0  0  0
  4  5  1  0  0  0  0
  5  6  2  0  0  0  0
  5 25  1  0  0  0  0
  6  7  1  0  0  0  0
  6 26  1  0  0  0  0
  7  8  2  0  0  0  0
  7 27  1  0  0  0  0
  8  9  1  0  0  0  0
  8 28  1  0  0  0  0
  9 10  1  0  0  0  0
 10 11  1  0  0  0  0
 11 12  1  0  0  0  0
 11 29  1  0  0  0  0
 11 30  1  0  0  0  0
 12 13  1  0  0  0  0
 12 14  1  0  0  0  0
 12 31  1  0  0  0  0
 13 32  1  0  0  0  0
 14 15  1  0  0  0  0
 14 33  1  0  0  0  0
 14 34  1  0  0  0  0
 15 16  1  0  0  0  0
 16 17  1  0  0  0  0
 16 35  1  0  0  0  0
 16 36  1  0  0  0  0
 17 21  1  0  0  0  0
 17 18  2  0  0  0  0
 18 19  1  0  0  0  0
 18 37  1  0  0  0  0
 19 20  2  0  0  0  0
 19 38  1  0  0  0  0
 20 21  1  0  0  0  0
 20 39  1  0  0  0  0
M  END
> <s_m_source_file>
AV-unprocessed.smi

> <i_m_source_file_index>
434

> <i_lp_mmshare_version>
43012

> <i_f3d_flags>
0

> <s_epik_input>
W2NIXTFbY0hdW2NIXVtjSF1jKGMxMiluKGMobjIpW0NIM10pW0NIMl1bQ0BIXShbT0hdKVtDSDJdT1tDSDJdYzNbY0hdW2NIXVtjSF1vMw==

> <s_epik_cmdline>
J2VwaWtfcHl0aG9uJywgJy1waCcsICc3LjAnLCAnLXRuJywgJzgnLCAnLW1hJywgJzIwMCcsICctbWV0YWxfYmluZGluZycsICctaW1hZScsICc8aW5maWxlLm1hZT4nLCAnLW9tYWUnLCAnPG91dGZpbGUubWFlPic=

> <r_epik_Ionization_Penalty>
0.126634

> <r_epik_Ionization_Penalty_Charging>
0

> <r_epik_Ionization_Penalty_Neutral>
0.126634

> <r_epik_State_Penalty>
0.116082

> <r_epik_Charging_Adjusted_Penalty>
0.116082

> <i_epik_Tot_Q>
0

> <i_epik_Tot_abs_Q>
0

> <r_epik_Metal_State_Penalty>
0.00012822

> <b_epik_Metal_Only>
0

> <s_lp_Force_Field>
OPLS_2005

> <r_lp_Energy>
9.40114

> <b_lp_Chiralities_Consistent>
1

> <s_lp_Variant>
AV-unprocessed.smi:434-1

> <Gold.Version>
5.8.1

> <Gold.Id.Protein>
6NUR|6NUR_protein|mol2

> <Gold.PLP.Fitness>
48.6131

> <Gold.PLP.PLP>
-47.3192

> <Gold.PLP.part.hbond>
-1.0000

> <Gold.PLP.part.metal>
0.0000

> <Gold.PLP.part.buried>
-5.9220

> <Gold.PLP.part.nonpolar>
-40.7588

> <Gold.PLP.part.repulsive>
0.1196

> <Gold.PLP.ligand.clash>
0.0000

> <Gold.PLP.ligand.torsion>
0.9578

> <Gold.PLP.Chemscore.Hbond>
1.0000

> <Gold.PLP.Chemscore.CHOScore>
0.0000

> <Gold.PLP.Chemscore.Metal>
0.0000

> <Gold.Chemscore.Hbonds>
donor molecule, donor type, donor heavy atom, donor atom, acceptor molecule, acceptor atom, score
      P1  H  7997  8008       L1    13  0.55

> <Gold.PLP.Chemscore.Internal.Correction>
0.2096

> <Gold.Rescore>
     Score         DG    S(hbond)    S(metal)    S(lipo)     H(rot)  DE(clash)    DE(int)     intcor
     15.59     -17.59       0.96        0.00     127.68       2.36       0.14       1.85       ----

> <Gold.Chemscore.Fitness>
15.5937

> <Gold.Chemscore.DG>
-17.5882

> <Gold.Chemscore.ZeroCoef>
-5.4800

> <Gold.Chemscore.Hbond>
0.9609

> <Gold.Chemscore.Metal>
0.0000

> <Gold.Chemscore.Lipo>
127.6756

> <Gold.Chemscore.Internal_Hbond>
0.0000

> <Gold.Chemscore.DEClash>
0.1405

> <Gold.Chemscore.DEInternal>
1.8539

> <Gold.Chemscore.Rot>
2.3591

> <Gold.Chemscore.Internal.Correction>
   9.000000E+99

> <Gold.Chemscore.Hbonds>
donor molecule, donor type, donor heavy atom, donor atom, acceptor molecule, acceptor atom, score
      P1  H  7997  8008       L1    13  0.03

> <Gold.Chemscore.Hbond.Weighted>
-3.2094

> <Gold.Chemscore.Metal.Weighted>
-0.0000

> <Gold.Chemscore.Lipo.Weighted>
-14.9380

> <Gold.Chemscore.Internal_Hbond.Weighted>
0.0000

> <Gold.Chemscore.DEClash.Weighted>
0.1405

> <Gold.Chemscore.DEInternal.Weighted>
1.8539

> <Gold.Chemscore.Rot.Weighted>
6.0393

> <Gold.Chemscore.Internal.Correction.Weighted>
   9.000000E+99

> <Gold.Protein.RotatedTorsions>
[ 6907 6896 6895 6894 ] final  -43.59 input  -60.11 | X-H torsion
[ 7974 7965 7964 7962 ] final  -40.97 input  175.53 | X-H torsion
[ 8008 7997 7996 7995 ] final  -98.91 input   59.86 | X-H torsion
[ 10167 10162 10161 10158 ] final   39.88 input  -65.29 | X-H torsion
[ 10718 10713 10712 10709 ] final  123.04 input   66.30 | X-H torsion
[ 10763 10752 10751 10750 ] final   24.79 input  -60.55 | X-H torsion
[ 11005 11000 10999 10996 ] final  -54.06 input  -57.11 | X-H torsion

> <Gold.Protein.ActiveResidues>
 VAL166  LYS551  ARG553  GLY616  TRP617  ASP618  TYR619  PRO620  LYS621  CYS622 
 ASP623  PHE694  ASN695  SER759  ASP760  ASP761  ALA762  ILE779  LEU786  VAL792 
 PHE793  MET794  SER795  GLU796  ALA797  LYS798  CYS799  TRP800  GLU811  SER814 

> <Gold.Protein.RotatedAtoms>
  150.9422  134.8830  159.7619 H   0  0  0  0  0  0  0  0  0  0  0  0  # atno 6907 bound_to 6896
  152.5085  134.3926  159.9399 H   0  0  0  0  0  0  0  0  0  0  0  0  # atno 6908 bound_to 6896
  151.3946  133.3737  159.2760 H   0  0  0  0  0  0  0  0  0  0  0  0  # atno 6909 bound_to 6896
  146.0255  140.6797  142.9158 H   0  0  0  0  0  0  0  0  0  0  0  0  # atno 7974 bound_to 7965
  154.8077  140.0451  157.1319 H   0  0  0  0  0  0  0  0  0  0  0  0  # atno 8008 bound_to 7997
  154.9405  140.3052  155.5103 H   0  0  0  0  0  0  0  0  0  0  0  0  # atno 8009 bound_to 7997
  156.2968  140.2306  156.4474 H   0  0  0  0  0  0  0  0  0  0  0  0  # atno 8010 bound_to 7997
  140.3796  144.1997  150.6131 H   0  0  0  0  0  0  0  0  0  0  0  0  # atno 10167 bound_to 10162
  157.5696  131.1084  150.8391 H   0  0  0  0  0  0  0  0  0  0  0  0  # atno 10718 bound_to 10713
  153.0738  135.6597  154.0190 H   0  0  0  0  0  0  0  0  0  0  0  0  # atno 10763 bound_to 10752
  153.9829  135.2953  155.3420 H   0  0  0  0  0  0  0  0  0  0  0  0  # atno 10764 bound_to 10752
  154.7120  135.5201  153.8751 H   0  0  0  0  0  0  0  0  0  0  0  0  # atno 10765 bound_to 10752
  141.1007  133.6618  156.4264 H   0  0  0  0  0  0  0  0  0  0  0  0  # atno 11005 bound_to 11000
  144.7007  140.3641  143.7158 LP  0  0  0  0  0  0  0  0  0  0  0  0  # atno 17320 bound_to 7965
  145.7125  139.1688  143.2530 LP  0  0  0  0  0  0  0  0  0  0  0  0  # atno 17321 bound_to 7965
  140.4951  143.2335  151.8761 LP  0  0  0  0  0  0  0  0  0  0  0  0  # atno 17342 bound_to 10162
  139.4796  144.5123  151.8916 LP  0  0  0  0  0  0  0  0  0  0  0  0  # atno 17343 bound_to 10162
  156.8867  130.5198  149.5288 LP  0  0  0  0  0  0  0  0  0  0  0  0  # atno 17370 bound_to 10713
  156.0742  130.5768  150.9442 LP  0  0  0  0  0  0  0  0  0  0  0  0  # atno 17371 bound_to 10713
  140.5029  134.6468  157.5255 LP  0  0  0  0  0  0  0  0  0  0  0  0  # atno 17394 bound_to 11000
  139.9857  134.7065  155.9778 LP  0  0  0  0  0  0  0  0  0  0  0  0  # atno 17395 bound_to 11000

$$$$
