AV-unprocessed.smi:66|AV-procd|sdf|618|dock6
  -GOLD-   2262016513D 1   1.00000     0.00000
 Structure written by MMmdl.
 28 30  0  0  0  0  0  0  0  0  2 V2000
  153.5751  141.1371  159.7765 O   0  0  0  0  0  0  0  0  0  0  0  0
  153.1084  140.3653  158.9110 C   0  0  0  0  0  0  0  0  0  0  0  0
  153.6942  139.3650  158.4393 O   0  5  0  0  0  0  0  0  0  0  0  0
  151.7007  140.6840  158.3860 C   0  0  1  0  0  0  0  0  0  0  0  0
  151.1547  141.9986  158.9685 C   0  0  0  0  0  0  0  0  0  0  0  0
  150.1918  142.4827  157.8891 C   0  0  1  0  0  0  0  0  0  0  0  0
  149.9427  143.8706  157.9619 O   0  0  0  0  0  0  0  0  0  0  0  0
  150.8955  142.0824  156.5932 C   0  0  0  0  0  0  0  0  0  0  0  0
  151.6731  140.8982  156.9354 N   0  0  0  0  0  0  0  0  0  0  0  0
  151.7869  139.8802  156.0415 C   0  0  0  0  0  0  0  0  0  0  0  0
  152.9786  139.2388  155.9082 N   0  0  0  0  0  0  0  0  0  0  0  0
  153.1181  138.2350  155.0376 C   0  0  0  0  0  0  0  0  0  0  0  0
  152.2094  137.7144  154.2105 N   0  0  0  0  0  0  0  0  0  0  0  0
  151.0147  138.3558  154.3350 C   0  0  0  0  0  0  0  0  0  0  0  0
  149.8450  138.1100  153.6486 N   0  0  0  0  0  0  0  0  0  0  0  0
  148.9310  139.0196  154.1194 C   0  0  0  0  0  0  0  0  0  0  0  0
  149.3887  139.8267  155.0379 N   0  0  0  0  0  0  0  0  0  0  0  0
  150.7146  139.4361  155.2134 C   0  0  0  0  0  0  0  0  0  0  0  0
  149.7444  137.3910  152.9470 H   0  0  0  0  0  0  0  0  0  0  0  0
  151.0183  139.8713  158.6397 H   0  0  0  0  0  0  0  0  0  0  0  0
  150.6647  141.8562  159.9320 H   0  0  0  0  0  0  0  0  0  0  0  0
  151.9553  142.7284  159.1059 H   0  0  0  0  0  0  0  0  0  0  0  0
  149.2491  141.9406  157.9760 H   0  0  0  0  0  0  0  0  0  0  0  0
  149.6396  144.1626  157.1158 H   0  0  0  0  0  0  0  0  0  0  0  0
  150.1698  141.9054  155.7983 H   0  0  0  0  0  0  0  0  0  0  0  0
  151.5861  142.8584  156.2605 H   0  0  0  0  0  0  0  0  0  0  0  0
  154.0994  137.7856  154.9992 H   0  0  0  0  0  0  0  0  0  0  0  0
  147.9142  139.0665  153.7579 H   0  0  0  0  0  0  0  0  0  0  0  0
  1  2  2  0  0  0  0
  2  3  1  0  0  0  0
  2  4  1  0  0  0  0
  4  5  1  0  0  0  0
  4 20  1  0  0  0  0
  4  9  1  0  0  0  0
  5  6  1  0  0  0  0
  5 21  1  0  0  0  0
  5 22  1  0  0  0  0
  6  7  1  0  0  0  0
  6  8  1  0  0  0  0
  6 23  1  0  0  0  0
  7 24  1  0  0  0  0
  8 25  1  0  0  0  0
  8 26  1  0  0  0  0
  8  9  1  0  0  0  0
  9 10  1  0  0  0  0
 10 11  1  0  0  0  0
 10 18  2  0  0  0  0
 11 12  2  0  0  0  0
 12 27  1  0  0  0  0
 12 13  1  0  0  0  0
 13 14  2  0  0  0  0
 14 15  1  0  0  0  0
 14 18  1  0  0  0  0
 15 16  1  0  0  0  0
 15 19  1  0  0  0  0
 16 17  2  0  0  0  0
 16 28  1  0  0  0  0
 17 18  1  0  0  0  0
M  CHG  1   3  -1
M  END
> <s_m_source_file>
AV-unprocessed.smi

> <i_m_source_file_index>
66

> <i_lp_mmshare_version>
43012

> <i_f3d_flags>
0

> <s_epik_input>
Tz1DKFtPSF0pW0NAQEhdMVtDSDJdW0NAQEhdKFtPSF0pW0NIMl1OMWMobltjSF1uMiljKGMyMylbbkhdW2NIXW4z

> <s_epik_cmdline>
J2VwaWtfcHl0aG9uJywgJy1waCcsICc3LjAnLCAnLXRuJywgJzgnLCAnLW1hJywgJzIwMCcsICctbWV0YWxfYmluZGluZycsICctaW1hZScsICc8aW5maWxlLm1hZT4nLCAnLW9tYWUnLCAnPG91dGZpbGUubWFlPic=

> <r_lp_tautomer_probability>
0.955585

> <r_epik_Ionization_Penalty>
0.00455415

> <r_epik_Ionization_Penalty_Charging>
0.000248217

> <r_epik_Ionization_Penalty_Neutral>
0.00430593

> <r_epik_State_Penalty>
0.0207074

> <r_epik_Charging_Adjusted_Penalty>
0.0209557

> <i_epik_Tot_Q>
-1

> <i_epik_Tot_abs_Q>
1

> <r_epik_Metal_State_Penalty>
0.337372

> <b_epik_Metal_Only>
0

> <s_lp_Force_Field>
OPLS_2005

> <r_lp_Energy>
25.5493

> <b_lp_Chiralities_Consistent>
1

> <s_lp_Variant>
AV-unprocessed.smi:66-2

> <Gold.Version>
5.8.1

> <Gold.Id.Protein>
6NUR|6NUR_protein|mol2

> <Gold.PLP.Fitness>
44.5578

> <Gold.PLP.PLP>
-31.6184

> <Gold.PLP.part.hbond>
-6.8606

> <Gold.PLP.part.metal>
0.0000

> <Gold.PLP.part.buried>
-3.6343

> <Gold.PLP.part.nonpolar>
-22.0806

> <Gold.PLP.part.repulsive>
0.2741

> <Gold.PLP.ligand.clash>
0.0000

> <Gold.PLP.ligand.torsion>
0.9851

> <Gold.PLP.Chemscore.Hbond>
4.8979

> <Gold.PLP.Chemscore.CHOScore>
0.0000

> <Gold.PLP.Chemscore.Metal>
0.0000

> <Gold.Chemscore.Hbonds>
donor molecule, donor type, donor heavy atom, donor atom, acceptor molecule, acceptor atom, score
      L1  H     7    24       P1  8028  1.00
      L1  H    15    19       P1  7948  1.00
      P1  H  7997  8009       L1     3  2.00
      P1  H  7997  8010       L1    11  0.46
      P1  H 10752 10763       L1    13  0.45

> <Gold.PLP.Chemscore.Internal.Correction>
0.2158

> <Gold.Rescore>
     Score         DG    S(hbond)    S(metal)    S(lipo)     H(rot)  DE(clash)    DE(int)     intcor
     11.43     -14.23       2.75        0.00      35.40       1.78       0.20       2.60       ----

> <Gold.Chemscore.Fitness>
11.4279

> <Gold.Chemscore.DG>
-14.2263

> <Gold.Chemscore.ZeroCoef>
-5.4800

> <Gold.Chemscore.Hbond>
2.7460

> <Gold.Chemscore.Metal>
0.0000

> <Gold.Chemscore.Lipo>
35.4034

> <Gold.Chemscore.Internal_Hbond>
0.0000

> <Gold.Chemscore.DEClash>
0.1961

> <Gold.Chemscore.DEInternal>
2.6023

> <Gold.Chemscore.Rot>
1.7842

> <Gold.Chemscore.Internal.Correction>
   9.000000E+99

> <Gold.Chemscore.Hbonds>
donor molecule, donor type, donor heavy atom, donor atom, acceptor molecule, acceptor atom, score
      L1  H     7    24       P1  8028  0.55
      L1  H    15    19       P1  7948  0.45
      P1  H  7997  8009       L1     3  0.53
      P1  H  7997  8010       L1    11  0.15
      P1  H 10752 10763       L1    13  0.07

> <Gold.Chemscore.Hbond.Weighted>
-9.1717

> <Gold.Chemscore.Metal.Weighted>
-0.0000

> <Gold.Chemscore.Lipo.Weighted>
-4.1422

> <Gold.Chemscore.Internal_Hbond.Weighted>
0.0000

> <Gold.Chemscore.DEClash.Weighted>
0.1961

> <Gold.Chemscore.DEInternal.Weighted>
2.6023

> <Gold.Chemscore.Rot.Weighted>
4.5676

> <Gold.Chemscore.Internal.Correction.Weighted>
   9.000000E+99

> <Gold.Protein.RotatedTorsions>
[ 6907 6896 6895 6894 ] final  151.21 input  -60.11 | X-H torsion
[ 7974 7965 7964 7962 ] final   29.43 input  175.53 | X-H torsion
[ 8008 7997 7996 7995 ] final  125.44 input   59.86 | X-H torsion
[ 10167 10162 10161 10158 ] final  -15.92 input  -65.29 | X-H torsion
[ 10718 10713 10712 10709 ] final  -90.73 input   66.30 | X-H torsion
[ 10763 10752 10751 10750 ] final   34.11 input  -60.55 | X-H torsion
[ 11005 11000 10999 10996 ] final -116.98 input  -57.11 | X-H torsion

> <Gold.Protein.ActiveResidues>
 VAL166  LYS551  ARG553  GLY616  TRP617  ASP618  TYR619  PRO620  LYS621  CYS622 
 ASP623  PHE694  ASN695  SER759  ASP760  ASP761  ALA762  ILE779  LEU786  VAL792 
 PHE793  MET794  SER795  GLU796  ALA797  LYS798  CYS799  TRP800  GLU811  SER814 

> <Gold.Protein.RotatedAtoms>
  152.1038  133.4264  159.4599 H   0  0  0  0  0  0  0  0  0  0  0  0  # atno 6907 bound_to 6896
  150.6865  134.2729  159.4604 H   0  0  0  0  0  0  0  0  0  0  0  0  # atno 6908 bound_to 6896
  152.0592  134.9605  160.0625 H   0  0  0  0  0  0  0  0  0  0  0  0  # atno 6909 bound_to 6896
  146.1671  139.6922  142.8993 H   0  0  0  0  0  0  0  0  0  0  0  0  # atno 7974 bound_to 7965
  156.2834  140.2716  156.1949 H   0  0  0  0  0  0  0  0  0  0  0  0  # atno 8008 bound_to 7997
  155.0420  140.0386  157.2531 H   0  0  0  0  0  0  0  0  0  0  0  0  # atno 8009 bound_to 7997
  154.7266  140.2698  155.6499 H   0  0  0  0  0  0  0  0  0  0  0  0  # atno 8010 bound_to 7997
  140.7226  143.5168  150.9681 H   0  0  0  0  0  0  0  0  0  0  0  0  # atno 10167 bound_to 10162
  155.9989  130.4921  150.5367 H   0  0  0  0  0  0  0  0  0  0  0  0  # atno 10718 bound_to 10713
  153.0180  135.6369  154.1617 H   0  0  0  0  0  0  0  0  0  0  0  0  # atno 10763 bound_to 10752
  154.1354  135.2838  155.3176 H   0  0  0  0  0  0  0  0  0  0  0  0  # atno 10764 bound_to 10752
  154.6164  135.5539  153.7589 H   0  0  0  0  0  0  0  0  0  0  0  0  # atno 10765 bound_to 10752
  141.0386  133.9871  157.3032 H   0  0  0  0  0  0  0  0  0  0  0  0  # atno 11005 bound_to 11000
  145.4437  141.0424  143.2843 LP  0  0  0  0  0  0  0  0  0  0  0  0  # atno 17320 bound_to 7965
  144.8109  139.5964  143.7030 LP  0  0  0  0  0  0  0  0  0  0  0  0  # atno 17321 bound_to 7965
  139.8884  143.6984  152.3148 LP  0  0  0  0  0  0  0  0  0  0  0  0  # atno 17342 bound_to 10162
  139.7291  144.7586  151.0831 LP  0  0  0  0  0  0  0  0  0  0  0  0  # atno 17343 bound_to 10162
  157.3309  131.0699  151.1861 LP  0  0  0  0  0  0  0  0  0  0  0  0  # atno 17370 bound_to 10713
  157.2742  130.6719  149.6034 LP  0  0  0  0  0  0  0  0  0  0  0  0  # atno 17371 bound_to 10713
  139.9258  135.0201  156.8230 LP  0  0  0  0  0  0  0  0  0  0  0  0  # atno 17394 bound_to 11000
  140.6277  133.9935  155.7647 LP  0  0  0  0  0  0  0  0  0  0  0  0  # atno 17395 bound_to 11000

$$$$
