AV-unprocessed.smi:573|AV-procd|sdf|2969|dock4
  -GOLD-   2262023473D 1   1.00000     0.00000
 Structure written by MMmdl.
 45 47  0  0  0  0  0  0  0  0  2 V2000
  147.0619  141.0722  153.1603 C   0  0  0  0  0  0  0  0  0  0  0  0
  148.4096  140.7915  153.8414 C   0  0  2  0  0  0  0  0  0  0  0  0
  148.7233  139.4270  153.6642 O   0  0  0  0  0  0  0  0  0  0  0  0
  148.3973  141.0829  155.3539 C   0  0  0  0  0  0  0  0  0  0  0  0
  149.5678  140.5539  156.0393 N   0  0  0  0  0  0  0  0  0  0  0  0
  150.3365  141.4021  156.8446 C   0  0  0  0  0  0  0  0  0  0  0  0
  150.2980  142.7614  156.8447 N   0  3  0  0  0  0  0  0  0  0  0  0
  151.2035  143.2268  157.8022 C   0  0  0  0  0  0  0  0  0  0  0  0
  151.5298  144.5238  158.1859 C   0  0  0  0  0  0  0  0  0  0  0  0
  152.4932  144.6591  159.2067 C   0  0  0  0  0  0  0  0  0  0  0  0
  153.0918  143.5324  159.8067 C   0  0  0  0  0  0  0  0  0  0  0  0
  152.7570  142.2210  159.4099 C   0  0  0  0  0  0  0  0  0  0  0  0
  151.8071  142.0921  158.3967 C   0  0  0  0  0  0  0  0  0  0  0  0
  151.2436  140.9775  157.7609 N   0  0  0  0  0  0  0  0  0  0  0  0
  151.6521  139.6185  158.1442 C   0  0  0  0  0  0  0  0  0  0  0  0
  152.0357  138.7656  156.9241 C   0  0  1  0  0  0  0  0  0  0  0  0
  150.8693  137.8777  156.4517 C   0  0  0  0  0  0  0  0  0  0  0  0
  151.2687  137.0866  155.2009 C   0  0  0  0  0  0  0  0  0  0  0  0
  151.8068  138.0446  154.1327 C   0  0  0  0  0  0  0  0  0  0  0  0
  152.9195  138.9292  154.7178 C   0  0  0  0  0  0  0  0  0  0  0  0
  152.4347  139.6281  155.8601 O   0  0  0  0  0  0  0  0  0  0  0  0
  146.7926  142.1260  153.2365 H   0  0  0  0  0  0  0  0  0  0  0  0
  146.2582  140.4903  153.6125 H   0  0  0  0  0  0  0  0  0  0  0  0
  147.0981  140.8219  152.0994 H   0  0  0  0  0  0  0  0  0  0  0  0
  149.1912  141.3732  153.3516 H   0  0  0  0  0  0  0  0  0  0  0  0
  149.0677  139.0878  154.4765 H   0  0  0  0  0  0  0  0  0  0  0  0
  148.3583  142.1593  155.5248 H   0  0  0  0  0  0  0  0  0  0  0  0
  147.4977  140.6695  155.8120 H   0  0  0  0  0  0  0  0  0  0  0  0
  149.6410  139.5544  156.1659 H   0  0  0  0  0  0  0  0  0  0  0  0
  151.0709  145.3891  157.7305 H   0  0  0  0  0  0  0  0  0  0  0  0
  152.7771  145.6476  159.5380 H   0  0  0  0  0  0  0  0  0  0  0  0
  153.8232  143.6762  160.5891 H   0  0  0  0  0  0  0  0  0  0  0  0
  153.2188  141.3667  159.8818 H   0  0  0  0  0  0  0  0  0  0  0  0
  152.5026  139.7104  158.8207 H   0  0  0  0  0  0  0  0  0  0  0  0
  150.8534  139.1503  158.7195 H   0  0  0  0  0  0  0  0  0  0  0  0
  152.8820  138.1327  157.1982 H   0  0  0  0  0  0  0  0  0  0  0  0
  150.5679  137.1931  157.2449 H   0  0  0  0  0  0  0  0  0  0  0  0
  150.0009  138.4990  156.2278 H   0  0  0  0  0  0  0  0  0  0  0  0
  152.0354  136.3545  155.4585 H   0  0  0  0  0  0  0  0  0  0  0  0
  150.4164  136.5264  154.8154 H   0  0  0  0  0  0  0  0  0  0  0  0
  152.1811  137.4832  153.2764 H   0  0  0  0  0  0  0  0  0  0  0  0
  150.9966  138.6750  153.7643 H   0  0  0  0  0  0  0  0  0  0  0  0
  153.7914  138.3312  154.9878 H   0  0  0  0  0  0  0  0  0  0  0  0
  153.2499  139.6555  153.9753 H   0  0  0  0  0  0  0  0  0  0  0  0
  149.7036  143.3193  156.2454 H   0  0  0  0  0  0  0  0  0  0  0  0
  1  2  1  0  0  0  0
  1 22  1  0  0  0  0
  1 23  1  0  0  0  0
  1 24  1  0  0  0  0
  2  3  1  0  0  0  0
  2  4  1  0  0  0  0
  2 25  1  0  0  0  0
  3 26  1  0  0  0  0
  4  5  1  0  0  0  0
  4 27  1  0  0  0  0
  4 28  1  0  0  0  0
  5  6  1  0  0  0  0
  5 29  1  0  0  0  0
  6 14  1  0  0  0  0
  6  7  2  0  0  0  0
  7  8  1  0  0  0  0
  7 45  1  0  0  0  0
  8 13  2  0  0  0  0
  8  9  1  0  0  0  0
  9 10  2  0  0  0  0
  9 30  1  0  0  0  0
 10 11  1  0  0  0  0
 10 31  1  0  0  0  0
 11 12  2  0  0  0  0
 11 32  1  0  0  0  0
 12 13  1  0  0  0  0
 12 33  1  0  0  0  0
 13 14  1  0  0  0  0
 14 15  1  0  0  0  0
 15 16  1  0  0  0  0
 15 34  1  0  0  0  0
 15 35  1  0  0  0  0
 16 21  1  0  0  0  0
 16 17  1  0  0  0  0
 16 36  1  0  0  0  0
 17 18  1  0  0  0  0
 17 37  1  0  0  0  0
 17 38  1  0  0  0  0
 18 19  1  0  0  0  0
 18 39  1  0  0  0  0
 18 40  1  0  0  0  0
 19 20  1  0  0  0  0
 19 41  1  0  0  0  0
 19 42  1  0  0  0  0
 20 21  1  0  0  0  0
 20 43  1  0  0  0  0
 20 44  1  0  0  0  0
M  CHG  1   7   1
M  END
> <s_m_source_file>
AV-unprocessed.smi

> <i_m_source_file_index>
573

> <i_lp_mmshare_version>
43012

> <i_f3d_flags>
0

> <s_epik_input>
W0NIM11bQ0BIXShbT0hdKVtDSDJdW05IXWMobjEpbihjKGMxMilbY0hdW2NIXVtjSF1bY0hdMilbQ0gyXVtDQEBIXTNbQ0gyXVtDSDJdW0NIMl1bQ0gyXU8z

> <s_epik_cmdline>
J2VwaWtfcHl0aG9uJywgJy1waCcsICc3LjAnLCAnLXRuJywgJzgnLCAnLW1hJywgJzIwMCcsICctbWV0YWxfYmluZGluZycsICctaW1hZScsICc8aW5maWxlLm1hZT4nLCAnLW9tYWUnLCAnPG91dGZpbGUubWFlPic=

> <r_epik_Ionization_Penalty>
0.0692245

> <r_epik_Ionization_Penalty_Charging>
0.0692223

> <r_epik_Ionization_Penalty_Neutral>
2.1869e-06

> <r_epik_State_Penalty>
0.0606215

> <r_epik_Charging_Adjusted_Penalty>
0.129844

> <i_epik_Tot_Q>
1

> <i_epik_Tot_abs_Q>
1

> <r_epik_Metal_State_Penalty>
2.77811

> <b_epik_Metal_Only>
0

> <s_lp_Force_Field>
OPLS_2005

> <r_lp_Energy>
19.2261

> <b_lp_Chiralities_Consistent>
1

> <s_lp_Variant>
AV-unprocessed.smi:573-3

> <Gold.Version>
5.8.1

> <Gold.Id.Protein>
6NUR|6NUR_protein|mol2

> <Gold.PLP.Fitness>
51.8201

> <Gold.PLP.PLP>
-45.3691

> <Gold.PLP.part.hbond>
-3.0000

> <Gold.PLP.part.metal>
0.0000

> <Gold.PLP.part.buried>
-5.1693

> <Gold.PLP.part.nonpolar>
-36.5184

> <Gold.PLP.part.repulsive>
0.0828

> <Gold.PLP.ligand.clash>
0.0000

> <Gold.PLP.ligand.torsion>
0.6770

> <Gold.PLP.Chemscore.Hbond>
2.5920

> <Gold.PLP.Chemscore.CHOScore>
0.0000

> <Gold.PLP.Chemscore.Metal>
0.0000

> <Gold.Chemscore.Hbonds>
donor molecule, donor type, donor heavy atom, donor atom, acceptor molecule, acceptor atom, score
      L1  H     7    45       P1  8028  2.00
      P1  H  7997  8008       L1    21  0.54

> <Gold.PLP.Chemscore.Internal.Correction>
0.0289

> <Gold.Rescore>
     Score         DG    S(hbond)    S(metal)    S(lipo)     H(rot)  DE(clash)    DE(int)     intcor
     17.09     -18.90       1.14        0.00     127.35       2.07       0.03       1.78       ----

> <Gold.Chemscore.Fitness>
17.0948

> <Gold.Chemscore.DG>
-18.9017

> <Gold.Chemscore.ZeroCoef>
-5.4800

> <Gold.Chemscore.Hbond>
1.1441

> <Gold.Chemscore.Metal>
0.0000

> <Gold.Chemscore.Lipo>
127.3450

> <Gold.Chemscore.Internal_Hbond>
0.0000

> <Gold.Chemscore.DEClash>
0.0289

> <Gold.Chemscore.DEInternal>
1.7780

> <Gold.Chemscore.Rot>
2.0699

> <Gold.Chemscore.Internal.Correction>
   9.000000E+99

> <Gold.Chemscore.Hbonds>
donor molecule, donor type, donor heavy atom, donor atom, acceptor molecule, acceptor atom, score
      L1  H     7    45       P1  8028  0.99
      P1  H  7997  8008       L1    21  0.01

> <Gold.Chemscore.Hbond.Weighted>
-3.8214

> <Gold.Chemscore.Metal.Weighted>
-0.0000

> <Gold.Chemscore.Lipo.Weighted>
-14.8994

> <Gold.Chemscore.Internal_Hbond.Weighted>
0.0000

> <Gold.Chemscore.DEClash.Weighted>
0.0289

> <Gold.Chemscore.DEInternal.Weighted>
1.7780

> <Gold.Chemscore.Rot.Weighted>
5.2991

> <Gold.Chemscore.Internal.Correction.Weighted>
   9.000000E+99

> <Gold.Protein.RotatedTorsions>
[ 6907 6896 6895 6894 ] final -140.29 input  -60.11 | X-H torsion
[ 7974 7965 7964 7962 ] final  156.54 input  175.53 | X-H torsion
[ 8008 7997 7996 7995 ] final  -54.10 input   59.86 | X-H torsion
[ 10167 10162 10161 10158 ] final  -52.03 input  -65.29 | X-H torsion
[ 10718 10713 10712 10709 ] final -119.00 input   66.30 | X-H torsion
[ 10763 10752 10751 10750 ] final   37.28 input  -60.55 | X-H torsion
[ 11005 11000 10999 10996 ] final -116.74 input  -57.11 | X-H torsion

> <Gold.Protein.ActiveResidues>
 VAL166  LYS551  ARG553  GLY616  TRP617  ASP618  TYR619  PRO620  LYS621  CYS622 
 ASP623  PHE694  ASN695  SER759  ASP760  ASP761  ALA762  ILE779  LEU786  VAL792 
 PHE793  MET794  SER795  GLU796  ALA797  LYS798  CYS799  TRP800  GLU811  SER814 

> <Gold.Protein.RotatedAtoms>
  151.0588  133.5561  159.2635 H   0  0  0  0  0  0  0  0  0  0  0  0  # atno 6907 bound_to 6896
  151.2544  135.0632  159.9084 H   0  0  0  0  0  0  0  0  0  0  0  0  # atno 6908 bound_to 6896
  152.5394  134.0344  159.8093 H   0  0  0  0  0  0  0  0  0  0  0  0  # atno 6909 bound_to 6896
  144.7957  139.7217  143.6203 H   0  0  0  0  0  0  0  0  0  0  0  0  # atno 7974 bound_to 7965
  154.4152  140.1184  156.5261 H   0  0  0  0  0  0  0  0  0  0  0  0  # atno 8008 bound_to 7997
  155.6653  140.3496  155.4779 H   0  0  0  0  0  0  0  0  0  0  0  0  # atno 8009 bound_to 7997
  155.9678  140.1135  157.0829 H   0  0  0  0  0  0  0  0  0  0  0  0  # atno 8010 bound_to 7997
  140.6558  143.2598  151.4589 H   0  0  0  0  0  0  0  0  0  0  0  0  # atno 10167 bound_to 10162
  156.1148  130.6277  150.9361 H   0  0  0  0  0  0  0  0  0  0  0  0  # atno 10718 bound_to 10713
  153.0043  135.6282  154.2120 H   0  0  0  0  0  0  0  0  0  0  0  0  # atno 10763 bound_to 10752
  154.1863  135.2811  155.3038 H   0  0  0  0  0  0  0  0  0  0  0  0  # atno 10764 bound_to 10752
  154.5795  135.5652  153.7231 H   0  0  0  0  0  0  0  0  0  0  0  0  # atno 10765 bound_to 10752
  141.0402  133.9847  157.3007 H   0  0  0  0  0  0  0  0  0  0  0  0  # atno 11005 bound_to 11000
  146.2224  139.5661  142.9609 LP  0  0  0  0  0  0  0  0  0  0  0  0  # atno 17320 bound_to 7965
  145.5679  141.0397  143.2190 LP  0  0  0  0  0  0  0  0  0  0  0  0  # atno 17321 bound_to 7965
  139.5781  144.1773  152.1931 LP  0  0  0  0  0  0  0  0  0  0  0  0  # atno 17342 bound_to 10162
  140.1089  144.5474  150.6938 LP  0  0  0  0  0  0  0  0  0  0  0  0  # atno 17343 bound_to 10162
  157.6331  131.0919  150.8403 LP  0  0  0  0  0  0  0  0  0  0  0  0  # atno 17370 bound_to 10713
  156.8508  130.5079  149.5312 LP  0  0  0  0  0  0  0  0  0  0  0  0  # atno 17371 bound_to 10713
  139.9270  135.0201  156.8269 LP  0  0  0  0  0  0  0  0  0  0  0  0  # atno 17394 bound_to 11000
  140.6248  133.9960  155.7635 LP  0  0  0  0  0  0  0  0  0  0  0  0  # atno 17395 bound_to 11000

$$$$
