AV-unprocessed.smi:3085|AV-procd|sdf|11754|dock2
  -GOLD-   2272017143D 1   1.00000     0.00000
 Structure written by MMmdl.
 27 28  0  0  0  0  0  0  0  0  1 V2000
  151.9424  142.8923  159.2345 C   0  0  0  0  0  0  0  0  0  0  0  0
  151.1011  143.2132  157.9946 C   0  0  0  0  0  0  0  0  0  0  0  0
  151.0638  142.0851  157.0164 C   0  0  0  0  0  0  0  0  0  0  0  0
  151.6057  140.8875  157.2084 N   0  0  0  0  0  0  0  0  0  0  0  0
  151.2767  140.2779  156.0273 C   0  0  0  0  0  0  0  0  0  0  0  0
  151.6255  138.8566  155.7094 C   0  0  2  0  0  0  0  0  0  0  0  0
  151.1949  138.4553  154.2852 C   0  0  0  0  0  0  0  0  0  0  0  0
  151.4689  137.0375  154.0550 N   0  0  0  0  0  0  0  0  0  0  0  0
  150.8353  136.2045  155.0763 C   0  0  0  0  0  0  0  0  0  0  0  0
  151.2623  136.6618  156.4831 C   0  0  0  0  0  0  0  0  0  0  0  0
  150.9422  138.0381  156.6566 O   0  0  0  0  0  0  0  0  0  0  0  0
  150.5568  141.0099  155.1775 N   0  0  0  0  0  0  0  0  0  0  0  0
  150.4407  142.1800  155.8401 N   0  0  0  0  0  0  0  0  0  0  0  0
  149.9451  142.9779  155.4690 H   0  0  0  0  0  0  0  0  0  0  0  0
  151.9525  143.7350  159.9257 H   0  0  0  0  0  0  0  0  0  0  0  0
  152.9750  142.6718  158.9625 H   0  0  0  0  0  0  0  0  0  0  0  0
  151.5436  142.0285  159.7673 H   0  0  0  0  0  0  0  0  0  0  0  0
  150.0814  143.4621  158.2911 H   0  0  0  0  0  0  0  0  0  0  0  0
  151.5024  144.0951  157.4939 H   0  0  0  0  0  0  0  0  0  0  0  0
  152.7030  138.7255  155.8293 H   0  0  0  0  0  0  0  0  0  0  0  0
  150.1300  138.6512  154.1536 H   0  0  0  0  0  0  0  0  0  0  0  0
  151.7201  139.0623  153.5473 H   0  0  0  0  0  0  0  0  0  0  0  0
  151.1271  136.7696  153.1375 H   0  0  0  0  0  0  0  0  0  0  0  0
  149.7503  136.2672  154.9851 H   0  0  0  0  0  0  0  0  0  0  0  0
  151.1026  135.1586  154.9250 H   0  0  0  0  0  0  0  0  0  0  0  0
  150.7375  136.0802  157.2411 H   0  0  0  0  0  0  0  0  0  0  0  0
  152.3298  136.4995  156.6408 H   0  0  0  0  0  0  0  0  0  0  0  0
  1  2  1  0  0  0  0
  1 15  1  0  0  0  0
  1 16  1  0  0  0  0
  1 17  1  0  0  0  0
  2  3  1  0  0  0  0
  2 18  1  0  0  0  0
  2 19  1  0  0  0  0
  3 13  1  0  0  0  0
  3  4  2  0  0  0  0
  4  5  1  0  0  0  0
  5  6  1  0  0  0  0
  5 12  2  0  0  0  0
  6 11  1  0  0  0  0
  6  7  1  0  0  0  0
  6 20  1  0  0  0  0
  7  8  1  0  0  0  0
  7 21  1  0  0  0  0
  7 22  1  0  0  0  0
  8  9  1  0  0  0  0
  8 23  1  0  0  0  0
  9 10  1  0  0  0  0
  9 24  1  0  0  0  0
  9 25  1  0  0  0  0
 10 11  1  0  0  0  0
 10 26  1  0  0  0  0
 10 27  1  0  0  0  0
 12 13  1  0  0  0  0
 13 14  1  0  0  0  0
M  END
> <s_m_source_file>
AV-unprocessed.smi

> <i_m_source_file_index>
3085

> <i_lp_mmshare_version>
43012

> <i_f3d_flags>
0

> <s_epik_input>
W0NIM11bQ0gyXWMxbmMobltuSF0xKVtDQEBIXTJbQ0gyXVtOSF1bQ0gyXVtDSDJdTzI=

> <s_epik_cmdline>
J2VwaWtfcHl0aG9uJywgJy1waCcsICc3LjAnLCAnLXRuJywgJzgnLCAnLW1hJywgJzIwMCcsICctbWV0YWxfYmluZGluZycsICctaW1hZScsICc8aW5maWxlLm1hZT4nLCAnLW9tYWUnLCAnPG91dGZpbGUubWFlPic=

> <r_lp_tautomer_probability>
0.948284

> <r_epik_Ionization_Penalty>
1.10101

> <r_epik_Ionization_Penalty_Charging>
0

> <r_epik_Ionization_Penalty_Neutral>
1.10101

> <r_epik_State_Penalty>
1.49451

> <r_epik_Charging_Adjusted_Penalty>
1.49451

> <i_epik_Tot_Q>
0

> <i_epik_Tot_abs_Q>
0

> <r_epik_Metal_State_Penalty>
1.71443

> <b_epik_Metal_Only>
0

> <s_lp_Force_Field>
OPLS_2005

> <r_lp_Energy>
11.1302

> <b_lp_Chiralities_Consistent>
1

> <s_lp_Variant>
AV-unprocessed.smi:3085-5

> <Gold.Version>
5.8.1

> <Gold.Id.Protein>
6NUR|6NUR_protein|mol2

> <Gold.PLP.Fitness>
31.6805

> <Gold.PLP.PLP>
-22.7292

> <Gold.PLP.part.hbond>
-3.9340

> <Gold.PLP.part.metal>
0.0000

> <Gold.PLP.part.buried>
-2.3462

> <Gold.PLP.part.nonpolar>
-16.3169

> <Gold.PLP.part.repulsive>
0.2257

> <Gold.PLP.ligand.clash>
0.0000

> <Gold.PLP.ligand.torsion>
0.0639

> <Gold.PLP.Chemscore.Hbond>
3.0223

> <Gold.PLP.Chemscore.CHOScore>
0.0000

> <Gold.PLP.Chemscore.Metal>
0.0000

> <Gold.Chemscore.Hbonds>
donor molecule, donor type, donor heavy atom, donor atom, acceptor molecule, acceptor atom, score
      L1  H     8    23       P1  7949  1.00
      L1  H    13    14       P1  8028  0.98
      P1  H  7989  7998       L1    12  0.72
      P1  H 10752 10765       L1     8  0.28

> <Gold.PLP.Chemscore.Internal.Correction>
0.0123

> <Gold.Rescore>
     Score         DG    S(hbond)    S(metal)    S(lipo)     H(rot)  DE(clash)    DE(int)     intcor
     14.22     -14.43       2.19        0.00      41.91       1.28       0.20       0.01       ----

> <Gold.Chemscore.Fitness>
14.2211

> <Gold.Chemscore.DG>
-14.4304

> <Gold.Chemscore.ZeroCoef>
-5.4800

> <Gold.Chemscore.Hbond>
2.1939

> <Gold.Chemscore.Metal>
0.0000

> <Gold.Chemscore.Lipo>
41.9099

> <Gold.Chemscore.Internal_Hbond>
0.0000

> <Gold.Chemscore.DEClash>
0.1999

> <Gold.Chemscore.DEInternal>
0.0094

> <Gold.Chemscore.Rot>
1.2815

> <Gold.Chemscore.Internal.Correction>
   9.000000E+99

> <Gold.Chemscore.Hbonds>
donor molecule, donor type, donor heavy atom, donor atom, acceptor molecule, acceptor atom, score
      L1  H     8    23       P1  7949  0.44
      L1  H    13    14       P1  8028  0.89
      P1  H  7989  7998       L1    12  0.27

> <Gold.Chemscore.Hbond.Weighted>
-7.3275

> <Gold.Chemscore.Metal.Weighted>
-0.0000

> <Gold.Chemscore.Lipo.Weighted>
-4.9035

> <Gold.Chemscore.Internal_Hbond.Weighted>
0.0000

> <Gold.Chemscore.DEClash.Weighted>
0.1999

> <Gold.Chemscore.DEInternal.Weighted>
0.0094

> <Gold.Chemscore.Rot.Weighted>
3.2805

> <Gold.Chemscore.Internal.Correction.Weighted>
   9.000000E+99

> <Gold.Protein.RotatedTorsions>
[ 6907 6896 6895 6894 ] final  -88.34 input  -60.11 | X-H torsion
[ 7974 7965 7964 7962 ] final  147.02 input  175.53 | X-H torsion
[ 8008 7997 7996 7995 ] final   52.28 input   59.86 | X-H torsion
[ 10167 10162 10161 10158 ] final   20.71 input  -65.29 | X-H torsion
[ 10718 10713 10712 10709 ] final  -62.51 input   66.30 | X-H torsion
[ 10763 10752 10751 10750 ] final  137.18 input  -60.55 | X-H torsion
[ 11005 11000 10999 10996 ] final   -9.14 input  -57.11 | X-H torsion

> <Gold.Protein.ActiveResidues>
 VAL166  LYS551  ARG553  GLY616  TRP617  ASP618  TYR619  PRO620  LYS621  CYS622 
 ASP623  PHE694  ASN695  SER759  ASP760  ASP761  ALA762  ILE779  LEU786  VAL792 
 PHE793  MET794  SER795  GLU796  ALA797  LYS798  CYS799  TRP800  GLU811  SER814 

> <Gold.Protein.RotatedAtoms>
  150.6868  134.2757  159.4606 H   0  0  0  0  0  0  0  0  0  0  0  0  # atno 6907 bound_to 6896
  152.0675  134.9552  160.0584 H   0  0  0  0  0  0  0  0  0  0  0  0  # atno 6908 bound_to 6896
  152.0955  133.4188  159.4600 H   0  0  0  0  0  0  0  0  0  0  0  0  # atno 6909 bound_to 6896
  144.8625  139.5977  143.5924 H   0  0  0  0  0  0  0  0  0  0  0  0  # atno 7974 bound_to 7965
  155.4491  140.3457  155.4299 H   0  0  0  0  0  0  0  0  0  0  0  0  # atno 8008 bound_to 7997
  156.1231  140.1493  156.9205 H   0  0  0  0  0  0  0  0  0  0  0  0  # atno 8009 bound_to 7997
  154.4838  140.0861  156.7419 H   0  0  0  0  0  0  0  0  0  0  0  0  # atno 8010 bound_to 7997
  140.5483  143.9555  150.6561 H   0  0  0  0  0  0  0  0  0  0  0  0  # atno 10167 bound_to 10162
  156.0850  130.4210  150.1146 H   0  0  0  0  0  0  0  0  0  0  0  0  # atno 10718 bound_to 10713
  153.8687  135.3058  155.3441 H   0  0  0  0  0  0  0  0  0  0  0  0  # atno 10763 bound_to 10752
  154.7815  135.4832  153.9859 H   0  0  0  0  0  0  0  0  0  0  0  0  # atno 10764 bound_to 10752
  153.1419  135.6826  153.9110 H   0  0  0  0  0  0  0  0  0  0  0  0  # atno 10765 bound_to 10752
  140.7310  133.8749  155.8893 H   0  0  0  0  0  0  0  0  0  0  0  0  # atno 11005 bound_to 11000
  146.2871  139.7034  142.9188 LP  0  0  0  0  0  0  0  0  0  0  0  0  # atno 17320 bound_to 7965
  145.4285  141.0413  143.2924 LP  0  0  0  0  0  0  0  0  0  0  0  0  # atno 17321 bound_to 7965
  140.2974  143.3283  152.1004 LP  0  0  0  0  0  0  0  0  0  0  0  0  # atno 17342 bound_to 10162
  139.5016  144.6718  151.6225 LP  0  0  0  0  0  0  0  0  0  0  0  0  # atno 17343 bound_to 10162
  156.9169  130.9670  151.3554 LP  0  0  0  0  0  0  0  0  0  0  0  0  # atno 17370 bound_to 10713
  157.5981  130.8493  149.8760 LP  0  0  0  0  0  0  0  0  0  0  0  0  # atno 17371 bound_to 10713
  140.9921  134.1265  157.4398 LP  0  0  0  0  0  0  0  0  0  0  0  0  # atno 17394 bound_to 11000
  139.8826  135.0043  156.6243 LP  0  0  0  0  0  0  0  0  0  0  0  0  # atno 17395 bound_to 11000

$$$$
