AV-unprocessed.smi:544|AV-procd|sdf|2879|dock8
  -GOLD-   2262023373D 1   1.00000     0.00000
 Structure written by MMmdl.
 48 50  0  0  0  0  0  0  0  0  2 V2000
  156.3470  140.7773  165.6297 C   0  0  0  0  0  0  0  0  0  0  0  0
  155.7243  140.7822  164.2319 C   0  0  0  0  0  0  0  0  0  0  0  0
  156.5018  139.9585  163.3799 O   0  0  0  0  0  0  0  0  0  0  0  0
  156.0420  139.9699  162.0390 C   0  0  0  0  0  0  0  0  0  0  0  0
  154.6851  139.2489  161.9773 C   0  0  0  0  0  0  0  0  0  0  0  0
  154.1609  139.1606  160.6168 N   0  0  0  0  0  0  0  0  0  0  0  0
  153.6466  140.1483  159.8264 C   0  0  0  0  0  0  0  0  0  0  0  0
  153.5567  141.4926  160.2167 N   0  0  0  0  0  0  0  0  0  0  0  0
  153.7225  142.0479  161.5626 C   0  0  0  0  0  0  0  0  0  0  0  0
  152.5700  142.9940  161.9440 C   0  0  0  0  0  0  0  0  0  0  0  0
  152.4565  144.1383  160.9300 C   0  0  0  0  0  0  0  0  0  0  0  0
  152.3768  143.5719  159.5030 C   0  0  1  0  0  0  0  0  0  0  0  0
  152.3469  144.6914  158.4542 C   0  0  0  0  0  0  0  0  0  0  0  0
  153.5485  142.5995  159.2568 C   0  0  0  0  0  0  0  0  0  0  0  0
  153.1958  139.7204  158.6440 N   0  0  0  0  0  0  0  0  0  0  0  0
  153.4534  138.3606  158.6727 C   0  0  0  0  0  0  0  0  0  0  0  0
  154.0227  137.9958  159.8514 C   0  0  0  0  0  0  0  0  0  0  0  0
  154.3793  136.5989  160.1909 C   0  0  0  0  0  0  0  0  0  0  0  0
  154.8674  136.3135  161.2823 O   0  0  0  0  0  0  0  0  0  0  0  0
  154.0961  135.7289  159.1703 N   0  5  0  0  0  0  0  0  0  0  0  0
  153.5291  136.0587  157.9584 C   0  0  0  0  0  0  0  0  0  0  0  0
  153.3075  135.2116  157.0920 O   0  0  0  0  0  0  0  0  0  0  0  0
  153.1969  137.3612  157.6948 N   0  0  0  0  0  0  0  0  0  0  0  0
  152.5881  137.7409  156.4168 C   0  0  0  0  0  0  0  0  0  0  0  0
  155.7738  141.4039  166.3130 H   0  0  0  0  0  0  0  0  0  0  0  0
  157.3687  141.1568  165.6043 H   0  0  0  0  0  0  0  0  0  0  0  0
  156.3736  139.7684  166.0423 H   0  0  0  0  0  0  0  0  0  0  0  0
  154.6990  140.4126  164.2807 H   0  0  0  0  0  0  0  0  0  0  0  0
  155.6909  141.8010  163.8430 H   0  0  0  0  0  0  0  0  0  0  0  0
  155.9541  140.9972  161.6861 H   0  0  0  0  0  0  0  0  0  0  0  0
  156.7692  139.4780  161.3934 H   0  0  0  0  0  0  0  0  0  0  0  0
  154.7739  138.2425  162.3857 H   0  0  0  0  0  0  0  0  0  0  0  0
  153.9581  139.7415  162.6175 H   0  0  0  0  0  0  0  0  0  0  0  0
  153.8171  141.2580  162.3010 H   0  0  0  0  0  0  0  0  0  0  0  0
  154.6677  142.5912  161.5988 H   0  0  0  0  0  0  0  0  0  0  0  0
  151.6291  142.4447  161.9823 H   0  0  0  0  0  0  0  0  0  0  0  0
  152.7337  143.3969  162.9440 H   0  0  0  0  0  0  0  0  0  0  0  0
  151.5805  144.7497  161.1493 H   0  0  0  0  0  0  0  0  0  0  0  0
  153.3257  144.7912  161.0209 H   0  0  0  0  0  0  0  0  0  0  0  0
  151.4468  143.0082  159.4115 H   0  0  0  0  0  0  0  0  0  0  0  0
  153.2570  145.2910  158.4886 H   0  0  0  0  0  0  0  0  0  0  0  0
  151.5006  145.3594  158.6173 H   0  0  0  0  0  0  0  0  0  0  0  0
  152.2549  144.2833  157.4472 H   0  0  0  0  0  0  0  0  0  0  0  0
  154.5010  143.1286  159.3104 H   0  0  0  0  0  0  0  0  0  0  0  0
  153.4737  142.2053  158.2429 H   0  0  0  0  0  0  0  0  0  0  0  0
  153.2552  137.4961  155.5893 H   0  0  0  0  0  0  0  0  0  0  0  0
  152.3691  138.8063  156.3543 H   0  0  0  0  0  0  0  0  0  0  0  0
  151.6487  137.2071  156.2673 H   0  0  0  0  0  0  0  0  0  0  0  0
  1  2  1  0  0  0  0
  1 25  1  0  0  0  0
  1 26  1  0  0  0  0
  1 27  1  0  0  0  0
  2  3  1  0  0  0  0
  2 28  1  0  0  0  0
  2 29  1  0  0  0  0
  3  4  1  0  0  0  0
  4  5  1  0  0  0  0
  4 30  1  0  0  0  0
  4 31  1  0  0  0  0
  5  6  1  0  0  0  0
  5 32  1  0  0  0  0
  5 33  1  0  0  0  0
  6 17  1  0  0  0  0
  6  7  1  0  0  0  0
  7  8  1  0  0  0  0
  7 15  2  0  0  0  0
  8 14  1  0  0  0  0
  8  9  1  0  0  0  0
  9 10  1  0  0  0  0
  9 34  1  0  0  0  0
  9 35  1  0  0  0  0
 10 11  1  0  0  0  0
 10 36  1  0  0  0  0
 10 37  1  0  0  0  0
 11 12  1  0  0  0  0
 11 38  1  0  0  0  0
 11 39  1  0  0  0  0
 12 13  1  0  0  0  0
 12 14  1  0  0  0  0
 12 40  1  0  0  0  0
 13 41  1  0  0  0  0
 13 42  1  0  0  0  0
 13 43  1  0  0  0  0
 14 44  1  0  0  0  0
 14 45  1  0  0  0  0
 15 16  1  0  0  0  0
 16 23  1  0  0  0  0
 16 17  2  0  0  0  0
 17 18  1  0  0  0  0
 18 19  2  0  0  0  0
 18 20  1  0  0  0  0
 20 21  1  0  0  0  0
 21 22  2  0  0  0  0
 21 23  1  0  0  0  0
 23 24  1  0  0  0  0
 24 46  1  0  0  0  0
 24 47  1  0  0  0  0
 24 48  1  0  0  0  0
M  CHG  1  20  -1
M  END
> <s_m_source_file>
AV-unprocessed.smi

> <i_m_source_file_index>
544

> <i_lp_mmshare_version>
43012

> <i_f3d_flags>
0

> <s_epik_input>
W0NIM11uMWMoPU8pW25IXWMoPU8pYyhjMTIpbihbQ0gyXVtDSDJdT1tDSDJdW0NIM10pYyhuMilOM1tDSDJdW0NIMl1bQ0gyXVtDQEBIXShbQ0gzXSlbQ0gyXTM=

> <s_epik_cmdline>
J2VwaWtfcHl0aG9uJywgJy1waCcsICc3LjAnLCAnLXRuJywgJzgnLCAnLW1hJywgJzIwMCcsICctbWV0YWxfYmluZGluZycsICctaW1hZScsICc8aW5maWxlLm1hZT4nLCAnLW9tYWUnLCAnPG91dGZpbGUubWFlPic=

> <r_lp_tautomer_probability>
1

> <r_epik_Ionization_Penalty>
5.1213

> <r_epik_Ionization_Penalty_Charging>
0.0741877

> <r_epik_Ionization_Penalty_Neutral>
5.04711

> <r_epik_State_Penalty>
5.04142

> <r_epik_Charging_Adjusted_Penalty>
5.11561

> <i_epik_Tot_Q>
-1

> <i_epik_Tot_abs_Q>
1

> <r_epik_Metal_State_Penalty>
1.14934

> <b_epik_Metal_Only>
1

> <s_lp_Force_Field>
OPLS_2005

> <r_lp_Energy>
41.9091

> <b_lp_Chiralities_Consistent>
1

> <s_lp_Variant>
AV-unprocessed.smi:544-3

> <Gold.Version>
5.8.1

> <Gold.Id.Protein>
6NUR|6NUR_protein|mol2

> <Gold.PLP.Fitness>
54.5324

> <Gold.PLP.PLP>
-44.8380

> <Gold.PLP.part.hbond>
-2.7611

> <Gold.PLP.part.metal>
0.0000

> <Gold.PLP.part.buried>
-5.2977

> <Gold.PLP.part.nonpolar>
-35.7119

> <Gold.PLP.part.repulsive>
0.0000

> <Gold.PLP.ligand.clash>
0.3712

> <Gold.PLP.ligand.torsion>
0.3257

> <Gold.PLP.Chemscore.Hbond>
3.5233

> <Gold.PLP.Chemscore.CHOScore>
0.0000

> <Gold.PLP.Chemscore.Metal>
0.0000

> <Gold.Chemscore.Hbonds>
donor molecule, donor type, donor heavy atom, donor atom, acceptor molecule, acceptor atom, score
      P1  H  6896  6907       L1    20  1.40
      P1  H  7997  8010       L1    15  0.42
      P1  H 10752 10764       L1    22  1.00

> <Gold.PLP.Chemscore.Internal.Correction>
0.1471

> <Gold.Rescore>
     Score         DG    S(hbond)    S(metal)    S(lipo)     H(rot)  DE(clash)    DE(int)     intcor
     17.74     -19.24       1.33        0.00     113.72       1.55       0.09       1.42       ----

> <Gold.Chemscore.Fitness>
17.7385

> <Gold.Chemscore.DG>
-19.2439

> <Gold.Chemscore.ZeroCoef>
-5.4800

> <Gold.Chemscore.Hbond>
1.3281

> <Gold.Chemscore.Metal>
0.0000

> <Gold.Chemscore.Lipo>
113.7182

> <Gold.Chemscore.Internal_Hbond>
0.0000

> <Gold.Chemscore.DEClash>
0.0864

> <Gold.Chemscore.DEInternal>
1.4189

> <Gold.Chemscore.Rot>
1.5534

> <Gold.Chemscore.Internal.Correction>
   9.000000E+99

> <Gold.Chemscore.Hbonds>
donor molecule, donor type, donor heavy atom, donor atom, acceptor molecule, acceptor atom, score
      P1  H  6896  6907       L1    20  0.04
      P1  H  7997  8010       L1    15  0.02
      P1  H 10752 10764       L1    22  0.99

> <Gold.Chemscore.Hbond.Weighted>
-4.4357

> <Gold.Chemscore.Metal.Weighted>
-0.0000

> <Gold.Chemscore.Lipo.Weighted>
-13.3050

> <Gold.Chemscore.Internal_Hbond.Weighted>
0.0000

> <Gold.Chemscore.DEClash.Weighted>
0.0864

> <Gold.Chemscore.DEInternal.Weighted>
1.4189

> <Gold.Chemscore.Rot.Weighted>
3.9768

> <Gold.Chemscore.Internal.Correction.Weighted>
   9.000000E+99

> <Gold.Protein.RotatedTorsions>
[ 6907 6896 6895 6894 ] final   61.31 input  -60.11 | X-H torsion
[ 7974 7965 7964 7962 ] final   86.67 input  175.53 | X-H torsion
[ 8008 7997 7996 7995 ] final   32.06 input   59.86 | X-H torsion
[ 10167 10162 10161 10158 ] final  102.87 input  -65.29 | X-H torsion
[ 10718 10713 10712 10709 ] final  102.25 input   66.30 | X-H torsion
[ 10763 10752 10751 10750 ] final   -4.61 input  -60.55 | X-H torsion
[ 11005 11000 10999 10996 ] final    9.82 input  -57.11 | X-H torsion

> <Gold.Protein.ActiveResidues>
 VAL166  LYS551  ARG553  GLY616  TRP617  ASP618  TYR619  PRO620  LYS621  CYS622 
 ASP623  PHE694  ASN695  SER759  ASP760  ASP761  ALA762  ILE779  LEU786  VAL792 
 PHE793  MET794  SER795  GLU796  ALA797  LYS798  CYS799  TRP800  GLU811  SER814 

> <Gold.Protein.RotatedAtoms>
  152.4078  134.6177  160.0042 H   0  0  0  0  0  0  0  0  0  0  0  0  # atno 6907 bound_to 6896
  151.6363  133.3323  159.3128 H   0  0  0  0  0  0  0  0  0  0  0  0  # atno 6908 bound_to 6896
  150.7971  134.7080  159.6632 H   0  0  0  0  0  0  0  0  0  0  0  0  # atno 6909 bound_to 6896
  145.5692  139.2312  143.2416 H   0  0  0  0  0  0  0  0  0  0  0  0  # atno 7974 bound_to 7965
  155.1164  140.3244  155.4508 H   0  0  0  0  0  0  0  0  0  0  0  0  # atno 8008 bound_to 7997
  156.2676  140.2035  156.6235 H   0  0  0  0  0  0  0  0  0  0  0  0  # atno 8009 bound_to 7997
  154.6717  140.0536  157.0159 H   0  0  0  0  0  0  0  0  0  0  0  0  # atno 8010 bound_to 7997
  139.7312  144.7035  151.0719 H   0  0  0  0  0  0  0  0  0  0  0  0  # atno 10167 bound_to 10162
  157.6807  131.0748  150.5376 H   0  0  0  0  0  0  0  0  0  0  0  0  # atno 10718 bound_to 10713
  153.3873  135.7000  153.6521 H   0  0  0  0  0  0  0  0  0  0  0  0  # atno 10763 bound_to 10752
  153.5108  135.3632  155.2586 H   0  0  0  0  0  0  0  0  0  0  0  0  # atno 10764 bound_to 10752
  154.8699  135.4134  154.3182 H   0  0  0  0  0  0  0  0  0  0  0  0  # atno 10765 bound_to 10752
  140.5214  134.0555  155.7846 H   0  0  0  0  0  0  0  0  0  0  0  0  # atno 11005 bound_to 11000
  146.1796  140.6518  142.9195 LP  0  0  0  0  0  0  0  0  0  0  0  0  # atno 17320 bound_to 7965
  144.7446  140.5033  143.6845 LP  0  0  0  0  0  0  0  0  0  0  0  0  # atno 17321 bound_to 7965
  140.7771  143.5040  150.9735 LP  0  0  0  0  0  0  0  0  0  0  0  0  # atno 17342 bound_to 10162
  139.8729  143.7170  152.3164 LP  0  0  0  0  0  0  0  0  0  0  0  0  # atno 17343 bound_to 10162
  156.5684  130.4273  149.6031 LP  0  0  0  0  0  0  0  0  0  0  0  0  # atno 17370 bound_to 10713
  156.2762  130.7045  151.1856 LP  0  0  0  0  0  0  0  0  0  0  0  0  # atno 17371 bound_to 10713
  141.1332  133.9267  157.2491 LP  0  0  0  0  0  0  0  0  0  0  0  0  # atno 17394 bound_to 11000
  139.9604  135.0155  156.9244 LP  0  0  0  0  0  0  0  0  0  0  0  0  # atno 17395 bound_to 11000

$$$$
