AV-unprocessed.smi:3295|AV-procd|sdf|12635|dock2
  -GOLD-   2272018573D 1   1.00000     0.00000
 Structure written by MMmdl.
 37 38  0  0  0  0  0  0  0  0  1 V2000
  147.7983  133.2247  152.2966 C   0  0  0  0  0  0  0  0  0  0  0  0
  146.5208  133.3662  151.4873 C   0  0  0  0  0  0  0  0  0  0  0  0
  145.9443  132.2300  150.8798 C   0  0  0  0  0  0  0  0  0  0  0  0
  144.8110  132.2682  150.1495 N   0  0  0  0  0  0  0  0  0  0  0  0
  144.1994  133.4610  150.0014 C   0  0  0  0  0  0  0  0  0  0  0  0
  144.6862  134.6577  150.5626 C   0  0  0  0  0  0  0  0  0  0  0  0
  145.8845  134.6202  151.3165 C   0  0  0  0  0  0  0  0  0  0  0  0
  146.4552  135.7660  151.9412 N   0  0  0  0  0  0  0  0  0  0  0  0
  145.8388  136.7873  152.5617 C   0  0  0  0  0  0  0  0  0  0  0  0
  144.6221  136.9088  152.7021 O   0  0  0  0  0  0  0  0  0  0  0  0
  146.7281  137.6874  153.0040 N   0  0  0  0  0  0  0  0  0  0  0  0
  146.4005  138.9082  153.7357 C   0  0  0  0  0  0  0  0  0  0  0  0
  147.0528  140.1768  153.1277 C   0  0  0  0  0  0  0  0  0  0  0  0
  146.7566  140.2122  151.7452 O   0  0  0  0  0  0  0  0  0  0  0  0
  146.6651  141.4952  153.8171 C   0  0  0  0  0  0  0  0  0  0  0  0
  147.5826  141.5813  155.0408 C   0  0  0  0  0  0  0  0  0  0  0  0
  148.8437  140.7803  154.6809 C   0  0  0  0  0  0  0  0  0  0  0  0
  148.5778  140.1512  153.3056 C   0  0  0  0  0  0  0  0  0  0  0  0
  148.1486  132.1923  152.3067 H   0  0  0  0  0  0  0  0  0  0  0  0
  147.6316  133.5339  153.3287 H   0  0  0  0  0  0  0  0  0  0  0  0
  148.5884  133.8449  151.8725 H   0  0  0  0  0  0  0  0  0  0  0  0
  146.4041  131.2580  150.9823 H   0  0  0  0  0  0  0  0  0  0  0  0
  143.2882  133.4616  149.4217 H   0  0  0  0  0  0  0  0  0  0  0  0
  144.1266  135.5679  150.4140 H   0  0  0  0  0  0  0  0  0  0  0  0
  147.4563  135.8509  151.8458 H   0  0  0  0  0  0  0  0  0  0  0  0
  147.7074  137.5094  152.8377 H   0  0  0  0  0  0  0  0  0  0  0  0
  145.3149  139.0004  153.6956 H   0  0  0  0  0  0  0  0  0  0  0  0
  146.6471  138.8139  154.7949 H   0  0  0  0  0  0  0  0  0  0  0  0
  147.5678  140.1765  151.2621 H   0  0  0  0  0  0  0  0  0  0  0  0
  146.8896  142.3336  153.1555 H   0  0  0  0  0  0  0  0  0  0  0  0
  145.6089  141.5731  154.0750 H   0  0  0  0  0  0  0  0  0  0  0  0
  147.8112  142.6147  155.3033 H   0  0  0  0  0  0  0  0  0  0  0  0
  147.0933  141.1262  155.9027 H   0  0  0  0  0  0  0  0  0  0  0  0
  149.7310  141.4138  154.6559 H   0  0  0  0  0  0  0  0  0  0  0  0
  149.0184  140.0059  155.4286 H   0  0  0  0  0  0  0  0  0  0  0  0
  149.0012  139.1503  153.2125 H   0  0  0  0  0  0  0  0  0  0  0  0
  149.0534  140.7721  152.5443 H   0  0  0  0  0  0  0  0  0  0  0  0
  1  2  1  0  0  0  0
  1 19  1  0  0  0  0
  1 20  1  0  0  0  0
  1 21  1  0  0  0  0
  2  7  1  0  0  0  0
  2  3  2  0  0  0  0
  3  4  1  0  0  0  0
  3 22  1  0  0  0  0
  4  5  2  0  0  0  0
  5  6  1  0  0  0  0
  5 23  1  0  0  0  0
  6  7  2  0  0  0  0
  6 24  1  0  0  0  0
  7  8  1  0  0  0  0
  8  9  1  0  0  0  0
  8 25  1  0  0  0  0
  9 10  2  0  0  0  0
  9 11  1  0  0  0  0
 11 12  1  0  0  0  0
 11 26  1  0  0  0  0
 12 13  1  0  0  0  0
 12 27  1  0  0  0  0
 12 28  1  0  0  0  0
 13 18  1  0  0  0  0
 13 14  1  0  0  0  0
 13 15  1  0  0  0  0
 14 29  1  0  0  0  0
 15 16  1  0  0  0  0
 15 30  1  0  0  0  0
 15 31  1  0  0  0  0
 16 17  1  0  0  0  0
 16 32  1  0  0  0  0
 16 33  1  0  0  0  0
 17 18  1  0  0  0  0
 17 34  1  0  0  0  0
 17 35  1  0  0  0  0
 18 36  1  0  0  0  0
 18 37  1  0  0  0  0
M  END
> <s_m_source_file>
AV-unprocessed.smi

> <i_m_source_file_index>
3295

> <i_lp_mmshare_version>
43012

> <i_f3d_flags>
0

> <s_epik_input>
W0NIM11jMVtjSF1uW2NIXVtjSF1jMVtOSF1DKD1PKVtOSF1bQ0gyXUMyKFtPSF0pW0NIMl1bQ0gyXVtDSDJdW0NIMl0y

> <s_epik_cmdline>
J2VwaWtfcHl0aG9uJywgJy1waCcsICc3LjAnLCAnLXRuJywgJzgnLCAnLW1hJywgJzIwMCcsICctbWV0YWxfYmluZGluZycsICctaW1hZScsICc8aW5maWxlLm1hZT4nLCAnLW9tYWUnLCAnPG91dGZpbGUubWFlPic=

> <r_epik_Ionization_Penalty>
0.224243

> <r_epik_Ionization_Penalty_Charging>
0

> <r_epik_Ionization_Penalty_Neutral>
0.224243

> <r_epik_State_Penalty>
0.214648

> <r_epik_Charging_Adjusted_Penalty>
0.214648

> <i_epik_Tot_Q>
0

> <i_epik_Tot_abs_Q>
0

> <r_epik_Metal_State_Penalty>
0.155078

> <b_epik_Metal_Only>
0

> <s_lp_Force_Field>
OPLS_2005

> <r_lp_Energy>
30.8814

> <b_lp_Chiralities_Consistent>
1

> <s_lp_Variant>
AV-unprocessed.smi:3295-1

> <Gold.Version>
5.8.1

> <Gold.Id.Protein>
6NUR|6NUR_protein|mol2

> <Gold.PLP.Fitness>
43.2053

> <Gold.PLP.PLP>
-31.3406

> <Gold.PLP.part.hbond>
-3.3564

> <Gold.PLP.part.metal>
0.0000

> <Gold.PLP.part.buried>
1.2312

> <Gold.PLP.part.nonpolar>
-28.7513

> <Gold.PLP.part.repulsive>
0.4151

> <Gold.PLP.ligand.clash>
0.0000

> <Gold.PLP.ligand.torsion>
0.3789

> <Gold.PLP.Chemscore.Hbond>
2.8068

> <Gold.PLP.Chemscore.CHOScore>
1.3955

> <Gold.PLP.Chemscore.Metal>
0.0000

> <Gold.Chemscore.Hbonds>
donor molecule, donor type, donor heavy atom, donor atom, acceptor molecule, acceptor atom, score
      L1  H     8    25       P1  7948  0.96
      L1  H    11    26       P1  7948  0.83
      L1  H    14    29       P1  7957  1.00
      L1  C     3    22       P1 10747  0.49
      L1  C     5    23       P1 10186  1.00

> <Gold.PLP.Chemscore.Internal.Correction>
0.0159

> <Gold.Rescore>
     Score         DG    S(hbond)    S(metal)    S(lipo)     H(rot)  DE(clash)    DE(int)     intcor
     18.18     -20.41       2.87        0.00      83.20       1.71       1.80       0.42       ----

> <Gold.Chemscore.Fitness>
18.1841

> <Gold.Chemscore.DG>
-20.4110

> <Gold.Chemscore.ZeroCoef>
-5.4800

> <Gold.Chemscore.Hbond>
2.8666

> <Gold.Chemscore.Metal>
0.0000

> <Gold.Chemscore.Lipo>
83.2048

> <Gold.Chemscore.Internal_Hbond>
0.0000

> <Gold.Chemscore.DEClash>
1.8029

> <Gold.Chemscore.DEInternal>
0.4241

> <Gold.Chemscore.Rot>
1.7103

> <Gold.Chemscore.Internal.Correction>
   9.000000E+99

> <Gold.Chemscore.Hbonds>
donor molecule, donor type, donor heavy atom, donor atom, acceptor molecule, acceptor atom, score
      L1  H     8    25       P1  7948  0.91
      L1  H    11    26       P1  7948  0.78
      L1  H    14    29       P1  7957  0.94

> <Gold.Chemscore.Hbond.Weighted>
-9.5746

> <Gold.Chemscore.Metal.Weighted>
-0.0000

> <Gold.Chemscore.Lipo.Weighted>
-9.7350

> <Gold.Chemscore.Internal_Hbond.Weighted>
0.0000

> <Gold.Chemscore.DEClash.Weighted>
1.8029

> <Gold.Chemscore.DEInternal.Weighted>
0.4241

> <Gold.Chemscore.Rot.Weighted>
4.3785

> <Gold.Chemscore.Internal.Correction.Weighted>
   9.000000E+99

> <Gold.Protein.RotatedTorsions>
[ 6907 6896 6895 6894 ] final   21.38 input  -60.11 | X-H torsion
[ 7974 7965 7964 7962 ] final  138.70 input  175.53 | X-H torsion
[ 8008 7997 7996 7995 ] final   89.52 input   59.86 | X-H torsion
[ 10167 10162 10161 10158 ] final   85.85 input  -65.29 | X-H torsion
[ 10718 10713 10712 10709 ] final -136.57 input   66.30 | X-H torsion
[ 10763 10752 10751 10750 ] final  -55.10 input  -60.55 | X-H torsion
[ 11005 11000 10999 10996 ] final   24.58 input  -57.11 | X-H torsion

> <Gold.Protein.ActiveResidues>
 VAL166  LYS551  ARG553  GLY616  TRP617  ASP618  TYR619  PRO620  LYS621  CYS622 
 ASP623  PHE694  ASN695  SER759  ASP760  ASP761  ALA762  ILE779  LEU786  VAL792 
 PHE793  MET794  SER795  GLU796  ALA797  LYS798  CYS799  TRP800  GLU811  SER814 

> <Gold.Protein.RotatedAtoms>
  151.9110  135.0339  160.0514 H   0  0  0  0  0  0  0  0  0  0  0  0  # atno 6907 bound_to 6896
  152.2280  133.5031  159.5208 H   0  0  0  0  0  0  0  0  0  0  0  0  # atno 6908 bound_to 6896
  150.7017  134.1171  159.4064 H   0  0  0  0  0  0  0  0  0  0  0  0  # atno 6909 bound_to 6896
  144.9348  139.5003  143.5600 H   0  0  0  0  0  0  0  0  0  0  0  0  # atno 7974 bound_to 7965
  156.0009  140.3360  155.6845 H   0  0  0  0  0  0  0  0  0  0  0  0  # atno 8008 bound_to 7997
  155.6291  140.0683  157.2672 H   0  0  0  0  0  0  0  0  0  0  0  0  # atno 8009 bound_to 7997
  154.4249  140.1763  156.1441 H   0  0  0  0  0  0  0  0  0  0  0  0  # atno 8010 bound_to 7997
  139.8935  144.6371  150.8713 H   0  0  0  0  0  0  0  0  0  0  0  0  # atno 10167 bound_to 10162
  156.2785  130.7307  151.1297 H   0  0  0  0  0  0  0  0  0  0  0  0  # atno 10718 bound_to 10713
  154.1853  135.6436  153.5045 H   0  0  0  0  0  0  0  0  0  0  0  0  # atno 10763 bound_to 10752
  153.0048  135.5416  154.6471 H   0  0  0  0  0  0  0  0  0  0  0  0  # atno 10764 bound_to 10752
  154.5846  135.2928  155.0670 H   0  0  0  0  0  0  0  0  0  0  0  0  # atno 10765 bound_to 10752
  140.3571  134.2166  155.7675 H   0  0  0  0  0  0  0  0  0  0  0  0  # atno 11005 bound_to 11000
  146.3262  139.8324  142.8906 LP  0  0  0  0  0  0  0  0  0  0  0  0  # atno 17320 bound_to 7965
  145.3085  141.0213  143.3568 LP  0  0  0  0  0  0  0  0  0  0  0  0  # atno 17321 bound_to 7965
  140.7722  143.3492  151.2049 LP  0  0  0  0  0  0  0  0  0  0  0  0  # atno 17342 bound_to 10162
  139.7088  143.9410  152.2938 LP  0  0  0  0  0  0  0  0  0  0  0  0  # atno 17343 bound_to 10162
  157.7307  131.0614  150.5714 LP  0  0  0  0  0  0  0  0  0  0  0  0  # atno 17370 bound_to 10713
  156.5817  130.4306  149.5974 LP  0  0  0  0  0  0  0  0  0  0  0  0  # atno 17371 bound_to 10713
  141.1995  133.8010  157.0533 LP  0  0  0  0  0  0  0  0  0  0  0  0  # atno 17394 bound_to 11000
  140.0656  134.9731  157.1380 LP  0  0  0  0  0  0  0  0  0  0  0  0  # atno 17395 bound_to 11000

$$$$
