AV-unprocessed.smi:2562|AV-procd|sdf|10046|dock5
  -GOLD-   2272014 93D 1   1.00000     0.00000
 Structure written by MMmdl.
 30 31  0  0  0  0  0  0  0  0  1 V2000
  152.1781  144.5661  160.0175 C   0  0  0  0  0  0  0  0  0  0  0  0
  152.1530  143.6033  161.2094 C   0  0  0  0  0  0  0  0  0  0  0  0
  153.1227  142.4256  161.0356 C   0  0  0  0  0  0  0  0  0  0  0  0
  152.8765  141.6601  159.7769 C   0  0  0  0  0  0  0  0  0  0  0  0
  153.4428  140.4755  159.5384 N   0  0  0  0  0  0  0  0  0  0  0  0
  153.0470  140.0277  158.3285 N   0  0  0  0  0  0  0  0  0  0  0  0
  152.2643  141.0217  157.9051 C   0  0  0  0  0  0  0  0  0  0  0  0
  151.5427  140.9590  156.5941 C   0  0  2  0  0  0  0  0  0  0  0  0
  150.6827  142.2134  156.3447 C   0  0  0  0  0  0  0  0  0  0  0  0
  149.9255  142.0699  155.1020 N   0  0  0  0  0  0  0  0  0  0  0  0
  149.1288  140.8437  155.1069 C   0  0  0  0  0  0  0  0  0  0  0  0
  150.0239  139.6234  155.3891 C   0  0  0  0  0  0  0  0  0  0  0  0
  150.7043  139.8055  156.6263 O   0  0  0  0  0  0  0  0  0  0  0  0
  152.1059  142.0662  158.7738 N   0  0  0  0  0  0  0  0  0  0  0  0
  154.0659  139.9576  160.1416 H   0  0  0  0  0  0  0  0  0  0  0  0
  151.4811  145.3905  160.1696 H   0  0  0  0  0  0  0  0  0  0  0  0
  151.8967  144.0578  159.0949 H   0  0  0  0  0  0  0  0  0  0  0  0
  153.1718  144.9923  159.8769 H   0  0  0  0  0  0  0  0  0  0  0  0
  152.4029  144.1520  162.1184 H   0  0  0  0  0  0  0  0  0  0  0  0
  151.1389  143.2260  161.3461 H   0  0  0  0  0  0  0  0  0  0  0  0
  154.1532  142.7837  161.0357 H   0  0  0  0  0  0  0  0  0  0  0  0
  153.0324  141.7402  161.8792 H   0  0  0  0  0  0  0  0  0  0  0  0
  152.2817  140.8459  155.7984 H   0  0  0  0  0  0  0  0  0  0  0  0
  149.9964  142.3631  157.1792 H   0  0  0  0  0  0  0  0  0  0  0  0
  151.3161  143.0994  156.2967 H   0  0  0  0  0  0  0  0  0  0  0  0
  149.3150  142.8719  154.9816 H   0  0  0  0  0  0  0  0  0  0  0  0
  148.3506  140.9097  155.8680 H   0  0  0  0  0  0  0  0  0  0  0  0
  148.6212  140.7229  154.1498 H   0  0  0  0  0  0  0  0  0  0  0  0
  149.4171  138.7200  155.4509 H   0  0  0  0  0  0  0  0  0  0  0  0
  150.7418  139.4691  154.5818 H   0  0  0  0  0  0  0  0  0  0  0  0
  1  2  1  0  0  0  0
  1 16  1  0  0  0  0
  1 17  1  0  0  0  0
  1 18  1  0  0  0  0
  2  3  1  0  0  0  0
  2 19  1  0  0  0  0
  2 20  1  0  0  0  0
  3 21  1  0  0  0  0
  3 22  1  0  0  0  0
  3  4  1  0  0  0  0
  4 14  2  0  0  0  0
  4  5  1  0  0  0  0
  5  6  1  0  0  0  0
  5 15  1  0  0  0  0
  6  7  2  0  0  0  0
  7 14  1  0  0  0  0
  7  8  1  0  0  0  0
  8 13  1  0  0  0  0
  8  9  1  0  0  0  0
  8 23  1  0  0  0  0
  9 10  1  0  0  0  0
  9 24  1  0  0  0  0
  9 25  1  0  0  0  0
 10 11  1  0  0  0  0
 10 26  1  0  0  0  0
 11 12  1  0  0  0  0
 11 27  1  0  0  0  0
 11 28  1  0  0  0  0
 12 13  1  0  0  0  0
 12 29  1  0  0  0  0
 12 30  1  0  0  0  0
M  END
> <s_m_source_file>
AV-unprocessed.smi

> <i_m_source_file_index>
2562

> <i_lp_mmshare_version>
43012

> <i_f3d_flags>
0

> <s_epik_input>
W0NIM11bQ0gyXVtDSDJdYzFuW25IXWMobjEpW0NAQEhdMltDSDJdW05IXVtDSDJdW0NIMl1PMg==

> <s_epik_cmdline>
J2VwaWtfcHl0aG9uJywgJy1waCcsICc3LjAnLCAnLXRuJywgJzgnLCAnLW1hJywgJzIwMCcsICctbWV0YWxfYmluZGluZycsICctaW1hZScsICc8aW5maWxlLm1hZT4nLCAnLW9tYWUnLCAnPG91dGZpbGUubWFlPic=

> <r_epik_Ionization_Penalty>
1.10136

> <r_epik_Ionization_Penalty_Charging>
0

> <r_epik_Ionization_Penalty_Neutral>
1.10136

> <r_epik_State_Penalty>
1.43987

> <r_epik_Charging_Adjusted_Penalty>
1.43987

> <i_epik_Tot_Q>
0

> <i_epik_Tot_abs_Q>
0

> <r_epik_Metal_State_Penalty>
1.55976

> <b_epik_Metal_Only>
0

> <s_lp_Force_Field>
OPLS_2005

> <r_lp_Energy>
11.7633

> <b_lp_Chiralities_Consistent>
1

> <s_lp_Variant>
AV-unprocessed.smi:2562-5

> <Gold.Version>
5.8.1

> <Gold.Id.Protein>
6NUR|6NUR_protein|mol2

> <Gold.PLP.Fitness>
32.4127

> <Gold.PLP.PLP>
-27.0509

> <Gold.PLP.part.hbond>
-2.4024

> <Gold.PLP.part.metal>
0.0000

> <Gold.PLP.part.buried>
-2.6095

> <Gold.PLP.part.nonpolar>
-21.6058

> <Gold.PLP.part.repulsive>
0.0836

> <Gold.PLP.ligand.clash>
0.0000

> <Gold.PLP.ligand.torsion>
0.1469

> <Gold.PLP.Chemscore.Hbond>
1.8800

> <Gold.PLP.Chemscore.CHOScore>
0.0000

> <Gold.PLP.Chemscore.Metal>
0.0000

> <Gold.Chemscore.Hbonds>
donor molecule, donor type, donor heavy atom, donor atom, acceptor molecule, acceptor atom, score
      L1  H    10    26       P1  8028  0.91
      P1  H  7997  8008       L1     6  1.00

> <Gold.PLP.Chemscore.Internal.Correction>
0.0156

> <Gold.Rescore>
     Score         DG    S(hbond)    S(metal)    S(lipo)     H(rot)  DE(clash)    DE(int)     intcor
     12.29     -13.92       1.53        0.00      60.75       1.48       0.12       1.51       ----

> <Gold.Chemscore.Fitness>
12.2896

> <Gold.Chemscore.DG>
-13.9194

> <Gold.Chemscore.ZeroCoef>
-5.4800

> <Gold.Chemscore.Hbond>
1.5306

> <Gold.Chemscore.Metal>
0.0000

> <Gold.Chemscore.Lipo>
60.7521

> <Gold.Chemscore.Internal_Hbond>
0.0000

> <Gold.Chemscore.DEClash>
0.1247

> <Gold.Chemscore.DEInternal>
1.5051

> <Gold.Chemscore.Rot>
1.4769

> <Gold.Chemscore.Internal.Correction>
   9.000000E+99

> <Gold.Chemscore.Hbonds>
donor molecule, donor type, donor heavy atom, donor atom, acceptor molecule, acceptor atom, score
      L1  H    10    26       P1  8028  0.85
      P1  H  7997  8008       L1     6  0.31

> <Gold.Chemscore.Hbond.Weighted>
-5.1122

> <Gold.Chemscore.Metal.Weighted>
-0.0000

> <Gold.Chemscore.Lipo.Weighted>
-7.1080

> <Gold.Chemscore.Internal_Hbond.Weighted>
0.0000

> <Gold.Chemscore.DEClash.Weighted>
0.1247

> <Gold.Chemscore.DEInternal.Weighted>
1.5051

> <Gold.Chemscore.Rot.Weighted>
3.7808

> <Gold.Chemscore.Internal.Correction.Weighted>
   9.000000E+99

> <Gold.Protein.RotatedTorsions>
[ 6907 6896 6895 6894 ] final   54.74 input  -60.11 | X-H torsion
[ 7974 7965 7964 7962 ] final  -52.09 input  175.53 | X-H torsion
[ 8008 7997 7996 7995 ] final  -86.76 input   59.86 | X-H torsion
[ 10167 10162 10161 10158 ] final  -13.05 input  -65.29 | X-H torsion
[ 10718 10713 10712 10709 ] final   57.89 input   66.30 | X-H torsion
[ 10763 10752 10751 10750 ] final  151.98 input  -60.55 | X-H torsion
[ 11005 11000 10999 10996 ] final  -79.76 input  -57.11 | X-H torsion

> <Gold.Protein.ActiveResidues>
 VAL166  LYS551  ARG553  GLY616  TRP617  ASP618  TYR619  PRO620  LYS621  CYS622 
 ASP623  PHE694  ASN695  SER759  ASP760  ASP761  ALA762  ILE779  LEU786  VAL792 
 PHE793  MET794  SER795  GLU796  ALA797  LYS798  CYS799  TRP800  GLU811  SER814 

> <Gold.Protein.RotatedAtoms>
  152.3469  134.7059  160.0247 H   0  0  0  0  0  0  0  0  0  0  0  0  # atno 6907 bound_to 6896
  151.7426  133.3317  159.3378 H   0  0  0  0  0  0  0  0  0  0  0  0  # atno 6908 bound_to 6896
  150.7515  134.6197  159.6174 H   0  0  0  0  0  0  0  0  0  0  0  0  # atno 6909 bound_to 6896
  145.9118  140.7909  142.9691 H   0  0  0  0  0  0  0  0  0  0  0  0  # atno 7974 bound_to 7965
  154.6555  140.0574  157.0004 H   0  0  0  0  0  0  0  0  0  0  0  0  # atno 8008 bound_to 7997
  155.1307  140.3256  155.4456 H   0  0  0  0  0  0  0  0  0  0  0  0  # atno 8009 bound_to 7997
  156.2595  140.1981  156.6426 H   0  0  0  0  0  0  0  0  0  0  0  0  # atno 8010 bound_to 7997
  140.7174  143.5467  150.9347 H   0  0  0  0  0  0  0  0  0  0  0  0  # atno 10167 bound_to 10162
  157.5552  130.8795  149.9024 H   0  0  0  0  0  0  0  0  0  0  0  0  # atno 10718 bound_to 10713
  154.1126  135.2838  155.3227 H   0  0  0  0  0  0  0  0  0  0  0  0  # atno 10763 bound_to 10752
  154.6479  135.5379  153.7870 H   0  0  0  0  0  0  0  0  0  0  0  0  # atno 10764 bound_to 10752
  153.0340  135.6502  154.1284 H   0  0  0  0  0  0  0  0  0  0  0  0  # atno 10765 bound_to 10752
  141.1667  133.7120  156.8171 H   0  0  0  0  0  0  0  0  0  0  0  0  # atno 11005 bound_to 11000
  144.6744  140.1837  143.7403 LP  0  0  0  0  0  0  0  0  0  0  0  0  # atno 17320 bound_to 7965
  145.8662  139.2248  143.1688 LP  0  0  0  0  0  0  0  0  0  0  0  0  # atno 17321 bound_to 7965
  139.9191  143.6628  152.3100 LP  0  0  0  0  0  0  0  0  0  0  0  0  # atno 17342 bound_to 10162
  139.7038  144.7631  151.1227 LP  0  0  0  0  0  0  0  0  0  0  0  0  # atno 17343 bound_to 10162
  156.0612  130.3699  150.0978 LP  0  0  0  0  0  0  0  0  0  0  0  0  # atno 17370 bound_to 10713
  156.9147  130.9663  151.3557 LP  0  0  0  0  0  0  0  0  0  0  0  0  # atno 17371 bound_to 10713
  140.2146  134.8802  157.3312 LP  0  0  0  0  0  0  0  0  0  0  0  0  # atno 17394 bound_to 11000
  140.2051  134.4207  155.7642 LP  0  0  0  0  0  0  0  0  0  0  0  0  # atno 17395 bound_to 11000

$$$$
