AV-unprocessed.smi:221|AV-procd|sdf|1694|dock8
  -GOLD-   2262020143D 1   1.00000     0.00000
 Structure written by MMmdl.
 50 53  0  0  0  0  0  0  0  0  1 V2000
  153.7718  140.2904  161.0038 N   0  0  0  0  0  0  0  0  0  0  0  0
  153.7799  140.3149  159.6690 C   0  0  0  0  0  0  0  0  0  0  0  0
  154.3117  139.4285  159.0024 O   0  0  0  0  0  0  0  0  0  0  0  0
  153.0717  141.4986  158.9944 C   0  0  2  0  0  0  0  0  0  0  0  0
  153.1919  142.7852  159.8219 C   0  0  0  0  0  0  0  0  0  0  0  0
  152.0008  143.6117  159.3501 C   0  0  1  0  0  0  0  0  0  0  0  0
  152.3119  144.2337  158.2119 F   0  0  0  0  0  0  0  0  0  0  0  0
  150.9246  142.5575  159.0799 C   0  0  0  0  0  0  0  0  0  0  0  0
  151.6263  141.2920  158.8816 N   0  0  0  0  0  0  0  0  0  0  0  0
  151.2162  140.5541  157.8264 C   0  0  0  0  0  0  0  0  0  0  0  0
  151.4684  141.0480  156.5898 N   0  0  0  0  0  0  0  0  0  0  0  0
  151.0800  140.3669  155.5073 C   0  0  0  0  0  0  0  0  0  0  0  0
  150.4390  139.1974  155.4411 N   0  0  0  0  0  0  0  0  0  0  0  0
  150.1854  138.7006  156.6860 C   0  0  0  0  0  0  0  0  0  0  0  0
  150.5382  139.3067  157.9236 C   0  0  0  0  0  0  0  0  0  0  0  0
  150.1199  138.5075  158.9809 N   0  0  0  0  0  0  0  0  0  0  0  0
  149.5482  137.4878  158.4008 C   0  0  0  0  0  0  0  0  0  0  0  0
  149.5365  137.5271  157.0246 N   0  0  0  0  0  0  0  0  0  0  0  0
  148.9660  136.5383  156.1281 C   0  0  0  0  0  0  0  0  0  0  0  0
  149.7952  135.2335  156.0371 C   0  0  2  0  0  0  0  0  0  0  0  0
  151.2940  135.4431  156.3762 C   0  0  0  0  0  0  0  0  0  0  0  0
  151.8837  136.4228  155.5462 O   0  0  0  0  0  0  0  0  0  0  0  0
  149.5667  134.5577  154.6609 C   0  0  1  0  0  0  0  0  0  0  0  0
  150.1274  133.1483  154.5055 C   0  0  0  0  0  0  0  0  0  0  0  0
  149.2138  132.5559  153.4422 C   0  0  0  0  0  0  0  0  0  0  0  0
  147.9406  133.0615  153.8074 O   0  0  0  0  0  0  0  0  0  0  0  0
  148.0962  134.4124  154.2296 C   0  0  0  0  0  0  0  0  0  0  0  0
  153.5046  141.6666  158.0063 H   0  0  0  0  0  0  0  0  0  0  0  0
  151.6894  144.3730  160.0658 H   0  0  0  0  0  0  0  0  0  0  0  0
  154.2279  139.5338  161.4926 H   0  0  0  0  0  0  0  0  0  0  0  0
  153.3143  141.0280  161.5194 H   0  0  0  0  0  0  0  0  0  0  0  0
  153.0875  142.5741  160.8879 H   0  0  0  0  0  0  0  0  0  0  0  0
  154.1436  143.2967  159.6738 H   0  0  0  0  0  0  0  0  0  0  0  0
  150.2871  142.4433  159.9572 H   0  0  0  0  0  0  0  0  0  0  0  0
  150.2785  142.8418  158.2473 H   0  0  0  0  0  0  0  0  0  0  0  0
  151.3157  140.8254  154.5584 H   0  0  0  0  0  0  0  0  0  0  0  0
  149.1086  136.6782  158.9650 H   0  0  0  0  0  0  0  0  0  0  0  0
  147.9558  136.3207  156.4769 H   0  0  0  0  0  0  0  0  0  0  0  0
  148.8606  136.9890  155.1407 H   0  0  0  0  0  0  0  0  0  0  0  0
  149.3886  134.5387  156.7740 H   0  0  0  0  0  0  0  0  0  0  0  0
  151.4252  135.7778  157.4043 H   0  0  0  0  0  0  0  0  0  0  0  0
  151.8501  134.5103  156.2789 H   0  0  0  0  0  0  0  0  0  0  0  0
  151.8642  137.2521  155.9991 H   0  0  0  0  0  0  0  0  0  0  0  0
  150.0440  135.1783  153.9005 H   0  0  0  0  0  0  0  0  0  0  0  0
  151.1777  133.1381  154.2129 H   0  0  0  0  0  0  0  0  0  0  0  0
  150.0274  132.5723  155.4249 H   0  0  0  0  0  0  0  0  0  0  0  0
  149.4824  132.9171  152.4482 H   0  0  0  0  0  0  0  0  0  0  0  0
  149.2273  131.4658  153.4315 H   0  0  0  0  0  0  0  0  0  0  0  0
  147.3852  134.6365  155.0246 H   0  0  0  0  0  0  0  0  0  0  0  0
  147.8749  135.0819  153.3973 H   0  0  0  0  0  0  0  0  0  0  0  0
  1  2  1  0  0  0  0
  1 30  1  0  0  0  0
  1 31  1  0  0  0  0
  2  3  2  0  0  0  0
  2  4  1  0  0  0  0
  4 28  1  0  0  0  0
  4  9  1  0  0  0  0
  4  5  1  0  0  0  0
  5  6  1  0  0  0  0
  5 32  1  0  0  0  0
  5 33  1  0  0  0  0
  6 29  1  0  0  0  0
  6  7  1  0  0  0  0
  6  8  1  0  0  0  0
  8  9  1  0  0  0  0
  8 34  1  0  0  0  0
  8 35  1  0  0  0  0
  9 10  1  0  0  0  0
 10 15  1  0  0  0  0
 10 11  2  0  0  0  0
 11 12  1  0  0  0  0
 12 13  2  0  0  0  0
 12 36  1  0  0  0  0
 13 14  1  0  0  0  0
 14 18  1  0  0  0  0
 14 15  2  0  0  0  0
 15 16  1  0  0  0  0
 16 17  2  0  0  0  0
 17 18  1  0  0  0  0
 17 37  1  0  0  0  0
 18 19  1  0  0  0  0
 19 20  1  0  0  0  0
 19 38  1  0  0  0  0
 19 39  1  0  0  0  0
 20 21  1  0  0  0  0
 20 23  1  0  0  0  0
 20 40  1  0  0  0  0
 21 22  1  0  0  0  0
 21 41  1  0  0  0  0
 21 42  1  0  0  0  0
 22 43  1  0  0  0  0
 23 27  1  0  0  0  0
 23 24  1  0  0  0  0
 23 44  1  0  0  0  0
 24 25  1  0  0  0  0
 24 45  1  0  0  0  0
 24 46  1  0  0  0  0
 25 26  1  0  0  0  0
 25 47  1  0  0  0  0
 25 48  1  0  0  0  0
 26 27  1  0  0  0  0
 27 49  1  0  0  0  0
 27 50  1  0  0  0  0
M  END
> <s_m_source_file>
AV-unprocessed.smi

> <i_m_source_file_index>
221

> <i_lp_mmshare_version>
43012

> <i_f3d_flags>
0

> <s_epik_input>
W05IMl1DKD1PKVtDQEBIXTFbQ0gyXVtDQEBIXShGKVtDSDJdTjFjKG5bY0hdbjIpYyhjMjMpbltjSF1uM1tDSDJdW0NASF0oW0NIMl1bT0hdKVtDQEBIXTRbQ0gyXVtDSDJdT1tDSDJdNA==

> <s_epik_cmdline>
J2VwaWtfcHl0aG9uJywgJy1waCcsICc3LjAnLCAnLXRuJywgJzgnLCAnLW1hJywgJzIwMCcsICctbWV0YWxfYmluZGluZycsICctaW1hZScsICc8aW5maWxlLm1hZT4nLCAnLW9tYWUnLCAnPG91dGZpbGUubWFlPic=

> <r_lp_tautomer_probability>
1

> <r_epik_Ionization_Penalty>
0.000818822

> <r_epik_Ionization_Penalty_Charging>
0

> <r_epik_Ionization_Penalty_Neutral>
0.000818822

> <r_epik_State_Penalty>
0.000440551

> <r_epik_Charging_Adjusted_Penalty>
0.000440551

> <i_epik_Tot_Q>
0

> <i_epik_Tot_abs_Q>
0

> <r_epik_Metal_State_Penalty>
-0

> <b_epik_Metal_Only>
0

> <s_lp_Force_Field>
OPLS_2005

> <r_lp_Energy>
51.8706

> <b_lp_Chiralities_Consistent>
1

> <s_lp_Variant>
AV-unprocessed.smi:221-9

> <Gold.Version>
5.8.1

> <Gold.Id.Protein>
6NUR|6NUR_protein|mol2

> <Gold.PLP.Fitness>
43.8624

> <Gold.PLP.PLP>
-40.4273

> <Gold.PLP.part.hbond>
-3.0000

> <Gold.PLP.part.metal>
0.0000

> <Gold.PLP.part.buried>
-5.0291

> <Gold.PLP.part.nonpolar>
-31.9997

> <Gold.PLP.part.repulsive>
0.1420

> <Gold.PLP.ligand.clash>
0.0000

> <Gold.PLP.ligand.torsion>
1.4054

> <Gold.PLP.Chemscore.Hbond>
2.0000

> <Gold.PLP.Chemscore.CHOScore>
0.0000

> <Gold.PLP.Chemscore.Metal>
0.0000

> <Gold.Chemscore.Hbonds>
donor molecule, donor type, donor heavy atom, donor atom, acceptor molecule, acceptor atom, score
      P1  H  7997  8008       L1     3  1.00
      P1  H 10752 10764       L1    22  1.00

> <Gold.PLP.Chemscore.Internal.Correction>
0.2458

> <Gold.Rescore>
     Score         DG    S(hbond)    S(metal)    S(lipo)     H(rot)  DE(clash)    DE(int)     intcor
      9.10     -11.03       1.90        0.00      74.52       3.72       0.00       1.93       ----

> <Gold.Chemscore.Fitness>
9.0994

> <Gold.Chemscore.DG>
-11.0348

> <Gold.Chemscore.ZeroCoef>
-5.4800

> <Gold.Chemscore.Hbond>
1.9041

> <Gold.Chemscore.Metal>
0.0000

> <Gold.Chemscore.Lipo>
74.5207

> <Gold.Chemscore.Internal_Hbond>
0.0000

> <Gold.Chemscore.DEClash>
0.0021

> <Gold.Chemscore.DEInternal>
1.9333

> <Gold.Chemscore.Rot>
3.7202

> <Gold.Chemscore.Internal.Correction>
   9.000000E+99

> <Gold.Chemscore.Hbonds>
donor molecule, donor type, donor heavy atom, donor atom, acceptor molecule, acceptor atom, score
      P1  H  7997  8008       L1     3  0.90
      P1  H 10752 10764       L1    22  0.39

> <Gold.Chemscore.Hbond.Weighted>
-6.3597

> <Gold.Chemscore.Metal.Weighted>
-0.0000

> <Gold.Chemscore.Lipo.Weighted>
-8.7189

> <Gold.Chemscore.Internal_Hbond.Weighted>
0.0000

> <Gold.Chemscore.DEClash.Weighted>
0.0021

> <Gold.Chemscore.DEInternal.Weighted>
1.9333

> <Gold.Chemscore.Rot.Weighted>
9.5237

> <Gold.Chemscore.Internal.Correction.Weighted>
   9.000000E+99

> <Gold.Protein.RotatedTorsions>
[ 6907 6896 6895 6894 ] final  -57.39 input  -60.11 | X-H torsion
[ 7974 7965 7964 7962 ] final  117.99 input  175.53 | X-H torsion
[ 8008 7997 7996 7995 ] final -122.30 input   59.86 | X-H torsion
[ 10167 10162 10161 10158 ] final   61.42 input  -65.29 | X-H torsion
[ 10718 10713 10712 10709 ] final  -59.67 input   66.30 | X-H torsion
[ 10763 10752 10751 10750 ] final  -55.90 input  -60.55 | X-H torsion
[ 11005 11000 10999 10996 ] final -148.36 input  -57.11 | X-H torsion

> <Gold.Protein.ActiveResidues>
 VAL166  LYS551  ARG553  GLY616  TRP617  ASP618  TYR619  PRO620  LYS621  CYS622 
 ASP623  PHE694  ASN695  SER759  ASP760  ASP761  ALA762  ILE779  LEU786  VAL792 
 PHE793  MET794  SER795  GLU796  ALA797  LYS798  CYS799  TRP800  GLU811  SER814 

> <Gold.Protein.RotatedAtoms>
  150.8090  134.7233  159.6670 H   0  0  0  0  0  0  0  0  0  0  0  0  # atno 6907 bound_to 6896
  152.4210  134.5952  159.9995 H   0  0  0  0  0  0  0  0  0  0  0  0  # atno 6908 bound_to 6896
  151.6168  133.3305  159.3115 H   0  0  0  0  0  0  0  0  0  0  0  0  # atno 6909 bound_to 6896
  145.1607  139.3157  143.4519 H   0  0  0  0  0  0  0  0  0  0  0  0  # atno 7974 bound_to 7965
  155.1620  140.0406  157.2844 H   0  0  0  0  0  0  0  0  0  0  0  0  # atno 8008 bound_to 7997
  154.6330  140.2528  155.7385 H   0  0  0  0  0  0  0  0  0  0  0  0  # atno 8009 bound_to 7997
  156.2494  140.2871  156.0690 H   0  0  0  0  0  0  0  0  0  0  0  0  # atno 8010 bound_to 7997
  140.1550  144.4426  150.6739 H   0  0  0  0  0  0  0  0  0  0  0  0  # atno 10167 bound_to 10162
  156.1045  130.4182  150.0748 H   0  0  0  0  0  0  0  0  0  0  0  0  # atno 10718 bound_to 10713
  154.1982  135.6415  153.5079 H   0  0  0  0  0  0  0  0  0  0  0  0  # atno 10763 bound_to 10752
  153.0018  135.5445  154.6344 H   0  0  0  0  0  0  0  0  0  0  0  0  # atno 10764 bound_to 10752
  154.5750  135.2920  155.0763 H   0  0  0  0  0  0  0  0  0  0  0  0  # atno 10765 bound_to 10752
  140.7621  134.3286  157.5099 H   0  0  0  0  0  0  0  0  0  0  0  0  # atno 11005 bound_to 11000
  146.3483  140.1716  142.8589 LP  0  0  0  0  0  0  0  0  0  0  0  0  # atno 17320 bound_to 7965
  145.0334  140.8889  143.5095 LP  0  0  0  0  0  0  0  0  0  0  0  0  # atno 17321 bound_to 7965
  140.6679  143.2274  151.5698 LP  0  0  0  0  0  0  0  0  0  0  0  0  # atno 17342 bound_to 10162
  139.5408  144.2654  152.1346 LP  0  0  0  0  0  0  0  0  0  0  0  0  # atno 17343 bound_to 10162
  156.8727  130.9530  151.3607 LP  0  0  0  0  0  0  0  0  0  0  0  0  # atno 17370 bound_to 10713
  157.6219  130.8662  149.9124 LP  0  0  0  0  0  0  0  0  0  0  0  0  # atno 17371 bound_to 10713
  139.8769  134.9208  156.3261 LP  0  0  0  0  0  0  0  0  0  0  0  0  # atno 17394 bound_to 11000
  140.9653  133.7362  156.0459 LP  0  0  0  0  0  0  0  0  0  0  0  0  # atno 17395 bound_to 11000

$$$$
