AV-unprocessed.smi:232|AV-procd|sdf|1774|dock9
  -GOLD-   2262020313D 1   1.00000     0.00000
 Structure written by MMmdl.
 52 55  0  0  0  0  0  0  0  0  1 V2000
  147.9458  132.2838  160.8002 C   0  0  0  0  0  0  0  0  0  0  0  0
  147.1495  133.3387  160.0219 C   0  0  0  0  0  0  0  0  0  0  0  0
  146.6878  134.5204  160.9029 C   0  0  1  0  0  0  0  0  0  0  0  0
  146.6881  134.1895  162.4083 C   0  0  0  0  0  0  0  0  0  0  0  0
  147.4242  135.3496  163.0883 C   0  0  0  0  0  0  0  0  0  0  0  0
  147.4966  136.4451  162.0235 C   0  0  2  0  0  0  0  0  0  0  0  0
  146.2899  137.4028  162.1088 C   0  0  0  0  0  0  0  0  0  0  0  0
  147.5477  135.6969  160.7720 N   0  0  0  0  0  0  0  0  0  0  0  0
  147.5856  136.4196  159.6205 C   0  0  0  0  0  0  0  0  0  0  0  0
  146.6369  137.3637  159.3784 N   0  0  0  0  0  0  0  0  0  0  0  0
  146.6751  138.0910  158.2585 C   0  0  0  0  0  0  0  0  0  0  0  0
  147.5608  138.0423  157.2624 N   0  0  0  0  0  0  0  0  0  0  0  0
  148.5153  137.0972  157.4971 C   0  0  0  0  0  0  0  0  0  0  0  0
  148.6031  136.2509  158.6389 C   0  0  0  0  0  0  0  0  0  0  0  0
  149.7061  135.4127  158.5197 N   0  0  0  0  0  0  0  0  0  0  0  0
  150.2409  135.7467  157.3773 C   0  0  0  0  0  0  0  0  0  0  0  0
  149.5877  136.7475  156.6961 N   0  0  0  0  0  0  0  0  0  0  0  0
  149.9570  137.3015  155.4056 C   0  0  0  0  0  0  0  0  0  0  0  0
  151.4753  137.5389  155.2806 C   0  0  1  0  0  0  0  0  0  0  0  0
  151.8816  137.3248  153.9414 O   0  0  0  0  0  0  0  0  0  0  0  0
  151.8782  138.9570  155.7338 C   0  0  2  0  0  0  0  0  0  0  0  0
  151.6902  139.2828  157.2272 C   0  0  0  0  0  0  0  0  0  0  0  0
  150.7352  140.4624  157.2194 C   0  0  0  0  0  0  0  0  0  0  0  0
  150.9635  141.0667  155.8402 C   0  0  0  0  0  0  0  0  0  0  0  0
  151.1224  139.9256  155.0133 O   0  0  0  0  0  0  0  0  0  0  0  0
  148.2412  131.4630  160.1465 H   0  0  0  0  0  0  0  0  0  0  0  0
  147.3503  131.8640  161.6113 H   0  0  0  0  0  0  0  0  0  0  0  0
  148.8537  132.7035  161.2331 H   0  0  0  0  0  0  0  0  0  0  0  0
  147.7495  133.7115  159.1910 H   0  0  0  0  0  0  0  0  0  0  0  0
  146.2902  132.8442  159.5698 H   0  0  0  0  0  0  0  0  0  0  0  0
  145.6746  134.8052  160.6150 H   0  0  0  0  0  0  0  0  0  0  0  0
  145.6640  134.1084  162.7741 H   0  0  0  0  0  0  0  0  0  0  0  0
  147.1889  133.2462  162.6299 H   0  0  0  0  0  0  0  0  0  0  0  0
  146.9426  135.6760  164.0106 H   0  0  0  0  0  0  0  0  0  0  0  0
  148.4354  135.0308  163.3444 H   0  0  0  0  0  0  0  0  0  0  0  0
  148.4145  137.0144  162.1665 H   0  0  0  0  0  0  0  0  0  0  0  0
  146.2598  137.9011  163.0781 H   0  0  0  0  0  0  0  0  0  0  0  0
  145.3439  136.8767  161.9781 H   0  0  0  0  0  0  0  0  0  0  0  0
  146.3445  138.1826  161.3486 H   0  0  0  0  0  0  0  0  0  0  0  0
  145.8834  138.8164  158.1449 H   0  0  0  0  0  0  0  0  0  0  0  0
  151.1290  135.2651  156.9944 H   0  0  0  0  0  0  0  0  0  0  0  0
  149.6068  136.6280  154.6225 H   0  0  0  0  0  0  0  0  0  0  0  0
  149.4170  138.2395  155.2721 H   0  0  0  0  0  0  0  0  0  0  0  0
  151.9911  136.8104  155.9076 H   0  0  0  0  0  0  0  0  0  0  0  0
  151.1169  137.3694  153.3878 H   0  0  0  0  0  0  0  0  0  0  0  0
  152.9231  139.1286  155.4697 H   0  0  0  0  0  0  0  0  0  0  0  0
  151.3034  138.4513  157.8170 H   0  0  0  0  0  0  0  0  0  0  0  0
  152.6461  139.5745  157.6639 H   0  0  0  0  0  0  0  0  0  0  0  0
  149.7069  140.1077  157.3008 H   0  0  0  0  0  0  0  0  0  0  0  0
  150.9182  141.1669  158.0310 H   0  0  0  0  0  0  0  0  0  0  0  0
  150.1339  141.6924  155.5100 H   0  0  0  0  0  0  0  0  0  0  0  0
  151.8771  141.6632  155.8218 H   0  0  0  0  0  0  0  0  0  0  0  0
  1  2  1  0  0  0  0
  1 26  1  0  0  0  0
  1 27  1  0  0  0  0
  1 28  1  0  0  0  0
  2  3  1  0  0  0  0
  2 29  1  0  0  0  0
  2 30  1  0  0  0  0
  3  8  1  0  0  0  0
  3  4  1  0  0  0  0
  3 31  1  0  0  0  0
  4  5  1  0  0  0  0
  4 32  1  0  0  0  0
  4 33  1  0  0  0  0
  5  6  1  0  0  0  0
  5 34  1  0  0  0  0
  5 35  1  0  0  0  0
  6  7  1  0  0  0  0
  6  8  1  0  0  0  0
  6 36  1  0  0  0  0
  7 37  1  0  0  0  0
  7 38  1  0  0  0  0
  7 39  1  0  0  0  0
  8  9  1  0  0  0  0
  9 14  1  0  0  0  0
  9 10  2  0  0  0  0
 10 11  1  0  0  0  0
 11 12  2  0  0  0  0
 11 40  1  0  0  0  0
 12 13  1  0  0  0  0
 13 17  1  0  0  0  0
 13 14  2  0  0  0  0
 14 15  1  0  0  0  0
 15 16  2  0  0  0  0
 16 17  1  0  0  0  0
 16 41  1  0  0  0  0
 17 18  1  0  0  0  0
 18 19  1  0  0  0  0
 18 42  1  0  0  0  0
 18 43  1  0  0  0  0
 19 20  1  0  0  0  0
 19 21  1  0  0  0  0
 19 44  1  0  0  0  0
 20 45  1  0  0  0  0
 21 25  1  0  0  0  0
 21 22  1  0  0  0  0
 21 46  1  0  0  0  0
 22 23  1  0  0  0  0
 22 47  1  0  0  0  0
 22 48  1  0  0  0  0
 23 24  1  0  0  0  0
 23 49  1  0  0  0  0
 23 50  1  0  0  0  0
 24 25  1  0  0  0  0
 24 51  1  0  0  0  0
 24 52  1  0  0  0  0
M  END
> <s_m_source_file>
AV-unprocessed.smi

> <i_m_source_file_index>
232

> <i_lp_mmshare_version>
43012

> <i_f3d_flags>
0

> <s_epik_input>
W0NIM11bQ0gyXVtDQEBIXTFbQ0gyXVtDSDJdW0NAQEhdKFtDSDNdKU4xYyhuW2NIXW4yKWMoYzIzKW5bY0hdbjNbQ0gyXVtDQEhdKFtPSF0pW0NAQEhdNFtDSDJdW0NIMl1bQ0gyXU80

> <s_epik_cmdline>
J2VwaWtfcHl0aG9uJywgJy1waCcsICc3LjAnLCAnLXRuJywgJzgnLCAnLW1hJywgJzIwMCcsICctbWV0YWxfYmluZGluZycsICctaW1hZScsICc8aW5maWxlLm1hZT4nLCAnLW9tYWUnLCAnPG91dGZpbGUubWFlPic=

> <r_lp_tautomer_probability>
1

> <r_epik_Ionization_Penalty>
0.00258048

> <r_epik_Ionization_Penalty_Charging>
0

> <r_epik_Ionization_Penalty_Neutral>
0.00258048

> <r_epik_State_Penalty>
0.00168551

> <r_epik_Charging_Adjusted_Penalty>
0.00168551

> <i_epik_Tot_Q>
0

> <i_epik_Tot_abs_Q>
0

> <r_epik_Metal_State_Penalty>
-0

> <b_epik_Metal_Only>
0

> <s_lp_Force_Field>
OPLS_2005

> <r_lp_Energy>
56.0552

> <b_lp_Chiralities_Consistent>
1

> <s_lp_Variant>
AV-unprocessed.smi:232-8

> <Gold.Version>
5.8.1

> <Gold.Id.Protein>
6NUR|6NUR_protein|mol2

> <Gold.PLP.Fitness>
45.5057

> <Gold.PLP.PLP>
-37.9197

> <Gold.PLP.part.hbond>
-4.8037

> <Gold.PLP.part.metal>
0.0000

> <Gold.PLP.part.buried>
-3.4503

> <Gold.PLP.part.nonpolar>
-29.8849

> <Gold.PLP.part.repulsive>
0.0406

> <Gold.PLP.ligand.clash>
0.0000

> <Gold.PLP.ligand.torsion>
1.6051

> <Gold.PLP.Chemscore.Hbond>
3.4907

> <Gold.PLP.Chemscore.CHOScore>
0.0000

> <Gold.PLP.Chemscore.Metal>
0.0000

> <Gold.Chemscore.Hbonds>
donor molecule, donor type, donor heavy atom, donor atom, acceptor molecule, acceptor atom, score
      L1  H    20    45       P1  7949  0.06
      P1  H  6896  6909       L1    15  1.00
      P1  H  6934  6947       L1    10  0.23
      P1  H  7989  7998       L1    25  0.80
      P1  H 10752 10765       L1    20  1.00

> <Gold.PLP.Chemscore.Internal.Correction>
0.3239

> <Gold.Rescore>
     Score         DG    S(hbond)    S(metal)    S(lipo)     H(rot)  DE(clash)    DE(int)     intcor
     12.88     -15.60       1.89        0.00      85.59       2.43       0.01       2.71       ----

> <Gold.Chemscore.Fitness>
12.8806

> <Gold.Chemscore.DG>
-15.6017

> <Gold.Chemscore.ZeroCoef>
-5.4800

> <Gold.Chemscore.Hbond>
1.8917

> <Gold.Chemscore.Metal>
0.0000

> <Gold.Chemscore.Lipo>
85.5904

> <Gold.Chemscore.Internal_Hbond>
0.0000

> <Gold.Chemscore.DEClash>
0.0149

> <Gold.Chemscore.DEInternal>
2.7063

> <Gold.Chemscore.Rot>
2.4260

> <Gold.Chemscore.Internal.Correction>
   9.000000E+99

> <Gold.Chemscore.Hbonds>
donor molecule, donor type, donor heavy atom, donor atom, acceptor molecule, acceptor atom, score
      L1  H    20    45       P1  7949  0.03
      P1  H  6896  6909       L1    15  0.90
      P1  H  6934  6947       L1    10  0.02
      P1  H  7989  7998       L1    25  0.12
      P1  H 10752 10765       L1    20  0.38

> <Gold.Chemscore.Hbond.Weighted>
-6.3183

> <Gold.Chemscore.Metal.Weighted>
-0.0000

> <Gold.Chemscore.Lipo.Weighted>
-10.0141

> <Gold.Chemscore.Internal_Hbond.Weighted>
0.0000

> <Gold.Chemscore.DEClash.Weighted>
0.0149

> <Gold.Chemscore.DEInternal.Weighted>
2.7063

> <Gold.Chemscore.Rot.Weighted>
6.2107

> <Gold.Chemscore.Internal.Correction.Weighted>
   9.000000E+99

> <Gold.Protein.RotatedTorsions>
[ 6907 6896 6895 6894 ] final   49.03 input  -60.11 | X-H torsion
[ 7974 7965 7964 7962 ] final  -76.19 input  175.53 | X-H torsion
[ 8008 7997 7996 7995 ] final   84.38 input   59.86 | X-H torsion
[ 10167 10162 10161 10158 ] final   32.01 input  -65.29 | X-H torsion
[ 10718 10713 10712 10709 ] final  147.07 input   66.30 | X-H torsion
[ 10763 10752 10751 10750 ] final  149.68 input  -60.55 | X-H torsion
[ 11005 11000 10999 10996 ] final   48.23 input  -57.11 | X-H torsion

> <Gold.Protein.ActiveResidues>
 VAL166  LYS551  ARG553  GLY616  TRP617  ASP618  TYR619  PRO620  LYS621  CYS622 
 ASP623  PHE694  ASN695  SER759  ASP760  ASP761  ALA762  ILE779  LEU786  VAL792 
 PHE793  MET794  SER795  GLU796  ALA797  LYS798  CYS799  TRP800  GLU811  SER814 

> <Gold.Protein.RotatedAtoms>
  152.2862  134.7773  160.0386 H   0  0  0  0  0  0  0  0  0  0  0  0  # atno 6907 bound_to 6896
  151.8336  133.3407  159.3629 H   0  0  0  0  0  0  0  0  0  0  0  0  # atno 6908 bound_to 6896
  150.7210  134.5388  159.5781 H   0  0  0  0  0  0  0  0  0  0  0  0  # atno 6909 bound_to 6896
  145.6161  140.9375  143.1163 H   0  0  0  0  0  0  0  0  0  0  0  0  # atno 7974 bound_to 7965
  155.9362  140.3411  155.6290 H   0  0  0  0  0  0  0  0  0  0  0  0  # atno 8008 bound_to 7997
  155.7096  140.0770  157.2395 H   0  0  0  0  0  0  0  0  0  0  0  0  # atno 8009 bound_to 7997
  154.4094  140.1625  156.2268 H   0  0  0  0  0  0  0  0  0  0  0  0  # atno 8010 bound_to 7997
  140.4537  144.1010  150.6197 H   0  0  0  0  0  0  0  0  0  0  0  0  # atno 10167 bound_to 10162
  157.3255  131.0911  151.1206 H   0  0  0  0  0  0  0  0  0  0  0  0  # atno 10718 bound_to 10713
  154.0751  135.2863  155.3301 H   0  0  0  0  0  0  0  0  0  0  0  0  # atno 10763 bound_to 10752
  154.6720  135.5295  153.8154 H   0  0  0  0  0  0  0  0  0  0  0  0  # atno 10764 bound_to 10752
  153.0470  135.6560  154.0930 H   0  0  0  0  0  0  0  0  0  0  0  0  # atno 10765 bound_to 10752
  140.1209  134.4831  155.8598 H   0  0  0  0  0  0  0  0  0  0  0  0  # atno 11005 bound_to 11000
  144.7250  139.7905  143.7368 LP  0  0  0  0  0  0  0  0  0  0  0  0  # atno 17320 bound_to 7965
  146.1467  139.4538  143.0074 LP  0  0  0  0  0  0  0  0  0  0  0  0  # atno 17321 bound_to 7965
  140.4177  143.2626  151.9755 LP  0  0  0  0  0  0  0  0  0  0  0  0  # atno 17342 bound_to 10162
  139.4799  144.5859  151.7854 LP  0  0  0  0  0  0  0  0  0  0  0  0  # atno 17343 bound_to 10162
  157.2474  130.6598  149.5916 LP  0  0  0  0  0  0  0  0  0  0  0  0  # atno 17370 bound_to 10713
  155.9690  130.4549  150.5868 LP  0  0  0  0  0  0  0  0  0  0  0  0  # atno 17371 bound_to 10713
  141.2151  133.6760  156.6887 LP  0  0  0  0  0  0  0  0  0  0  0  0  # atno 17394 bound_to 11000
  140.2966  134.8197  157.4062 LP  0  0  0  0  0  0  0  0  0  0  0  0  # atno 17395 bound_to 11000

$$$$
