AV-unprocessed.smi:1983|AV-procd|sdf|8037|dock2
  -GOLD-   2272010233D 1   1.00000     0.00000
 Structure written by MMmdl.
 50 51  0  0  0  0  0  0  0  0  2 V2000
  144.4929  135.5242  152.2019 C   0  0  0  0  0  0  0  0  0  0  0  0
  145.6426  135.2401  153.1805 C   0  0  1  0  0  0  0  0  0  0  0  0
  146.3100  133.8756  152.9195 C   0  0  0  0  0  0  0  0  0  0  0  0
  147.1001  133.9269  151.7505 O   0  0  0  0  0  0  0  0  0  0  0  0
  146.6302  136.3116  153.0813 N   0  0  0  0  0  0  0  0  0  0  0  0
  146.3913  137.6100  153.3139 C   0  0  0  0  0  0  0  0  0  0  0  0
  145.2968  138.0644  153.6469 O   0  0  0  0  0  0  0  0  0  0  0  0
  147.4929  138.3563  153.1510 N   0  0  0  0  0  0  0  0  0  0  0  0
  147.5474  139.8074  153.3054 C   0  0  0  0  0  0  0  0  0  0  0  0
  148.4847  140.3057  154.3985 C   0  0  0  0  0  0  0  0  0  0  0  0
  149.2945  139.4273  155.1530 C   0  0  0  0  0  0  0  0  0  0  0  0
  150.1409  139.9452  156.1548 C   0  0  0  0  0  0  0  0  0  0  0  0
  150.1831  141.3427  156.3913 C   0  0  0  0  0  0  0  0  0  0  0  0
  150.9904  141.9515  157.3768 N   0  0  0  0  0  0  0  0  0  0  0  0
  150.4515  143.0994  158.0995 C   0  0  0  0  0  0  0  0  0  0  0  0
  151.5597  143.8411  158.8722 C   0  0  2  0  0  0  0  0  0  0  0  0
  152.4620  144.7050  157.9724 C   0  0  0  0  0  0  0  0  0  0  0  0
  152.3103  142.9200  159.6653 O   0  0  0  0  0  0  0  0  0  0  0  0
  152.8975  141.8442  158.9357 C   0  0  1  0  0  0  0  0  0  0  0  0
  153.6655  140.9634  159.9267 C   0  0  0  0  0  0  0  0  0  0  0  0
  151.7972  141.0570  158.2029 C   0  0  0  0  0  0  0  0  0  0  0  0
  149.3938  142.1420  155.6329 N   0  3  0  0  0  0  0  0  0  0  0  0
  148.5667  141.6867  154.6674 C   0  0  0  0  0  0  0  0  0  0  0  0
  143.7126  134.7666  152.2787 H   0  0  0  0  0  0  0  0  0  0  0  0
  144.8426  135.5370  151.1691 H   0  0  0  0  0  0  0  0  0  0  0  0
  144.0310  136.4900  152.4094 H   0  0  0  0  0  0  0  0  0  0  0  0
  145.2312  135.2441  154.1920 H   0  0  0  0  0  0  0  0  0  0  0  0
  146.9266  133.5713  153.7658 H   0  0  0  0  0  0  0  0  0  0  0  0
  145.5578  133.0993  152.7743 H   0  0  0  0  0  0  0  0  0  0  0  0
  147.7338  134.6216  151.8456 H   0  0  0  0  0  0  0  0  0  0  0  0
  147.5644  136.0410  152.8115 H   0  0  0  0  0  0  0  0  0  0  0  0
  148.3468  137.8933  152.8752 H   0  0  0  0  0  0  0  0  0  0  0  0
  147.8710  140.2369  152.3571 H   0  0  0  0  0  0  0  0  0  0  0  0
  146.5402  140.1865  153.4872 H   0  0  0  0  0  0  0  0  0  0  0  0
  149.2720  138.3626  154.9742 H   0  0  0  0  0  0  0  0  0  0  0  0
  150.7506  139.2553  156.7183 H   0  0  0  0  0  0  0  0  0  0  0  0
  149.9683  143.7959  157.4135 H   0  0  0  0  0  0  0  0  0  0  0  0
  149.6893  142.7466  158.7954 H   0  0  0  0  0  0  0  0  0  0  0  0
  151.0753  144.5206  159.5741 H   0  0  0  0  0  0  0  0  0  0  0  0
  151.8831  145.4909  157.4872 H   0  0  0  0  0  0  0  0  0  0  0  0
  152.9409  144.1248  157.1842 H   0  0  0  0  0  0  0  0  0  0  0  0
  153.2460  145.1870  158.5568 H   0  0  0  0  0  0  0  0  0  0  0  0
  153.6118  142.2356  158.2113 H   0  0  0  0  0  0  0  0  0  0  0  0
  154.1449  140.1262  159.4188 H   0  0  0  0  0  0  0  0  0  0  0  0
  153.0015  140.5566  160.6900 H   0  0  0  0  0  0  0  0  0  0  0  0
  154.4444  141.5339  160.4333 H   0  0  0  0  0  0  0  0  0  0  0  0
  151.1427  140.5647  158.9233 H   0  0  0  0  0  0  0  0  0  0  0  0
  152.2639  140.2716  157.6086 H   0  0  0  0  0  0  0  0  0  0  0  0
  147.9929  142.4395  154.1463 H   0  0  0  0  0  0  0  0  0  0  0  0
  149.4198  143.1472  155.8055 H   0  0  0  0  0  0  0  0  0  0  0  0
  1  2  1  0  0  0  0
  1 24  1  0  0  0  0
  1 25  1  0  0  0  0
  1 26  1  0  0  0  0
  2  3  1  0  0  0  0
  2  5  1  0  0  0  0
  2 27  1  0  0  0  0
  3  4  1  0  0  0  0
  3 28  1  0  0  0  0
  3 29  1  0  0  0  0
  4 30  1  0  0  0  0
  5  6  1  0  0  0  0
  5 31  1  0  0  0  0
  6  7  2  0  0  0  0
  6  8  1  0  0  0  0
  8  9  1  0  0  0  0
  8 32  1  0  0  0  0
  9 10  1  0  0  0  0
  9 33  1  0  0  0  0
  9 34  1  0  0  0  0
 10 23  1  0  0  0  0
 10 11  2  0  0  0  0
 11 12  1  0  0  0  0
 11 35  1  0  0  0  0
 12 13  2  0  0  0  0
 12 36  1  0  0  0  0
 13 14  1  0  0  0  0
 13 22  1  0  0  0  0
 14 21  1  0  0  0  0
 14 15  1  0  0  0  0
 15 16  1  0  0  0  0
 15 37  1  0  0  0  0
 15 38  1  0  0  0  0
 16 17  1  0  0  0  0
 16 18  1  0  0  0  0
 16 39  1  0  0  0  0
 17 40  1  0  0  0  0
 17 41  1  0  0  0  0
 17 42  1  0  0  0  0
 18 19  1  0  0  0  0
 19 20  1  0  0  0  0
 19 21  1  0  0  0  0
 19 43  1  0  0  0  0
 20 44  1  0  0  0  0
 20 45  1  0  0  0  0
 20 46  1  0  0  0  0
 21 47  1  0  0  0  0
 21 48  1  0  0  0  0
 22 23  2  0  0  0  0
 22 50  1  0  0  0  0
 23 49  1  0  0  0  0
M  CHG  1  22   1
M  END
> <s_m_source_file>
AV-unprocessed.smi

> <i_m_source_file_index>
1983

> <i_lp_mmshare_version>
43012

> <i_f3d_flags>
0

> <s_epik_input>
W09IXVtDSDJdW0NAQEhdKFtDSDNdKVtOSF1DKD1PKVtOSF1bQ0gyXWMxW2NIXVtjSF1jKG5bY0hdMSlOMltDSDJdW0NAQEhdKFtDSDNdKU9bQ0BASF0oW0NIM10pW0NIMl0y

> <s_epik_cmdline>
J2VwaWtfcHl0aG9uJywgJy1waCcsICc3LjAnLCAnLXRuJywgJzgnLCAnLW1hJywgJzIwMCcsICctbWV0YWxfYmluZGluZycsICctaW1hZScsICc8aW5maWxlLm1hZT4nLCAnLW9tYWUnLCAnPG91dGZpbGUubWFlPic=

> <r_lp_tautomer_probability>
0.999994

> <r_epik_Ionization_Penalty>
2.55677

> <r_epik_Ionization_Penalty_Charging>
2.55673

> <r_epik_Ionization_Penalty_Neutral>
3.71772e-05

> <r_epik_State_Penalty>
2.72571

> <r_epik_Charging_Adjusted_Penalty>
5.28244

> <i_epik_Tot_Q>
1

> <i_epik_Tot_abs_Q>
1

> <r_epik_Metal_State_Penalty>
2.73364

> <b_epik_Metal_Only>
0

> <s_lp_Force_Field>
OPLS_2005

> <r_lp_Energy>
21.2151

> <b_lp_Chiralities_Consistent>
1

> <s_lp_Variant>
AV-unprocessed.smi:1983-10

> <Gold.Version>
5.8.1

> <Gold.Id.Protein>
6NUR|6NUR_protein|mol2

> <Gold.PLP.Fitness>
51.7267

> <Gold.PLP.PLP>
-37.7099

> <Gold.PLP.part.hbond>
-4.1110

> <Gold.PLP.part.metal>
0.0000

> <Gold.PLP.part.buried>
-3.8641

> <Gold.PLP.part.nonpolar>
-30.3807

> <Gold.PLP.part.repulsive>
0.7963

> <Gold.PLP.ligand.clash>
0.0000

> <Gold.PLP.ligand.torsion>
0.4223

> <Gold.PLP.Chemscore.Hbond>
4.8000

> <Gold.PLP.Chemscore.CHOScore>
0.0000

> <Gold.PLP.Chemscore.Metal>
0.0000

> <Gold.Chemscore.Hbonds>
donor molecule, donor type, donor heavy atom, donor atom, acceptor molecule, acceptor atom, score
      L1  H     4    30       P1  7948  1.00
      L1  H     5    31       P1  7948  1.00
      L1  H     8    32       P1  7948  0.80
      L1  H    22    50       P1  8028  2.00

> <Gold.PLP.Chemscore.Internal.Correction>
0.4615

> <Gold.Rescore>
     Score         DG    S(hbond)    S(metal)    S(lipo)     H(rot)  DE(clash)    DE(int)     intcor
     20.36     -20.92       3.29        0.00      96.36       2.66       0.06       0.50       ----

> <Gold.Chemscore.Fitness>
20.3632

> <Gold.Chemscore.DG>
-20.9186

> <Gold.Chemscore.ZeroCoef>
-5.4800

> <Gold.Chemscore.Hbond>
3.2884

> <Gold.Chemscore.Metal>
0.0000

> <Gold.Chemscore.Lipo>
96.3641

> <Gold.Chemscore.Internal_Hbond>
0.0000

> <Gold.Chemscore.DEClash>
0.0589

> <Gold.Chemscore.DEInternal>
0.4966

> <Gold.Chemscore.Rot>
2.6637

> <Gold.Chemscore.Internal.Correction>
   9.000000E+99

> <Gold.Chemscore.Hbonds>
donor molecule, donor type, donor heavy atom, donor atom, acceptor molecule, acceptor atom, score
      L1  H     4    30       P1  7948  0.34
      L1  H     5    31       P1  7948  0.96
      L1  H     8    32       P1  7948  0.75
      L1  H    22    50       P1  8028  0.98

> <Gold.Chemscore.Hbond.Weighted>
-10.9832

> <Gold.Chemscore.Metal.Weighted>
-0.0000

> <Gold.Chemscore.Lipo.Weighted>
-11.2746

> <Gold.Chemscore.Internal_Hbond.Weighted>
0.0000

> <Gold.Chemscore.DEClash.Weighted>
0.0589

> <Gold.Chemscore.DEInternal.Weighted>
0.4966

> <Gold.Chemscore.Rot.Weighted>
6.8191

> <Gold.Chemscore.Internal.Correction.Weighted>
   9.000000E+99

> <Gold.Protein.RotatedTorsions>
[ 6907 6896 6895 6894 ] final  103.74 input  -60.11 | X-H torsion
[ 7974 7965 7964 7962 ] final -103.63 input  175.53 | X-H torsion
[ 8008 7997 7996 7995 ] final  -31.28 input   59.86 | X-H torsion
[ 10167 10162 10161 10158 ] final  -49.08 input  -65.29 | X-H torsion
[ 10718 10713 10712 10709 ] final -131.25 input   66.30 | X-H torsion
[ 10763 10752 10751 10750 ] final  115.51 input  -60.55 | X-H torsion
[ 11005 11000 10999 10996 ] final   97.17 input  -57.11 | X-H torsion

> <Gold.Protein.ActiveResidues>
 VAL166  LYS551  ARG553  GLY616  TRP617  ASP618  TYR619  PRO620  LYS621  CYS622 
 ASP623  PHE694  ASN695  SER759  ASP760  ASP761  ALA762  ILE779  LEU786  VAL792 
 PHE793  MET794  SER795  GLU796  ALA797  LYS798  CYS799  TRP800  GLU811  SER814 

> <Gold.Protein.RotatedAtoms>
  152.5286  133.9781  159.7793 H   0  0  0  0  0  0  0  0  0  0  0  0  # atno 6907 bound_to 6896
  151.0040  133.6021  159.2698 H   0  0  0  0  0  0  0  0  0  0  0  0  # atno 6908 bound_to 6896
  151.3119  135.0803  159.9328 H   0  0  0  0  0  0  0  0  0  0  0  0  # atno 6909 bound_to 6896
  145.2535  140.9246  143.3082 H   0  0  0  0  0  0  0  0  0  0  0  0  # atno 7974 bound_to 7965
  154.4219  140.1768  156.1542 H   0  0  0  0  0  0  0  0  0  0  0  0  # atno 8008 bound_to 7997
  155.9891  140.3370  155.6711 H   0  0  0  0  0  0  0  0  0  0  0  0  # atno 8009 bound_to 7997
  155.6397  140.0678  157.2613 H   0  0  0  0  0  0  0  0  0  0  0  0  # atno 8010 bound_to 7997
  140.6702  143.2713  151.4163 H   0  0  0  0  0  0  0  0  0  0  0  0  # atno 10167 bound_to 10162
  156.2225  130.6987  151.0771 H   0  0  0  0  0  0  0  0  0  0  0  0  # atno 10718 bound_to 10713
  153.5233  135.3593  155.2642 H   0  0  0  0  0  0  0  0  0  0  0  0  # atno 10763 bound_to 10752
  154.8733  135.4051  154.3234 H   0  0  0  0  0  0  0  0  0  0  0  0  # atno 10764 bound_to 10752
  153.3909  135.7071  153.6563 H   0  0  0  0  0  0  0  0  0  0  0  0  # atno 10765 bound_to 10752
  139.8777  134.8988  156.4268 H   0  0  0  0  0  0  0  0  0  0  0  0  # atno 11005 bound_to 11000
  144.9482  139.4113  143.6415 LP  0  0  0  0  0  0  0  0  0  0  0  0  # atno 17320 bound_to 7965
  146.3296  139.8476  142.8879 LP  0  0  0  0  0  0  0  0  0  0  0  0  # atno 17321 bound_to 7965
  139.5967  144.1383  152.2151 LP  0  0  0  0  0  0  0  0  0  0  0  0  # atno 17342 bound_to 10162
  140.0754  144.5744  150.7161 LP  0  0  0  0  0  0  0  0  0  0  0  0  # atno 17343 bound_to 10162
  157.7094  131.0741  150.6553 LP  0  0  0  0  0  0  0  0  0  0  0  0  # atno 17370 bound_to 10713
  156.6617  130.4514  149.5685 LP  0  0  0  0  0  0  0  0  0  0  0  0  # atno 17371 bound_to 10713
  140.9095  133.7722  155.9774 LP  0  0  0  0  0  0  0  0  0  0  0  0  # atno 17394 bound_to 11000
  140.8562  134.2895  157.5254 LP  0  0  0  0  0  0  0  0  0  0  0  0  # atno 17395 bound_to 11000

$$$$
