AV-unprocessed.smi:3335|AV-procd|sdf|12847|dock5
  -GOLD-   2272019233D 1   1.00000     0.00000
 Structure written by MMmdl.
 46 47  0  0  0  0  0  0  0  0  1 V2000
  152.0592  145.2949  159.2379 C   0  0  0  0  0  0  0  0  0  0  0  0
  151.7386  143.9228  158.7192 C   0  0  0  0  0  0  0  0  0  0  0  0
  151.3359  143.5583  157.4039 C   0  0  0  0  0  0  0  0  0  0  0  0
  151.1237  142.2596  157.2735 N   0  0  0  0  0  0  0  0  0  0  0  0
  151.3885  141.7433  158.4952 N   0  0  0  0  0  0  0  0  0  0  0  0
  151.2302  140.3134  158.7536 C   0  0  2  0  0  0  0  0  0  0  0  0
  152.5001  139.6833  159.3604 C   0  0  0  0  0  0  0  0  0  0  0  0
  150.6803  139.5264  157.5324 C   0  0  1  0  0  0  0  0  0  0  0  0
  150.2013  138.1131  157.9226 C   0  0  0  0  0  0  0  0  0  0  0  0
  149.6180  140.3014  156.8847 N   0  0  0  0  0  0  0  0  0  0  0  0
  149.3246  139.9337  155.4871 C   0  0  2  0  0  0  0  0  0  0  0  0
  150.6324  139.5426  154.7818 C   0  0  0  0  0  0  0  0  0  0  0  0
  148.6471  141.0827  154.7092 C   0  0  0  0  0  0  0  0  0  0  0  0
  149.2552  141.6077  153.7746 O   0  0  0  0  0  0  0  0  0  0  0  0
  147.4116  141.4924  155.0708 N   0  0  0  0  0  0  0  0  0  0  0  0
  146.6497  140.8724  156.1540 C   0  0  0  0  0  0  0  0  0  0  0  0
  145.2423  141.4625  156.0655 C   0  0  0  0  0  0  0  0  0  0  0  0
  145.4492  142.8113  155.3927 C   0  0  0  0  0  0  0  0  0  0  0  0
  146.6498  142.5887  154.4731 C   0  0  0  0  0  0  0  0  0  0  0  0
  151.7567  142.7309  159.3862 C   0  0  0  0  0  0  0  0  0  0  0  0
  151.5136  146.0685  158.6971 H   0  0  0  0  0  0  0  0  0  0  0  0
  153.1208  145.5224  159.1411 H   0  0  0  0  0  0  0  0  0  0  0  0
  151.8013  145.3990  160.2920 H   0  0  0  0  0  0  0  0  0  0  0  0
  151.1893  144.1966  156.5451 H   0  0  0  0  0  0  0  0  0  0  0  0
  150.4704  140.2381  159.5331 H   0  0  0  0  0  0  0  0  0  0  0  0
  152.3259  138.6426  159.6344 H   0  0  0  0  0  0  0  0  0  0  0  0
  152.8038  140.2132  160.2638 H   0  0  0  0  0  0  0  0  0  0  0  0
  153.3415  139.7042  158.6672 H   0  0  0  0  0  0  0  0  0  0  0  0
  151.5061  139.4230  156.8270 H   0  0  0  0  0  0  0  0  0  0  0  0
  150.9484  137.6033  158.5311 H   0  0  0  0  0  0  0  0  0  0  0  0
  150.0347  137.4878  157.0461 H   0  0  0  0  0  0  0  0  0  0  0  0
  149.2733  138.1440  158.4946 H   0  0  0  0  0  0  0  0  0  0  0  0
  149.8433  141.2828  156.9621 H   0  0  0  0  0  0  0  0  0  0  0  0
  148.6935  139.0461  155.4971 H   0  0  0  0  0  0  0  0  0  0  0  0
  150.4509  139.2350  153.7511 H   0  0  0  0  0  0  0  0  0  0  0  0
  151.1149  138.7070  155.2896 H   0  0  0  0  0  0  0  0  0  0  0  0
  151.3420  140.3711  154.7618 H   0  0  0  0  0  0  0  0  0  0  0  0
  146.6278  139.7846  156.0698 H   0  0  0  0  0  0  0  0  0  0  0  0
  147.1142  141.1297  157.1071 H   0  0  0  0  0  0  0  0  0  0  0  0
  144.6199  140.8305  155.4307 H   0  0  0  0  0  0  0  0  0  0  0  0
  144.7546  141.5435  157.0373 H   0  0  0  0  0  0  0  0  0  0  0  0
  144.5645  143.1583  154.8579 H   0  0  0  0  0  0  0  0  0  0  0  0
  145.6994  143.5598  156.1459 H   0  0  0  0  0  0  0  0  0  0  0  0
  147.2415  143.5000  154.3768 H   0  0  0  0  0  0  0  0  0  0  0  0
  146.3152  142.2885  153.4790 H   0  0  0  0  0  0  0  0  0  0  0  0
  151.9952  142.5055  160.4152 H   0  0  0  0  0  0  0  0  0  0  0  0
  1  2  1  0  0  0  0
  1 21  1  0  0  0  0
  1 22  1  0  0  0  0
  1 23  1  0  0  0  0
  2 20  2  0  0  0  0
  2  3  1  0  0  0  0
  3  4  2  0  0  0  0
  3 24  1  0  0  0  0
  4  5  1  0  0  0  0
  5  6  1  0  0  0  0
  5 20  1  0  0  0  0
  6  7  1  0  0  0  0
  6  8  1  0  0  0  0
  6 25  1  0  0  0  0
  7 26  1  0  0  0  0
  7 27  1  0  0  0  0
  7 28  1  0  0  0  0
  8  9  1  0  0  0  0
  8 10  1  0  0  0  0
  8 29  1  0  0  0  0
  9 30  1  0  0  0  0
  9 31  1  0  0  0  0
  9 32  1  0  0  0  0
 10 11  1  0  0  0  0
 10 33  1  0  0  0  0
 11 12  1  0  0  0  0
 11 13  1  0  0  0  0
 11 34  1  0  0  0  0
 12 35  1  0  0  0  0
 12 36  1  0  0  0  0
 12 37  1  0  0  0  0
 13 14  2  0  0  0  0
 13 15  1  0  0  0  0
 15 19  1  0  0  0  0
 15 16  1  0  0  0  0
 16 17  1  0  0  0  0
 16 38  1  0  0  0  0
 16 39  1  0  0  0  0
 17 18  1  0  0  0  0
 17 40  1  0  0  0  0
 17 41  1  0  0  0  0
 18 19  1  0  0  0  0
 18 42  1  0  0  0  0
 18 43  1  0  0  0  0
 19 44  1  0  0  0  0
 19 45  1  0  0  0  0
 20 46  1  0  0  0  0
M  END
> <s_m_source_file>
AV-unprocessed.smi

> <i_m_source_file_index>
3335

> <i_lp_mmshare_version>
43012

> <i_f3d_flags>
0

> <s_epik_input>
W0NIM11jMVtjSF1ubihbY0hdMSlbQ0BIXShbQ0gzXSlbQ0BIXShbQ0gzXSlbTkhdW0NASF0oW0NIM10pQyg9TylOMltDSDJdW0NIMl1bQ0gyXVtDSDJdMg==

> <s_epik_cmdline>
J2VwaWtfcHl0aG9uJywgJy1waCcsICc3LjAnLCAnLXRuJywgJzgnLCAnLW1hJywgJzIwMCcsICctbWV0YWxfYmluZGluZycsICctaW1hZScsICc8aW5maWxlLm1hZT4nLCAnLW9tYWUnLCAnPG91dGZpbGUubWFlPic=

> <r_lp_tautomer_probability>
1

> <r_epik_Ionization_Penalty>
0.918803

> <r_epik_Ionization_Penalty_Charging>
0

> <r_epik_Ionization_Penalty_Neutral>
0.918803

> <r_epik_State_Penalty>
0.958258

> <r_epik_Charging_Adjusted_Penalty>
0.958258

> <i_epik_Tot_Q>
0

> <i_epik_Tot_abs_Q>
0

> <r_epik_Metal_State_Penalty>
0.956786

> <b_epik_Metal_Only>
0

> <s_lp_Force_Field>
OPLS_2005

> <r_lp_Energy>
40.8069

> <b_lp_Chiralities_Consistent>
1

> <s_lp_Variant>
AV-unprocessed.smi:3335-11

> <Gold.Version>
5.8.1

> <Gold.Id.Protein>
6NUR|6NUR_protein|mol2

> <Gold.PLP.Fitness>
40.4194

> <Gold.PLP.PLP>
-36.9996

> <Gold.PLP.part.hbond>
-2.0000

> <Gold.PLP.part.metal>
0.0000

> <Gold.PLP.part.buried>
-4.0221

> <Gold.PLP.part.nonpolar>
-32.0560

> <Gold.PLP.part.repulsive>
0.5058

> <Gold.PLP.ligand.clash>
0.0000

> <Gold.PLP.ligand.torsion>
0.6937

> <Gold.PLP.Chemscore.Hbond>
0.6880

> <Gold.PLP.Chemscore.CHOScore>
0.8474

> <Gold.PLP.Chemscore.Metal>
0.0000

> <Gold.Chemscore.Hbonds>
donor molecule, donor type, donor heavy atom, donor atom, acceptor molecule, acceptor atom, score
      P1  H  8011  8017       L1    14  0.70
      L1  C     3    24       P1  8028  0.85

> <Gold.PLP.Chemscore.Internal.Correction>
0.2009

> <Gold.Rescore>
     Score         DG    S(hbond)    S(metal)    S(lipo)     H(rot)  DE(clash)    DE(int)     intcor
     13.88     -15.40       1.08        0.00      89.41       1.62       0.66       0.86       ----

> <Gold.Chemscore.Fitness>
13.8778

> <Gold.Chemscore.DG>
-15.4007

> <Gold.Chemscore.ZeroCoef>
-5.4800

> <Gold.Chemscore.Hbond>
1.0803

> <Gold.Chemscore.Metal>
0.0000

> <Gold.Chemscore.Lipo>
89.4091

> <Gold.Chemscore.Internal_Hbond>
0.0000

> <Gold.Chemscore.DEClash>
0.6638

> <Gold.Chemscore.DEInternal>
0.8591

> <Gold.Chemscore.Rot>
1.6204

> <Gold.Chemscore.Internal.Correction>
   9.000000E+99

> <Gold.Chemscore.Hbonds>
donor molecule, donor type, donor heavy atom, donor atom, acceptor molecule, acceptor atom, score
      P1  H  7989  7998       L1    14  0.01
      P1  H  8011  8017       L1    14  0.70

> <Gold.Chemscore.Hbond.Weighted>
-3.6081

> <Gold.Chemscore.Metal.Weighted>
-0.0000

> <Gold.Chemscore.Lipo.Weighted>
-10.4609

> <Gold.Chemscore.Internal_Hbond.Weighted>
0.0000

> <Gold.Chemscore.DEClash.Weighted>
0.6638

> <Gold.Chemscore.DEInternal.Weighted>
0.8591

> <Gold.Chemscore.Rot.Weighted>
4.1482

> <Gold.Chemscore.Internal.Correction.Weighted>
   9.000000E+99

> <Gold.Protein.RotatedTorsions>
[ 6907 6896 6895 6894 ] final  -33.28 input  -60.11 | X-H torsion
[ 7974 7965 7964 7962 ] final  147.00 input  175.53 | X-H torsion
[ 8008 7997 7996 7995 ] final    2.67 input   59.86 | X-H torsion
[ 10167 10162 10161 10158 ] final  -40.92 input  -65.29 | X-H torsion
[ 10718 10713 10712 10709 ] final  171.42 input   66.30 | X-H torsion
[ 10763 10752 10751 10750 ] final -157.81 input  -60.55 | X-H torsion
[ 11005 11000 10999 10996 ] final   81.78 input  -57.11 | X-H torsion

> <Gold.Protein.ActiveResidues>
 VAL166  LYS551  ARG553  GLY616  TRP617  ASP618  TYR619  PRO620  LYS621  CYS622 
 ASP623  PHE694  ASN695  SER759  ASP760  ASP761  ALA762  ILE779  LEU786  VAL792 
 PHE793  MET794  SER795  GLU796  ALA797  LYS798  CYS799  TRP800  GLU811  SER814 

> <Gold.Protein.RotatedAtoms>
  151.0677  134.9778  159.8292 H   0  0  0  0  0  0  0  0  0  0  0  0  # atno 6907 bound_to 6896
  152.5404  134.2338  159.8845 H   0  0  0  0  0  0  0  0  0  0  0  0  # atno 6908 bound_to 6896
  151.2361  133.4381  159.2639 H   0  0  0  0  0  0  0  0  0  0  0  0  # atno 6909 bound_to 6896
  144.8626  139.5974  143.5923 H   0  0  0  0  0  0  0  0  0  0  0  0  # atno 7974 bound_to 7965
  154.6943  140.2660  155.6781 H   0  0  0  0  0  0  0  0  0  0  0  0  # atno 8008 bound_to 7997
  156.2743  140.2785  156.1456 H   0  0  0  0  0  0  0  0  0  0  0  0  # atno 8009 bound_to 7997
  155.0852  140.0373  157.2642 H   0  0  0  0  0  0  0  0  0  0  0  0  # atno 8010 bound_to 7997
  140.7019  143.3125  151.2993 H   0  0  0  0  0  0  0  0  0  0  0  0  # atno 10167 bound_to 10162
  156.9939  131.0156  151.2849 H   0  0  0  0  0  0  0  0  0  0  0  0  # atno 10718 bound_to 10713
  154.7607  135.3117  154.8384 H   0  0  0  0  0  0  0  0  0  0  0  0  # atno 10763 bound_to 10752
  153.9146  135.6802  153.4754 H   0  0  0  0  0  0  0  0  0  0  0  0  # atno 10764 bound_to 10752
  153.1207  135.4824  154.9122 H   0  0  0  0  0  0  0  0  0  0  0  0  # atno 10765 bound_to 10752
  139.9086  134.8022  156.2087 H   0  0  0  0  0  0  0  0  0  0  0  0  # atno 11005 bound_to 11000
  146.2872  139.7037  142.9187 LP  0  0  0  0  0  0  0  0  0  0  0  0  # atno 17320 bound_to 7965
  145.4282  141.0413  143.2925 LP  0  0  0  0  0  0  0  0  0  0  0  0  # atno 17321 bound_to 7965
  139.6552  144.0289  152.2655 LP  0  0  0  0  0  0  0  0  0  0  0  0  # atno 17342 bound_to 10162
  139.9838  144.6409  150.7876 LP  0  0  0  0  0  0  0  0  0  0  0  0  # atno 17343 bound_to 10162
  157.5439  130.8138  149.8062 LP  0  0  0  0  0  0  0  0  0  0  0  0  # atno 17370 bound_to 10713
  156.0197  130.3800  150.2001 LP  0  0  0  0  0  0  0  0  0  0  0  0  # atno 17371 bound_to 10713
  141.0479  133.6904  156.1717 LP  0  0  0  0  0  0  0  0  0  0  0  0  # atno 17394 bound_to 11000
  140.6855  134.4721  157.5589 LP  0  0  0  0  0  0  0  0  0  0  0  0  # atno 17395 bound_to 11000

$$$$
