AV-unprocessed.smi:1491|AV-procd|sdf|6033|dock4
  -GOLD-   22720 6133D 1   1.00000     0.00000
 Structure written by MMmdl.
 39 40  0  0  0  0  0  0  0  0  2 V2000
  145.0071  136.1400  153.8610 O   0  0  0  0  0  0  0  0  0  0  0  0
  146.0743  136.0673  153.2510 C   0  0  0  0  0  0  0  0  0  0  0  0
  147.0575  136.9736  153.3483 N   0  0  0  0  0  0  0  0  0  0  0  0
  147.0186  138.1717  154.1822 C   0  0  0  0  0  0  0  0  0  0  0  0
  147.1348  139.4659  153.3541 C   0  0  0  0  0  0  0  0  0  0  0  0
  147.9939  140.4720  153.9871 N   0  0  0  0  0  0  0  0  0  0  0  0
  149.2069  140.2648  154.5921 C   0  0  0  0  0  0  0  0  0  0  0  0
  149.6435  141.4912  155.0226 C   0  0  0  0  0  0  0  0  0  0  0  0
  148.6763  142.3934  154.6684 N   0  3  0  0  0  0  0  0  0  0  0  0
  147.6719  141.7712  154.0426 C   0  0  0  0  0  0  0  0  0  0  0  0
  146.4003  135.0641  152.4246 N   0  0  0  0  0  0  0  0  0  0  0  0
  145.5598  133.9050  152.1404 C   0  0  2  0  0  0  0  0  0  0  0  0
  146.1380  133.1282  150.9438 C   0  0  0  0  0  0  0  0  0  0  0  0
  145.2606  131.9174  150.5806 C   0  0  0  0  0  0  0  0  0  0  0  0
  143.7937  132.3146  150.3286 C   0  0  2  0  0  0  0  0  0  0  0  0
  143.6920  133.0491  149.1246 O   0  0  0  0  0  0  0  0  0  0  0  0
  143.2195  133.1362  151.4984 C   0  0  0  0  0  0  0  0  0  0  0  0
  144.1078  134.3399  151.8585 C   0  0  0  0  0  0  0  0  0  0  0  0
  147.8948  136.8262  152.8033 H   0  0  0  0  0  0  0  0  0  0  0  0
  146.0633  138.1698  154.7072 H   0  0  0  0  0  0  0  0  0  0  0  0
  147.7878  138.1347  154.9556 H   0  0  0  0  0  0  0  0  0  0  0  0
  147.5140  139.2556  152.3527 H   0  0  0  0  0  0  0  0  0  0  0  0
  146.1498  139.9172  153.2306 H   0  0  0  0  0  0  0  0  0  0  0  0
  149.6613  139.2870  154.6613 H   0  0  0  0  0  0  0  0  0  0  0  0
  150.5466  141.7819  155.5393 H   0  0  0  0  0  0  0  0  0  0  0  0
  146.7827  142.2307  153.6490 H   0  0  0  0  0  0  0  0  0  0  0  0
  147.2987  135.0965  151.9649 H   0  0  0  0  0  0  0  0  0  0  0  0
  145.5665  133.2413  153.0075 H   0  0  0  0  0  0  0  0  0  0  0  0
  146.2233  133.7880  150.0791 H   0  0  0  0  0  0  0  0  0  0  0  0
  147.1493  132.7896  151.1721 H   0  0  0  0  0  0  0  0  0  0  0  0
  145.6694  131.4062  149.7081 H   0  0  0  0  0  0  0  0  0  0  0  0
  145.2977  131.1970  151.3988 H   0  0  0  0  0  0  0  0  0  0  0  0
  143.1971  131.4107  150.2006 H   0  0  0  0  0  0  0  0  0  0  0  0
  142.8710  133.5170  149.1269 H   0  0  0  0  0  0  0  0  0  0  0  0
  142.2086  133.4726  151.2653 H   0  0  0  0  0  0  0  0  0  0  0  0
  143.1297  132.4913  152.3736 H   0  0  0  0  0  0  0  0  0  0  0  0
  143.6912  134.8491  152.7284 H   0  0  0  0  0  0  0  0  0  0  0  0
  144.0899  135.0637  151.0423 H   0  0  0  0  0  0  0  0  0  0  0  0
  148.7145  143.3884  154.8507 H   0  0  0  0  0  0  0  0  0  0  0  0
  1  2  2  0  0  0  0
  2  3  1  0  0  0  0
  2 11  1  0  0  0  0
  3  4  1  0  0  0  0
  3 19  1  0  0  0  0
  4  5  1  0  0  0  0
  4 20  1  0  0  0  0
  4 21  1  0  0  0  0
  5  6  1  0  0  0  0
  5 22  1  0  0  0  0
  5 23  1  0  0  0  0
  6 10  1  0  0  0  0
  6  7  1  0  0  0  0
  7  8  2  0  0  0  0
  7 24  1  0  0  0  0
  8  9  1  0  0  0  0
  8 25  1  0  0  0  0
  9 10  2  0  0  0  0
  9 39  1  0  0  0  0
 10 26  1  0  0  0  0
 11 12  1  0  0  0  0
 11 27  1  0  0  0  0
 12 18  1  0  0  0  0
 12 13  1  0  0  0  0
 12 28  1  0  0  0  0
 13 14  1  0  0  0  0
 13 29  1  0  0  0  0
 13 30  1  0  0  0  0
 14 15  1  0  0  0  0
 14 31  1  0  0  0  0
 14 32  1  0  0  0  0
 15 16  1  0  0  0  0
 15 17  1  0  0  0  0
 15 33  1  0  0  0  0
 16 34  1  0  0  0  0
 17 18  1  0  0  0  0
 17 35  1  0  0  0  0
 17 36  1  0  0  0  0
 18 37  1  0  0  0  0
 18 38  1  0  0  0  0
M  CHG  1   9   1
M  END
> <s_m_source_file>
AV-unprocessed.smi

> <i_m_source_file_index>
1491

> <i_lp_mmshare_version>
43012

> <i_f3d_flags>
0

> <s_epik_input>
W0NIMl0xW0NIMl1bQ0BIXShbT0hdKVtDSDJdW0NIMl1bQ0BIXTFbTkhdQyg9TylbTkhdW0NIMl1bQ0gyXW4yW2NIXVtjSF1uW2NIXTI=

> <s_epik_cmdline>
J2VwaWtfcHl0aG9uJywgJy1waCcsICc3LjAnLCAnLXRuJywgJzgnLCAnLW1hJywgJzIwMCcsICctbWV0YWxfYmluZGluZycsICctaW1hZScsICc8aW5maWxlLm1hZT4nLCAnLW9tYWUnLCAnPG91dGZpbGUubWFlPic=

> <r_lp_tautomer_probability>
1

> <r_epik_Ionization_Penalty>
0.254652

> <r_epik_Ionization_Penalty_Charging>
0

> <r_epik_Ionization_Penalty_Neutral>
0.254652

> <r_epik_State_Penalty>
0.246077

> <r_epik_Charging_Adjusted_Penalty>
0.246077

> <i_epik_Tot_Q>
1

> <i_epik_Tot_abs_Q>
1

> <r_epik_Metal_State_Penalty>
0.536042

> <b_epik_Metal_Only>
0

> <s_lp_Force_Field>
OPLS_2005

> <r_lp_Energy>
9.89821

> <b_lp_Chiralities_Consistent>
1

> <s_lp_Variant>
AV-unprocessed.smi:1491-2

> <Gold.Version>
5.8.1

> <Gold.Id.Protein>
6NUR|6NUR_protein|mol2

> <Gold.PLP.Fitness>
46.9910

> <Gold.PLP.PLP>
-33.7589

> <Gold.PLP.part.hbond>
-3.9314

> <Gold.PLP.part.metal>
0.0000

> <Gold.PLP.part.buried>
-5.0123

> <Gold.PLP.part.nonpolar>
-25.8950

> <Gold.PLP.part.repulsive>
0.4093

> <Gold.PLP.ligand.clash>
0.0000

> <Gold.PLP.ligand.torsion>
0.6509

> <Gold.PLP.Chemscore.Hbond>
4.8393

> <Gold.PLP.Chemscore.CHOScore>
0.0000

> <Gold.PLP.Chemscore.Metal>
0.0000

> <Gold.Chemscore.Hbonds>
donor molecule, donor type, donor heavy atom, donor atom, acceptor molecule, acceptor atom, score
      L1  H     3    19       P1  7948  1.00
      L1  H     9    39       P1  8028  2.00
      L1  H    11    27       P1  7948  0.85
      L1  H    16    34       P1 10186  0.80

> <Gold.PLP.Chemscore.Internal.Correction>
0.0162

> <Gold.Rescore>
     Score         DG    S(hbond)    S(metal)    S(lipo)     H(rot)  DE(clash)    DE(int)     intcor
     16.73     -18.68       3.83        0.00      61.41       2.65       0.03       1.92       ----

> <Gold.Chemscore.Fitness>
16.7282

> <Gold.Chemscore.DG>
-18.6783

> <Gold.Chemscore.ZeroCoef>
-5.4800

> <Gold.Chemscore.Hbond>
3.8342

> <Gold.Chemscore.Metal>
0.0000

> <Gold.Chemscore.Lipo>
61.4147

> <Gold.Chemscore.Internal_Hbond>
0.0000

> <Gold.Chemscore.DEClash>
0.0270

> <Gold.Chemscore.DEInternal>
1.9231

> <Gold.Chemscore.Rot>
2.6536

> <Gold.Chemscore.Internal.Correction>
   9.000000E+99

> <Gold.Chemscore.Hbonds>
donor molecule, donor type, donor heavy atom, donor atom, acceptor molecule, acceptor atom, score
      L1  H     3    19       P1  7948  0.93
      L1  H     9    39       P1  8028  0.94
      L1  H    11    27       P1  7948  0.79
      L1  H    16    34       P1 10186  0.79

> <Gold.Chemscore.Hbond.Weighted>
-12.8061

> <Gold.Chemscore.Metal.Weighted>
-0.0000

> <Gold.Chemscore.Lipo.Weighted>
-7.1855

> <Gold.Chemscore.Internal_Hbond.Weighted>
0.0000

> <Gold.Chemscore.DEClash.Weighted>
0.0270

> <Gold.Chemscore.DEInternal.Weighted>
1.9231

> <Gold.Chemscore.Rot.Weighted>
6.7933

> <Gold.Chemscore.Internal.Correction.Weighted>
   9.000000E+99

> <Gold.Protein.RotatedTorsions>
[ 6907 6896 6895 6894 ] final -145.23 input  -60.11 | X-H torsion
[ 7974 7965 7964 7962 ] final -130.81 input  175.53 | X-H torsion
[ 8008 7997 7996 7995 ] final -133.47 input   59.86 | X-H torsion
[ 10167 10162 10161 10158 ] final -110.34 input  -65.29 | X-H torsion
[ 10718 10713 10712 10709 ] final   62.51 input   66.30 | X-H torsion
[ 10763 10752 10751 10750 ] final  -91.83 input  -60.55 | X-H torsion
[ 11005 11000 10999 10996 ] final  -47.50 input  -57.11 | X-H torsion

> <Gold.Protein.ActiveResidues>
 VAL166  LYS551  ARG553  GLY616  TRP617  ASP618  TYR619  PRO620  LYS621  CYS622 
 ASP623  PHE694  ASN695  SER759  ASP760  ASP761  ALA762  ILE779  LEU786  VAL792 
 PHE793  MET794  SER795  GLU796  ALA797  LYS798  CYS799  TRP800  GLU811  SER814 

> <Gold.Protein.RotatedAtoms>
  151.1249  133.5078  159.2600 H   0  0  0  0  0  0  0  0  0  0  0  0  # atno 6907 bound_to 6896
  151.1821  135.0365  159.8807 H   0  0  0  0  0  0  0  0  0  0  0  0  # atno 6908 bound_to 6896
  152.5457  134.1099  159.8407 H   0  0  0  0  0  0  0  0  0  0  0  0  # atno 6909 bound_to 6896
  144.9439  140.7270  143.4829 H   0  0  0  0  0  0  0  0  0  0  0  0  # atno 7974 bound_to 7965
  155.3460  140.0474  157.3045 H   0  0  0  0  0  0  0  0  0  0  0  0  # atno 8008 bound_to 7997
  154.5252  140.2238  155.8867 H   0  0  0  0  0  0  0  0  0  0  0  0  # atno 8009 bound_to 7997
  156.1732  140.3091  155.9017 H   0  0  0  0  0  0  0  0  0  0  0  0  # atno 8010 bound_to 7997
  140.1456  143.4242  152.1531 H   0  0  0  0  0  0  0  0  0  0  0  0  # atno 10167 bound_to 10162
  157.5906  130.9054  149.9597 H   0  0  0  0  0  0  0  0  0  0  0  0  # atno 10718 bound_to 10713
  154.6800  135.5253  153.8250 H   0  0  0  0  0  0  0  0  0  0  0  0  # atno 10763 bound_to 10752
  153.0558  135.6550  154.0590 H   0  0  0  0  0  0  0  0  0  0  0  0  # atno 10764 bound_to 10752
  154.0479  135.2972  155.3325 H   0  0  0  0  0  0  0  0  0  0  0  0  # atno 10765 bound_to 10752
  141.0644  133.6698  156.3306 H   0  0  0  0  0  0  0  0  0  0  0  0  # atno 11005 bound_to 11000
  145.2947  139.1871  143.4721 LP  0  0  0  0  0  0  0  0  0  0  0  0  # atno 17320 bound_to 7965
  146.3296  140.2930  142.8616 LP  0  0  0  0  0  0  0  0  0  0  0  0  # atno 17321 bound_to 7965
  139.5451  144.7291  151.4610 LP  0  0  0  0  0  0  0  0  0  0  0  0  # atno 17342 bound_to 10162
  140.6734  143.8243  150.7028 LP  0  0  0  0  0  0  0  0  0  0  0  0  # atno 17343 bound_to 10162
  156.0960  130.3659  150.0306 LP  0  0  0  0  0  0  0  0  0  0  0  0  # atno 17370 bound_to 10713
  156.8429  130.9432  151.3630 LP  0  0  0  0  0  0  0  0  0  0  0  0  # atno 17371 bound_to 10713
  140.5803  134.5752  157.5478 LP  0  0  0  0  0  0  0  0  0  0  0  0  # atno 17394 bound_to 11000
  139.9463  134.7697  156.0555 LP  0  0  0  0  0  0  0  0  0  0  0  0  # atno 17395 bound_to 11000

$$$$
