AV-unprocessed.smi:2892|AV-procd|sdf|11121|dock3
  -GOLD-   2272015593D 1   1.00000     0.00000
 Structure written by MMmdl.
 42 42  0  0  0  0  0  0  0  0  2 V2000
  149.6336  140.0490  154.5125 C   0  0  0  0  0  0  0  0  0  0  0  0
  149.5242  138.5325  154.2970 C   0  0  0  0  0  0  0  0  0  0  0  0
  150.6154  137.6992  155.0207 C   0  0  1  0  0  0  0  0  0  0  0  0
  151.3026  138.5490  156.1148 C   0  0  0  0  0  0  0  0  0  0  0  0
  150.0353  136.3678  155.5912 C   0  0  1  0  0  0  0  0  0  0  0  0
  149.8790  135.4027  154.5042 N   0  0  0  0  0  0  0  0  0  0  0  0
  149.4963  134.1214  154.6273 C   0  0  0  0  0  0  0  0  0  0  0  0
  149.2606  133.5803  155.7073 O   0  0  0  0  0  0  0  0  0  0  0  0
  149.3509  133.3270  153.3264 C   0  0  0  0  0  0  0  0  0  0  0  0
  147.8969  133.0804  153.0154 C   0  0  0  0  0  0  0  0  0  0  0  0
  146.8553  132.7224  153.9185 C   0  0  0  0  0  0  0  0  0  0  0  0
  145.7565  132.5903  153.1194 C   0  0  0  0  0  0  0  0  0  0  0  0
  146.1497  132.8695  151.8277 N   0  0  0  0  0  0  0  0  0  0  0  0
  145.3446  132.8420  150.6158 C   0  0  0  0  0  0  0  0  0  0  0  0
  143.9020  132.4100  150.9237 C   0  0  0  0  0  0  0  0  0  0  0  0
  145.9906  131.9611  149.5338 C   0  0  0  0  0  0  0  0  0  0  0  0
  147.4644  133.1760  151.7661 N   0  0  0  0  0  0  0  0  0  0  0  0
  150.9735  135.7362  156.6342 C   0  0  0  0  0  0  0  0  0  0  0  0
  150.5003  135.5287  157.7728 O   0  0  0  0  0  0  0  0  0  0  0  0
  152.1449  135.4731  156.2793 O   0  5  0  0  0  0  0  0  0  0  0  0
  148.9000  140.5758  153.9026 H   0  0  0  0  0  0  0  0  0  0  0  0
  150.6208  140.4166  154.2320 H   0  0  0  0  0  0  0  0  0  0  0  0
  149.4482  140.3296  155.5484 H   0  0  0  0  0  0  0  0  0  0  0  0
  148.5349  138.1898  154.6028 H   0  0  0  0  0  0  0  0  0  0  0  0
  149.5730  138.3678  153.2208 H   0  0  0  0  0  0  0  0  0  0  0  0
  151.3750  137.4439  154.2797 H   0  0  0  0  0  0  0  0  0  0  0  0
  150.5945  138.8350  156.8930 H   0  0  0  0  0  0  0  0  0  0  0  0
  151.7351  139.4617  155.7077 H   0  0  0  0  0  0  0  0  0  0  0  0
  152.1236  138.0173  156.5952 H   0  0  0  0  0  0  0  0  0  0  0  0
  149.0731  136.5767  156.0630 H   0  0  0  0  0  0  0  0  0  0  0  0
  150.0734  135.7472  153.5754 H   0  0  0  0  0  0  0  0  0  0  0  0
  149.8256  133.8856  152.5190 H   0  0  0  0  0  0  0  0  0  0  0  0
  149.8902  132.3826  153.4116 H   0  0  0  0  0  0  0  0  0  0  0  0
  146.9113  132.5720  154.9863 H   0  0  0  0  0  0  0  0  0  0  0  0
  144.7390  132.3197  153.3608 H   0  0  0  0  0  0  0  0  0  0  0  0
  145.3096  133.8627  150.2320 H   0  0  0  0  0  0  0  0  0  0  0  0
  143.2808  132.4520  150.0288 H   0  0  0  0  0  0  0  0  0  0  0  0
  143.4497  133.0636  151.6699 H   0  0  0  0  0  0  0  0  0  0  0  0
  143.8618  131.3899  151.3073 H   0  0  0  0  0  0  0  0  0  0  0  0
  145.4255  132.0098  148.6026 H   0  0  0  0  0  0  0  0  0  0  0  0
  146.0333  130.9149  149.8388 H   0  0  0  0  0  0  0  0  0  0  0  0
  147.0082  132.2884  149.3187 H   0  0  0  0  0  0  0  0  0  0  0  0
  1  2  1  0  0  0  0
  1 21  1  0  0  0  0
  1 22  1  0  0  0  0
  1 23  1  0  0  0  0
  2  3  1  0  0  0  0
  2 24  1  0  0  0  0
  2 25  1  0  0  0  0
  3  4  1  0  0  0  0
  3  5  1  0  0  0  0
  3 26  1  0  0  0  0
  4 27  1  0  0  0  0
  4 28  1  0  0  0  0
  4 29  1  0  0  0  0
  5  6  1  0  0  0  0
  5 18  1  0  0  0  0
  5 30  1  0  0  0  0
  6  7  1  0  0  0  0
  6 31  1  0  0  0  0
  7  8  2  0  0  0  0
  7  9  1  0  0  0  0
  9 10  1  0  0  0  0
  9 32  1  0  0  0  0
  9 33  1  0  0  0  0
 10 17  2  0  0  0  0
 10 11  1  0  0  0  0
 11 12  2  0  0  0  0
 11 34  1  0  0  0  0
 12 13  1  0  0  0  0
 12 35  1  0  0  0  0
 13 14  1  0  0  0  0
 13 17  1  0  0  0  0
 14 15  1  0  0  0  0
 14 16  1  0  0  0  0
 14 36  1  0  0  0  0
 15 37  1  0  0  0  0
 15 38  1  0  0  0  0
 15 39  1  0  0  0  0
 16 40  1  0  0  0  0
 16 41  1  0  0  0  0
 16 42  1  0  0  0  0
 18 19  2  0  0  0  0
 18 20  1  0  0  0  0
M  CHG  1  20  -1
M  END
> <s_m_source_file>
AV-unprocessed.smi

> <i_m_source_file_index>
2892

> <i_lp_mmshare_version>
43012

> <i_f3d_flags>
0

> <s_epik_input>
W0NIM11bQ0gyXVtDQEhdKFtDSDNdKVtDQEBIXShDKD1PKVtPSF0pW05IXUMoPU8pW0NIMl1jMVtjSF1bY0hdbihuMSlbQ0hdKFtDSDNdKVtDSDNd

> <s_epik_cmdline>
J2VwaWtfcHl0aG9uJywgJy1waCcsICc3LjAnLCAnLXRuJywgJzgnLCAnLW1hJywgJzIwMCcsICctbWV0YWxfYmluZGluZycsICctaW1hZScsICc8aW5maWxlLm1hZT4nLCAnLW9tYWUnLCAnPG91dGZpbGUubWFlPic=

> <r_lp_tautomer_probability>
1

> <r_epik_Ionization_Penalty>
0.000286846

> <r_epik_Ionization_Penalty_Charging>
0.000224481

> <r_epik_Ionization_Penalty_Neutral>
6.23655e-05

> <r_epik_State_Penalty>
-0

> <r_epik_Charging_Adjusted_Penalty>
0.000224481

> <i_epik_Tot_Q>
-1

> <i_epik_Tot_abs_Q>
1

> <r_epik_Metal_State_Penalty>
-0

> <b_epik_Metal_Only>
0

> <s_lp_Force_Field>
OPLS_2005

> <r_lp_Energy>
13.265

> <b_lp_Chiralities_Consistent>
1

> <s_lp_Variant>
AV-unprocessed.smi:2892-4

> <Gold.Version>
5.8.1

> <Gold.Id.Protein>
6NUR|6NUR_protein|mol2

> <Gold.PLP.Fitness>
45.4963

> <Gold.PLP.PLP>
-34.1102

> <Gold.PLP.part.hbond>
-3.0000

> <Gold.PLP.part.metal>
0.0000

> <Gold.PLP.part.buried>
-4.0218

> <Gold.PLP.part.nonpolar>
-27.3804

> <Gold.PLP.part.repulsive>
0.2857

> <Gold.PLP.ligand.clash>
0.0000

> <Gold.PLP.ligand.torsion>
1.4219

> <Gold.PLP.Chemscore.Hbond>
3.7094

> <Gold.PLP.Chemscore.CHOScore>
0.9878

> <Gold.PLP.Chemscore.Metal>
0.0000

> <Gold.Chemscore.Hbonds>
donor molecule, donor type, donor heavy atom, donor atom, acceptor molecule, acceptor atom, score
      L1  H     6    31       P1  7948  0.29
      P1  H  6896  6907       L1    19  1.18
      P1  H 10752 10764       L1    20  2.00
      L1  C    12    35       P1 10957  0.69

> <Gold.PLP.Chemscore.Internal.Correction>
0.1383

> <Gold.Rescore>
     Score         DG    S(hbond)    S(metal)    S(lipo)     H(rot)  DE(clash)    DE(int)     intcor
     11.57     -14.05       1.71        0.00      76.80       2.39       0.03       2.46       ----

> <Gold.Chemscore.Fitness>
11.5685

> <Gold.Chemscore.DG>
-14.0522

> <Gold.Chemscore.ZeroCoef>
-5.4800

> <Gold.Chemscore.Hbond>
1.7055

> <Gold.Chemscore.Metal>
0.0000

> <Gold.Chemscore.Lipo>
76.7966

> <Gold.Chemscore.Internal_Hbond>
0.0000

> <Gold.Chemscore.DEClash>
0.0251

> <Gold.Chemscore.DEInternal>
2.4587

> <Gold.Chemscore.Rot>
2.3865

> <Gold.Chemscore.Internal.Correction>
   9.000000E+99

> <Gold.Chemscore.Hbonds>
donor molecule, donor type, donor heavy atom, donor atom, acceptor molecule, acceptor atom, score
      L1  H     6    31       P1  7948  0.01
      P1  H  6896  6907       L1    19  0.56
      P1  H 10752 10764       L1    20  0.97

> <Gold.Chemscore.Hbond.Weighted>
-5.6964

> <Gold.Chemscore.Metal.Weighted>
-0.0000

> <Gold.Chemscore.Lipo.Weighted>
-8.9852

> <Gold.Chemscore.Internal_Hbond.Weighted>
0.0000

> <Gold.Chemscore.DEClash.Weighted>
0.0251

> <Gold.Chemscore.DEInternal.Weighted>
2.4587

> <Gold.Chemscore.Rot.Weighted>
6.1093

> <Gold.Chemscore.Internal.Correction.Weighted>
   9.000000E+99

> <Gold.Protein.RotatedTorsions>
[ 6907 6896 6895 6894 ] final  -70.29 input  -60.11 | X-H torsion
[ 7974 7965 7964 7962 ] final   84.98 input  175.53 | X-H torsion
[ 8008 7997 7996 7995 ] final  152.52 input   59.86 | X-H torsion
[ 10167 10162 10161 10158 ] final   -0.65 input  -65.29 | X-H torsion
[ 10718 10713 10712 10709 ] final -154.75 input   66.30 | X-H torsion
[ 10763 10752 10751 10750 ] final  -33.83 input  -60.55 | X-H torsion
[ 11005 11000 10999 10996 ] final  -80.84 input  -57.11 | X-H torsion

> <Gold.Protein.ActiveResidues>
 VAL166  LYS551  ARG553  GLY616  TRP617  ASP618  TYR619  PRO620  LYS621  CYS622 
 ASP623  PHE694  ASN695  SER759  ASP760  ASP761  ALA762  ILE779  LEU786  VAL792 
 PHE793  MET794  SER795  GLU796  ALA797  LYS798  CYS799  TRP800  GLU811  SER814 

> <Gold.Protein.RotatedAtoms>
  150.7265  134.5475  159.5777 H   0  0  0  0  0  0  0  0  0  0  0  0  # atno 6907 bound_to 6896
  152.2970  134.7652  160.0375 H   0  0  0  0  0  0  0  0  0  0  0  0  # atno 6908 bound_to 6896
  151.8246  133.3364  159.3631 H   0  0  0  0  0  0  0  0  0  0  0  0  # atno 6909 bound_to 6896
  145.5916  139.2339  143.2296 H   0  0  0  0  0  0  0  0  0  0  0  0  # atno 7974 bound_to 7965
  156.2625  140.2018  156.6346 H   0  0  0  0  0  0  0  0  0  0  0  0  # atno 8008 bound_to 7997
  154.6657  140.0556  157.0135 H   0  0  0  0  0  0  0  0  0  0  0  0  # atno 8009 bound_to 7997
  155.1211  140.3225  155.4500 H   0  0  0  0  0  0  0  0  0  0  0  0  # atno 8010 bound_to 7997
  140.6776  143.6869  150.8059 H   0  0  0  0  0  0  0  0  0  0  0  0  # atno 10167 bound_to 10162
  156.5035  130.8402  151.2618 H   0  0  0  0  0  0  0  0  0  0  0  0  # atno 10718 bound_to 10713
  153.8368  135.6861  153.4808 H   0  0  0  0  0  0  0  0  0  0  0  0  # atno 10763 bound_to 10752
  153.1478  135.4630  154.9590 H   0  0  0  0  0  0  0  0  0  0  0  0  # atno 10764 bound_to 10752
  154.7863  135.3286  154.7825 H   0  0  0  0  0  0  0  0  0  0  0  0  # atno 10765 bound_to 10752
  141.1667  133.7169  156.8333 H   0  0  0  0  0  0  0  0  0  0  0  0  # atno 11005 bound_to 11000
  146.1643  140.6742  142.9263 LP  0  0  0  0  0  0  0  0  0  0  0  0  # atno 17320 bound_to 7965
  144.7349  140.4779  143.6911 LP  0  0  0  0  0  0  0  0  0  0  0  0  # atno 17321 bound_to 7965
  140.0565  143.5198  152.2648 LP  0  0  0  0  0  0  0  0  0  0  0  0  # atno 17342 bound_to 10162
  139.6078  144.7601  151.3021 LP  0  0  0  0  0  0  0  0  0  0  0  0  # atno 17343 bound_to 10162
  157.7460  130.9974  150.2814 LP  0  0  0  0  0  0  0  0  0  0  0  0  # atno 17370 bound_to 10713
  156.3310  130.3800  149.7491 LP  0  0  0  0  0  0  0  0  0  0  0  0  # atno 17371 bound_to 10713
  140.2035  134.8879  157.3196 LP  0  0  0  0  0  0  0  0  0  0  0  0  # atno 17394 bound_to 11000
  140.2162  134.4079  155.7588 LP  0  0  0  0  0  0  0  0  0  0  0  0  # atno 17395 bound_to 11000

$$$$
