AV-unprocessed.smi:1378|AV-procd|sdf|5596|dock5
  -GOLD-   22720 5203D 1   1.00000     0.00000
 Structure written by MMmdl.
 46 48  0  0  0  0  0  0  0  0  1 V2000
  151.5615  138.8051  154.8981 C   0  0  0  0  0  0  0  0  0  0  0  0
  151.6631  140.1949  155.1509 O   0  0  0  0  0  0  0  0  0  0  0  0
  150.5707  140.6933  155.9062 C   0  0  0  0  0  0  0  0  0  0  0  0
  150.4429  139.8968  157.2115 C   0  0  0  0  0  0  0  0  0  0  0  0
  151.4443  140.2920  158.1902 N   0  0  0  0  0  0  0  0  0  0  0  0
  152.3273  139.4989  158.8441 C   0  0  0  0  0  0  0  0  0  0  0  0
  152.4112  137.7607  158.5580 S   0  0  0  0  0  0  0  0  0  0  0  0
  154.1835  137.5205  158.8928 C   0  0  0  0  0  0  0  0  0  0  0  0
  154.4450  136.7654  160.1966 C   0  0  0  0  0  0  0  0  0  0  0  0
  154.1786  135.5670  160.2803 O   0  0  0  0  0  0  0  0  0  0  0  0
  154.9954  137.4761  161.1928 N   0  0  0  0  0  0  0  0  0  0  0  0
  155.4410  136.9417  162.4750 C   0  0  0  0  0  0  0  0  0  0  0  0
  154.3571  136.0549  163.1157 C   0  0  0  0  0  0  0  0  0  0  0  0
  153.7896  136.8655  164.2812 C   0  0  0  0  0  0  0  0  0  0  0  0
  154.9691  137.7075  164.7579 C   0  0  0  0  0  0  0  0  0  0  0  0
  155.7070  138.0857  163.4729 C   0  0  0  0  0  0  0  0  0  0  0  0
  153.1512  140.1216  159.6869 N   0  0  0  0  0  0  0  0  0  0  0  0
  152.7682  141.4429  159.5656 C   0  0  0  0  0  0  0  0  0  0  0  0
  153.2685  142.6055  160.1942 C   0  0  0  0  0  0  0  0  0  0  0  0
  152.7144  143.8690  159.9021 C   0  0  0  0  0  0  0  0  0  0  0  0
  151.6540  143.9881  158.9807 C   0  0  0  0  0  0  0  0  0  0  0  0
  151.1406  142.8423  158.3434 C   0  0  0  0  0  0  0  0  0  0  0  0
  151.6993  141.5840  158.6364 C   0  0  0  0  0  0  0  0  0  0  0  0
  152.4258  138.4744  154.3224 H   0  0  0  0  0  0  0  0  0  0  0  0
  150.6648  138.5741  154.3216 H   0  0  0  0  0  0  0  0  0  0  0  0
  151.5376  138.2352  155.8278 H   0  0  0  0  0  0  0  0  0  0  0  0
  150.7209  141.7512  156.1275 H   0  0  0  0  0  0  0  0  0  0  0  0
  149.6487  140.6081  155.3296 H   0  0  0  0  0  0  0  0  0  0  0  0
  149.4488  140.0220  157.6413 H   0  0  0  0  0  0  0  0  0  0  0  0
  150.5528  138.8307  157.0113 H   0  0  0  0  0  0  0  0  0  0  0  0
  154.6434  136.9953  158.0548 H   0  0  0  0  0  0  0  0  0  0  0  0
  154.6607  138.4992  158.9483 H   0  0  0  0  0  0  0  0  0  0  0  0
  155.1699  138.4570  161.0279 H   0  0  0  0  0  0  0  0  0  0  0  0
  156.3553  136.3605  162.3421 H   0  0  0  0  0  0  0  0  0  0  0  0
  153.5808  135.7434  162.4156 H   0  0  0  0  0  0  0  0  0  0  0  0
  154.8208  135.1467  163.5028 H   0  0  0  0  0  0  0  0  0  0  0  0
  152.9933  137.5184  163.9219 H   0  0  0  0  0  0  0  0  0  0  0  0
  153.3761  136.2361  165.0696 H   0  0  0  0  0  0  0  0  0  0  0  0
  154.6585  138.5788  165.3355 H   0  0  0  0  0  0  0  0  0  0  0  0
  155.6190  137.1019  165.3907 H   0  0  0  0  0  0  0  0  0  0  0  0
  156.7723  138.2436  163.6448 H   0  0  0  0  0  0  0  0  0  0  0  0
  155.3015  139.0271  163.0987 H   0  0  0  0  0  0  0  0  0  0  0  0
  154.0809  142.5253  160.9012 H   0  0  0  0  0  0  0  0  0  0  0  0
  153.1042  144.7512  160.3884 H   0  0  0  0  0  0  0  0  0  0  0  0
  151.2346  144.9596  158.7637 H   0  0  0  0  0  0  0  0  0  0  0  0
  150.3277  142.9292  157.6378 H   0  0  0  0  0  0  0  0  0  0  0  0
  1  2  1  0  0  0  0
  1 24  1  0  0  0  0
  1 25  1  0  0  0  0
  1 26  1  0  0  0  0
  2  3  1  0  0  0  0
  3  4  1  0  0  0  0
  3 27  1  0  0  0  0
  3 28  1  0  0  0  0
  4  5  1  0  0  0  0
  4 29  1  0  0  0  0
  4 30  1  0  0  0  0
  5 23  1  0  0  0  0
  5  6  1  0  0  0  0
  6  7  1  0  0  0  0
  6 17  2  0  0  0  0
  7  8  1  0  0  0  0
  8  9  1  0  0  0  0
  8 31  1  0  0  0  0
  8 32  1  0  0  0  0
  9 10  2  0  0  0  0
  9 11  1  0  0  0  0
 11 12  1  0  0  0  0
 11 33  1  0  0  0  0
 12 16  1  0  0  0  0
 12 13  1  0  0  0  0
 12 34  1  0  0  0  0
 13 14  1  0  0  0  0
 13 35  1  0  0  0  0
 13 36  1  0  0  0  0
 14 15  1  0  0  0  0
 14 37  1  0  0  0  0
 14 38  1  0  0  0  0
 15 16  1  0  0  0  0
 15 39  1  0  0  0  0
 15 40  1  0  0  0  0
 16 41  1  0  0  0  0
 16 42  1  0  0  0  0
 17 18  1  0  0  0  0
 18 23  2  0  0  0  0
 18 19  1  0  0  0  0
 19 20  2  0  0  0  0
 19 43  1  0  0  0  0
 20 21  1  0  0  0  0
 20 44  1  0  0  0  0
 21 22  2  0  0  0  0
 21 45  1  0  0  0  0
 22 23  1  0  0  0  0
 22 46  1  0  0  0  0
M  END
> <s_m_source_file>
AV-unprocessed.smi

> <i_m_source_file_index>
1378

> <i_lp_mmshare_version>
43012

> <i_f3d_flags>
0

> <s_epik_input>
W2NIXTFbY0hdW2NIXVtjSF1jKGMxMiluKFtDSDJdW0NIMl1PW0NIM10pYyhuMilTW0NIMl1DKD1PKVtOSF1bQ0hdM1tDSDJdW0NIMl1bQ0gyXVtDSDJdMw==

> <s_epik_cmdline>
J2VwaWtfcHl0aG9uJywgJy1waCcsICc3LjAnLCAnLXRuJywgJzgnLCAnLW1hJywgJzIwMCcsICctbWV0YWxfYmluZGluZycsICctaW1hZScsICc8aW5maWxlLm1hZT4nLCAnLW9tYWUnLCAnPG91dGZpbGUubWFlPic=

> <r_epik_Ionization_Penalty>
0.0369383

> <r_epik_Ionization_Penalty_Charging>
0

> <r_epik_Ionization_Penalty_Neutral>
0.0369383

> <r_epik_State_Penalty>
0.0308874

> <r_epik_Charging_Adjusted_Penalty>
0.0308874

> <i_epik_Tot_Q>
0

> <i_epik_Tot_abs_Q>
0

> <r_epik_Metal_State_Penalty>
0.0290628

> <b_epik_Metal_Only>
0

> <s_lp_Force_Field>
OPLS_2005

> <r_lp_Energy>
18.5214

> <b_lp_Chiralities_Consistent>
1

> <s_lp_Variant>
AV-unprocessed.smi:1378-1

> <Gold.Version>
5.8.1

> <Gold.Id.Protein>
6NUR|6NUR_protein|mol2

> <Gold.PLP.Fitness>
50.5650

> <Gold.PLP.PLP>
-46.8512

> <Gold.PLP.part.hbond>
-2.0000

> <Gold.PLP.part.metal>
0.0000

> <Gold.PLP.part.buried>
-7.0662

> <Gold.PLP.part.nonpolar>
-38.1560

> <Gold.PLP.part.repulsive>
0.0296

> <Gold.PLP.ligand.clash>
0.0000

> <Gold.PLP.ligand.torsion>
1.0525

> <Gold.PLP.Chemscore.Hbond>
1.8960

> <Gold.PLP.Chemscore.CHOScore>
0.0000

> <Gold.PLP.Chemscore.Metal>
0.0000

> <Gold.Chemscore.Hbonds>
donor molecule, donor type, donor heavy atom, donor atom, acceptor molecule, acceptor atom, score
      P1  H  6896  6909       L1    10  1.00
      P1  H  7989  7998       L1     2  0.94

> <Gold.PLP.Chemscore.Internal.Correction>
0.1309

> <Gold.Rescore>
     Score         DG    S(hbond)    S(metal)    S(lipo)     H(rot)  DE(clash)    DE(int)     intcor
     18.92     -21.23       1.96        0.00     122.12       1.98       0.00       2.31       ----

> <Gold.Chemscore.Fitness>
18.9181

> <Gold.Chemscore.DG>
-21.2338

> <Gold.Chemscore.ZeroCoef>
-5.4800

> <Gold.Chemscore.Hbond>
1.9559

> <Gold.Chemscore.Metal>
0.0000

> <Gold.Chemscore.Lipo>
122.1195

> <Gold.Chemscore.Internal_Hbond>
0.0000

> <Gold.Chemscore.DEClash>
0.0038

> <Gold.Chemscore.DEInternal>
2.3119

> <Gold.Chemscore.Rot>
1.9792

> <Gold.Chemscore.Internal.Correction>
   9.000000E+99

> <Gold.Chemscore.Hbonds>
donor molecule, donor type, donor heavy atom, donor atom, acceptor molecule, acceptor atom, score
      P1  H  6896  6909       L1    10  0.99
      P1  H  7989  7998       L1     2  0.25

> <Gold.Chemscore.Hbond.Weighted>
-6.5327

> <Gold.Chemscore.Metal.Weighted>
-0.0000

> <Gold.Chemscore.Lipo.Weighted>
-14.2880

> <Gold.Chemscore.Internal_Hbond.Weighted>
0.0000

> <Gold.Chemscore.DEClash.Weighted>
0.0038

> <Gold.Chemscore.DEInternal.Weighted>
2.3119

> <Gold.Chemscore.Rot.Weighted>
5.0669

> <Gold.Chemscore.Internal.Correction.Weighted>
   9.000000E+99

> <Gold.Protein.RotatedTorsions>
[ 6907 6896 6895 6894 ] final -177.49 input  -60.11 | X-H torsion
[ 7974 7965 7964 7962 ] final -148.69 input  175.53 | X-H torsion
[ 8008 7997 7996 7995 ] final  -42.23 input   59.86 | X-H torsion
[ 10167 10162 10161 10158 ] final   81.99 input  -65.29 | X-H torsion
[ 10718 10713 10712 10709 ] final  179.04 input   66.30 | X-H torsion
[ 10763 10752 10751 10750 ] final   86.38 input  -60.55 | X-H torsion
[ 11005 11000 10999 10996 ] final  166.21 input  -57.11 | X-H torsion

> <Gold.Protein.ActiveResidues>
 VAL166  LYS551  ARG553  GLY616  TRP617  ASP618  TYR619  PRO620  LYS621  CYS622 
 ASP623  PHE694  ASN695  SER759  ASP760  ASP761  ALA762  ILE779  LEU786  VAL792 
 PHE793  MET794  SER795  GLU796  ALA797  LYS798  CYS799  TRP800  GLU811  SER814 

> <Gold.Protein.RotatedAtoms>
  151.6218  133.3338  159.3089 H   0  0  0  0  0  0  0  0  0  0  0  0  # atno 6907 bound_to 6896
  150.8102  134.7256  159.6692 H   0  0  0  0  0  0  0  0  0  0  0  0  # atno 6908 bound_to 6896
  152.4198  134.5980  160.0044 H   0  0  0  0  0  0  0  0  0  0  0  0  # atno 6909 bound_to 6896
  144.8014  140.5163  143.5705 H   0  0  0  0  0  0  0  0  0  0  0  0  # atno 7974 bound_to 7965
  154.4000  140.1479  156.3321 H   0  0  0  0  0  0  0  0  0  0  0  0  # atno 8008 bound_to 7997
  155.8434  140.3461  155.5625 H   0  0  0  0  0  0  0  0  0  0  0  0  # atno 8009 bound_to 7997
  155.8063  140.0877  157.1920 H   0  0  0  0  0  0  0  0  0  0  0  0  # atno 8010 bound_to 7997
  139.9335  144.6137  150.8322 H   0  0  0  0  0  0  0  0  0  0  0  0  # atno 10167 bound_to 10162
  156.8816  130.9817  151.3061 H   0  0  0  0  0  0  0  0  0  0  0  0  # atno 10718 bound_to 10713
  153.1565  135.4582  154.9711 H   0  0  0  0  0  0  0  0  0  0  0  0  # atno 10763 bound_to 10752
  154.7865  135.3206  154.7877 H   0  0  0  0  0  0  0  0  0  0  0  0  # atno 10764 bound_to 10752
  153.8374  135.6933  153.4861 H   0  0  0  0  0  0  0  0  0  0  0  0  # atno 10765 bound_to 10752
  140.2641  134.7879  157.3616 H   0  0  0  0  0  0  0  0  0  0  0  0  # atno 11005 bound_to 11000
  145.5545  139.1477  143.3376 LP  0  0  0  0  0  0  0  0  0  0  0  0  # atno 17320 bound_to 7965
  146.2296  140.5682  142.8981 LP  0  0  0  0  0  0  0  0  0  0  0  0  # atno 17321 bound_to 7965
  140.7631  143.3214  151.2613 LP  0  0  0  0  0  0  0  0  0  0  0  0  # atno 17342 bound_to 10162
  139.6763  143.9932  152.2783 LP  0  0  0  0  0  0  0  0  0  0  0  0  # atno 17343 bound_to 10162
  157.6137  130.8602  149.8993 LP  0  0  0  0  0  0  0  0  0  0  0  0  # atno 17370 bound_to 10713
  156.0674  130.3690  150.0849 LP  0  0  0  0  0  0  0  0  0  0  0  0  # atno 17371 bound_to 10713
  140.1436  134.4939  155.8013 LP  0  0  0  0  0  0  0  0  0  0  0  0  # atno 17394 bound_to 11000
  141.2186  133.6835  156.7255 LP  0  0  0  0  0  0  0  0  0  0  0  0  # atno 17395 bound_to 11000

$$$$
