AV-unprocessed.smi:105|AV-procd|sdf|1010|dock8
  -GOLD-   2262018 03D 1   1.00000     0.00000
 Structure written by MMmdl.
 42 45  0  0  0  0  0  0  0  0  1 V2000
  144.8843  136.3404  153.7354 C   0  0  0  0  0  0  0  0  0  0  0  0
  145.1022  137.1551  152.6074 C   0  0  0  0  0  0  0  0  0  0  0  0
  146.1817  138.0600  152.5898 C   0  0  0  0  0  0  0  0  0  0  0  0
  147.0472  138.1508  153.6999 C   0  0  0  0  0  0  0  0  0  0  0  0
  148.2016  139.1310  153.6845 C   0  0  0  0  0  0  0  0  0  0  0  0
  149.4963  138.4741  153.5730 N   0  0  0  0  0  0  0  0  0  0  0  0
  150.5141  138.8440  154.3795 C   0  0  0  0  0  0  0  0  0  0  0  0
  151.6796  138.1448  154.4020 N   0  0  0  0  0  0  0  0  0  0  0  0
  152.6738  138.5274  155.2099 C   0  0  0  0  0  0  0  0  0  0  0  0
  152.7111  139.5571  156.0591 N   0  0  0  0  0  0  0  0  0  0  0  0
  151.5415  140.2591  156.0379 C   0  0  0  0  0  0  0  0  0  0  0  0
  150.4035  139.9727  155.2324 C   0  0  0  0  0  0  0  0  0  0  0  0
  149.4002  140.9018  155.4748 N   0  0  0  0  0  0  0  0  0  0  0  0
  149.9153  141.6936  156.3761 C   0  0  0  0  0  0  0  0  0  0  0  0
  151.1983  141.3816  156.7713 N   0  0  0  0  0  0  0  0  0  0  0  0
  152.0039  142.0841  157.7547 C   0  0  1  0  0  0  0  0  0  0  0  0
  151.2794  143.3334  158.2940 C   0  0  0  0  0  0  0  0  0  0  0  0
  152.1809  144.0014  159.3389 C   0  0  0  0  0  0  0  0  0  0  0  0
  152.5261  142.9879  160.4345 C   0  0  0  0  0  0  0  0  0  0  0  0
  153.1311  141.7239  159.8011 C   0  0  0  0  0  0  0  0  0  0  0  0
  152.2429  141.2040  158.8146 O   0  0  0  0  0  0  0  0  0  0  0  0
  146.8258  137.3345  154.8286 C   0  0  0  0  0  0  0  0  0  0  0  0
  145.7459  136.4301  154.8457 C   0  0  0  0  0  0  0  0  0  0  0  0
  144.0560  135.6472  153.7491 H   0  0  0  0  0  0  0  0  0  0  0  0
  144.4407  137.0864  151.7564 H   0  0  0  0  0  0  0  0  0  0  0  0
  146.3435  138.6844  151.7232 H   0  0  0  0  0  0  0  0  0  0  0  0
  148.0711  139.8236  152.8515 H   0  0  0  0  0  0  0  0  0  0  0  0
  148.1718  139.7230  154.6003 H   0  0  0  0  0  0  0  0  0  0  0  0
  149.5780  137.7622  152.8612 H   0  0  0  0  0  0  0  0  0  0  0  0
  153.5670  137.9214  155.1705 H   0  0  0  0  0  0  0  0  0  0  0  0
  149.3694  142.5327  156.7828 H   0  0  0  0  0  0  0  0  0  0  0  0
  152.9553  142.3465  157.2879 H   0  0  0  0  0  0  0  0  0  0  0  0
  151.0725  144.0141  157.4673 H   0  0  0  0  0  0  0  0  0  0  0  0
  150.3252  143.0396  158.7336 H   0  0  0  0  0  0  0  0  0  0  0  0
  153.0937  144.3670  158.8667 H   0  0  0  0  0  0  0  0  0  0  0  0
  151.6804  144.8690  159.7699 H   0  0  0  0  0  0  0  0  0  0  0  0
  153.2222  143.4239  161.1518 H   0  0  0  0  0  0  0  0  0  0  0  0
  151.6249  142.7246  160.9896 H   0  0  0  0  0  0  0  0  0  0  0  0
  154.1025  141.9391  159.3531 H   0  0  0  0  0  0  0  0  0  0  0  0
  153.2951  140.9632  160.5643 H   0  0  0  0  0  0  0  0  0  0  0  0
  147.4817  137.4009  155.6843 H   0  0  0  0  0  0  0  0  0  0  0  0
  145.5779  135.8059  155.7111 H   0  0  0  0  0  0  0  0  0  0  0  0
  1 23  1  0  0  0  0
  1  2  2  0  0  0  0
  1 24  1  0  0  0  0
  2  3  1  0  0  0  0
  2 25  1  0  0  0  0
  3  4  2  0  0  0  0
  3 26  1  0  0  0  0
  4  5  1  0  0  0  0
  4 22  1  0  0  0  0
  5  6  1  0  0  0  0
  5 27  1  0  0  0  0
  5 28  1  0  0  0  0
  6  7  1  0  0  0  0
  6 29  1  0  0  0  0
  7 12  1  0  0  0  0
  7  8  2  0  0  0  0
  8  9  1  0  0  0  0
  9 10  2  0  0  0  0
  9 30  1  0  0  0  0
 10 11  1  0  0  0  0
 11 15  1  0  0  0  0
 11 12  2  0  0  0  0
 12 13  1  0  0  0  0
 13 14  2  0  0  0  0
 14 15  1  0  0  0  0
 14 31  1  0  0  0  0
 15 16  1  0  0  0  0
 16 21  1  0  0  0  0
 16 17  1  0  0  0  0
 16 32  1  0  0  0  0
 17 18  1  0  0  0  0
 17 33  1  0  0  0  0
 17 34  1  0  0  0  0
 18 19  1  0  0  0  0
 18 35  1  0  0  0  0
 18 36  1  0  0  0  0
 19 20  1  0  0  0  0
 19 37  1  0  0  0  0
 19 38  1  0  0  0  0
 20 21  1  0  0  0  0
 20 39  1  0  0  0  0
 20 40  1  0  0  0  0
 22 23  2  0  0  0  0
 22 41  1  0  0  0  0
 23 42  1  0  0  0  0
M  END
> <s_m_source_file>
AV-unprocessed.smi

> <i_m_source_file_index>
105

> <i_lp_mmshare_version>
43012

> <i_f3d_flags>
0

> <s_epik_input>
W2NIXTFbY0hdW2NIXVtjSF1bY0hdYzFbQ0gyXVtOSF1jKG5bY0hdbjIpYyhjMjMpbltjSF1uM1tDQEBIXTRbQ0gyXVtDSDJdW0NIMl1bQ0gyXU80

> <s_epik_cmdline>
J2VwaWtfcHl0aG9uJywgJy1waCcsICc3LjAnLCAnLXRuJywgJzgnLCAnLW1hJywgJzIwMCcsICctbWV0YWxfYmluZGluZycsICctaW1hZScsICc8aW5maWxlLm1hZT4nLCAnLW9tYWUnLCAnPG91dGZpbGUubWFlPic=

> <r_lp_tautomer_probability>
1

> <r_epik_Ionization_Penalty>
0.000653933

> <r_epik_Ionization_Penalty_Charging>
0

> <r_epik_Ionization_Penalty_Neutral>
0.000653933

> <r_epik_State_Penalty>
-0

> <r_epik_Charging_Adjusted_Penalty>
0

> <i_epik_Tot_Q>
0

> <i_epik_Tot_abs_Q>
0

> <r_epik_Metal_State_Penalty>
-0

> <b_epik_Metal_Only>
0

> <s_epik_Chemistry_Notes>
This compound contains an acetal/aminal-like group ( X-CH(R)-Y where X, Y are N, S, or O) that may be acid/base labile, releasing an aldehyde.

> <s_lp_Force_Field>
OPLS_2005

> <r_lp_Energy>
23.9687

> <b_lp_Chiralities_Consistent>
1

> <s_lp_Variant>
AV-unprocessed.smi:105-2

> <Gold.Version>
5.8.1

> <Gold.Id.Protein>
6NUR|6NUR_protein|mol2

> <Gold.PLP.Fitness>
49.3104

> <Gold.PLP.PLP>
-40.8255

> <Gold.PLP.part.hbond>
-3.0000

> <Gold.PLP.part.metal>
0.0000

> <Gold.PLP.part.buried>
-4.9511

> <Gold.PLP.part.nonpolar>
-33.6637

> <Gold.PLP.part.repulsive>
0.3169

> <Gold.PLP.ligand.clash>
0.0000

> <Gold.PLP.ligand.torsion>
0.2311

> <Gold.PLP.Chemscore.Hbond>
2.0000

> <Gold.PLP.Chemscore.CHOScore>
0.9778

> <Gold.PLP.Chemscore.Metal>
0.0000

> <Gold.Chemscore.Hbonds>
donor molecule, donor type, donor heavy atom, donor atom, acceptor molecule, acceptor atom, score
      L1  H     6    29       P1  7948  1.00
      P1  H  7997  8009       L1    10  1.00
      L1  C    14    31       P1  8028  0.95

> <Gold.PLP.Chemscore.Internal.Correction>
0.0138

> <Gold.Rescore>
     Score         DG    S(hbond)    S(metal)    S(lipo)     H(rot)  DE(clash)    DE(int)     intcor
     14.22     -16.42       1.87        0.00      74.16       1.55       0.69       1.51       ----

> <Gold.Chemscore.Fitness>
14.2170

> <Gold.Chemscore.DG>
-16.4152

> <Gold.Chemscore.ZeroCoef>
-5.4800

> <Gold.Chemscore.Hbond>
1.8677

> <Gold.Chemscore.Metal>
0.0000

> <Gold.Chemscore.Lipo>
74.1623

> <Gold.Chemscore.Internal_Hbond>
0.0000

> <Gold.Chemscore.DEClash>
0.6910

> <Gold.Chemscore.DEInternal>
1.5071

> <Gold.Chemscore.Rot>
1.5547

> <Gold.Chemscore.Internal.Correction>
   9.000000E+99

> <Gold.Chemscore.Hbonds>
donor molecule, donor type, donor heavy atom, donor atom, acceptor molecule, acceptor atom, score
      L1  H     6    29       P1  7948  0.73
      P1  H  7997  8009       L1    10  0.89

> <Gold.Chemscore.Hbond.Weighted>
-6.2381

> <Gold.Chemscore.Metal.Weighted>
-0.0000

> <Gold.Chemscore.Lipo.Weighted>
-8.6770

> <Gold.Chemscore.Internal_Hbond.Weighted>
0.0000

> <Gold.Chemscore.DEClash.Weighted>
0.6910

> <Gold.Chemscore.DEInternal.Weighted>
1.5071

> <Gold.Chemscore.Rot.Weighted>
3.9800

> <Gold.Chemscore.Internal.Correction.Weighted>
   9.000000E+99

> <Gold.Protein.RotatedTorsions>
[ 6907 6896 6895 6894 ] final   27.35 input  -60.11 | X-H torsion
[ 7974 7965 7964 7962 ] final  155.22 input  175.53 | X-H torsion
[ 8008 7997 7996 7995 ] final -176.48 input   59.86 | X-H torsion
[ 10167 10162 10161 10158 ] final   36.34 input  -65.29 | X-H torsion
[ 10718 10713 10712 10709 ] final  100.09 input   66.30 | X-H torsion
[ 10763 10752 10751 10750 ] final  135.28 input  -60.55 | X-H torsion
[ 11005 11000 10999 10996 ] final    9.20 input  -57.11 | X-H torsion

> <Gold.Protein.ActiveResidues>
 VAL166  LYS551  ARG553  GLY616  TRP617  ASP618  TYR619  PRO620  LYS621  CYS622 
 ASP623  PHE694  ASN695  SER759  ASP760  ASP761  ALA762  ILE779  LEU786  VAL792 
 PHE793  MET794  SER795  GLU796  ALA797  LYS798  CYS799  TRP800  GLU811  SER814 

> <Gold.Protein.RotatedAtoms>
  152.0010  134.9928  160.0564 H   0  0  0  0  0  0  0  0  0  0  0  0  # atno 6907 bound_to 6896
  152.1519  133.4523  159.4826 H   0  0  0  0  0  0  0  0  0  0  0  0  # atno 6908 bound_to 6896
  150.6876  134.2096  159.4397 H   0  0  0  0  0  0  0  0  0  0  0  0  # atno 6909 bound_to 6896
  144.8038  139.7039  143.6170 H   0  0  0  0  0  0  0  0  0  0  0  0  # atno 7974 bound_to 7965
  155.9953  140.1209  157.0599 H   0  0  0  0  0  0  0  0  0  0  0  0  # atno 8008 bound_to 7997
  154.4225  140.1117  156.5691 H   0  0  0  0  0  0  0  0  0  0  0  0  # atno 8009 bound_to 7997
  155.6286  140.3473  155.4677 H   0  0  0  0  0  0  0  0  0  0  0  0  # atno 8010 bound_to 7997
  140.4137  144.1557  150.6141 H   0  0  0  0  0  0  0  0  0  0  0  0  # atno 10167 bound_to 10162
  157.6862  131.0688  150.5048 H   0  0  0  0  0  0  0  0  0  0  0  0  # atno 10718 bound_to 10713
  153.8375  135.3096  155.3423 H   0  0  0  0  0  0  0  0  0  0  0  0  # atno 10763 bound_to 10752
  154.7947  135.4762  154.0136 H   0  0  0  0  0  0  0  0  0  0  0  0  # atno 10764 bound_to 10752
  153.1596  135.6858  153.8853 H   0  0  0  0  0  0  0  0  0  0  0  0  # atno 10765 bound_to 10752
  140.5284  134.0490  155.7866 H   0  0  0  0  0  0  0  0  0  0  0  0  # atno 11005 bound_to 11000
  146.2326  139.5842  142.9545 LP  0  0  0  0  0  0  0  0  0  0  0  0  # atno 17320 bound_to 7965
  145.5487  141.0415  143.2290 LP  0  0  0  0  0  0  0  0  0  0  0  0  # atno 17321 bound_to 7965
  140.4610  143.2449  151.9220 LP  0  0  0  0  0  0  0  0  0  0  0  0  # atno 17342 bound_to 10162
  139.4782  144.5467  151.8447 LP  0  0  0  0  0  0  0  0  0  0  0  0  # atno 17343 bound_to 10162
  156.5368  130.4198  149.6174 LP  0  0  0  0  0  0  0  0  0  0  0  0  # atno 17370 bound_to 10713
  156.3021  130.7182  151.2056 LP  0  0  0  0  0  0  0  0  0  0  0  0  # atno 17371 bound_to 10713
  141.1295  133.9326  157.2566 LP  0  0  0  0  0  0  0  0  0  0  0  0  # atno 17394 bound_to 11000
  139.9567  135.0164  156.9148 LP  0  0  0  0  0  0  0  0  0  0  0  0  # atno 17395 bound_to 11000

$$$$
