AV-unprocessed.smi:1682|AV-procd|sdf|6745|dock9
  -GOLD-   22720 7503D 1   1.00000     0.00000
 Structure written by MMmdl.
 39 40  0  0  0  0  0  0  0  0  2 V2000
  149.4090  138.3304  154.8789 O   0  0  0  0  0  0  0  0  0  0  0  0
  149.1225  139.4997  154.6242 C   0  0  0  0  0  0  0  0  0  0  0  0
  147.9068  139.8769  154.1970 N   0  0  0  0  0  0  0  0  0  0  0  0
  146.7849  138.9674  154.0138 C   0  0  0  0  0  0  0  0  0  0  0  0
  146.6045  138.6149  152.5310 C   0  0  0  0  0  0  0  0  0  0  0  0
  145.6951  137.4169  152.3356 C   0  0  0  0  0  0  0  0  0  0  0  0
  144.3816  137.3785  152.8525 C   0  0  0  0  0  0  0  0  0  0  0  0
  143.5928  136.2275  152.6451 C   0  0  0  0  0  0  0  0  0  0  0  0
  144.1326  135.1410  151.9263 C   0  0  0  0  0  0  0  0  0  0  0  0
  145.4497  135.2330  151.4318 C   0  0  0  0  0  0  0  0  0  0  0  0
  146.1739  136.3526  151.6513 N   0  3  0  0  0  0  0  0  0  0  0  0
  150.1804  140.6014  154.8010 C   0  0  2  0  0  0  0  0  0  0  0  0
  151.5425  140.0365  155.2478 C   0  0  0  0  0  0  0  0  0  0  0  0
  151.7247  140.6024  156.6467 C   0  0  0  0  0  0  0  0  0  0  0  0
  152.6473  140.2629  157.3854 O   0  0  0  0  0  0  0  0  0  0  0  0
  150.7557  141.4755  156.9448 N   0  0  0  0  0  0  0  0  0  0  0  0
  150.5968  142.1961  158.2072 C   0  0  0  0  0  0  0  0  0  0  0  0
  151.6727  143.2790  158.4081 C   0  0  0  0  0  0  0  0  0  0  0  0
  152.8591  142.6895  158.5486 F   0  0  0  0  0  0  0  0  0  0  0  0
  151.7327  144.1029  157.3623 F   0  0  0  0  0  0  0  0  0  0  0  0
  151.4172  143.9860  159.5090 F   0  0  0  0  0  0  0  0  0  0  0  0
  149.7990  141.6539  155.8635 C   0  0  0  0  0  0  0  0  0  0  0  0
  147.7476  140.8561  154.0079 H   0  0  0  0  0  0  0  0  0  0  0  0
  146.9543  138.0626  154.5999 H   0  0  0  0  0  0  0  0  0  0  0  0
  145.8772  139.4360  154.3977 H   0  0  0  0  0  0  0  0  0  0  0  0
  146.1895  139.4685  151.9927 H   0  0  0  0  0  0  0  0  0  0  0  0
  147.5724  138.4036  152.0740 H   0  0  0  0  0  0  0  0  0  0  0  0
  143.9819  138.2173  153.4041 H   0  0  0  0  0  0  0  0  0  0  0  0
  142.5863  136.1781  153.0343 H   0  0  0  0  0  0  0  0  0  0  0  0
  143.5457  134.2500  151.7576 H   0  0  0  0  0  0  0  0  0  0  0  0
  145.9427  134.4508  150.8733 H   0  0  0  0  0  0  0  0  0  0  0  0
  150.3005  141.1001  153.8377 H   0  0  0  0  0  0  0  0  0  0  0  0
  151.5839  138.9462  155.2650 H   0  0  0  0  0  0  0  0  0  0  0  0
  152.3473  140.3938  154.6047 H   0  0  0  0  0  0  0  0  0  0  0  0
  149.6081  142.6561  158.2327 H   0  0  0  0  0  0  0  0  0  0  0  0
  150.6212  141.4874  159.0367 H   0  0  0  0  0  0  0  0  0  0  0  0
  149.8947  142.6625  155.4591 H   0  0  0  0  0  0  0  0  0  0  0  0
  148.7763  141.5421  156.2279 H   0  0  0  0  0  0  0  0  0  0  0  0
  147.1258  136.3955  151.2865 H   0  0  0  0  0  0  0  0  0  0  0  0
  1  2  2  0  0  0  0
  2  3  1  0  0  0  0
  2 12  1  0  0  0  0
  3  4  1  0  0  0  0
  3 23  1  0  0  0  0
  4  5  1  0  0  0  0
  4 24  1  0  0  0  0
  4 25  1  0  0  0  0
  5  6  1  0  0  0  0
  5 26  1  0  0  0  0
  5 27  1  0  0  0  0
  6 11  1  0  0  0  0
  6  7  2  0  0  0  0
  7  8  1  0  0  0  0
  7 28  1  0  0  0  0
  8  9  2  0  0  0  0
  8 29  1  0  0  0  0
  9 10  1  0  0  0  0
  9 30  1  0  0  0  0
 10 11  2  0  0  0  0
 10 31  1  0  0  0  0
 11 39  1  0  0  0  0
 12 22  1  0  0  0  0
 12 13  1  0  0  0  0
 12 32  1  0  0  0  0
 13 14  1  0  0  0  0
 13 33  1  0  0  0  0
 13 34  1  0  0  0  0
 14 15  2  0  0  0  0
 14 16  1  0  0  0  0
 16 17  1  0  0  0  0
 16 22  1  0  0  0  0
 17 18  1  0  0  0  0
 17 35  1  0  0  0  0
 17 36  1  0  0  0  0
 18 19  1  0  0  0  0
 18 20  1  0  0  0  0
 18 21  1  0  0  0  0
 22 37  1  0  0  0  0
 22 38  1  0  0  0  0
M  CHG  1  11   1
M  END
> <s_m_source_file>
AV-unprocessed.smi

> <i_m_source_file_index>
1682

> <i_lp_mmshare_version>
43012

> <i_f3d_flags>
0

> <s_epik_input>
RkMoRikoRilbQ0gyXU4oW0NIMl0xKUMoPU8pW0NIMl1bQ0BIXTFDKD1PKVtOSF1bQ0gyXVtDSDJdYzJbY0hdW2NIXVtjSF1bY0hdbjI=

> <s_epik_cmdline>
J2VwaWtfcHl0aG9uJywgJy1waCcsICc3LjAnLCAnLXRuJywgJzgnLCAnLW1hJywgJzIwMCcsICctbWV0YWxfYmluZGluZycsICctaW1hZScsICc8aW5maWxlLm1hZT4nLCAnLW9tYWUnLCAnPG91dGZpbGUubWFlPic=

> <r_epik_Ionization_Penalty>
1.88249

> <r_epik_Ionization_Penalty_Charging>
1.88249

> <r_epik_Ionization_Penalty_Neutral>
2.8664e-08

> <r_epik_State_Penalty>
2.00238

> <r_epik_Charging_Adjusted_Penalty>
3.88487

> <i_epik_Tot_Q>
1

> <i_epik_Tot_abs_Q>
1

> <r_epik_Metal_State_Penalty>
2.02677

> <b_epik_Metal_Only>
0

> <s_lp_Force_Field>
OPLS_2005

> <r_lp_Energy>
22.1056

> <b_lp_Chiralities_Consistent>
1

> <s_lp_Variant>
AV-unprocessed.smi:1682-3

> <Gold.Version>
5.8.1

> <Gold.Id.Protein>
6NUR|6NUR_protein|mol2

> <Gold.PLP.Fitness>
49.6913

> <Gold.PLP.PLP>
-41.3580

> <Gold.PLP.part.hbond>
-2.0000

> <Gold.PLP.part.metal>
0.0000

> <Gold.PLP.part.buried>
-1.2287

> <Gold.PLP.part.nonpolar>
-38.5300

> <Gold.PLP.part.repulsive>
0.2184

> <Gold.PLP.ligand.clash>
0.0000

> <Gold.PLP.ligand.torsion>
0.3367

> <Gold.PLP.Chemscore.Hbond>
2.9760

> <Gold.PLP.Chemscore.CHOScore>
0.0000

> <Gold.PLP.Chemscore.Metal>
0.0000

> <Gold.Chemscore.Hbonds>
donor molecule, donor type, donor heavy atom, donor atom, acceptor molecule, acceptor atom, score
      L1  H    11    39       P1  7948  1.70
      P1  H  7997  8009       L1    15  0.99

> <Gold.PLP.Chemscore.Internal.Correction>
0.0787

> <Gold.Rescore>
     Score         DG    S(hbond)    S(metal)    S(lipo)     H(rot)  DE(clash)    DE(int)     intcor
     12.18     -14.27       1.90        0.00      68.81       2.19       0.13       1.97       ----

> <Gold.Chemscore.Fitness>
12.1772

> <Gold.Chemscore.DG>
-14.2728

> <Gold.Chemscore.ZeroCoef>
-5.4800

> <Gold.Chemscore.Hbond>
1.9033

> <Gold.Chemscore.Metal>
0.0000

> <Gold.Chemscore.Lipo>
68.8053

> <Gold.Chemscore.Internal_Hbond>
0.0000

> <Gold.Chemscore.DEClash>
0.1283

> <Gold.Chemscore.DEInternal>
1.9673

> <Gold.Chemscore.Rot>
2.1932

> <Gold.Chemscore.Internal.Correction>
   9.000000E+99

> <Gold.Chemscore.Hbonds>
donor molecule, donor type, donor heavy atom, donor atom, acceptor molecule, acceptor atom, score
      L1  H    11    39       P1  7948  0.85
      P1  H  7997  8009       L1    15  0.92

> <Gold.Chemscore.Hbond.Weighted>
-6.3571

> <Gold.Chemscore.Metal.Weighted>
-0.0000

> <Gold.Chemscore.Lipo.Weighted>
-8.0502

> <Gold.Chemscore.Internal_Hbond.Weighted>
0.0000

> <Gold.Chemscore.DEClash.Weighted>
0.1283

> <Gold.Chemscore.DEInternal.Weighted>
1.9673

> <Gold.Chemscore.Rot.Weighted>
5.6145

> <Gold.Chemscore.Internal.Correction.Weighted>
   9.000000E+99

> <Gold.Protein.RotatedTorsions>
[ 6907 6896 6895 6894 ] final  -20.32 input  -60.11 | X-H torsion
[ 7974 7965 7964 7962 ] final  110.39 input  175.53 | X-H torsion
[ 8008 7997 7996 7995 ] final  172.77 input   59.86 | X-H torsion
[ 10167 10162 10161 10158 ] final  -60.56 input  -65.29 | X-H torsion
[ 10718 10713 10712 10709 ] final -118.98 input   66.30 | X-H torsion
[ 10763 10752 10751 10750 ] final  -36.11 input  -60.55 | X-H torsion
[ 11005 11000 10999 10996 ] final  -87.11 input  -57.11 | X-H torsion

> <Gold.Protein.ActiveResidues>
 VAL166  LYS551  ARG553  GLY616  TRP617  ASP618  TYR619  PRO620  LYS621  CYS622 
 ASP623  PHE694  ASN695  SER759  ASP760  ASP761  ALA762  ILE779  LEU786  VAL792 
 PHE793  MET794  SER795  GLU796  ALA797  LYS798  CYS799  TRP800  GLU811  SER814 

> <Gold.Protein.RotatedAtoms>
  151.2499  135.0618  159.9057 H   0  0  0  0  0  0  0  0  0  0  0  0  # atno 6907 bound_to 6896
  152.5381  134.0343  159.8049 H   0  0  0  0  0  0  0  0  0  0  0  0  # atno 6908 bound_to 6896
  151.0550  133.5543  159.2670 H   0  0  0  0  0  0  0  0  0  0  0  0  # atno 6909 bound_to 6896
  145.2556  139.2722  143.4044 H   0  0  0  0  0  0  0  0  0  0  0  0  # atno 7974 bound_to 7965
  156.1142  140.1477  156.9296 H   0  0  0  0  0  0  0  0  0  0  0  0  # atno 8008 bound_to 7997
  154.4788  140.0886  156.7371 H   0  0  0  0  0  0  0  0  0  0  0  0  # atno 8009 bound_to 7997
  155.4543  140.3436  155.4307 H   0  0  0  0  0  0  0  0  0  0  0  0  # atno 8010 bound_to 7997
  140.6063  143.2374  151.5814 H   0  0  0  0  0  0  0  0  0  0  0  0  # atno 10167 bound_to 10162
  156.1147  130.6276  150.9359 H   0  0  0  0  0  0  0  0  0  0  0  0  # atno 10718 bound_to 10713
  153.8743  135.6828  153.4772 H   0  0  0  0  0  0  0  0  0  0  0  0  # atno 10763 bound_to 10752
  153.1269  135.4715  154.9285 H   0  0  0  0  0  0  0  0  0  0  0  0  # atno 10764 bound_to 10752
  154.7699  135.3235  154.8161 H   0  0  0  0  0  0  0  0  0  0  0  0  # atno 10765 bound_to 10752
  141.1621  133.7492  156.9258 H   0  0  0  0  0  0  0  0  0  0  0  0  # atno 11005 bound_to 11000
  146.3290  140.2959  142.8618 LP  0  0  0  0  0  0  0  0  0  0  0  0  # atno 17320 bound_to 7965
  144.9464  140.8132  143.5599 LP  0  0  0  0  0  0  0  0  0  0  0  0  # atno 17321 bound_to 7965
  139.5327  144.2869  152.1184 LP  0  0  0  0  0  0  0  0  0  0  0  0  # atno 17342 bound_to 10162
  140.2059  144.4611  150.6409 LP  0  0  0  0  0  0  0  0  0  0  0  0  # atno 17343 bound_to 10162
  157.6329  131.0919  150.8405 LP  0  0  0  0  0  0  0  0  0  0  0  0  # atno 17370 bound_to 10713
  156.8510  130.5080  149.5312 LP  0  0  0  0  0  0  0  0  0  0  0  0  # atno 17371 bound_to 10713
  140.1420  134.9287  157.2479 LP  0  0  0  0  0  0  0  0  0  0  0  0  # atno 17394 bound_to 11000
  140.2825  134.3333  155.7339 LP  0  0  0  0  0  0  0  0  0  0  0  0  # atno 17395 bound_to 11000

$$$$
