AV-unprocessed.smi:2136|AV-procd|sdf|8703|dock3
  -GOLD-   2272011463D 1   1.00000     0.00000
 Structure written by MMmdl.
 42 43  0  0  0  0  0  0  0  0  1 V2000
  141.4068  134.4889  153.2143 C   0  0  0  0  0  0  0  0  0  0  0  0
  142.8698  135.3790  153.8879 S   0  0  0  0  0  0  0  0  0  0  0  0
  142.8145  136.7704  153.4157 O   0  0  0  0  0  0  0  0  0  0  0  0
  142.9360  135.1200  155.3344 O   0  0  0  0  0  0  0  0  0  0  0  0
  144.2170  134.5487  153.1300 N   0  0  0  0  0  0  0  0  0  0  0  0
  143.8255  133.6360  152.0274 C   0  0  0  0  0  0  0  0  0  0  0  0
  144.9638  132.7187  151.5655 C   0  0  0  0  0  0  0  0  0  0  0  0
  146.1797  133.5402  151.1561 C   0  0  0  0  0  0  0  0  0  0  0  0
  146.6266  134.3575  152.3638 C   0  0  0  0  0  0  0  0  0  0  0  0
  145.5078  135.2798  152.9084 C   0  0  2  0  0  0  0  0  0  0  0  0
  146.0825  136.0435  154.1107 C   0  0  0  0  0  0  0  0  0  0  0  0
  145.3761  136.2546  155.0964 O   0  0  0  0  0  0  0  0  0  0  0  0
  147.3587  136.4517  154.0176 N   0  0  0  0  0  0  0  0  0  0  0  0
  148.0842  137.1733  155.0546 C   0  0  0  0  0  0  0  0  0  0  0  0
  148.6920  138.4785  154.5161 C   0  0  0  0  0  0  0  0  0  0  0  0
  150.1888  138.5443  154.7432 C   0  0  0  0  0  0  0  0  0  0  0  0
  150.7751  139.6412  155.4076 C   0  0  0  0  0  0  0  0  0  0  0  0
  152.1716  139.6564  155.5881 C   0  0  0  0  0  0  0  0  0  0  0  0
  152.9235  138.5712  155.0948 C   0  0  0  0  0  0  0  0  0  0  0  0
  152.3726  137.5161  154.4569 N   0  0  0  0  0  0  0  0  0  0  0  0
  151.0328  137.5091  154.2881 C   0  0  0  0  0  0  0  0  0  0  0  0
  140.5007  134.8990  153.6593 H   0  0  0  0  0  0  0  0  0  0  0  0
  141.4762  133.4286  153.4536 H   0  0  0  0  0  0  0  0  0  0  0  0
  141.3636  134.6186  152.1332 H   0  0  0  0  0  0  0  0  0  0  0  0
  142.9907  133.0111  152.3440 H   0  0  0  0  0  0  0  0  0  0  0  0
  143.4697  134.2322  151.1866 H   0  0  0  0  0  0  0  0  0  0  0  0
  145.2303  132.0264  152.3652 H   0  0  0  0  0  0  0  0  0  0  0  0
  144.6288  132.1085  150.7262 H   0  0  0  0  0  0  0  0  0  0  0  0
  146.9855  132.8853  150.8233 H   0  0  0  0  0  0  0  0  0  0  0  0
  145.9344  134.1970  150.3205 H   0  0  0  0  0  0  0  0  0  0  0  0
  146.9620  133.6719  153.1442 H   0  0  0  0  0  0  0  0  0  0  0  0
  147.4996  134.9513  152.0880 H   0  0  0  0  0  0  0  0  0  0  0  0
  145.3090  136.0247  152.1364 H   0  0  0  0  0  0  0  0  0  0  0  0
  147.8673  136.2261  153.1750 H   0  0  0  0  0  0  0  0  0  0  0  0
  147.4217  137.3753  155.8982 H   0  0  0  0  0  0  0  0  0  0  0  0
  148.8742  136.5219  155.4294 H   0  0  0  0  0  0  0  0  0  0  0  0
  148.4862  138.5758  153.4491 H   0  0  0  0  0  0  0  0  0  0  0  0
  148.2293  139.3408  154.9982 H   0  0  0  0  0  0  0  0  0  0  0  0
  150.1679  140.4573  155.7711 H   0  0  0  0  0  0  0  0  0  0  0  0
  152.6553  140.4801  156.0921 H   0  0  0  0  0  0  0  0  0  0  0  0
  153.9964  138.5503  155.2156 H   0  0  0  0  0  0  0  0  0  0  0  0
  150.6223  136.6533  153.7727 H   0  0  0  0  0  0  0  0  0  0  0  0
  1  2  1  0  0  0  0
  1 22  1  0  0  0  0
  1 23  1  0  0  0  0
  1 24  1  0  0  0  0
  2  3  2  0  0  0  0
  2  4  2  0  0  0  0
  2  5  1  0  0  0  0
  5 10  1  0  0  0  0
  5  6  1  0  0  0  0
  6  7  1  0  0  0  0
  6 25  1  0  0  0  0
  6 26  1  0  0  0  0
  7  8  1  0  0  0  0
  7 27  1  0  0  0  0
  7 28  1  0  0  0  0
  8  9  1  0  0  0  0
  8 29  1  0  0  0  0
  8 30  1  0  0  0  0
  9 10  1  0  0  0  0
  9 31  1  0  0  0  0
  9 32  1  0  0  0  0
 10 11  1  0  0  0  0
 10 33  1  0  0  0  0
 11 12  2  0  0  0  0
 11 13  1  0  0  0  0
 13 14  1  0  0  0  0
 13 34  1  0  0  0  0
 14 15  1  0  0  0  0
 14 35  1  0  0  0  0
 14 36  1  0  0  0  0
 15 16  1  0  0  0  0
 15 37  1  0  0  0  0
 15 38  1  0  0  0  0
 16 21  1  0  0  0  0
 16 17  2  0  0  0  0
 17 18  1  0  0  0  0
 17 39  1  0  0  0  0
 18 19  2  0  0  0  0
 18 40  1  0  0  0  0
 19 20  1  0  0  0  0
 19 41  1  0  0  0  0
 20 21  2  0  0  0  0
 21 42  1  0  0  0  0
M  END
> <s_m_source_file>
AV-unprocessed.smi

> <i_m_source_file_index>
2136

> <i_lp_mmshare_version>
43012

> <i_f3d_flags>
0

> <s_epik_input>
W0NIM11TKD1PKSg9TylOMVtDSDJdW0NIMl1bQ0gyXVtDSDJdW0NASF0xQyg9TylbTkhdW0NIMl1bQ0gyXWMyW2NIXVtjSF1bY0hdbltjSF0y

> <s_epik_cmdline>
J2VwaWtfcHl0aG9uJywgJy1waCcsICc3LjAnLCAnLXRuJywgJzgnLCAnLW1hJywgJzIwMCcsICctbWV0YWxfYmluZGluZycsICctaW1hZScsICc8aW5maWxlLm1hZT4nLCAnLW9tYWUnLCAnPG91dGZpbGUubWFlPic=

> <r_epik_Ionization_Penalty>
0.0126915

> <r_epik_Ionization_Penalty_Charging>
0

> <r_epik_Ionization_Penalty_Neutral>
0.0126915

> <r_epik_State_Penalty>
0.0098379

> <r_epik_Charging_Adjusted_Penalty>
0.0098379

> <i_epik_Tot_Q>
0

> <i_epik_Tot_abs_Q>
0

> <r_epik_Metal_State_Penalty>
0.00962913

> <b_epik_Metal_Only>
0

> <s_lp_Force_Field>
OPLS_2005

> <r_lp_Energy>
2.71494

> <b_lp_Chiralities_Consistent>
1

> <s_lp_Variant>
AV-unprocessed.smi:2136-2

> <Gold.Version>
5.8.1

> <Gold.Id.Protein>
6NUR|6NUR_protein|mol2

> <Gold.PLP.Fitness>
38.0514

> <Gold.PLP.PLP>
-32.5025

> <Gold.PLP.part.hbond>
-2.8384

> <Gold.PLP.part.metal>
0.0000

> <Gold.PLP.part.buried>
-2.3069

> <Gold.PLP.part.nonpolar>
-28.1278

> <Gold.PLP.part.repulsive>
0.4109

> <Gold.PLP.ligand.clash>
0.0000

> <Gold.PLP.ligand.torsion>
1.6152

> <Gold.PLP.Chemscore.Hbond>
1.6978

> <Gold.PLP.Chemscore.CHOScore>
0.9786

> <Gold.PLP.Chemscore.Metal>
0.0000

> <Gold.Chemscore.Hbonds>
donor molecule, donor type, donor heavy atom, donor atom, acceptor molecule, acceptor atom, score
      L1  H    13    34       P1  7948  1.00
      P1  H 10752 10765       L1    20  0.69
      L1  C    21    42       P1  7948  0.41
      L1  C    21    42       P1  7949  0.55

> <Gold.PLP.Chemscore.Internal.Correction>
0.7502

> <Gold.Rescore>
     Score         DG    S(hbond)    S(metal)    S(lipo)     H(rot)  DE(clash)    DE(int)     intcor
     11.03     -15.46       1.71        0.00      76.74       1.84       0.07       4.36       ----

> <Gold.Chemscore.Fitness>
11.0311

> <Gold.Chemscore.DG>
-15.4648

> <Gold.Chemscore.ZeroCoef>
-5.4800

> <Gold.Chemscore.Hbond>
1.7131

> <Gold.Chemscore.Metal>
0.0000

> <Gold.Chemscore.Lipo>
76.7381

> <Gold.Chemscore.Internal_Hbond>
0.0000

> <Gold.Chemscore.DEClash>
0.0709

> <Gold.Chemscore.DEInternal>
4.3629

> <Gold.Chemscore.Rot>
1.8419

> <Gold.Chemscore.Internal.Correction>
   9.000000E+99

> <Gold.Chemscore.Hbonds>
donor molecule, donor type, donor heavy atom, donor atom, acceptor molecule, acceptor atom, score
      L1  H    13    34       P1  7948  1.00
      P1  H 10752 10765       L1    20  0.42

> <Gold.Chemscore.Hbond.Weighted>
-5.7218

> <Gold.Chemscore.Metal.Weighted>
-0.0000

> <Gold.Chemscore.Lipo.Weighted>
-8.9784

> <Gold.Chemscore.Internal_Hbond.Weighted>
0.0000

> <Gold.Chemscore.DEClash.Weighted>
0.0709

> <Gold.Chemscore.DEInternal.Weighted>
4.3629

> <Gold.Chemscore.Rot.Weighted>
4.7153

> <Gold.Chemscore.Internal.Correction.Weighted>
   9.000000E+99

> <Gold.Protein.RotatedTorsions>
[ 6907 6896 6895 6894 ] final  172.42 input  -60.11 | X-H torsion
[ 7974 7965 7964 7962 ] final -141.37 input  175.53 | X-H torsion
[ 8008 7997 7996 7995 ] final -164.09 input   59.86 | X-H torsion
[ 10167 10162 10161 10158 ] final  105.11 input  -65.29 | X-H torsion
[ 10718 10713 10712 10709 ] final   30.94 input   66.30 | X-H torsion
[ 10763 10752 10751 10750 ] final  158.20 input  -60.55 | X-H torsion
[ 11005 11000 10999 10996 ] final  -48.86 input  -57.11 | X-H torsion

> <Gold.Protein.ActiveResidues>
 VAL166  LYS551  ARG553  GLY616  TRP617  ASP618  TYR619  PRO620  LYS621  CYS622 
 ASP623  PHE694  ASN695  SER759  ASP760  ASP761  ALA762  ILE779  LEU786  VAL792 
 PHE793  MET794  SER795  GLU796  ALA797  LYS798  CYS799  TRP800  GLU811  SER814 

> <Gold.Protein.RotatedAtoms>
  151.7845  133.3353  159.3480 H   0  0  0  0  0  0  0  0  0  0  0  0  # atno 6907 bound_to 6896
  150.7414  134.5900  159.5992 H   0  0  0  0  0  0  0  0  0  0  0  0  # atno 6908 bound_to 6896
  152.3253  134.7330  160.0355 H   0  0  0  0  0  0  0  0  0  0  0  0  # atno 6909 bound_to 6896
  144.8524  140.6087  143.5381 H   0  0  0  0  0  0  0  0  0  0  0  0  # atno 7974 bound_to 7965
  155.8307  140.0933  157.1794 H   0  0  0  0  0  0  0  0  0  0  0  0  # atno 8008 bound_to 7997
  154.3980  140.1419  156.3671 H   0  0  0  0  0  0  0  0  0  0  0  0  # atno 8009 bound_to 7997
  155.8169  140.3447  155.5493 H   0  0  0  0  0  0  0  0  0  0  0  0  # atno 8010 bound_to 7997
  139.7120  144.7076  151.1012 H   0  0  0  0  0  0  0  0  0  0  0  0  # atno 10167 bound_to 10162
  157.2660  130.7184  149.6479 H   0  0  0  0  0  0  0  0  0  0  0  0  # atno 10718 bound_to 10713
  154.2124  135.2785  155.2954 H   0  0  0  0  0  0  0  0  0  0  0  0  # atno 10763 bound_to 10752
  154.5768  135.5601  153.7150 H   0  0  0  0  0  0  0  0  0  0  0  0  # atno 10764 bound_to 10752
  153.0061  135.6335  154.2263 H   0  0  0  0  0  0  0  0  0  0  0  0  # atno 10765 bound_to 10752
  141.0726  133.6675  156.3502 H   0  0  0  0  0  0  0  0  0  0  0  0  # atno 11005 bound_to 11000
  145.4473  139.1528  143.3938 LP  0  0  0  0  0  0  0  0  0  0  0  0  # atno 17320 bound_to 7965
  146.2796  140.4597  142.8782 LP  0  0  0  0  0  0  0  0  0  0  0  0  # atno 17321 bound_to 7965
  140.7735  143.5280  150.9456 LP  0  0  0  0  0  0  0  0  0  0  0  0  # atno 17342 bound_to 10162
  139.8965  143.6888  152.3138 LP  0  0  0  0  0  0  0  0  0  0  0  0  # atno 17343 bound_to 10162
  155.9663  130.4382  150.5209 LP  0  0  0  0  0  0  0  0  0  0  0  0  # atno 17370 bound_to 10713
  157.3123  131.0666  151.1992 LP  0  0  0  0  0  0  0  0  0  0  0  0  # atno 17371 bound_to 10713
  140.5642  134.5904  157.5441 LP  0  0  0  0  0  0  0  0  0  0  0  0  # atno 17394 bound_to 11000
  139.9538  134.7570  156.0387 LP  0  0  0  0  0  0  0  0  0  0  0  0  # atno 17395 bound_to 11000

$$$$
