AV-unprocessed.smi:69|AV-procd|sdf|645|dock9
  -GOLD-   2262016543D 1   1.00000     0.00000
 Structure written by MMmdl.
 32 34  0  0  0  0  0  0  0  0  1 V2000
  142.7766  138.4649  154.6480 N   0  0  0  0  0  0  0  0  0  0  0  0
  142.9262  137.3313  153.9488 C   0  0  0  0  0  0  0  0  0  0  0  0
  141.9579  136.3898  154.0369 N   0  0  0  0  0  0  0  0  0  0  0  0
  142.0832  135.2513  153.3479 C   0  0  0  0  0  0  0  0  0  0  0  0
  143.0740  134.8706  152.5372 N   0  0  0  0  0  0  0  0  0  0  0  0
  144.0510  135.8199  152.4476 C   0  0  0  0  0  0  0  0  0  0  0  0
  144.0491  137.0730  153.1223 C   0  0  0  0  0  0  0  0  0  0  0  0
  145.1956  137.7854  152.8012 N   0  0  0  0  0  0  0  0  0  0  0  0
  145.8337  136.9970  151.9789 C   0  0  0  0  0  0  0  0  0  0  0  0
  145.2223  135.7900  151.7141 N   0  0  0  0  0  0  0  0  0  0  0  0
  145.7161  134.7111  150.7984 C   0  0  2  0  0  0  0  0  0  0  0  0
  144.7416  134.4881  149.8218 O   0  0  0  0  0  0  0  0  0  0  0  0
  144.2328  133.1576  149.9066 C   0  0  1  0  0  0  0  0  0  0  0  0
  143.7671  132.6544  148.5287 C   0  0  0  0  0  0  0  0  0  0  0  0
  143.3526  133.7418  147.7294 O   0  0  0  0  0  0  0  0  0  0  0  0
  145.3848  132.3729  150.5471 C   0  0  1  0  0  0  0  0  0  0  0  0
  146.3367  131.9936  149.5647 O   0  0  0  0  0  0  0  0  0  0  0  0
  145.9442  133.3855  151.5413 C   0  0  1  0  0  0  0  0  0  0  0  0
  147.3042  133.1291  151.8402 O   0  0  0  0  0  0  0  0  0  0  0  0
  146.6146  135.1132  150.3278 H   0  0  0  0  0  0  0  0  0  0  0  0
  143.3930  133.1407  150.6012 H   0  0  0  0  0  0  0  0  0  0  0  0
  145.0317  131.4702  151.0470 H   0  0  0  0  0  0  0  0  0  0  0  0
  145.3559  133.3624  152.4587 H   0  0  0  0  0  0  0  0  0  0  0  0
  143.4851  139.1829  154.5987 H   0  0  0  0  0  0  0  0  0  0  0  0
  141.9543  138.6006  155.2180 H   0  0  0  0  0  0  0  0  0  0  0  0
  141.2751  134.5440  153.4622 H   0  0  0  0  0  0  0  0  0  0  0  0
  146.7786  137.2792  151.5376 H   0  0  0  0  0  0  0  0  0  0  0  0
  144.5526  132.0919  148.0232 H   0  0  0  0  0  0  0  0  0  0  0  0
  142.9104  131.9893  148.6417 H   0  0  0  0  0  0  0  0  0  0  0  0
  144.1123  134.1071  147.3022 H   0  0  0  0  0  0  0  0  0  0  0  0
  147.1105  131.6794  150.0080 H   0  0  0  0  0  0  0  0  0  0  0  0
  147.6203  132.4651  151.2468 H   0  0  0  0  0  0  0  0  0  0  0  0
  1  2  1  0  0  0  0
  1 24  1  0  0  0  0
  1 25  1  0  0  0  0
  2  7  1  0  0  0  0
  2  3  2  0  0  0  0
  3  4  1  0  0  0  0
  4  5  2  0  0  0  0
  4 26  1  0  0  0  0
  5  6  1  0  0  0  0
  6 10  1  0  0  0  0
  6  7  2  0  0  0  0
  7  8  1  0  0  0  0
  8  9  2  0  0  0  0
  9 10  1  0  0  0  0
  9 27  1  0  0  0  0
 10 11  1  0  0  0  0
 11 20  1  0  0  0  0
 11 18  1  0  0  0  0
 11 12  1  0  0  0  0
 12 13  1  0  0  0  0
 13 21  1  0  0  0  0
 13 14  1  0  0  0  0
 13 16  1  0  0  0  0
 14 15  1  0  0  0  0
 14 28  1  0  0  0  0
 14 29  1  0  0  0  0
 15 30  1  0  0  0  0
 16 22  1  0  0  0  0
 16 17  1  0  0  0  0
 16 18  1  0  0  0  0
 17 31  1  0  0  0  0
 18 23  1  0  0  0  0
 18 19  1  0  0  0  0
 19 32  1  0  0  0  0
M  END
> <s_m_source_file>
AV-unprocessed.smi

> <i_m_source_file_index>
69

> <i_lp_mmshare_version>
43012

> <i_f3d_flags>
0

> <s_epik_input>
bjFbY0hdbmMoW05IMl0pYyhjMTIpbltjSF1uMltDQEBIXTNPW0NASF0oW0NIMl1bT0hdKVtDQEBIXShbT0hdKVtDQEhdM1tPSF0=

> <s_epik_cmdline>
J2VwaWtfcHl0aG9uJywgJy1waCcsICc3LjAnLCAnLXRuJywgJzgnLCAnLW1hJywgJzIwMCcsICctbWV0YWxfYmluZGluZycsICctaW1hZScsICc8aW5maWxlLm1hZT4nLCAnLW9tYWUnLCAnPG91dGZpbGUubWFlPic=

> <r_lp_tautomer_probability>
1

> <r_epik_Ionization_Penalty>
0.000428445

> <r_epik_Ionization_Penalty_Charging>
0

> <r_epik_Ionization_Penalty_Neutral>
0.000428445

> <r_epik_State_Penalty>
-0

> <r_epik_Charging_Adjusted_Penalty>
0

> <i_epik_Tot_Q>
0

> <i_epik_Tot_abs_Q>
0

> <r_epik_Metal_State_Penalty>
-0

> <b_epik_Metal_Only>
0

> <s_epik_Chemistry_Notes>
This compound contains an acetal/aminal-like group ( X-CH(R)-Y where X, Y are N, S, or O) that may be acid/base labile, releasing an aldehyde.

> <s_lp_Force_Field>
OPLS_2005

> <r_lp_Energy>
42.3633

> <b_lp_Chiralities_Consistent>
1

> <s_lp_Variant>
AV-unprocessed.smi:69-3

> <Gold.Version>
5.8.1

> <Gold.Id.Protein>
6NUR|6NUR_protein|mol2

> <Gold.PLP.Fitness>
44.1616

> <Gold.PLP.PLP>
-32.6182

> <Gold.PLP.part.hbond>
-5.9828

> <Gold.PLP.part.metal>
0.0000

> <Gold.PLP.part.buried>
-7.2230

> <Gold.PLP.part.nonpolar>
-22.8898

> <Gold.PLP.part.repulsive>
4.4894

> <Gold.PLP.ligand.clash>
0.0000

> <Gold.PLP.ligand.torsion>
0.4361

> <Gold.PLP.Chemscore.Hbond>
3.1360

> <Gold.PLP.Chemscore.CHOScore>
1.0000

> <Gold.PLP.Chemscore.Metal>
0.0000

> <Gold.Chemscore.Hbonds>
donor molecule, donor type, donor heavy atom, donor atom, acceptor molecule, acceptor atom, score
      L1  H    15    30       P1  7921  0.70
      L1  H    17    31       P1 10747  0.98
      L1  H    19    32       P1 10747  0.29
      P1  H 10192 10197       L1    15  0.85
      L1  C     9    27       P1  7948  0.98

> <Gold.PLP.Chemscore.Internal.Correction>
0.0075

> <Gold.Rescore>
     Score         DG    S(hbond)    S(metal)    S(lipo)     H(rot)  DE(clash)    DE(int)     intcor
      9.39     -11.72       3.41        0.00      44.09       4.03       1.76       0.57       ----

> <Gold.Chemscore.Fitness>
9.3933

> <Gold.Chemscore.DG>
-11.7189

> <Gold.Chemscore.ZeroCoef>
-5.4800

> <Gold.Chemscore.Hbond>
3.4104

> <Gold.Chemscore.Metal>
0.0000

> <Gold.Chemscore.Lipo>
44.0944

> <Gold.Chemscore.Internal_Hbond>
0.0000

> <Gold.Chemscore.DEClash>
1.7550

> <Gold.Chemscore.DEInternal>
0.5705

> <Gold.Chemscore.Rot>
4.0277

> <Gold.Chemscore.Internal.Correction>
   9.000000E+99

> <Gold.Chemscore.Hbonds>
donor molecule, donor type, donor heavy atom, donor atom, acceptor molecule, acceptor atom, score
      L1  H     1    24       P1 10175  0.01
      L1  H    15    30       P1  7921  0.66
      L1  H    17    31       P1 10747  0.90
      L1  H    19    32       P1 10747  0.29
      P1  H 10192 10197       L1    15  0.14

> <Gold.Chemscore.Hbond.Weighted>
-11.3908

> <Gold.Chemscore.Metal.Weighted>
-0.0000

> <Gold.Chemscore.Lipo.Weighted>
-5.1590

> <Gold.Chemscore.Internal_Hbond.Weighted>
0.0000

> <Gold.Chemscore.DEClash.Weighted>
1.7550

> <Gold.Chemscore.DEInternal.Weighted>
0.5705

> <Gold.Chemscore.Rot.Weighted>
10.3110

> <Gold.Chemscore.Internal.Correction.Weighted>
   9.000000E+99

> <Gold.Protein.RotatedTorsions>
[ 6907 6896 6895 6894 ] final  -24.13 input  -60.11 | X-H torsion
[ 7974 7965 7964 7962 ] final   73.78 input  175.53 | X-H torsion
[ 8008 7997 7996 7995 ] final  147.72 input   59.86 | X-H torsion
[ 10167 10162 10161 10158 ] final  -88.54 input  -65.29 | X-H torsion
[ 10718 10713 10712 10709 ] final  117.63 input   66.30 | X-H torsion
[ 10763 10752 10751 10750 ] final  108.82 input  -60.55 | X-H torsion
[ 11005 11000 10999 10996 ] final   91.58 input  -57.11 | X-H torsion

> <Gold.Protein.ActiveResidues>
 VAL166  LYS551  ARG553  GLY616  TRP617  ASP618  TYR619  PRO620  LYS621  CYS622 
 ASP623  PHE694  ASN695  SER759  ASP760  ASP761  ALA762  ILE779  LEU786  VAL792 
 PHE793  MET794  SER795  GLU796  ALA797  LYS798  CYS799  TRP800  GLU811  SER814 

> <Gold.Protein.RotatedAtoms>
  151.1940  135.0414  159.8844 H   0  0  0  0  0  0  0  0  0  0  0  0  # atno 6907 bound_to 6896
  152.5437  134.0925  159.8293 H   0  0  0  0  0  0  0  0  0  0  0  0  # atno 6908 bound_to 6896
  151.1057  133.5163  159.2640 H   0  0  0  0  0  0  0  0  0  0  0  0  # atno 6909 bound_to 6896
  145.7365  139.2704  143.1511 H   0  0  0  0  0  0  0  0  0  0  0  0  # atno 7974 bound_to 7965
  156.2815  140.2148  156.5583 H   0  0  0  0  0  0  0  0  0  0  0  0  # atno 8008 bound_to 7997
  154.7234  140.0501  157.0683 H   0  0  0  0  0  0  0  0  0  0  0  0  # atno 8009 bound_to 7997
  155.0448  140.3150  155.4715 H   0  0  0  0  0  0  0  0  0  0  0  0  # atno 8010 bound_to 7997
  140.3737  143.2782  151.9470 H   0  0  0  0  0  0  0  0  0  0  0  0  # atno 10167 bound_to 10162
  157.6083  131.1039  150.7643 H   0  0  0  0  0  0  0  0  0  0  0  0  # atno 10718 bound_to 10713
  153.4260  135.3800  155.2141 H   0  0  0  0  0  0  0  0  0  0  0  0  # atno 10763 bound_to 10752
  154.8747  135.3828  154.4325 H   0  0  0  0  0  0  0  0  0  0  0  0  # atno 10764 bound_to 10752
  153.4852  135.7088  153.5978 H   0  0  0  0  0  0  0  0  0  0  0  0  # atno 10765 bound_to 10752
  139.8836  134.8683  156.3449 H   0  0  0  0  0  0  0  0  0  0  0  0  # atno 11005 bound_to 11000
  146.0488  140.8091  142.9792 LP  0  0  0  0  0  0  0  0  0  0  0  0  # atno 17320 bound_to 7965
  144.6880  140.3021  143.7261 LP  0  0  0  0  0  0  0  0  0  0  0  0  # atno 17321 bound_to 7965
  139.4801  144.5884  151.7815 LP  0  0  0  0  0  0  0  0  0  0  0  0  # atno 17342 bound_to 10162
  140.5008  144.1172  150.5970 LP  0  0  0  0  0  0  0  0  0  0  0  0  # atno 17343 bound_to 10162
  156.8026  130.4926  149.5367 LP  0  0  0  0  0  0  0  0  0  0  0  0  # atno 17370 bound_to 10713
  156.1177  130.6087  151.0146 LP  0  0  0  0  0  0  0  0  0  0  0  0  # atno 17371 bound_to 10713
  140.9633  133.7374  156.0432 LP  0  0  0  0  0  0  0  0  0  0  0  0  # atno 17394 bound_to 11000
  140.7962  134.3561  157.5452 LP  0  0  0  0  0  0  0  0  0  0  0  0  # atno 17395 bound_to 11000

$$$$
