AV-unprocessed.smi:3098|AV-procd|sdf|11801|dock3
  -GOLD-   2272017173D 1   1.00000     0.00000
 Structure written by MMmdl.
 29 30  0  0  0  0  0  0  0  0  1 V2000
  149.4510  138.4813  153.4228 N   0  0  0  0  0  0  0  0  0  0  0  0
  150.7659  138.2955  154.0034 C   0  0  0  0  0  0  0  0  0  0  0  0
  151.0177  139.2209  155.1761 C   0  0  0  0  0  0  0  0  0  0  0  0
  152.2424  139.1928  155.8725 C   0  0  0  0  0  0  0  0  0  0  0  0
  152.5155  139.9947  156.9233 N   0  0  0  0  0  0  0  0  0  0  0  0
  151.5695  140.8729  157.3405 C   0  0  0  0  0  0  0  0  0  0  0  0
  151.8646  141.6919  158.4491 N   0  0  0  0  0  0  0  0  0  0  0  0
  152.9925  141.2346  159.2545 C   0  0  0  0  0  0  0  0  0  0  0  0
  153.0563  142.0232  160.5739 C   0  0  0  0  0  0  0  0  0  0  0  0
  153.1082  143.4199  160.2984 O   0  0  0  0  0  0  0  0  0  0  0  0
  151.9548  143.8666  159.5925 C   0  0  0  0  0  0  0  0  0  0  0  0
  151.8625  143.1377  158.2413 C   0  0  0  0  0  0  0  0  0  0  0  0
  150.3123  140.9765  156.6959 C   0  0  0  0  0  0  0  0  0  0  0  0
  149.3862  141.8786  157.1025 F   0  0  0  0  0  0  0  0  0  0  0  0
  150.0350  140.1369  155.6001 C   0  0  0  0  0  0  0  0  0  0  0  0
  149.5185  139.1099  152.6349 H   0  0  0  0  0  0  0  0  0  0  0  0
  149.1237  137.6020  153.0485 H   0  0  0  0  0  0  0  0  0  0  0  0
  150.8722  137.2571  154.3184 H   0  0  0  0  0  0  0  0  0  0  0  0
  151.5208  138.4746  153.2372 H   0  0  0  0  0  0  0  0  0  0  0  0
  153.0258  138.5082  155.5821 H   0  0  0  0  0  0  0  0  0  0  0  0
  152.9217  140.1693  159.4710 H   0  0  0  0  0  0  0  0  0  0  0  0
  153.9130  141.3813  158.6881 H   0  0  0  0  0  0  0  0  0  0  0  0
  152.1938  141.7978  161.2033 H   0  0  0  0  0  0  0  0  0  0  0  0
  153.9447  141.7396  161.1382 H   0  0  0  0  0  0  0  0  0  0  0  0
  151.0587  143.6934  160.1908 H   0  0  0  0  0  0  0  0  0  0  0  0
  152.0293  144.9426  159.4344 H   0  0  0  0  0  0  0  0  0  0  0  0
  152.7086  143.4176  157.6120 H   0  0  0  0  0  0  0  0  0  0  0  0
  150.9531  143.4395  157.7200 H   0  0  0  0  0  0  0  0  0  0  0  0
  149.0837  140.1980  155.0924 H   0  0  0  0  0  0  0  0  0  0  0  0
  1  2  1  0  0  0  0
  1 16  1  0  0  0  0
  1 17  1  0  0  0  0
  2  3  1  0  0  0  0
  2 18  1  0  0  0  0
  2 19  1  0  0  0  0
  3 15  1  0  0  0  0
  3  4  2  0  0  0  0
  4  5  1  0  0  0  0
  4 20  1  0  0  0  0
  5  6  2  0  0  0  0
  6  7  1  0  0  0  0
  6 13  1  0  0  0  0
  7 12  1  0  0  0  0
  7  8  1  0  0  0  0
  8  9  1  0  0  0  0
  8 21  1  0  0  0  0
  8 22  1  0  0  0  0
  9 10  1  0  0  0  0
  9 23  1  0  0  0  0
  9 24  1  0  0  0  0
 10 11  1  0  0  0  0
 11 12  1  0  0  0  0
 11 25  1  0  0  0  0
 11 26  1  0  0  0  0
 12 27  1  0  0  0  0
 12 28  1  0  0  0  0
 13 14  1  0  0  0  0
 13 15  2  0  0  0  0
 15 29  1  0  0  0  0
M  END
> <s_m_source_file>
AV-unprocessed.smi

> <i_m_source_file_index>
3098

> <i_lp_mmshare_version>
43012

> <i_f3d_flags>
0

> <s_epik_input>
W05IMl1bQ0gyXWMxW2NIXW5jKGMoRilbY0hdMSlOMltDSDJdW0NIMl1PW0NIMl1bQ0gyXTI=

> <s_epik_cmdline>
J2VwaWtfcHl0aG9uJywgJy1waCcsICc3LjAnLCAnLXRuJywgJzgnLCAnLW1hJywgJzIwMCcsICctbWV0YWxfYmluZGluZycsICctaW1hZScsICc8aW5maWxlLm1hZT4nLCAnLW9tYWUnLCAnPG91dGZpbGUubWFlPic=

> <r_lp_tautomer_probability>
1

> <r_epik_Ionization_Penalty>
1.30159

> <r_epik_Ionization_Penalty_Charging>
0

> <r_epik_Ionization_Penalty_Neutral>
1.30159

> <r_epik_State_Penalty>
1.37556

> <r_epik_Charging_Adjusted_Penalty>
1.37556

> <i_epik_Tot_Q>
0

> <i_epik_Tot_abs_Q>
0

> <r_epik_Metal_State_Penalty>
1.37554

> <b_epik_Metal_Only>
0

> <s_lp_Force_Field>
OPLS_2005

> <r_lp_Energy>
18.215

> <b_lp_Chiralities_Consistent>
1

> <s_lp_Variant>
AV-unprocessed.smi:3098-2

> <Gold.Version>
5.8.1

> <Gold.Id.Protein>
6NUR|6NUR_protein|mol2

> <Gold.PLP.Fitness>
40.0587

> <Gold.PLP.PLP>
-31.2696

> <Gold.PLP.part.hbond>
-3.0000

> <Gold.PLP.part.metal>
0.0000

> <Gold.PLP.part.buried>
-3.8793

> <Gold.PLP.part.nonpolar>
-25.2185

> <Gold.PLP.part.repulsive>
0.0000

> <Gold.PLP.ligand.clash>
0.0000

> <Gold.PLP.ligand.torsion>
0.2309

> <Gold.PLP.Chemscore.Hbond>
3.0000

> <Gold.PLP.Chemscore.CHOScore>
0.0000

> <Gold.PLP.Chemscore.Metal>
0.0000

> <Gold.Chemscore.Hbonds>
donor molecule, donor type, donor heavy atom, donor atom, acceptor molecule, acceptor atom, score
      L1  H     1    16       P1  7957  1.00
      L1  H     1    17       P1  7948  1.00
      P1  H  7997  8010       L1     5  0.99

> <Gold.PLP.Chemscore.Internal.Correction>
0.2508

> <Gold.Rescore>
     Score         DG    S(hbond)    S(metal)    S(lipo)     H(rot)  DE(clash)    DE(int)     intcor
     19.64     -20.24       2.69        0.00      78.04       1.32       0.22       0.39       ----

> <Gold.Chemscore.Fitness>
19.6375

> <Gold.Chemscore.DG>
-20.2420

> <Gold.Chemscore.ZeroCoef>
-5.4800

> <Gold.Chemscore.Hbond>
2.6939

> <Gold.Chemscore.Metal>
0.0000

> <Gold.Chemscore.Lipo>
78.0429

> <Gold.Chemscore.Internal_Hbond>
0.0000

> <Gold.Chemscore.DEClash>
0.2153

> <Gold.Chemscore.DEInternal>
0.3892

> <Gold.Chemscore.Rot>
1.3151

> <Gold.Chemscore.Internal.Correction>
   9.000000E+99

> <Gold.Chemscore.Hbonds>
donor molecule, donor type, donor heavy atom, donor atom, acceptor molecule, acceptor atom, score
      L1  H     1    16       P1  7957  0.97
      L1  H     1    17       P1  7948  0.98
      P1  H  7997  8010       L1     5  0.24

> <Gold.Chemscore.Hbond.Weighted>
-8.9976

> <Gold.Chemscore.Metal.Weighted>
-0.0000

> <Gold.Chemscore.Lipo.Weighted>
-9.1310

> <Gold.Chemscore.Internal_Hbond.Weighted>
0.0000

> <Gold.Chemscore.DEClash.Weighted>
0.2153

> <Gold.Chemscore.DEInternal.Weighted>
0.3892

> <Gold.Chemscore.Rot.Weighted>
3.3666

> <Gold.Chemscore.Internal.Correction.Weighted>
   9.000000E+99

> <Gold.Protein.RotatedTorsions>
[ 6907 6896 6895 6894 ] final   32.91 input  -60.11 | X-H torsion
[ 7974 7965 7964 7962 ] final  -89.78 input  175.53 | X-H torsion
[ 8008 7997 7996 7995 ] final   49.61 input   59.86 | X-H torsion
[ 10167 10162 10161 10158 ] final  -58.52 input  -65.29 | X-H torsion
[ 10718 10713 10712 10709 ] final  -48.91 input   66.30 | X-H torsion
[ 10763 10752 10751 10750 ] final  -49.05 input  -60.55 | X-H torsion
[ 11005 11000 10999 10996 ] final  134.33 input  -57.11 | X-H torsion

> <Gold.Protein.ActiveResidues>
 VAL166  LYS551  ARG553  GLY616  TRP617  ASP618  TYR619  PRO620  LYS621  CYS622 
 ASP623  PHE694  ASN695  SER759  ASP760  ASP761  ALA762  ILE779  LEU786  VAL792 
 PHE793  MET794  SER795  GLU796  ALA797  LYS798  CYS799  TRP800  GLU811  SER814 

> <Gold.Protein.RotatedAtoms>
  152.0810  134.9471  160.0573 H   0  0  0  0  0  0  0  0  0  0  0  0  # atno 6907 bound_to 6896
  152.0759  133.4124  159.4488 H   0  0  0  0  0  0  0  0  0  0  0  0  # atno 6908 bound_to 6896
  150.6836  134.2958  159.4729 H   0  0  0  0  0  0  0  0  0  0  0  0  # atno 6909 bound_to 6896
  145.4353  140.9557  143.2105 H   0  0  0  0  0  0  0  0  0  0  0  0  # atno 7974 bound_to 7965
  155.4051  140.3439  155.4259 H   0  0  0  0  0  0  0  0  0  0  0  0  # atno 8008 bound_to 7997
  156.1481  140.1562  156.8846 H   0  0  0  0  0  0  0  0  0  0  0  0  # atno 8009 bound_to 7997
  154.5028  140.0810  156.7814 H   0  0  0  0  0  0  0  0  0  0  0  0  # atno 8010 bound_to 7997
  140.6192  143.2413  151.5522 H   0  0  0  0  0  0  0  0  0  0  0  0  # atno 10167 bound_to 10162
  156.1943  130.4154  149.9328 H   0  0  0  0  0  0  0  0  0  0  0  0  # atno 10718 bound_to 10713
  154.0878  135.6582  153.4847 H   0  0  0  0  0  0  0  0  0  0  0  0  # atno 10763 bound_to 10752
  153.0332  135.5195  154.7410 H   0  0  0  0  0  0  0  0  0  0  0  0  # atno 10764 bound_to 10752
  154.6525  135.3003  154.9937 H   0  0  0  0  0  0  0  0  0  0  0  0  # atno 10765 bound_to 10752
  139.9908  134.9515  156.9851 H   0  0  0  0  0  0  0  0  0  0  0  0  # atno 11005 bound_to 11000
  144.8156  139.5882  143.7010 LP  0  0  0  0  0  0  0  0  0  0  0  0  # atno 17320 bound_to 7965
  146.2585  139.6357  142.9378 LP  0  0  0  0  0  0  0  0  0  0  0  0  # atno 17321 bound_to 7965
  139.5424  144.2611  152.1377 LP  0  0  0  0  0  0  0  0  0  0  0  0  # atno 17342 bound_to 10162
  140.1828  144.4828  150.6519 LP  0  0  0  0  0  0  0  0  0  0  0  0  # atno 17343 bound_to 10162
  156.7058  130.8951  151.3604 LP  0  0  0  0  0  0  0  0  0  0  0  0  # atno 17370 bound_to 10713
  157.6948  130.9270  150.0613 LP  0  0  0  0  0  0  0  0  0  0  0  0  # atno 17371 bound_to 10713
  140.4912  134.1191  155.7233 LP  0  0  0  0  0  0  0  0  0  0  0  0  # atno 17394 bound_to 11000
  141.1564  133.8875  157.1966 LP  0  0  0  0  0  0  0  0  0  0  0  0  # atno 17395 bound_to 11000

$$$$
