AV-unprocessed.smi:2186|AV-procd|sdf|8876|dock7
  -GOLD-   2272012 73D 1   1.00000     0.00000
 Structure written by MMmdl.
 43 44  0  0  0  0  0  0  0  0  1 V2000
  152.6892  144.6281  157.5480 C   0  0  0  0  0  0  0  0  0  0  0  0
  151.9501  144.1426  158.8035 C   0  0  0  0  0  0  0  0  0  0  0  0
  151.8572  145.2135  159.9001 C   0  0  0  0  0  0  0  0  0  0  0  0
  152.5087  142.8541  159.3197 C   0  0  0  0  0  0  0  0  0  0  0  0
  152.5708  141.7313  158.5976 N   0  0  0  0  0  0  0  0  0  0  0  0
  153.1203  140.6592  159.3085 C   0  0  0  0  0  0  0  0  0  0  0  0
  153.2519  139.3145  158.6546 C   0  0  0  0  0  0  0  0  0  0  0  0
  154.6216  138.7115  158.9691 C   0  0  0  0  0  0  0  0  0  0  0  0
  155.6468  139.2839  158.5999 O   0  0  0  0  0  0  0  0  0  0  0  0
  154.6242  137.5591  159.6574 N   0  0  0  0  0  0  0  0  0  0  0  0
  155.8178  136.8491  160.0973 C   0  0  0  0  0  0  0  0  0  0  0  0
  155.4733  135.4162  160.5440 C   0  0  0  0  0  0  0  0  0  0  0  0
  155.2840  135.2479  161.9834 N   0  0  0  0  0  0  0  0  0  0  0  0
  154.8626  133.8871  162.2988 C   0  0  0  0  0  0  0  0  0  0  0  0
  154.6598  133.6840  163.8101 C   0  0  0  0  0  0  0  0  0  0  0  0
  153.7071  134.6259  164.2916 O   0  0  0  0  0  0  0  0  0  0  0  0
  154.0956  135.9733  164.0442 C   0  0  0  0  0  0  0  0  0  0  0  0
  154.3072  136.1852  162.5346 C   0  0  0  0  0  0  0  0  0  0  0  0
  153.4891  140.9929  160.5882 C   0  0  0  0  0  0  0  0  0  0  0  0
  153.1479  142.6626  160.9488 S   0  0  0  0  0  0  0  0  0  0  0  0
  152.6628  143.8730  156.7616 H   0  0  0  0  0  0  0  0  0  0  0  0
  153.7353  144.8485  157.7632 H   0  0  0  0  0  0  0  0  0  0  0  0
  152.2342  145.5356  157.1507 H   0  0  0  0  0  0  0  0  0  0  0  0
  150.9260  143.9307  158.4942 H   0  0  0  0  0  0  0  0  0  0  0  0
  151.2539  144.8645  160.7387 H   0  0  0  0  0  0  0  0  0  0  0  0
  151.3977  146.1261  159.5202 H   0  0  0  0  0  0  0  0  0  0  0  0
  152.8436  145.4744  160.2849 H   0  0  0  0  0  0  0  0  0  0  0  0
  152.4690  138.6354  158.9954 H   0  0  0  0  0  0  0  0  0  0  0  0
  153.1353  139.4005  157.5736 H   0  0  0  0  0  0  0  0  0  0  0  0
  153.7335  137.1642  159.9233 H   0  0  0  0  0  0  0  0  0  0  0  0
  156.5202  136.8191  159.2641 H   0  0  0  0  0  0  0  0  0  0  0  0
  156.3024  137.4124  160.8955 H   0  0  0  0  0  0  0  0  0  0  0  0
  154.5853  135.0675  160.0144 H   0  0  0  0  0  0  0  0  0  0  0  0
  156.2881  134.7666  160.2203 H   0  0  0  0  0  0  0  0  0  0  0  0
  153.9320  133.6577  161.7773 H   0  0  0  0  0  0  0  0  0  0  0  0
  155.6058  133.1756  161.9375 H   0  0  0  0  0  0  0  0  0  0  0  0
  154.2998  132.6751  164.0129 H   0  0  0  0  0  0  0  0  0  0  0  0
  155.6026  133.8025  164.3462 H   0  0  0  0  0  0  0  0  0  0  0  0
  153.3193  136.6421  164.4160 H   0  0  0  0  0  0  0  0  0  0  0  0
  155.0078  136.2027  164.5971 H   0  0  0  0  0  0  0  0  0  0  0  0
  154.6314  137.2123  162.3711 H   0  0  0  0  0  0  0  0  0  0  0  0
  153.3528  136.0717  162.0178 H   0  0  0  0  0  0  0  0  0  0  0  0
  153.9342  140.3574  161.3394 H   0  0  0  0  0  0  0  0  0  0  0  0
  1  2  1  0  0  0  0
  1 21  1  0  0  0  0
  1 22  1  0  0  0  0
  1 23  1  0  0  0  0
  2  3  1  0  0  0  0
  2  4  1  0  0  0  0
  2 24  1  0  0  0  0
  3 25  1  0  0  0  0
  3 26  1  0  0  0  0
  3 27  1  0  0  0  0
  4 20  1  0  0  0  0
  4  5  2  0  0  0  0
  5  6  1  0  0  0  0
  6  7  1  0  0  0  0
  6 19  2  0  0  0  0
  7  8  1  0  0  0  0
  7 28  1  0  0  0  0
  7 29  1  0  0  0  0
  8  9  2  0  0  0  0
  8 10  1  0  0  0  0
 10 11  1  0  0  0  0
 10 30  1  0  0  0  0
 11 12  1  0  0  0  0
 11 31  1  0  0  0  0
 11 32  1  0  0  0  0
 12 13  1  0  0  0  0
 12 33  1  0  0  0  0
 12 34  1  0  0  0  0
 13 18  1  0  0  0  0
 13 14  1  0  0  0  0
 14 15  1  0  0  0  0
 14 35  1  0  0  0  0
 14 36  1  0  0  0  0
 15 16  1  0  0  0  0
 15 37  1  0  0  0  0
 15 38  1  0  0  0  0
 16 17  1  0  0  0  0
 17 18  1  0  0  0  0
 17 39  1  0  0  0  0
 17 40  1  0  0  0  0
 18 41  1  0  0  0  0
 18 42  1  0  0  0  0
 19 20  1  0  0  0  0
 19 43  1  0  0  0  0
M  END
> <s_m_source_file>
AV-unprocessed.smi

> <i_m_source_file_index>
2186

> <i_lp_mmshare_version>
43012

> <i_f3d_flags>
0

> <s_epik_input>
W0NIM11bQ0hdKFtDSDNdKWMxbmMoW2NIXXMxKVtDSDJdQyg9TylbTkhdW0NIMl1bQ0gyXU4yW0NIMl1bQ0gyXU9bQ0gyXVtDSDJdMg==

> <s_epik_cmdline>
J2VwaWtfcHl0aG9uJywgJy1waCcsICc3LjAnLCAnLXRuJywgJzgnLCAnLW1hJywgJzIwMCcsICctbWV0YWxfYmluZGluZycsICctaW1hZScsICc8aW5maWxlLm1hZT4nLCAnLW9tYWUnLCAnPG91dGZpbGUubWFlPic=

> <r_epik_Ionization_Penalty>
0.226788

> <r_epik_Ionization_Penalty_Charging>
0

> <r_epik_Ionization_Penalty_Neutral>
0.226788

> <r_epik_State_Penalty>
0.21727

> <r_epik_Charging_Adjusted_Penalty>
0.21727

> <i_epik_Tot_Q>
0

> <i_epik_Tot_abs_Q>
0

> <r_epik_Metal_State_Penalty>
0.217263

> <b_epik_Metal_Only>
0

> <s_lp_Force_Field>
OPLS_2005

> <r_lp_Energy>
12.6153

> <b_lp_Chiralities_Consistent>
1

> <s_lp_Variant>
AV-unprocessed.smi:2186-1

> <Gold.Version>
5.8.1

> <Gold.Id.Protein>
6NUR|6NUR_protein|mol2

> <Gold.PLP.Fitness>
42.9824

> <Gold.PLP.PLP>
-41.0996

> <Gold.PLP.part.hbond>
-0.8659

> <Gold.PLP.part.metal>
0.0000

> <Gold.PLP.part.buried>
-5.7700

> <Gold.PLP.part.nonpolar>
-35.0960

> <Gold.PLP.part.repulsive>
0.1556

> <Gold.PLP.ligand.clash>
0.0000

> <Gold.PLP.ligand.torsion>
0.6121

> <Gold.PLP.Chemscore.Hbond>
1.0000

> <Gold.PLP.Chemscore.CHOScore>
0.0000

> <Gold.PLP.Chemscore.Metal>
0.0000

> <Gold.Chemscore.Hbonds>
donor molecule, donor type, donor heavy atom, donor atom, acceptor molecule, acceptor atom, score
      P1  H  7997  8010       L1     9  0.81

> <Gold.PLP.Chemscore.Internal.Correction>
0.1071

> <Gold.Rescore>
     Score         DG    S(hbond)    S(metal)    S(lipo)     H(rot)  DE(clash)    DE(int)     intcor
     17.52     -18.22       1.00        0.00     118.14       1.73       0.04       0.66       ----

> <Gold.Chemscore.Fitness>
17.5190

> <Gold.Chemscore.DG>
-18.2231

> <Gold.Chemscore.ZeroCoef>
-5.4800

> <Gold.Chemscore.Hbond>
0.9995

> <Gold.Chemscore.Metal>
0.0000

> <Gold.Chemscore.Lipo>
118.1443

> <Gold.Chemscore.Internal_Hbond>
0.0000

> <Gold.Chemscore.DEClash>
0.0437

> <Gold.Chemscore.DEInternal>
0.6604

> <Gold.Chemscore.Rot>
1.7259

> <Gold.Chemscore.Internal.Correction>
   9.000000E+99

> <Gold.Chemscore.Hbonds>
donor molecule, donor type, donor heavy atom, donor atom, acceptor molecule, acceptor atom, score
      P1  H  7997  8010       L1     9  0.69

> <Gold.Chemscore.Hbond.Weighted>
-3.3384

> <Gold.Chemscore.Metal.Weighted>
-0.0000

> <Gold.Chemscore.Lipo.Weighted>
-13.8229

> <Gold.Chemscore.Internal_Hbond.Weighted>
0.0000

> <Gold.Chemscore.DEClash.Weighted>
0.0437

> <Gold.Chemscore.DEInternal.Weighted>
0.6604

> <Gold.Chemscore.Rot.Weighted>
4.4182

> <Gold.Chemscore.Internal.Correction.Weighted>
   9.000000E+99

> <Gold.Protein.RotatedTorsions>
[ 6907 6896 6895 6894 ] final  -34.82 input  -60.11 | X-H torsion
[ 7974 7965 7964 7962 ] final  122.12 input  175.53 | X-H torsion
[ 8008 7997 7996 7995 ] final  -21.02 input   59.86 | X-H torsion
[ 10167 10162 10161 10158 ] final  -23.28 input  -65.29 | X-H torsion
[ 10718 10713 10712 10709 ] final   27.42 input   66.30 | X-H torsion
[ 10763 10752 10751 10750 ] final -140.38 input  -60.55 | X-H torsion
[ 11005 11000 10999 10996 ] final   60.43 input  -57.11 | X-H torsion

> <Gold.Protein.ActiveResidues>
 VAL166  LYS551  ARG553  GLY616  TRP617  ASP618  TYR619  PRO620  LYS621  CYS622 
 ASP623  PHE694  ASN695  SER759  ASP760  ASP761  ALA762  ILE779  LEU786  VAL792 
 PHE793  MET794  SER795  GLU796  ALA797  LYS798  CYS799  TRP800  GLU811  SER814 

> <Gold.Protein.RotatedAtoms>
  151.0477  134.9651  159.8194 H   0  0  0  0  0  0  0  0  0  0  0  0  # atno 6907 bound_to 6896
  152.5375  134.2577  159.8933 H   0  0  0  0  0  0  0  0  0  0  0  0  # atno 6908 bound_to 6896
  151.2592  133.4268  159.2649 H   0  0  0  0  0  0  0  0  0  0  0  0  # atno 6909 bound_to 6896
  145.1113  139.3451  143.4761 H   0  0  0  0  0  0  0  0  0  0  0  0  # atno 7974 bound_to 7965
  154.4732  140.2046  155.9943 H   0  0  0  0  0  0  0  0  0  0  0  0  # atno 8008 bound_to 7997
  156.1046  140.3238  155.7958 H   0  0  0  0  0  0  0  0  0  0  0  0  # atno 8009 bound_to 7997
  155.4740  140.0533  157.2966 H   0  0  0  0  0  0  0  0  0  0  0  0  # atno 8010 bound_to 7997
  140.7288  143.4458  151.0590 H   0  0  0  0  0  0  0  0  0  0  0  0  # atno 10167 bound_to 10162
  157.2199  130.6974  149.6265 H   0  0  0  0  0  0  0  0  0  0  0  0  # atno 10718 bound_to 10713
  154.8580  135.3555  154.5699 H   0  0  0  0  0  0  0  0  0  0  0  0  # atno 10763 bound_to 10752
  153.6312  135.7002  153.5279 H   0  0  0  0  0  0  0  0  0  0  0  0  # atno 10764 bound_to 10752
  153.3048  135.4196  155.1244 H   0  0  0  0  0  0  0  0  0  0  0  0  # atno 10765 bound_to 10752
  140.0232  134.6121  155.9609 H   0  0  0  0  0  0  0  0  0  0  0  0  # atno 11005 bound_to 11000
  146.3526  140.1033  142.8607 LP  0  0  0  0  0  0  0  0  0  0  0  0  # atno 17320 bound_to 7965
  145.0843  140.9242  143.4806 LP  0  0  0  0  0  0  0  0  0  0  0  0  # atno 17321 bound_to 7965
  139.8129  143.7926  152.3172 LP  0  0  0  0  0  0  0  0  0  0  0  0  # atno 17342 bound_to 10162
  139.7982  144.7384  150.9861 LP  0  0  0  0  0  0  0  0  0  0  0  0  # atno 17343 bound_to 10162
  155.9683  130.4523  150.5769 LP  0  0  0  0  0  0  0  0  0  0  0  0  # atno 17370 bound_to 10713
  157.3586  131.0746  151.1655 LP  0  0  0  0  0  0  0  0  0  0  0  0  # atno 17371 bound_to 10713
  141.1787  133.6543  156.4931 LP  0  0  0  0  0  0  0  0  0  0  0  0  # atno 17394 bound_to 11000
  140.4351  134.7067  157.4962 LP  0  0  0  0  0  0  0  0  0  0  0  0  # atno 17395 bound_to 11000

$$$$
