AV-unprocessed.smi:1736|AV-procd|sdf|6990|dock9
  -GOLD-   22720 8203D 1   1.00000     0.00000
 Structure written by MMmdl.
 45 46  0  0  0  0  0  0  0  0  2 V2000
  145.5483  130.4338  151.5481 C   0  0  0  0  0  0  0  0  0  0  0  0
  146.5369  131.5190  151.3513 N   0  3  0  0  0  0  0  0  0  0  0  0
  146.9642  132.1781  152.6064 C   0  0  0  0  0  0  0  0  0  0  0  0
  145.8863  133.1474  153.1312 C   0  0  0  0  0  0  0  0  0  0  0  0
  145.5911  134.1821  152.1257 N   0  0  0  0  0  0  0  0  0  0  0  0
  144.7518  135.3070  152.6214 C   0  0  0  0  0  0  0  0  0  0  0  0
  144.6745  136.4170  151.5423 C   0  0  0  0  0  0  0  0  0  0  0  0
  143.3131  134.8464  152.9564 C   0  0  0  0  0  0  0  0  0  0  0  0
  145.3828  135.9347  153.8999 C   0  0  0  0  0  0  0  0  0  0  0  0
  146.6655  136.5907  153.6440 N   0  0  0  0  0  0  0  0  0  0  0  0
  147.1312  137.6762  154.2782 C   0  0  0  0  0  0  0  0  0  0  0  0
  146.5234  138.2558  155.1779 O   0  0  0  0  0  0  0  0  0  0  0  0
  148.3287  138.0437  153.7950 N   0  0  0  0  0  0  0  0  0  0  0  0
  149.1348  139.1239  154.2323 C   0  0  0  0  0  0  0  0  0  0  0  0
  150.5305  139.1488  154.5238 C   0  0  0  0  0  0  0  0  0  0  0  0
  150.9197  140.3589  154.9001 N   0  0  0  0  0  0  0  0  0  0  0  0
  149.7919  141.1030  154.8513 N   0  0  0  0  0  0  0  0  0  0  0  0
  148.6835  140.3915  154.4487 C   0  0  0  0  0  0  0  0  0  0  0  0
  145.0671  133.4971  150.9318 C   0  0  0  0  0  0  0  0  0  0  0  0
  146.1248  132.5341  150.3557 C   0  0  0  0  0  0  0  0  0  0  0  0
  149.7954  142.0839  155.0917 H   0  0  0  0  0  0  0  0  0  0  0  0
  144.6071  130.8065  151.9522 H   0  0  0  0  0  0  0  0  0  0  0  0
  145.9381  129.6825  152.2357 H   0  0  0  0  0  0  0  0  0  0  0  0
  145.3367  129.9355  150.6015 H   0  0  0  0  0  0  0  0  0  0  0  0
  147.2017  131.4260  153.3596 H   0  0  0  0  0  0  0  0  0  0  0  0
  147.8880  132.7268  152.4169 H   0  0  0  0  0  0  0  0  0  0  0  0
  144.9830  132.6005  153.4011 H   0  0  0  0  0  0  0  0  0  0  0  0
  146.2721  133.5874  154.0478 H   0  0  0  0  0  0  0  0  0  0  0  0
  144.2573  137.3366  151.9544 H   0  0  0  0  0  0  0  0  0  0  0  0
  144.0286  136.1452  150.7076 H   0  0  0  0  0  0  0  0  0  0  0  0
  145.6577  136.6619  151.1390 H   0  0  0  0  0  0  0  0  0  0  0  0
  142.7098  135.6900  153.2937 H   0  0  0  0  0  0  0  0  0  0  0  0
  143.2897  134.1076  153.7572 H   0  0  0  0  0  0  0  0  0  0  0  0
  142.8006  134.4214  152.0938 H   0  0  0  0  0  0  0  0  0  0  0  0
  144.6793  136.6394  154.3473 H   0  0  0  0  0  0  0  0  0  0  0  0
  145.5354  135.1879  154.6781 H   0  0  0  0  0  0  0  0  0  0  0  0
  147.2361  136.1911  152.9141 H   0  0  0  0  0  0  0  0  0  0  0  0
  148.7055  137.4909  153.0393 H   0  0  0  0  0  0  0  0  0  0  0  0
  151.2635  138.3572  154.4766 H   0  0  0  0  0  0  0  0  0  0  0  0
  147.7041  140.8368  154.3551 H   0  0  0  0  0  0  0  0  0  0  0  0
  144.1479  132.9596  151.1645 H   0  0  0  0  0  0  0  0  0  0  0  0
  144.8258  134.2068  150.1436 H   0  0  0  0  0  0  0  0  0  0  0  0
  147.0055  133.1006  150.0487 H   0  0  0  0  0  0  0  0  0  0  0  0
  145.7470  132.0432  149.4582 H   0  0  0  0  0  0  0  0  0  0  0  0
  147.3576  131.0671  150.9739 H   0  0  0  0  0  0  0  0  0  0  0  0
  1  2  1  0  0  0  0
  1 22  1  0  0  0  0
  1 23  1  0  0  0  0
  1 24  1  0  0  0  0
  2 20  1  0  0  0  0
  2  3  1  0  0  0  0
  2 45  1  0  0  0  0
  3  4  1  0  0  0  0
  3 25  1  0  0  0  0
  3 26  1  0  0  0  0
  4  5  1  0  0  0  0
  4 27  1  0  0  0  0
  4 28  1  0  0  0  0
  5  6  1  0  0  0  0
  5 19  1  0  0  0  0
  6  7  1  0  0  0  0
  6  8  1  0  0  0  0
  6  9  1  0  0  0  0
  7 29  1  0  0  0  0
  7 30  1  0  0  0  0
  7 31  1  0  0  0  0
  8 32  1  0  0  0  0
  8 33  1  0  0  0  0
  8 34  1  0  0  0  0
  9 10  1  0  0  0  0
  9 35  1  0  0  0  0
  9 36  1  0  0  0  0
 10 11  1  0  0  0  0
 10 37  1  0  0  0  0
 11 12  2  0  0  0  0
 11 13  1  0  0  0  0
 13 14  1  0  0  0  0
 13 38  1  0  0  0  0
 14 18  2  0  0  0  0
 14 15  1  0  0  0  0
 15 16  2  0  0  0  0
 15 39  1  0  0  0  0
 16 17  1  0  0  0  0
 17 21  1  0  0  0  0
 17 18  1  0  0  0  0
 18 40  1  0  0  0  0
 19 20  1  0  0  0  0
 19 41  1  0  0  0  0
 19 42  1  0  0  0  0
 20 43  1  0  0  0  0
 20 44  1  0  0  0  0
M  CHG  1   2   1
M  END
> <s_m_source_file>
AV-unprocessed.smi

> <i_m_source_file_index>
1736

> <i_lp_mmshare_version>
43012

> <i_f3d_flags>
0

> <s_epik_input>
W0NIM11OMVtDSDJdW0NIMl1OKFtDSDJdW0NIMl0xKUMoW0NIM10pKFtDSDNdKVtDSDJdW05IXUMoPU8pW05IXWMyW2NIXW5bbkhdW2NIXTI=

> <s_epik_cmdline>
J2VwaWtfcHl0aG9uJywgJy1waCcsICc3LjAnLCAnLXRuJywgJzgnLCAnLW1hJywgJzIwMCcsICctbWV0YWxfYmluZGluZycsICctaW1hZScsICc8aW5maWxlLm1hZT4nLCAnLW9tYWUnLCAnPG91dGZpbGUubWFlPic=

> <r_lp_tautomer_probability>
0.5

> <r_epik_Ionization_Penalty>
0.0248316

> <r_epik_Ionization_Penalty_Charging>
0.0238192

> <r_epik_Ionization_Penalty_Neutral>
0.00101244

> <r_epik_State_Penalty>
0.139266

> <r_epik_Charging_Adjusted_Penalty>
0.163085

> <i_epik_Tot_Q>
1

> <i_epik_Tot_abs_Q>
1

> <r_epik_Metal_State_Penalty>
0.139266

> <b_epik_Metal_Only>
0

> <s_lp_Force_Field>
OPLS_2005

> <r_lp_Energy>
29.1357

> <b_lp_Chiralities_Consistent>
1

> <s_lp_Variant>
AV-unprocessed.smi:1736-1

> <Gold.Version>
5.8.1

> <Gold.Id.Protein>
6NUR|6NUR_protein|mol2

> <Gold.PLP.Fitness>
38.3007

> <Gold.PLP.PLP>
-27.6256

> <Gold.PLP.part.hbond>
-4.0000

> <Gold.PLP.part.metal>
0.0000

> <Gold.PLP.part.buried>
-4.0757

> <Gold.PLP.part.nonpolar>
-20.9522

> <Gold.PLP.part.repulsive>
0.9162

> <Gold.PLP.ligand.clash>
0.0000

> <Gold.PLP.ligand.torsion>
0.6676

> <Gold.PLP.Chemscore.Hbond>
3.9920

> <Gold.PLP.Chemscore.CHOScore>
0.0000

> <Gold.PLP.Chemscore.Metal>
0.0000

> <Gold.Chemscore.Hbonds>
donor molecule, donor type, donor heavy atom, donor atom, acceptor molecule, acceptor atom, score
      L1  H     2    45       P1 10747  1.00
      L1  H    10    37       P1  7948  0.98
      L1  H    13    38       P1  7948  1.00
      P1  H  7989  7998       L1    16  0.95

> <Gold.PLP.Chemscore.Internal.Correction>
0.0343

> <Gold.Rescore>
     Score         DG    S(hbond)    S(metal)    S(lipo)     H(rot)  DE(clash)    DE(int)     intcor
     18.23     -19.24       2.92        0.00      69.94       1.63       0.32       0.68       ----

> <Gold.Chemscore.Fitness>
18.2319

> <Gold.Chemscore.DG>
-19.2370

> <Gold.Chemscore.ZeroCoef>
-5.4800

> <Gold.Chemscore.Hbond>
2.9157

> <Gold.Chemscore.Metal>
0.0000

> <Gold.Chemscore.Lipo>
69.9392

> <Gold.Chemscore.Internal_Hbond>
0.0000

> <Gold.Chemscore.DEClash>
0.3230

> <Gold.Chemscore.DEInternal>
0.6821

> <Gold.Chemscore.Rot>
1.6267

> <Gold.Chemscore.Internal.Correction>
   9.000000E+99

> <Gold.Chemscore.Hbonds>
donor molecule, donor type, donor heavy atom, donor atom, acceptor molecule, acceptor atom, score
      L1  H     2    45       P1 10747  1.00
      L1  H    10    37       P1  7948  0.89
      L1  H    13    38       P1  7948  1.00
      P1  H  7989  7998       L1    16  0.05

> <Gold.Chemscore.Hbond.Weighted>
-9.7386

> <Gold.Chemscore.Metal.Weighted>
-0.0000

> <Gold.Chemscore.Lipo.Weighted>
-8.1829

> <Gold.Chemscore.Internal_Hbond.Weighted>
0.0000

> <Gold.Chemscore.DEClash.Weighted>
0.3230

> <Gold.Chemscore.DEInternal.Weighted>
0.6821

> <Gold.Chemscore.Rot.Weighted>
4.1645

> <Gold.Chemscore.Internal.Correction.Weighted>
   9.000000E+99

> <Gold.Protein.RotatedTorsions>
[ 6907 6896 6895 6894 ] final -136.04 input  -60.11 | X-H torsion
[ 7974 7965 7964 7962 ] final   26.17 input  175.53 | X-H torsion
[ 8008 7997 7996 7995 ] final  114.62 input   59.86 | X-H torsion
[ 10167 10162 10161 10158 ] final -151.86 input  -65.29 | X-H torsion
[ 10718 10713 10712 10709 ] final -105.74 input   66.30 | X-H torsion
[ 10763 10752 10751 10750 ] final  125.46 input  -60.55 | X-H torsion
[ 11005 11000 10999 10996 ] final   28.41 input  -57.11 | X-H torsion

> <Gold.Protein.ActiveResidues>
 VAL166  LYS551  ARG553  GLY616  TRP617  ASP618  TYR619  PRO620  LYS621  CYS622 
 ASP623  PHE694  ASN695  SER759  ASP760  ASP761  ALA762  ILE779  LEU786  VAL792 
 PHE793  MET794  SER795  GLU796  ALA797  LYS798  CYS799  TRP800  GLU811  SER814 

> <Gold.Protein.RotatedAtoms>
  151.0053  133.6017  159.2689 H   0  0  0  0  0  0  0  0  0  0  0  0  # atno 6907 bound_to 6896
  151.3189  135.0812  159.9308 H   0  0  0  0  0  0  0  0  0  0  0  0  # atno 6908 bound_to 6896
  152.5285  133.9704  159.7813 H   0  0  0  0  0  0  0  0  0  0  0  0  # atno 6909 bound_to 6896
  146.1851  139.7364  142.8872 H   0  0  0  0  0  0  0  0  0  0  0  0  # atno 7974 bound_to 7965
  156.2332  140.2955  156.0244 H   0  0  0  0  0  0  0  0  0  0  0  0  # atno 8008 bound_to 7997
  155.2165  140.0414  157.2959 H   0  0  0  0  0  0  0  0  0  0  0  0  # atno 8009 bound_to 7997
  154.6033  140.2432  155.7771 H   0  0  0  0  0  0  0  0  0  0  0  0  # atno 8010 bound_to 7997
  139.7231  143.8926  152.2510 H   0  0  0  0  0  0  0  0  0  0  0  0  # atno 10167 bound_to 10162
  156.0359  130.5578  150.7582 H   0  0  0  0  0  0  0  0  0  0  0  0  # atno 10718 bound_to 10713
  153.6777  135.3319  155.3170 H   0  0  0  0  0  0  0  0  0  0  0  0  # atno 10763 bound_to 10752
  154.8474  135.4401  154.1639 H   0  0  0  0  0  0  0  0  0  0  0  0  # atno 10764 bound_to 10752
  153.2647  135.6994  153.7619 H   0  0  0  0  0  0  0  0  0  0  0  0  # atno 10765 bound_to 10752
  140.3159  134.2597  155.7725 H   0  0  0  0  0  0  0  0  0  0  0  0  # atno 11005 bound_to 11000
  145.3962  141.0379  143.3096 LP  0  0  0  0  0  0  0  0  0  0  0  0  # atno 17320 bound_to 7965
  144.8383  139.5514  143.6912 LP  0  0  0  0  0  0  0  0  0  0  0  0  # atno 17321 bound_to 7965
  139.8828  144.7008  150.8859 LP  0  0  0  0  0  0  0  0  0  0  0  0  # atno 17342 bound_to 10162
  140.7757  143.3648  151.1760 LP  0  0  0  0  0  0  0  0  0  0  0  0  # atno 17343 bound_to 10162
  157.5109  131.0925  151.0200 LP  0  0  0  0  0  0  0  0  0  0  0  0  # atno 17370 bound_to 10713
  157.0556  130.5804  149.5377 LP  0  0  0  0  0  0  0  0  0  0  0  0  # atno 17371 bound_to 10713
  141.2098  133.7739  156.9976 LP  0  0  0  0  0  0  0  0  0  0  0  0  # atno 17394 bound_to 11000
  140.0984  134.9550  157.1885 LP  0  0  0  0  0  0  0  0  0  0  0  0  # atno 17395 bound_to 11000

$$$$
