AV-unprocessed.smi:2439|AV-procd|sdf|9613|dock2
  -GOLD-   2272013243D 1   1.00000     0.00000
 Structure written by MMmdl.
 40 42  0  0  0  0  0  0  0  0  1 V2000
  153.9075  140.6505  161.0601 N   0  0  0  0  0  0  0  0  0  0  0  0
  153.3425  141.5573  160.6164 C   0  0  0  0  0  0  0  0  0  0  0  0
  152.6306  142.7002  160.0571 C   0  0  0  0  0  0  0  0  0  0  0  0
  152.7826  143.9634  160.6660 C   0  0  0  0  0  0  0  0  0  0  0  0
  152.0992  145.0703  160.1304 C   0  0  0  0  0  0  0  0  0  0  0  0
  151.2866  144.8678  159.0002 C   0  0  0  0  0  0  0  0  0  0  0  0
  151.1320  143.6655  158.4077 N   0  0  0  0  0  0  0  0  0  0  0  0
  151.7857  142.5935  158.9194 C   0  0  0  0  0  0  0  0  0  0  0  0
  151.6032  141.3543  158.2804 N   0  0  0  0  0  0  0  0  0  0  0  0
  150.4831  141.1315  157.3768 C   0  0  0  0  0  0  0  0  0  0  0  0
  150.8793  141.3972  155.9122 C   0  0  2  0  0  0  0  0  0  0  0  0
  149.7321  142.0027  155.0807 C   0  0  0  0  0  0  0  0  0  0  0  0
  148.6729  141.0417  154.7960 N   0  0  0  0  0  0  0  0  0  0  0  0
  147.6165  141.6478  153.9868 C   0  0  0  0  0  0  0  0  0  0  0  0
  146.4639  140.6732  153.6995 C   0  0  0  0  0  0  0  0  0  0  0  0
  146.9966  139.4081  153.0123 C   0  0  0  0  0  0  0  0  0  0  0  0
  148.1437  138.8041  153.8366 C   0  0  0  0  0  0  0  0  0  0  0  0
  149.2303  139.8590  154.1335 C   0  0  2  0  0  0  0  0  0  0  0  0
  150.3656  139.2394  154.9721 C   0  0  0  0  0  0  0  0  0  0  0  0
  151.3606  140.2177  155.2645 O   0  0  0  0  0  0  0  0  0  0  0  0
  153.4146  144.0884  161.5339 H   0  0  0  0  0  0  0  0  0  0  0  0
  152.1962  146.0499  160.5744 H   0  0  0  0  0  0  0  0  0  0  0  0
  150.7463  145.6925  158.5594 H   0  0  0  0  0  0  0  0  0  0  0  0
  152.1556  140.5587  158.5668 H   0  0  0  0  0  0  0  0  0  0  0  0
  150.1007  140.1184  157.5000 H   0  0  0  0  0  0  0  0  0  0  0  0
  149.6756  141.8071  157.6606 H   0  0  0  0  0  0  0  0  0  0  0  0
  151.7003  142.1154  155.9157 H   0  0  0  0  0  0  0  0  0  0  0  0
  149.3196  142.8676  155.6019 H   0  0  0  0  0  0  0  0  0  0  0  0
  150.1416  142.3779  154.1414 H   0  0  0  0  0  0  0  0  0  0  0  0
  147.2205  142.5252  154.4997 H   0  0  0  0  0  0  0  0  0  0  0  0
  148.0318  142.0042  153.0428 H   0  0  0  0  0  0  0  0  0  0  0  0
  145.9684  140.4058  154.6338 H   0  0  0  0  0  0  0  0  0  0  0  0
  145.7121  141.1536  153.0730 H   0  0  0  0  0  0  0  0  0  0  0  0
  146.1956  138.6795  152.8850 H   0  0  0  0  0  0  0  0  0  0  0  0
  147.3559  139.6580  152.0133 H   0  0  0  0  0  0  0  0  0  0  0  0
  147.7478  138.4088  154.7735 H   0  0  0  0  0  0  0  0  0  0  0  0
  148.5755  137.9579  153.3010 H   0  0  0  0  0  0  0  0  0  0  0  0
  149.6605  140.1698  153.1798 H   0  0  0  0  0  0  0  0  0  0  0  0
  149.9796  138.8076  155.8960 H   0  0  0  0  0  0  0  0  0  0  0  0
  150.8373  138.4240  154.4234 H   0  0  0  0  0  0  0  0  0  0  0  0
  1  2  3  0  0  0  0
  2  3  1  0  0  0  0
  3  8  1  0  0  0  0
  3  4  2  0  0  0  0
  4  5  1  0  0  0  0
  4 21  1  0  0  0  0
  5  6  2  0  0  0  0
  5 22  1  0  0  0  0
  6  7  1  0  0  0  0
  6 23  1  0  0  0  0
  7  8  2  0  0  0  0
  8  9  1  0  0  0  0
  9 10  1  0  0  0  0
  9 24  1  0  0  0  0
 10 11  1  0  0  0  0
 10 25  1  0  0  0  0
 10 26  1  0  0  0  0
 11 20  1  0  0  0  0
 11 12  1  0  0  0  0
 11 27  1  0  0  0  0
 12 13  1  0  0  0  0
 12 28  1  0  0  0  0
 12 29  1  0  0  0  0
 13 18  1  0  0  0  0
 13 14  1  0  0  0  0
 14 15  1  0  0  0  0
 14 30  1  0  0  0  0
 14 31  1  0  0  0  0
 15 16  1  0  0  0  0
 15 32  1  0  0  0  0
 15 33  1  0  0  0  0
 16 17  1  0  0  0  0
 16 34  1  0  0  0  0
 16 35  1  0  0  0  0
 17 18  1  0  0  0  0
 17 36  1  0  0  0  0
 17 37  1  0  0  0  0
 18 19  1  0  0  0  0
 18 38  1  0  0  0  0
 19 20  1  0  0  0  0
 19 39  1  0  0  0  0
 19 40  1  0  0  0  0
M  END
> <s_m_source_file>
AV-unprocessed.smi

> <i_m_source_file_index>
2439

> <i_lp_mmshare_version>
43012

> <i_f3d_flags>
0

> <s_epik_input>
TiNDYzFbY0hdW2NIXVtjSF1uYzFbTkhdW0NIMl1bQ0BIXShbQ0gyXTIpT1tDSDJdW0NAQEhdKE4yMylbQ0gyXVtDSDJdW0NIMl1bQ0gyXTM=

> <s_epik_cmdline>
J2VwaWtfcHl0aG9uJywgJy1waCcsICc3LjAnLCAnLXRuJywgJzgnLCAnLW1hJywgJzIwMCcsICctbWV0YWxfYmluZGluZycsICctaW1hZScsICc8aW5maWxlLm1hZT4nLCAnLW9tYWUnLCAnPG91dGZpbGUubWFlPic=

> <r_epik_Ionization_Penalty>
1.22355

> <r_epik_Ionization_Penalty_Charging>
0

> <r_epik_Ionization_Penalty_Neutral>
1.22355

> <r_epik_State_Penalty>
1.29103

> <r_epik_Charging_Adjusted_Penalty>
1.29103

> <i_epik_Tot_Q>
0

> <i_epik_Tot_abs_Q>
0

> <r_epik_Metal_State_Penalty>
1.29103

> <b_epik_Metal_Only>
0

> <s_lp_Force_Field>
OPLS_2005

> <r_lp_Energy>
40.6055

> <b_lp_Chiralities_Consistent>
1

> <s_lp_Variant>
AV-unprocessed.smi:2439-11

> <Gold.Version>
5.8.1

> <Gold.Id.Protein>
6NUR|6NUR_protein|mol2

> <Gold.PLP.Fitness>
43.8150

> <Gold.PLP.PLP>
-39.1846

> <Gold.PLP.part.hbond>
-1.0000

> <Gold.PLP.part.metal>
0.0000

> <Gold.PLP.part.buried>
-2.0708

> <Gold.PLP.part.nonpolar>
-36.7052

> <Gold.PLP.part.repulsive>
0.3708

> <Gold.PLP.ligand.clash>
0.0000

> <Gold.PLP.ligand.torsion>
0.6763

> <Gold.PLP.Chemscore.Hbond>
0.9920

> <Gold.PLP.Chemscore.CHOScore>
0.9991

> <Gold.PLP.Chemscore.Metal>
0.0000

> <Gold.Chemscore.Hbonds>
donor molecule, donor type, donor heavy atom, donor atom, acceptor molecule, acceptor atom, score
      P1  H  7989  7998       L1    20  0.95

> <Gold.PLP.Chemscore.Internal.Correction>
0.0095

> <Gold.Rescore>
     Score         DG    S(hbond)    S(metal)    S(lipo)     H(rot)  DE(clash)    DE(int)     intcor
     14.01     -15.58       0.48        0.00     100.07       1.25       1.08       0.50       ----

> <Gold.Chemscore.Fitness>
14.0078

> <Gold.Chemscore.DG>
-15.5835

> <Gold.Chemscore.ZeroCoef>
-5.4800

> <Gold.Chemscore.Hbond>
0.4765

> <Gold.Chemscore.Metal>
0.0000

> <Gold.Chemscore.Lipo>
100.0695

> <Gold.Chemscore.Internal_Hbond>
0.0000

> <Gold.Chemscore.DEClash>
1.0758

> <Gold.Chemscore.DEInternal>
0.4999

> <Gold.Chemscore.Rot>
1.2485

> <Gold.Chemscore.Internal.Correction>
   9.000000E+99

> <Gold.Chemscore.Hbonds>
donor molecule, donor type, donor heavy atom, donor atom, acceptor molecule, acceptor atom, score
      P1  H  7989  7998       L1    20  0.06

> <Gold.Chemscore.Hbond.Weighted>
-1.5915

> <Gold.Chemscore.Metal.Weighted>
-0.0000

> <Gold.Chemscore.Lipo.Weighted>
-11.7081

> <Gold.Chemscore.Internal_Hbond.Weighted>
0.0000

> <Gold.Chemscore.DEClash.Weighted>
1.0758

> <Gold.Chemscore.DEInternal.Weighted>
0.4999

> <Gold.Chemscore.Rot.Weighted>
3.1961

> <Gold.Chemscore.Internal.Correction.Weighted>
   9.000000E+99

> <Gold.Protein.RotatedTorsions>
[ 6907 6896 6895 6894 ] final   45.37 input  -60.11 | X-H torsion
[ 7974 7965 7964 7962 ] final   -1.44 input  175.53 | X-H torsion
[ 8008 7997 7996 7995 ] final  -45.93 input   59.86 | X-H torsion
[ 10167 10162 10161 10158 ] final  148.32 input  -65.29 | X-H torsion
[ 10718 10713 10712 10709 ] final  141.21 input   66.30 | X-H torsion
[ 10763 10752 10751 10750 ] final -156.85 input  -60.55 | X-H torsion
[ 11005 11000 10999 10996 ] final  161.42 input  -57.11 | X-H torsion

> <Gold.Protein.ActiveResidues>
 VAL166  LYS551  ARG553  GLY616  TRP617  ASP618  TYR619  PRO620  LYS621  CYS622 
 ASP623  PHE694  ASN695  SER759  ASP760  ASP761  ALA762  ILE779  LEU786  VAL792 
 PHE793  MET794  SER795  GLU796  ALA797  LYS798  CYS799  TRP800  GLU811  SER814 

> <Gold.Protein.RotatedAtoms>
  152.2438  134.8202  160.0456 H   0  0  0  0  0  0  0  0  0  0  0  0  # atno 6907 bound_to 6896
  151.8907  133.3510  159.3805 H   0  0  0  0  0  0  0  0  0  0  0  0  # atno 6908 bound_to 6896
  150.7062  134.4853  159.5534 H   0  0  0  0  0  0  0  0  0  0  0  0  # atno 6909 bound_to 6896
  146.2417  140.1420  142.8335 H   0  0  0  0  0  0  0  0  0  0  0  0  # atno 7974 bound_to 7965
  154.4004  140.1384  156.3928 H   0  0  0  0  0  0  0  0  0  0  0  0  # atno 8008 bound_to 7997
  155.7898  140.3479  155.5322 H   0  0  0  0  0  0  0  0  0  0  0  0  # atno 8009 bound_to 7997
  155.8591  140.0953  157.1615 H   0  0  0  0  0  0  0  0  0  0  0  0  # atno 8010 bound_to 7997
  139.4876  144.5688  151.7094 H   0  0  0  0  0  0  0  0  0  0  0  0  # atno 10167 bound_to 10162
  157.3946  131.1009  151.0613 H   0  0  0  0  0  0  0  0  0  0  0  0  # atno 10718 bound_to 10713
  154.7681  135.3137  154.8245 H   0  0  0  0  0  0  0  0  0  0  0  0  # atno 10763 bound_to 10752
  153.8988  135.6818  153.4760 H   0  0  0  0  0  0  0  0  0  0  0  0  # atno 10764 bound_to 10752
  153.1290  135.4788  154.9252 H   0  0  0  0  0  0  0  0  0  0  0  0  # atno 10765 bound_to 10752
  140.2156  134.8235  157.3167 H   0  0  0  0  0  0  0  0  0  0  0  0  # atno 11005 bound_to 11000
  145.0238  140.8815  143.5150 LP  0  0  0  0  0  0  0  0  0  0  0  0  # atno 17320 bound_to 7965
  145.1473  139.2535  143.5459 LP  0  0  0  0  0  0  0  0  0  0  0  0  # atno 17321 bound_to 7965
  140.5271  144.0788  150.6041 LP  0  0  0  0  0  0  0  0  0  0  0  0  # atno 17342 bound_to 10162
  140.3766  143.2825  152.0218 LP  0  0  0  0  0  0  0  0  0  0  0  0  # atno 17343 bound_to 10162
  157.1634  130.6235  149.5618 LP  0  0  0  0  0  0  0  0  0  0  0  0  # atno 17370 bound_to 10713
  155.9807  130.4809  150.6787 LP  0  0  0  0  0  0  0  0  0  0  0  0  # atno 17371 bound_to 10713
  140.1904  134.4379  155.7719 LP  0  0  0  0  0  0  0  0  0  0  0  0  # atno 17394 bound_to 11000
  141.2225  133.7024  156.8018 LP  0  0  0  0  0  0  0  0  0  0  0  0  # atno 17395 bound_to 11000

$$$$
