AV-unprocessed.smi:1865|AV-procd|sdf|7555|dock3
  -GOLD-   22720 9273D 1   1.00000     0.00000
 Structure written by MMmdl.
 41 42  0  0  0  0  0  0  0  0  2 V2000
  150.7878  140.4983  155.1042 O   0  0  0  0  0  0  0  0  0  0  0  0
  150.3111  141.5214  155.5961 C   0  0  0  0  0  0  0  0  0  0  0  0
  151.0175  142.2309  156.7551 C   0  0  0  0  0  0  0  0  0  0  0  0
  151.5325  141.2583  157.8333 C   0  0  0  0  0  0  0  0  0  0  0  0
  152.5304  141.9112  158.8066 C   0  0  0  0  0  0  0  0  0  0  0  0
  153.0651  140.9484  159.8687 C   0  0  0  0  0  0  0  0  0  0  0  0
  153.6380  141.8559  160.9603 C   0  0  0  0  0  0  0  0  0  0  0  0
  152.8472  143.1698  160.8774 C   0  0  0  0  0  0  0  0  0  0  0  0
  151.9452  143.0564  159.6412 C   0  0  0  0  0  0  0  0  0  0  0  0
  149.1626  142.0719  155.1729 N   0  0  0  0  0  0  0  0  0  0  0  0
  148.3211  141.5375  154.1086 C   0  0  0  0  0  0  0  0  0  0  0  0
  146.9066  141.2026  154.6107 C   0  0  0  0  0  0  0  0  0  0  0  0
  146.0167  142.4290  154.6632 C   0  0  0  0  0  0  0  0  0  0  0  0
  145.8921  143.2778  153.5412 C   0  0  0  0  0  0  0  0  0  0  0  0
  145.0609  144.4145  153.6234 C   0  0  0  0  0  0  0  0  0  0  0  0
  144.3734  144.6770  154.8262 C   0  0  0  0  0  0  0  0  0  0  0  0
  144.5178  143.8425  155.8791 N   0  3  0  0  0  0  0  0  0  0  0  0
  145.3037  142.7441  155.8405 C   0  0  0  0  0  0  0  0  0  0  0  0
  151.8510  142.8181  156.3662 H   0  0  0  0  0  0  0  0  0  0  0  0
  150.3141  142.9392  157.1935 H   0  0  0  0  0  0  0  0  0  0  0  0
  150.6947  140.8444  158.3967 H   0  0  0  0  0  0  0  0  0  0  0  0
  152.0192  140.4121  157.3460 H   0  0  0  0  0  0  0  0  0  0  0  0
  153.3823  142.2943  158.2422 H   0  0  0  0  0  0  0  0  0  0  0  0
  152.2470  140.3556  160.2805 H   0  0  0  0  0  0  0  0  0  0  0  0
  153.8078  140.2560  159.4714 H   0  0  0  0  0  0  0  0  0  0  0  0
  153.5722  141.3954  161.9465 H   0  0  0  0  0  0  0  0  0  0  0  0
  154.6922  142.0517  160.7609 H   0  0  0  0  0  0  0  0  0  0  0  0
  152.2529  143.3369  161.7764 H   0  0  0  0  0  0  0  0  0  0  0  0
  153.5318  144.0131  160.7790 H   0  0  0  0  0  0  0  0  0  0  0  0
  151.8904  143.9921  159.0839 H   0  0  0  0  0  0  0  0  0  0  0  0
  150.9322  142.8042  159.9578 H   0  0  0  0  0  0  0  0  0  0  0  0
  148.8410  142.9112  155.6334 H   0  0  0  0  0  0  0  0  0  0  0  0
  148.2764  142.2486  153.2818 H   0  0  0  0  0  0  0  0  0  0  0  0
  148.7994  140.6383  153.7189 H   0  0  0  0  0  0  0  0  0  0  0  0
  146.4471  140.4528  153.9649 H   0  0  0  0  0  0  0  0  0  0  0  0
  146.9513  140.7622  155.6077 H   0  0  0  0  0  0  0  0  0  0  0  0
  146.4281  143.0636  152.6280 H   0  0  0  0  0  0  0  0  0  0  0  0
  144.9535  145.0760  152.7761 H   0  0  0  0  0  0  0  0  0  0  0  0
  143.7184  145.5227  154.9769 H   0  0  0  0  0  0  0  0  0  0  0  0
  145.3400  142.1565  156.7466 H   0  0  0  0  0  0  0  0  0  0  0  0
  144.0123  144.0514  156.7406 H   0  0  0  0  0  0  0  0  0  0  0  0
  1  2  2  0  0  0  0
  2  3  1  0  0  0  0
  2 10  1  0  0  0  0
  3  4  1  0  0  0  0
  3 19  1  0  0  0  0
  3 20  1  0  0  0  0
  4  5  1  0  0  0  0
  4 21  1  0  0  0  0
  4 22  1  0  0  0  0
  5  9  1  0  0  0  0
  5  6  1  0  0  0  0
  5 23  1  0  0  0  0
  6  7  1  0  0  0  0
  6 24  1  0  0  0  0
  6 25  1  0  0  0  0
  7  8  1  0  0  0  0
  7 26  1  0  0  0  0
  7 27  1  0  0  0  0
  8  9  1  0  0  0  0
  8 28  1  0  0  0  0
  8 29  1  0  0  0  0
  9 30  1  0  0  0  0
  9 31  1  0  0  0  0
 10 11  1  0  0  0  0
 10 32  1  0  0  0  0
 11 12  1  0  0  0  0
 11 33  1  0  0  0  0
 11 34  1  0  0  0  0
 12 13  1  0  0  0  0
 12 35  1  0  0  0  0
 12 36  1  0  0  0  0
 13 18  1  0  0  0  0
 13 14  2  0  0  0  0
 14 15  1  0  0  0  0
 14 37  1  0  0  0  0
 15 16  2  0  0  0  0
 15 38  1  0  0  0  0
 16 17  1  0  0  0  0
 16 39  1  0  0  0  0
 17 18  2  0  0  0  0
 17 41  1  0  0  0  0
 18 40  1  0  0  0  0
M  CHG  1  17   1
M  END
> <s_m_source_file>
AV-unprocessed.smi

> <i_m_source_file_index>
1865

> <i_lp_mmshare_version>
43012

> <i_f3d_flags>
0

> <s_epik_input>
W0NIMl0xW0NIMl1bQ0gyXVtDSDJdW0NIXTFbQ0gyXVtDSDJdQyg9TylbTkhdW0NIMl1bQ0gyXWMyW2NIXVtjSF1bY0hdbltjSF0y

> <s_epik_cmdline>
J2VwaWtfcHl0aG9uJywgJy1waCcsICc3LjAnLCAnLXRuJywgJzgnLCAnLW1hJywgJzIwMCcsICctbWV0YWxfYmluZGluZycsICctaW1hZScsICc8aW5maWxlLm1hZT4nLCAnLW9tYWUnLCAnPG91dGZpbGUubWFlPic=

> <r_epik_Ionization_Penalty>
2.25234

> <r_epik_Ionization_Penalty_Charging>
2.25234

> <r_epik_Ionization_Penalty_Neutral>
2.26352e-08

> <r_epik_State_Penalty>
2.39956

> <r_epik_Charging_Adjusted_Penalty>
4.6519

> <i_epik_Tot_Q>
1

> <i_epik_Tot_abs_Q>
1

> <r_epik_Metal_State_Penalty>
2.41271

> <b_epik_Metal_Only>
0

> <s_lp_Force_Field>
OPLS_2005

> <r_lp_Energy>
27.3415

> <b_lp_Chiralities_Consistent>
1

> <s_lp_Variant>
AV-unprocessed.smi:1865-2

> <Gold.Version>
5.8.1

> <Gold.Id.Protein>
6NUR|6NUR_protein|mol2

> <Gold.PLP.Fitness>
49.6362

> <Gold.PLP.PLP>
-44.6824

> <Gold.PLP.part.hbond>
-2.0000

> <Gold.PLP.part.metal>
0.0000

> <Gold.PLP.part.buried>
-6.7934

> <Gold.PLP.part.nonpolar>
-34.6068

> <Gold.PLP.part.repulsive>
0.2523

> <Gold.PLP.ligand.clash>
0.0000

> <Gold.PLP.ligand.torsion>
0.4432

> <Gold.PLP.Chemscore.Hbond>
1.9280

> <Gold.PLP.Chemscore.CHOScore>
0.0000

> <Gold.PLP.Chemscore.Metal>
0.0000

> <Gold.Chemscore.Hbonds>
donor molecule, donor type, donor heavy atom, donor atom, acceptor molecule, acceptor atom, score
      L1  H    10    32       P1  8028  0.93
      P1  H  7989  7998       L1     1  1.00

> <Gold.PLP.Chemscore.Internal.Correction>
0.0563

> <Gold.Rescore>
     Score         DG    S(hbond)    S(metal)    S(lipo)     H(rot)  DE(clash)    DE(int)     intcor
     19.35     -19.97       1.68        0.00     112.67       1.69       0.10       0.51       ----

> <Gold.Chemscore.Fitness>
19.3538

> <Gold.Chemscore.DG>
-19.9711

> <Gold.Chemscore.ZeroCoef>
-5.4800

> <Gold.Chemscore.Hbond>
1.6847

> <Gold.Chemscore.Metal>
0.0000

> <Gold.Chemscore.Lipo>
112.6717

> <Gold.Chemscore.Internal_Hbond>
0.0000

> <Gold.Chemscore.DEClash>
0.1046

> <Gold.Chemscore.DEInternal>
0.5127

> <Gold.Chemscore.Rot>
1.6868

> <Gold.Chemscore.Internal.Correction>
   9.000000E+99

> <Gold.Chemscore.Hbonds>
donor molecule, donor type, donor heavy atom, donor atom, acceptor molecule, acceptor atom, score
      L1  H    10    32       P1  8028  0.90
      P1  H  7989  7998       L1     1  0.71

> <Gold.Chemscore.Hbond.Weighted>
-5.6268

> <Gold.Chemscore.Metal.Weighted>
-0.0000

> <Gold.Chemscore.Lipo.Weighted>
-13.1826

> <Gold.Chemscore.Internal_Hbond.Weighted>
0.0000

> <Gold.Chemscore.DEClash.Weighted>
0.1046

> <Gold.Chemscore.DEInternal.Weighted>
0.5127

> <Gold.Chemscore.Rot.Weighted>
4.3183

> <Gold.Chemscore.Internal.Correction.Weighted>
   9.000000E+99

> <Gold.Protein.RotatedTorsions>
[ 6907 6896 6895 6894 ] final   12.31 input  -60.11 | X-H torsion
[ 7974 7965 7964 7962 ] final  146.93 input  175.53 | X-H torsion
[ 8008 7997 7996 7995 ] final    4.75 input   59.86 | X-H torsion
[ 10167 10162 10161 10158 ] final  -34.52 input  -65.29 | X-H torsion
[ 10718 10713 10712 10709 ] final -135.97 input   66.30 | X-H torsion
[ 10763 10752 10751 10750 ] final -139.31 input  -60.55 | X-H torsion
[ 11005 11000 10999 10996 ] final -114.96 input  -57.11 | X-H torsion

> <Gold.Protein.ActiveResidues>
 VAL166  LYS551  ARG553  GLY616  TRP617  ASP618  TYR619  PRO620  LYS621  CYS622 
 ASP623  PHE694  ASN695  SER759  ASP760  ASP761  ALA762  ILE779  LEU786  VAL792 
 PHE793  MET794  SER795  GLU796  ALA797  LYS798  CYS799  TRP800  GLU811  SER814 

> <Gold.Protein.RotatedAtoms>
  151.7683  135.0793  160.0355 H   0  0  0  0  0  0  0  0  0  0  0  0  # atno 6907 bound_to 6896
  152.3306  133.5950  159.5815 H   0  0  0  0  0  0  0  0  0  0  0  0  # atno 6908 bound_to 6896
  150.7420  133.9789  159.3612 H   0  0  0  0  0  0  0  0  0  0  0  0  # atno 6909 bound_to 6896
  144.8632  139.5965  143.5921 H   0  0  0  0  0  0  0  0  0  0  0  0  # atno 7974 bound_to 7965
  154.7198  140.2709  155.6552 H   0  0  0  0  0  0  0  0  0  0  0  0  # atno 8008 bound_to 7997
  156.2820  140.2736  156.1791 H   0  0  0  0  0  0  0  0  0  0  0  0  # atno 8009 bound_to 7997
  155.0522  140.0371  157.2537 H   0  0  0  0  0  0  0  0  0  0  0  0  # atno 8010 bound_to 7997
  140.7184  143.3542  151.2093 H   0  0  0  0  0  0  0  0  0  0  0  0  # atno 10167 bound_to 10162
  156.2720  130.7271  151.1241 H   0  0  0  0  0  0  0  0  0  0  0  0  # atno 10718 bound_to 10713
  154.8613  135.3586  154.5526 H   0  0  0  0  0  0  0  0  0  0  0  0  # atno 10763 bound_to 10752
  153.6143  135.7008  153.5339 H   0  0  0  0  0  0  0  0  0  0  0  0  # atno 10764 bound_to 10752
  153.3182  135.4159  155.1355 H   0  0  0  0  0  0  0  0  0  0  0  0  # atno 10765 bound_to 10752
  141.0519  133.9674  157.2822 H   0  0  0  0  0  0  0  0  0  0  0  0  # atno 11005 bound_to 11000
  146.2876  139.7048  142.9184 LP  0  0  0  0  0  0  0  0  0  0  0  0  # atno 17320 bound_to 7965
  145.4272  141.0412  143.2931 LP  0  0  0  0  0  0  0  0  0  0  0  0  # atno 17321 bound_to 7965
  139.7080  143.9424  152.2935 LP  0  0  0  0  0  0  0  0  0  0  0  0  # atno 17342 bound_to 10162
  139.9139  144.6840  150.8533 LP  0  0  0  0  0  0  0  0  0  0  0  0  # atno 17343 bound_to 10162
  157.7287  131.0630  150.5809 LP  0  0  0  0  0  0  0  0  0  0  0  0  # atno 17370 bound_to 10713
  156.5906  130.4328  149.5938 LP  0  0  0  0  0  0  0  0  0  0  0  0  # atno 17371 bound_to 10713
  139.9357  135.0196  156.8548 LP  0  0  0  0  0  0  0  0  0  0  0  0  # atno 17394 bound_to 11000
  140.6039  134.0145  155.7549 LP  0  0  0  0  0  0  0  0  0  0  0  0  # atno 17395 bound_to 11000

$$$$
