AV-unprocessed.smi:3338|AV-procd|sdf|12875|dock7
  -GOLD-   2272019273D 1   1.00000     0.00000
 Structure written by MMmdl.
 44 45  0  0  0  0  0  0  0  0  2 V2000
  144.2145  141.6782  155.1954 C   0  0  0  0  0  0  0  0  0  0  0  0
  145.7189  141.5635  155.4976 C   0  0  2  0  0  0  0  0  0  0  0  0
  146.5216  142.7816  155.0055 C   0  0  0  0  0  0  0  0  0  0  0  0
  146.6756  142.7650  153.4785 C   0  0  0  0  0  0  0  0  0  0  0  0
  147.2635  141.4288  152.9983 C   0  0  0  0  0  0  0  0  0  0  0  0
  146.4421  140.2810  153.4628 N   0  3  1  0  0  0  0  0  0  0  0  0
  146.9078  138.9936  152.8878 C   0  0  0  0  0  0  0  0  0  0  0  0
  146.2797  137.7749  153.5831 C   0  0  0  0  0  0  0  0  0  0  0  0
  146.7415  136.5414  152.9626 N   0  0  0  0  0  0  0  0  0  0  0  0
  145.9584  135.4810  152.7125 C   0  0  0  0  0  0  0  0  0  0  0  0
  144.7664  135.4460  153.0204 O   0  0  0  0  0  0  0  0  0  0  0  0
  146.6308  134.2867  152.0126 C   0  0  1  0  0  0  0  0  0  0  0  0
  147.6861  133.5868  152.8920 C   0  0  0  0  0  0  0  0  0  0  0  0
  145.6314  133.3443  151.5209 N   0  0  0  0  0  0  0  0  0  0  0  0
  145.7750  131.9885  151.3058 C   0  0  0  0  0  0  0  0  0  0  0  0
  144.5860  131.5209  150.8240 C   0  0  0  0  0  0  0  0  0  0  0  0
  143.7620  132.6792  150.7750 C   0  0  0  0  0  0  0  0  0  0  0  0
  144.3897  133.7681  151.1876 N   0  0  0  0  0  0  0  0  0  0  0  0
  146.3260  140.2562  154.9470 C   0  0  0  0  0  0  0  0  0  0  0  0
  144.0123  141.6813  154.1242 H   0  0  0  0  0  0  0  0  0  0  0  0
  143.7995  142.5957  155.6139 H   0  0  0  0  0  0  0  0  0  0  0  0
  143.6643  140.8435  155.6305 H   0  0  0  0  0  0  0  0  0  0  0  0
  145.8108  141.5338  156.5843 H   0  0  0  0  0  0  0  0  0  0  0  0
  146.0490  143.7093  155.3298 H   0  0  0  0  0  0  0  0  0  0  0  0
  147.5119  142.7679  155.4630 H   0  0  0  0  0  0  0  0  0  0  0  0
  145.7087  142.9344  153.0037 H   0  0  0  0  0  0  0  0  0  0  0  0
  147.3178  143.5878  153.1623 H   0  0  0  0  0  0  0  0  0  0  0  0
  147.3106  141.4340  151.9085 H   0  0  0  0  0  0  0  0  0  0  0  0
  148.2869  141.3143  153.3598 H   0  0  0  0  0  0  0  0  0  0  0  0
  146.6342  138.9537  151.8323 H   0  0  0  0  0  0  0  0  0  0  0  0
  147.9974  138.9445  152.9259 H   0  0  0  0  0  0  0  0  0  0  0  0
  146.5379  137.7475  154.6419 H   0  0  0  0  0  0  0  0  0  0  0  0
  145.1917  137.8269  153.5161 H   0  0  0  0  0  0  0  0  0  0  0  0
  147.7108  136.4960  152.6834 H   0  0  0  0  0  0  0  0  0  0  0  0
  147.1522  134.6865  151.1412 H   0  0  0  0  0  0  0  0  0  0  0  0
  148.4639  134.2841  153.2050 H   0  0  0  0  0  0  0  0  0  0  0  0
  148.1737  132.7801  152.3440 H   0  0  0  0  0  0  0  0  0  0  0  0
  147.2462  133.1547  153.7919 H   0  0  0  0  0  0  0  0  0  0  0  0
  146.7018  131.4735  151.5115 H   0  0  0  0  0  0  0  0  0  0  0  0
  144.3413  130.5055  150.5489 H   0  0  0  0  0  0  0  0  0  0  0  0
  142.7345  132.7615  150.4524 H   0  0  0  0  0  0  0  0  0  0  0  0
  147.3169  140.1014  155.3773 H   0  0  0  0  0  0  0  0  0  0  0  0
  145.7147  139.4154  155.2727 H   0  0  0  0  0  0  0  0  0  0  0  0
  145.5128  140.4364  153.0983 H   0  0  0  0  0  0  0  0  0  0  0  0
  1  2  1  0  0  0  0
  1 20  1  0  0  0  0
  1 21  1  0  0  0  0
  1 22  1  0  0  0  0
  2 19  1  0  0  0  0
  2  3  1  0  0  0  0
  2 23  1  0  0  0  0
  3  4  1  0  0  0  0
  3 24  1  0  0  0  0
  3 25  1  0  0  0  0
  4  5  1  0  0  0  0
  4 26  1  0  0  0  0
  4 27  1  0  0  0  0
  5  6  1  0  0  0  0
  5 28  1  0  0  0  0
  5 29  1  0  0  0  0
  6  7  1  0  0  0  0
  6 19  1  0  0  0  0
  6 44  1  0  0  0  0
  7  8  1  0  0  0  0
  7 30  1  0  0  0  0
  7 31  1  0  0  0  0
  8  9  1  0  0  0  0
  8 32  1  0  0  0  0
  8 33  1  0  0  0  0
  9 10  1  0  0  0  0
  9 34  1  0  0  0  0
 10 11  2  0  0  0  0
 10 12  1  0  0  0  0
 12 13  1  0  0  0  0
 12 14  1  0  0  0  0
 12 35  1  0  0  0  0
 13 36  1  0  0  0  0
 13 37  1  0  0  0  0
 13 38  1  0  0  0  0
 14 18  1  0  0  0  0
 14 15  1  0  0  0  0
 15 16  2  0  0  0  0
 15 39  1  0  0  0  0
 16 17  1  0  0  0  0
 16 40  1  0  0  0  0
 17 18  2  0  0  0  0
 17 41  1  0  0  0  0
 19 42  1  0  0  0  0
 19 43  1  0  0  0  0
M  CHG  1   6   1
M  END
> <s_m_source_file>
AV-unprocessed.smi

> <i_m_source_file_index>
3338

> <i_lp_mmshare_version>
43012

> <i_f3d_flags>
0

> <s_epik_input>
W0NIM11bQ0BASF0xW0NIMl1bQ0gyXVtDSDJdTihbQ0gyXTEpW0NIMl1bQ0gyXVtOSF1DKD1PKVtDQEhdKFtDSDNdKW4yW2NIXVtjSF1bY0hdbjI=

> <s_epik_cmdline>
J2VwaWtfcHl0aG9uJywgJy1waCcsICc3LjAnLCAnLXRuJywgJzgnLCAnLW1hJywgJzIwMCcsICctbWV0YWxfYmluZGluZycsICctaW1hZScsICc8aW5maWxlLm1hZT4nLCAnLW9tYWUnLCAnPG91dGZpbGUubWFlPic=

> <r_lp_tautomer_probability>
1

> <r_epik_Ionization_Penalty>
0.00225707

> <r_epik_Ionization_Penalty_Charging>
0.00223709

> <r_epik_Ionization_Penalty_Neutral>
1.99775e-05

> <r_epik_State_Penalty>
0.00153978

> <r_epik_Charging_Adjusted_Penalty>
0.00377687

> <i_epik_Tot_Q>
1

> <i_epik_Tot_abs_Q>
1

> <r_epik_Metal_State_Penalty>
-0

> <b_epik_Metal_Only>
0

> <s_lp_Force_Field>
OPLS_2005

> <r_lp_Energy>
23.0994

> <b_lp_Chiralities_Consistent>
1

> <s_lp_Variant>
AV-unprocessed.smi:3338-7

> <Gold.Version>
5.8.1

> <Gold.Id.Protein>
6NUR|6NUR_protein|mol2

> <Gold.PLP.Fitness>
42.3925

> <Gold.PLP.PLP>
-29.6417

> <Gold.PLP.part.hbond>
-2.0000

> <Gold.PLP.part.metal>
0.0000

> <Gold.PLP.part.buried>
-2.7093

> <Gold.PLP.part.nonpolar>
-24.3216

> <Gold.PLP.part.repulsive>
0.2181

> <Gold.PLP.ligand.clash>
0.0000

> <Gold.PLP.ligand.torsion>
1.1897

> <Gold.PLP.Chemscore.Hbond>
3.0000

> <Gold.PLP.Chemscore.CHOScore>
2.0000

> <Gold.PLP.Chemscore.Metal>
0.0000

> <Gold.Chemscore.Hbonds>
donor molecule, donor type, donor heavy atom, donor atom, acceptor molecule, acceptor atom, score
      L1  H     6    44       P1 10175  2.00
      L1  H     9    34       P1  7948  0.94
      L1  C    15    39       P1 10747  0.67
      L1  C    17    41       P1 10186  0.94

> <Gold.PLP.Chemscore.Internal.Correction>
0.1302

> <Gold.Rescore>
     Score         DG    S(hbond)    S(metal)    S(lipo)     H(rot)  DE(clash)    DE(int)     intcor
     13.42     -15.90       1.97        0.00      71.20       1.76       0.17       2.31       ----

> <Gold.Chemscore.Fitness>
13.4153

> <Gold.Chemscore.DG>
-15.9013

> <Gold.Chemscore.ZeroCoef>
-5.4800

> <Gold.Chemscore.Hbond>
1.9725

> <Gold.Chemscore.Metal>
0.0000

> <Gold.Chemscore.Lipo>
71.2040

> <Gold.Chemscore.Internal_Hbond>
0.0000

> <Gold.Chemscore.DEClash>
0.1725

> <Gold.Chemscore.DEInternal>
2.3134

> <Gold.Chemscore.Rot>
1.7570

> <Gold.Chemscore.Internal.Correction>
   9.000000E+99

> <Gold.Chemscore.Hbonds>
donor molecule, donor type, donor heavy atom, donor atom, acceptor molecule, acceptor atom, score
      L1  H     6    44       P1 10175  0.92
      L1  H     9    34       P1  7948  0.90

> <Gold.Chemscore.Hbond.Weighted>
-6.5883

> <Gold.Chemscore.Metal.Weighted>
-0.0000

> <Gold.Chemscore.Lipo.Weighted>
-8.3309

> <Gold.Chemscore.Internal_Hbond.Weighted>
0.0000

> <Gold.Chemscore.DEClash.Weighted>
0.1725

> <Gold.Chemscore.DEInternal.Weighted>
2.3134

> <Gold.Chemscore.Rot.Weighted>
4.4979

> <Gold.Chemscore.Internal.Correction.Weighted>
   9.000000E+99

> <Gold.Protein.RotatedTorsions>
[ 6907 6896 6895 6894 ] final  -95.71 input  -60.11 | X-H torsion
[ 7974 7965 7964 7962 ] final -165.04 input  175.53 | X-H torsion
[ 8008 7997 7996 7995 ] final   98.70 input   59.86 | X-H torsion
[ 10167 10162 10161 10158 ] final   42.33 input  -65.29 | X-H torsion
[ 10718 10713 10712 10709 ] final  133.28 input   66.30 | X-H torsion
[ 10763 10752 10751 10750 ] final  116.41 input  -60.55 | X-H torsion
[ 11005 11000 10999 10996 ] final -128.94 input  -57.11 | X-H torsion

> <Gold.Protein.ActiveResidues>
 VAL166  LYS551  ARG553  GLY616  TRP617  ASP618  TYR619  PRO620  LYS621  CYS622 
 ASP623  PHE694  ASN695  SER759  ASP760  ASP761  ALA762  ILE779  LEU786  VAL792 
 PHE793  MET794  SER795  GLU796  ALA797  LYS798  CYS799  TRP800  GLU811  SER814 

> <Gold.Protein.RotatedAtoms>
  150.6970  134.1616  159.4178 H   0  0  0  0  0  0  0  0  0  0  0  0  # atno 6907 bound_to 6896
  151.9596  135.0127  160.0556 H   0  0  0  0  0  0  0  0  0  0  0  0  # atno 6908 bound_to 6896
  152.1938  133.4757  159.5059 H   0  0  0  0  0  0  0  0  0  0  0  0  # atno 6909 bound_to 6896
  144.7280  140.2872  143.6226 H   0  0  0  0  0  0  0  0  0  0  0  0  # atno 7974 bound_to 7965
  156.1031  140.3240  155.7969 H   0  0  0  0  0  0  0  0  0  0  0  0  # atno 8008 bound_to 7997
  155.4802  140.0553  157.2985 H   0  0  0  0  0  0  0  0  0  0  0  0  # atno 8009 bound_to 7997
  154.4710  140.2011  156.0011 H   0  0  0  0  0  0  0  0  0  0  0  0  # atno 8010 bound_to 7997
  140.3554  144.2297  150.6142 H   0  0  0  0  0  0  0  0  0  0  0  0  # atno 10167 bound_to 10162
  157.4788  131.1084  150.9708 H   0  0  0  0  0  0  0  0  0  0  0  0  # atno 10718 bound_to 10713
  153.5367  135.3567  155.2700 H   0  0  0  0  0  0  0  0  0  0  0  0  # atno 10763 bound_to 10752
  154.8721  135.4081  154.3090 H   0  0  0  0  0  0  0  0  0  0  0  0  # atno 10764 bound_to 10752
  153.3789  135.7067  153.6648 H   0  0  0  0  0  0  0  0  0  0  0  0  # atno 10765 bound_to 10752
  140.9473  134.1112  157.4095 H   0  0  0  0  0  0  0  0  0  0  0  0  # atno 11005 bound_to 11000
  145.7891  139.1920  143.2113 LP  0  0  0  0  0  0  0  0  0  0  0  0  # atno 17320 bound_to 7965
  146.0770  140.7806  142.9660 LP  0  0  0  0  0  0  0  0  0  0  0  0  # atno 17321 bound_to 7965
  140.5179  143.2273  151.8435 LP  0  0  0  0  0  0  0  0  0  0  0  0  # atno 17342 bound_to 10162
  139.4821  144.4873  151.9231 LP  0  0  0  0  0  0  0  0  0  0  0  0  # atno 17343 bound_to 10162
  157.0448  130.5763  149.5361 LP  0  0  0  0  0  0  0  0  0  0  0  0  # atno 17370 bound_to 10713
  156.0111  130.5202  150.7990 LP  0  0  0  0  0  0  0  0  0  0  0  0  # atno 17371 bound_to 10713
  139.8837  135.0055  156.6319 LP  0  0  0  0  0  0  0  0  0  0  0  0  # atno 17394 bound_to 11000
  140.7651  133.8785  155.8448 LP  0  0  0  0  0  0  0  0  0  0  0  0  # atno 17395 bound_to 11000

$$$$
