AV-unprocessed.smi:1554|AV-procd|sdf|6241|dock9
  -GOLD-   22720 6423D 1   1.00000     0.00000
 Structure written by MMmdl.
 47 49  0  0  0  0  0  0  0  0  1 V2000
  151.8610  144.5787  159.3510 C   0  0  0  0  0  0  0  0  0  0  0  0
  152.4481  143.2662  159.8397 C   0  0  0  0  0  0  0  0  0  0  0  0
  152.6797  142.2282  158.9092 C   0  0  0  0  0  0  0  0  0  0  0  0
  153.2275  140.9941  159.3225 C   0  0  0  0  0  0  0  0  0  0  0  0
  153.5374  139.8590  158.5928 N   0  0  0  0  0  0  0  0  0  0  0  0
  154.0143  139.0546  159.5382 C   0  0  0  0  0  0  0  0  0  0  0  0
  154.0509  139.5347  160.7961 N   0  0  0  0  0  0  0  0  0  0  0  0
  154.5262  138.8410  161.9803 C   0  0  0  0  0  0  0  0  0  0  0  0
  154.9030  137.3749  161.6949 C   0  0  1  0  0  0  0  0  0  0  0  0
  156.2095  137.3296  161.1545 O   0  0  0  0  0  0  0  0  0  0  0  0
  154.8723  136.5251  162.9818 C   0  0  0  0  0  0  0  0  0  0  0  0
  154.4847  135.1235  162.8096 N   0  0  0  0  0  0  0  0  0  0  0  0
  155.4803  134.4034  162.0234 C   0  0  0  0  0  0  0  0  0  0  0  0
  155.0987  132.9273  161.8230 C   0  0  0  0  0  0  0  0  0  0  0  0
  154.9164  132.3091  163.0922 O   0  0  0  0  0  0  0  0  0  0  0  0
  153.9144  132.9463  163.8796 C   0  0  1  0  0  0  0  0  0  0  0  0
  153.7931  132.1927  165.2083 C   0  0  0  0  0  0  0  0  0  0  0  0
  154.2936  134.4270  164.0811 C   0  0  0  0  0  0  0  0  0  0  0  0
  153.5376  140.8243  160.7037 C   0  0  0  0  0  0  0  0  0  0  0  0
  153.3120  141.8496  161.6389 C   0  0  0  0  0  0  0  0  0  0  0  0
  152.7654  143.0769  161.2088 C   0  0  0  0  0  0  0  0  0  0  0  0
  152.5286  144.1793  162.2258 C   0  0  0  0  0  0  0  0  0  0  0  0
  151.6632  144.5517  158.2790 H   0  0  0  0  0  0  0  0  0  0  0  0
  152.5512  145.4005  159.5432 H   0  0  0  0  0  0  0  0  0  0  0  0
  150.9198  144.7903  159.8589 H   0  0  0  0  0  0  0  0  0  0  0  0
  152.4393  142.3722  157.8661 H   0  0  0  0  0  0  0  0  0  0  0  0
  154.3587  138.0580  159.3035 H   0  0  0  0  0  0  0  0  0  0  0  0
  155.3794  139.3854  162.3873 H   0  0  0  0  0  0  0  0  0  0  0  0
  153.7413  138.8857  162.7364 H   0  0  0  0  0  0  0  0  0  0  0  0
  154.2089  136.9831  160.9526 H   0  0  0  0  0  0  0  0  0  0  0  0
  156.6087  136.5101  161.4038 H   0  0  0  0  0  0  0  0  0  0  0  0
  155.8622  136.5722  163.4386 H   0  0  0  0  0  0  0  0  0  0  0  0
  154.1964  136.9907  163.7007 H   0  0  0  0  0  0  0  0  0  0  0  0
  155.5962  134.8782  161.0483 H   0  0  0  0  0  0  0  0  0  0  0  0
  156.4526  134.4597  162.5156 H   0  0  0  0  0  0  0  0  0  0  0  0
  154.1858  132.8397  161.2321 H   0  0  0  0  0  0  0  0  0  0  0  0
  155.8845  132.4024  161.2797 H   0  0  0  0  0  0  0  0  0  0  0  0
  152.9602  132.8834  163.3536 H   0  0  0  0  0  0  0  0  0  0  0  0
  153.0254  132.6369  165.8423 H   0  0  0  0  0  0  0  0  0  0  0  0
  154.7340  132.2097  165.7590 H   0  0  0  0  0  0  0  0  0  0  0  0
  153.5232  131.1498  165.0412 H   0  0  0  0  0  0  0  0  0  0  0  0
  155.2058  134.4908  164.6768 H   0  0  0  0  0  0  0  0  0  0  0  0
  153.5072  134.9058  164.6623 H   0  0  0  0  0  0  0  0  0  0  0  0
  153.5608  141.6933  162.6782 H   0  0  0  0  0  0  0  0  0  0  0  0
  152.8137  143.8625  163.2294 H   0  0  0  0  0  0  0  0  0  0  0  0
  151.4747  144.4577  162.2503 H   0  0  0  0  0  0  0  0  0  0  0  0
  153.1156  145.0627  161.9739 H   0  0  0  0  0  0  0  0  0  0  0  0
  1  2  1  0  0  0  0
  1 23  1  0  0  0  0
  1 24  1  0  0  0  0
  1 25  1  0  0  0  0
  2 21  1  0  0  0  0
  2  3  2  0  0  0  0
  3  4  1  0  0  0  0
  3 26  1  0  0  0  0
  4 19  2  0  0  0  0
  4  5  1  0  0  0  0
  5  6  2  0  0  0  0
  6  7  1  0  0  0  0
  6 27  1  0  0  0  0
  7  8  1  0  0  0  0
  7 19  1  0  0  0  0
  8  9  1  0  0  0  0
  8 28  1  0  0  0  0
  8 29  1  0  0  0  0
  9 10  1  0  0  0  0
  9 11  1  0  0  0  0
  9 30  1  0  0  0  0
 10 31  1  0  0  0  0
 11 12  1  0  0  0  0
 11 32  1  0  0  0  0
 11 33  1  0  0  0  0
 12 18  1  0  0  0  0
 12 13  1  0  0  0  0
 13 14  1  0  0  0  0
 13 34  1  0  0  0  0
 13 35  1  0  0  0  0
 14 15  1  0  0  0  0
 14 36  1  0  0  0  0
 14 37  1  0  0  0  0
 15 16  1  0  0  0  0
 16 17  1  0  0  0  0
 16 18  1  0  0  0  0
 16 38  1  0  0  0  0
 17 39  1  0  0  0  0
 17 40  1  0  0  0  0
 17 41  1  0  0  0  0
 18 42  1  0  0  0  0
 18 43  1  0  0  0  0
 19 20  1  0  0  0  0
 20 21  2  0  0  0  0
 20 44  1  0  0  0  0
 21 22  1  0  0  0  0
 22 45  1  0  0  0  0
 22 46  1  0  0  0  0
 22 47  1  0  0  0  0
M  END
> <s_m_source_file>
AV-unprocessed.smi

> <i_m_source_file_index>
1554

> <i_lp_mmshare_version>
43012

> <i_f3d_flags>
0

> <s_epik_input>
W0NIM11jKFtjSF0xKWMoW0NIM10pW2NIXWMoYzEyKW4oW2NIXW4yKVtDSDJdW0NASF0oW09IXSlbQ0gyXU4zW0NIMl1bQ0gyXU9bQ0BASF0oW0NIM10pW0NIMl0z

> <s_epik_cmdline>
J2VwaWtfcHl0aG9uJywgJy1waCcsICc3LjAnLCAnLXRuJywgJzgnLCAnLW1hJywgJzIwMCcsICctbWV0YWxfYmluZGluZycsICctaW1hZScsICc8aW5maWxlLm1hZT4nLCAnLW9tYWUnLCAnPG91dGZpbGUubWFlPic=

> <r_epik_Ionization_Penalty>
0.345108

> <r_epik_Ionization_Penalty_Charging>
0

> <r_epik_Ionization_Penalty_Neutral>
0.345108

> <r_epik_State_Penalty>
0.314544

> <r_epik_Charging_Adjusted_Penalty>
0.314544

> <i_epik_Tot_Q>
0

> <i_epik_Tot_abs_Q>
0

> <r_epik_Metal_State_Penalty>
0.239719

> <b_epik_Metal_Only>
0

> <s_lp_Force_Field>
OPLS_2005

> <r_lp_Energy>
29.8053

> <b_lp_Chiralities_Consistent>
1

> <s_lp_Variant>
AV-unprocessed.smi:1554-2

> <Gold.Version>
5.8.1

> <Gold.Id.Protein>
6NUR|6NUR_protein|mol2

> <Gold.PLP.Fitness>
46.6283

> <Gold.PLP.PLP>
-44.9903

> <Gold.PLP.part.hbond>
-1.0000

> <Gold.PLP.part.metal>
0.0000

> <Gold.PLP.part.buried>
-3.2423

> <Gold.PLP.part.nonpolar>
-39.2242

> <Gold.PLP.part.repulsive>
0.0020

> <Gold.PLP.ligand.clash>
0.0000

> <Gold.PLP.ligand.torsion>
0.6930

> <Gold.PLP.Chemscore.Hbond>
1.0000

> <Gold.PLP.Chemscore.CHOScore>
0.0000

> <Gold.PLP.Chemscore.Metal>
0.0000

> <Gold.Chemscore.Hbonds>
donor molecule, donor type, donor heavy atom, donor atom, acceptor molecule, acceptor atom, score
      P1  H  7997  8010       L1     5  1.00

> <Gold.PLP.Chemscore.Internal.Correction>
0.0239

> <Gold.Rescore>
     Score         DG    S(hbond)    S(metal)    S(lipo)     H(rot)  DE(clash)    DE(int)     intcor
     19.34     -20.11       0.93        0.00     141.85       1.98       0.06       0.71       ----

> <Gold.Chemscore.Fitness>
19.3394

> <Gold.Chemscore.DG>
-20.1110

> <Gold.Chemscore.ZeroCoef>
-5.4800

> <Gold.Chemscore.Hbond>
0.9326

> <Gold.Chemscore.Metal>
0.0000

> <Gold.Chemscore.Lipo>
141.8545

> <Gold.Chemscore.Internal_Hbond>
0.0000

> <Gold.Chemscore.DEClash>
0.0602

> <Gold.Chemscore.DEInternal>
0.7114

> <Gold.Chemscore.Rot>
1.9848

> <Gold.Chemscore.Internal.Correction>
   9.000000E+99

> <Gold.Chemscore.Hbonds>
donor molecule, donor type, donor heavy atom, donor atom, acceptor molecule, acceptor atom, score
      P1  H  7997  8010       L1     5  0.64

> <Gold.Chemscore.Hbond.Weighted>
-3.1150

> <Gold.Chemscore.Metal.Weighted>
-0.0000

> <Gold.Chemscore.Lipo.Weighted>
-16.5970

> <Gold.Chemscore.Internal_Hbond.Weighted>
0.0000

> <Gold.Chemscore.DEClash.Weighted>
0.0602

> <Gold.Chemscore.DEInternal.Weighted>
0.7114

> <Gold.Chemscore.Rot.Weighted>
5.0810

> <Gold.Chemscore.Internal.Correction.Weighted>
   9.000000E+99

> <Gold.Protein.RotatedTorsions>
[ 6907 6896 6895 6894 ] final   -7.39 input  -60.11 | X-H torsion
[ 7974 7965 7964 7962 ] final  143.78 input  175.53 | X-H torsion
[ 8008 7997 7996 7995 ] final   17.27 input   59.86 | X-H torsion
[ 10167 10162 10161 10158 ] final  103.79 input  -65.29 | X-H torsion
[ 10718 10713 10712 10709 ] final   88.68 input   66.30 | X-H torsion
[ 10763 10752 10751 10750 ] final  177.68 input  -60.55 | X-H torsion
[ 11005 11000 10999 10996 ] final  115.38 input  -57.11 | X-H torsion

> <Gold.Protein.ActiveResidues>
 VAL166  LYS551  ARG553  GLY616  TRP617  ASP618  TYR619  PRO620  LYS621  CYS622 
 ASP623  PHE694  ASN695  SER759  ASP760  ASP761  ALA762  ILE779  LEU786  VAL792 
 PHE793  MET794  SER795  GLU796  ALA797  LYS798  CYS799  TRP800  GLU811  SER814 

> <Gold.Protein.RotatedAtoms>
  151.4504  135.1029  159.9695 H   0  0  0  0  0  0  0  0  0  0  0  0  # atno 6907 bound_to 6896
  152.4890  133.8446  159.7180 H   0  0  0  0  0  0  0  0  0  0  0  0  # atno 6908 bound_to 6896
  150.9026  133.7039  159.2902 H   0  0  0  0  0  0  0  0  0  0  0  0  # atno 6909 bound_to 6896
  144.8891  139.5584  143.5807 H   0  0  0  0  0  0  0  0  0  0  0  0  # atno 7974 bound_to 7965
  154.8889  140.2984  155.5382 H   0  0  0  0  0  0  0  0  0  0  0  0  # atno 8008 bound_to 7997
  156.3021  140.2428  156.3837 H   0  0  0  0  0  0  0  0  0  0  0  0  # atno 8009 bound_to 7997
  154.8639  140.0404  157.1671 H   0  0  0  0  0  0  0  0  0  0  0  0  # atno 8010 bound_to 7997
  139.7232  144.7053  151.0839 H   0  0  0  0  0  0  0  0  0  0  0  0  # atno 10167 bound_to 10162
  157.6950  131.0304  150.3311 H   0  0  0  0  0  0  0  0  0  0  0  0  # atno 10718 bound_to 10713
  154.4977  135.2782  155.1446 H   0  0  0  0  0  0  0  0  0  0  0  0  # atno 10763 bound_to 10752
  154.3092  135.6232  153.5462 H   0  0  0  0  0  0  0  0  0  0  0  0  # atno 10764 bound_to 10752
  152.9897  135.5715  154.5412 H   0  0  0  0  0  0  0  0  0  0  0  0  # atno 10765 bound_to 10752
  139.9008  134.9583  156.7036 H   0  0  0  0  0  0  0  0  0  0  0  0  # atno 11005 bound_to 11000
  146.3043  139.7528  142.9068 LP  0  0  0  0  0  0  0  0  0  0  0  0  # atno 17320 bound_to 7965
  145.3815  141.0359  143.3175 LP  0  0  0  0  0  0  0  0  0  0  0  0  # atno 17321 bound_to 7965
  140.7758  143.5139  150.9619 LP  0  0  0  0  0  0  0  0  0  0  0  0  # atno 17342 bound_to 10162
  139.8826  143.7053  152.3155 LP  0  0  0  0  0  0  0  0  0  0  0  0  # atno 17343 bound_to 10162
  156.3785  130.3876  149.7120 LP  0  0  0  0  0  0  0  0  0  0  0  0  # atno 17370 bound_to 10713
  156.4510  130.7907  151.2928 LP  0  0  0  0  0  0  0  0  0  0  0  0  # atno 17371 bound_to 10713
  140.7131  133.9206  155.8097 LP  0  0  0  0  0  0  0  0  0  0  0  0  # atno 17394 bound_to 11000
  141.0285  134.0789  157.4041 LP  0  0  0  0  0  0  0  0  0  0  0  0  # atno 17395 bound_to 11000

$$$$
