AV-unprocessed.smi:1780|AV-procd|sdf|7184|dock1
  -GOLD-   22720 8423D 1   1.00000     0.00000
 Structure written by MMmdl.
 43 44  0  0  0  0  0  0  0  0  1 V2000
  143.9629  133.0082  148.2797 C   0  0  0  0  0  0  0  0  0  0  0  0
  143.8171  132.5131  149.7241 C   0  0  0  0  0  0  0  0  0  0  0  0
  144.2392  133.5153  150.6834 N   0  0  0  0  0  0  0  0  0  0  0  0
  145.4084  134.2498  150.6914 C   0  0  0  0  0  0  0  0  0  0  0  0
  145.3325  135.0524  151.7946 C   0  0  0  0  0  0  0  0  0  0  0  0
  146.2603  136.0097  152.2763 N   0  0  0  0  0  0  0  0  0  0  0  0
  146.0388  136.9755  153.1826 C   0  0  0  0  0  0  0  0  0  0  0  0
  144.9600  137.1972  153.7330 O   0  0  0  0  0  0  0  0  0  0  0  0
  147.1526  137.6814  153.4226 N   0  0  0  0  0  0  0  0  0  0  0  0
  147.2571  138.7913  154.3660 C   0  0  0  0  0  0  0  0  0  0  0  0
  148.4844  139.7157  154.1130 C   0  0  1  0  0  0  0  0  0  0  0  0
  148.0012  141.1871  154.0421 C   0  0  0  0  0  0  0  0  0  0  0  0
  149.5746  139.5173  155.0962 N   0  0  0  0  0  0  0  0  0  0  0  0
  150.4430  138.3826  154.7609 C   0  0  0  0  0  0  0  0  0  0  0  0
  151.5925  138.1927  155.7659 C   0  0  0  0  0  0  0  0  0  0  0  0
  152.3592  139.3859  155.8502 O   0  0  0  0  0  0  0  0  0  0  0  0
  151.5708  140.4989  156.2481 C   0  0  0  0  0  0  0  0  0  0  0  0
  150.4231  140.7055  155.2446 C   0  0  0  0  0  0  0  0  0  0  0  0
  144.0891  134.7507  152.4084 C   0  0  0  0  0  0  0  0  0  0  0  0
  143.4351  133.8182  151.7328 N   0  0  0  0  0  0  0  0  0  0  0  0
  143.6644  132.2340  147.5730 H   0  0  0  0  0  0  0  0  0  0  0  0
  144.9957  133.2805  148.0593 H   0  0  0  0  0  0  0  0  0  0  0  0
  143.3385  133.8834  148.0962 H   0  0  0  0  0  0  0  0  0  0  0  0
  142.7805  132.2436  149.9315 H   0  0  0  0  0  0  0  0  0  0  0  0
  144.4147  131.6133  149.8741 H   0  0  0  0  0  0  0  0  0  0  0  0
  146.1636  134.1350  149.9280 H   0  0  0  0  0  0  0  0  0  0  0  0
  147.1929  135.9483  151.8951 H   0  0  0  0  0  0  0  0  0  0  0  0
  147.9932  137.4296  152.9236 H   0  0  0  0  0  0  0  0  0  0  0  0
  146.3368  139.3730  154.3044 H   0  0  0  0  0  0  0  0  0  0  0  0
  147.2772  138.3512  155.3622 H   0  0  0  0  0  0  0  0  0  0  0  0
  148.8779  139.4655  153.1265 H   0  0  0  0  0  0  0  0  0  0  0  0
  147.1710  141.3205  153.3496 H   0  0  0  0  0  0  0  0  0  0  0  0
  148.7774  141.8600  153.6807 H   0  0  0  0  0  0  0  0  0  0  0  0
  147.6735  141.5425  155.0194 H   0  0  0  0  0  0  0  0  0  0  0  0
  149.8780  137.4529  154.7514 H   0  0  0  0  0  0  0  0  0  0  0  0
  150.8552  138.5149  153.7592 H   0  0  0  0  0  0  0  0  0  0  0  0
  151.2045  137.9293  156.7513 H   0  0  0  0  0  0  0  0  0  0  0  0
  152.2407  137.3756  155.4492 H   0  0  0  0  0  0  0  0  0  0  0  0
  151.1806  140.3384  157.2543 H   0  0  0  0  0  0  0  0  0  0  0  0
  152.2028  141.3861  156.2879 H   0  0  0  0  0  0  0  0  0  0  0  0
  150.8366  140.9882  154.2754 H   0  0  0  0  0  0  0  0  0  0  0  0
  149.8398  141.5530  155.5996 H   0  0  0  0  0  0  0  0  0  0  0  0
  143.6485  135.1670  153.3024 H   0  0  0  0  0  0  0  0  0  0  0  0
  1  2  1  0  0  0  0
  1 21  1  0  0  0  0
  1 22  1  0  0  0  0
  1 23  1  0  0  0  0
  2  3  1  0  0  0  0
  2 24  1  0  0  0  0
  2 25  1  0  0  0  0
  3 20  1  0  0  0  0
  3  4  1  0  0  0  0
  4  5  2  0  0  0  0
  4 26  1  0  0  0  0
  5  6  1  0  0  0  0
  5 19  1  0  0  0  0
  6  7  1  0  0  0  0
  6 27  1  0  0  0  0
  7  8  2  0  0  0  0
  7  9  1  0  0  0  0
  9 10  1  0  0  0  0
  9 28  1  0  0  0  0
 10 11  1  0  0  0  0
 10 29  1  0  0  0  0
 10 30  1  0  0  0  0
 11 12  1  0  0  0  0
 11 13  1  0  0  0  0
 11 31  1  0  0  0  0
 12 32  1  0  0  0  0
 12 33  1  0  0  0  0
 12 34  1  0  0  0  0
 13 18  1  0  0  0  0
 13 14  1  0  0  0  0
 14 15  1  0  0  0  0
 14 35  1  0  0  0  0
 14 36  1  0  0  0  0
 15 16  1  0  0  0  0
 15 37  1  0  0  0  0
 15 38  1  0  0  0  0
 16 17  1  0  0  0  0
 17 18  1  0  0  0  0
 17 39  1  0  0  0  0
 17 40  1  0  0  0  0
 18 41  1  0  0  0  0
 18 42  1  0  0  0  0
 19 20  2  0  0  0  0
 19 43  1  0  0  0  0
M  END
> <s_m_source_file>
AV-unprocessed.smi

> <i_m_source_file_index>
1780

> <i_lp_mmshare_version>
43012

> <i_f3d_flags>
0

> <s_epik_input>
W0NIM11bQ0gyXW4xW2NIXWMoW2NIXW4xKVtOSF1DKD1PKVtOSF1bQ0gyXVtDQEhdKFtDSDNdKU4yW0NIMl1bQ0gyXU9bQ0gyXVtDSDJdMg==

> <s_epik_cmdline>
J2VwaWtfcHl0aG9uJywgJy1waCcsICc3LjAnLCAnLXRuJywgJzgnLCAnLW1hJywgJzIwMCcsICctbWV0YWxfYmluZGluZycsICctaW1hZScsICc8aW5maWxlLm1hZT4nLCAnLW9tYWUnLCAnPG91dGZpbGUubWFlPic=

> <r_lp_tautomer_probability>
1

> <r_epik_Ionization_Penalty>
0.242902

> <r_epik_Ionization_Penalty_Charging>
0

> <r_epik_Ionization_Penalty_Neutral>
0.242902

> <r_epik_State_Penalty>
0.233765

> <r_epik_Charging_Adjusted_Penalty>
0.233765

> <i_epik_Tot_Q>
0

> <i_epik_Tot_abs_Q>
0

> <r_epik_Metal_State_Penalty>
0.233759

> <b_epik_Metal_Only>
0

> <s_lp_Force_Field>
OPLS_2005

> <r_lp_Energy>
31.4714

> <b_lp_Chiralities_Consistent>
1

> <s_lp_Variant>
AV-unprocessed.smi:1780-2

> <Gold.Version>
5.8.1

> <Gold.Id.Protein>
6NUR|6NUR_protein|mol2

> <Gold.PLP.Fitness>
42.2255

> <Gold.PLP.PLP>
-33.7386

> <Gold.PLP.part.hbond>
-2.8337

> <Gold.PLP.part.metal>
0.0000

> <Gold.PLP.part.buried>
-2.8066

> <Gold.PLP.part.nonpolar>
-28.0016

> <Gold.PLP.part.repulsive>
0.3796

> <Gold.PLP.ligand.clash>
0.1278

> <Gold.PLP.ligand.torsion>
1.5695

> <Gold.PLP.Chemscore.Hbond>
2.9100

> <Gold.PLP.Chemscore.CHOScore>
0.9855

> <Gold.PLP.Chemscore.Metal>
0.0000

> <Gold.Chemscore.Hbonds>
donor molecule, donor type, donor heavy atom, donor atom, acceptor molecule, acceptor atom, score
      L1  H     6    27       P1  7948  1.00
      L1  H     9    28       P1  7948  1.00
      P1  H  7997  8009       L1    16  0.67
      L1  C     4    26       P1  7921  0.89

> <Gold.PLP.Chemscore.Internal.Correction>
0.0671

> <Gold.Rescore>
     Score         DG    S(hbond)    S(metal)    S(lipo)     H(rot)  DE(clash)    DE(int)     intcor
     16.92     -20.67       2.86        0.00      83.42       1.61       0.66       3.10       ----

> <Gold.Chemscore.Fitness>
16.9176

> <Gold.Chemscore.DG>
-20.6725

> <Gold.Chemscore.ZeroCoef>
-5.4800

> <Gold.Chemscore.Hbond>
2.8616

> <Gold.Chemscore.Metal>
0.0000

> <Gold.Chemscore.Lipo>
83.4246

> <Gold.Chemscore.Internal_Hbond>
0.0000

> <Gold.Chemscore.DEClash>
0.6565

> <Gold.Chemscore.DEInternal>
3.0983

> <Gold.Chemscore.Rot>
1.6117

> <Gold.Chemscore.Internal.Correction>
   9.000000E+99

> <Gold.Chemscore.Hbonds>
donor molecule, donor type, donor heavy atom, donor atom, acceptor molecule, acceptor atom, score
      L1  H     6    27       P1  7948  0.99
      L1  H     9    28       P1  7948  0.95
      P1  H  7997  8009       L1    16  0.23

> <Gold.Chemscore.Hbond.Weighted>
-9.5578

> <Gold.Chemscore.Metal.Weighted>
-0.0000

> <Gold.Chemscore.Lipo.Weighted>
-9.7607

> <Gold.Chemscore.Internal_Hbond.Weighted>
0.0000

> <Gold.Chemscore.DEClash.Weighted>
0.6565

> <Gold.Chemscore.DEInternal.Weighted>
3.0983

> <Gold.Chemscore.Rot.Weighted>
4.1260

> <Gold.Chemscore.Internal.Correction.Weighted>
   9.000000E+99

> <Gold.Protein.RotatedTorsions>
[ 6907 6896 6895 6894 ] final   32.28 input  -60.11 | X-H torsion
[ 7974 7965 7964 7962 ] final   -2.88 input  175.53 | X-H torsion
[ 8008 7997 7996 7995 ] final -149.31 input   59.86 | X-H torsion
[ 10167 10162 10161 10158 ] final -138.13 input  -65.29 | X-H torsion
[ 10718 10713 10712 10709 ] final  122.33 input   66.30 | X-H torsion
[ 10763 10752 10751 10750 ] final -173.28 input  -60.55 | X-H torsion
[ 11005 11000 10999 10996 ] final  155.38 input  -57.11 | X-H torsion

> <Gold.Protein.ActiveResidues>
 VAL166  LYS551  ARG553  GLY616  TRP617  ASP618  TYR619  PRO620  LYS621  CYS622 
 ASP623  PHE694  ASN695  SER759  ASP760  ASP761  ALA762  ILE779  LEU786  VAL792 
 PHE793  MET794  SER795  GLU796  ALA797  LYS798  CYS799  TRP800  GLU811  SER814 

> <Gold.Protein.RotatedAtoms>
  152.0722  134.9526  160.0574 H   0  0  0  0  0  0  0  0  0  0  0  0  # atno 6907 bound_to 6896
  152.0847  133.4165  159.4525 H   0  0  0  0  0  0  0  0  0  0  0  0  # atno 6908 bound_to 6896
  150.6836  134.2861  159.4690 H   0  0  0  0  0  0  0  0  0  0  0  0  # atno 6909 bound_to 6896
  146.2398  140.1637  142.8332 H   0  0  0  0  0  0  0  0  0  0  0  0  # atno 7974 bound_to 7965
  155.6056  140.0666  157.2720 H   0  0  0  0  0  0  0  0  0  0  0  0  # atno 8008 bound_to 7997
  154.4267  140.1810  156.1267 H   0  0  0  0  0  0  0  0  0  0  0  0  # atno 8009 bound_to 7997
  156.0125  140.3325  155.6958 H   0  0  0  0  0  0  0  0  0  0  0  0  # atno 8010 bound_to 7997
  139.8509  143.7200  152.2658 H   0  0  0  0  0  0  0  0  0  0  0  0  # atno 10167 bound_to 10162
  157.5750  131.1080  150.8295 H   0  0  0  0  0  0  0  0  0  0  0  0  # atno 10718 bound_to 10713
  154.6097  135.2863  155.0446 H   0  0  0  0  0  0  0  0  0  0  0  0  # atno 10763 bound_to 10752
  154.1680  135.6477  153.5006 H   0  0  0  0  0  0  0  0  0  0  0  0  # atno 10764 bound_to 10752
  153.0190  135.5394  154.6846 H   0  0  0  0  0  0  0  0  0  0  0  0  # atno 10765 bound_to 10752
  140.1576  134.8632  157.2534 H   0  0  0  0  0  0  0  0  0  0  0  0  # atno 11005 bound_to 11000
  145.0068  140.8680  143.5248 LP  0  0  0  0  0  0  0  0  0  0  0  0  # atno 17320 bound_to 7965
  145.1665  139.2429  143.5364 LP  0  0  0  0  0  0  0  0  0  0  0  0  # atno 17321 bound_to 7965
  139.7467  144.7545  151.0569 LP  0  0  0  0  0  0  0  0  0  0  0  0  # atno 17342 bound_to 10162
  140.7787  143.4908  150.9895 LP  0  0  0  0  0  0  0  0  0  0  0  0  # atno 17343 bound_to 10162
  156.8757  130.5161  149.5294 LP  0  0  0  0  0  0  0  0  0  0  0  0  # atno 17370 bound_to 10713
  156.0795  130.5809  150.9536 LP  0  0  0  0  0  0  0  0  0  0  0  0  # atno 17371 bound_to 10713
  140.2529  134.3662  155.7435 LP  0  0  0  0  0  0  0  0  0  0  0  0  # atno 17394 bound_to 11000
  141.2206  133.7326  156.8962 LP  0  0  0  0  0  0  0  0  0  0  0  0  # atno 17395 bound_to 11000

$$$$
