AV-unprocessed.smi:1726|AV-procd|sdf|6961|dock7
  -GOLD-   22720 8173D 1   1.00000     0.00000
 Structure written by MMmdl.
 42 43  0  0  0  0  0  0  0  0  3 V2000
  148.9239  133.0811  153.4003 C   0  0  0  0  0  0  0  0  0  0  0  0
  147.7601  133.1112  152.3987 C   0  0  0  0  0  0  0  0  0  0  0  0
  146.9323  134.3380  152.5205 N   0  3  1  0  0  0  0  0  0  0  0  0
  145.8222  134.3632  151.5325 C   0  0  0  0  0  0  0  0  0  0  0  0
  145.0608  135.6980  151.5823 C   0  0  0  0  0  0  0  0  0  0  0  0
  144.5379  135.9825  152.9961 C   0  0  0  0  0  0  0  0  0  0  0  0
  145.6963  135.9280  154.0037 C   0  0  1  0  0  0  0  0  0  0  0  0
  145.1901  136.1411  155.3560 N   0  0  0  0  0  0  0  0  0  0  0  0
  145.9416  136.1582  156.4662 C   0  0  0  0  0  0  0  0  0  0  0  0
  147.1609  135.9884  156.4545 O   0  0  0  0  0  0  0  0  0  0  0  0
  145.1812  136.3561  157.5576 N   0  0  0  0  0  0  0  0  0  0  0  0
  145.5708  136.4598  158.9035 C   0  0  0  0  0  0  0  0  0  0  0  0
  145.9963  135.4174  159.6696 C   0  0  0  0  0  0  0  0  0  0  0  0
  146.4057  135.5864  161.0581 C   0  0  0  0  0  0  0  0  0  0  0  0
  146.7907  134.4342  161.9688 C   0  0  0  0  0  0  0  0  0  0  0  0
  147.2282  134.9050  163.1358 F   0  0  0  0  0  0  0  0  0  0  0  0
  145.7464  133.6398  162.2063 F   0  0  0  0  0  0  0  0  0  0  0  0
  147.7624  133.7006  161.4256 F   0  0  0  0  0  0  0  0  0  0  0  0
  146.2991  136.8974  161.4803 C   0  0  0  0  0  0  0  0  0  0  0  0
  145.9158  137.9879  160.7805 N   0  5  0  0  0  0  0  0  0  0  0  0
  145.5372  137.8187  159.4822 C   0  0  0  0  0  0  0  0  0  0  0  0
  145.1711  138.7679  158.7882 O   0  0  0  0  0  0  0  0  0  0  0  0
  146.4371  134.5777  153.9023 C   0  0  0  0  0  0  0  0  0  0  0  0
  149.5649  132.2191  153.2144 H   0  0  0  0  0  0  0  0  0  0  0  0
  148.5785  133.0074  154.4310 H   0  0  0  0  0  0  0  0  0  0  0  0
  149.5417  133.9754  153.3141 H   0  0  0  0  0  0  0  0  0  0  0  0
  148.1870  133.0658  151.3959 H   0  0  0  0  0  0  0  0  0  0  0  0
  147.1345  132.2241  152.5077 H   0  0  0  0  0  0  0  0  0  0  0  0
  146.2190  134.2176  150.5271 H   0  0  0  0  0  0  0  0  0  0  0  0
  145.1408  133.5334  151.7282 H   0  0  0  0  0  0  0  0  0  0  0  0
  145.7197  136.5075  151.2652 H   0  0  0  0  0  0  0  0  0  0  0  0
  144.2308  135.6804  150.8753 H   0  0  0  0  0  0  0  0  0  0  0  0
  144.0543  136.9596  153.0253 H   0  0  0  0  0  0  0  0  0  0  0  0
  143.7758  135.2474  153.2599 H   0  0  0  0  0  0  0  0  0  0  0  0
  146.3943  136.7323  153.7615 H   0  0  0  0  0  0  0  0  0  0  0  0
  144.1956  136.2850  155.4557 H   0  0  0  0  0  0  0  0  0  0  0  0
  144.1831  136.3990  157.4119 H   0  0  0  0  0  0  0  0  0  0  0  0
  146.0665  134.4233  159.2596 H   0  0  0  0  0  0  0  0  0  0  0  0
  146.5576  137.1003  162.5414 H   0  0  0  0  0  0  0  0  0  0  0  0
  145.7779  133.7601  154.1992 H   0  0  0  0  0  0  0  0  0  0  0  0
  147.2735  134.5757  154.6003 H   0  0  0  0  0  0  0  0  0  0  0  0
  147.5354  135.1140  152.2869 H   0  0  0  0  0  0  0  0  0  0  0  0
  1  2  1  0  0  0  0
  1 24  1  0  0  0  0
  1 25  1  0  0  0  0
  1 26  1  0  0  0  0
  2  3  1  0  0  0  0
  2 27  1  0  0  0  0
  2 28  1  0  0  0  0
  3 23  1  0  0  0  0
  3  4  1  0  0  0  0
  3 42  1  0  0  0  0
  4  5  1  0  0  0  0
  4 29  1  0  0  0  0
  4 30  1  0  0  0  0
  5  6  1  0  0  0  0
  5 31  1  0  0  0  0
  5 32  1  0  0  0  0
  6  7  1  0  0  0  0
  6 33  1  0  0  0  0
  6 34  1  0  0  0  0
  7  8  1  0  0  0  0
  7 23  1  0  0  0  0
  7 35  1  0  0  0  0
  8  9  1  0  0  0  0
  8 36  1  0  0  0  0
  9 10  2  0  0  0  0
  9 11  1  0  0  0  0
 11 12  1  0  0  0  0
 11 37  1  0  0  0  0
 12 21  1  0  0  0  0
 12 13  2  0  0  0  0
 13 14  1  0  0  0  0
 13 38  1  0  0  0  0
 14 15  1  0  0  0  0
 14 19  2  0  0  0  0
 15 16  1  0  0  0  0
 15 17  1  0  0  0  0
 15 18  1  0  0  0  0
 19 20  1  0  0  0  0
 19 39  1  0  0  0  0
 20 21  1  0  0  0  0
 21 22  2  0  0  0  0
 23 40  1  0  0  0  0
 23 41  1  0  0  0  0
M  CHG  1   3   1
M  CHG  1  20  -1
M  END
> <s_m_source_file>
AV-unprocessed.smi

> <i_m_source_file_index>
1726

> <i_lp_mmshare_version>
43012

> <i_f3d_flags>
0

> <s_epik_input>
W0NIM11bQ0gyXU4xW0NIMl1bQ0gyXVtDSDJdW0NASF0oW0NIMl0xKVtOSF1DKD1PKVtOSF1jMltjSF1jKEMoRikoRilGKVtjSF1bbkhdYzI9Tw==

> <s_epik_cmdline>
J2VwaWtfcHl0aG9uJywgJy1waCcsICc3LjAnLCAnLXRuJywgJzgnLCAnLW1hJywgJzIwMCcsICctbWV0YWxfYmluZGluZycsICctaW1hZScsICc8aW5maWxlLm1hZT4nLCAnLW9tYWUnLCAnPG91dGZpbGUubWFlPic=

> <r_lp_tautomer_probability>
1

> <r_epik_Ionization_Penalty>
3.01007

> <r_epik_Ionization_Penalty_Charging>
0.14897

> <r_epik_Ionization_Penalty_Neutral>
2.8611

> <r_epik_State_Penalty>
2.85632

> <r_epik_Charging_Adjusted_Penalty>
3.00529

> <i_epik_Tot_Q>
0

> <i_epik_Tot_abs_Q>
2

> <r_epik_Metal_State_Penalty>
0.443826

> <b_epik_Metal_Only>
1

> <s_lp_Force_Field>
OPLS_2005

> <r_lp_Energy>
27.5117

> <b_lp_Chiralities_Consistent>
1

> <s_lp_Variant>
AV-unprocessed.smi:1726-5

> <Gold.Version>
5.8.1

> <Gold.Id.Protein>
6NUR|6NUR_protein|mol2

> <Gold.PLP.Fitness>
40.0033

> <Gold.PLP.PLP>
-29.7480

> <Gold.PLP.part.hbond>
-1.9690

> <Gold.PLP.part.metal>
0.0000

> <Gold.PLP.part.buried>
-2.4553

> <Gold.PLP.part.nonpolar>
-24.8258

> <Gold.PLP.part.repulsive>
0.0113

> <Gold.PLP.ligand.clash>
0.0000

> <Gold.PLP.ligand.torsion>
0.9087

> <Gold.PLP.Chemscore.Hbond>
4.0000

> <Gold.PLP.Chemscore.CHOScore>
0.0000

> <Gold.PLP.Chemscore.Metal>
0.0000

> <Gold.Chemscore.Hbonds>
donor molecule, donor type, donor heavy atom, donor atom, acceptor molecule, acceptor atom, score
      L1  H     3    42       P1  7948  2.00
      P1  H  6934  6947       L1    20  2.00

> <Gold.PLP.Chemscore.Internal.Correction>
0.0728

> <Gold.Rescore>
     Score         DG    S(hbond)    S(metal)    S(lipo)     H(rot)  DE(clash)    DE(int)     intcor
     13.35     -14.22       1.75        0.00      52.85       1.28       0.05       0.82       ----

> <Gold.Chemscore.Fitness>
13.3518

> <Gold.Chemscore.DG>
-14.2249

> <Gold.Chemscore.ZeroCoef>
-5.4800

> <Gold.Chemscore.Hbond>
1.7476

> <Gold.Chemscore.Metal>
0.0000

> <Gold.Chemscore.Lipo>
52.8522

> <Gold.Chemscore.Internal_Hbond>
0.0000

> <Gold.Chemscore.DEClash>
0.0534

> <Gold.Chemscore.DEInternal>
0.8198

> <Gold.Chemscore.Rot>
1.2796

> <Gold.Chemscore.Internal.Correction>
   9.000000E+99

> <Gold.Chemscore.Hbonds>
donor molecule, donor type, donor heavy atom, donor atom, acceptor molecule, acceptor atom, score
      L1  H     3    42       P1  7948  0.98
      P1  H  6934  6947       L1    20  0.42

> <Gold.Chemscore.Hbond.Weighted>
-5.8371

> <Gold.Chemscore.Metal.Weighted>
-0.0000

> <Gold.Chemscore.Lipo.Weighted>
-6.1837

> <Gold.Chemscore.Internal_Hbond.Weighted>
0.0000

> <Gold.Chemscore.DEClash.Weighted>
0.0534

> <Gold.Chemscore.DEInternal.Weighted>
0.8198

> <Gold.Chemscore.Rot.Weighted>
3.2759

> <Gold.Chemscore.Internal.Correction.Weighted>
   9.000000E+99

> <Gold.Protein.RotatedTorsions>
[ 6907 6896 6895 6894 ] final -126.17 input  -60.11 | X-H torsion
[ 7974 7965 7964 7962 ] final  -72.66 input  175.53 | X-H torsion
[ 8008 7997 7996 7995 ] final   72.27 input   59.86 | X-H torsion
[ 10167 10162 10161 10158 ] final   -4.49 input  -65.29 | X-H torsion
[ 10718 10713 10712 10709 ] final -144.40 input   66.30 | X-H torsion
[ 10763 10752 10751 10750 ] final -161.08 input  -60.55 | X-H torsion
[ 11005 11000 10999 10996 ] final  116.71 input  -57.11 | X-H torsion

> <Gold.Protein.ActiveResidues>
 VAL166  LYS551  ARG553  GLY616  TRP617  ASP618  TYR619  PRO620  LYS621  CYS622 
 ASP623  PHE694  ASN695  SER759  ASP760  ASP761  ALA762  ILE779  LEU786  VAL792 
 PHE793  MET794  SER795  GLU796  ALA797  LYS798  CYS799  TRP800  GLU811  SER814 

> <Gold.Protein.RotatedAtoms>
  150.8942  133.7203  159.2896 H   0  0  0  0  0  0  0  0  0  0  0  0  # atno 6907 bound_to 6896
  151.4743  135.1046  159.9770 H   0  0  0  0  0  0  0  0  0  0  0  0  # atno 6908 bound_to 6896
  152.4838  133.8274  159.7140 H   0  0  0  0  0  0  0  0  0  0  0  0  # atno 6909 bound_to 6896
  145.6623  140.9248  143.0927 H   0  0  0  0  0  0  0  0  0  0  0  0  # atno 7974 bound_to 7965
  155.7664  140.3485  155.5224 H   0  0  0  0  0  0  0  0  0  0  0  0  # atno 8008 bound_to 7997
  155.8864  140.1010  157.1470 H   0  0  0  0  0  0  0  0  0  0  0  0  # atno 8009 bound_to 7997
  154.4029  140.1312  156.4248 H   0  0  0  0  0  0  0  0  0  0  0  0  # atno 8010 bound_to 7997
  140.6929  143.6417  150.8429 H   0  0  0  0  0  0  0  0  0  0  0  0  # atno 10167 bound_to 10162
  156.3697  130.7781  151.1960 H   0  0  0  0  0  0  0  0  0  0  0  0  # atno 10718 bound_to 10713
  154.7335  135.3052  154.8851 H   0  0  0  0  0  0  0  0  0  0  0  0  # atno 10763 bound_to 10752
  153.9687  135.6744  153.4750 H   0  0  0  0  0  0  0  0  0  0  0  0  # atno 10764 bound_to 10752
  153.0940  135.4945  154.8666 H   0  0  0  0  0  0  0  0  0  0  0  0  # atno 10765 bound_to 10752
  139.9050  134.9601  156.7239 H   0  0  0  0  0  0  0  0  0  0  0  0  # atno 11005 bound_to 11000
  144.7085  139.8465  143.7422 LP  0  0  0  0  0  0  0  0  0  0  0  0  # atno 17320 bound_to 7965
  146.1115  139.4120  143.0285 LP  0  0  0  0  0  0  0  0  0  0  0  0  # atno 17321 bound_to 7965
  140.0132  143.5620  152.2830 LP  0  0  0  0  0  0  0  0  0  0  0  0  # atno 17342 bound_to 10162
  139.6352  144.7649  151.2453 LP  0  0  0  0  0  0  0  0  0  0  0  0  # atno 17343 bound_to 10162
  157.7482  131.0376  150.4462 LP  0  0  0  0  0  0  0  0  0  0  0  0  # atno 17370 bound_to 10713
  156.4687  130.4048  149.6531 LP  0  0  0  0  0  0  0  0  0  0  0  0  # atno 17371 bound_to 10713
  140.6978  133.9333  155.8006 LP  0  0  0  0  0  0  0  0  0  0  0  0  # atno 17394 bound_to 11000
  141.0394  134.0643  157.3920 LP  0  0  0  0  0  0  0  0  0  0  0  0  # atno 17395 bound_to 11000

$$$$
