AV-unprocessed.smi:2550|AV-procd|sdf|10012|dock10
  -GOLD-   2272014 53D 1   1.00000     0.00000
 Structure written by MMmdl.
 27 28  0  0  0  0  0  0  0  0  1 V2000
  152.2660  142.9982  158.7133 C   0  0  0  0  0  0  0  0  0  0  0  0
  151.0537  142.9634  157.7683 C   0  0  0  0  0  0  0  0  0  0  0  0
  149.7259  143.1315  158.5248 C   0  0  0  0  0  0  0  0  0  0  0  0
  151.1769  144.0694  156.8933 O   0  0  0  0  0  0  0  0  0  0  0  0
  151.0525  141.7238  156.9058 C   0  0  0  0  0  0  0  0  0  0  0  0
  151.7839  140.5711  157.0099 C   0  0  0  0  0  0  0  0  0  0  0  0
  151.3384  139.8070  155.9529 N   0  0  0  0  0  0  0  0  0  0  0  0
  151.8176  138.5216  155.5395 C   0  0  0  0  0  0  0  0  0  0  0  0
  152.4822  138.3237  154.1745 C   0  0  0  0  0  0  0  0  0  0  0  0
  151.8451  137.0181  154.1427 N   0  0  0  0  0  0  0  0  0  0  0  0
  150.8347  137.4355  155.0997 C   0  0  0  0  0  0  0  0  0  0  0  0
  150.4222  140.4706  155.2106 N   0  0  0  0  0  0  0  0  0  0  0  0
  150.2254  141.6153  155.7850 N   0  0  0  0  0  0  0  0  0  0  0  0
  152.2425  142.1644  159.4157 H   0  0  0  0  0  0  0  0  0  0  0  0
  152.2886  143.9184  159.2982 H   0  0  0  0  0  0  0  0  0  0  0  0
  153.2031  142.9351  158.1589 H   0  0  0  0  0  0  0  0  0  0  0  0
  149.5588  142.3054  159.2169 H   0  0  0  0  0  0  0  0  0  0  0  0
  148.8794  143.1617  157.8376 H   0  0  0  0  0  0  0  0  0  0  0  0
  149.7135  144.0538  159.1066 H   0  0  0  0  0  0  0  0  0  0  0  0
  150.3231  144.2695  156.5417 H   0  0  0  0  0  0  0  0  0  0  0  0
  152.5407  140.2459  157.7084 H   0  0  0  0  0  0  0  0  0  0  0  0
  152.4625  138.1632  156.3448 H   0  0  0  0  0  0  0  0  0  0  0  0
  152.1079  138.9812  153.3883 H   0  0  0  0  0  0  0  0  0  0  0  0
  153.5714  138.2862  154.2072 H   0  0  0  0  0  0  0  0  0  0  0  0
  151.4519  136.8035  153.2373 H   0  0  0  0  0  0  0  0  0  0  0  0
  150.6151  136.6924  155.8667 H   0  0  0  0  0  0  0  0  0  0  0  0
  149.9354  137.8126  154.6103 H   0  0  0  0  0  0  0  0  0  0  0  0
  1  2  1  0  0  0  0
  1 14  1  0  0  0  0
  1 15  1  0  0  0  0
  1 16  1  0  0  0  0
  2  3  1  0  0  0  0
  2  4  1  0  0  0  0
  2  5  1  0  0  0  0
  3 17  1  0  0  0  0
  3 18  1  0  0  0  0
  3 19  1  0  0  0  0
  4 20  1  0  0  0  0
  5 13  1  0  0  0  0
  5  6  2  0  0  0  0
  6  7  1  0  0  0  0
  6 21  1  0  0  0  0
  7  8  1  0  0  0  0
  7 12  1  0  0  0  0
  8 11  1  0  0  0  0
  8  9  1  0  0  0  0
  8 22  1  0  0  0  0
  9 10  1  0  0  0  0
  9 23  1  0  0  0  0
  9 24  1  0  0  0  0
 10 11  1  0  0  0  0
 10 25  1  0  0  0  0
 11 26  1  0  0  0  0
 11 27  1  0  0  0  0
 12 13  2  0  0  0  0
M  END
> <s_m_source_file>
AV-unprocessed.smi

> <i_m_source_file_index>
2550

> <i_lp_mmshare_version>
43012

> <i_f3d_flags>
0

> <s_epik_input>
W0NIM11DKFtDSDNdKShbT0hdKWMxW2NIXW4obm4xKVtDSF0yW0NIMl1bTkhdW0NIMl0y

> <s_epik_cmdline>
J2VwaWtfcHl0aG9uJywgJy1waCcsICc3LjAnLCAnLXRuJywgJzgnLCAnLW1hJywgJzIwMCcsICctbWV0YWxfYmluZGluZycsICctaW1hZScsICc8aW5maWxlLm1hZT4nLCAnLW9tYWUnLCAnPG91dGZpbGUubWFlPic=

> <r_lp_tautomer_probability>
1

> <r_epik_Ionization_Penalty>
0.705036

> <r_epik_Ionization_Penalty_Charging>
0

> <r_epik_Ionization_Penalty_Neutral>
0.705036

> <r_epik_State_Penalty>
0.727806

> <r_epik_Charging_Adjusted_Penalty>
0.727806

> <i_epik_Tot_Q>
0

> <i_epik_Tot_abs_Q>
0

> <r_epik_Metal_State_Penalty>
0.727613

> <b_epik_Metal_Only>
0

> <s_lp_Force_Field>
OPLS_2005

> <r_lp_Energy>
8.86137

> <b_lp_Chiralities_Consistent>
1

> <s_lp_Variant>
AV-unprocessed.smi:2550-2

> <Gold.Version>
5.8.1

> <Gold.Id.Protein>
6NUR|6NUR_protein|mol2

> <Gold.PLP.Fitness>
36.8005

> <Gold.PLP.PLP>
-25.6886

> <Gold.PLP.part.hbond>
-4.0872

> <Gold.PLP.part.metal>
0.0000

> <Gold.PLP.part.buried>
-5.2274

> <Gold.PLP.part.nonpolar>
-16.6483

> <Gold.PLP.part.repulsive>
0.1666

> <Gold.PLP.ligand.clash>
0.0000

> <Gold.PLP.ligand.torsion>
0.5282

> <Gold.PLP.Chemscore.Hbond>
3.9600

> <Gold.PLP.Chemscore.CHOScore>
0.0000

> <Gold.PLP.Chemscore.Metal>
0.0000

> <Gold.Chemscore.Hbonds>
donor molecule, donor type, donor heavy atom, donor atom, acceptor molecule, acceptor atom, score
      L1  H     4    20       P1  8028  1.00
      L1  H    10    25       P1  7949  1.00
      P1  H  7989  7998       L1    12  0.71
      P1  H 10752 10764       L1    10  0.90

> <Gold.PLP.Chemscore.Internal.Correction>
0.2882

> <Gold.Rescore>
     Score         DG    S(hbond)    S(metal)    S(lipo)     H(rot)  DE(clash)    DE(int)     intcor
     15.47     -16.45       2.43        0.00      62.15       1.73       0.16       0.82       ----

> <Gold.Chemscore.Fitness>
15.4656

> <Gold.Chemscore.DG>
-16.4493

> <Gold.Chemscore.ZeroCoef>
-5.4800

> <Gold.Chemscore.Hbond>
2.4326

> <Gold.Chemscore.Metal>
0.0000

> <Gold.Chemscore.Lipo>
62.1541

> <Gold.Chemscore.Internal_Hbond>
0.0000

> <Gold.Chemscore.DEClash>
0.1644

> <Gold.Chemscore.DEInternal>
0.8194

> <Gold.Chemscore.Rot>
1.7295

> <Gold.Chemscore.Internal.Correction>
   9.000000E+99

> <Gold.Chemscore.Hbonds>
donor molecule, donor type, donor heavy atom, donor atom, acceptor molecule, acceptor atom, score
      L1  H     4    20       P1  8028  1.00
      L1  H    10    25       P1  7949  0.84
      P1  H  7989  7998       L1    12  0.08
      P1  H 10752 10764       L1    10  0.16

> <Gold.Chemscore.Hbond.Weighted>
-8.1247

> <Gold.Chemscore.Metal.Weighted>
-0.0000

> <Gold.Chemscore.Lipo.Weighted>
-7.2720

> <Gold.Chemscore.Internal_Hbond.Weighted>
0.0000

> <Gold.Chemscore.DEClash.Weighted>
0.1644

> <Gold.Chemscore.DEInternal.Weighted>
0.8194

> <Gold.Chemscore.Rot.Weighted>
4.4275

> <Gold.Chemscore.Internal.Correction.Weighted>
   9.000000E+99

> <Gold.Protein.RotatedTorsions>
[ 6907 6896 6895 6894 ] final -148.70 input  -60.11 | X-H torsion
[ 7974 7965 7964 7962 ] final    4.12 input  175.53 | X-H torsion
[ 8008 7997 7996 7995 ] final  140.82 input   59.86 | X-H torsion
[ 10167 10162 10161 10158 ] final -122.86 input  -65.29 | X-H torsion
[ 10718 10713 10712 10709 ] final    8.38 input   66.30 | X-H torsion
[ 10763 10752 10751 10750 ] final  -80.54 input  -60.55 | X-H torsion
[ 11005 11000 10999 10996 ] final  112.36 input  -57.11 | X-H torsion

> <Gold.Protein.ActiveResidues>
 VAL166  LYS551  ARG553  GLY616  TRP617  ASP618  TYR619  PRO620  LYS621  CYS622 
 ASP623  PHE694  ASN695  SER759  ASP760  ASP761  ALA762  ILE779  LEU786  VAL792 
 PHE793  MET794  SER795  GLU796  ALA797  LYS798  CYS799  TRP800  GLU811  SER814 

> <Gold.Protein.RotatedAtoms>
  151.1736  133.4769  159.2593 H   0  0  0  0  0  0  0  0  0  0  0  0  # atno 6907 bound_to 6896
  151.1331  135.0140  159.8601 H   0  0  0  0  0  0  0  0  0  0  0  0  # atno 6908 bound_to 6896
  152.5460  134.1636  159.8621 H   0  0  0  0  0  0  0  0  0  0  0  0  # atno 6909 bound_to 6896
  146.2444  140.0582  142.8370 H   0  0  0  0  0  0  0  0  0  0  0  0  # atno 7974 bound_to 7965
  156.2974  140.2331  156.4464 H   0  0  0  0  0  0  0  0  0  0  0  0  # atno 8008 bound_to 7997
  154.8140  140.0441  157.1384 H   0  0  0  0  0  0  0  0  0  0  0  0  # atno 8009 bound_to 7997
  154.9390  140.3027  155.5133 H   0  0  0  0  0  0  0  0  0  0  0  0  # atno 8010 bound_to 7997
  140.0098  143.5454  152.2268 H   0  0  0  0  0  0  0  0  0  0  0  0  # atno 10167 bound_to 10162
  156.9508  130.5896  149.5656 H   0  0  0  0  0  0  0  0  0  0  0  0  # atno 10718 bound_to 10713
  154.5524  135.5657  153.6934 H   0  0  0  0  0  0  0  0  0  0  0  0  # atno 10763 bound_to 10752
  152.9993  135.6254  154.2355 H   0  0  0  0  0  0  0  0  0  0  0  0  # atno 10764 bound_to 10752
  154.2291  135.2866  155.2876 H   0  0  0  0  0  0  0  0  0  0  0  0  # atno 10765 bound_to 10752
  139.8925  134.9528  156.6574 H   0  0  0  0  0  0  0  0  0  0  0  0  # atno 11005 bound_to 11000
  145.0923  140.9292  143.4761 LP  0  0  0  0  0  0  0  0  0  0  0  0  # atno 17320 bound_to 7965
  145.0758  139.2997  143.5809 LP  0  0  0  0  0  0  0  0  0  0  0  0  # atno 17321 bound_to 7965
  139.6213  144.7629  151.2734 LP  0  0  0  0  0  0  0  0  0  0  0  0  # atno 17342 bound_to 10162
  140.7386  143.6643  150.8137 LP  0  0  0  0  0  0  0  0  0  0  0  0  # atno 17343 bound_to 10162
  156.0364  130.5451  150.8663 LP  0  0  0  0  0  0  0  0  0  0  0  0  # atno 17370 bound_to 10713
  157.5723  131.0946  150.9398 LP  0  0  0  0  0  0  0  0  0  0  0  0  # atno 17371 bound_to 10713
  140.7473  133.8927  155.8321 LP  0  0  0  0  0  0  0  0  0  0  0  0  # atno 17394 bound_to 11000
  141.0029  134.1126  157.4299 LP  0  0  0  0  0  0  0  0  0  0  0  0  # atno 17395 bound_to 11000

$$$$
