AV-unprocessed.smi:375|AV-procd|sdf|2454|dock7
  -GOLD-   2262022393D 1   1.00000     0.00000
 Structure written by MMmdl.
 36 38  0  0  0  0  0  0  0  0  1 V2000
  154.4492  141.5458  159.9391 C   0  0  0  0  0  0  0  0  0  0  0  0
  153.1392  141.6762  159.3127 N   0  0  0  0  0  0  0  0  0  0  0  0
  152.5243  140.7754  158.5106 C   0  0  0  0  0  0  0  0  0  0  0  0
  152.9756  139.6819  158.1705 O   0  0  0  0  0  0  0  0  0  0  0  0
  151.3256  141.2891  158.1463 N   0  0  0  0  0  0  0  0  0  0  0  0
  150.3386  140.6615  157.2700 C   0  0  0  0  0  0  0  0  0  0  0  0
  150.5426  141.0623  155.7956 C   0  0  1  0  0  0  0  0  0  0  0  0
  151.7077  140.4234  155.3103 O   0  0  0  0  0  0  0  0  0  0  0  0
  149.3179  140.7019  154.9640 C   0  0  0  0  0  0  0  0  0  0  0  0
  148.4470  141.7129  154.4980 C   0  0  0  0  0  0  0  0  0  0  0  0
  147.3212  141.3814  153.7198 C   0  0  0  0  0  0  0  0  0  0  0  0
  147.0597  140.0365  153.3974 C   0  0  0  0  0  0  0  0  0  0  0  0
  147.9271  139.0247  153.8505 C   0  0  0  0  0  0  0  0  0  0  0  0
  149.0540  139.3538  154.6291 C   0  0  0  0  0  0  0  0  0  0  0  0
  149.8820  138.3663  155.0475 F   0  0  0  0  0  0  0  0  0  0  0  0
  151.1738  142.5571  158.7256 C   0  0  0  0  0  0  0  0  0  0  0  0
  150.1268  143.4920  158.6476 C   0  0  0  0  0  0  0  0  0  0  0  0
  150.2870  144.7023  159.3626 C   0  0  0  0  0  0  0  0  0  0  0  0
  151.4603  144.9484  160.1225 C   0  0  0  0  0  0  0  0  0  0  0  0
  152.4996  143.9904  160.1819 C   0  0  0  0  0  0  0  0  0  0  0  0
  152.3146  142.7984  159.4612 C   0  0  0  0  0  0  0  0  0  0  0  0
  154.9569  140.6273  159.6421 H   0  0  0  0  0  0  0  0  0  0  0  0
  154.3475  141.5404  161.0245 H   0  0  0  0  0  0  0  0  0  0  0  0
  155.0860  142.3855  159.6592 H   0  0  0  0  0  0  0  0  0  0  0  0
  150.3331  139.5761  157.3866 H   0  0  0  0  0  0  0  0  0  0  0  0
  149.3567  140.9980  157.6052 H   0  0  0  0  0  0  0  0  0  0  0  0
  150.7115  142.1372  155.7226 H   0  0  0  0  0  0  0  0  0  0  0  0
  151.5603  139.4900  155.3117 H   0  0  0  0  0  0  0  0  0  0  0  0
  148.6412  142.7493  154.7327 H   0  0  0  0  0  0  0  0  0  0  0  0
  146.6594  142.1595  153.3687 H   0  0  0  0  0  0  0  0  0  0  0  0
  146.1970  139.7816  152.7998 H   0  0  0  0  0  0  0  0  0  0  0  0
  147.7294  137.9933  153.5984 H   0  0  0  0  0  0  0  0  0  0  0  0
  149.2369  143.2993  158.0670 H   0  0  0  0  0  0  0  0  0  0  0  0
  149.5065  145.4481  159.3293 H   0  0  0  0  0  0  0  0  0  0  0  0
  151.5619  145.8791  160.6611 H   0  0  0  0  0  0  0  0  0  0  0  0
  153.3964  144.1703  160.7561 H   0  0  0  0  0  0  0  0  0  0  0  0
  1  2  1  0  0  0  0
  1 22  1  0  0  0  0
  1 23  1  0  0  0  0
  1 24  1  0  0  0  0
  2 21  1  0  0  0  0
  2  3  1  0  0  0  0
  3  4  2  0  0  0  0
  3  5  1  0  0  0  0
  5  6  1  0  0  0  0
  5 16  1  0  0  0  0
  6  7  1  0  0  0  0
  6 25  1  0  0  0  0
  6 26  1  0  0  0  0
  7  8  1  0  0  0  0
  7  9  1  0  0  0  0
  7 27  1  0  0  0  0
  8 28  1  0  0  0  0
  9 14  1  0  0  0  0
  9 10  2  0  0  0  0
 10 11  1  0  0  0  0
 10 29  1  0  0  0  0
 11 12  2  0  0  0  0
 11 30  1  0  0  0  0
 12 13  1  0  0  0  0
 12 31  1  0  0  0  0
 13 14  2  0  0  0  0
 13 32  1  0  0  0  0
 14 15  1  0  0  0  0
 16 21  2  0  0  0  0
 16 17  1  0  0  0  0
 17 18  2  0  0  0  0
 17 33  1  0  0  0  0
 18 19  1  0  0  0  0
 18 34  1  0  0  0  0
 19 20  2  0  0  0  0
 19 35  1  0  0  0  0
 20 21  1  0  0  0  0
 20 36  1  0  0  0  0
M  END
> <s_m_source_file>
AV-unprocessed.smi

> <i_m_source_file_index>
375

> <i_lp_mmshare_version>
43012

> <i_f3d_flags>
0

> <s_epik_input>
W2NIXTFbY0hdW2NIXVtjSF1jKGMxMiluKFtDSDNdKWMoPU8pbjJbQ0gyXVtDQEhdKFtPSF0pYzNbY0hdW2NIXVtjSF1bY0hdYzNG

> <s_epik_cmdline>
J2VwaWtfcHl0aG9uJywgJy1waCcsICc3LjAnLCAnLXRuJywgJzgnLCAnLW1hJywgJzIwMCcsICctbWV0YWxfYmluZGluZycsICctaW1hZScsICc8aW5maWxlLm1hZT4nLCAnLW9tYWUnLCAnPG91dGZpbGUubWFlPic=

> <r_lp_tautomer_probability>
1

> <r_epik_Ionization_Penalty>
1.34619e-06

> <r_epik_Ionization_Penalty_Charging>
2.57375e-09

> <r_epik_Ionization_Penalty_Neutral>
1.34362e-06

> <r_epik_State_Penalty>
-0

> <r_epik_Charging_Adjusted_Penalty>
2.57375e-09

> <i_epik_Tot_Q>
0

> <i_epik_Tot_abs_Q>
0

> <r_epik_Metal_State_Penalty>
-0

> <b_epik_Metal_Only>
0

> <s_lp_Force_Field>
OPLS_2005

> <r_lp_Energy>
44.2188

> <b_lp_Chiralities_Consistent>
1

> <s_lp_Variant>
AV-unprocessed.smi:375-2

> <Gold.Version>
5.8.1

> <Gold.Id.Protein>
6NUR|6NUR_protein|mol2

> <Gold.PLP.Fitness>
52.2581

> <Gold.PLP.PLP>
-48.3819

> <Gold.PLP.part.hbond>
-2.0000

> <Gold.PLP.part.metal>
0.0000

> <Gold.PLP.part.buried>
-4.4615

> <Gold.PLP.part.nonpolar>
-41.5344

> <Gold.PLP.part.repulsive>
0.0000

> <Gold.PLP.ligand.clash>
0.0000

> <Gold.PLP.ligand.torsion>
0.7419

> <Gold.PLP.Chemscore.Hbond>
1.7840

> <Gold.PLP.Chemscore.CHOScore>
0.0000

> <Gold.PLP.Chemscore.Metal>
0.0000

> <Gold.Chemscore.Hbonds>
donor molecule, donor type, donor heavy atom, donor atom, acceptor molecule, acceptor atom, score
      P1  H  7989  7998       L1     8  0.80
      P1  H  7997  8009       L1     4  0.99

> <Gold.PLP.Chemscore.Internal.Correction>
0.0080

> <Gold.Rescore>
     Score         DG    S(hbond)    S(metal)    S(lipo)     H(rot)  DE(clash)    DE(int)     intcor
     16.07     -18.03       1.08        0.00     116.92       1.85       0.11       1.86       ----

> <Gold.Chemscore.Fitness>
16.0720

> <Gold.Chemscore.DG>
-18.0343

> <Gold.Chemscore.ZeroCoef>
-5.4800

> <Gold.Chemscore.Hbond>
1.0783

> <Gold.Chemscore.Metal>
0.0000

> <Gold.Chemscore.Lipo>
116.9224

> <Gold.Chemscore.Internal_Hbond>
0.0000

> <Gold.Chemscore.DEClash>
0.1062

> <Gold.Chemscore.DEInternal>
1.8561

> <Gold.Chemscore.Rot>
1.8465

> <Gold.Chemscore.Internal.Correction>
   9.000000E+99

> <Gold.Chemscore.Hbonds>
donor molecule, donor type, donor heavy atom, donor atom, acceptor molecule, acceptor atom, score
      P1  H  7989  7998       L1     8  0.12
      P1  H  7997  8009       L1     4  0.55

> <Gold.Chemscore.Hbond.Weighted>
-3.6014

> <Gold.Chemscore.Metal.Weighted>
-0.0000

> <Gold.Chemscore.Lipo.Weighted>
-13.6799

> <Gold.Chemscore.Internal_Hbond.Weighted>
0.0000

> <Gold.Chemscore.DEClash.Weighted>
0.1062

> <Gold.Chemscore.DEInternal.Weighted>
1.8561

> <Gold.Chemscore.Rot.Weighted>
4.7270

> <Gold.Chemscore.Internal.Correction.Weighted>
   9.000000E+99

> <Gold.Protein.RotatedTorsions>
[ 6907 6896 6895 6894 ] final  -26.14 input  -60.11 | X-H torsion
[ 7974 7965 7964 7962 ] final   14.87 input  175.53 | X-H torsion
[ 8008 7997 7996 7995 ] final  146.10 input   59.86 | X-H torsion
[ 10167 10162 10161 10158 ] final -145.95 input  -65.29 | X-H torsion
[ 10718 10713 10712 10709 ] final  134.45 input   66.30 | X-H torsion
[ 10763 10752 10751 10750 ] final  -15.05 input  -60.55 | X-H torsion
[ 11005 11000 10999 10996 ] final   -2.46 input  -57.11 | X-H torsion

> <Gold.Protein.ActiveResidues>
 VAL166  LYS551  ARG553  GLY616  TRP617  ASP618  TYR619  PRO620  LYS621  CYS622 
 ASP623  PHE694  ASN695  SER759  ASP760  ASP761  ALA762  ILE779  LEU786  VAL792 
 PHE793  MET794  SER795  GLU796  ALA797  LYS798  CYS799  TRP800  GLU811  SER814 

> <Gold.Protein.RotatedAtoms>
  151.1652  135.0292  159.8727 H   0  0  0  0  0  0  0  0  0  0  0  0  # atno 6907 bound_to 6896
  152.5450  134.1234  159.8418 H   0  0  0  0  0  0  0  0  0  0  0  0  # atno 6908 bound_to 6896
  151.1333  133.4975  159.2631 H   0  0  0  0  0  0  0  0  0  0  0  0  # atno 6909 bound_to 6896
  146.2294  139.8978  142.8544 H   0  0  0  0  0  0  0  0  0  0  0  0  # atno 7974 bound_to 7965
  156.2865  140.2191  156.5321 H   0  0  0  0  0  0  0  0  0  0  0  0  # atno 8008 bound_to 7997
  154.7440  140.0485  157.0858 H   0  0  0  0  0  0  0  0  0  0  0  0  # atno 8009 bound_to 7997
  155.0195  140.3122  155.4802 H   0  0  0  0  0  0  0  0  0  0  0  0  # atno 8010 bound_to 7997
  139.7758  143.8171  152.2631 H   0  0  0  0  0  0  0  0  0  0  0  0  # atno 10167 bound_to 10162
  157.4671  131.1077  150.9848 H   0  0  0  0  0  0  0  0  0  0  0  0  # atno 10718 bound_to 10713
  153.5375  135.7014  153.5653 H   0  0  0  0  0  0  0  0  0  0  0  0  # atno 10763 bound_to 10752
  153.3633  135.3964  155.1734 H   0  0  0  0  0  0  0  0  0  0  0  0  # atno 10764 bound_to 10752
  154.8677  135.3794  154.4877 H   0  0  0  0  0  0  0  0  0  0  0  0  # atno 10765 bound_to 10752
  140.6586  133.9340  155.8422 H   0  0  0  0  0  0  0  0  0  0  0  0  # atno 11005 bound_to 11000
  145.2354  140.9989  143.3966 LP  0  0  0  0  0  0  0  0  0  0  0  0  # atno 17320 bound_to 7965
  144.9496  139.4098  143.6409 LP  0  0  0  0  0  0  0  0  0  0  0  0  # atno 17321 bound_to 7965
  139.8219  144.7292  150.9561 LP  0  0  0  0  0  0  0  0  0  0  0  0  # atno 17342 bound_to 10162
  140.7816  143.4151  151.0931 LP  0  0  0  0  0  0  0  0  0  0  0  0  # atno 17343 bound_to 10162
  157.0626  130.5831  149.5388 LP  0  0  0  0  0  0  0  0  0  0  0  0  # atno 17370 bound_to 10713
  156.0056  130.5142  150.7816 LP  0  0  0  0  0  0  0  0  0  0  0  0  # atno 17371 bound_to 10713
  141.0482  134.0522  157.3817 LP  0  0  0  0  0  0  0  0  0  0  0  0  # atno 17394 bound_to 11000
  139.9021  135.0168  156.7316 LP  0  0  0  0  0  0  0  0  0  0  0  0  # atno 17395 bound_to 11000

$$$$
