AV-unprocessed.smi:886|AV-procd|sdf|4051|dock10
  -GOLD-   22720 1543D 1   1.00000     0.00000
 Structure written by MMmdl.
 35 37  0  0  0  0  0  0  0  0  1 V2000
  154.9010  140.3391  161.9072 C   0  0  0  0  0  0  0  0  0  0  0  0
  154.0311  141.2127  161.1353 N   0  0  0  0  0  0  0  0  0  0  0  0
  153.7354  141.0302  159.8392 C   0  0  0  0  0  0  0  0  0  0  0  0
  154.1912  140.1042  159.1669 O   0  0  0  0  0  0  0  0  0  0  0  0
  152.8224  142.0674  159.2361 C   0  0  0  0  0  0  0  0  0  0  0  0
  152.7534  143.3560  159.8167 C   0  0  0  0  0  0  0  0  0  0  0  0
  151.8835  144.3181  159.2737 C   0  0  0  0  0  0  0  0  0  0  0  0
  151.1012  143.9556  158.1643 C   0  0  0  0  0  0  0  0  0  0  0  0
  151.1463  142.7322  157.6003 N   0  0  0  0  0  0  0  0  0  0  0  0
  151.9807  141.7976  158.1178 C   0  0  0  0  0  0  0  0  0  0  0  0
  152.0057  140.5437  157.4817 N   0  0  0  0  0  0  0  0  0  0  0  0
  151.8206  140.4415  156.0371 C   0  0  1  0  0  0  0  0  0  0  0  0
  151.8801  138.9978  155.5318 C   0  0  0  0  0  0  0  0  0  0  0  0
  150.5527  138.8734  154.7714 C   0  0  1  0  0  0  0  0  0  0  0  0
  149.3613  138.7659  155.7324 C   0  0  0  0  0  0  0  0  0  0  0  0
  149.2600  140.1951  156.2609 C   0  0  0  0  0  0  0  0  0  0  0  0
  150.4297  140.8856  155.5386 C   0  0  2  0  0  0  0  0  0  0  0  0
  150.3883  140.2000  154.2985 O   0  0  0  0  0  0  0  0  0  0  0  0
  154.9666  140.6938  162.9357 H   0  0  0  0  0  0  0  0  0  0  0  0
  155.9075  140.3239  161.4871 H   0  0  0  0  0  0  0  0  0  0  0  0
  154.5137  139.3194  161.9220 H   0  0  0  0  0  0  0  0  0  0  0  0
  153.6300  142.0065  161.6136 H   0  0  0  0  0  0  0  0  0  0  0  0
  153.3550  143.6120  160.6769 H   0  0  0  0  0  0  0  0  0  0  0  0
  151.8156  145.3081  159.6994 H   0  0  0  0  0  0  0  0  0  0  0  0
  150.4211  144.6658  157.7181 H   0  0  0  0  0  0  0  0  0  0  0  0
  151.7169  139.7473  158.0319 H   0  0  0  0  0  0  0  0  0  0  0  0
  152.5945  141.0177  155.5277 H   0  0  0  0  0  0  0  0  0  0  0  0
  152.7273  138.8691  154.8575 H   0  0  0  0  0  0  0  0  0  0  0  0
  151.9663  138.2553  156.3265 H   0  0  0  0  0  0  0  0  0  0  0  0
  150.5595  138.1136  153.9897 H   0  0  0  0  0  0  0  0  0  0  0  0
  148.4515  138.4897  155.1984 H   0  0  0  0  0  0  0  0  0  0  0  0
  149.5304  138.0337  156.5227 H   0  0  0  0  0  0  0  0  0  0  0  0
  148.3111  140.6417  155.9618 H   0  0  0  0  0  0  0  0  0  0  0  0
  149.3289  140.2555  157.3470 H   0  0  0  0  0  0  0  0  0  0  0  0
  150.3150  141.9664  155.4513 H   0  0  0  0  0  0  0  0  0  0  0  0
  1  2  1  0  0  0  0
  1 19  1  0  0  0  0
  1 20  1  0  0  0  0
  1 21  1  0  0  0  0
  2  3  1  0  0  0  0
  2 22  1  0  0  0  0
  3  4  2  0  0  0  0
  3  5  1  0  0  0  0
  5 10  1  0  0  0  0
  5  6  2  0  0  0  0
  6  7  1  0  0  0  0
  6 23  1  0  0  0  0
  7  8  2  0  0  0  0
  7 24  1  0  0  0  0
  8  9  1  0  0  0  0
  8 25  1  0  0  0  0
  9 10  2  0  0  0  0
 10 11  1  0  0  0  0
 11 12  1  0  0  0  0
 11 26  1  0  0  0  0
 12 17  1  0  0  0  0
 12 13  1  0  0  0  0
 12 27  1  0  0  0  0
 13 14  1  0  0  0  0
 13 28  1  0  0  0  0
 13 29  1  0  0  0  0
 14 18  1  0  0  0  0
 14 15  1  0  0  0  0
 14 30  1  0  0  0  0
 15 16  1  0  0  0  0
 15 31  1  0  0  0  0
 15 32  1  0  0  0  0
 16 17  1  0  0  0  0
 16 33  1  0  0  0  0
 16 34  1  0  0  0  0
 17 18  1  0  0  0  0
 17 35  1  0  0  0  0
M  END
> <s_m_source_file>
AV-unprocessed.smi

> <i_m_source_file_index>
886

> <i_lp_mmshare_version>
43012

> <i_f3d_flags>
0

> <s_epik_input>
W0NIM11bTkhdQyg9TyljMVtjSF1bY0hdW2NIXW5jMVtOSF1bQ0BIXShbQ0gyXVtDQEhdMjMpW0NASF0oTzMpW0NIMl1bQ0gyXTI=

> <s_epik_cmdline>
J2VwaWtfcHl0aG9uJywgJy1waCcsICc3LjAnLCAnLXRuJywgJzgnLCAnLW1hJywgJzIwMCcsICctbWV0YWxfYmluZGluZycsICctaW1hZScsICc8aW5maWxlLm1hZT4nLCAnLW9tYWUnLCAnPG91dGZpbGUubWFlPic=

> <r_lp_tautomer_probability>
1

> <r_epik_Ionization_Penalty>
0.0065447

> <r_epik_Ionization_Penalty_Charging>
0

> <r_epik_Ionization_Penalty_Neutral>
0.0065447

> <r_epik_State_Penalty>
0.00484214

> <r_epik_Charging_Adjusted_Penalty>
0.00484214

> <i_epik_Tot_Q>
0

> <i_epik_Tot_abs_Q>
0

> <r_epik_Metal_State_Penalty>
-0

> <b_epik_Metal_Only>
0

> <s_lp_Force_Field>
OPLS_2005

> <r_lp_Energy>
46.6605

> <b_lp_Chiralities_Consistent>
1

> <s_lp_Variant>
AV-unprocessed.smi:886-4

> <Gold.Version>
5.8.1

> <Gold.Id.Protein>
6NUR|6NUR_protein|mol2

> <Gold.PLP.Fitness>
44.1512

> <Gold.PLP.PLP>
-36.1000

> <Gold.PLP.part.hbond>
-2.0000

> <Gold.PLP.part.metal>
0.0000

> <Gold.PLP.part.buried>
-5.1385

> <Gold.PLP.part.nonpolar>
-29.2726

> <Gold.PLP.part.repulsive>
0.3128

> <Gold.PLP.ligand.clash>
0.0000

> <Gold.PLP.ligand.torsion>
0.5385

> <Gold.PLP.Chemscore.Hbond>
1.9920

> <Gold.PLP.Chemscore.CHOScore>
1.0458

> <Gold.PLP.Chemscore.Metal>
0.0000

> <Gold.Chemscore.Hbonds>
donor molecule, donor type, donor heavy atom, donor atom, acceptor molecule, acceptor atom, score
      P1  H  7989  7998       L1    18  1.00
      P1  H  7997  8008       L1     4  0.98
      L1  C     8    25       P1  8028  0.99
      L1  C     8    25       P1  8029  0.06

> <Gold.PLP.Chemscore.Internal.Correction>
0.0146

> <Gold.Rescore>
     Score         DG    S(hbond)    S(metal)    S(lipo)     H(rot)  DE(clash)    DE(int)     intcor
     16.90     -18.78       1.64        0.00      88.68       1.00       0.00       1.88       ----

> <Gold.Chemscore.Fitness>
16.9001

> <Gold.Chemscore.DG>
-18.7816

> <Gold.Chemscore.ZeroCoef>
-5.4800

> <Gold.Chemscore.Hbond>
1.6424

> <Gold.Chemscore.Metal>
0.0000

> <Gold.Chemscore.Lipo>
88.6828

> <Gold.Chemscore.Internal_Hbond>
0.0000

> <Gold.Chemscore.DEClash>
0.0009

> <Gold.Chemscore.DEInternal>
1.8806

> <Gold.Chemscore.Rot>
1.0000

> <Gold.Chemscore.Internal.Correction>
   9.000000E+99

> <Gold.Chemscore.Hbonds>
donor molecule, donor type, donor heavy atom, donor atom, acceptor molecule, acceptor atom, score
      P1  H  7989  7998       L1    18  0.37
      P1  H  7997  8008       L1     4  0.87

> <Gold.Chemscore.Hbond.Weighted>
-5.4857

> <Gold.Chemscore.Metal.Weighted>
-0.0000

> <Gold.Chemscore.Lipo.Weighted>
-10.3759

> <Gold.Chemscore.Internal_Hbond.Weighted>
0.0000

> <Gold.Chemscore.DEClash.Weighted>
0.0009

> <Gold.Chemscore.DEInternal.Weighted>
1.8806

> <Gold.Chemscore.Rot.Weighted>
2.5600

> <Gold.Chemscore.Internal.Correction.Weighted>
   9.000000E+99

> <Gold.Protein.RotatedTorsions>
[ 6907 6896 6895 6894 ] final  -33.91 input  -60.11 | X-H torsion
[ 7974 7965 7964 7962 ] final -157.42 input  175.53 | X-H torsion
[ 8008 7997 7996 7995 ] final -114.03 input   59.86 | X-H torsion
[ 10167 10162 10161 10158 ] final   88.58 input  -65.29 | X-H torsion
[ 10718 10713 10712 10709 ] final  128.50 input   66.30 | X-H torsion
[ 10763 10752 10751 10750 ] final   88.17 input  -60.55 | X-H torsion
[ 11005 11000 10999 10996 ] final   72.71 input  -57.11 | X-H torsion

> <Gold.Protein.ActiveResidues>
 VAL166  LYS551  ARG553  GLY616  TRP617  ASP618  TYR619  PRO620  LYS621  CYS622 
 ASP623  PHE694  ASN695  SER759  ASP760  ASP761  ALA762  ILE779  LEU786  VAL792 
 PHE793  MET794  SER795  GLU796  ALA797  LYS798  CYS799  TRP800  GLU811  SER814 

> <Gold.Protein.RotatedAtoms>
  151.0595  134.9727  159.8252 H   0  0  0  0  0  0  0  0  0  0  0  0  # atno 6907 bound_to 6896
  152.5393  134.2436  159.8881 H   0  0  0  0  0  0  0  0  0  0  0  0  # atno 6908 bound_to 6896
  151.2455  133.4334  159.2643 H   0  0  0  0  0  0  0  0  0  0  0  0  # atno 6909 bound_to 6896
  144.7549  140.3972  143.6020 H   0  0  0  0  0  0  0  0  0  0  0  0  # atno 7974 bound_to 7965
  155.0300  140.0393  157.2470 H   0  0  0  0  0  0  0  0  0  0  0  0  # atno 8008 bound_to 7997
  154.7305  140.2729  155.6437 H   0  0  0  0  0  0  0  0  0  0  0  0  # atno 8009 bound_to 7997
  156.2840  140.2685  156.2003 H   0  0  0  0  0  0  0  0  0  0  0  0  # atno 8010 bound_to 7997
  139.8659  144.6519  150.9005 H   0  0  0  0  0  0  0  0  0  0  0  0  # atno 10167 bound_to 10162
  157.5239  131.1098  150.9112 H   0  0  0  0  0  0  0  0  0  0  0  0  # atno 10718 bound_to 10713
  153.1741  135.4517  154.9942 H   0  0  0  0  0  0  0  0  0  0  0  0  # atno 10763 bound_to 10752
  154.7986  135.3247  154.7608 H   0  0  0  0  0  0  0  0  0  0  0  0  # atno 10764 bound_to 10752
  153.8080  135.6957  153.4900 H   0  0  0  0  0  0  0  0  0  0  0  0  # atno 10765 bound_to 10752
  139.9477  134.7283  156.0939 H   0  0  0  0  0  0  0  0  0  0  0  0  # atno 11005 bound_to 11000
  145.6813  139.1619  143.2699 LP  0  0  0  0  0  0  0  0  0  0  0  0  # atno 17320 bound_to 7965
  146.1547  140.6875  142.9305 LP  0  0  0  0  0  0  0  0  0  0  0  0  # atno 17321 bound_to 7965
  140.7768  143.3705  151.1659 LP  0  0  0  0  0  0  0  0  0  0  0  0  # atno 17342 bound_to 10162
  139.7330  143.9043  152.3025 LP  0  0  0  0  0  0  0  0  0  0  0  0  # atno 17343 bound_to 10162
  156.9714  130.5492  149.5291 LP  0  0  0  0  0  0  0  0  0  0  0  0  # atno 17370 bound_to 10713
  156.0373  130.5459  150.8685 LP  0  0  0  0  0  0  0  0  0  0  0  0  # atno 17371 bound_to 10713
  141.1132  133.6636  156.3029 LP  0  0  0  0  0  0  0  0  0  0  0  0  # atno 17394 bound_to 11000
  140.5794  134.5760  157.5476 LP  0  0  0  0  0  0  0  0  0  0  0  0  # atno 17395 bound_to 11000

$$$$
