AV-unprocessed.smi:213|AV-procd|sdf|1638|dock3
  -GOLD-   2262020 03D 1   1.00000     0.00000
 Structure written by MMmdl.
 59 62  0  0  0  0  0  0  0  0  2 V2000
  150.5091  134.5085  155.8627 C   0  0  0  0  0  0  0  0  0  0  0  0
  149.3596  135.1618  155.0736 C   0  0  1  0  0  0  0  0  0  0  0  0
  148.2150  134.1698  154.7673 C   0  0  0  0  0  0  0  0  0  0  0  0
  147.4844  134.4991  153.5166 N   0  3  0  0  0  0  0  0  0  0  0  0
  147.2179  133.3019  152.6836 C   0  0  0  0  0  0  0  0  0  0  0  0
  146.5159  133.7013  151.3746 C   0  0  0  0  0  0  0  0  0  0  0  0
  145.3140  134.4006  151.6721 O   0  0  0  0  0  0  0  0  0  0  0  0
  145.5614  135.5987  152.3970 C   0  0  0  0  0  0  0  0  0  0  0  0
  146.2308  135.2618  153.7402 C   0  0  0  0  0  0  0  0  0  0  0  0
  148.8600  136.3524  155.7729 N   0  0  0  0  0  0  0  0  0  0  0  0
  147.9565  136.2235  156.9129 C   0  0  0  0  0  0  0  0  0  0  0  0
  149.5748  137.5014  155.6536 C   0  0  0  0  0  0  0  0  0  0  0  0
  149.8312  137.9607  154.4005 N   0  0  0  0  0  0  0  0  0  0  0  0
  150.5211  139.0906  154.2209 C   0  0  0  0  0  0  0  0  0  0  0  0
  151.0421  139.9046  155.1399 N   0  0  0  0  0  0  0  0  0  0  0  0
  150.7939  139.4489  156.4006 C   0  0  0  0  0  0  0  0  0  0  0  0
  150.0737  138.2697  156.7476 C   0  0  0  0  0  0  0  0  0  0  0  0
  150.0411  138.1350  158.1321 N   0  0  0  0  0  0  0  0  0  0  0  0
  150.6953  139.1739  158.5747 C   0  0  0  0  0  0  0  0  0  0  0  0
  151.1846  140.0135  157.6011 N   0  0  0  0  0  0  0  0  0  0  0  0
  151.9507  141.2310  157.8011 C   0  0  0  0  0  0  0  0  0  0  0  0
  151.0546  142.4838  157.8617 C   0  0  2  0  0  0  0  0  0  0  0  0
  150.7439  142.8967  156.5441 O   0  0  0  0  0  0  0  0  0  0  0  0
  151.7299  143.6520  158.6032 C   0  0  1  0  0  0  0  0  0  0  0  0
  150.9347  144.9600  158.5839 C   0  0  0  0  0  0  0  0  0  0  0  0
  151.3751  145.6763  159.8523 C   0  0  0  0  0  0  0  0  0  0  0  0
  152.1297  144.6055  160.6434 C   0  0  0  0  0  0  0  0  0  0  0  0
  151.8138  143.3828  159.9943 O   0  0  0  0  0  0  0  0  0  0  0  0
  150.9598  133.6897  155.3019 H   0  0  0  0  0  0  0  0  0  0  0  0
  150.1659  134.1058  156.8159 H   0  0  0  0  0  0  0  0  0  0  0  0
  151.2992  135.2307  156.0714 H   0  0  0  0  0  0  0  0  0  0  0  0
  149.7851  135.4766  154.1224 H   0  0  0  0  0  0  0  0  0  0  0  0
  148.6329  133.1670  154.6747 H   0  0  0  0  0  0  0  0  0  0  0  0
  147.5076  134.1321  155.5976 H   0  0  0  0  0  0  0  0  0  0  0  0
  148.1544  132.7924  152.4537 H   0  0  0  0  0  0  0  0  0  0  0  0
  146.5975  132.5984  153.2414 H   0  0  0  0  0  0  0  0  0  0  0  0
  147.1679  134.3197  150.7552 H   0  0  0  0  0  0  0  0  0  0  0  0
  146.2727  132.8125  150.7921 H   0  0  0  0  0  0  0  0  0  0  0  0
  146.1858  136.2729  151.8083 H   0  0  0  0  0  0  0  0  0  0  0  0
  144.6138  136.1101  152.5672 H   0  0  0  0  0  0  0  0  0  0  0  0
  145.5493  134.6744  154.3576 H   0  0  0  0  0  0  0  0  0  0  0  0
  146.4330  136.1862  154.2795 H   0  0  0  0  0  0  0  0  0  0  0  0
  147.4912  137.1802  157.1529 H   0  0  0  0  0  0  0  0  0  0  0  0
  148.4929  135.8704  157.7937 H   0  0  0  0  0  0  0  0  0  0  0  0
  147.1530  135.5194  156.7024 H   0  0  0  0  0  0  0  0  0  0  0  0
  150.6772  139.3854  153.1936 H   0  0  0  0  0  0  0  0  0  0  0  0
  150.8454  139.3528  159.6296 H   0  0  0  0  0  0  0  0  0  0  0  0
  152.5164  141.1236  158.7275 H   0  0  0  0  0  0  0  0  0  0  0  0
  152.6831  141.3212  156.9977 H   0  0  0  0  0  0  0  0  0  0  0  0
  150.1194  142.2333  158.3644 H   0  0  0  0  0  0  0  0  0  0  0  0
  150.0735  143.5610  156.5884 H   0  0  0  0  0  0  0  0  0  0  0  0
  152.7370  143.8216  158.2164 H   0  0  0  0  0  0  0  0  0  0  0  0
  151.1168  145.5461  157.6827 H   0  0  0  0  0  0  0  0  0  0  0  0
  149.8648  144.7537  158.6372 H   0  0  0  0  0  0  0  0  0  0  0  0
  152.0231  146.5258  159.6342 H   0  0  0  0  0  0  0  0  0  0  0  0
  150.5103  146.0459  160.4043 H   0  0  0  0  0  0  0  0  0  0  0  0
  153.2061  144.7737  160.5861 H   0  0  0  0  0  0  0  0  0  0  0  0
  151.8448  144.5807  161.6954 H   0  0  0  0  0  0  0  0  0  0  0  0
  148.0982  135.0897  152.9736 H   0  0  0  0  0  0  0  0  0  0  0  0
  1  2  1  0  0  0  0
  1 29  1  0  0  0  0
  1 30  1  0  0  0  0
  1 31  1  0  0  0  0
  2  3  1  0  0  0  0
  2 10  1  0  0  0  0
  2 32  1  0  0  0  0
  3  4  1  0  0  0  0
  3 33  1  0  0  0  0
  3 34  1  0  0  0  0
  4  9  1  0  0  0  0
  4  5  1  0  0  0  0
  4 59  1  0  0  0  0
  5  6  1  0  0  0  0
  5 35  1  0  0  0  0
  5 36  1  0  0  0  0
  6  7  1  0  0  0  0
  6 37  1  0  0  0  0
  6 38  1  0  0  0  0
  7  8  1  0  0  0  0
  8  9  1  0  0  0  0
  8 39  1  0  0  0  0
  8 40  1  0  0  0  0
  9 41  1  0  0  0  0
  9 42  1  0  0  0  0
 10 11  1  0  0  0  0
 10 12  1  0  0  0  0
 11 43  1  0  0  0  0
 11 44  1  0  0  0  0
 11 45  1  0  0  0  0
 12 17  1  0  0  0  0
 12 13  2  0  0  0  0
 13 14  1  0  0  0  0
 14 15  2  0  0  0  0
 14 46  1  0  0  0  0
 15 16  1  0  0  0  0
 16 20  1  0  0  0  0
 16 17  2  0  0  0  0
 17 18  1  0  0  0  0
 18 19  2  0  0  0  0
 19 20  1  0  0  0  0
 19 47  1  0  0  0  0
 20 21  1  0  0  0  0
 21 22  1  0  0  0  0
 21 48  1  0  0  0  0
 21 49  1  0  0  0  0
 22 23  1  0  0  0  0
 22 24  1  0  0  0  0
 22 50  1  0  0  0  0
 23 51  1  0  0  0  0
 24 28  1  0  0  0  0
 24 25  1  0  0  0  0
 24 52  1  0  0  0  0
 25 26  1  0  0  0  0
 25 53  1  0  0  0  0
 25 54  1  0  0  0  0
 26 27  1  0  0  0  0
 26 55  1  0  0  0  0
 26 56  1  0  0  0  0
 27 28  1  0  0  0  0
 27 57  1  0  0  0  0
 27 58  1  0  0  0  0
M  CHG  1   4   1
M  END
> <s_m_source_file>
AV-unprocessed.smi

> <i_m_source_file_index>
213

> <i_lp_mmshare_version>
43012

> <i_f3d_flags>
0

> <s_epik_input>
W0NIMl0xW0NIMl1PW0NIMl1bQ0gyXU4xW0NIMl1bQ0BASF0oW0NIM10pTihbQ0gzXSljKG5bY0hdbjIpYyhjMjMpbltjSF1uM1tDSDJdW0NASF0oW09IXSlbQ0BASF00W0NIMl1bQ0gyXVtDSDJdTzQ=

> <s_epik_cmdline>
J2VwaWtfcHl0aG9uJywgJy1waCcsICc3LjAnLCAnLXRuJywgJzgnLCAnLW1hJywgJzIwMCcsICctbWV0YWxfYmluZGluZycsICctaW1hZScsICc8aW5maWxlLm1hZT4nLCAnLW9tYWUnLCAnPG91dGZpbGUubWFlPic=

> <r_lp_tautomer_probability>
1

> <r_epik_Ionization_Penalty>
0.399679

> <r_epik_Ionization_Penalty_Charging>
0.399433

> <r_epik_Ionization_Penalty_Neutral>
0.000246213

> <r_epik_State_Penalty>
0.286032

> <r_epik_Charging_Adjusted_Penalty>
0.685465

> <i_epik_Tot_Q>
1

> <i_epik_Tot_abs_Q>
1

> <r_epik_Metal_State_Penalty>
0.286072

> <b_epik_Metal_Only>
0

> <s_lp_Force_Field>
OPLS_2005

> <r_lp_Energy>
45.5564

> <b_lp_Chiralities_Consistent>
1

> <s_lp_Variant>
AV-unprocessed.smi:213-6

> <Gold.Version>
5.8.1

> <Gold.Id.Protein>
6NUR|6NUR_protein|mol2

> <Gold.PLP.Fitness>
50.8587

> <Gold.PLP.PLP>
-43.1395

> <Gold.PLP.part.hbond>
-3.0000

> <Gold.PLP.part.metal>
0.0000

> <Gold.PLP.part.buried>
-8.2505

> <Gold.PLP.part.nonpolar>
-32.0824

> <Gold.PLP.part.repulsive>
0.5777

> <Gold.PLP.ligand.clash>
0.0000

> <Gold.PLP.ligand.torsion>
2.8109

> <Gold.PLP.Chemscore.Hbond>
3.1500

> <Gold.PLP.Chemscore.CHOScore>
1.0000

> <Gold.PLP.Chemscore.Metal>
0.0000

> <Gold.Chemscore.Hbonds>
donor molecule, donor type, donor heavy atom, donor atom, acceptor molecule, acceptor atom, score
      L1  H     4    59       P1  7948  2.00
      L1  H    23    51       P1  8028  0.98
      P1  H  7989  7998       L1    15  0.05
      L1  C    14    46       P1  7957  1.00

> <Gold.PLP.Chemscore.Internal.Correction>
0.8909

> <Gold.Rescore>
     Score         DG    S(hbond)    S(metal)    S(lipo)     H(rot)  DE(clash)    DE(int)     intcor
     11.35     -15.49       1.62        0.00     100.99       2.83       1.13       3.00       ----

> <Gold.Chemscore.Fitness>
11.3515

> <Gold.Chemscore.DG>
-15.4862

> <Gold.Chemscore.ZeroCoef>
-5.4800

> <Gold.Chemscore.Hbond>
1.6238

> <Gold.Chemscore.Metal>
0.0000

> <Gold.Chemscore.Lipo>
100.9880

> <Gold.Chemscore.Internal_Hbond>
0.0000

> <Gold.Chemscore.DEClash>
1.1316

> <Gold.Chemscore.DEInternal>
3.0031

> <Gold.Chemscore.Rot>
2.8254

> <Gold.Chemscore.Internal.Correction>
   9.000000E+99

> <Gold.Chemscore.Hbonds>
donor molecule, donor type, donor heavy atom, donor atom, acceptor molecule, acceptor atom, score
      L1  H     4    59       P1  7948  0.97
      L1  H    23    51       P1  8028  0.93

> <Gold.Chemscore.Hbond.Weighted>
-5.4236

> <Gold.Chemscore.Metal.Weighted>
-0.0000

> <Gold.Chemscore.Lipo.Weighted>
-11.8156

> <Gold.Chemscore.Internal_Hbond.Weighted>
0.0000

> <Gold.Chemscore.DEClash.Weighted>
1.1316

> <Gold.Chemscore.DEInternal.Weighted>
3.0031

> <Gold.Chemscore.Rot.Weighted>
7.2330

> <Gold.Chemscore.Internal.Correction.Weighted>
   9.000000E+99

> <Gold.Protein.RotatedTorsions>
[ 6907 6896 6895 6894 ] final   73.30 input  -60.11 | X-H torsion
[ 7974 7965 7964 7962 ] final  115.71 input  175.53 | X-H torsion
[ 8008 7997 7996 7995 ] final -125.76 input   59.86 | X-H torsion
[ 10167 10162 10161 10158 ] final  110.93 input  -65.29 | X-H torsion
[ 10718 10713 10712 10709 ] final -107.21 input   66.30 | X-H torsion
[ 10763 10752 10751 10750 ] final  -92.40 input  -60.55 | X-H torsion
[ 11005 11000 10999 10996 ] final  -86.73 input  -57.11 | X-H torsion

> <Gold.Protein.ActiveResidues>
 VAL166  LYS551  ARG553  GLY616  TRP617  ASP618  TYR619  PRO620  LYS621  CYS622 
 ASP623  PHE694  ASN695  SER759  ASP760  ASP761  ALA762  ILE779  LEU786  VAL792 
 PHE793  MET794  SER795  GLU796  ALA797  LYS798  CYS799  TRP800  GLU811  SER814 

> <Gold.Protein.RotatedAtoms>
  152.4915  134.4442  159.9553 H   0  0  0  0  0  0  0  0  0  0  0  0  # atno 6907 bound_to 6896
  151.4429  133.3632  159.2792 H   0  0  0  0  0  0  0  0  0  0  0  0  # atno 6908 bound_to 6896
  150.9075  134.8514  159.7463 H   0  0  0  0  0  0  0  0  0  0  0  0  # atno 6909 bound_to 6896
  145.1886  139.3012  143.4380 H   0  0  0  0  0  0  0  0  0  0  0  0  # atno 7974 bound_to 7965
  155.2185  140.0421  157.2944 H   0  0  0  0  0  0  0  0  0  0  0  0  # atno 8008 bound_to 7997
  154.5965  140.2440  155.7821 H   0  0  0  0  0  0  0  0  0  0  0  0  # atno 8009 bound_to 7997
  156.2293  140.2944  156.0157 H   0  0  0  0  0  0  0  0  0  0  0  0  # atno 8010 bound_to 7997
  139.6650  144.7128  151.1794 H   0  0  0  0  0  0  0  0  0  0  0  0  # atno 10167 bound_to 10162
  156.0426  130.5651  150.7789 H   0  0  0  0  0  0  0  0  0  0  0  0  # atno 10718 bound_to 10713
  154.6857  135.5232  153.8323 H   0  0  0  0  0  0  0  0  0  0  0  0  # atno 10763 bound_to 10752
  153.0596  135.6563  154.0505 H   0  0  0  0  0  0  0  0  0  0  0  0  # atno 10764 bound_to 10752
  154.0386  135.2979  155.3338 H   0  0  0  0  0  0  0  0  0  0  0  0  # atno 10765 bound_to 10752
  141.1626  133.7471  156.9203 H   0  0  0  0  0  0  0  0  0  0  0  0  # atno 11005 bound_to 11000
  146.3440  140.2091  142.8590 LP  0  0  0  0  0  0  0  0  0  0  0  0  # atno 17320 bound_to 7965
  145.0063  140.8676  143.5251 LP  0  0  0  0  0  0  0  0  0  0  0  0  # atno 17321 bound_to 7965
  140.7595  143.5934  150.8773 LP  0  0  0  0  0  0  0  0  0  0  0  0  # atno 17342 bound_to 10162
  139.9594  143.6181  152.3006 LP  0  0  0  0  0  0  0  0  0  0  0  0  # atno 17343 bound_to 10162
  157.5262  131.0934  151.0014 LP  0  0  0  0  0  0  0  0  0  0  0  0  # atno 17370 bound_to 10713
  157.0332  130.5720  149.5346 LP  0  0  0  0  0  0  0  0  0  0  0  0  # atno 17371 bound_to 10713
  140.1456  134.9264  157.2525 LP  0  0  0  0  0  0  0  0  0  0  0  0  # atno 17394 bound_to 11000
  140.2784  134.3378  155.7351 LP  0  0  0  0  0  0  0  0  0  0  0  0  # atno 17395 bound_to 11000

$$$$
