AV-unprocessed.smi:3187|AV-procd|sdf|12175|dock5
  -GOLD-   2272018 13D 1   1.00000     0.00000
 Structure written by MMmdl.
 41 42  0  0  0  0  0  0  0  0  2 V2000
  147.0331  141.8229  153.7517 C   0  0  0  0  0  0  0  0  0  0  0  0
  148.0222  141.0918  154.6450 C   0  0  0  0  0  0  0  0  0  0  0  0
  148.2064  141.4721  155.9247 C   0  0  0  0  0  0  0  0  0  0  0  0
  149.2079  140.8463  156.8797 C   0  0  0  0  0  0  0  0  0  0  0  0
  149.8843  139.5896  156.3080 C   0  0  0  0  0  0  0  0  0  0  0  0
  150.1534  139.7320  154.8001 C   0  0  1  0  0  0  0  0  0  0  0  0
  151.0360  138.5932  154.2604 C   0  0  0  0  0  0  0  0  0  0  0  0
  148.8280  139.9472  154.0154 C   0  0  1  0  0  0  0  0  0  0  0  0
  147.9913  138.6484  153.8738 C   0  0  0  0  0  0  0  0  0  0  0  0
  147.8824  138.1834  152.4771 N   0  3  0  0  0  0  0  0  0  0  0  0
  146.4978  138.1058  151.9737 C   0  0  0  0  0  0  0  0  0  0  0  0
  145.6972  137.0338  152.7250 C   0  0  0  0  0  0  0  0  0  0  0  0
  145.2170  136.0050  151.8249 N   0  0  0  0  0  0  0  0  0  0  0  0
  143.9499  135.4374  151.7999 C   0  0  0  0  0  0  0  0  0  0  0  0
  143.9576  134.5038  150.7880 C   0  0  0  0  0  0  0  0  0  0  0  0
  145.2114  134.4808  150.1816 N   0  0  0  0  0  0  0  0  0  0  0  0
  145.9026  135.3964  150.8473 C   0  0  0  0  0  0  0  0  0  0  0  0
  147.4966  142.0838  152.7999 H   0  0  0  0  0  0  0  0  0  0  0  0
  146.6953  142.7489  154.2183 H   0  0  0  0  0  0  0  0  0  0  0  0
  146.1481  141.2197  153.5567 H   0  0  0  0  0  0  0  0  0  0  0  0
  147.6369  142.2995  156.3229 H   0  0  0  0  0  0  0  0  0  0  0  0
  149.9639  141.6007  157.0991 H   0  0  0  0  0  0  0  0  0  0  0  0
  148.7145  140.6118  157.8233 H   0  0  0  0  0  0  0  0  0  0  0  0
  150.8142  139.4043  156.8471 H   0  0  0  0  0  0  0  0  0  0  0  0
  149.2538  138.7189  156.4896 H   0  0  0  0  0  0  0  0  0  0  0  0
  150.7412  140.6427  154.6714 H   0  0  0  0  0  0  0  0  0  0  0  0
  150.6142  137.6114  154.4751 H   0  0  0  0  0  0  0  0  0  0  0  0
  152.0251  138.6224  154.7183 H   0  0  0  0  0  0  0  0  0  0  0  0
  151.1732  138.6767  153.1821 H   0  0  0  0  0  0  0  0  0  0  0  0
  149.1125  140.2704  153.0127 H   0  0  0  0  0  0  0  0  0  0  0  0
  148.4422  137.8355  154.4411 H   0  0  0  0  0  0  0  0  0  0  0  0
  146.9890  138.7996  154.2759 H   0  0  0  0  0  0  0  0  0  0  0  0
  148.4022  138.8197  151.8897 H   0  0  0  0  0  0  0  0  0  0  0  0
  146.0196  139.0796  152.0884 H   0  0  0  0  0  0  0  0  0  0  0  0
  146.5158  137.8778  150.9071 H   0  0  0  0  0  0  0  0  0  0  0  0
  146.3133  136.5632  153.4925 H   0  0  0  0  0  0  0  0  0  0  0  0
  144.8401  137.4789  153.2325 H   0  0  0  0  0  0  0  0  0  0  0  0
  143.1689  135.7346  152.4844 H   0  0  0  0  0  0  0  0  0  0  0  0
  143.1649  133.8514  150.4528 H   0  0  0  0  0  0  0  0  0  0  0  0
  146.9332  135.6273  150.6205 H   0  0  0  0  0  0  0  0  0  0  0  0
  148.3019  137.2668  152.4112 H   0  0  0  0  0  0  0  0  0  0  0  0
  1  2  1  0  0  0  0
  1 18  1  0  0  0  0
  1 19  1  0  0  0  0
  1 20  1  0  0  0  0
  2  8  1  0  0  0  0
  2  3  2  0  0  0  0
  3  4  1  0  0  0  0
  3 21  1  0  0  0  0
  4  5  1  0  0  0  0
  4 22  1  0  0  0  0
  4 23  1  0  0  0  0
  5  6  1  0  0  0  0
  5 24  1  0  0  0  0
  5 25  1  0  0  0  0
  6  7  1  0  0  0  0
  6  8  1  0  0  0  0
  6 26  1  0  0  0  0
  7 27  1  0  0  0  0
  7 28  1  0  0  0  0
  7 29  1  0  0  0  0
  8  9  1  0  0  0  0
  8 30  1  0  0  0  0
  9 10  1  0  0  0  0
  9 31  1  0  0  0  0
  9 32  1  0  0  0  0
 10 11  1  0  0  0  0
 10 33  1  0  0  0  0
 10 41  1  0  0  0  0
 11 12  1  0  0  0  0
 11 34  1  0  0  0  0
 11 35  1  0  0  0  0
 12 13  1  0  0  0  0
 12 36  1  0  0  0  0
 12 37  1  0  0  0  0
 13 17  1  0  0  0  0
 13 14  1  0  0  0  0
 14 15  2  0  0  0  0
 14 38  1  0  0  0  0
 15 16  1  0  0  0  0
 15 39  1  0  0  0  0
 16 17  2  0  0  0  0
 17 40  1  0  0  0  0
M  CHG  1  10   1
M  END
> <s_m_source_file>
AV-unprocessed.smi

> <i_m_source_file_index>
3187

> <i_lp_mmshare_version>
43012

> <i_f3d_flags>
0

> <s_epik_input>
W0NIM11DMT1bQ0hdW0NIMl1bQ0gyXVtDQEBIXShbQ0gzXSlbQ0BIXTFbQ0gyXVtOSF1bQ0gyXVtDSDJdbjJbY0hdW2NIXW5bY0hdMg==

> <s_epik_cmdline>
J2VwaWtfcHl0aG9uJywgJy1waCcsICc3LjAnLCAnLXRuJywgJzgnLCAnLW1hJywgJzIwMCcsICctbWV0YWxfYmluZGluZycsICctaW1hZScsICc8aW5maWxlLm1hZT4nLCAnLW9tYWUnLCAnPG91dGZpbGUubWFlPic=

> <r_lp_tautomer_probability>
1

> <r_epik_Ionization_Penalty>
0.0501625

> <r_epik_Ionization_Penalty_Charging>
0.0501625

> <r_epik_Ionization_Penalty_Neutral>
0

> <r_epik_State_Penalty>
0.0972392

> <r_epik_Charging_Adjusted_Penalty>
0.147402

> <i_epik_Tot_Q>
1

> <i_epik_Tot_abs_Q>
1

> <r_epik_Metal_State_Penalty>
0.000104376

> <b_epik_Metal_Only>
0

> <s_lp_Force_Field>
OPLS_2005

> <r_lp_Energy>
16.942

> <b_lp_Chiralities_Consistent>
1

> <s_lp_Variant>
AV-unprocessed.smi:3187-1

> <Gold.Version>
5.8.1

> <Gold.Id.Protein>
6NUR|6NUR_protein|mol2

> <Gold.PLP.Fitness>
43.5432

> <Gold.PLP.PLP>
-31.9219

> <Gold.PLP.part.hbond>
-2.0000

> <Gold.PLP.part.metal>
0.0000

> <Gold.PLP.part.buried>
-3.0646

> <Gold.PLP.part.nonpolar>
-28.1231

> <Gold.PLP.part.repulsive>
0.6368

> <Gold.PLP.ligand.clash>
0.0000

> <Gold.PLP.ligand.torsion>
1.7002

> <Gold.PLP.Chemscore.Hbond>
3.0000

> <Gold.PLP.Chemscore.CHOScore>
2.0000

> <Gold.PLP.Chemscore.Metal>
0.0000

> <Gold.Chemscore.Hbonds>
donor molecule, donor type, donor heavy atom, donor atom, acceptor molecule, acceptor atom, score
      L1  H    10    33       P1  7957  1.00
      L1  H    10    41       P1  7948  0.98
      L1  C    15    39       P1 10186  0.98
      L1  C    17    40       P1  7948  1.00

> <Gold.PLP.Chemscore.Internal.Correction>
0.0216

> <Gold.Rescore>
     Score         DG    S(hbond)    S(metal)    S(lipo)     H(rot)  DE(clash)    DE(int)     intcor
     14.36     -15.94       1.99        0.00      73.90       1.89       0.06       1.51       ----

> <Gold.Chemscore.Fitness>
14.3645

> <Gold.Chemscore.DG>
-15.9393

> <Gold.Chemscore.ZeroCoef>
-5.4800

> <Gold.Chemscore.Hbond>
1.9878

> <Gold.Chemscore.Metal>
0.0000

> <Gold.Chemscore.Lipo>
73.9000

> <Gold.Chemscore.Internal_Hbond>
0.0000

> <Gold.Chemscore.DEClash>
0.0641

> <Gold.Chemscore.DEInternal>
1.5107

> <Gold.Chemscore.Rot>
1.8853

> <Gold.Chemscore.Internal.Correction>
   9.000000E+99

> <Gold.Chemscore.Hbonds>
donor molecule, donor type, donor heavy atom, donor atom, acceptor molecule, acceptor atom, score
      L1  H    10    33       P1  7957  0.85
      L1  H    10    41       P1  7948  0.49

> <Gold.Chemscore.Hbond.Weighted>
-6.6393

> <Gold.Chemscore.Metal.Weighted>
-0.0000

> <Gold.Chemscore.Lipo.Weighted>
-8.6463

> <Gold.Chemscore.Internal_Hbond.Weighted>
0.0000

> <Gold.Chemscore.DEClash.Weighted>
0.0641

> <Gold.Chemscore.DEInternal.Weighted>
1.5107

> <Gold.Chemscore.Rot.Weighted>
4.8263

> <Gold.Chemscore.Internal.Correction.Weighted>
   9.000000E+99

> <Gold.Protein.RotatedTorsions>
[ 6907 6896 6895 6894 ] final  118.13 input  -60.11 | X-H torsion
[ 7974 7965 7964 7962 ] final -158.63 input  175.53 | X-H torsion
[ 8008 7997 7996 7995 ] final  -33.34 input   59.86 | X-H torsion
[ 10167 10162 10161 10158 ] final -177.25 input  -65.29 | X-H torsion
[ 10718 10713 10712 10709 ] final -135.29 input   66.30 | X-H torsion
[ 10763 10752 10751 10750 ] final  156.68 input  -60.55 | X-H torsion
[ 11005 11000 10999 10996 ] final  132.29 input  -57.11 | X-H torsion

> <Gold.Protein.ActiveResidues>
 VAL166  LYS551  ARG553  GLY616  TRP617  ASP618  TYR619  PRO620  LYS621  CYS622 
 ASP623  PHE694  ASN695  SER759  ASP760  ASP761  ALA762  ILE779  LEU786  VAL792 
 PHE793  MET794  SER795  GLU796  ALA797  LYS798  CYS799  TRP800  GLU811  SER814 

> <Gold.Protein.RotatedAtoms>
  152.4564  133.7732  159.6810 H   0  0  0  0  0  0  0  0  0  0  0  0  # atno 6907 bound_to 6896
  150.8492  133.7803  159.3038 H   0  0  0  0  0  0  0  0  0  0  0  0  # atno 6908 bound_to 6896
  151.5404  135.1071  159.9977 H   0  0  0  0  0  0  0  0  0  0  0  0  # atno 6909 bound_to 6896
  144.7498  140.3800  143.6057 H   0  0  0  0  0  0  0  0  0  0  0  0  # atno 7974 bound_to 7965
  154.4152  140.1713  156.1872 H   0  0  0  0  0  0  0  0  0  0  0  0  # atno 8008 bound_to 7997
  155.9633  140.3391  155.6486 H   0  0  0  0  0  0  0  0  0  0  0  0  # atno 8009 bound_to 7997
  155.6720  140.0713  157.2507 H   0  0  0  0  0  0  0  0  0  0  0  0  # atno 8010 bound_to 7997
  139.5489  144.2160  152.1041 H   0  0  0  0  0  0  0  0  0  0  0  0  # atno 10167 bound_to 10162
  156.2645  130.7229  151.1175 H   0  0  0  0  0  0  0  0  0  0  0  0  # atno 10718 bound_to 10713
  154.1882  135.2796  155.3030 H   0  0  0  0  0  0  0  0  0  0  0  0  # atno 10763 bound_to 10752
  154.5950  135.5548  153.7319 H   0  0  0  0  0  0  0  0  0  0  0  0  # atno 10764 bound_to 10752
  153.0119  135.6377  154.2020 H   0  0  0  0  0  0  0  0  0  0  0  0  # atno 10765 bound_to 10752
  139.9781  134.9557  156.9561 H   0  0  0  0  0  0  0  0  0  0  0  0  # atno 11005 bound_to 11000
  145.6987  139.1656  143.2605 LP  0  0  0  0  0  0  0  0  0  0  0  0  # atno 17320 bound_to 7965
  146.1431  140.7030  142.9358 LP  0  0  0  0  0  0  0  0  0  0  0  0  # atno 17321 bound_to 7965
  140.1652  144.4988  150.6610 LP  0  0  0  0  0  0  0  0  0  0  0  0  # atno 17342 bound_to 10162
  140.6746  143.2300  151.5539 LP  0  0  0  0  0  0  0  0  0  0  0  0  # atno 17343 bound_to 10162
  157.7262  131.0647  150.5918 LP  0  0  0  0  0  0  0  0  0  0  0  0  # atno 17370 bound_to 10713
  156.6008  130.4354  149.5898 LP  0  0  0  0  0  0  0  0  0  0  0  0  # atno 17371 bound_to 10713
  140.5153  134.0962  155.7279 LP  0  0  0  0  0  0  0  0  0  0  0  0  # atno 17394 bound_to 11000
  141.1456  133.9061  157.2223 LP  0  0  0  0  0  0  0  0  0  0  0  0  # atno 17395 bound_to 11000

$$$$
