AV-unprocessed.smi:21|AV-procd|sdf|146|dock6
  -GOLD-   2262015363D 1   1.00000     0.00000
 Structure written by MMmdl.
 62 65  0  0  0  0  0  0  0  0  2 V2000
  145.2180  132.7572  150.2830 C   0  0  0  0  0  0  0  0  0  0  0  0
  145.1749  134.1182  150.6811 O   0  0  0  0  0  0  0  0  0  0  0  0
  144.6649  134.3149  151.9936 C   0  0  2  0  0  0  0  0  0  0  0  0
  144.3011  135.7834  152.1639 C   0  0  0  0  0  0  0  0  0  0  0  0
  145.6388  136.4681  152.4769 C   0  0  1  0  0  0  0  0  0  0  0  0
  145.4978  137.8141  153.2315 C   0  0  0  0  0  0  0  0  0  0  0  0
  146.6095  138.7292  152.9631 N   0  0  0  0  0  0  0  0  0  0  0  0
  147.0122  138.9362  151.5777 C   0  0  0  0  0  0  0  0  0  0  0  0
  146.9873  139.6249  153.9175 C   0  0  0  0  0  0  0  0  0  0  0  0
  146.0158  140.3526  154.5301 N   0  0  0  0  0  0  0  0  0  0  0  0
  146.3234  141.2551  155.4648 C   0  0  0  0  0  0  0  0  0  0  0  0
  147.5246  141.5909  155.9336 N   0  0  0  0  0  0  0  0  0  0  0  0
  148.5095  140.8685  155.3294 C   0  0  0  0  0  0  0  0  0  0  0  0
  148.3348  139.8762  154.3206 C   0  0  0  0  0  0  0  0  0  0  0  0
  149.5791  139.3844  153.9382 N   0  0  0  0  0  0  0  0  0  0  0  0
  150.4316  140.0349  154.6806 C   0  0  0  0  0  0  0  0  0  0  0  0
  149.8729  140.9346  155.5579 N   0  0  0  0  0  0  0  0  0  0  0  0
  150.5844  141.7961  156.4859 C   0  0  0  0  0  0  0  0  0  0  0  0
  151.4535  141.0484  157.5314 C   0  0  2  0  0  0  0  0  0  0  0  0
  150.8132  139.6742  157.8364 C   0  0  0  0  0  0  0  0  0  0  0  0
  151.7653  138.7505  158.3235 O   0  0  0  0  0  0  0  0  0  0  0  0
  151.7551  141.8667  158.8213 C   0  0  1  0  0  0  0  0  0  0  0  0
  152.7323  141.2034  159.7795 C   0  0  0  0  0  0  0  0  0  0  0  0
  153.1667  142.3696  160.6546 C   0  0  0  0  0  0  0  0  0  0  0  0
  153.2528  143.4702  159.7624 O   0  0  0  0  0  0  0  0  0  0  0  0
  152.4542  143.2198  158.6095 C   0  0  0  0  0  0  0  0  0  0  0  0
  146.4723  135.4279  153.1485 N   0  3  1  0  0  0  0  0  0  0  0  0
  146.9624  135.7148  154.5176 C   0  0  0  0  0  0  0  0  0  0  0  0
  145.7630  134.1306  153.0456 C   0  0  0  0  0  0  0  0  0  0  0  0
  143.7992  133.6749  152.1736 H   0  0  0  0  0  0  0  0  0  0  0  0
  146.1416  136.6599  151.5281 H   0  0  0  0  0  0  0  0  0  0  0  0
  145.6225  132.6866  149.2734 H   0  0  0  0  0  0  0  0  0  0  0  0
  144.2190  132.3196  150.2734 H   0  0  0  0  0  0  0  0  0  0  0  0
  145.8530  132.1617  150.9389 H   0  0  0  0  0  0  0  0  0  0  0  0
  143.8037  136.2003  151.2872 H   0  0  0  0  0  0  0  0  0  0  0  0
  143.6221  135.8878  153.0113 H   0  0  0  0  0  0  0  0  0  0  0  0
  144.5377  138.2803  153.0116 H   0  0  0  0  0  0  0  0  0  0  0  0
  145.4944  137.6305  154.3059 H   0  0  0  0  0  0  0  0  0  0  0  0
  148.0660  139.2097  151.5139 H   0  0  0  0  0  0  0  0  0  0  0  0
  146.4147  139.7218  151.1146 H   0  0  0  0  0  0  0  0  0  0  0  0
  146.8749  138.0237  150.9966 H   0  0  0  0  0  0  0  0  0  0  0  0
  145.4872  141.7834  155.8986 H   0  0  0  0  0  0  0  0  0  0  0  0
  151.4970  139.8679  154.6128 H   0  0  0  0  0  0  0  0  0  0  0  0
  151.2024  142.4854  155.9093 H   0  0  0  0  0  0  0  0  0  0  0  0
  149.8370  142.4075  156.9930 H   0  0  0  0  0  0  0  0  0  0  0  0
  152.4118  140.8258  157.0616 H   0  0  0  0  0  0  0  0  0  0  0  0
  150.0216  139.7802  158.5786 H   0  0  0  0  0  0  0  0  0  0  0  0
  150.3386  139.2549  156.9494 H   0  0  0  0  0  0  0  0  0  0  0  0
  151.9039  138.9178  159.2430 H   0  0  0  0  0  0  0  0  0  0  0  0
  150.8233  142.0413  159.3618 H   0  0  0  0  0  0  0  0  0  0  0  0
  152.2858  140.3953  160.3595 H   0  0  0  0  0  0  0  0  0  0  0  0
  153.5909  140.8046  159.2372 H   0  0  0  0  0  0  0  0  0  0  0  0
  152.4090  142.5842  161.4095 H   0  0  0  0  0  0  0  0  0  0  0  0
  154.1143  142.1879  161.1622 H   0  0  0  0  0  0  0  0  0  0  0  0
  153.1157  143.1919  157.7429 H   0  0  0  0  0  0  0  0  0  0  0  0
  151.7438  144.0330  158.4666 H   0  0  0  0  0  0  0  0  0  0  0  0
  146.1364  135.8694  155.2128 H   0  0  0  0  0  0  0  0  0  0  0  0
  147.6054  136.5947  154.5317 H   0  0  0  0  0  0  0  0  0  0  0  0
  147.5564  134.8769  154.8843 H   0  0  0  0  0  0  0  0  0  0  0  0
  145.2909  133.8991  154.0019 H   0  0  0  0  0  0  0  0  0  0  0  0
  146.4527  133.3177  152.8203 H   0  0  0  0  0  0  0  0  0  0  0  0
  147.2970  135.3406  152.5717 H   0  0  0  0  0  0  0  0  0  0  0  0
  1  2  1  0  0  0  0
  1 32  1  0  0  0  0
  1 33  1  0  0  0  0
  1 34  1  0  0  0  0
  2  3  1  0  0  0  0
  3 30  1  0  0  0  0
  3 29  1  0  0  0  0
  3  4  1  0  0  0  0
  4  5  1  0  0  0  0
  4 35  1  0  0  0  0
  4 36  1  0  0  0  0
  5 31  1  0  0  0  0
  5  6  1  0  0  0  0
  5 27  1  0  0  0  0
  6  7  1  0  0  0  0
  6 37  1  0  0  0  0
  6 38  1  0  0  0  0
  7  8  1  0  0  0  0
  7  9  1  0  0  0  0
  8 39  1  0  0  0  0
  8 40  1  0  0  0  0
  8 41  1  0  0  0  0
  9 14  1  0  0  0  0
  9 10  2  0  0  0  0
 10 11  1  0  0  0  0
 11 12  2  0  0  0  0
 11 42  1  0  0  0  0
 12 13  1  0  0  0  0
 13 17  1  0  0  0  0
 13 14  2  0  0  0  0
 14 15  1  0  0  0  0
 15 16  2  0  0  0  0
 16 17  1  0  0  0  0
 16 43  1  0  0  0  0
 17 18  1  0  0  0  0
 18 19  1  0  0  0  0
 18 44  1  0  0  0  0
 18 45  1  0  0  0  0
 19 20  1  0  0  0  0
 19 22  1  0  0  0  0
 19 46  1  0  0  0  0
 20 21  1  0  0  0  0
 20 47  1  0  0  0  0
 20 48  1  0  0  0  0
 21 49  1  0  0  0  0
 22 26  1  0  0  0  0
 22 23  1  0  0  0  0
 22 50  1  0  0  0  0
 23 24  1  0  0  0  0
 23 51  1  0  0  0  0
 23 52  1  0  0  0  0
 24 25  1  0  0  0  0
 24 53  1  0  0  0  0
 24 54  1  0  0  0  0
 25 26  1  0  0  0  0
 26 55  1  0  0  0  0
 26 56  1  0  0  0  0
 27 28  1  0  0  0  0
 27 29  1  0  0  0  0
 27 62  1  0  0  0  0
 28 57  1  0  0  0  0
 28 58  1  0  0  0  0
 28 59  1  0  0  0  0
 29 60  1  0  0  0  0
 29 61  1  0  0  0  0
M  CHG  1  27   1
M  END
> <s_m_source_file>
AV-unprocessed.smi

> <i_m_source_file_index>
21

> <i_lp_mmshare_version>
43012

> <i_f3d_flags>
0

> <s_epik_input>
W0NIM11PW0NASF0xW0NIMl1bQ0BIXShOKFtDSDNdKVtDSDJdMSlbQ0gyXU4oW0NIM10pYyhuW2NIXW4yKWMoYzIzKW5bY0hdbjNbQ0gyXVtDQEhdKFtDSDJdW09IXSlbQ0BASF00W0NIMl1bQ0gyXU9bQ0gyXTQ=

> <s_epik_cmdline>
J2VwaWtfcHl0aG9uJywgJy1waCcsICc3LjAnLCAnLXRuJywgJzgnLCAnLW1hJywgJzIwMCcsICctbWV0YWxfYmluZGluZycsICctaW1hZScsICc8aW5maWxlLm1hZT4nLCAnLW9tYWUnLCAnPG91dGZpbGUubWFlPic=

> <r_lp_tautomer_probability>
1

> <r_epik_Ionization_Penalty>
0.0157465

> <r_epik_Ionization_Penalty_Charging>
0.015354

> <r_epik_Ionization_Penalty_Neutral>
0.000392529

> <r_epik_State_Penalty>
0.0120612

> <r_epik_Charging_Adjusted_Penalty>
0.0274152

> <i_epik_Tot_Q>
1

> <i_epik_Tot_abs_Q>
1

> <r_epik_Metal_State_Penalty>
0.0121253

> <b_epik_Metal_Only>
0

> <s_lp_Force_Field>
OPLS_2005

> <r_lp_Energy>
61.785

> <b_lp_Chiralities_Consistent>
1

> <s_lp_Variant>
AV-unprocessed.smi:21-26

> <Gold.Version>
5.8.1

> <Gold.Id.Protein>
6NUR|6NUR_protein|mol2

> <Gold.PLP.Fitness>
44.2178

> <Gold.PLP.PLP>
-42.0540

> <Gold.PLP.part.hbond>
-1.0000

> <Gold.PLP.part.metal>
0.0000

> <Gold.PLP.part.buried>
-4.0847

> <Gold.PLP.part.nonpolar>
-39.9981

> <Gold.PLP.part.repulsive>
2.5151

> <Gold.PLP.ligand.clash>
0.0000

> <Gold.PLP.ligand.torsion>
2.2710

> <Gold.PLP.Chemscore.Hbond>
2.0000

> <Gold.PLP.Chemscore.CHOScore>
0.0000

> <Gold.PLP.Chemscore.Metal>
0.0000

> <Gold.Chemscore.Hbonds>
donor molecule, donor type, donor heavy atom, donor atom, acceptor molecule, acceptor atom, score
      L1  H    27    62       P1  7948  1.92

> <Gold.PLP.Chemscore.Internal.Correction>
0.7058

> <Gold.Rescore>
     Score         DG    S(hbond)    S(metal)    S(lipo)     H(rot)  DE(clash)    DE(int)     intcor
      9.33     -11.98       0.92        0.00      96.71       3.08       0.26       2.39       ----

> <Gold.Chemscore.Fitness>
9.3327

> <Gold.Chemscore.DG>
-11.9784

> <Gold.Chemscore.ZeroCoef>
-5.4800

> <Gold.Chemscore.Hbond>
0.9153

> <Gold.Chemscore.Metal>
0.0000

> <Gold.Chemscore.Lipo>
96.7115

> <Gold.Chemscore.Internal_Hbond>
0.0000

> <Gold.Chemscore.DEClash>
0.2571

> <Gold.Chemscore.DEInternal>
2.3885

> <Gold.Chemscore.Rot>
3.0758

> <Gold.Chemscore.Internal.Correction>
   9.000000E+99

> <Gold.Chemscore.Hbonds>
donor molecule, donor type, donor heavy atom, donor atom, acceptor molecule, acceptor atom, score
      L1  H    27    62       P1  7948  0.90

> <Gold.Chemscore.Hbond.Weighted>
-3.0573

> <Gold.Chemscore.Metal.Weighted>
-0.0000

> <Gold.Chemscore.Lipo.Weighted>
-11.3153

> <Gold.Chemscore.Internal_Hbond.Weighted>
0.0000

> <Gold.Chemscore.DEClash.Weighted>
0.2571

> <Gold.Chemscore.DEInternal.Weighted>
2.3885

> <Gold.Chemscore.Rot.Weighted>
7.8741

> <Gold.Chemscore.Internal.Correction.Weighted>
   9.000000E+99

> <Gold.Protein.RotatedTorsions>
[ 6907 6896 6895 6894 ] final  -50.38 input  -60.11 | X-H torsion
[ 7974 7965 7964 7962 ] final  138.91 input  175.53 | X-H torsion
[ 8008 7997 7996 7995 ] final   97.49 input   59.86 | X-H torsion
[ 10167 10162 10161 10158 ] final -105.49 input  -65.29 | X-H torsion
[ 10718 10713 10712 10709 ] final   48.89 input   66.30 | X-H torsion
[ 10763 10752 10751 10750 ] final  -13.00 input  -60.55 | X-H torsion
[ 11005 11000 10999 10996 ] final   96.74 input  -57.11 | X-H torsion

> <Gold.Protein.ActiveResidues>
 VAL166  LYS551  ARG553  GLY616  TRP617  ASP618  TYR619  PRO620  LYS621  CYS622 
 ASP623  PHE694  ASN695  SER759  ASP760  ASP761  ALA762  ILE779  LEU786  VAL792 
 PHE793  MET794  SER795  GLU796  ALA797  LYS798  CYS799  TRP800  GLU811  SER814 

> <Gold.Protein.RotatedAtoms>
  150.8713  134.8087  159.7156 H   0  0  0  0  0  0  0  0  0  0  0  0  # atno 6907 bound_to 6896
  152.4716  134.4942  159.9714 H   0  0  0  0  0  0  0  0  0  0  0  0  # atno 6908 bound_to 6896
  151.5031  133.3462  159.2908 H   0  0  0  0  0  0  0  0  0  0  0  0  # atno 6909 bound_to 6896
  144.9328  139.5026  143.5609 H   0  0  0  0  0  0  0  0  0  0  0  0  # atno 7974 bound_to 7965
  156.0907  140.3257  155.7812 H   0  0  0  0  0  0  0  0  0  0  0  0  # atno 8008 bound_to 7997
  155.5001  140.0568  157.2957 H   0  0  0  0  0  0  0  0  0  0  0  0  # atno 8009 bound_to 7997
  154.4636  140.1978  156.0195 H   0  0  0  0  0  0  0  0  0  0  0  0  # atno 8010 bound_to 7997
  140.1979  143.3841  152.1153 H   0  0  0  0  0  0  0  0  0  0  0  0  # atno 10167 bound_to 10162
  157.4732  130.8268  149.8011 H   0  0  0  0  0  0  0  0  0  0  0  0  # atno 10718 bound_to 10713
  153.5068  135.7017  153.5802 H   0  0  0  0  0  0  0  0  0  0  0  0  # atno 10763 bound_to 10752
  153.3909  135.3896  155.1922 H   0  0  0  0  0  0  0  0  0  0  0  0  # atno 10764 bound_to 10752
  154.8706  135.3858  154.4544 H   0  0  0  0  0  0  0  0  0  0  0  0  # atno 10765 bound_to 10752
  139.8780  134.8966  156.4203 H   0  0  0  0  0  0  0  0  0  0  0  0  # atno 11005 bound_to 11000
  146.3254  139.8291  142.8912 LP  0  0  0  0  0  0  0  0  0  0  0  0  # atno 17320 bound_to 7965
  145.3115  141.0221  143.3552 LP  0  0  0  0  0  0  0  0  0  0  0  0  # atno 17321 bound_to 7965
  139.5229  144.7064  151.5340 LP  0  0  0  0  0  0  0  0  0  0  0  0  # atno 17342 bound_to 10162
  140.6410  143.8888  150.6692 LP  0  0  0  0  0  0  0  0  0  0  0  0  # atno 17343 bound_to 10162
  156.0084  130.3845  150.2351 LP  0  0  0  0  0  0  0  0  0  0  0  0  # atno 17370 bound_to 10713
  157.0534  131.0069  151.3246 LP  0  0  0  0  0  0  0  0  0  0  0  0  # atno 17371 bound_to 10713
  140.9138  133.7693  155.9823 LP  0  0  0  0  0  0  0  0  0  0  0  0  # atno 17394 bound_to 11000
  140.8516  134.2947  157.5272 LP  0  0  0  0  0  0  0  0  0  0  0  0  # atno 17395 bound_to 11000

$$$$
