AV-unprocessed.smi:1452|AV-procd|sdf|5910|dock7
  -GOLD-   22720 5593D 1   1.00000     0.00000
 Structure written by MMmdl.
 40 42  0  0  0  0  0  0  0  0  2 V2000
  144.7050  135.0258  152.4251 O   0  0  0  0  0  0  0  0  0  0  0  0
  144.1877  134.1151  153.0698 C   0  0  0  0  0  0  0  0  0  0  0  0
  142.9696  134.2648  153.6330 N   0  0  0  0  0  0  0  0  0  0  0  0
  142.0636  135.3667  153.6513 C   0  0  0  0  0  0  0  0  0  0  0  0
  142.6505  136.6108  153.3272 C   0  0  0  0  0  0  0  0  0  0  0  0
  141.8560  137.7735  153.3117 C   0  0  0  0  0  0  0  0  0  0  0  0
  140.4895  137.6644  153.6244 C   0  0  0  0  0  0  0  0  0  0  0  0
  139.9819  136.3908  153.9379 C   0  0  0  0  0  0  0  0  0  0  0  0
  140.7422  135.2753  153.9513 N   0  0  0  0  0  0  0  0  0  0  0  0
  144.7831  132.9246  153.2464 N   0  0  0  0  0  0  0  0  0  0  0  0
  146.0792  132.5323  152.7039 C   0  0  1  0  0  0  0  0  0  0  0  0
  147.2566  133.2380  153.3996 C   0  0  0  0  0  0  0  0  0  0  0  0
  148.3677  132.1745  153.5037 C   0  0  0  0  0  0  0  0  0  0  0  0
  147.8429  130.9904  152.7972 N   0  3  1  0  0  0  0  0  0  0  0  0
  148.4054  129.6756  153.1757 C   0  0  0  0  0  0  0  0  0  0  0  0
  147.7942  128.5828  152.2759 C   0  0  0  0  0  0  0  0  0  0  0  0
  146.2527  128.6227  152.2940 C   0  0  0  0  0  0  0  0  0  0  0  0
  145.7288  130.0383  151.9837 C   0  0  0  0  0  0  0  0  0  0  0  0
  146.3805  131.0503  152.9413 C   0  0  2  0  0  0  0  0  0  0  0  0
  142.6509  133.4589  154.1513 H   0  0  0  0  0  0  0  0  0  0  0  0
  143.7025  136.6793  153.0897 H   0  0  0  0  0  0  0  0  0  0  0  0
  142.2888  138.7316  153.0651 H   0  0  0  0  0  0  0  0  0  0  0  0
  139.8479  138.5332  153.6235 H   0  0  0  0  0  0  0  0  0  0  0  0
  138.9384  136.2632  154.1846 H   0  0  0  0  0  0  0  0  0  0  0  0
  144.2880  132.2338  153.7934 H   0  0  0  0  0  0  0  0  0  0  0  0
  146.1312  132.7498  151.6349 H   0  0  0  0  0  0  0  0  0  0  0  0
  147.5819  134.1102  152.8314 H   0  0  0  0  0  0  0  0  0  0  0  0
  146.9823  133.5825  154.3981 H   0  0  0  0  0  0  0  0  0  0  0  0
  149.3054  132.5067  153.0575 H   0  0  0  0  0  0  0  0  0  0  0  0
  148.5570  131.9339  154.5510 H   0  0  0  0  0  0  0  0  0  0  0  0
  149.4898  129.6943  153.0615 H   0  0  0  0  0  0  0  0  0  0  0  0
  148.1935  129.4690  154.2261 H   0  0  0  0  0  0  0  0  0  0  0  0
  148.1442  128.7213  151.2521 H   0  0  0  0  0  0  0  0  0  0  0  0
  148.1463  127.5999  152.5906 H   0  0  0  0  0  0  0  0  0  0  0  0
  145.8496  127.9073  151.5768 H   0  0  0  0  0  0  0  0  0  0  0  0
  145.8945  128.3111  153.2760 H   0  0  0  0  0  0  0  0  0  0  0  0
  145.9526  130.3005  150.9488 H   0  0  0  0  0  0  0  0  0  0  0  0
  144.6435  130.0620  152.0853 H   0  0  0  0  0  0  0  0  0  0  0  0
  146.1222  130.7933  153.9714 H   0  0  0  0  0  0  0  0  0  0  0  0
  148.0382  131.1313  151.8164 H   0  0  0  0  0  0  0  0  0  0  0  0
  1  2  2  0  0  0  0
  2  3  1  0  0  0  0
  2 10  1  0  0  0  0
  3  4  1  0  0  0  0
  3 20  1  0  0  0  0
  4  9  1  0  0  0  0
  4  5  2  0  0  0  0
  5  6  1  0  0  0  0
  5 21  1  0  0  0  0
  6  7  2  0  0  0  0
  6 22  1  0  0  0  0
  7  8  1  0  0  0  0
  7 23  1  0  0  0  0
  8  9  2  0  0  0  0
  8 24  1  0  0  0  0
 10 11  1  0  0  0  0
 10 25  1  0  0  0  0
 11 19  1  0  0  0  0
 11 12  1  0  0  0  0
 11 26  1  0  0  0  0
 12 13  1  0  0  0  0
 12 27  1  0  0  0  0
 12 28  1  0  0  0  0
 13 14  1  0  0  0  0
 13 29  1  0  0  0  0
 13 30  1  0  0  0  0
 14 19  1  0  0  0  0
 14 15  1  0  0  0  0
 14 40  1  0  0  0  0
 15 16  1  0  0  0  0
 15 31  1  0  0  0  0
 15 32  1  0  0  0  0
 16 17  1  0  0  0  0
 16 33  1  0  0  0  0
 16 34  1  0  0  0  0
 17 18  1  0  0  0  0
 17 35  1  0  0  0  0
 17 36  1  0  0  0  0
 18 19  1  0  0  0  0
 18 37  1  0  0  0  0
 18 38  1  0  0  0  0
 19 39  1  0  0  0  0
M  CHG  1  14   1
M  END
> <s_m_source_file>
AV-unprocessed.smi

> <i_m_source_file_index>
1452

> <i_lp_mmshare_version>
43012

> <i_f3d_flags>
0

> <s_epik_input>
W0NIMl0xW0NIMl1bQ0gyXVtDSDJdW0NASF0oTjEyKVtDQEBIXShbQ0gyXVtDSDJdMilbTkhdQyg9TylbTkhdYzNbY0hdW2NIXVtjSF1bY0hdbjM=

> <s_epik_cmdline>
J2VwaWtfcHl0aG9uJywgJy1waCcsICc3LjAnLCAnLXRuJywgJzgnLCAnLW1hJywgJzIwMCcsICctbWV0YWxfYmluZGluZycsICctaW1hZScsICc8aW5maWxlLm1hZT4nLCAnLW9tYWUnLCAnPG91dGZpbGUubWFlPic=

> <r_epik_Ionization_Penalty>
0.00100813

> <r_epik_Ionization_Penalty_Charging>
0.000974069

> <r_epik_Ionization_Penalty_Neutral>
3.40643e-05

> <r_epik_State_Penalty>
0.000633842

> <r_epik_Charging_Adjusted_Penalty>
0.00160791

> <i_epik_Tot_Q>
1

> <i_epik_Tot_abs_Q>
1

> <r_epik_Metal_State_Penalty>
-0

> <b_epik_Metal_Only>
0

> <s_lp_Force_Field>
OPLS_2005

> <r_lp_Energy>
38.162

> <b_lp_Chiralities_Consistent>
1

> <s_lp_Variant>
AV-unprocessed.smi:1452-8

> <Gold.Version>
5.8.1

> <Gold.Id.Protein>
6NUR|6NUR_protein|mol2

> <Gold.PLP.Fitness>
45.7819

> <Gold.PLP.PLP>
-35.3783

> <Gold.PLP.part.hbond>
-4.1741

> <Gold.PLP.part.metal>
0.0000

> <Gold.PLP.part.buried>
-5.3075

> <Gold.PLP.part.nonpolar>
-26.7726

> <Gold.PLP.part.repulsive>
0.2850

> <Gold.PLP.ligand.clash>
0.1019

> <Gold.PLP.ligand.torsion>
0.1624

> <Gold.PLP.Chemscore.Hbond>
3.6070

> <Gold.PLP.Chemscore.CHOScore>
0.0000

> <Gold.PLP.Chemscore.Metal>
0.0000

> <Gold.Chemscore.Hbonds>
donor molecule, donor type, donor heavy atom, donor atom, acceptor molecule, acceptor atom, score
      L1  H     3    20       P1 10957  1.00
      L1  H    10    25       P1 10957  0.83
      L1  H    14    40       P1 10747  1.00
      P1  H 11000 11005       L1     9  0.94

> <Gold.PLP.Chemscore.Internal.Correction>
0.0096

> <Gold.Rescore>
     Score         DG    S(hbond)    S(metal)    S(lipo)     H(rot)  DE(clash)    DE(int)     intcor
     19.54     -21.15       2.81        0.00      75.53       1.00       0.03       1.58       ----

> <Gold.Chemscore.Fitness>
19.5449

> <Gold.Chemscore.DG>
-21.1492

> <Gold.Chemscore.ZeroCoef>
-5.4800

> <Gold.Chemscore.Hbond>
2.8120

> <Gold.Chemscore.Metal>
0.0000

> <Gold.Chemscore.Lipo>
75.5298

> <Gold.Chemscore.Internal_Hbond>
0.0000

> <Gold.Chemscore.DEClash>
0.0274

> <Gold.Chemscore.DEInternal>
1.5769

> <Gold.Chemscore.Rot>
1.0000

> <Gold.Chemscore.Internal.Correction>
   9.000000E+99

> <Gold.Chemscore.Hbonds>
donor molecule, donor type, donor heavy atom, donor atom, acceptor molecule, acceptor atom, score
      L1  H     3    20       P1 10957  0.99
      L1  H    10    25       P1 10957  0.14
      L1  H    14    40       P1 10747  0.97
      P1  H 11000 11005       L1     9  0.45

> <Gold.Chemscore.Hbond.Weighted>
-9.3922

> <Gold.Chemscore.Metal.Weighted>
-0.0000

> <Gold.Chemscore.Lipo.Weighted>
-8.8370

> <Gold.Chemscore.Internal_Hbond.Weighted>
0.0000

> <Gold.Chemscore.DEClash.Weighted>
0.0274

> <Gold.Chemscore.DEInternal.Weighted>
1.5769

> <Gold.Chemscore.Rot.Weighted>
2.5600

> <Gold.Chemscore.Internal.Correction.Weighted>
   9.000000E+99

> <Gold.Protein.RotatedTorsions>
[ 6907 6896 6895 6894 ] final  -33.59 input  -60.11 | X-H torsion
[ 7974 7965 7964 7962 ] final   33.34 input  175.53 | X-H torsion
[ 8008 7997 7996 7995 ] final  108.62 input   59.86 | X-H torsion
[ 10167 10162 10161 10158 ] final  166.38 input  -65.29 | X-H torsion
[ 10718 10713 10712 10709 ] final -167.95 input   66.30 | X-H torsion
[ 10763 10752 10751 10750 ] final   89.93 input  -60.55 | X-H torsion
[ 11005 11000 10999 10996 ] final   31.04 input  -57.11 | X-H torsion

> <Gold.Protein.ActiveResidues>
 VAL166  LYS551  ARG553  GLY616  TRP617  ASP618  TYR619  PRO620  LYS621  CYS622 
 ASP623  PHE694  ASN695  SER759  ASP760  ASP761  ALA762  ILE779  LEU786  VAL792 
 PHE793  MET794  SER795  GLU796  ALA797  LYS798  CYS799  TRP800  GLU811  SER814 

> <Gold.Protein.RotatedAtoms>
  151.0636  134.9752  159.8272 H   0  0  0  0  0  0  0  0  0  0  0  0  # atno 6907 bound_to 6896
  152.5399  134.2387  159.8863 H   0  0  0  0  0  0  0  0  0  0  0  0  # atno 6908 bound_to 6896
  151.2408  133.4357  159.2641 H   0  0  0  0  0  0  0  0  0  0  0  0  # atno 6909 bound_to 6896
  146.1427  139.6410  142.9152 H   0  0  0  0  0  0  0  0  0  0  0  0  # atno 7974 bound_to 7965
  156.1917  140.3073  155.9346 H   0  0  0  0  0  0  0  0  0  0  0  0  # atno 8008 bound_to 7997
  155.3158  140.0453  157.3054 H   0  0  0  0  0  0  0  0  0  0  0  0  # atno 8009 bound_to 7997
  154.5460  140.2276  155.8571 H   0  0  0  0  0  0  0  0  0  0  0  0  # atno 8010 bound_to 7997
  139.4923  144.4034  151.9384 H   0  0  0  0  0  0  0  0  0  0  0  0  # atno 10167 bound_to 10162
  156.6899  130.9155  151.3067 H   0  0  0  0  0  0  0  0  0  0  0  0  # atno 10718 bound_to 10713
  153.1922  135.4452  155.0164 H   0  0  0  0  0  0  0  0  0  0  0  0  # atno 10763 bound_to 10752
  154.8097  135.3289  154.7340 H   0  0  0  0  0  0  0  0  0  0  0  0  # atno 10764 bound_to 10752
  153.7793  135.6979  153.4947 H   0  0  0  0  0  0  0  0  0  0  0  0  # atno 10765 bound_to 10752
  140.2881  134.2896  155.7783 H   0  0  0  0  0  0  0  0  0  0  0  0  # atno 11005 bound_to 11000
  145.5009  141.0437  143.2541 LP  0  0  0  0  0  0  0  0  0  0  0  0  # atno 17320 bound_to 7965
  144.7811  139.6525  143.7154 LP  0  0  0  0  0  0  0  0  0  0  0  0  # atno 17321 bound_to 7965
  140.3473  144.3131  150.5955 LP  0  0  0  0  0  0  0  0  0  0  0  0  # atno 17342 bound_to 10162
  140.5515  143.2206  151.7919 LP  0  0  0  0  0  0  0  0  0  0  0  0  # atno 17343 bound_to 10162
  157.7013  130.9336  150.0793 LP  0  0  0  0  0  0  0  0  0  0  0  0  # atno 17370 bound_to 10713
  156.1805  130.3650  149.9042 LP  0  0  0  0  0  0  0  0  0  0  0  0  # atno 17371 bound_to 10713
  141.2151  133.7567  156.9583 LP  0  0  0  0  0  0  0  0  0  0  0  0  # atno 17394 bound_to 11000
  140.1221  134.9410  157.2218 LP  0  0  0  0  0  0  0  0  0  0  0  0  # atno 17395 bound_to 11000

$$$$
