AV-unprocessed.smi:551|AV-procd|sdf|2900|dock1
  -GOLD-   2262023393D 1   1.00000     0.00000
 Structure written by MMmdl.
 38 39  0  0  0  0  0  0  0  0  1 V2000
  153.7646  140.1829  160.6418 C   0  0  0  0  0  0  0  0  0  0  0  0
  153.3268  141.4314  159.8564 C   0  0  2  0  0  0  0  0  0  0  0  0
  152.7983  142.5498  160.7838 C   0  0  0  0  0  0  0  0  0  0  0  0
  152.4572  143.7600  160.0589 N   0  0  0  0  0  0  0  0  0  0  0  0
  152.7716  144.0632  158.7405 C   0  0  0  0  0  0  0  0  0  0  0  0
  152.2484  145.3111  158.4886 C   0  0  0  0  0  0  0  0  0  0  0  0
  151.6093  145.7903  159.6299 N   0  0  0  0  0  0  0  0  0  0  0  0
  151.7724  144.8168  160.5166 C   0  0  0  0  0  0  0  0  0  0  0  0
  152.3876  141.0874  158.7848 N   0  0  0  0  0  0  0  0  0  0  0  0
  152.5327  140.1400  157.8423 C   0  0  0  0  0  0  0  0  0  0  0  0
  153.5266  139.4199  157.7472 O   0  0  0  0  0  0  0  0  0  0  0  0
  151.3657  139.9763  156.8600 C   0  0  0  0  0  0  0  0  0  0  0  0
  151.6602  138.8542  155.8417 C   0  0  0  0  0  0  0  0  0  0  0  0
  150.5042  138.6887  154.8416 C   0  0  0  0  0  0  0  0  0  0  0  0
  150.1967  140.0111  154.1215 C   0  0  0  0  0  0  0  0  0  0  0  0
  149.9087  141.1375  155.1263 C   0  0  0  0  0  0  0  0  0  0  0  0
  151.0652  141.3011  156.1261 C   0  0  0  0  0  0  0  0  0  0  0  0
  154.5546  140.4279  161.3520 H   0  0  0  0  0  0  0  0  0  0  0  0
  154.1519  139.4130  159.9739 H   0  0  0  0  0  0  0  0  0  0  0  0
  152.9397  139.7494  161.2076 H   0  0  0  0  0  0  0  0  0  0  0  0
  154.2145  141.8153  159.3521 H   0  0  0  0  0  0  0  0  0  0  0  0
  151.9241  142.2199  161.3457 H   0  0  0  0  0  0  0  0  0  0  0  0
  153.5563  142.8056  161.5254 H   0  0  0  0  0  0  0  0  0  0  0  0
  153.3299  143.3858  158.1106 H   0  0  0  0  0  0  0  0  0  0  0  0
  152.2825  145.8958  157.5812 H   0  0  0  0  0  0  0  0  0  0  0  0
  151.3874  144.8756  161.5241 H   0  0  0  0  0  0  0  0  0  0  0  0
  151.5277  141.6164  158.7691 H   0  0  0  0  0  0  0  0  0  0  0  0
  150.4763  139.6953  157.4273 H   0  0  0  0  0  0  0  0  0  0  0  0
  152.5791  139.0734  155.2952 H   0  0  0  0  0  0  0  0  0  0  0  0
  151.8298  137.9099  156.3613 H   0  0  0  0  0  0  0  0  0  0  0  0
  150.7513  137.9171  154.1120 H   0  0  0  0  0  0  0  0  0  0  0  0
  149.6132  138.3430  155.3673 H   0  0  0  0  0  0  0  0  0  0  0  0
  151.0435  140.2901  153.4933 H   0  0  0  0  0  0  0  0  0  0  0  0
  149.3450  139.8824  153.4530 H   0  0  0  0  0  0  0  0  0  0  0  0
  149.7412  142.0748  154.5951 H   0  0  0  0  0  0  0  0  0  0  0  0
  148.9867  140.9194  155.6663 H   0  0  0  0  0  0  0  0  0  0  0  0
  150.8161  142.0815  156.8464 H   0  0  0  0  0  0  0  0  0  0  0  0
  151.9524  141.6461  155.5925 H   0  0  0  0  0  0  0  0  0  0  0  0
  1  2  1  0  0  0  0
  1 18  1  0  0  0  0
  1 19  1  0  0  0  0
  1 20  1  0  0  0  0
  2  3  1  0  0  0  0
  2  9  1  0  0  0  0
  2 21  1  0  0  0  0
  3  4  1  0  0  0  0
  3 22  1  0  0  0  0
  3 23  1  0  0  0  0
  4  8  1  0  0  0  0
  4  5  1  0  0  0  0
  5  6  2  0  0  0  0
  5 24  1  0  0  0  0
  6  7  1  0  0  0  0
  6 25  1  0  0  0  0
  7  8  2  0  0  0  0
  8 26  1  0  0  0  0
  9 10  1  0  0  0  0
  9 27  1  0  0  0  0
 10 11  2  0  0  0  0
 10 12  1  0  0  0  0
 12 17  1  0  0  0  0
 12 13  1  0  0  0  0
 12 28  1  0  0  0  0
 13 14  1  0  0  0  0
 13 29  1  0  0  0  0
 13 30  1  0  0  0  0
 14 15  1  0  0  0  0
 14 31  1  0  0  0  0
 14 32  1  0  0  0  0
 15 16  1  0  0  0  0
 15 33  1  0  0  0  0
 15 34  1  0  0  0  0
 16 17  1  0  0  0  0
 16 35  1  0  0  0  0
 16 36  1  0  0  0  0
 17 37  1  0  0  0  0
 17 38  1  0  0  0  0
M  END
> <s_m_source_file>
AV-unprocessed.smi

> <i_m_source_file_index>
551

> <i_lp_mmshare_version>
43012

> <i_f3d_flags>
0

> <s_epik_input>
W2NIXTFuW2NIXVtjSF1uMVtDSDJdW0NAQEhdKFtDSDNdKVtOSF1DKD1PKVtDSF0yW0NIMl1bQ0gyXVtDSDJdW0NIMl1bQ0gyXTI=

> <s_epik_cmdline>
J2VwaWtfcHl0aG9uJywgJy1waCcsICc3LjAnLCAnLXRuJywgJzgnLCAnLW1hJywgJzIwMCcsICctbWV0YWxfYmluZGluZycsICctaW1hZScsICc8aW5maWxlLm1hZT4nLCAnLW9tYWUnLCAnPG91dGZpbGUubWFlPic=

> <r_lp_tautomer_probability>
1

> <r_epik_Ionization_Penalty>
0.642614

> <r_epik_Ionization_Penalty_Charging>
0.642614

> <r_epik_Ionization_Penalty_Neutral>
3.29891e-08

> <r_epik_State_Penalty>
0.660429

> <r_epik_Charging_Adjusted_Penalty>
1.30304

> <i_epik_Tot_Q>
0

> <i_epik_Tot_abs_Q>
0

> <r_epik_Metal_State_Penalty>
0.31224

> <b_epik_Metal_Only>
0

> <s_lp_Force_Field>
OPLS_2005

> <r_lp_Energy>
12.8339

> <b_lp_Chiralities_Consistent>
1

> <s_lp_Variant>
AV-unprocessed.smi:551-3

> <Gold.Version>
5.8.1

> <Gold.Id.Protein>
6NUR|6NUR_protein|mol2

> <Gold.PLP.Fitness>
44.8042

> <Gold.PLP.PLP>
-42.1078

> <Gold.PLP.part.hbond>
-2.0000

> <Gold.PLP.part.metal>
0.0000

> <Gold.PLP.part.buried>
-4.0853

> <Gold.PLP.part.nonpolar>
-36.2040

> <Gold.PLP.part.repulsive>
0.2812

> <Gold.PLP.ligand.clash>
0.0000

> <Gold.PLP.ligand.torsion>
0.1905

> <Gold.PLP.Chemscore.Hbond>
1.0000

> <Gold.PLP.Chemscore.CHOScore>
0.0000

> <Gold.PLP.Chemscore.Metal>
0.0000

> <Gold.Chemscore.Hbonds>
donor molecule, donor type, donor heavy atom, donor atom, acceptor molecule, acceptor atom, score
      P1  H  7997  8010       L1    11  0.84

> <Gold.PLP.Chemscore.Internal.Correction>
0.0773

> <Gold.Rescore>
     Score         DG    S(hbond)    S(metal)    S(lipo)     H(rot)  DE(clash)    DE(int)     intcor
     14.45     -15.31       0.95        0.00      94.70       1.73       0.46       0.39       ----

> <Gold.Chemscore.Fitness>
14.4526

> <Gold.Chemscore.DG>
-15.3083

> <Gold.Chemscore.ZeroCoef>
-5.4800

> <Gold.Chemscore.Hbond>
0.9526

> <Gold.Chemscore.Metal>
0.0000

> <Gold.Chemscore.Lipo>
94.7028

> <Gold.Chemscore.Internal_Hbond>
0.0000

> <Gold.Chemscore.DEClash>
0.4615

> <Gold.Chemscore.DEInternal>
0.3941

> <Gold.Chemscore.Rot>
1.7319

> <Gold.Chemscore.Internal.Correction>
   9.000000E+99

> <Gold.Chemscore.Hbonds>
donor molecule, donor type, donor heavy atom, donor atom, acceptor molecule, acceptor atom, score
      P1  H  7997  8010       L1    11  0.78

> <Gold.Chemscore.Hbond.Weighted>
-3.1818

> <Gold.Chemscore.Metal.Weighted>
-0.0000

> <Gold.Chemscore.Lipo.Weighted>
-11.0802

> <Gold.Chemscore.Internal_Hbond.Weighted>
0.0000

> <Gold.Chemscore.DEClash.Weighted>
0.4615

> <Gold.Chemscore.DEInternal.Weighted>
0.3941

> <Gold.Chemscore.Rot.Weighted>
4.4338

> <Gold.Chemscore.Internal.Correction.Weighted>
   9.000000E+99

> <Gold.Protein.RotatedTorsions>
[ 6907 6896 6895 6894 ] final   26.05 input  -60.11 | X-H torsion
[ 7974 7965 7964 7962 ] final  -82.80 input  175.53 | X-H torsion
[ 8008 7997 7996 7995 ] final   23.09 input   59.86 | X-H torsion
[ 10167 10162 10161 10158 ] final -142.68 input  -65.29 | X-H torsion
[ 10718 10713 10712 10709 ] final -113.66 input   66.30 | X-H torsion
[ 10763 10752 10751 10750 ] final   39.45 input  -60.55 | X-H torsion
[ 11005 11000 10999 10996 ] final  177.09 input  -57.11 | X-H torsion

> <Gold.Protein.ActiveResidues>
 VAL166  LYS551  ARG553  GLY616  TRP617  ASP618  TYR619  PRO620  LYS621  CYS622 
 ASP623  PHE694  ASN695  SER759  ASP760  ASP761  ALA762  ILE779  LEU786  VAL792 
 PHE793  MET794  SER795  GLU796  ALA797  LYS798  CYS799  TRP800  GLU811  SER814 

> <Gold.Protein.RotatedAtoms>
  151.9817  135.0025  160.0557 H   0  0  0  0  0  0  0  0  0  0  0  0  # atno 6907 bound_to 6896
  152.1690  133.4626  159.4908 H   0  0  0  0  0  0  0  0  0  0  0  0  # atno 6908 bound_to 6896
  150.6899  134.1894  159.4322 H   0  0  0  0  0  0  0  0  0  0  0  0  # atno 6909 bound_to 6896
  145.5285  140.9524  143.1616 H   0  0  0  0  0  0  0  0  0  0  0  0  # atno 7974 bound_to 7965
  154.9757  140.3096  155.4968 H   0  0  0  0  0  0  0  0  0  0  0  0  # atno 8008 bound_to 7997
  156.2960  140.2276  156.4792 H   0  0  0  0  0  0  0  0  0  0  0  0  # atno 8009 bound_to 7997
  154.7835  140.0444  157.1134 H   0  0  0  0  0  0  0  0  0  0  0  0  # atno 8010 bound_to 7997
  139.8066  143.7761  152.2661 H   0  0  0  0  0  0  0  0  0  0  0  0  # atno 10167 bound_to 10162
  156.0781  130.5985  150.8672 H   0  0  0  0  0  0  0  0  0  0  0  0  # atno 10718 bound_to 10713
  152.9967  135.6220  154.2466 H   0  0  0  0  0  0  0  0  0  0  0  0  # atno 10763 bound_to 10752
  154.2206  135.2796  155.2928 H   0  0  0  0  0  0  0  0  0  0  0  0  # atno 10764 bound_to 10752
  154.5532  135.5727  153.6999 H   0  0  0  0  0  0  0  0  0  0  0  0  # atno 10765 bound_to 10752
  140.3802  134.6953  157.4446 H   0  0  0  0  0  0  0  0  0  0  0  0  # atno 11005 bound_to 11000
  144.7638  139.6893  143.7223 LP  0  0  0  0  0  0  0  0  0  0  0  0  # atno 17320 bound_to 7965
  146.2059  139.5383  142.9713 LP  0  0  0  0  0  0  0  0  0  0  0  0  # atno 17321 bound_to 7965
  139.7897  144.7415  150.9973 LP  0  0  0  0  0  0  0  0  0  0  0  0  # atno 17342 bound_to 10162
  140.7819  143.4455  151.0488 LP  0  0  0  0  0  0  0  0  0  0  0  0  # atno 17343 bound_to 10162
  157.5885  131.0945  150.9157 LP  0  0  0  0  0  0  0  0  0  0  0  0  # atno 17370 bound_to 10713
  156.9338  130.5359  149.5279 LP  0  0  0  0  0  0  0  0  0  0  0  0  # atno 17371 bound_to 10713
  140.0484  134.6166  155.8892 LP  0  0  0  0  0  0  0  0  0  0  0  0  # atno 17394 bound_to 11000
  141.1926  133.6576  156.5508 LP  0  0  0  0  0  0  0  0  0  0  0  0  # atno 17395 bound_to 11000

$$$$
