AV-unprocessed.smi:148|AV-procd|sdf|1232|dock5
  -GOLD-   2262018433D 1   1.00000     0.00000
 Structure written by MMmdl.
 63 67  0  0  0  0  0  0  0  0  1 V2000
  146.6182  134.2886  154.8198 O   0  0  0  0  0  0  0  0  0  0  0  0
  147.8355  134.9457  154.5377 C   0  0  0  0  0  0  0  0  0  0  0  0
  149.0547  134.1810  155.1143 C   0  0  2  0  0  0  0  0  0  0  0  0
  150.3805  134.8915  154.7407 C   0  0  0  0  0  0  0  0  0  0  0  0
  150.4904  136.2341  155.2843 N   0  0  0  0  0  0  0  0  0  0  0  0
  150.9770  137.3518  154.6429 C   0  0  0  0  0  0  0  0  0  0  0  0
  150.9798  138.4456  155.3557 N   0  0  0  0  0  0  0  0  0  0  0  0
  150.4669  138.0465  156.5832 C   0  0  0  0  0  0  0  0  0  0  0  0
  150.2126  138.7132  157.8097 C   0  0  0  0  0  0  0  0  0  0  0  0
  150.4692  140.0316  157.9733 N   0  0  0  0  0  0  0  0  0  0  0  0
  151.6577  140.1974  158.8105 C   0  0  0  0  0  0  0  0  0  0  0  0
  151.8682  141.6640  159.2044 C   0  0  0  0  0  0  0  0  0  0  0  0
  151.9334  142.5406  157.9511 C   0  0  0  0  0  0  0  0  0  0  0  0
  150.6584  142.3557  157.1181 C   0  0  0  0  0  0  0  0  0  0  0  0
  150.4072  140.8669  156.7583 C   0  0  2  0  0  0  0  0  0  0  0  0
  149.0885  140.6474  155.9496 C   0  0  1  0  0  0  0  0  0  0  0  0
  147.7757  140.9406  156.7052 C   0  0  0  0  0  0  0  0  0  0  0  0
  146.7747  141.4540  155.6575 C   0  0  0  0  0  0  0  0  0  0  0  0
  147.4703  141.3151  154.3010 C   0  0  0  0  0  0  0  0  0  0  0  0
  148.9574  141.4284  154.6325 C   0  0  2  0  0  0  0  0  0  0  0  0
  149.7582  140.8825  153.6046 O   0  0  0  0  0  0  0  0  0  0  0  0
  149.6865  137.9883  158.8329 N   0  0  0  0  0  0  0  0  0  0  0  0
  149.4413  136.6847  158.6682 C   0  0  0  0  0  0  0  0  0  0  0  0
  149.6385  135.9279  157.5859 N   0  0  0  0  0  0  0  0  0  0  0  0
  150.1553  136.6593  156.5570 C   0  0  0  0  0  0  0  0  0  0  0  0
  149.0888  132.6954  154.6592 C   0  0  1  0  0  0  0  0  0  0  0  0
  148.1472  131.7732  155.4174 C   0  0  0  0  0  0  0  0  0  0  0  0
  148.0552  130.5619  154.4961 C   0  0  0  0  0  0  0  0  0  0  0  0
  148.2090  131.0687  153.1763 O   0  0  0  0  0  0  0  0  0  0  0  0
  148.6165  132.4320  153.2243 C   0  0  0  0  0  0  0  0  0  0  0  0
  146.8116  133.4588  155.2288 H   0  0  0  0  0  0  0  0  0  0  0  0
  147.9378  135.0803  153.4606 H   0  0  0  0  0  0  0  0  0  0  0  0
  147.7469  135.9408  154.9707 H   0  0  0  0  0  0  0  0  0  0  0  0
  148.9756  134.1989  156.2024 H   0  0  0  0  0  0  0  0  0  0  0  0
  151.2401  134.3326  155.1096 H   0  0  0  0  0  0  0  0  0  0  0  0
  150.4872  134.9430  153.6563 H   0  0  0  0  0  0  0  0  0  0  0  0
  151.3280  137.3311  153.6214 H   0  0  0  0  0  0  0  0  0  0  0  0
  151.5645  139.5916  159.7134 H   0  0  0  0  0  0  0  0  0  0  0  0
  152.5335  139.8316  158.2721 H   0  0  0  0  0  0  0  0  0  0  0  0
  151.0511  141.9950  159.8467 H   0  0  0  0  0  0  0  0  0  0  0  0
  152.7854  141.7677  159.7846 H   0  0  0  0  0  0  0  0  0  0  0  0
  152.0523  143.5881  158.2291 H   0  0  0  0  0  0  0  0  0  0  0  0
  152.8072  142.2724  157.3559 H   0  0  0  0  0  0  0  0  0  0  0  0
  149.8162  142.7633  157.6761 H   0  0  0  0  0  0  0  0  0  0  0  0
  150.7539  142.9600  156.2175 H   0  0  0  0  0  0  0  0  0  0  0  0
  151.2349  140.5552  156.1195 H   0  0  0  0  0  0  0  0  0  0  0  0
  149.0357  139.5966  155.6601 H   0  0  0  0  0  0  0  0  0  0  0  0
  147.4062  140.0374  157.1915 H   0  0  0  0  0  0  0  0  0  0  0  0
  147.9041  141.6874  157.4872 H   0  0  0  0  0  0  0  0  0  0  0  0
  145.8303  140.9100  155.6868 H   0  0  0  0  0  0  0  0  0  0  0  0
  146.5523  142.5043  155.8512 H   0  0  0  0  0  0  0  0  0  0  0  0
  147.2519  140.3308  153.8829 H   0  0  0  0  0  0  0  0  0  0  0  0
  147.1402  142.0631  153.5795 H   0  0  0  0  0  0  0  0  0  0  0  0
  149.2017  142.4816  154.7618 H   0  0  0  0  0  0  0  0  0  0  0  0
  149.2378  140.2640  153.1148 H   0  0  0  0  0  0  0  0  0  0  0  0
  149.0291  136.1751  159.5266 H   0  0  0  0  0  0  0  0  0  0  0  0
  150.1040  132.3090  154.7646 H   0  0  0  0  0  0  0  0  0  0  0  0
  148.5082  131.5043  156.4103 H   0  0  0  0  0  0  0  0  0  0  0  0
  147.1655  132.2375  155.5245 H   0  0  0  0  0  0  0  0  0  0  0  0
  148.8723  129.8680  154.6976 H   0  0  0  0  0  0  0  0  0  0  0  0
  147.1151  130.0218  154.6105 H   0  0  0  0  0  0  0  0  0  0  0  0
  147.7529  133.0529  152.9815 H   0  0  0  0  0  0  0  0  0  0  0  0
  149.3937  132.6275  152.4852 H   0  0  0  0  0  0  0  0  0  0  0  0
  1  2  1  0  0  0  0
  1 31  1  0  0  0  0
  2  3  1  0  0  0  0
  2 32  1  0  0  0  0
  2 33  1  0  0  0  0
  3  4  1  0  0  0  0
  3 26  1  0  0  0  0
  3 34  1  0  0  0  0
  4  5  1  0  0  0  0
  4 35  1  0  0  0  0
  4 36  1  0  0  0  0
  5 25  1  0  0  0  0
  5  6  1  0  0  0  0
  6  7  2  0  0  0  0
  6 37  1  0  0  0  0
  7  8  1  0  0  0  0
  8 25  2  0  0  0  0
  8  9  1  0  0  0  0
  9 10  1  0  0  0  0
  9 22  2  0  0  0  0
 10 15  1  0  0  0  0
 10 11  1  0  0  0  0
 11 12  1  0  0  0  0
 11 38  1  0  0  0  0
 11 39  1  0  0  0  0
 12 13  1  0  0  0  0
 12 40  1  0  0  0  0
 12 41  1  0  0  0  0
 13 14  1  0  0  0  0
 13 42  1  0  0  0  0
 13 43  1  0  0  0  0
 14 15  1  0  0  0  0
 14 44  1  0  0  0  0
 14 45  1  0  0  0  0
 15 16  1  0  0  0  0
 15 46  1  0  0  0  0
 16 20  1  0  0  0  0
 16 17  1  0  0  0  0
 16 47  1  0  0  0  0
 17 18  1  0  0  0  0
 17 48  1  0  0  0  0
 17 49  1  0  0  0  0
 18 19  1  0  0  0  0
 18 50  1  0  0  0  0
 18 51  1  0  0  0  0
 19 20  1  0  0  0  0
 19 52  1  0  0  0  0
 19 53  1  0  0  0  0
 20 21  1  0  0  0  0
 20 54  1  0  0  0  0
 21 55  1  0  0  0  0
 22 23  1  0  0  0  0
 23 24  2  0  0  0  0
 23 56  1  0  0  0  0
 24 25  1  0  0  0  0
 26 30  1  0  0  0  0
 26 27  1  0  0  0  0
 26 57  1  0  0  0  0
 27 28  1  0  0  0  0
 27 58  1  0  0  0  0
 27 59  1  0  0  0  0
 28 29  1  0  0  0  0
 28 60  1  0  0  0  0
 28 61  1  0  0  0  0
 29 30  1  0  0  0  0
 30 62  1  0  0  0  0
 30 63  1  0  0  0  0
M  END
> <s_m_source_file>
AV-unprocessed.smi

> <i_m_source_file_index>
148

> <i_lp_mmshare_version>
43012

> <i_f3d_flags>
0

> <s_epik_input>
W0NIMl0xT1tDSDJdW0NIMl1bQ0BIXTFbQ0BIXShbQ0gyXVtPSF0pW0NIMl1uKFtjSF1uMiljKGMyMyluW2NIXW5jM040W0NIMl1bQ0gyXVtDSDJdW0NIMl1bQ0BIXTRbQ0BASF01W0NIMl1bQ0gyXVtDSDJdW0NASF01W09IXQ==

> <s_epik_cmdline>
J2VwaWtfcHl0aG9uJywgJy1waCcsICc3LjAnLCAnLXRuJywgJzgnLCAnLW1hJywgJzIwMCcsICctbWV0YWxfYmluZGluZycsICctaW1hZScsICc8aW5maWxlLm1hZT4nLCAnLW9tYWUnLCAnPG91dGZpbGUubWFlPic=

> <r_lp_tautomer_probability>
1

> <r_epik_Ionization_Penalty>
0.00556303

> <r_epik_Ionization_Penalty_Charging>
0

> <r_epik_Ionization_Penalty_Neutral>
0.00556303

> <r_epik_State_Penalty>
0.00401767

> <r_epik_Charging_Adjusted_Penalty>
0.00401767

> <i_epik_Tot_Q>
0

> <i_epik_Tot_abs_Q>
0

> <r_epik_Metal_State_Penalty>
-0

> <b_epik_Metal_Only>
0

> <s_lp_Force_Field>
OPLS_2005

> <r_lp_Energy>
68.3277

> <b_lp_Chiralities_Consistent>
1

> <s_lp_Variant>
AV-unprocessed.smi:148-31

> <Gold.Version>
5.8.1

> <Gold.Id.Protein>
6NUR|6NUR_protein|mol2

> <Gold.PLP.Fitness>
44.6199

> <Gold.PLP.PLP>
-38.6208

> <Gold.PLP.part.hbond>
-2.7205

> <Gold.PLP.part.metal>
0.0000

> <Gold.PLP.part.buried>
-5.9233

> <Gold.PLP.part.nonpolar>
-30.2184

> <Gold.PLP.part.repulsive>
0.9465

> <Gold.PLP.ligand.clash>
0.0000

> <Gold.PLP.ligand.torsion>
1.3091

> <Gold.PLP.Chemscore.Hbond>
1.7520

> <Gold.PLP.Chemscore.CHOScore>
0.9884

> <Gold.PLP.Chemscore.Metal>
0.0000

> <Gold.Chemscore.Hbonds>
donor molecule, donor type, donor heavy atom, donor atom, acceptor molecule, acceptor atom, score
      L1  H    21    55       P1  7957  0.37
      P1  H  7989  7998       L1    21  0.35
      P1  H  8011  8017       L1    21  1.00
      L1  C     6    37       P1  7949  1.00

> <Gold.PLP.Chemscore.Internal.Correction>
0.3962

> <Gold.Rescore>
     Score         DG    S(hbond)    S(metal)    S(lipo)     H(rot)  DE(clash)    DE(int)     intcor
      7.23     -11.11       1.00        0.00      92.22       3.32       0.16       3.72       ----

> <Gold.Chemscore.Fitness>
7.2314

> <Gold.Chemscore.DG>
-11.1072

> <Gold.Chemscore.ZeroCoef>
-5.4800

> <Gold.Chemscore.Hbond>
0.9991

> <Gold.Chemscore.Metal>
0.0000

> <Gold.Chemscore.Lipo>
92.2244

> <Gold.Chemscore.Internal_Hbond>
0.0000

> <Gold.Chemscore.DEClash>
0.1570

> <Gold.Chemscore.DEInternal>
3.7188

> <Gold.Chemscore.Rot>
3.3203

> <Gold.Chemscore.Internal.Correction>
   9.000000E+99

> <Gold.Chemscore.Hbonds>
donor molecule, donor type, donor heavy atom, donor atom, acceptor molecule, acceptor atom, score
      L1  H    21    55       P1  7957  0.35
      P1  H  7989  7998       L1    21  0.35
      P1  H  8011  8017       L1    21  0.08

> <Gold.Chemscore.Hbond.Weighted>
-3.3370

> <Gold.Chemscore.Metal.Weighted>
-0.0000

> <Gold.Chemscore.Lipo.Weighted>
-10.7903

> <Gold.Chemscore.Internal_Hbond.Weighted>
0.0000

> <Gold.Chemscore.DEClash.Weighted>
0.1570

> <Gold.Chemscore.DEInternal.Weighted>
3.7188

> <Gold.Chemscore.Rot.Weighted>
8.5000

> <Gold.Chemscore.Internal.Correction.Weighted>
   9.000000E+99

> <Gold.Protein.RotatedTorsions>
[ 6907 6896 6895 6894 ] final    0.16 input  -60.11 | X-H torsion
[ 7974 7965 7964 7962 ] final   -1.33 input  175.53 | X-H torsion
[ 8008 7997 7996 7995 ] final  108.85 input   59.86 | X-H torsion
[ 10167 10162 10161 10158 ] final -135.13 input  -65.29 | X-H torsion
[ 10718 10713 10712 10709 ] final  -86.53 input   66.30 | X-H torsion
[ 10763 10752 10751 10750 ] final  -73.06 input  -60.55 | X-H torsion
[ 11005 11000 10999 10996 ] final   39.99 input  -57.11 | X-H torsion

> <Gold.Protein.ActiveResidues>
 VAL166  LYS551  ARG553  GLY616  TRP617  ASP618  TYR619  PRO620  LYS621  CYS622 
 ASP623  PHE694  ASN695  SER759  ASP760  ASP761  ALA762  ILE779  LEU786  VAL792 
 PHE793  MET794  SER795  GLU796  ALA797  LYS798  CYS799  TRP800  GLU811  SER814 

> <Gold.Protein.RotatedAtoms>
  151.5718  135.1062  159.9996 H   0  0  0  0  0  0  0  0  0  0  0  0  # atno 6907 bound_to 6896
  152.4397  133.7421  159.6657 H   0  0  0  0  0  0  0  0  0  0  0  0  # atno 6908 bound_to 6896
  150.8300  133.8038  159.3126 H   0  0  0  0  0  0  0  0  0  0  0  0  # atno 6909 bound_to 6896
  146.2418  140.1405  142.8335 H   0  0  0  0  0  0  0  0  0  0  0  0  # atno 7974 bound_to 7965
  156.1935  140.3069  155.9379 H   0  0  0  0  0  0  0  0  0  0  0  0  # atno 8008 bound_to 7997
  155.3120  140.0451  157.3052 H   0  0  0  0  0  0  0  0  0  0  0  0  # atno 8009 bound_to 7997
  154.5480  140.2282  155.8540 H   0  0  0  0  0  0  0  0  0  0  0  0  # atno 8010 bound_to 7997
  139.8810  143.6839  152.2627 H   0  0  0  0  0  0  0  0  0  0  0  0  # atno 10167 bound_to 10162
  155.9989  130.4768  150.4729 H   0  0  0  0  0  0  0  0  0  0  0  0  # atno 10718 bound_to 10713
  154.4543  135.5909  153.6213 H   0  0  0  0  0  0  0  0  0  0  0  0  # atno 10763 bound_to 10752
  152.9816  135.6028  154.3565 H   0  0  0  0  0  0  0  0  0  0  0  0  # atno 10764 bound_to 10752
  154.3430  135.2841  155.2391 H   0  0  0  0  0  0  0  0  0  0  0  0  # atno 10765 bound_to 10752
  140.1974  134.3912  155.8114 H   0  0  0  0  0  0  0  0  0  0  0  0  # atno 11005 bound_to 11000
  145.0251  140.8825  143.5143 LP  0  0  0  0  0  0  0  0  0  0  0  0  # atno 17320 bound_to 7965
  145.1459  139.2543  143.5466 LP  0  0  0  0  0  0  0  0  0  0  0  0  # atno 17321 bound_to 7965
  139.7196  144.7605  151.0977 LP  0  0  0  0  0  0  0  0  0  0  0  0  # atno 17342 bound_to 10162
  140.7744  143.5225  150.9519 LP  0  0  0  0  0  0  0  0  0  0  0  0  # atno 17343 bound_to 10162
  157.2742  131.0593  151.2240 LP  0  0  0  0  0  0  0  0  0  0  0  0  # atno 17370 bound_to 10713
  157.3309  130.6984  149.6324 LP  0  0  0  0  0  0  0  0  0  0  0  0  # atno 17371 bound_to 10713
  141.2227  133.7076  156.8199 LP  0  0  0  0  0  0  0  0  0  0  0  0  # atno 17394 bound_to 11000
  140.2092  134.8840  157.3255 LP  0  0  0  0  0  0  0  0  0  0  0  0  # atno 17395 bound_to 11000

$$$$
