AV-unprocessed.smi:1032|AV-procd|sdf|4487|dock4
  -GOLD-   22720 2473D 1   1.00000     0.00000
 Structure written by MMmdl.
 47 48  0  0  0  0  0  0  0  0  3 V2000
  146.4733  131.0872  152.3237 C   0  0  0  0  0  0  0  0  0  0  0  0
  145.8792  132.4990  152.2237 C   0  0  2  0  0  0  0  0  0  0  0  0
  146.1261  133.1242  150.8407 C   0  0  0  0  0  0  0  0  0  0  0  0
  145.5530  134.5493  150.7609 C   0  0  0  0  0  0  0  0  0  0  0  0
  146.1174  135.4154  151.8278 N   0  3  1  0  0  0  0  0  0  0  0  0
  145.6880  136.8316  151.6932 C   0  0  0  0  0  0  0  0  0  0  0  0
  146.1958  137.7140  152.8519 C   0  0  1  0  0  0  0  0  0  0  0  0
  146.2387  139.0465  152.3791 O   0  0  0  0  0  0  0  0  0  0  0  0
  145.2513  137.6525  154.0690 C   0  0  0  0  0  0  0  0  0  0  0  0
  143.9716  138.2976  153.7928 N   0  0  0  0  0  0  0  0  0  0  0  0
  142.7743  137.8097  154.1470 C   0  0  0  0  0  0  0  0  0  0  0  0
  142.6299  136.7669  154.7842 O   0  0  0  0  0  0  0  0  0  0  0  0
  141.7784  138.6099  153.7286 N   0  0  0  0  0  0  0  0  0  0  0  0
  140.3741  138.4266  153.8580 C   0  0  0  0  0  0  0  0  0  0  0  0
  139.5551  139.5714  153.7394 C   0  0  0  0  0  0  0  0  0  0  0  0
  138.1552  139.4404  153.8423 C   0  0  0  0  0  0  0  0  0  0  0  0
  137.6073  138.2235  154.0462 N   0  3  0  0  0  0  0  0  0  0  0  0
  138.3466  137.0990  154.1534 C   0  0  0  0  0  0  0  0  0  0  0  0
  139.7514  137.1674  154.0570 C   0  0  0  0  0  0  0  0  0  0  0  0
  145.8621  134.8506  153.1797 C   0  0  0  0  0  0  0  0  0  0  0  0
  146.4424  133.4325  153.3079 C   0  0  0  0  0  0  0  0  0  0  0  0
  147.5547  131.1003  152.1847 H   0  0  0  0  0  0  0  0  0  0  0  0
  146.0481  130.4279  151.5666 H   0  0  0  0  0  0  0  0  0  0  0  0
  146.2681  130.6433  153.2983 H   0  0  0  0  0  0  0  0  0  0  0  0
  144.8014  132.4161  152.3722 H   0  0  0  0  0  0  0  0  0  0  0  0
  147.1966  133.1509  150.6318 H   0  0  0  0  0  0  0  0  0  0  0  0
  145.6758  132.5042  150.0646 H   0  0  0  0  0  0  0  0  0  0  0  0
  145.7857  134.9707  149.7822 H   0  0  0  0  0  0  0  0  0  0  0  0
  144.4654  134.5250  150.8467 H   0  0  0  0  0  0  0  0  0  0  0  0
  146.0575  137.2467  150.7538 H   0  0  0  0  0  0  0  0  0  0  0  0
  144.5992  136.8672  151.6292 H   0  0  0  0  0  0  0  0  0  0  0  0
  147.1975  137.4081  153.1534 H   0  0  0  0  0  0  0  0  0  0  0  0
  145.3537  139.3453  152.2315 H   0  0  0  0  0  0  0  0  0  0  0  0
  145.1214  136.6286  154.4250 H   0  0  0  0  0  0  0  0  0  0  0  0
  145.6940  138.2040  154.8991 H   0  0  0  0  0  0  0  0  0  0  0  0
  144.0014  139.1675  153.2812 H   0  0  0  0  0  0  0  0  0  0  0  0
  142.0617  139.4748  153.2917 H   0  0  0  0  0  0  0  0  0  0  0  0
  139.9927  140.5456  153.5748 H   0  0  0  0  0  0  0  0  0  0  0  0
  137.4628  140.2661  153.7660 H   0  0  0  0  0  0  0  0  0  0  0  0
  137.7959  136.1823  154.3060 H   0  0  0  0  0  0  0  0  0  0  0  0
  140.3177  136.2515  154.1255 H   0  0  0  0  0  0  0  0  0  0  0  0
  146.3057  135.4832  153.9472 H   0  0  0  0  0  0  0  0  0  0  0  0
  144.7880  134.8326  153.3709 H   0  0  0  0  0  0  0  0  0  0  0  0
  146.2175  133.0335  154.2976 H   0  0  0  0  0  0  0  0  0  0  0  0
  147.5301  133.4761  153.2330 H   0  0  0  0  0  0  0  0  0  0  0  0
  147.1184  135.4125  151.6893 H   0  0  0  0  0  0  0  0  0  0  0  0
  136.5921  138.1495  154.1177 H   0  0  0  0  0  0  0  0  0  0  0  0
  1  2  1  0  0  0  0
  1 22  1  0  0  0  0
  1 23  1  0  0  0  0
  1 24  1  0  0  0  0
  2 21  1  0  0  0  0
  2  3  1  0  0  0  0
  2 25  1  0  0  0  0
  3  4  1  0  0  0  0
  3 26  1  0  0  0  0
  3 27  1  0  0  0  0
  4  5  1  0  0  0  0
  4 28  1  0  0  0  0
  4 29  1  0  0  0  0
  5  6  1  0  0  0  0
  5 20  1  0  0  0  0
  5 46  1  0  0  0  0
  6  7  1  0  0  0  0
  6 30  1  0  0  0  0
  6 31  1  0  0  0  0
  7  8  1  0  0  0  0
  7  9  1  0  0  0  0
  7 32  1  0  0  0  0
  8 33  1  0  0  0  0
  9 10  1  0  0  0  0
  9 34  1  0  0  0  0
  9 35  1  0  0  0  0
 10 11  1  0  0  0  0
 10 36  1  0  0  0  0
 11 12  2  0  0  0  0
 11 13  1  0  0  0  0
 13 14  1  0  0  0  0
 13 37  1  0  0  0  0
 14 19  1  0  0  0  0
 14 15  2  0  0  0  0
 15 16  1  0  0  0  0
 15 38  1  0  0  0  0
 16 17  2  0  0  0  0
 16 39  1  0  0  0  0
 17 18  1  0  0  0  0
 17 47  1  0  0  0  0
 18 19  2  0  0  0  0
 18 40  1  0  0  0  0
 19 41  1  0  0  0  0
 20 21  1  0  0  0  0
 20 42  1  0  0  0  0
 20 43  1  0  0  0  0
 21 44  1  0  0  0  0
 21 45  1  0  0  0  0
M  CHG  1   5   1
M  CHG  1  17   1
M  END
> <s_m_source_file>
AV-unprocessed.smi

> <i_m_source_file_index>
1032

> <i_lp_mmshare_version>
43012

> <i_f3d_flags>
0

> <s_epik_input>
W0NIM11bQ0hdMVtDSDJdW0NIMl1OKFtDSDJdW0NIMl0xKVtDSDJdW0NASF0oW09IXSlbQ0gyXVtOSF1DKD1PKVtOSF1jMltjSF1bY0hdbltjSF1bY0hdMg==

> <s_epik_cmdline>
J2VwaWtfcHl0aG9uJywgJy1waCcsICc3LjAnLCAnLXRuJywgJzgnLCAnLW1hJywgJzIwMCcsICctbWV0YWxfYmluZGluZycsICctaW1hZScsICc8aW5maWxlLm1hZT4nLCAnLW9tYWUnLCAnPG91dGZpbGUubWFlPic=

> <r_epik_Ionization_Penalty>
1.02509

> <r_epik_Ionization_Penalty_Charging>
1.02507

> <r_epik_Ionization_Penalty_Neutral>
1.85474e-05

> <r_epik_State_Penalty>
1.07411

> <r_epik_Charging_Adjusted_Penalty>
2.09917

> <i_epik_Tot_Q>
2

> <i_epik_Tot_abs_Q>
2

> <r_epik_Metal_State_Penalty>
1.1725

> <b_epik_Metal_Only>
0

> <s_lp_Force_Field>
OPLS_2005

> <r_lp_Energy>
29.9623

> <b_lp_Chiralities_Consistent>
1

> <s_lp_Variant>
AV-unprocessed.smi:1032-6

> <Gold.Version>
5.8.1

> <Gold.Id.Protein>
6NUR|6NUR_protein|mol2

> <Gold.PLP.Fitness>
45.1379

> <Gold.PLP.PLP>
-31.4864

> <Gold.PLP.part.hbond>
-4.0000

> <Gold.PLP.part.metal>
0.0000

> <Gold.PLP.part.buried>
-2.9704

> <Gold.PLP.part.nonpolar>
-24.2611

> <Gold.PLP.part.repulsive>
0.0682

> <Gold.PLP.ligand.clash>
0.0000

> <Gold.PLP.ligand.torsion>
0.5637

> <Gold.PLP.Chemscore.Hbond>
4.9120

> <Gold.PLP.Chemscore.CHOScore>
0.0000

> <Gold.PLP.Chemscore.Metal>
0.0000

> <Gold.Chemscore.Hbonds>
donor molecule, donor type, donor heavy atom, donor atom, acceptor molecule, acceptor atom, score
      L1  H     5    46       P1  7948  2.00
      L1  H     8    33       P1 10175  1.00
      L1  H    10    36       P1 10175  1.00
      L1  H    13    37       P1 10175  0.90

> <Gold.PLP.Chemscore.Internal.Correction>
0.0428

> <Gold.Rescore>
     Score         DG    S(hbond)    S(metal)    S(lipo)     H(rot)  DE(clash)    DE(int)     intcor
     18.71     -21.28       3.73        0.00      79.85       2.34       0.02       2.55       ----

> <Gold.Chemscore.Fitness>
18.7066

> <Gold.Chemscore.DG>
-21.2764

> <Gold.Chemscore.ZeroCoef>
-5.4800

> <Gold.Chemscore.Hbond>
3.7253

> <Gold.Chemscore.Metal>
0.0000

> <Gold.Chemscore.Lipo>
79.8510

> <Gold.Chemscore.Internal_Hbond>
0.0000

> <Gold.Chemscore.DEClash>
0.0209

> <Gold.Chemscore.DEInternal>
2.5489

> <Gold.Chemscore.Rot>
2.3393

> <Gold.Chemscore.Internal.Correction>
   9.000000E+99

> <Gold.Chemscore.Hbonds>
donor molecule, donor type, donor heavy atom, donor atom, acceptor molecule, acceptor atom, score
      L1  H     5    46       P1  7948  0.94
      L1  H     8    33       P1 10175  0.94
      L1  H    10    36       P1 10175  0.95
      L1  H    13    37       P1 10175  0.79

> <Gold.Chemscore.Hbond.Weighted>
-12.4425

> <Gold.Chemscore.Metal.Weighted>
-0.0000

> <Gold.Chemscore.Lipo.Weighted>
-9.3426

> <Gold.Chemscore.Internal_Hbond.Weighted>
0.0000

> <Gold.Chemscore.DEClash.Weighted>
0.0209

> <Gold.Chemscore.DEInternal.Weighted>
2.5489

> <Gold.Chemscore.Rot.Weighted>
5.9886

> <Gold.Chemscore.Internal.Correction.Weighted>
   9.000000E+99

> <Gold.Protein.RotatedTorsions>
[ 6907 6896 6895 6894 ] final  -71.27 input  -60.11 | X-H torsion
[ 7974 7965 7964 7962 ] final  -73.81 input  175.53 | X-H torsion
[ 8008 7997 7996 7995 ] final  173.35 input   59.86 | X-H torsion
[ 10167 10162 10161 10158 ] final  151.90 input  -65.29 | X-H torsion
[ 10718 10713 10712 10709 ] final  -23.86 input   66.30 | X-H torsion
[ 10763 10752 10751 10750 ] final   70.22 input  -60.55 | X-H torsion
[ 11005 11000 10999 10996 ] final   13.06 input  -57.11 | X-H torsion

> <Gold.Protein.ActiveResidues>
 VAL166  LYS551  ARG553  GLY616  TRP617  ASP618  TYR619  PRO620  LYS621  CYS622 
 ASP623  PHE694  ASN695  SER759  ASP760  ASP761  ALA762  ILE779  LEU786  VAL792 
 PHE793  MET794  SER795  GLU796  ALA797  LYS798  CYS799  TRP800  GLU811  SER814 

> <Gold.Protein.RotatedAtoms>
  150.7220  134.5333  159.5710 H   0  0  0  0  0  0  0  0  0  0  0  0  # atno 6907 bound_to 6896
  152.2861  134.7771  160.0396 H   0  0  0  0  0  0  0  0  0  0  0  0  # atno 6908 bound_to 6896
  151.8401  133.3387  159.3677 H   0  0  0  0  0  0  0  0  0  0  0  0  # atno 6909 bound_to 6896
  145.6473  140.9293  143.1003 H   0  0  0  0  0  0  0  0  0  0  0  0  # atno 7974 bound_to 7965
  156.1084  140.1462  156.9372 H   0  0  0  0  0  0  0  0  0  0  0  0  # atno 8008 bound_to 7997
  154.4750  140.0897  156.7283 H   0  0  0  0  0  0  0  0  0  0  0  0  # atno 8009 bound_to 7997
  155.4639  140.3439  155.4318 H   0  0  0  0  0  0  0  0  0  0  0  0  # atno 8010 bound_to 7997
  139.4837  144.5402  151.7577 H   0  0  0  0  0  0  0  0  0  0  0  0  # atno 10167 bound_to 10162
  156.4854  130.4554  149.6786 H   0  0  0  0  0  0  0  0  0  0  0  0  # atno 10718 bound_to 10713
  153.0329  135.5182  154.7407 H   0  0  0  0  0  0  0  0  0  0  0  0  # atno 10763 bound_to 10752
  154.6407  135.2912  155.0109 H   0  0  0  0  0  0  0  0  0  0  0  0  # atno 10764 bound_to 10752
  154.1027  135.6634  153.4923 H   0  0  0  0  0  0  0  0  0  0  0  0  # atno 10765 bound_to 10752
  140.4850  134.0898  155.7759 H   0  0  0  0  0  0  0  0  0  0  0  0  # atno 11005 bound_to 11000
  144.7135  139.8281  143.7406 LP  0  0  0  0  0  0  0  0  0  0  0  0  # atno 17320 bound_to 7965
  146.1232  139.4254  143.0215 LP  0  0  0  0  0  0  0  0  0  0  0  0  # atno 17321 bound_to 7965
  140.4941  144.1267  150.5956 LP  0  0  0  0  0  0  0  0  0  0  0  0  # atno 17342 bound_to 10162
  140.4138  143.2644  151.9800 LP  0  0  0  0  0  0  0  0  0  0  0  0  # atno 17343 bound_to 10162
  156.3479  130.7417  151.2372 LP  0  0  0  0  0  0  0  0  0  0  0  0  # atno 17370 bound_to 10713
  157.7479  131.0385  150.4507 LP  0  0  0  0  0  0  0  0  0  0  0  0  # atno 17371 bound_to 10713
  141.1513  133.8964  157.2091 LP  0  0  0  0  0  0  0  0  0  0  0  0  # atno 17394 bound_to 11000
  139.9804  135.0100  156.9734 LP  0  0  0  0  0  0  0  0  0  0  0  0  # atno 17395 bound_to 11000

$$$$
