AV-unprocessed.smi:3303|AV-procd|sdf|12682|dock9
  -GOLD-   2272019 23D 1   1.00000     0.00000
 Structure written by MMmdl.
 44 45  0  0  0  0  0  0  0  0  2 V2000
  147.7893  137.8976  154.4372 C   0  0  0  0  0  0  0  0  0  0  0  0
  146.7240  136.9256  154.9863 C   0  0  1  0  0  0  0  0  0  0  0  0
  145.8527  136.3495  153.8543 C   0  0  0  0  0  0  0  0  0  0  0  0
  146.6015  135.3908  152.9979 N   0  3  2  0  0  0  0  0  0  0  0  0
  145.7827  134.9747  151.8335 C   0  0  0  0  0  0  0  0  0  0  0  0
  147.1657  134.2506  153.7830 C   0  0  1  0  0  0  0  0  0  0  0  0
  147.9807  133.2758  152.9111 C   0  0  0  0  0  0  0  0  0  0  0  0
  148.0497  134.7707  154.9364 C   0  0  0  0  0  0  0  0  0  0  0  0
  147.2921  135.7614  155.8337 C   0  0  1  0  0  0  0  0  0  0  0  0
  148.1778  136.2074  156.9043 N   0  0  0  0  0  0  0  0  0  0  0  0
  147.4502  136.4839  158.1347 C   0  0  0  0  0  0  0  0  0  0  0  0
  148.4414  136.8133  159.2589 C   0  0  0  0  0  0  0  0  0  0  0  0
  147.9628  136.3016  160.6044 C   0  0  0  0  0  0  0  0  0  0  0  0
  147.8428  134.9170  160.8490 C   0  0  0  0  0  0  0  0  0  0  0  0
  147.4033  134.4958  162.1191 C   0  0  0  0  0  0  0  0  0  0  0  0
  147.1037  135.4698  163.0909 C   0  0  0  0  0  0  0  0  0  0  0  0
  147.2574  136.8277  162.7478 C   0  0  0  0  0  0  0  0  0  0  0  0
  147.6781  137.2424  161.5331 N   0  0  0  0  0  0  0  0  0  0  0  0
  148.4941  137.4014  153.7704 H   0  0  0  0  0  0  0  0  0  0  0  0
  148.3626  138.3591  155.2416 H   0  0  0  0  0  0  0  0  0  0  0  0
  147.3224  138.7061  153.8743 H   0  0  0  0  0  0  0  0  0  0  0  0
  146.0586  137.5155  155.6169 H   0  0  0  0  0  0  0  0  0  0  0  0
  144.9845  135.8426  154.2792 H   0  0  0  0  0  0  0  0  0  0  0  0
  145.4647  137.1668  153.2445 H   0  0  0  0  0  0  0  0  0  0  0  0
  144.9676  134.3190  152.1428 H   0  0  0  0  0  0  0  0  0  0  0  0
  146.3817  134.4566  151.0854 H   0  0  0  0  0  0  0  0  0  0  0  0
  145.3479  135.8424  151.3363 H   0  0  0  0  0  0  0  0  0  0  0  0
  146.3308  133.6972  154.2166 H   0  0  0  0  0  0  0  0  0  0  0  0
  148.4548  132.5091  153.5250 H   0  0  0  0  0  0  0  0  0  0  0  0
  148.7699  133.7941  152.3653 H   0  0  0  0  0  0  0  0  0  0  0  0
  147.3568  132.7502  152.1886 H   0  0  0  0  0  0  0  0  0  0  0  0
  148.3939  133.9279  155.5379 H   0  0  0  0  0  0  0  0  0  0  0  0
  148.9486  135.2380  154.5316 H   0  0  0  0  0  0  0  0  0  0  0  0
  146.4610  135.2191  156.2880 H   0  0  0  0  0  0  0  0  0  0  0  0
  148.8618  135.4873  157.0904 H   0  0  0  0  0  0  0  0  0  0  0  0
  146.7689  137.3225  157.9920 H   0  0  0  0  0  0  0  0  0  0  0  0
  146.8516  135.6151  158.4113 H   0  0  0  0  0  0  0  0  0  0  0  0
  149.4169  136.3748  159.0426 H   0  0  0  0  0  0  0  0  0  0  0  0
  148.5951  137.8917  159.3195 H   0  0  0  0  0  0  0  0  0  0  0  0
  148.0833  134.1930  160.0841 H   0  0  0  0  0  0  0  0  0  0  0  0
  147.2995  133.4449  162.3444 H   0  0  0  0  0  0  0  0  0  0  0  0
  146.7656  135.1840  164.0758 H   0  0  0  0  0  0  0  0  0  0  0  0
  147.0377  137.6015  163.4684 H   0  0  0  0  0  0  0  0  0  0  0  0
  147.3888  135.9018  152.6249 H   0  0  0  0  0  0  0  0  0  0  0  0
  1  2  1  0  0  0  0
  1 19  1  0  0  0  0
  1 20  1  0  0  0  0
  1 21  1  0  0  0  0
  2  9  1  0  0  0  0
  2  3  1  0  0  0  0
  2 22  1  0  0  0  0
  3  4  1  0  0  0  0
  3 23  1  0  0  0  0
  3 24  1  0  0  0  0
  4  5  1  0  0  0  0
  4  6  1  0  0  0  0
  4 44  1  0  0  0  0
  5 25  1  0  0  0  0
  5 26  1  0  0  0  0
  5 27  1  0  0  0  0
  6  7  1  0  0  0  0
  6  8  1  0  0  0  0
  6 28  1  0  0  0  0
  7 29  1  0  0  0  0
  7 30  1  0  0  0  0
  7 31  1  0  0  0  0
  8  9  1  0  0  0  0
  8 32  1  0  0  0  0
  8 33  1  0  0  0  0
  9 10  1  0  0  0  0
  9 34  1  0  0  0  0
 10 11  1  0  0  0  0
 10 35  1  0  0  0  0
 11 12  1  0  0  0  0
 11 36  1  0  0  0  0
 11 37  1  0  0  0  0
 12 13  1  0  0  0  0
 12 38  1  0  0  0  0
 12 39  1  0  0  0  0
 13 18  1  0  0  0  0
 13 14  2  0  0  0  0
 14 15  1  0  0  0  0
 14 40  1  0  0  0  0
 15 16  2  0  0  0  0
 15 41  1  0  0  0  0
 16 17  1  0  0  0  0
 16 42  1  0  0  0  0
 17 18  2  0  0  0  0
 17 43  1  0  0  0  0
M  CHG  1   4   1
M  END
> <s_m_source_file>
AV-unprocessed.smi

> <i_m_source_file_index>
3303

> <i_lp_mmshare_version>
43012

> <i_f3d_flags>
0

> <s_epik_input>
W0NIM11bQ0BASF0xW0NIMl1OKFtDSDNdKVtDQEBIXShbQ0gzXSlbQ0gyXVtDQEhdMVtOSF1bQ0gyXVtDSDJdYzJbY0hdW2NIXVtjSF1bY0hdbjI=

> <s_epik_cmdline>
J2VwaWtfcHl0aG9uJywgJy1waCcsICc3LjAnLCAnLXRuJywgJzgnLCAnLW1hJywgJzIwMCcsICctbWV0YWxfYmluZGluZycsICctaW1hZScsICc8aW5maWxlLm1hZT4nLCAnLW9tYWUnLCAnPG91dGZpbGUubWFlPic=

> <r_epik_Ionization_Penalty>
2.31085

> <r_epik_Ionization_Penalty_Charging>
0.000313057

> <r_epik_Ionization_Penalty_Neutral>
2.31054

> <r_epik_State_Penalty>
2.4087

> <r_epik_Charging_Adjusted_Penalty>
2.40902

> <i_epik_Tot_Q>
1

> <i_epik_Tot_abs_Q>
1

> <r_epik_Metal_State_Penalty>
2.30979

> <b_epik_Metal_Only>
0

> <s_lp_Force_Field>
OPLS_2005

> <r_lp_Energy>
24.7509

> <b_lp_Chiralities_Consistent>
1

> <s_lp_Variant>
AV-unprocessed.smi:3303-26

> <Gold.Version>
5.8.1

> <Gold.Id.Protein>
6NUR|6NUR_protein|mol2

> <Gold.PLP.Fitness>
38.5975

> <Gold.PLP.PLP>
-28.6035

> <Gold.PLP.part.hbond>
-3.0000

> <Gold.PLP.part.metal>
0.0000

> <Gold.PLP.part.buried>
-1.4231

> <Gold.PLP.part.nonpolar>
-22.9149

> <Gold.PLP.part.repulsive>
0.0000

> <Gold.PLP.ligand.clash>
0.0000

> <Gold.PLP.ligand.torsion>
0.6585

> <Gold.PLP.Chemscore.Hbond>
3.7680

> <Gold.PLP.Chemscore.CHOScore>
0.0000

> <Gold.PLP.Chemscore.Metal>
0.0000

> <Gold.Chemscore.Hbonds>
donor molecule, donor type, donor heavy atom, donor atom, acceptor molecule, acceptor atom, score
      L1  H     4    44       P1  7948  2.00
      P1  H  6931  6943       L1    18  0.98
      P1  H  6934  6947       L1    18  0.75

> <Gold.PLP.Chemscore.Internal.Correction>
0.0068

> <Gold.Rescore>
     Score         DG    S(hbond)    S(metal)    S(lipo)     H(rot)  DE(clash)    DE(int)     intcor
     17.02     -17.76       2.35        0.00      66.90       1.33       0.07       0.66       ----

> <Gold.Chemscore.Fitness>
17.0196

> <Gold.Chemscore.DG>
-17.7560

> <Gold.Chemscore.ZeroCoef>
-5.4800

> <Gold.Chemscore.Hbond>
2.3493

> <Gold.Chemscore.Metal>
0.0000

> <Gold.Chemscore.Lipo>
66.8962

> <Gold.Chemscore.Internal_Hbond>
0.0000

> <Gold.Chemscore.DEClash>
0.0718

> <Gold.Chemscore.DEInternal>
0.6646

> <Gold.Chemscore.Rot>
1.3272

> <Gold.Chemscore.Internal.Correction>
   9.000000E+99

> <Gold.Chemscore.Hbonds>
donor molecule, donor type, donor heavy atom, donor atom, acceptor molecule, acceptor atom, score
      L1  H     4    44       P1  7948  0.99
      P1  H  6931  6943       L1    18  0.32
      P1  H  6934  6947       L1    18  0.70

> <Gold.Chemscore.Hbond.Weighted>
-7.8468

> <Gold.Chemscore.Metal.Weighted>
-0.0000

> <Gold.Chemscore.Lipo.Weighted>
-7.8269

> <Gold.Chemscore.Internal_Hbond.Weighted>
0.0000

> <Gold.Chemscore.DEClash.Weighted>
0.0718

> <Gold.Chemscore.DEInternal.Weighted>
0.6646

> <Gold.Chemscore.Rot.Weighted>
3.3976

> <Gold.Chemscore.Internal.Correction.Weighted>
   9.000000E+99

> <Gold.Protein.RotatedTorsions>
[ 6907 6896 6895 6894 ] final  -15.28 input  -60.11 | X-H torsion
[ 7974 7965 7964 7962 ] final  -93.22 input  175.53 | X-H torsion
[ 8008 7997 7996 7995 ] final -103.87 input   59.86 | X-H torsion
[ 10167 10162 10161 10158 ] final   20.54 input  -65.29 | X-H torsion
[ 10718 10713 10712 10709 ] final   56.33 input   66.30 | X-H torsion
[ 10763 10752 10751 10750 ] final -108.86 input  -60.55 | X-H torsion
[ 11005 11000 10999 10996 ] final   25.33 input  -57.11 | X-H torsion

> <Gold.Protein.ActiveResidues>
 VAL166  LYS551  ARG553  GLY616  TRP617  ASP618  TYR619  PRO620  LYS621  CYS622 
 ASP623  PHE694  ASN695  SER759  ASP760  ASP761  ALA762  ILE779  LEU786  VAL792 
 PHE793  MET794  SER795  GLU796  ALA797  LYS798  CYS799  TRP800  GLU811  SER814 

> <Gold.Protein.RotatedAtoms>
  151.3264  135.0831  159.9323 H   0  0  0  0  0  0  0  0  0  0  0  0  # atno 6907 bound_to 6896
  152.5245  133.9587  159.7717 H   0  0  0  0  0  0  0  0  0  0  0  0  # atno 6908 bound_to 6896
  150.9917  133.6090  159.2737 H   0  0  0  0  0  0  0  0  0  0  0  0  # atno 6909 bound_to 6896
  145.3894  140.9526  143.2349 H   0  0  0  0  0  0  0  0  0  0  0  0  # atno 7974 bound_to 7965
  154.8771  140.0420  157.1760 H   0  0  0  0  0  0  0  0  0  0  0  0  # atno 8008 bound_to 7997
  154.8678  140.2954  155.5479 H   0  0  0  0  0  0  0  0  0  0  0  0  # atno 8009 bound_to 7997
  156.2999  140.2435  156.3662 H   0  0  0  0  0  0  0  0  0  0  0  0  # atno 8010 bound_to 7997
  140.5495  143.9534  150.6569 H   0  0  0  0  0  0  0  0  0  0  0  0  # atno 10167 bound_to 10162
  157.5422  130.8705  149.8838 H   0  0  0  0  0  0  0  0  0  0  0  0  # atno 10718 bound_to 10713
  154.8160  135.4622  154.0645 H   0  0  0  0  0  0  0  0  0  0  0  0  # atno 10763 bound_to 10752
  153.2037  135.6872  153.8206 H   0  0  0  0  0  0  0  0  0  0  0  0  # atno 10764 bound_to 10752
  153.7681  135.3274  155.3325 H   0  0  0  0  0  0  0  0  0  0  0  0  # atno 10765 bound_to 10752
  140.3490  134.2249  155.7682 H   0  0  0  0  0  0  0  0  0  0  0  0  # atno 11005 bound_to 11000
  144.8450  139.5410  143.6882 LP  0  0  0  0  0  0  0  0  0  0  0  0  # atno 17320 bound_to 7965
  146.2804  139.6863  142.9233 LP  0  0  0  0  0  0  0  0  0  0  0  0  # atno 17321 bound_to 7965
  140.2956  143.3295  152.1021 LP  0  0  0  0  0  0  0  0  0  0  0  0  # atno 17342 bound_to 10162
  139.5021  144.6728  151.6200 LP  0  0  0  0  0  0  0  0  0  0  0  0  # atno 17343 bound_to 10162
  156.0506  130.3718  150.1211 LP  0  0  0  0  0  0  0  0  0  0  0  0  # atno 17370 bound_to 10713
  156.9390  130.9738  151.3519 LP  0  0  0  0  0  0  0  0  0  0  0  0  # atno 17371 bound_to 10713
  141.2017  133.7955  157.0426 LP  0  0  0  0  0  0  0  0  0  0  0  0  # atno 17394 bound_to 11000
  140.0718  134.9698  157.1480 LP  0  0  0  0  0  0  0  0  0  0  0  0  # atno 17395 bound_to 11000

$$$$
