AV-unprocessed.smi:1891|AV-procd|sdf|7665|dock3
  -GOLD-   22720 9403D 1   1.00000     0.00000
 Structure written by MMmdl.
 36 38  0  0  0  0  0  0  0  0  1 V2000
  153.2004  139.3062  154.7129 O   0  0  0  0  0  0  0  0  0  0  0  0
  151.9522  139.3868  155.3655 C   0  0  0  0  0  0  0  0  0  0  0  0
  151.9799  140.2621  156.5822 C   0  0  0  0  0  0  0  0  0  0  0  0
  152.6684  139.9203  157.6721 N   0  0  0  0  0  0  0  0  0  0  0  0
  152.4518  140.9897  158.5184 C   0  0  0  0  0  0  0  0  0  0  0  0
  152.9193  141.2325  159.8298 C   0  0  0  0  0  0  0  0  0  0  0  0
  152.5684  142.4204  160.5042 C   0  0  0  0  0  0  0  0  0  0  0  0
  151.7481  143.3810  159.8780 C   0  0  0  0  0  0  0  0  0  0  0  0
  151.2703  143.1579  158.5723 C   0  0  0  0  0  0  0  0  0  0  0  0
  151.6207  141.9687  157.9045 C   0  0  0  0  0  0  0  0  0  0  0  0
  151.3240  141.4500  156.6477 N   0  0  0  0  0  0  0  0  0  0  0  0
  150.4932  142.0925  155.6362 C   0  0  0  0  0  0  0  0  0  0  0  0
  149.4649  141.1311  155.0053 C   0  0  2  0  0  0  0  0  0  0  0  0
  149.8261  140.8411  153.6688 O   0  0  0  0  0  0  0  0  0  0  0  0
  148.0530  141.6898  155.1183 C   0  0  0  0  0  0  0  0  0  0  0  0
  147.3230  142.0270  153.9563 C   0  0  0  0  0  0  0  0  0  0  0  0
  146.0215  142.5546  154.0610 C   0  0  0  0  0  0  0  0  0  0  0  0
  145.4419  142.7530  155.3284 C   0  0  0  0  0  0  0  0  0  0  0  0
  144.1916  143.2627  155.4293 F   0  0  0  0  0  0  0  0  0  0  0  0
  146.1652  142.4244  156.4907 C   0  0  0  0  0  0  0  0  0  0  0  0
  147.4675  141.8970  156.3884 C   0  0  0  0  0  0  0  0  0  0  0  0
  148.1528  141.5957  157.5177 F   0  0  0  0  0  0  0  0  0  0  0  0
  153.0581  139.0018  153.8298 H   0  0  0  0  0  0  0  0  0  0  0  0
  151.2201  139.7777  154.6578 H   0  0  0  0  0  0  0  0  0  0  0  0
  151.6138  138.3873  155.6380 H   0  0  0  0  0  0  0  0  0  0  0  0
  153.5506  140.5042  160.3170 H   0  0  0  0  0  0  0  0  0  0  0  0
  152.9319  142.5962  161.5060 H   0  0  0  0  0  0  0  0  0  0  0  0
  151.4856  144.2890  160.4006 H   0  0  0  0  0  0  0  0  0  0  0  0
  150.6422  143.8927  158.0909 H   0  0  0  0  0  0  0  0  0  0  0  0
  149.9753  142.9252  156.1140 H   0  0  0  0  0  0  0  0  0  0  0  0
  151.1210  142.5318  154.8620 H   0  0  0  0  0  0  0  0  0  0  0  0
  149.4981  140.1782  155.5332 H   0  0  0  0  0  0  0  0  0  0  0  0
  149.1659  140.2780  153.2948 H   0  0  0  0  0  0  0  0  0  0  0  0
  147.7602  141.8855  152.9786 H   0  0  0  0  0  0  0  0  0  0  0  0
  145.4688  142.8092  153.1686 H   0  0  0  0  0  0  0  0  0  0  0  0
  145.7214  142.5791  157.4632 H   0  0  0  0  0  0  0  0  0  0  0  0
  1  2  1  0  0  0  0
  1 23  1  0  0  0  0
  2  3  1  0  0  0  0
  2 24  1  0  0  0  0
  2 25  1  0  0  0  0
  3 11  1  0  0  0  0
  3  4  2  0  0  0  0
  4  5  1  0  0  0  0
  5 10  2  0  0  0  0
  5  6  1  0  0  0  0
  6  7  2  0  0  0  0
  6 26  1  0  0  0  0
  7  8  1  0  0  0  0
  7 27  1  0  0  0  0
  8  9  2  0  0  0  0
  8 28  1  0  0  0  0
  9 10  1  0  0  0  0
  9 29  1  0  0  0  0
 10 11  1  0  0  0  0
 11 12  1  0  0  0  0
 12 13  1  0  0  0  0
 12 30  1  0  0  0  0
 12 31  1  0  0  0  0
 13 14  1  0  0  0  0
 13 15  1  0  0  0  0
 13 32  1  0  0  0  0
 14 33  1  0  0  0  0
 15 21  1  0  0  0  0
 15 16  2  0  0  0  0
 16 17  1  0  0  0  0
 16 34  1  0  0  0  0
 17 18  2  0  0  0  0
 17 35  1  0  0  0  0
 18 19  1  0  0  0  0
 18 20  1  0  0  0  0
 20 21  2  0  0  0  0
 20 36  1  0  0  0  0
 21 22  1  0  0  0  0
M  END
> <s_m_source_file>
AV-unprocessed.smi

> <i_m_source_file_index>
1891

> <i_lp_mmshare_version>
43012

> <i_f3d_flags>
0

> <s_epik_input>
W2NIXTFbY0hdW2NIXVtjSF1jKGMxMiluKGMobjIpW0NIMl1bT0hdKVtDSDJdW0NASF0oW09IXSljM1tjSF1bY0hdYyhGKVtjSF1jM0Y=

> <s_epik_cmdline>
J2VwaWtfcHl0aG9uJywgJy1waCcsICc3LjAnLCAnLXRuJywgJzgnLCAnLW1hJywgJzIwMCcsICctbWV0YWxfYmluZGluZycsICctaW1hZScsICc8aW5maWxlLm1hZT4nLCAnLW9tYWUnLCAnPG91dGZpbGUubWFlPic=

> <r_epik_Ionization_Penalty>
0.0634724

> <r_epik_Ionization_Penalty_Charging>
0

> <r_epik_Ionization_Penalty_Neutral>
0.0634724

> <r_epik_State_Penalty>
0.0551572

> <r_epik_Charging_Adjusted_Penalty>
0.0551572

> <i_epik_Tot_Q>
0

> <i_epik_Tot_abs_Q>
0

> <r_epik_Metal_State_Penalty>
5.78034e-05

> <b_epik_Metal_Only>
0

> <s_lp_Force_Field>
OPLS_2005

> <r_lp_Energy>
12.6206

> <b_lp_Chiralities_Consistent>
1

> <s_lp_Variant>
AV-unprocessed.smi:1891-1

> <Gold.Version>
5.8.1

> <Gold.Id.Protein>
6NUR|6NUR_protein|mol2

> <Gold.PLP.Fitness>
52.8657

> <Gold.PLP.PLP>
-47.0645

> <Gold.PLP.part.hbond>
-5.6592

> <Gold.PLP.part.metal>
0.0000

> <Gold.PLP.part.buried>
-3.0886

> <Gold.PLP.part.nonpolar>
-36.5180

> <Gold.PLP.part.repulsive>
0.0000

> <Gold.PLP.ligand.clash>
0.0000

> <Gold.PLP.ligand.torsion>
0.9995

> <Gold.PLP.Chemscore.Hbond>
2.5865

> <Gold.PLP.Chemscore.CHOScore>
0.0000

> <Gold.PLP.Chemscore.Metal>
0.0000

> <Gold.Chemscore.Hbonds>
donor molecule, donor type, donor heavy atom, donor atom, acceptor molecule, acceptor atom, score
      L1  H    14    33       P1  7957  0.10
      P1  H  7989  7998       L1    14  0.40
      P1  H  7997  8008       L1     1  0.18
      P1  H  7997  8010       L1     4  0.99
      P1  H  8011  8017       L1    14  0.93

> <Gold.PLP.Chemscore.Internal.Correction>
0.0408

> <Gold.Rescore>
     Score         DG    S(hbond)    S(metal)    S(lipo)     H(rot)  DE(clash)    DE(int)     intcor
     13.97     -16.85       1.86        0.00     107.11       2.88       0.99       1.90       ----

> <Gold.Chemscore.Fitness>
13.9702

> <Gold.Chemscore.DG>
-16.8530

> <Gold.Chemscore.ZeroCoef>
-5.4800

> <Gold.Chemscore.Hbond>
1.8581

> <Gold.Chemscore.Metal>
0.0000

> <Gold.Chemscore.Lipo>
107.1058

> <Gold.Chemscore.Internal_Hbond>
0.0000

> <Gold.Chemscore.DEClash>
0.9859

> <Gold.Chemscore.DEInternal>
1.8968

> <Gold.Chemscore.Rot>
2.8767

> <Gold.Chemscore.Internal.Correction>
   9.000000E+99

> <Gold.Chemscore.Hbonds>
donor molecule, donor type, donor heavy atom, donor atom, acceptor molecule, acceptor atom, score
      L1  H    14    33       P1  7957  0.10
      P1  H  7989  7998       L1    14  0.31
      P1  H  7997  8008       L1     1  0.18
      P1  H  7997  8010       L1     4  0.16
      P1  H  8011  8017       L1    14  0.24

> <Gold.Chemscore.Hbond.Weighted>
-6.2060

> <Gold.Chemscore.Metal.Weighted>
-0.0000

> <Gold.Chemscore.Lipo.Weighted>
-12.5314

> <Gold.Chemscore.Internal_Hbond.Weighted>
0.0000

> <Gold.Chemscore.DEClash.Weighted>
0.9859

> <Gold.Chemscore.DEInternal.Weighted>
1.8968

> <Gold.Chemscore.Rot.Weighted>
7.3644

> <Gold.Chemscore.Internal.Correction.Weighted>
   9.000000E+99

> <Gold.Protein.RotatedTorsions>
[ 6907 6896 6895 6894 ] final   51.13 input  -60.11 | X-H torsion
[ 7974 7965 7964 7962 ] final  -98.74 input  175.53 | X-H torsion
[ 8008 7997 7996 7995 ] final   35.00 input   59.86 | X-H torsion
[ 10167 10162 10161 10158 ] final  -79.02 input  -65.29 | X-H torsion
[ 10718 10713 10712 10709 ] final   33.34 input   66.30 | X-H torsion
[ 10763 10752 10751 10750 ] final  156.76 input  -60.55 | X-H torsion
[ 11005 11000 10999 10996 ] final  -32.31 input  -57.11 | X-H torsion

> <Gold.Protein.ActiveResidues>
 VAL166  LYS551  ARG553  GLY616  TRP617  ASP618  TYR619  PRO620  LYS621  CYS622 
 ASP623  PHE694  ASN695  SER759  ASP760  ASP761  ALA762  ILE779  LEU786  VAL792 
 PHE793  MET794  SER795  GLU796  ALA797  LYS798  CYS799  TRP800  GLU811  SER814 

> <Gold.Protein.RotatedAtoms>
  152.3093  134.7516  160.0339 H   0  0  0  0  0  0  0  0  0  0  0  0  # atno 6907 bound_to 6896
  151.8003  133.3364  159.3533 H   0  0  0  0  0  0  0  0  0  0  0  0  # atno 6908 bound_to 6896
  150.7312  134.5690  159.5925 H   0  0  0  0  0  0  0  0  0  0  0  0  # atno 6909 bound_to 6896
  145.3167  140.9412  143.2739 H   0  0  0  0  0  0  0  0  0  0  0  0  # atno 7974 bound_to 7965
  155.1640  140.3286  155.4406 H   0  0  0  0  0  0  0  0  0  0  0  0  # atno 8008 bound_to 7997
  156.2533  140.1955  156.6697 H   0  0  0  0  0  0  0  0  0  0  0  0  # atno 8009 bound_to 7997
  154.6384  140.0573  156.9803 H   0  0  0  0  0  0  0  0  0  0  0  0  # atno 8010 bound_to 7997
  140.4631  143.2448  151.8319 H   0  0  0  0  0  0  0  0  0  0  0  0  # atno 10167 bound_to 10162
  157.2966  130.7329  149.6642 H   0  0  0  0  0  0  0  0  0  0  0  0  # atno 10718 bound_to 10713
  154.1895  135.2795  155.3026 H   0  0  0  0  0  0  0  0  0  0  0  0  # atno 10763 bound_to 10752
  154.5940  135.5551  153.7310 H   0  0  0  0  0  0  0  0  0  0  0  0  # atno 10764 bound_to 10752
  153.0116  135.6375  154.2034 H   0  0  0  0  0  0  0  0  0  0  0  0  # atno 10765 bound_to 10752
  140.9541  133.7203  156.1266 H   0  0  0  0  0  0  0  0  0  0  0  0  # atno 11005 bound_to 11000
  144.8972  139.4696  143.6650 LP  0  0  0  0  0  0  0  0  0  0  0  0  # atno 17320 bound_to 7965
  146.3098  139.7705  142.9029 LP  0  0  0  0  0  0  0  0  0  0  0  0  # atno 17321 bound_to 7965
  139.4808  144.4984  151.9093 LP  0  0  0  0  0  0  0  0  0  0  0  0  # atno 17342 bound_to 10162
  140.4069  144.2420  150.5890 LP  0  0  0  0  0  0  0  0  0  0  0  0  # atno 17343 bound_to 10162
  155.9669  130.4292  150.4824 LP  0  0  0  0  0  0  0  0  0  0  0  0  # atno 17370 bound_to 10713
  157.2797  131.0604  151.2206 LP  0  0  0  0  0  0  0  0  0  0  0  0  # atno 17371 bound_to 10713
  140.7560  134.3992  157.5533 LP  0  0  0  0  0  0  0  0  0  0  0  0  # atno 17394 bound_to 11000
  139.8857  134.8931  156.2630 LP  0  0  0  0  0  0  0  0  0  0  0  0  # atno 17395 bound_to 11000

$$$$
