AV-unprocessed.smi:3187|AV-procd|sdf|12178|dock8
  -GOLD-   2272018 13D 1   1.00000     0.00000
 Structure written by MMmdl.
 41 42  0  0  0  0  0  0  0  0  2 V2000
  153.4189  141.3280  161.2799 C   0  0  0  0  0  0  0  0  0  0  0  0
  152.7788  142.6464  160.8743 C   0  0  0  0  0  0  0  0  0  0  0  0
  152.5327  143.6035  161.7905 C   0  0  0  0  0  0  0  0  0  0  0  0
  151.9601  144.9753  161.4797 C   0  0  0  0  0  0  0  0  0  0  0  0
  151.5104  145.1272  160.0170 C   0  0  0  0  0  0  0  0  0  0  0  0
  152.4497  144.3774  159.0557 C   0  0  2  0  0  0  0  0  0  0  0  0
  152.1485  144.7029  157.5826 C   0  0  0  0  0  0  0  0  0  0  0  0
  152.4846  142.8578  159.3826 C   0  0  2  0  0  0  0  0  0  0  0  0
  151.2050  142.1132  158.9183 C   0  0  0  0  0  0  0  0  0  0  0  0
  151.2109  141.8035  157.4760 N   0  3  0  0  0  0  0  0  0  0  0  0
  150.0380  141.0353  157.0125 C   0  0  0  0  0  0  0  0  0  0  0  0
  150.0793  140.8071  155.4936 C   0  0  0  0  0  0  0  0  0  0  0  0
  150.7556  139.5727  155.1430 N   0  0  0  0  0  0  0  0  0  0  0  0
  150.4068  138.6834  154.1350 C   0  0  0  0  0  0  0  0  0  0  0  0
  151.3331  137.6655  154.1711 C   0  0  0  0  0  0  0  0  0  0  0  0
  152.2541  137.9067  155.1879 N   0  0  0  0  0  0  0  0  0  0  0  0
  151.8450  139.0493  155.7225 C   0  0  0  0  0  0  0  0  0  0  0  0
  154.2525  141.0875  160.6199 H   0  0  0  0  0  0  0  0  0  0  0  0
  152.7038  140.5078  161.2526 H   0  0  0  0  0  0  0  0  0  0  0  0
  153.8086  141.3809  162.2973 H   0  0  0  0  0  0  0  0  0  0  0  0
  152.7802  143.4264  162.8272 H   0  0  0  0  0  0  0  0  0  0  0  0
  151.1286  145.1841  162.1532 H   0  0  0  0  0  0  0  0  0  0  0  0
  152.7355  145.7089  161.7018 H   0  0  0  0  0  0  0  0  0  0  0  0
  150.4927  144.7530  159.9059 H   0  0  0  0  0  0  0  0  0  0  0  0
  151.4688  146.1867  159.7619 H   0  0  0  0  0  0  0  0  0  0  0  0
  153.4560  144.7581  159.2404 H   0  0  0  0  0  0  0  0  0  0  0  0
  151.1097  144.4996  157.3229 H   0  0  0  0  0  0  0  0  0  0  0  0
  152.7861  144.1260  156.9122 H   0  0  0  0  0  0  0  0  0  0  0  0
  152.3291  145.7583  157.3768 H   0  0  0  0  0  0  0  0  0  0  0  0
  153.3282  142.4417  158.8300 H   0  0  0  0  0  0  0  0  0  0  0  0
  151.0810  141.1846  159.4758 H   0  0  0  0  0  0  0  0  0  0  0  0
  150.3206  142.7202  159.1082 H   0  0  0  0  0  0  0  0  0  0  0  0
  151.2473  142.6718  156.9611 H   0  0  0  0  0  0  0  0  0  0  0  0
  150.0193  140.0716  157.5230 H   0  0  0  0  0  0  0  0  0  0  0  0
  149.1247  141.5627  157.2915 H   0  0  0  0  0  0  0  0  0  0  0  0
  149.0694  140.7888  155.0813 H   0  0  0  0  0  0  0  0  0  0  0  0
  150.6020  141.6312  155.0065 H   0  0  0  0  0  0  0  0  0  0  0  0
  149.5531  138.8431  153.4924 H   0  0  0  0  0  0  0  0  0  0  0  0
  151.4068  136.7857  153.5489 H   0  0  0  0  0  0  0  0  0  0  0  0
  152.3545  139.5203  156.5507 H   0  0  0  0  0  0  0  0  0  0  0  0
  152.0449  141.2718  157.2710 H   0  0  0  0  0  0  0  0  0  0  0  0
  1  2  1  0  0  0  0
  1 18  1  0  0  0  0
  1 19  1  0  0  0  0
  1 20  1  0  0  0  0
  2  8  1  0  0  0  0
  2  3  2  0  0  0  0
  3  4  1  0  0  0  0
  3 21  1  0  0  0  0
  4  5  1  0  0  0  0
  4 22  1  0  0  0  0
  4 23  1  0  0  0  0
  5  6  1  0  0  0  0
  5 24  1  0  0  0  0
  5 25  1  0  0  0  0
  6  7  1  0  0  0  0
  6  8  1  0  0  0  0
  6 26  1  0  0  0  0
  7 27  1  0  0  0  0
  7 28  1  0  0  0  0
  7 29  1  0  0  0  0
  8  9  1  0  0  0  0
  8 30  1  0  0  0  0
  9 10  1  0  0  0  0
  9 31  1  0  0  0  0
  9 32  1  0  0  0  0
 10 11  1  0  0  0  0
 10 33  1  0  0  0  0
 10 41  1  0  0  0  0
 11 12  1  0  0  0  0
 11 34  1  0  0  0  0
 11 35  1  0  0  0  0
 12 13  1  0  0  0  0
 12 36  1  0  0  0  0
 12 37  1  0  0  0  0
 13 17  1  0  0  0  0
 13 14  1  0  0  0  0
 14 15  2  0  0  0  0
 14 38  1  0  0  0  0
 15 16  1  0  0  0  0
 15 39  1  0  0  0  0
 16 17  2  0  0  0  0
 17 40  1  0  0  0  0
M  CHG  1  10   1
M  END
> <s_m_source_file>
AV-unprocessed.smi

> <i_m_source_file_index>
3187

> <i_lp_mmshare_version>
43012

> <i_f3d_flags>
0

> <s_epik_input>
W0NIM11DMT1bQ0hdW0NIMl1bQ0gyXVtDQEBIXShbQ0gzXSlbQ0BIXTFbQ0gyXVtOSF1bQ0gyXVtDSDJdbjJbY0hdW2NIXW5bY0hdMg==

> <s_epik_cmdline>
J2VwaWtfcHl0aG9uJywgJy1waCcsICc3LjAnLCAnLXRuJywgJzgnLCAnLW1hJywgJzIwMCcsICctbWV0YWxfYmluZGluZycsICctaW1hZScsICc8aW5maWxlLm1hZT4nLCAnLW9tYWUnLCAnPG91dGZpbGUubWFlPic=

> <r_lp_tautomer_probability>
1

> <r_epik_Ionization_Penalty>
0.0501625

> <r_epik_Ionization_Penalty_Charging>
0.0501625

> <r_epik_Ionization_Penalty_Neutral>
0

> <r_epik_State_Penalty>
0.0972392

> <r_epik_Charging_Adjusted_Penalty>
0.147402

> <i_epik_Tot_Q>
1

> <i_epik_Tot_abs_Q>
1

> <r_epik_Metal_State_Penalty>
0.000104376

> <b_epik_Metal_Only>
0

> <s_lp_Force_Field>
OPLS_2005

> <r_lp_Energy>
17.7506

> <b_lp_Chiralities_Consistent>
1

> <s_lp_Variant>
AV-unprocessed.smi:3187-4

> <Gold.Version>
5.8.1

> <Gold.Id.Protein>
6NUR|6NUR_protein|mol2

> <Gold.PLP.Fitness>
51.0512

> <Gold.PLP.PLP>
-46.4754

> <Gold.PLP.part.hbond>
-0.5155

> <Gold.PLP.part.metal>
0.0000

> <Gold.PLP.part.buried>
-0.6838

> <Gold.PLP.part.nonpolar>
-44.9518

> <Gold.PLP.part.repulsive>
0.0905

> <Gold.PLP.ligand.clash>
0.0000

> <Gold.PLP.ligand.torsion>
0.7313

> <Gold.PLP.Chemscore.Hbond>
0.0000

> <Gold.PLP.Chemscore.CHOScore>
1.9905

> <Gold.PLP.Chemscore.Metal>
0.0000

> <Gold.Chemscore.Hbonds>
donor molecule, donor type, donor heavy atom, donor atom, acceptor molecule, acceptor atom, score
      L1  C    14    38       P1  7957  0.72
      L1  C    15    39       P1  7949  1.00

> <Gold.PLP.Chemscore.Internal.Correction>
0.0671

> <Gold.Rescore>
     Score         DG    S(hbond)    S(metal)    S(lipo)     H(rot)  DE(clash)    DE(int)     intcor
     14.67     -16.62       0.04        0.00     135.26       1.89       1.06       0.89       ----

> <Gold.Chemscore.Fitness>
14.6681

> <Gold.Chemscore.DG>
-16.6178

> <Gold.Chemscore.ZeroCoef>
-5.4800

> <Gold.Chemscore.Hbond>
0.0415

> <Gold.Chemscore.Metal>
0.0000

> <Gold.Chemscore.Lipo>
135.2605

> <Gold.Chemscore.Internal_Hbond>
0.0000

> <Gold.Chemscore.DEClash>
1.0607

> <Gold.Chemscore.DEInternal>
0.8890

> <Gold.Chemscore.Rot>
1.8853

> <Gold.Chemscore.Internal.Correction>
   9.000000E+99

> <Gold.Chemscore.Hbond.Weighted>
-0.1386

> <Gold.Chemscore.Metal.Weighted>
-0.0000

> <Gold.Chemscore.Lipo.Weighted>
-15.8255

> <Gold.Chemscore.Internal_Hbond.Weighted>
0.0000

> <Gold.Chemscore.DEClash.Weighted>
1.0607

> <Gold.Chemscore.DEInternal.Weighted>
0.8890

> <Gold.Chemscore.Rot.Weighted>
4.8263

> <Gold.Chemscore.Internal.Correction.Weighted>
   9.000000E+99

> <Gold.Protein.RotatedTorsions>
[ 6907 6896 6895 6894 ] final -125.82 input  -60.11 | X-H torsion
[ 7974 7965 7964 7962 ] final   89.24 input  175.53 | X-H torsion
[ 8008 7997 7996 7995 ] final  -42.06 input   59.86 | X-H torsion
[ 10167 10162 10161 10158 ] final  140.98 input  -65.29 | X-H torsion
[ 10718 10713 10712 10709 ] final  -39.99 input   66.30 | X-H torsion
[ 10763 10752 10751 10750 ] final   79.62 input  -60.55 | X-H torsion
[ 11005 11000 10999 10996 ] final  178.31 input  -57.11 | X-H torsion

> <Gold.Protein.ActiveResidues>
 VAL166  LYS551  ARG553  GLY616  TRP617  ASP618  TYR619  PRO620  LYS621  CYS622 
 ASP623  PHE694  ASN695  SER759  ASP760  ASP761  ALA762  ILE779  LEU786  VAL792 
 PHE793  MET794  SER795  GLU796  ALA797  LYS798  CYS799  TRP800  GLU811  SER814 

> <Gold.Protein.RotatedAtoms>
  150.8906  133.7248  159.2905 H   0  0  0  0  0  0  0  0  0  0  0  0  # atno 6907 bound_to 6896
  151.4800  135.1050  159.9784 H   0  0  0  0  0  0  0  0  0  0  0  0  # atno 6908 bound_to 6896
  152.4818  133.8225  159.7116 H   0  0  0  0  0  0  0  0  0  0  0  0  # atno 6909 bound_to 6896
  145.5349  139.2285  143.2598 H   0  0  0  0  0  0  0  0  0  0  0  0  # atno 7974 bound_to 7965
  154.4000  140.1483  156.3293 H   0  0  0  0  0  0  0  0  0  0  0  0  # atno 8008 bound_to 7997
  155.8458  140.3460  155.5640 H   0  0  0  0  0  0  0  0  0  0  0  0  # atno 8009 bound_to 7997
  155.8038  140.0874  157.1933 H   0  0  0  0  0  0  0  0  0  0  0  0  # atno 8010 bound_to 7997
  139.5033  144.6200  151.6073 H   0  0  0  0  0  0  0  0  0  0  0  0  # atno 10167 bound_to 10162
  156.2862  130.4223  149.8285 H   0  0  0  0  0  0  0  0  0  0  0  0  # atno 10718 bound_to 10713
  153.0967  135.4833  154.8792 H   0  0  0  0  0  0  0  0  0  0  0  0  # atno 10763 bound_to 10752
  154.7333  135.3065  154.8857 H   0  0  0  0  0  0  0  0  0  0  0  0  # atno 10764 bound_to 10752
  153.9486  135.6826  153.4797 H   0  0  0  0  0  0  0  0  0  0  0  0  # atno 10765 bound_to 10752
  140.3937  134.6840  157.4522 H   0  0  0  0  0  0  0  0  0  0  0  0  # atno 11005 bound_to 11000
  146.2019  140.6167  142.9098 LP  0  0  0  0  0  0  0  0  0  0  0  0  # atno 17320 bound_to 7965
  144.7606  140.5414  143.6738 LP  0  0  0  0  0  0  0  0  0  0  0  0  # atno 17321 bound_to 7965
  140.5899  143.9797  150.6318 LP  0  0  0  0  0  0  0  0  0  0  0  0  # atno 17342 bound_to 10162
  140.2974  143.3283  152.1004 LP  0  0  0  0  0  0  0  0  0  0  0  0  # atno 17343 bound_to 10162
  156.5714  130.8426  151.3357 LP  0  0  0  0  0  0  0  0  0  0  0  0  # atno 17370 bound_to 10713
  157.7329  130.9722  150.1952 LP  0  0  0  0  0  0  0  0  0  0  0  0  # atno 17371 bound_to 10713
  140.0388  134.6298  155.9008 LP  0  0  0  0  0  0  0  0  0  0  0  0  # atno 17394 bound_to 11000
  141.1882  133.6562  156.5313 LP  0  0  0  0  0  0  0  0  0  0  0  0  # atno 17395 bound_to 11000

$$$$
