AV-unprocessed.smi:1843|AV-procd|sdf|7503|dock1
  -GOLD-   22720 9203D 1   1.00000     0.00000
 Structure written by MMmdl.
 37 39  0  0  0  0  0  0  0  0  1 V2000
  141.5361  136.5516  153.5226 O   0  0  0  0  0  0  0  0  0  0  0  0
  142.1833  137.5376  153.1694 C   0  0  0  0  0  0  0  0  0  0  0  0
  143.3771  137.5045  152.5514 N   0  0  0  0  0  0  0  0  0  0  0  0
  144.1424  136.3692  152.1753 C   0  0  0  0  0  0  0  0  0  0  0  0
  145.3939  136.4377  151.7010 N   0  0  0  0  0  0  0  0  0  0  0  0
  145.9072  135.1815  151.4109 N   0  0  0  0  0  0  0  0  0  0  0  0
  145.0337  134.2021  151.6739 C   0  0  0  0  0  0  0  0  0  0  0  0
  145.3575  132.7635  151.4428 C   0  0  0  0  0  0  0  0  0  0  0  0
  145.7619  132.2501  150.0780 C   0  0  0  0  0  0  0  0  0  0  0  0
  144.4199  131.8780  150.6551 C   0  0  0  0  0  0  0  0  0  0  0  0
  143.4841  134.7475  152.3079 S   0  0  0  0  0  0  0  0  0  0  0  0
  141.7726  138.7994  153.3612 N   0  0  0  0  0  0  0  0  0  0  0  0
  140.5160  139.1899  153.9980 C   0  0  1  0  0  0  0  0  0  0  0  0
  140.5644  140.7016  154.3133 C   0  0  0  0  0  0  0  0  0  0  0  0
  139.2214  141.2312  154.8365 C   0  0  0  0  0  0  0  0  0  0  0  0
  138.0884  140.9250  153.8484 C   0  0  0  0  0  0  0  0  0  0  0  0
  138.0016  139.4174  153.5767 C   0  0  0  0  0  0  0  0  0  0  0  0
  139.3368  138.8537  153.0549 C   0  0  2  0  0  0  0  0  0  0  0  0
  139.1936  137.4505  152.9579 O   0  0  0  0  0  0  0  0  0  0  0  0
  143.7883  138.3975  152.3238 H   0  0  0  0  0  0  0  0  0  0  0  0
  145.8500  132.3361  152.3141 H   0  0  0  0  0  0  0  0  0  0  0  0
  145.7661  132.9485  149.2434 H   0  0  0  0  0  0  0  0  0  0  0  0
  146.5245  131.4751  150.0398 H   0  0  0  0  0  0  0  0  0  0  0  0
  144.2865  130.8554  151.0024 H   0  0  0  0  0  0  0  0  0  0  0  0
  143.5383  132.3400  150.2145 H   0  0  0  0  0  0  0  0  0  0  0  0
  142.3702  139.5481  153.0433 H   0  0  0  0  0  0  0  0  0  0  0  0
  140.3832  138.6416  154.9333 H   0  0  0  0  0  0  0  0  0  0  0  0
  141.3462  140.9064  155.0460 H   0  0  0  0  0  0  0  0  0  0  0  0
  140.8361  141.2558  153.4135 H   0  0  0  0  0  0  0  0  0  0  0  0
  138.9996  140.7778  155.8034 H   0  0  0  0  0  0  0  0  0  0  0  0
  139.2861  142.3064  155.0058 H   0  0  0  0  0  0  0  0  0  0  0  0
  137.1398  141.2870  154.2456 H   0  0  0  0  0  0  0  0  0  0  0  0
  138.2585  141.4595  152.9129 H   0  0  0  0  0  0  0  0  0  0  0  0
  137.7201  138.9062  154.4990 H   0  0  0  0  0  0  0  0  0  0  0  0
  137.2050  139.2172  152.8592 H   0  0  0  0  0  0  0  0  0  0  0  0
  139.5307  139.2561  152.0594 H   0  0  0  0  0  0  0  0  0  0  0  0
  139.9048  137.0433  153.4283 H   0  0  0  0  0  0  0  0  0  0  0  0
  1  2  2  0  0  0  0
  2  3  1  0  0  0  0
  2 12  1  0  0  0  0
  3  4  1  0  0  0  0
  3 20  1  0  0  0  0
  4 11  1  0  0  0  0
  4  5  2  0  0  0  0
  5  6  1  0  0  0  0
  6  7  2  0  0  0  0
  7  8  1  0  0  0  0
  7 11  1  0  0  0  0
  8 10  1  0  0  0  0
  8  9  1  0  0  0  0
  8 21  1  0  0  0  0
  9 10  1  0  0  0  0
  9 22  1  0  0  0  0
  9 23  1  0  0  0  0
 10 24  1  0  0  0  0
 10 25  1  0  0  0  0
 12 13  1  0  0  0  0
 12 26  1  0  0  0  0
 13 18  1  0  0  0  0
 13 14  1  0  0  0  0
 13 27  1  0  0  0  0
 14 15  1  0  0  0  0
 14 28  1  0  0  0  0
 14 29  1  0  0  0  0
 15 16  1  0  0  0  0
 15 30  1  0  0  0  0
 15 31  1  0  0  0  0
 16 17  1  0  0  0  0
 16 32  1  0  0  0  0
 16 33  1  0  0  0  0
 17 18  1  0  0  0  0
 17 34  1  0  0  0  0
 17 35  1  0  0  0  0
 18 19  1  0  0  0  0
 18 36  1  0  0  0  0
 19 37  1  0  0  0  0
M  END
> <s_m_source_file>
AV-unprocessed.smi

> <i_m_source_file_index>
1843

> <i_lp_mmshare_version>
43012

> <i_f3d_flags>
0

> <s_epik_input>
W09IXVtDQEBIXTFbQ0gyXVtDSDJdW0NIMl1bQ0gyXVtDQEhdMVtOSF1DKD1PKVtOSF1jMm5uYyhzMilbQ0hdM1tDSDJdW0NIMl0z

> <s_epik_cmdline>
J2VwaWtfcHl0aG9uJywgJy1waCcsICc3LjAnLCAnLXRuJywgJzgnLCAnLW1hJywgJzIwMCcsICctbWV0YWxfYmluZGluZycsICctaW1hZScsICc8aW5maWxlLm1hZT4nLCAnLW9tYWUnLCAnPG91dGZpbGUubWFlPic=

> <r_lp_tautomer_probability>
1

> <r_epik_Ionization_Penalty>
0.000257313

> <r_epik_Ionization_Penalty_Charging>
0

> <r_epik_Ionization_Penalty_Neutral>
0.000257313

> <r_epik_State_Penalty>
-0

> <r_epik_Charging_Adjusted_Penalty>
0

> <i_epik_Tot_Q>
0

> <i_epik_Tot_abs_Q>
0

> <r_epik_Metal_State_Penalty>
0.147479

> <b_epik_Metal_Only>
0

> <s_lp_Force_Field>
OPLS_2005

> <r_lp_Energy>
8.53895

> <b_lp_Chiralities_Consistent>
1

> <s_lp_Variant>
AV-unprocessed.smi:1843-4

> <Gold.Version>
5.8.1

> <Gold.Id.Protein>
6NUR|6NUR_protein|mol2

> <Gold.PLP.Fitness>
38.3383

> <Gold.PLP.PLP>
-32.9133

> <Gold.PLP.part.hbond>
-4.0419

> <Gold.PLP.part.metal>
0.0000

> <Gold.PLP.part.buried>
-5.4589

> <Gold.PLP.part.nonpolar>
-25.0813

> <Gold.PLP.part.repulsive>
0.6156

> <Gold.PLP.ligand.clash>
0.0516

> <Gold.PLP.ligand.torsion>
0.2296

> <Gold.PLP.Chemscore.Hbond>
1.9357

> <Gold.PLP.Chemscore.CHOScore>
0.0000

> <Gold.PLP.Chemscore.Metal>
0.0000

> <Gold.Chemscore.Hbonds>
donor molecule, donor type, donor heavy atom, donor atom, acceptor molecule, acceptor atom, score
      L1  H     3    20       P1 10175  0.92
      L1  H    12    26       P1 10175  1.00

> <Gold.PLP.Chemscore.Internal.Correction>
0.1285

> <Gold.Rescore>
     Score         DG    S(hbond)    S(metal)    S(lipo)     H(rot)  DE(clash)    DE(int)     intcor
     12.77     -15.31       1.85        0.00      69.22       1.74       0.02       2.53       ----

> <Gold.Chemscore.Fitness>
12.7660

> <Gold.Chemscore.DG>
-15.3077

> <Gold.Chemscore.ZeroCoef>
-5.4800

> <Gold.Chemscore.Hbond>
1.8516

> <Gold.Chemscore.Metal>
0.0000

> <Gold.Chemscore.Lipo>
69.2202

> <Gold.Chemscore.Internal_Hbond>
0.0000

> <Gold.Chemscore.DEClash>
0.0166

> <Gold.Chemscore.DEInternal>
2.5252

> <Gold.Chemscore.Rot>
1.7404

> <Gold.Chemscore.Internal.Correction>
   9.000000E+99

> <Gold.Chemscore.Hbonds>
donor molecule, donor type, donor heavy atom, donor atom, acceptor molecule, acceptor atom, score
      L1  H     3    20       P1 10175  0.83
      L1  H    12    26       P1 10175  0.95

> <Gold.Chemscore.Hbond.Weighted>
-6.1844

> <Gold.Chemscore.Metal.Weighted>
-0.0000

> <Gold.Chemscore.Lipo.Weighted>
-8.0988

> <Gold.Chemscore.Internal_Hbond.Weighted>
0.0000

> <Gold.Chemscore.DEClash.Weighted>
0.0166

> <Gold.Chemscore.DEInternal.Weighted>
2.5252

> <Gold.Chemscore.Rot.Weighted>
4.4555

> <Gold.Chemscore.Internal.Correction.Weighted>
   9.000000E+99

> <Gold.Protein.RotatedTorsions>
[ 6907 6896 6895 6894 ] final  128.98 input  -60.11 | X-H torsion
[ 7974 7965 7964 7962 ] final  -25.52 input  175.53 | X-H torsion
[ 8008 7997 7996 7995 ] final   81.21 input   59.86 | X-H torsion
[ 10167 10162 10161 10158 ] final  -43.70 input  -65.29 | X-H torsion
[ 10718 10713 10712 10709 ] final  -47.35 input   66.30 | X-H torsion
[ 10763 10752 10751 10750 ] final   31.92 input  -60.55 | X-H torsion
[ 11005 11000 10999 10996 ] final   84.59 input  -57.11 | X-H torsion

> <Gold.Protein.ActiveResidues>
 VAL166  LYS551  ARG553  GLY616  TRP617  ASP618  TYR619  PRO620  LYS621  CYS622 
 ASP623  PHE694  ASN695  SER759  ASP760  ASP761  ALA762  ILE779  LEU786  VAL792 
 PHE793  MET794  SER795  GLU796  ALA797  LYS798  CYS799  TRP800  GLU811  SER814 

> <Gold.Protein.RotatedAtoms>
  152.3668  133.6367  159.6056 H   0  0  0  0  0  0  0  0  0  0  0  0  # atno 6907 bound_to 6896
  150.7640  133.9335  159.3443 H   0  0  0  0  0  0  0  0  0  0  0  0  # atno 6908 bound_to 6896
  151.7164  135.0904  160.0328 H   0  0  0  0  0  0  0  0  0  0  0  0  # atno 6909 bound_to 6896
  146.1485  140.4898  142.8621 H   0  0  0  0  0  0  0  0  0  0  0  0  # atno 7974 bound_to 7965
  155.8940  140.3437  155.5977 H   0  0  0  0  0  0  0  0  0  0  0  0  # atno 8008 bound_to 7997
  155.7577  140.0828  157.2189 H   0  0  0  0  0  0  0  0  0  0  0  0  # atno 8009 bound_to 7997
  154.4036  140.1541  156.2784 H   0  0  0  0  0  0  0  0  0  0  0  0  # atno 8010 bound_to 7997
  140.6924  143.2969  151.3389 H   0  0  0  0  0  0  0  0  0  0  0  0  # atno 10167 bound_to 10162
  156.2093  130.4160  149.9136 H   0  0  0  0  0  0  0  0  0  0  0  0  # atno 10718 bound_to 10713
  153.0289  135.6426  154.1275 H   0  0  0  0  0  0  0  0  0  0  0  0  # atno 10763 bound_to 10752
  154.1000  135.2860  155.3255 H   0  0  0  0  0  0  0  0  0  0  0  0  # atno 10764 bound_to 10752
  154.6405  135.5461  153.7847 H   0  0  0  0  0  0  0  0  0  0  0  0  # atno 10765 bound_to 10752
  139.8996  134.8227  156.2466 H   0  0  0  0  0  0  0  0  0  0  0  0  # atno 11005 bound_to 11000
  144.7875  140.5966  143.6563 LP  0  0  0  0  0  0  0  0  0  0  0  0  # atno 17320 bound_to 7965
  145.4879  139.1490  143.3726 LP  0  0  0  0  0  0  0  0  0  0  0  0  # atno 17321 bound_to 7965
  139.6342  144.0663  152.2501 LP  0  0  0  0  0  0  0  0  0  0  0  0  # atno 17342 bound_to 10162
  140.0147  144.6197  150.7617 LP  0  0  0  0  0  0  0  0  0  0  0  0  # atno 17343 bound_to 10162
  156.6819  130.8861  151.3577 LP  0  0  0  0  0  0  0  0  0  0  0  0  # atno 17370 bound_to 10713
  157.7030  130.9353  150.0842 LP  0  0  0  0  0  0  0  0  0  0  0  0  # atno 17371 bound_to 10713
  141.0250  133.7020  156.1333 LP  0  0  0  0  0  0  0  0  0  0  0  0  # atno 17394 bound_to 11000
  140.7178  134.4391  157.5577 LP  0  0  0  0  0  0  0  0  0  0  0  0  # atno 17395 bound_to 11000

$$$$
