AV-unprocessed.smi:3266|AV-procd|sdf|12500|dock8
  -GOLD-   2272018403D 1   1.00000     0.00000
 Structure written by MMmdl.
 38 39  0  0  0  0  0  0  0  0  1 V2000
  152.7427  139.8981  157.1197 O   0  0  0  0  0  0  0  0  0  0  0  0
  151.7009  140.2460  157.6761 C   0  0  0  0  0  0  0  0  0  0  0  0
  150.3898  140.2983  156.8897 C   0  0  0  0  0  0  0  0  0  0  0  0
  150.4668  141.2680  155.6968 C   0  0  0  0  0  0  0  0  0  0  0  0
  149.1065  141.8906  155.3510 C   0  0  2  0  0  0  0  0  0  0  0  0
  147.9706  141.4374  156.2662 C   0  0  0  0  0  0  0  0  0  0  0  0
  146.7631  141.6742  155.3886 C   0  0  0  0  0  0  0  0  0  0  0  0
  147.2891  141.2625  154.0161 C   0  0  0  0  0  0  0  0  0  0  0  0
  148.6927  141.5118  154.0404 O   0  0  0  0  0  0  0  0  0  0  0  0
  151.6319  140.5788  158.9750 N   0  0  0  0  0  0  0  0  0  0  0  0
  152.7394  140.5209  159.9263 C   0  0  0  0  0  0  0  0  0  0  0  0
  153.5061  141.8555  160.0103 C   0  0  0  0  0  0  0  0  0  0  0  0
  152.6392  143.0760  159.7495 C   0  0  0  0  0  0  0  0  0  0  0  0
  152.4823  144.0742  160.7355 C   0  0  0  0  0  0  0  0  0  0  0  0
  151.6971  145.2021  160.4290 C   0  0  0  0  0  0  0  0  0  0  0  0
  151.0982  145.2860  159.1575 C   0  0  0  0  0  0  0  0  0  0  0  0
  151.3118  144.2333  158.2452 C   0  0  0  0  0  0  0  0  0  0  0  0
  152.0634  143.1477  158.5284 N   0  0  0  0  0  0  0  0  0  0  0  0
  150.1353  139.2986  156.5342 H   0  0  0  0  0  0  0  0  0  0  0  0
  149.5924  140.6008  157.5691 H   0  0  0  0  0  0  0  0  0  0  0  0
  151.1853  142.0622  155.9055 H   0  0  0  0  0  0  0  0  0  0  0  0
  150.8438  140.7346  154.8227 H   0  0  0  0  0  0  0  0  0  0  0  0
  149.1720  142.9795  155.3812 H   0  0  0  0  0  0  0  0  0  0  0  0
  148.0602  140.3748  156.4973 H   0  0  0  0  0  0  0  0  0  0  0  0
  147.9341  141.9903  157.2053 H   0  0  0  0  0  0  0  0  0  0  0  0
  145.8865  141.1046  155.6985 H   0  0  0  0  0  0  0  0  0  0  0  0
  146.5021  142.7335  155.3899 H   0  0  0  0  0  0  0  0  0  0  0  0
  147.1315  140.1960  153.8511 H   0  0  0  0  0  0  0  0  0  0  0  0
  146.8021  141.8057  153.2060 H   0  0  0  0  0  0  0  0  0  0  0  0
  150.7336  140.8589  159.3417 H   0  0  0  0  0  0  0  0  0  0  0  0
  152.3850  140.2287  160.9163 H   0  0  0  0  0  0  0  0  0  0  0  0
  153.4193  139.7321  159.6042 H   0  0  0  0  0  0  0  0  0  0  0  0
  153.9607  141.9530  160.9971 H   0  0  0  0  0  0  0  0  0  0  0  0
  154.3328  141.8479  159.2989 H   0  0  0  0  0  0  0  0  0  0  0  0
  152.9630  143.9855  161.6986 H   0  0  0  0  0  0  0  0  0  0  0  0
  151.5596  145.9900  161.1545 H   0  0  0  0  0  0  0  0  0  0  0  0
  150.4904  146.1367  158.8872 H   0  0  0  0  0  0  0  0  0  0  0  0
  150.8676  144.2645  157.2612 H   0  0  0  0  0  0  0  0  0  0  0  0
  1  2  2  0  0  0  0
  2  3  1  0  0  0  0
  2 10  1  0  0  0  0
  3  4  1  0  0  0  0
  3 19  1  0  0  0  0
  3 20  1  0  0  0  0
  4  5  1  0  0  0  0
  4 21  1  0  0  0  0
  4 22  1  0  0  0  0
  5  9  1  0  0  0  0
  5  6  1  0  0  0  0
  5 23  1  0  0  0  0
  6  7  1  0  0  0  0
  6 24  1  0  0  0  0
  6 25  1  0  0  0  0
  7  8  1  0  0  0  0
  7 26  1  0  0  0  0
  7 27  1  0  0  0  0
  8  9  1  0  0  0  0
  8 28  1  0  0  0  0
  8 29  1  0  0  0  0
 10 11  1  0  0  0  0
 10 30  1  0  0  0  0
 11 12  1  0  0  0  0
 11 31  1  0  0  0  0
 11 32  1  0  0  0  0
 12 13  1  0  0  0  0
 12 33  1  0  0  0  0
 12 34  1  0  0  0  0
 13 18  1  0  0  0  0
 13 14  2  0  0  0  0
 14 15  1  0  0  0  0
 14 35  1  0  0  0  0
 15 16  2  0  0  0  0
 15 36  1  0  0  0  0
 16 17  1  0  0  0  0
 16 37  1  0  0  0  0
 17 18  2  0  0  0  0
 17 38  1  0  0  0  0
M  END
> <s_m_source_file>
AV-unprocessed.smi

> <i_m_source_file_index>
3266

> <i_lp_mmshare_version>
43012

> <i_f3d_flags>
0

> <s_epik_input>
TzFbQ0gyXVtDSDJdW0NIMl1bQ0BIXTFbQ0gyXVtDSDJdQyg9TylbTkhdW0NIMl1bQ0gyXWMyW2NIXVtjSF1bY0hdW2NIXW4y

> <s_epik_cmdline>
J2VwaWtfcHl0aG9uJywgJy1waCcsICc3LjAnLCAnLXRuJywgJzgnLCAnLW1hJywgJzIwMCcsICctbWV0YWxfYmluZGluZycsICctaW1hZScsICc8aW5maWxlLm1hZT4nLCAnLW9tYWUnLCAnPG91dGZpbGUubWFlPic=

> <r_epik_Ionization_Penalty>
0.0267142

> <r_epik_Ionization_Penalty_Charging>
0

> <r_epik_Ionization_Penalty_Neutral>
0.0267142

> <r_epik_State_Penalty>
0.0218233

> <r_epik_Charging_Adjusted_Penalty>
0.0218233

> <i_epik_Tot_Q>
0

> <i_epik_Tot_abs_Q>
0

> <r_epik_Metal_State_Penalty>
0.0208786

> <b_epik_Metal_Only>
0

> <s_lp_Force_Field>
OPLS_2005

> <r_lp_Energy>
16.3587

> <b_lp_Chiralities_Consistent>
1

> <s_lp_Variant>
AV-unprocessed.smi:3266-1

> <Gold.Version>
5.8.1

> <Gold.Id.Protein>
6NUR|6NUR_protein|mol2

> <Gold.PLP.Fitness>
46.0317

> <Gold.PLP.PLP>
-40.3873

> <Gold.PLP.part.hbond>
-2.2342

> <Gold.PLP.part.metal>
0.0000

> <Gold.PLP.part.buried>
-2.8620

> <Gold.PLP.part.nonpolar>
-34.5396

> <Gold.PLP.part.repulsive>
0.8876

> <Gold.PLP.ligand.clash>
0.1584

> <Gold.PLP.ligand.torsion>
1.2979

> <Gold.PLP.Chemscore.Hbond>
1.7840

> <Gold.PLP.Chemscore.CHOScore>
0.9989

> <Gold.PLP.Chemscore.Metal>
0.0000

> <Gold.Chemscore.Hbonds>
donor molecule, donor type, donor heavy atom, donor atom, acceptor molecule, acceptor atom, score
      P1  H  7997  8009       L1     1  1.00
      P1  H  8011  8017       L1     9  0.34
      L1  C    17    38       P1  8028  0.93

> <Gold.PLP.Chemscore.Internal.Correction>
0.0498

> <Gold.Rescore>
     Score         DG    S(hbond)    S(metal)    S(lipo)     H(rot)  DE(clash)    DE(int)     intcor
     16.27     -19.90       1.68        0.00     112.66       1.71       0.83       2.80       ----

> <Gold.Chemscore.Fitness>
16.2726

> <Gold.Chemscore.DG>
-19.9006

> <Gold.Chemscore.ZeroCoef>
-5.4800

> <Gold.Chemscore.Hbond>
1.6837

> <Gold.Chemscore.Metal>
0.0000

> <Gold.Chemscore.Lipo>
112.6639

> <Gold.Chemscore.Internal_Hbond>
0.0000

> <Gold.Chemscore.DEClash>
0.8303

> <Gold.Chemscore.DEInternal>
2.7978

> <Gold.Chemscore.Rot>
1.7127

> <Gold.Chemscore.Internal.Correction>
   9.000000E+99

> <Gold.Chemscore.Hbonds>
donor molecule, donor type, donor heavy atom, donor atom, acceptor molecule, acceptor atom, score
      P1  H  7997  8009       L1     1  0.99
      P1  H  8011  8017       L1     9  0.32

> <Gold.Chemscore.Hbond.Weighted>
-5.6235

> <Gold.Chemscore.Metal.Weighted>
-0.0000

> <Gold.Chemscore.Lipo.Weighted>
-13.1817

> <Gold.Chemscore.Internal_Hbond.Weighted>
0.0000

> <Gold.Chemscore.DEClash.Weighted>
0.8303

> <Gold.Chemscore.DEInternal.Weighted>
2.7978

> <Gold.Chemscore.Rot.Weighted>
4.3846

> <Gold.Chemscore.Internal.Correction.Weighted>
   9.000000E+99

> <Gold.Protein.RotatedTorsions>
[ 6907 6896 6895 6894 ] final   79.57 input  -60.11 | X-H torsion
[ 7974 7965 7964 7962 ] final -173.70 input  175.53 | X-H torsion
[ 8008 7997 7996 7995 ] final -170.24 input   59.86 | X-H torsion
[ 10167 10162 10161 10158 ] final  135.57 input  -65.29 | X-H torsion
[ 10718 10713 10712 10709 ] final   82.63 input   66.30 | X-H torsion
[ 10763 10752 10751 10750 ] final -153.68 input  -60.55 | X-H torsion
[ 11005 11000 10999 10996 ] final   46.70 input  -57.11 | X-H torsion

> <Gold.Protein.ActiveResidues>
 VAL166  LYS551  ARG553  GLY616  TRP617  ASP618  TYR619  PRO620  LYS621  CYS622 
 ASP623  PHE694  ASN695  SER759  ASP760  ASP761  ALA762  ILE779  LEU786  VAL792 
 PHE793  MET794  SER795  GLU796  ALA797  LYS798  CYS799  TRP800  GLU811  SER814 

> <Gold.Protein.RotatedAtoms>
  152.5203  134.3491  159.9244 H   0  0  0  0  0  0  0  0  0  0  0  0  # atno 6907 bound_to 6896
  151.3442  133.3944  159.2681 H   0  0  0  0  0  0  0  0  0  0  0  0  # atno 6908 bound_to 6896
  150.9779  134.9158  159.7885 H   0  0  0  0  0  0  0  0  0  0  0  0  # atno 6909 bound_to 6896
  144.7136  140.1583  143.6378 H   0  0  0  0  0  0  0  0  0  0  0  0  # atno 7974 bound_to 7965
  155.9157  140.1065  157.1245 H   0  0  0  0  0  0  0  0  0  0  0  0  # atno 8008 bound_to 7997
  154.4046  140.1265  156.4679 H   0  0  0  0  0  0  0  0  0  0  0  0  # atno 8009 bound_to 7997
  155.7257  140.3469  155.5038 H   0  0  0  0  0  0  0  0  0  0  0  0  # atno 8010 bound_to 7997
  139.5212  144.6510  151.5303 H   0  0  0  0  0  0  0  0  0  0  0  0  # atno 10167 bound_to 10162
  157.6861  131.0056  150.2404 H   0  0  0  0  0  0  0  0  0  0  0  0  # atno 10718 bound_to 10713
  154.7911  135.3207  154.7774 H   0  0  0  0  0  0  0  0  0  0  0  0  # atno 10763 bound_to 10752
  153.8463  135.6866  153.4801 H   0  0  0  0  0  0  0  0  0  0  0  0  # atno 10764 bound_to 10752
  153.1582  135.4671  154.9675 H   0  0  0  0  0  0  0  0  0  0  0  0  # atno 10765 bound_to 10752
  140.1345  134.4662  155.8496 H   0  0  0  0  0  0  0  0  0  0  0  0  # atno 11005 bound_to 11000
  145.9054  139.2455  143.1469 LP  0  0  0  0  0  0  0  0  0  0  0  0  # atno 17320 bound_to 7965
  145.9769  140.8714  143.0134 LP  0  0  0  0  0  0  0  0  0  0  0  0  # atno 17321 bound_to 7965
  140.6314  143.9068  150.6609 LP  0  0  0  0  0  0  0  0  0  0  0  0  # atno 17342 bound_to 10162
  140.2373  143.3690  152.1516 LP  0  0  0  0  0  0  0  0  0  0  0  0  # atno 17343 bound_to 10162
  156.3019  130.3759  149.7742 LP  0  0  0  0  0  0  0  0  0  0  0  0  # atno 17370 bound_to 10713
  156.5369  130.8282  151.3256 LP  0  0  0  0  0  0  0  0  0  0  0  0  # atno 17371 bound_to 10713
  141.2176  133.6809  156.7132 LP  0  0  0  0  0  0  0  0  0  0  0  0  # atno 17394 bound_to 11000
  140.2800  134.8324  157.3924 LP  0  0  0  0  0  0  0  0  0  0  0  0  # atno 17395 bound_to 11000

$$$$
