AV-unprocessed.smi:388|AV-procd|sdf|2475|dock6
  -GOLD-   2262022413D 1   1.00000     0.00000
 Structure written by MMmdl.
 34 35  0  0  0  0  0  0  0  0  1 V2000
  149.6989  134.0043  155.1116 C   0  0  0  0  0  0  0  0  0  0  0  0
  150.5373  135.1450  155.4465 N   0  0  0  0  0  0  0  0  0  0  0  0
  150.7470  135.5856  156.6945 C   0  0  0  0  0  0  0  0  0  0  0  0
  150.2421  135.0618  157.6899 O   0  0  0  0  0  0  0  0  0  0  0  0
  151.5638  136.6556  156.6975 N   0  0  0  0  0  0  0  0  0  0  0  0
  152.1668  137.2292  157.7588 C   0  0  0  0  0  0  0  0  0  0  0  0
  152.0754  136.8407  158.9247 O   0  0  0  0  0  0  0  0  0  0  0  0
  153.0225  138.4627  157.4457 C   0  0  0  0  0  0  0  0  0  0  0  0
  152.2317  139.6726  157.2668 N   0  0  0  0  0  0  0  0  0  0  0  0
  151.3950  139.7597  156.1239 C   0  0  0  0  0  0  0  0  0  0  0  0
  151.3169  138.8449  155.3013 O   0  0  0  0  0  0  0  0  0  0  0  0
  150.6431  141.0081  156.0175 C   0  0  0  0  0  0  0  0  0  0  0  0
  149.8217  141.1751  154.8645 C   0  0  0  0  0  0  0  0  0  0  0  0
  149.1729  141.3180  153.9169 N   0  0  0  0  0  0  0  0  0  0  0  0
  150.7299  141.9589  156.9725 C   0  0  0  0  0  0  0  0  0  0  0  0
  151.5074  141.8143  158.1029 N   0  0  0  0  0  0  0  0  0  0  0  0
  151.6841  142.8942  159.0327 C   0  0  0  0  0  0  0  0  0  0  0  0
  152.0805  144.2729  158.5403 C   0  0  0  0  0  0  0  0  0  0  0  0
  153.0793  143.4226  159.2862 C   0  0  0  0  0  0  0  0  0  0  0  0
  152.3266  140.6753  158.2632 C   0  0  0  0  0  0  0  0  0  0  0  0
  153.0877  140.5651  159.2280 O   0  0  0  0  0  0  0  0  0  0  0  0
  149.7067  133.8410  154.0339 H   0  0  0  0  0  0  0  0  0  0  0  0
  148.6679  134.1765  155.4231 H   0  0  0  0  0  0  0  0  0  0  0  0
  150.0629  133.0975  155.5966 H   0  0  0  0  0  0  0  0  0  0  0  0
  150.9824  135.6302  154.6809 H   0  0  0  0  0  0  0  0  0  0  0  0
  151.7393  137.0871  155.8017 H   0  0  0  0  0  0  0  0  0  0  0  0
  153.7478  138.6490  158.2395 H   0  0  0  0  0  0  0  0  0  0  0  0
  153.6255  138.3092  156.5495 H   0  0  0  0  0  0  0  0  0  0  0  0
  150.1599  142.8693  156.8537 H   0  0  0  0  0  0  0  0  0  0  0  0
  151.0230  142.8734  159.8972 H   0  0  0  0  0  0  0  0  0  0  0  0
  152.2470  144.4126  157.4737 H   0  0  0  0  0  0  0  0  0  0  0  0
  151.6601  145.1303  159.0614 H   0  0  0  0  0  0  0  0  0  0  0  0
  153.3274  143.7156  160.3042 H   0  0  0  0  0  0  0  0  0  0  0  0
  153.9009  143.0006  158.7101 H   0  0  0  0  0  0  0  0  0  0  0  0
  1  2  1  0  0  0  0
  1 22  1  0  0  0  0
  1 23  1  0  0  0  0
  1 24  1  0  0  0  0
  2  3  1  0  0  0  0
  2 25  1  0  0  0  0
  3  4  2  0  0  0  0
  3  5  1  0  0  0  0
  5  6  1  0  0  0  0
  5 26  1  0  0  0  0
  6  7  2  0  0  0  0
  6  8  1  0  0  0  0
  8  9  1  0  0  0  0
  8 27  1  0  0  0  0
  8 28  1  0  0  0  0
  9 20  1  0  0  0  0
  9 10  1  0  0  0  0
 10 11  2  0  0  0  0
 10 12  1  0  0  0  0
 12 13  1  0  0  0  0
 12 15  2  0  0  0  0
 13 14  3  0  0  0  0
 15 16  1  0  0  0  0
 15 29  1  0  0  0  0
 16 17  1  0  0  0  0
 16 20  1  0  0  0  0
 17 19  1  0  0  0  0
 17 18  1  0  0  0  0
 17 30  1  0  0  0  0
 18 19  1  0  0  0  0
 18 31  1  0  0  0  0
 18 32  1  0  0  0  0
 19 33  1  0  0  0  0
 19 34  1  0  0  0  0
 20 21  2  0  0  0  0
M  END
> <s_m_source_file>
AV-unprocessed.smi

> <i_m_source_file_index>
388

> <i_lp_mmshare_version>
43012

> <i_f3d_flags>
0

> <s_epik_input>
W0NIM11bTkhdQyg9TylbTkhdQyg9TylbQ0gyXW4xYyg9TyljKEMjTilbY0hdbihjMT1PKVtDSF0yW0NIMl1bQ0gyXTI=

> <s_epik_cmdline>
J2VwaWtfcHl0aG9uJywgJy1waCcsICc3LjAnLCAnLXRuJywgJzgnLCAnLW1hJywgJzIwMCcsICctbWV0YWxfYmluZGluZycsICctaW1hZScsICc8aW5maWxlLm1hZT4nLCAnLW9tYWUnLCAnPG91dGZpbGUubWFlPic=

> <r_lp_tautomer_probability>
1

> <r_epik_Ionization_Penalty>
2.95777e-05

> <r_epik_Ionization_Penalty_Charging>
6.31124e-11

> <r_epik_Ionization_Penalty_Neutral>
2.95776e-05

> <r_epik_State_Penalty>
-0

> <r_epik_Charging_Adjusted_Penalty>
6.31124e-11

> <i_epik_Tot_Q>
0

> <i_epik_Tot_abs_Q>
0

> <r_epik_Metal_State_Penalty>
-0

> <b_epik_Metal_Only>
0

> <s_lp_Force_Field>
OPLS_2005

> <r_lp_Energy>
33.5858

> <b_lp_Chiralities_Consistent>
1

> <s_lp_Variant>
AV-unprocessed.smi:388-1

> <Gold.Version>
5.8.1

> <Gold.Id.Protein>
6NUR|6NUR_protein|mol2

> <Gold.PLP.Fitness>
44.5254

> <Gold.PLP.PLP>
-35.4173

> <Gold.PLP.part.hbond>
-3.9711

> <Gold.PLP.part.metal>
0.0000

> <Gold.PLP.part.buried>
-3.8955

> <Gold.PLP.part.nonpolar>
-28.6702

> <Gold.PLP.part.repulsive>
0.9020

> <Gold.PLP.ligand.clash>
0.0000

> <Gold.PLP.ligand.torsion>
0.4765

> <Gold.PLP.Chemscore.Hbond>
2.2880

> <Gold.PLP.Chemscore.CHOScore>
1.0000

> <Gold.PLP.Chemscore.Metal>
0.0000

> <Gold.Chemscore.Hbonds>
donor molecule, donor type, donor heavy atom, donor atom, acceptor molecule, acceptor atom, score
      P1  H  6896  6907       L1     7  0.87
      P1  H  6896  6909       L1     4  0.56
      P1  H  8011  8017       L1    14  0.80
      L1  C    15    29       P1  8028  0.97

> <Gold.PLP.Chemscore.Internal.Correction>
0.1971

> <Gold.Rescore>
     Score         DG    S(hbond)    S(metal)    S(lipo)     H(rot)  DE(clash)    DE(int)     intcor
     10.66     -15.24       2.32        0.00      57.90       1.87       0.14       4.43       ----

> <Gold.Chemscore.Fitness>
10.6612

> <Gold.Chemscore.DG>
-15.2401

> <Gold.Chemscore.ZeroCoef>
-5.4800

> <Gold.Chemscore.Hbond>
2.3247

> <Gold.Chemscore.Metal>
0.0000

> <Gold.Chemscore.Lipo>
57.9014

> <Gold.Chemscore.Internal_Hbond>
0.0000

> <Gold.Chemscore.DEClash>
0.1449

> <Gold.Chemscore.DEInternal>
4.4341

> <Gold.Chemscore.Rot>
1.8667

> <Gold.Chemscore.Internal.Correction>
   9.000000E+99

> <Gold.Chemscore.Hbonds>
donor molecule, donor type, donor heavy atom, donor atom, acceptor molecule, acceptor atom, score
      P1  H  6896  6907       L1     7  0.80
      P1  H  6896  6909       L1     4  0.55
      P1  H  8011  8017       L1    14  0.74

> <Gold.Chemscore.Hbond.Weighted>
-7.7644

> <Gold.Chemscore.Metal.Weighted>
-0.0000

> <Gold.Chemscore.Lipo.Weighted>
-6.7745

> <Gold.Chemscore.Internal_Hbond.Weighted>
0.0000

> <Gold.Chemscore.DEClash.Weighted>
0.1449

> <Gold.Chemscore.DEInternal.Weighted>
4.4341

> <Gold.Chemscore.Rot.Weighted>
4.7787

> <Gold.Chemscore.Internal.Correction.Weighted>
   9.000000E+99

> <Gold.Protein.RotatedTorsions>
[ 6907 6896 6895 6894 ] final   12.65 input  -60.11 | X-H torsion
[ 7974 7965 7964 7962 ] final -147.38 input  175.53 | X-H torsion
[ 8008 7997 7996 7995 ] final -103.30 input   59.86 | X-H torsion
[ 10167 10162 10161 10158 ] final   27.45 input  -65.29 | X-H torsion
[ 10718 10713 10712 10709 ] final  -93.11 input   66.30 | X-H torsion
[ 10763 10752 10751 10750 ] final   91.28 input  -60.55 | X-H torsion
[ 11005 11000 10999 10996 ] final -121.13 input  -57.11 | X-H torsion

> <Gold.Protein.ActiveResidues>
 VAL166  LYS551  ARG553  GLY616  TRP617  ASP618  TYR619  PRO620  LYS621  CYS622 
 ASP623  PHE694  ASN695  SER759  ASP760  ASP761  ALA762  ILE779  LEU786  VAL792 
 PHE793  MET794  SER795  GLU796  ALA797  LYS798  CYS799  TRP800  GLU811  SER814 

> <Gold.Protein.RotatedAtoms>
  151.7737  135.0779  160.0363 H   0  0  0  0  0  0  0  0  0  0  0  0  # atno 6907 bound_to 6896
  152.3271  133.5912  159.5792 H   0  0  0  0  0  0  0  0  0  0  0  0  # atno 6908 bound_to 6896
  150.7401  133.9840  159.3627 H   0  0  0  0  0  0  0  0  0  0  0  0  # atno 6909 bound_to 6896
  144.8097  140.5334  143.5651 H   0  0  0  0  0  0  0  0  0  0  0  0  # atno 7974 bound_to 7965
  154.8690  140.0423  157.1712 H   0  0  0  0  0  0  0  0  0  0  0  0  # atno 8008 bound_to 7997
  154.8759  140.2965  155.5433 H   0  0  0  0  0  0  0  0  0  0  0  0  # atno 8009 bound_to 7997
  156.2999  140.2420  156.3755 H   0  0  0  0  0  0  0  0  0  0  0  0  # atno 8010 bound_to 7997
  140.4937  144.0426  150.6306 H   0  0  0  0  0  0  0  0  0  0  0  0  # atno 10167 bound_to 10162
  156.0009  130.5014  150.5728 H   0  0  0  0  0  0  0  0  0  0  0  0  # atno 10718 bound_to 10713
  153.2065  135.4403  155.0329 H   0  0  0  0  0  0  0  0  0  0  0  0  # atno 10763 bound_to 10752
  154.8177  135.3322  154.7132 H   0  0  0  0  0  0  0  0  0  0  0  0  # atno 10764 bound_to 10752
  153.7573  135.6994  153.4988 H   0  0  0  0  0  0  0  0  0  0  0  0  # atno 10765 bound_to 10752
  141.0092  134.0289  157.3436 H   0  0  0  0  0  0  0  0  0  0  0  0  # atno 11005 bound_to 11000
  145.5353  139.1475  143.3477 LP  0  0  0  0  0  0  0  0  0  0  0  0  # atno 17320 bound_to 7965
  146.2394  140.5493  142.8940 LP  0  0  0  0  0  0  0  0  0  0  0  0  # atno 17321 bound_to 7965
  140.3702  143.2859  152.0287 LP  0  0  0  0  0  0  0  0  0  0  0  0  # atno 17342 bound_to 10162
  139.4857  144.6236  151.7208 LP  0  0  0  0  0  0  0  0  0  0  0  0  # atno 17343 bound_to 10162
  157.3620  131.0751  151.1629 LP  0  0  0  0  0  0  0  0  0  0  0  0  # atno 17370 bound_to 10713
  157.2410  130.6569  149.5890 LP  0  0  0  0  0  0  0  0  0  0  0  0  # atno 17371 bound_to 10713
  139.9080  135.0184  156.7572 LP  0  0  0  0  0  0  0  0  0  0  0  0  # atno 17394 bound_to 11000
  140.6761  133.9516  155.7884 LP  0  0  0  0  0  0  0  0  0  0  0  0  # atno 17395 bound_to 11000

$$$$
