AV-unprocessed.smi:1535|AV-procd|sdf|6185|dock7
  -GOLD-   22720 6343D 1   1.00000     0.00000
 Structure written by MMmdl.
 47 48  0  0  0  0  0  0  0  0  2 V2000
  151.9840  144.0728  158.4435 C   0  0  0  0  0  0  0  0  0  0  0  0
  151.7070  142.7134  157.8258 C   0  0  0  0  0  0  0  0  0  0  0  0
  151.0444  142.6463  156.5792 C   0  0  0  0  0  0  0  0  0  0  0  0
  150.7676  141.4017  155.9721 C   0  0  0  0  0  0  0  0  0  0  0  0
  150.1416  141.1049  154.7735 N   0  0  0  0  0  0  0  0  0  0  0  0
  150.1850  139.7760  154.7693 C   0  0  0  0  0  0  0  0  0  0  0  0
  150.7694  139.1750  155.8235 N   0  0  0  0  0  0  0  0  0  0  0  0
  150.9288  137.7477  156.0389 C   0  0  0  0  0  0  0  0  0  0  0  0
  150.4743  136.9095  154.8287 C   0  0  1  0  0  0  0  0  0  0  0  0
  151.4825  136.9263  153.8359 O   0  0  0  0  0  0  0  0  0  0  0  0
  150.2042  135.4440  155.2233 C   0  0  0  0  0  0  0  0  0  0  0  0
  149.1093  134.8415  154.4210 N   0  3  1  0  0  0  0  0  0  0  0  0
  149.3844  133.4267  154.0802 C   0  0  0  0  0  0  0  0  0  0  0  0
  147.7667  135.0297  155.0308 C   0  0  0  0  0  0  0  0  0  0  0  0
  146.7228  134.0521  154.4603 C   0  0  1  0  0  0  0  0  0  0  0  0
  145.4416  134.0415  155.3036 C   0  0  0  0  0  0  0  0  0  0  0  0
  146.4192  134.3622  153.0537 C   0  0  0  0  0  0  0  0  0  0  0  0
  146.1795  134.6098  151.9499 N   0  0  0  0  0  0  0  0  0  0  0  0
  151.1739  140.2165  156.6523 C   0  0  0  0  0  0  0  0  0  0  0  0
  151.8360  140.2704  157.8915 C   0  0  0  0  0  0  0  0  0  0  0  0
  152.1056  141.5220  158.4837 C   0  0  0  0  0  0  0  0  0  0  0  0
  152.8232  141.5692  159.8210 C   0  0  0  0  0  0  0  0  0  0  0  0
  151.5931  144.8797  157.8230 H   0  0  0  0  0  0  0  0  0  0  0  0
  153.0569  144.2280  158.5584 H   0  0  0  0  0  0  0  0  0  0  0  0
  151.5155  144.1503  159.4250 H   0  0  0  0  0  0  0  0  0  0  0  0
  150.7421  143.5534  156.0767 H   0  0  0  0  0  0  0  0  0  0  0  0
  149.7690  139.2052  153.9519 H   0  0  0  0  0  0  0  0  0  0  0  0
  151.9748  137.5458  156.2730 H   0  0  0  0  0  0  0  0  0  0  0  0
  150.3545  137.4711  156.9241 H   0  0  0  0  0  0  0  0  0  0  0  0
  149.5777  137.3634  154.4063 H   0  0  0  0  0  0  0  0  0  0  0  0
  151.0730  136.8306  152.9888 H   0  0  0  0  0  0  0  0  0  0  0  0
  151.1261  134.8759  155.0860 H   0  0  0  0  0  0  0  0  0  0  0  0
  149.9587  135.3664  156.2838 H   0  0  0  0  0  0  0  0  0  0  0  0
  149.4417  132.8121  154.9795 H   0  0  0  0  0  0  0  0  0  0  0  0
  150.3305  133.3375  153.5451 H   0  0  0  0  0  0  0  0  0  0  0  0
  148.6099  133.0148  153.4341 H   0  0  0  0  0  0  0  0  0  0  0  0
  147.8416  134.9272  156.1145 H   0  0  0  0  0  0  0  0  0  0  0  0
  147.4132  136.0452  154.8505 H   0  0  0  0  0  0  0  0  0  0  0  0
  147.1284  133.0408  154.4669 H   0  0  0  0  0  0  0  0  0  0  0  0
  144.7181  133.3301  154.9043 H   0  0  0  0  0  0  0  0  0  0  0  0
  144.9683  135.0238  155.3171 H   0  0  0  0  0  0  0  0  0  0  0  0
  145.6501  133.7559  156.3350 H   0  0  0  0  0  0  0  0  0  0  0  0
  152.1354  139.3563  158.3825 H   0  0  0  0  0  0  0  0  0  0  0  0
  153.0425  140.5671  160.1910 H   0  0  0  0  0  0  0  0  0  0  0  0
  152.2096  142.0735  160.5678 H   0  0  0  0  0  0  0  0  0  0  0  0
  153.7677  142.1056  159.7283 H   0  0  0  0  0  0  0  0  0  0  0  0
  149.1103  135.3488  153.5469 H   0  0  0  0  0  0  0  0  0  0  0  0
  1  2  1  0  0  0  0
  1 23  1  0  0  0  0
  1 24  1  0  0  0  0
  1 25  1  0  0  0  0
  2 21  1  0  0  0  0
  2  3  2  0  0  0  0
  3  4  1  0  0  0  0
  3 26  1  0  0  0  0
  4 19  2  0  0  0  0
  4  5  1  0  0  0  0
  5  6  2  0  0  0  0
  6  7  1  0  0  0  0
  6 27  1  0  0  0  0
  7  8  1  0  0  0  0
  7 19  1  0  0  0  0
  8  9  1  0  0  0  0
  8 28  1  0  0  0  0
  8 29  1  0  0  0  0
  9 10  1  0  0  0  0
  9 11  1  0  0  0  0
  9 30  1  0  0  0  0
 10 31  1  0  0  0  0
 11 12  1  0  0  0  0
 11 32  1  0  0  0  0
 11 33  1  0  0  0  0
 12 13  1  0  0  0  0
 12 14  1  0  0  0  0
 12 47  1  0  0  0  0
 13 34  1  0  0  0  0
 13 35  1  0  0  0  0
 13 36  1  0  0  0  0
 14 15  1  0  0  0  0
 14 37  1  0  0  0  0
 14 38  1  0  0  0  0
 15 16  1  0  0  0  0
 15 17  1  0  0  0  0
 15 39  1  0  0  0  0
 16 40  1  0  0  0  0
 16 41  1  0  0  0  0
 16 42  1  0  0  0  0
 17 18  3  0  0  0  0
 19 20  1  0  0  0  0
 20 21  2  0  0  0  0
 20 43  1  0  0  0  0
 21 22  1  0  0  0  0
 22 44  1  0  0  0  0
 22 45  1  0  0  0  0
 22 46  1  0  0  0  0
M  CHG  1  12   1
M  END
> <s_m_source_file>
AV-unprocessed.smi

> <i_m_source_file_index>
1535

> <i_lp_mmshare_version>
43012

> <i_f3d_flags>
0

> <s_epik_input>
W0NIM11jKFtjSF0xKWMoW0NIM10pW2NIXWMoYzEyKW4oW2NIXW4yKVtDSDJdW0NASF0oW09IXSlbQ0gyXU4oW0NIM10pW0NIMl1bQ0BIXShbQ0gzXSlDI04=

> <s_epik_cmdline>
J2VwaWtfcHl0aG9uJywgJy1waCcsICc3LjAnLCAnLXRuJywgJzgnLCAnLW1hJywgJzIwMCcsICctbWV0YWxfYmluZGluZycsICctaW1hZScsICc8aW5maWxlLm1hZT4nLCAnLW9tYWUnLCAnPG91dGZpbGUubWFlPic=

> <r_epik_Ionization_Penalty>
2.21058

> <r_epik_Ionization_Penalty_Charging>
2.12381

> <r_epik_Ionization_Penalty_Neutral>
0.0867699

> <r_epik_State_Penalty>
2.36208

> <r_epik_Charging_Adjusted_Penalty>
4.48589

> <i_epik_Tot_Q>
1

> <i_epik_Tot_abs_Q>
1

> <r_epik_Metal_State_Penalty>
2.2818

> <b_epik_Metal_Only>
0

> <s_lp_Force_Field>
OPLS_2005

> <r_lp_Energy>
14.5736

> <b_lp_Chiralities_Consistent>
1

> <s_lp_Variant>
AV-unprocessed.smi:1535-16

> <Gold.Version>
5.8.1

> <Gold.Id.Protein>
6NUR|6NUR_protein|mol2

> <Gold.PLP.Fitness>
48.5942

> <Gold.PLP.PLP>
-38.0619

> <Gold.PLP.part.hbond>
-4.2042

> <Gold.PLP.part.metal>
0.0000

> <Gold.PLP.part.buried>
-2.6318

> <Gold.PLP.part.nonpolar>
-30.0910

> <Gold.PLP.part.repulsive>
0.4485

> <Gold.PLP.ligand.clash>
0.0000

> <Gold.PLP.ligand.torsion>
1.3693

> <Gold.PLP.Chemscore.Hbond>
4.1520

> <Gold.PLP.Chemscore.CHOScore>
0.1324

> <Gold.PLP.Chemscore.Metal>
0.0000

> <Gold.Chemscore.Hbonds>
donor molecule, donor type, donor heavy atom, donor atom, acceptor molecule, acceptor atom, score
      L1  H    10    31       P1  7949  0.88
      L1  H    12    47       P1  7948  2.00
      P1  H  7989  7998       L1     5  0.09
      P1  H 10752 10764       L1    10  1.00
      L1  C     6    27       P1  7957  0.04

> <Gold.PLP.Chemscore.Internal.Correction>
0.4178

> <Gold.Rescore>
     Score         DG    S(hbond)    S(metal)    S(lipo)     H(rot)  DE(clash)    DE(int)     intcor
     15.02     -16.67       2.02        0.00      94.87       2.60       0.01       1.63       ----

> <Gold.Chemscore.Fitness>
15.0246

> <Gold.Chemscore.DG>
-16.6716

> <Gold.Chemscore.ZeroCoef>
-5.4800

> <Gold.Chemscore.Hbond>
2.0229

> <Gold.Chemscore.Metal>
0.0000

> <Gold.Chemscore.Lipo>
94.8657

> <Gold.Chemscore.Internal_Hbond>
0.0000

> <Gold.Chemscore.DEClash>
0.0148

> <Gold.Chemscore.DEInternal>
1.6323

> <Gold.Chemscore.Rot>
2.6031

> <Gold.Chemscore.Internal.Correction>
   9.000000E+99

> <Gold.Chemscore.Hbonds>
donor molecule, donor type, donor heavy atom, donor atom, acceptor molecule, acceptor atom, score
      L1  H    10    31       P1  7949  0.30
      L1  H    12    47       P1  7948  0.50
      P1  H 10752 10764       L1    10  0.77

> <Gold.Chemscore.Hbond.Weighted>
-6.7563

> <Gold.Chemscore.Metal.Weighted>
-0.0000

> <Gold.Chemscore.Lipo.Weighted>
-11.0993

> <Gold.Chemscore.Internal_Hbond.Weighted>
0.0000

> <Gold.Chemscore.DEClash.Weighted>
0.0148

> <Gold.Chemscore.DEInternal.Weighted>
1.6323

> <Gold.Chemscore.Rot.Weighted>
6.6640

> <Gold.Chemscore.Internal.Correction.Weighted>
   9.000000E+99

> <Gold.Protein.RotatedTorsions>
[ 6907 6896 6895 6894 ] final   33.78 input  -60.11 | X-H torsion
[ 7974 7965 7964 7962 ] final  169.72 input  175.53 | X-H torsion
[ 8008 7997 7996 7995 ] final -120.36 input   59.86 | X-H torsion
[ 10167 10162 10161 10158 ] final  -69.70 input  -65.29 | X-H torsion
[ 10718 10713 10712 10709 ] final    8.10 input   66.30 | X-H torsion
[ 10763 10752 10751 10750 ] final  -92.09 input  -60.55 | X-H torsion
[ 11005 11000 10999 10996 ] final -144.98 input  -57.11 | X-H torsion

> <Gold.Protein.ActiveResidues>
 VAL166  LYS551  ARG553  GLY616  TRP617  ASP618  TYR619  PRO620  LYS621  CYS622 
 ASP623  PHE694  ASN695  SER759  ASP760  ASP761  ALA762  ILE779  LEU786  VAL792 
 PHE793  MET794  SER795  GLU796  ALA797  LYS798  CYS799  TRP800  GLU811  SER814 

> <Gold.Protein.RotatedAtoms>
  152.0933  134.9392  160.0571 H   0  0  0  0  0  0  0  0  0  0  0  0  # atno 6907 bound_to 6896
  152.0635  133.4068  159.4436 H   0  0  0  0  0  0  0  0  0  0  0  0  # atno 6908 bound_to 6896
  150.6837  134.3093  159.4783 H   0  0  0  0  0  0  0  0  0  0  0  0  # atno 6909 bound_to 6896
  144.7346  139.9096  143.6414 H   0  0  0  0  0  0  0  0  0  0  0  0  # atno 7974 bound_to 7965
  155.1305  140.0400  157.2773 H   0  0  0  0  0  0  0  0  0  0  0  0  # atno 8008 bound_to 7997
  154.6546  140.2577  155.7150 H   0  0  0  0  0  0  0  0  0  0  0  0  # atno 8009 bound_to 7997
  156.2592  140.2829  156.0994 H   0  0  0  0  0  0  0  0  0  0  0  0  # atno 8010 bound_to 7997
  140.5410  143.2315  151.7089 H   0  0  0  0  0  0  0  0  0  0  0  0  # atno 10167 bound_to 10162
  156.9467  130.5881  149.5655 H   0  0  0  0  0  0  0  0  0  0  0  0  # atno 10718 bound_to 10713
  154.6826  135.5244  153.8284 H   0  0  0  0  0  0  0  0  0  0  0  0  # atno 10763 bound_to 10752
  153.0575  135.6556  154.0551 H   0  0  0  0  0  0  0  0  0  0  0  0  # atno 10764 bound_to 10752
  154.0436  135.2975  155.3331 H   0  0  0  0  0  0  0  0  0  0  0  0  # atno 10765 bound_to 10752
  140.7969  134.2903  157.4993 H   0  0  0  0  0  0  0  0  0  0  0  0  # atno 11005 bound_to 11000
  146.1011  139.4006  143.0346 LP  0  0  0  0  0  0  0  0  0  0  0  0  # atno 17320 bound_to 7965
  145.7577  140.9947  143.1216 LP  0  0  0  0  0  0  0  0  0  0  0  0  # atno 17321 bound_to 7965
  139.4989  144.3968  152.0222 LP  0  0  0  0  0  0  0  0  0  0  0  0  # atno 17342 bound_to 10162
  140.3077  144.3573  150.6042 LP  0  0  0  0  0  0  0  0  0  0  0  0  # atno 17343 bound_to 10162
  156.0380  130.5466  150.8702 LP  0  0  0  0  0  0  0  0  0  0  0  0  # atno 17370 bound_to 10713
  157.5749  131.0946  150.9361 LP  0  0  0  0  0  0  0  0  0  0  0  0  # atno 17371 bound_to 10713
  139.8725  134.9407  156.3776 LP  0  0  0  0  0  0  0  0  0  0  0  0  # atno 17394 bound_to 11000
  140.9334  133.7564  156.0053 LP  0  0  0  0  0  0  0  0  0  0  0  0  # atno 17395 bound_to 11000

$$$$
