AV-unprocessed.smi:1843|AV-procd|sdf|7505|dock3
  -GOLD-   22720 9213D 1   1.00000     0.00000
 Structure written by MMmdl.
 36 38  0  0  0  0  0  0  0  0  2 V2000
  149.0545  136.8668  159.8304 O   0  0  0  0  0  0  0  0  0  0  0  0
  148.8124  135.7246  159.4337 C   0  0  0  0  0  0  0  0  0  0  0  0
  149.4048  135.0950  158.3940 N   0  5  0  0  0  0  0  0  0  0  0  0
  150.0362  135.8092  157.4477 C   0  0  0  0  0  0  0  0  0  0  0  0
  150.8381  135.2443  156.5340 N   0  0  0  0  0  0  0  0  0  0  0  0
  151.3924  136.1626  155.6539 N   0  0  0  0  0  0  0  0  0  0  0  0
  151.0064  137.4125  155.9210 C   0  0  0  0  0  0  0  0  0  0  0  0
  151.4654  138.5813  155.1150 C   0  0  0  0  0  0  0  0  0  0  0  0
  152.9205  138.7631  154.7410 C   0  0  0  0  0  0  0  0  0  0  0  0
  152.2815  139.6848  155.7483 C   0  0  0  0  0  0  0  0  0  0  0  0
  149.9235  137.5622  157.2956 S   0  0  0  0  0  0  0  0  0  0  0  0
  147.8882  134.9803  160.0578 N   0  0  0  0  0  0  0  0  0  0  0  0
  147.1039  135.3772  161.2263 C   0  0  1  0  0  0  0  0  0  0  0  0
  146.4371  136.7450  160.9825 C   0  0  0  0  0  0  0  0  0  0  0  0
  145.6076  137.1861  162.1993 C   0  0  0  0  0  0  0  0  0  0  0  0
  144.5591  136.1268  162.5738 C   0  0  0  0  0  0  0  0  0  0  0  0
  145.2093  134.7518  162.8130 C   0  0  0  0  0  0  0  0  0  0  0  0
  146.0658  134.2953  161.6159 C   0  0  1  0  0  0  0  0  0  0  0  0
  145.2145  133.9966  160.5245 O   0  0  0  0  0  0  0  0  0  0  0  0
  150.7125  138.8609  154.3806 H   0  0  0  0  0  0  0  0  0  0  0  0
  153.6438  138.0420  155.1165 H   0  0  0  0  0  0  0  0  0  0  0  0
  153.1366  139.1683  153.7548 H   0  0  0  0  0  0  0  0  0  0  0  0
  152.0727  140.7057  155.4354 H   0  0  0  0  0  0  0  0  0  0  0  0
  152.5693  139.5656  156.7911 H   0  0  0  0  0  0  0  0  0  0  0  0
  147.7220  134.0532  159.6945 H   0  0  0  0  0  0  0  0  0  0  0  0
  147.7935  135.5013  162.0636 H   0  0  0  0  0  0  0  0  0  0  0  0
  147.1977  137.4965  160.7676 H   0  0  0  0  0  0  0  0  0  0  0  0
  145.7950  136.6972  160.1017 H   0  0  0  0  0  0  0  0  0  0  0  0
  146.2692  137.3612  163.0485 H   0  0  0  0  0  0  0  0  0  0  0  0
  145.1169  138.1367  161.9884 H   0  0  0  0  0  0  0  0  0  0  0  0
  144.0172  136.4398  163.4665 H   0  0  0  0  0  0  0  0  0  0  0  0
  143.8181  136.0500  161.7770 H   0  0  0  0  0  0  0  0  0  0  0  0
  145.8416  134.8088  163.7001 H   0  0  0  0  0  0  0  0  0  0  0  0
  144.4427  134.0084  163.0346 H   0  0  0  0  0  0  0  0  0  0  0  0
  146.5802  133.3721  161.8853 H   0  0  0  0  0  0  0  0  0  0  0  0
  144.3930  134.4439  160.6622 H   0  0  0  0  0  0  0  0  0  0  0  0
  1  2  2  0  0  0  0
  2  3  1  0  0  0  0
  2 12  1  0  0  0  0
  3  4  1  0  0  0  0
  4 11  1  0  0  0  0
  4  5  2  0  0  0  0
  5  6  1  0  0  0  0
  6  7  2  0  0  0  0
  7  8  1  0  0  0  0
  7 11  1  0  0  0  0
  8 10  1  0  0  0  0
  8  9  1  0  0  0  0
  8 20  1  0  0  0  0
  9 10  1  0  0  0  0
  9 21  1  0  0  0  0
  9 22  1  0  0  0  0
 10 23  1  0  0  0  0
 10 24  1  0  0  0  0
 12 13  1  0  0  0  0
 12 25  1  0  0  0  0
 13 18  1  0  0  0  0
 13 14  1  0  0  0  0
 13 26  1  0  0  0  0
 14 15  1  0  0  0  0
 14 27  1  0  0  0  0
 14 28  1  0  0  0  0
 15 16  1  0  0  0  0
 15 29  1  0  0  0  0
 15 30  1  0  0  0  0
 16 17  1  0  0  0  0
 16 31  1  0  0  0  0
 16 32  1  0  0  0  0
 17 18  1  0  0  0  0
 17 33  1  0  0  0  0
 17 34  1  0  0  0  0
 18 19  1  0  0  0  0
 18 35  1  0  0  0  0
 19 36  1  0  0  0  0
M  CHG  1   3  -1
M  END
> <s_m_source_file>
AV-unprocessed.smi

> <i_m_source_file_index>
1843

> <i_lp_mmshare_version>
43012

> <i_f3d_flags>
0

> <s_epik_input>
W09IXVtDQEBIXTFbQ0gyXVtDSDJdW0NIMl1bQ0gyXVtDQEhdMVtOSF1DKD1PKVtOSF1jMm5uYyhzMilbQ0hdM1tDSDJdW0NIMl0z

> <s_epik_cmdline>
J2VwaWtfcHl0aG9uJywgJy1waCcsICc3LjAnLCAnLXRuJywgJzgnLCAnLW1hJywgJzIwMCcsICctbWV0YWxfYmluZGluZycsICctaW1hZScsICc8aW5maWxlLm1hZT4nLCAnLW9tYWUnLCAnPG91dGZpbGUubWFlPic=

> <r_lp_tautomer_probability>
1

> <r_epik_Ionization_Penalty>
4.7996

> <r_epik_Ionization_Penalty_Charging>
4.64516

> <r_epik_Ionization_Penalty_Neutral>
0.154442

> <r_epik_State_Penalty>
4.64493

> <r_epik_Charging_Adjusted_Penalty>
9.29009

> <i_epik_Tot_Q>
-1

> <i_epik_Tot_abs_Q>
1

> <r_epik_Metal_State_Penalty>
0.896144

> <b_epik_Metal_Only>
1

> <s_lp_Force_Field>
OPLS_2005

> <r_lp_Energy>
9.18757

> <b_lp_Chiralities_Consistent>
1

> <s_lp_Variant>
AV-unprocessed.smi:1843-6

> <Gold.Version>
5.8.1

> <Gold.Id.Protein>
6NUR|6NUR_protein|mol2

> <Gold.PLP.Fitness>
36.1408

> <Gold.PLP.PLP>
-27.2976

> <Gold.PLP.part.hbond>
-3.0000

> <Gold.PLP.part.metal>
0.0000

> <Gold.PLP.part.buried>
-3.2945

> <Gold.PLP.part.nonpolar>
-20.5221

> <Gold.PLP.part.repulsive>
0.1352

> <Gold.PLP.ligand.clash>
0.0000

> <Gold.PLP.ligand.torsion>
0.3248

> <Gold.PLP.Chemscore.Hbond>
3.1092

> <Gold.PLP.Chemscore.CHOScore>
0.0000

> <Gold.PLP.Chemscore.Metal>
0.0000

> <Gold.Chemscore.Hbonds>
donor molecule, donor type, donor heavy atom, donor atom, acceptor molecule, acceptor atom, score
      P1  H  6896  6909       L1     3  1.40
      P1  H 10752 10763       L1     6  1.00

> <Gold.PLP.Chemscore.Internal.Correction>
0.1652

> <Gold.Rescore>
     Score         DG    S(hbond)    S(metal)    S(lipo)     H(rot)  DE(clash)    DE(int)     intcor
     11.89     -15.18       1.85        0.00      67.66       1.72       0.27       3.02       ----

> <Gold.Chemscore.Fitness>
11.8936

> <Gold.Chemscore.DG>
-15.1800

> <Gold.Chemscore.ZeroCoef>
-5.4800

> <Gold.Chemscore.Hbond>
1.8493

> <Gold.Chemscore.Metal>
0.0000

> <Gold.Chemscore.Lipo>
67.6602

> <Gold.Chemscore.Internal_Hbond>
0.0000

> <Gold.Chemscore.DEClash>
0.2676

> <Gold.Chemscore.DEInternal>
3.0189

> <Gold.Chemscore.Rot>
1.7160

> <Gold.Chemscore.Internal.Correction>
   9.000000E+99

> <Gold.Chemscore.Hbonds>
donor molecule, donor type, donor heavy atom, donor atom, acceptor molecule, acceptor atom, score
      P1  H  6896  6909       L1     3  0.05
      P1  H  6931  6943       L1     1  0.02
      P1  H 10752 10763       L1     6  0.82

> <Gold.Chemscore.Hbond.Weighted>
-6.1768

> <Gold.Chemscore.Metal.Weighted>
-0.0000

> <Gold.Chemscore.Lipo.Weighted>
-7.9162

> <Gold.Chemscore.Internal_Hbond.Weighted>
0.0000

> <Gold.Chemscore.DEClash.Weighted>
0.2676

> <Gold.Chemscore.DEInternal.Weighted>
3.0189

> <Gold.Chemscore.Rot.Weighted>
4.3930

> <Gold.Chemscore.Internal.Correction.Weighted>
   9.000000E+99

> <Gold.Protein.RotatedTorsions>
[ 6907 6896 6895 6894 ] final   31.21 input  -60.11 | X-H torsion
[ 7974 7965 7964 7962 ] final  167.81 input  175.53 | X-H torsion
[ 8008 7997 7996 7995 ] final  -22.39 input   59.86 | X-H torsion
[ 10167 10162 10161 10158 ] final   13.85 input  -65.29 | X-H torsion
[ 10718 10713 10712 10709 ] final -107.93 input   66.30 | X-H torsion
[ 10763 10752 10751 10750 ] final   76.07 input  -60.55 | X-H torsion
[ 11005 11000 10999 10996 ] final  -11.93 input  -57.11 | X-H torsion

> <Gold.Protein.ActiveResidues>
 VAL166  LYS551  ARG553  GLY616  TRP617  ASP618  TYR619  PRO620  LYS621  CYS622 
 ASP623  PHE694  ASN695  SER759  ASP760  ASP761  ALA762  ILE779  LEU786  VAL792 
 PHE793  MET794  SER795  GLU796  ALA797  LYS798  CYS799  TRP800  GLU811  SER814 

> <Gold.Protein.RotatedAtoms>
  152.0571  134.9617  160.0574 H   0  0  0  0  0  0  0  0  0  0  0  0  # atno 6907 bound_to 6896
  152.0996  133.4238  159.4589 H   0  0  0  0  0  0  0  0  0  0  0  0  # atno 6908 bound_to 6896
  150.6839  134.2696  159.4626 H   0  0  0  0  0  0  0  0  0  0  0  0  # atno 6909 bound_to 6896
  144.7411  139.8816  143.6396 H   0  0  0  0  0  0  0  0  0  0  0  0  # atno 7974 bound_to 7965
  154.4647  140.2009  156.0150 H   0  0  0  0  0  0  0  0  0  0  0  0  # atno 8008 bound_to 7997
  156.0905  140.3258  155.7781 H   0  0  0  0  0  0  0  0  0  0  0  0  # atno 8009 bound_to 7997
  155.4964  140.0550  157.2936 H   0  0  0  0  0  0  0  0  0  0  0  0  # atno 8010 bound_to 7997
  140.5975  143.8672  150.6932 H   0  0  0  0  0  0  0  0  0  0  0  0  # atno 10167 bound_to 10162
  156.0461  130.5687  150.7891 H   0  0  0  0  0  0  0  0  0  0  0  0  # atno 10718 bound_to 10713
  153.0699  135.4965  154.8282 H   0  0  0  0  0  0  0  0  0  0  0  0  # atno 10763 bound_to 10752
  154.7008  135.3001  154.9347 H   0  0  0  0  0  0  0  0  0  0  0  0  # atno 10764 bound_to 10752
  154.0071  135.6759  153.4815 H   0  0  0  0  0  0  0  0  0  0  0  0  # atno 10765 bound_to 10752
  140.7604  133.8519  155.9120 H   0  0  0  0  0  0  0  0  0  0  0  0  # atno 11005 bound_to 11000
  146.1207  139.4225  143.0230 LP  0  0  0  0  0  0  0  0  0  0  0  0  # atno 17320 bound_to 7965
  145.7309  141.0043  143.1352 LP  0  0  0  0  0  0  0  0  0  0  0  0  # atno 17321 bound_to 7965
  140.2210  143.3809  152.1643 LP  0  0  0  0  0  0  0  0  0  0  0  0  # atno 17342 bound_to 10162
  139.5268  144.7112  151.5200 LP  0  0  0  0  0  0  0  0  0  0  0  0  # atno 17343 bound_to 10162
  157.5337  131.0938  150.9921 LP  0  0  0  0  0  0  0  0  0  0  0  0  # atno 17370 bound_to 10713
  157.0221  130.5678  149.5332 LP  0  0  0  0  0  0  0  0  0  0  0  0  # atno 17371 bound_to 10713
  140.9668  134.1583  157.4609 LP  0  0  0  0  0  0  0  0  0  0  0  0  # atno 17394 bound_to 11000
  139.8772  134.9964  156.5795 LP  0  0  0  0  0  0  0  0  0  0  0  0  # atno 17395 bound_to 11000

$$$$
