AV-unprocessed.smi:2825|AV-procd|sdf|10888|dock2
  -GOLD-   2272015333D 1   1.00000     0.00000
 Structure written by MMmdl.
 48 49  0  0  0  0  0  0  0  0  1 V2000
  146.8802  135.1849  162.3368 C   0  0  0  0  0  0  0  0  0  0  0  0
  147.4784  134.4132  161.1563 C   0  0  0  0  0  0  0  0  0  0  0  0
  147.1032  135.0242  159.7985 C   0  0  0  0  0  0  0  0  0  0  0  0
  147.5768  136.8087  159.6921 S   0  0  0  0  0  0  0  0  0  0  0  0
  146.3538  137.5830  159.4304 O   0  0  0  0  0  0  0  0  0  0  0  0
  148.4363  137.1555  160.8349 O   0  0  0  0  0  0  0  0  0  0  0  0
  148.5468  136.8882  158.2539 N   0  0  0  0  0  0  0  0  0  0  0  0
  148.6581  135.6982  157.4013 C   0  0  0  0  0  0  0  0  0  0  0  0
  149.5704  137.9399  158.0876 C   0  0  0  0  0  0  0  0  0  0  0  0
  151.0170  137.4577  158.3342 C   0  0  2  0  0  0  0  0  0  0  0  0
  151.1755  137.3345  159.7341 O   0  0  0  0  0  0  0  0  0  0  0  0
  152.0995  138.4204  157.7962 C   0  0  0  0  0  0  0  0  0  0  0  0
  151.5537  139.6861  157.3359 N   0  0  0  0  0  0  0  0  0  0  0  0
  150.8892  139.9166  156.1866 C   0  0  0  0  0  0  0  0  0  0  0  0
  150.4631  141.1568  155.9669 N   0  0  0  0  0  0  0  0  0  0  0  0
  150.9141  141.8110  157.1002 C   0  0  0  0  0  0  0  0  0  0  0  0
  150.7891  143.1629  157.4886 C   0  0  0  0  0  0  0  0  0  0  0  0
  151.3391  143.6212  158.7069 C   0  0  0  0  0  0  0  0  0  0  0  0
  151.1782  145.0826  159.0869 C   0  0  0  0  0  0  0  0  0  0  0  0
  152.0312  142.7213  159.5561 C   0  0  0  0  0  0  0  0  0  0  0  0
  152.6309  143.1888  160.8706 C   0  0  0  0  0  0  0  0  0  0  0  0
  152.1670  141.3684  159.1819 C   0  0  0  0  0  0  0  0  0  0  0  0
  151.6075  140.9216  157.9722 C   0  0  0  0  0  0  0  0  0  0  0  0
  147.1904  134.7448  163.2847 H   0  0  0  0  0  0  0  0  0  0  0  0
  145.7915  135.1682  162.3063 H   0  0  0  0  0  0  0  0  0  0  0  0
  147.2018  136.2267  162.3321 H   0  0  0  0  0  0  0  0  0  0  0  0
  148.5642  134.3919  161.2558 H   0  0  0  0  0  0  0  0  0  0  0  0
  147.1433  133.3767  161.2018 H   0  0  0  0  0  0  0  0  0  0  0  0
  147.5824  134.4871  158.9834 H   0  0  0  0  0  0  0  0  0  0  0  0
  146.0278  134.9560  159.6331 H   0  0  0  0  0  0  0  0  0  0  0  0
  149.1013  134.8719  157.9563 H   0  0  0  0  0  0  0  0  0  0  0  0
  149.2663  135.8958  156.5183 H   0  0  0  0  0  0  0  0  0  0  0  0
  147.6686  135.3881  157.0655 H   0  0  0  0  0  0  0  0  0  0  0  0
  149.4832  138.3841  157.0952 H   0  0  0  0  0  0  0  0  0  0  0  0
  149.3340  138.7463  158.7828 H   0  0  0  0  0  0  0  0  0  0  0  0
  151.1584  136.4624  157.9170 H   0  0  0  0  0  0  0  0  0  0  0  0
  151.7756  138.0031  160.0272 H   0  0  0  0  0  0  0  0  0  0  0  0
  152.8363  138.6402  158.5664 H   0  0  0  0  0  0  0  0  0  0  0  0
  152.6430  137.9594  156.9702 H   0  0  0  0  0  0  0  0  0  0  0  0
  150.6995  139.1259  155.4751 H   0  0  0  0  0  0  0  0  0  0  0  0
  150.2647  143.8486  156.8393 H   0  0  0  0  0  0  0  0  0  0  0  0
  152.1525  145.5534  159.2179 H   0  0  0  0  0  0  0  0  0  0  0  0
  150.6200  145.1758  160.0187 H   0  0  0  0  0  0  0  0  0  0  0  0
  150.6402  145.6374  158.3178 H   0  0  0  0  0  0  0  0  0  0  0  0
  153.1069  142.3663  161.4055 H   0  0  0  0  0  0  0  0  0  0  0  0
  151.8573  143.6031  161.5174 H   0  0  0  0  0  0  0  0  0  0  0  0
  153.3855  143.9558  160.6952 H   0  0  0  0  0  0  0  0  0  0  0  0
  152.6970  140.6770  159.8182 H   0  0  0  0  0  0  0  0  0  0  0  0
  1  2  1  0  0  0  0
  1 24  1  0  0  0  0
  1 25  1  0  0  0  0
  1 26  1  0  0  0  0
  2  3  1  0  0  0  0
  2 27  1  0  0  0  0
  2 28  1  0  0  0  0
  3  4  1  0  0  0  0
  3 29  1  0  0  0  0
  3 30  1  0  0  0  0
  4  5  2  0  0  0  0
  4  6  2  0  0  0  0
  4  7  1  0  0  0  0
  7  8  1  0  0  0  0
  7  9  1  0  0  0  0
  8 31  1  0  0  0  0
  8 32  1  0  0  0  0
  8 33  1  0  0  0  0
  9 10  1  0  0  0  0
  9 34  1  0  0  0  0
  9 35  1  0  0  0  0
 10 11  1  0  0  0  0
 10 12  1  0  0  0  0
 10 36  1  0  0  0  0
 11 37  1  0  0  0  0
 12 13  1  0  0  0  0
 12 38  1  0  0  0  0
 12 39  1  0  0  0  0
 13 23  1  0  0  0  0
 13 14  1  0  0  0  0
 14 15  2  0  0  0  0
 14 40  1  0  0  0  0
 15 16  1  0  0  0  0
 16 23  2  0  0  0  0
 16 17  1  0  0  0  0
 17 18  2  0  0  0  0
 17 41  1  0  0  0  0
 18 19  1  0  0  0  0
 18 20  1  0  0  0  0
 19 42  1  0  0  0  0
 19 43  1  0  0  0  0
 19 44  1  0  0  0  0
 20 21  1  0  0  0  0
 20 22  2  0  0  0  0
 21 45  1  0  0  0  0
 21 46  1  0  0  0  0
 21 47  1  0  0  0  0
 22 23  1  0  0  0  0
 22 48  1  0  0  0  0
M  END
> <s_m_source_file>
AV-unprocessed.smi

> <i_m_source_file_index>
2825

> <i_lp_mmshare_version>
43012

> <i_f3d_flags>
0

> <s_epik_input>
W0NIM11bQ0gyXVtDSDJdUyg9TykoPU8pTihbQ0gzXSlbQ0gyXVtDQEhdKFtPSF0pW0NIMl1uKFtjSF1uMSljKGMxMilbY0hdYyhbQ0gzXSljKFtjSF0yKVtDSDNd

> <s_epik_cmdline>
J2VwaWtfcHl0aG9uJywgJy1waCcsICc3LjAnLCAnLXRuJywgJzgnLCAnLW1hJywgJzIwMCcsICctbWV0YWxfYmluZGluZycsICctaW1hZScsICc8aW5maWxlLm1hZT4nLCAnLW9tYWUnLCAnPG91dGZpbGUubWFlPic=

> <r_epik_Ionization_Penalty>
0.104931

> <r_epik_Ionization_Penalty_Charging>
0

> <r_epik_Ionization_Penalty_Neutral>
0.104931

> <r_epik_State_Penalty>
0.0948201

> <r_epik_Charging_Adjusted_Penalty>
0.0948201

> <i_epik_Tot_Q>
0

> <i_epik_Tot_abs_Q>
0

> <r_epik_Metal_State_Penalty>
0.00010282

> <b_epik_Metal_Only>
0

> <s_lp_Force_Field>
OPLS_2005

> <r_lp_Energy>
0.666552

> <b_lp_Chiralities_Consistent>
1

> <s_lp_Variant>
AV-unprocessed.smi:2825-1

> <Gold.Version>
5.8.1

> <Gold.Id.Protein>
6NUR|6NUR_protein|mol2

> <Gold.PLP.Fitness>
51.1637

> <Gold.PLP.PLP>
-44.5543

> <Gold.PLP.part.hbond>
-2.9898

> <Gold.PLP.part.metal>
0.0000

> <Gold.PLP.part.buried>
-7.2457

> <Gold.PLP.part.nonpolar>
-34.9828

> <Gold.PLP.part.repulsive>
0.0669

> <Gold.PLP.ligand.clash>
0.0000

> <Gold.PLP.ligand.torsion>
2.4347

> <Gold.PLP.Chemscore.Hbond>
3.0000

> <Gold.PLP.Chemscore.CHOScore>
0.0000

> <Gold.PLP.Chemscore.Metal>
0.0000

> <Gold.Chemscore.Hbonds>
donor molecule, donor type, donor heavy atom, donor atom, acceptor molecule, acceptor atom, score
      P1  H  6896  6909       L1    11  0.57
      P1  H  6931  6943       L1     6  0.90
      P1  H  6934  6947       L1     5  0.15

> <Gold.PLP.Chemscore.Internal.Correction>
2.4788

> <Gold.Rescore>
     Score         DG    S(hbond)    S(metal)    S(lipo)     H(rot)  DE(clash)    DE(int)     intcor
     15.98     -19.73       2.46        0.00     104.82       2.43       0.00       3.76       ----

> <Gold.Chemscore.Fitness>
15.9771

> <Gold.Chemscore.DG>
-19.7345

> <Gold.Chemscore.ZeroCoef>
-5.4800

> <Gold.Chemscore.Hbond>
2.4609

> <Gold.Chemscore.Metal>
0.0000

> <Gold.Chemscore.Lipo>
104.8219

> <Gold.Chemscore.Internal_Hbond>
0.0000

> <Gold.Chemscore.DEClash>
0.0000

> <Gold.Chemscore.DEInternal>
3.7574

> <Gold.Chemscore.Rot>
2.4332

> <Gold.Chemscore.Internal.Correction>
   9.000000E+99

> <Gold.Chemscore.Hbonds>
donor molecule, donor type, donor heavy atom, donor atom, acceptor molecule, acceptor atom, score
      P1  H  6896  6909       L1    11  0.14
      P1  H  6931  6943       L1     6  0.88

> <Gold.Chemscore.Hbond.Weighted>
-8.2193

> <Gold.Chemscore.Metal.Weighted>
-0.0000

> <Gold.Chemscore.Lipo.Weighted>
-12.2642

> <Gold.Chemscore.Internal_Hbond.Weighted>
0.0000

> <Gold.Chemscore.DEClash.Weighted>
0.0000

> <Gold.Chemscore.DEInternal.Weighted>
3.7574

> <Gold.Chemscore.Rot.Weighted>
6.2289

> <Gold.Chemscore.Internal.Correction.Weighted>
   9.000000E+99

> <Gold.Protein.RotatedTorsions>
[ 6907 6896 6895 6894 ] final  101.80 input  -60.11 | X-H torsion
[ 7974 7965 7964 7962 ] final  -11.23 input  175.53 | X-H torsion
[ 8008 7997 7996 7995 ] final  -48.36 input   59.86 | X-H torsion
[ 10167 10162 10161 10158 ] final    0.94 input  -65.29 | X-H torsion
[ 10718 10713 10712 10709 ] final -139.55 input   66.30 | X-H torsion
[ 10763 10752 10751 10750 ] final  173.56 input  -60.55 | X-H torsion
[ 11005 11000 10999 10996 ] final  -92.04 input  -57.11 | X-H torsion

> <Gold.Protein.ActiveResidues>
 VAL166  LYS551  ARG553  GLY616  TRP617  ASP618  TYR619  PRO620  LYS621  CYS622 
 ASP623  PHE694  ASN695  SER759  ASP760  ASP761  ALA762  ILE779  LEU786  VAL792 
 PHE793  MET794  SER795  GLU796  ALA797  LYS798  CYS799  TRP800  GLU811  SER814 

> <Gold.Protein.RotatedAtoms>
  152.5340  134.0071  159.7921 H   0  0  0  0  0  0  0  0  0  0  0  0  # atno 6907 bound_to 6896
  151.0280  133.5808  159.2671 H   0  0  0  0  0  0  0  0  0  0  0  0  # atno 6908 bound_to 6896
  151.2824  135.0725  159.9228 H   0  0  0  0  0  0  0  0  0  0  0  0  # atno 6909 bound_to 6896
  146.2194  140.2880  142.8366 H   0  0  0  0  0  0  0  0  0  0  0  0  # atno 7974 bound_to 7965
  154.4028  140.1323  156.4326 H   0  0  0  0  0  0  0  0  0  0  0  0  # atno 8008 bound_to 7997
  155.7537  140.3487  155.5143 H   0  0  0  0  0  0  0  0  0  0  0  0  # atno 8009 bound_to 7997
  155.8925  140.1005  157.1398 H   0  0  0  0  0  0  0  0  0  0  0  0  # atno 8010 bound_to 7997
  140.6706  143.7059  150.7915 H   0  0  0  0  0  0  0  0  0  0  0  0  # atno 10167 bound_to 10162
  156.3120  130.7487  151.1565 H   0  0  0  0  0  0  0  0  0  0  0  0  # atno 10718 bound_to 10713
  154.4418  135.2762  155.1842 H   0  0  0  0  0  0  0  0  0  0  0  0  # atno 10763 bound_to 10752
  154.3706  135.6109  153.5741 H   0  0  0  0  0  0  0  0  0  0  0  0  # atno 10764 bound_to 10752
  152.9841  135.5856  154.4747 H   0  0  0  0  0  0  0  0  0  0  0  0  # atno 10765 bound_to 10752
  141.1531  133.7794  156.9963 H   0  0  0  0  0  0  0  0  0  0  0  0  # atno 11005 bound_to 11000
  144.9148  140.7799  143.5785 LP  0  0  0  0  0  0  0  0  0  0  0  0  # atno 17320 bound_to 7965
  145.2813  139.1917  143.4789 LP  0  0  0  0  0  0  0  0  0  0  0  0  # atno 17321 bound_to 7965
  140.0744  143.5029  152.2563 LP  0  0  0  0  0  0  0  0  0  0  0  0  # atno 17342 bound_to 10162
  139.5972  144.7571  151.3257 LP  0  0  0  0  0  0  0  0  0  0  0  0  # atno 17343 bound_to 10162
  157.7393  131.0531  150.5240 LP  0  0  0  0  0  0  0  0  0  0  0  0  # atno 17370 bound_to 10713
  156.5381  130.4201  149.6168 LP  0  0  0  0  0  0  0  0  0  0  0  0  # atno 17371 bound_to 10713
  140.0969  134.9559  157.1863 LP  0  0  0  0  0  0  0  0  0  0  0  0  # atno 17394 bound_to 11000
  140.3370  134.2746  155.7218 LP  0  0  0  0  0  0  0  0  0  0  0  0  # atno 17395 bound_to 11000

$$$$
