AV-unprocessed.smi:99|AV-procd|sdf|875|dock7
  -GOLD-   2262017343D 1   1.00000     0.00000
 Structure written by MMmdl.
 53 56  0  0  0  0  0  0  0  0  1 V2000
  147.6445  137.3803  161.3522 O   0  0  0  0  0  0  0  0  0  0  0  0
  147.8106  136.3897  160.6381 C   0  0  0  0  0  0  0  0  0  0  0  0
  148.2870  136.4431  159.3817 O   0  0  0  0  0  0  0  0  0  0  0  0
  148.3885  137.6789  158.6890 C   0  0  0  0  0  0  0  0  0  0  0  0
  149.1616  137.4693  157.3765 C   0  0  2  0  0  0  0  0  0  0  0  0
  150.2924  136.6349  157.5862 O   0  0  0  0  0  0  0  0  0  0  0  0
  151.3565  137.0171  156.7693 C   0  0  2  0  0  0  0  0  0  0  0  0
  152.5493  137.2538  157.6854 N   0  0  0  0  0  0  0  0  0  0  0  0
  152.4746  137.9551  158.8861 C   0  0  0  0  0  0  0  0  0  0  0  0
  153.5095  138.0673  159.7515 C   0  0  0  0  0  0  0  0  0  0  0  0
  154.7850  137.4215  159.4694 C   0  0  0  0  0  0  0  0  0  0  0  0
  155.7788  137.4674  160.1910 O   0  0  0  0  0  0  0  0  0  0  0  0
  154.8128  136.6988  158.2755 N   0  0  0  0  0  0  0  0  0  0  0  0
  153.7495  136.5686  157.3812 C   0  0  0  0  0  0  0  0  0  0  0  0
  153.8831  135.8702  156.3768 O   0  0  0  0  0  0  0  0  0  0  0  0
  150.9092  138.2362  155.9301 C   0  0  1  0  0  0  0  0  0  0  0  0
  150.5890  137.8717  154.6024 O   0  0  0  0  0  0  0  0  0  0  0  0
  149.6527  138.7259  156.6443 C   0  0  2  0  0  0  0  0  0  0  0  0
  149.9613  139.7855  157.5429 O   0  0  0  0  0  0  0  0  0  0  0  0
  150.0710  141.0610  157.1131 C   0  0  0  0  0  0  0  0  0  0  0  0
  149.5981  141.4708  156.0516 O   0  0  0  0  0  0  0  0  0  0  0  0
  150.8230  141.9250  158.0666 C   0  0  0  0  0  0  0  0  0  0  0  0
  150.6710  143.3294  158.0031 C   0  0  0  0  0  0  0  0  0  0  0  0
  151.3667  144.1661  158.8978 C   0  0  0  0  0  0  0  0  0  0  0  0
  152.2255  143.6089  159.8634 C   0  0  0  0  0  0  0  0  0  0  0  0
  152.3913  142.2135  159.9309 C   0  0  0  0  0  0  0  0  0  0  0  0
  151.6962  141.3768  159.0372 C   0  0  0  0  0  0  0  0  0  0  0  0
  147.5294  134.9943  161.0811 C   0  0  0  0  0  0  0  0  0  0  0  0
  147.8300  133.9171  160.2161 C   0  0  0  0  0  0  0  0  0  0  0  0
  147.5515  132.5910  160.6004 C   0  0  0  0  0  0  0  0  0  0  0  0
  146.9733  132.3267  161.8556 C   0  0  0  0  0  0  0  0  0  0  0  0
  146.6769  133.3895  162.7283 C   0  0  0  0  0  0  0  0  0  0  0  0
  146.9547  134.7159  162.3460 C   0  0  0  0  0  0  0  0  0  0  0  0
  155.6702  136.2169  158.0473 H   0  0  0  0  0  0  0  0  0  0  0  0
  147.3818  138.0411  158.4786 H   0  0  0  0  0  0  0  0  0  0  0  0
  148.8895  138.4367  159.2933 H   0  0  0  0  0  0  0  0  0  0  0  0
  148.5138  136.9321  156.6826 H   0  0  0  0  0  0  0  0  0  0  0  0
  151.6573  136.1917  156.1206 H   0  0  0  0  0  0  0  0  0  0  0  0
  151.5694  138.4507  159.1855 H   0  0  0  0  0  0  0  0  0  0  0  0
  153.3892  138.6318  160.6650 H   0  0  0  0  0  0  0  0  0  0  0  0
  151.6894  138.9897  155.8397 H   0  0  0  0  0  0  0  0  0  0  0  0
  149.6597  137.7075  154.5511 H   0  0  0  0  0  0  0  0  0  0  0  0
  148.8886  139.0572  155.9388 H   0  0  0  0  0  0  0  0  0  0  0  0
  150.0147  143.7794  157.2720 H   0  0  0  0  0  0  0  0  0  0  0  0
  151.2398  145.2373  158.8434 H   0  0  0  0  0  0  0  0  0  0  0  0
  152.7578  144.2506  160.5500 H   0  0  0  0  0  0  0  0  0  0  0  0
  153.0521  141.7822  160.6687 H   0  0  0  0  0  0  0  0  0  0  0  0
  151.8504  140.3115  159.1099 H   0  0  0  0  0  0  0  0  0  0  0  0
  148.2674  134.0972  159.2447 H   0  0  0  0  0  0  0  0  0  0  0  0
  147.7798  131.7762  159.9293 H   0  0  0  0  0  0  0  0  0  0  0  0
  146.7588  131.3096  162.1492 H   0  0  0  0  0  0  0  0  0  0  0  0
  146.2350  133.1877  163.6930 H   0  0  0  0  0  0  0  0  0  0  0  0
  146.7150  135.5091  163.0392 H   0  0  0  0  0  0  0  0  0  0  0  0
  1  2  2  0  0  0  0
  2  3  1  0  0  0  0
  2 28  1  0  0  0  0
  3  4  1  0  0  0  0
  4  5  1  0  0  0  0
  4 35  1  0  0  0  0
  4 36  1  0  0  0  0
  5 18  1  0  0  0  0
  5  6  1  0  0  0  0
  5 37  1  0  0  0  0
  6  7  1  0  0  0  0
  7  8  1  0  0  0  0
  7 16  1  0  0  0  0
  7 38  1  0  0  0  0
  8 14  1  0  0  0  0
  8  9  1  0  0  0  0
  9 10  2  0  0  0  0
  9 39  1  0  0  0  0
 10 11  1  0  0  0  0
 10 40  1  0  0  0  0
 11 12  2  0  0  0  0
 11 13  1  0  0  0  0
 13 34  1  0  0  0  0
 13 14  1  0  0  0  0
 14 15  2  0  0  0  0
 16 17  1  0  0  0  0
 16 18  1  0  0  0  0
 16 41  1  0  0  0  0
 17 42  1  0  0  0  0
 18 19  1  0  0  0  0
 18 43  1  0  0  0  0
 19 20  1  0  0  0  0
 20 21  2  0  0  0  0
 20 22  1  0  0  0  0
 22 27  1  0  0  0  0
 22 23  2  0  0  0  0
 23 24  1  0  0  0  0
 23 44  1  0  0  0  0
 24 25  2  0  0  0  0
 24 45  1  0  0  0  0
 25 26  1  0  0  0  0
 25 46  1  0  0  0  0
 26 27  2  0  0  0  0
 26 47  1  0  0  0  0
 27 48  1  0  0  0  0
 28 33  1  0  0  0  0
 28 29  2  0  0  0  0
 29 30  1  0  0  0  0
 29 49  1  0  0  0  0
 30 31  2  0  0  0  0
 30 50  1  0  0  0  0
 31 32  1  0  0  0  0
 31 51  1  0  0  0  0
 32 33  2  0  0  0  0
 32 52  1  0  0  0  0
 33 53  1  0  0  0  0
M  END
> <s_m_source_file>
AV-unprocessed.smi

> <i_m_source_file_index>
99

> <i_lp_mmshare_version>
43012

> <i_f3d_flags>
0

> <s_epik_input>
W2NIXTFbY0hdW2NIXVtjSF1bY0hdYzFDKD1PKU9bQ0gyXVtDQEBIXTJPW0NAQEhdKG4zW2NIXVtjSF1jKD1PKVtuSF1jMz1PKVtDQEBIXShbT0hdKVtDQEhdMk9DKD1PKWM0W2NIXVtjSF1bY0hdW2NIXVtjSF00

> <s_epik_cmdline>
J2VwaWtfcHl0aG9uJywgJy1waCcsICc3LjAnLCAnLXRuJywgJzgnLCAnLW1hJywgJzIwMCcsICctbWV0YWxfYmluZGluZycsICctaW1hZScsICc8aW5maWxlLm1hZT4nLCAnLW9tYWUnLCAnPG91dGZpbGUubWFlPic=

> <r_lp_tautomer_probability>
1

> <r_epik_Ionization_Penalty>
0.00454555

> <r_epik_Ionization_Penalty_Charging>
0.0045191

> <r_epik_Ionization_Penalty_Neutral>
2.64449e-05

> <r_epik_State_Penalty>
-0

> <r_epik_Charging_Adjusted_Penalty>
0.0045191

> <i_epik_Tot_Q>
0

> <i_epik_Tot_abs_Q>
0

> <r_epik_Metal_State_Penalty>
1.27877

> <b_epik_Metal_Only>
0

> <s_epik_Chemistry_Notes>
This compound has an ester and may undergo hydrolysis at high or low pH. This compound contains an acetal/aminal-like group ( X-CH(R)-Y where X, Y are N, S, or O) that may be acid/base labile, releasing an aldehyde.

> <s_lp_Force_Field>
OPLS_2005

> <r_lp_Energy>
29.5489

> <b_lp_Chiralities_Consistent>
1

> <s_lp_Variant>
AV-unprocessed.smi:99-11

> <Gold.Version>
5.8.1

> <Gold.Id.Protein>
6NUR|6NUR_protein|mol2

> <Gold.PLP.Fitness>
58.2659

> <Gold.PLP.PLP>
-48.8517

> <Gold.PLP.part.hbond>
-5.0225

> <Gold.PLP.part.metal>
0.0000

> <Gold.PLP.part.buried>
-7.2242

> <Gold.PLP.part.nonpolar>
-37.5296

> <Gold.PLP.part.repulsive>
0.0781

> <Gold.PLP.ligand.clash>
0.0000

> <Gold.PLP.ligand.torsion>
1.1530

> <Gold.PLP.Chemscore.Hbond>
3.7760

> <Gold.PLP.Chemscore.CHOScore>
0.0000

> <Gold.PLP.Chemscore.Metal>
0.0000

> <Gold.Chemscore.Hbonds>
donor molecule, donor type, donor heavy atom, donor atom, acceptor molecule, acceptor atom, score
      P1  H  6931  6943       L1     1  0.86
      P1  H  6934  6947       L1     1  0.80
      P1  H 10752 10765       L1    15  0.18

> <Gold.PLP.Chemscore.Internal.Correction>
0.3924

> <Gold.Rescore>
     Score         DG    S(hbond)    S(metal)    S(lipo)     H(rot)  DE(clash)    DE(int)     intcor
     22.58     -24.05       3.75        0.00     121.42       3.19       0.03       1.44       ----

> <Gold.Chemscore.Fitness>
22.5822

> <Gold.Chemscore.DG>
-24.0497

> <Gold.Chemscore.ZeroCoef>
-5.4800

> <Gold.Chemscore.Hbond>
3.7517

> <Gold.Chemscore.Metal>
0.0000

> <Gold.Chemscore.Lipo>
121.4208

> <Gold.Chemscore.Internal_Hbond>
0.0000

> <Gold.Chemscore.DEClash>
0.0308

> <Gold.Chemscore.DEInternal>
1.4367

> <Gold.Chemscore.Rot>
3.1903

> <Gold.Chemscore.Internal.Correction>
   9.000000E+99

> <Gold.Chemscore.Hbonds>
donor molecule, donor type, donor heavy atom, donor atom, acceptor molecule, acceptor atom, score
      P1  H  6931  6943       L1     1  0.82
      P1  H  6934  6947       L1     1  0.80
      P1  H 10752 10765       L1    15  0.19

> <Gold.Chemscore.Hbond.Weighted>
-12.5306

> <Gold.Chemscore.Metal.Weighted>
-0.0000

> <Gold.Chemscore.Lipo.Weighted>
-14.2062

> <Gold.Chemscore.Internal_Hbond.Weighted>
0.0000

> <Gold.Chemscore.DEClash.Weighted>
0.0308

> <Gold.Chemscore.DEInternal.Weighted>
1.4367

> <Gold.Chemscore.Rot.Weighted>
8.1671

> <Gold.Chemscore.Internal.Correction.Weighted>
   9.000000E+99

> <Gold.Protein.RotatedTorsions>
[ 6907 6896 6895 6894 ] final  -44.83 input  -60.11 | X-H torsion
[ 7974 7965 7964 7962 ] final  -35.91 input  175.53 | X-H torsion
[ 8008 7997 7996 7995 ] final -176.60 input   59.86 | X-H torsion
[ 10167 10162 10161 10158 ] final -166.33 input  -65.29 | X-H torsion
[ 10718 10713 10712 10709 ] final  -98.71 input   66.30 | X-H torsion
[ 10763 10752 10751 10750 ] final  -79.22 input  -60.55 | X-H torsion
[ 11005 11000 10999 10996 ] final    8.80 input  -57.11 | X-H torsion

> <Gold.Protein.ActiveResidues>
 VAL166  LYS551  ARG553  GLY616  TRP617  ASP618  TYR619  PRO620  LYS621  CYS622 
 ASP623  PHE694  ASN695  SER759  ASP760  ASP761  ALA762  ILE779  LEU786  VAL792 
 PHE793  MET794  SER795  GLU796  ALA797  LYS798  CYS799  TRP800  GLU811  SER814 

> <Gold.Protein.RotatedAtoms>
  150.9285  134.8701  159.7535 H   0  0  0  0  0  0  0  0  0  0  0  0  # atno 6907 bound_to 6896
  152.5027  134.4114  159.9460 H   0  0  0  0  0  0  0  0  0  0  0  0  # atno 6908 bound_to 6896
  151.4142  133.3678  159.2783 H   0  0  0  0  0  0  0  0  0  0  0  0  # atno 6909 bound_to 6896
  146.0706  140.6216  142.8954 H   0  0  0  0  0  0  0  0  0  0  0  0  # atno 7974 bound_to 7965
  155.9968  140.1212  157.0585 H   0  0  0  0  0  0  0  0  0  0  0  0  # atno 8008 bound_to 7997
  154.4229  140.1114  156.5710 H   0  0  0  0  0  0  0  0  0  0  0  0  # atno 8009 bound_to 7997
  155.6267  140.3472  155.4671 H   0  0  0  0  0  0  0  0  0  0  0  0  # atno 8010 bound_to 7997
  139.6122  144.0791  152.1853 H   0  0  0  0  0  0  0  0  0  0  0  0  # atno 10167 bound_to 10162
  156.0115  130.5250  150.6563 H   0  0  0  0  0  0  0  0  0  0  0  0  # atno 10718 bound_to 10713
  154.5359  135.5703  153.6798 H   0  0  0  0  0  0  0  0  0  0  0  0  # atno 10763 bound_to 10752
  152.9951  135.6216  154.2566 H   0  0  0  0  0  0  0  0  0  0  0  0  # atno 10764 bound_to 10752
  154.2495  135.2859  155.2802 H   0  0  0  0  0  0  0  0  0  0  0  0  # atno 10765 bound_to 10752
  140.5329  134.0449  155.7879 H   0  0  0  0  0  0  0  0  0  0  0  0  # atno 11005 bound_to 11000
  144.7229  140.4433  143.6994 LP  0  0  0  0  0  0  0  0  0  0  0  0  # atno 17320 bound_to 7965
  145.6398  139.1548  143.2922 LP  0  0  0  0  0  0  0  0  0  0  0  0  # atno 17321 bound_to 7965
  140.0413  144.6005  150.7409 LP  0  0  0  0  0  0  0  0  0  0  0  0  # atno 17342 bound_to 10162
  140.7327  143.2708  151.3894 LP  0  0  0  0  0  0  0  0  0  0  0  0  # atno 17343 bound_to 10162
  157.4315  131.0850  151.1034 LP  0  0  0  0  0  0  0  0  0  0  0  0  # atno 17370 bound_to 10713
  157.1605  130.6224  149.5609 LP  0  0  0  0  0  0  0  0  0  0  0  0  # atno 17371 bound_to 10713
  141.1271  133.9365  157.2613 LP  0  0  0  0  0  0  0  0  0  0  0  0  # atno 17394 bound_to 11000
  139.9544  135.0168  156.9087 LP  0  0  0  0  0  0  0  0  0  0  0  0  # atno 17395 bound_to 11000

$$$$
