AV-unprocessed.smi:1643|AV-procd|sdf|6583|dock10
  -GOLD-   22720 7273D 1   1.00000     0.00000
 Structure written by MMmdl.
 54 56  0  0  0  0  0  0  0  0  2 V2000
  151.8478  131.5807  155.9918 C   0  0  0  0  0  0  0  0  0  0  0  0
  150.8792  132.3672  156.8785 C   0  0  0  0  0  0  0  0  0  0  0  0
  151.3074  132.8433  157.9303 O   0  0  0  0  0  0  0  0  0  0  0  0
  149.5910  132.5076  156.4835 N   0  0  0  0  0  0  0  0  0  0  0  0
  149.1032  131.9793  155.2046 C   0  0  0  0  0  0  0  0  0  0  0  0
  149.2421  133.0376  154.0981 C   0  0  0  0  0  0  0  0  0  0  0  0
  148.5540  134.3845  154.4050 C   0  0  0  0  0  0  0  0  0  0  0  0
  149.1866  135.1373  155.4971 N   0  0  0  0  0  0  0  0  0  0  0  0
  149.1248  136.5853  155.2916 C   0  0  0  0  0  0  0  0  0  0  0  0
  150.4720  137.3209  155.4451 C   0  0  1  0  0  0  0  0  0  0  0  0
  151.5034  136.3610  155.3364 O   0  0  0  0  0  0  0  0  0  0  0  0
  150.6672  138.4145  154.3742 C   0  0  0  0  0  0  0  0  0  0  0  0
  150.4633  139.7712  154.9001 N   0  0  0  0  0  0  0  0  0  0  0  0
  149.6997  140.7840  154.4086 C   0  0  0  0  0  0  0  0  0  0  0  0
  149.8397  141.8484  155.2462 N   0  3  0  0  0  0  0  0  0  0  0  0
  150.7054  141.5102  156.2883 C   0  0  0  0  0  0  0  0  0  0  0  0
  151.1535  142.2514  157.3752 C   0  0  0  0  0  0  0  0  0  0  0  0
  152.0400  141.6114  158.2707 C   0  0  0  0  0  0  0  0  0  0  0  0
  152.5493  142.3932  159.4697 C   0  0  0  0  0  0  0  0  0  0  0  0
  152.4463  140.2682  158.0603 C   0  0  0  0  0  0  0  0  0  0  0  0
  153.3950  139.5877  159.0323 C   0  0  0  0  0  0  0  0  0  0  0  0
  151.9801  139.5320  156.9478 C   0  0  0  0  0  0  0  0  0  0  0  0
  151.1090  140.1778  156.0736 C   0  0  0  0  0  0  0  0  0  0  0  0
  148.6187  134.7955  156.8099 C   0  0  0  0  0  0  0  0  0  0  0  0
  148.5861  133.3006  157.2009 C   0  0  0  0  0  0  0  0  0  0  0  0
  151.4915  130.5633  155.8309 H   0  0  0  0  0  0  0  0  0  0  0  0
  152.8302  131.5165  156.4613 H   0  0  0  0  0  0  0  0  0  0  0  0
  151.9733  132.0699  155.0258 H   0  0  0  0  0  0  0  0  0  0  0  0
  149.6446  131.0754  154.9205 H   0  0  0  0  0  0  0  0  0  0  0  0
  148.0619  131.6658  155.2861 H   0  0  0  0  0  0  0  0  0  0  0  0
  150.2986  133.2154  153.8935 H   0  0  0  0  0  0  0  0  0  0  0  0
  148.8255  132.6311  153.1763 H   0  0  0  0  0  0  0  0  0  0  0  0
  148.5822  134.9617  153.4829 H   0  0  0  0  0  0  0  0  0  0  0  0
  147.4929  134.2357  154.6107 H   0  0  0  0  0  0  0  0  0  0  0  0
  148.6983  136.7913  154.3085 H   0  0  0  0  0  0  0  0  0  0  0  0
  148.4317  137.0224  156.0125 H   0  0  0  0  0  0  0  0  0  0  0  0
  150.5601  137.7668  156.4349 H   0  0  0  0  0  0  0  0  0  0  0  0
  151.5291  135.8567  156.1354 H   0  0  0  0  0  0  0  0  0  0  0  0
  151.6516  138.3480  153.9102 H   0  0  0  0  0  0  0  0  0  0  0  0
  149.9436  138.2806  153.5689 H   0  0  0  0  0  0  0  0  0  0  0  0
  149.0939  140.7496  153.5144 H   0  0  0  0  0  0  0  0  0  0  0  0
  150.8374  143.2726  157.5302 H   0  0  0  0  0  0  0  0  0  0  0  0
  152.2269  141.9216  160.3984 H   0  0  0  0  0  0  0  0  0  0  0  0
  152.1743  143.4172  159.4674 H   0  0  0  0  0  0  0  0  0  0  0  0
  153.6386  142.4386  159.4636 H   0  0  0  0  0  0  0  0  0  0  0  0
  153.5853  138.5531  158.7450 H   0  0  0  0  0  0  0  0  0  0  0  0
  152.9743  139.5812  160.0383 H   0  0  0  0  0  0  0  0  0  0  0  0
  154.3528  140.1076  159.0598 H   0  0  0  0  0  0  0  0  0  0  0  0
  152.2852  138.5079  156.7917 H   0  0  0  0  0  0  0  0  0  0  0  0
  149.1957  135.3189  157.5731 H   0  0  0  0  0  0  0  0  0  0  0  0
  147.6068  135.1957  156.8893 H   0  0  0  0  0  0  0  0  0  0  0  0
  147.5902  132.9116  156.9860 H   0  0  0  0  0  0  0  0  0  0  0  0
  148.6823  133.1912  158.2813 H   0  0  0  0  0  0  0  0  0  0  0  0
  149.3780  142.7389  155.1132 H   0  0  0  0  0  0  0  0  0  0  0  0
  1  2  1  0  0  0  0
  1 26  1  0  0  0  0
  1 27  1  0  0  0  0
  1 28  1  0  0  0  0
  2  3  2  0  0  0  0
  2  4  1  0  0  0  0
  4 25  1  0  0  0  0
  4  5  1  0  0  0  0
  5  6  1  0  0  0  0
  5 29  1  0  0  0  0
  5 30  1  0  0  0  0
  6  7  1  0  0  0  0
  6 31  1  0  0  0  0
  6 32  1  0  0  0  0
  7  8  1  0  0  0  0
  7 33  1  0  0  0  0
  7 34  1  0  0  0  0
  8  9  1  0  0  0  0
  8 24  1  0  0  0  0
  9 10  1  0  0  0  0
  9 35  1  0  0  0  0
  9 36  1  0  0  0  0
 10 11  1  0  0  0  0
 10 12  1  0  0  0  0
 10 37  1  0  0  0  0
 11 38  1  0  0  0  0
 12 13  1  0  0  0  0
 12 39  1  0  0  0  0
 12 40  1  0  0  0  0
 13 23  1  0  0  0  0
 13 14  1  0  0  0  0
 14 15  2  0  0  0  0
 14 41  1  0  0  0  0
 15 16  1  0  0  0  0
 15 54  1  0  0  0  0
 16 23  2  0  0  0  0
 16 17  1  0  0  0  0
 17 18  2  0  0  0  0
 17 42  1  0  0  0  0
 18 19  1  0  0  0  0
 18 20  1  0  0  0  0
 19 43  1  0  0  0  0
 19 44  1  0  0  0  0
 19 45  1  0  0  0  0
 20 21  1  0  0  0  0
 20 22  2  0  0  0  0
 21 46  1  0  0  0  0
 21 47  1  0  0  0  0
 21 48  1  0  0  0  0
 22 23  1  0  0  0  0
 22 49  1  0  0  0  0
 24 25  1  0  0  0  0
 24 50  1  0  0  0  0
 24 51  1  0  0  0  0
 25 52  1  0  0  0  0
 25 53  1  0  0  0  0
M  CHG  1  15   1
M  END
> <s_m_source_file>
AV-unprocessed.smi

> <i_m_source_file_index>
1643

> <i_lp_mmshare_version>
43012

> <i_f3d_flags>
0

> <s_epik_input>
W0NIM11DKD1PKU4xW0NIMl1bQ0gyXVtDSDJdTihbQ0gyXVtDSDJdMSlbQ0gyXVtDQEhdKFtPSF0pW0NIMl1uKFtjSF1uMiljKGMyMylbY0hdYyhbQ0gzXSljKFtjSF0zKVtDSDNd

> <s_epik_cmdline>
J2VwaWtfcHl0aG9uJywgJy1waCcsICc3LjAnLCAnLXRuJywgJzgnLCAnLW1hJywgJzIwMCcsICctbWV0YWxfYmluZGluZycsICctaW1hZScsICc8aW5maWxlLm1hZT4nLCAnLW9tYWUnLCAnPG91dGZpbGUubWFlPic=

> <r_epik_Ionization_Penalty>
2.25269

> <r_epik_Ionization_Penalty_Charging>
1.20735

> <r_epik_Ionization_Penalty_Neutral>
1.04533

> <r_epik_State_Penalty>
2.37869

> <r_epik_Charging_Adjusted_Penalty>
3.58604

> <i_epik_Tot_Q>
1

> <i_epik_Tot_abs_Q>
1

> <r_epik_Metal_State_Penalty>
6.40045

> <b_epik_Metal_Only>
0

> <s_lp_Force_Field>
OPLS_2005

> <r_lp_Energy>
51.5531

> <b_lp_Chiralities_Consistent>
1

> <s_lp_Variant>
AV-unprocessed.smi:1643-12

> <Gold.Version>
5.8.1

> <Gold.Id.Protein>
6NUR|6NUR_protein|mol2

> <Gold.PLP.Fitness>
50.1585

> <Gold.PLP.PLP>
-39.2280

> <Gold.PLP.part.hbond>
-2.7900

> <Gold.PLP.part.metal>
0.0000

> <Gold.PLP.part.buried>
-0.4753

> <Gold.PLP.part.nonpolar>
-35.7317

> <Gold.PLP.part.repulsive>
0.2935

> <Gold.PLP.ligand.clash>
0.0000

> <Gold.PLP.ligand.torsion>
1.9840

> <Gold.PLP.Chemscore.Hbond>
3.9500

> <Gold.PLP.Chemscore.CHOScore>
0.9977

> <Gold.PLP.Chemscore.Metal>
0.0000

> <Gold.Chemscore.Hbonds>
donor molecule, donor type, donor heavy atom, donor atom, acceptor molecule, acceptor atom, score
      L1  H    15    54       P1  8028  1.62
      P1  H  6896  6908       L1     3  0.63
      P1  H 10752 10764       L1    11  0.94
      L1  C    14    41       P1  7957  1.00

> <Gold.PLP.Chemscore.Internal.Correction>
0.0552

> <Gold.Rescore>
     Score         DG    S(hbond)    S(metal)    S(lipo)     H(rot)  DE(clash)    DE(int)     intcor
     16.75     -18.89       2.26        0.00      96.56       2.12       0.22       1.92       ----

> <Gold.Chemscore.Fitness>
16.7527

> <Gold.Chemscore.DG>
-18.8898

> <Gold.Chemscore.ZeroCoef>
-5.4800

> <Gold.Chemscore.Hbond>
2.2587

> <Gold.Chemscore.Metal>
0.0000

> <Gold.Chemscore.Lipo>
96.5626

> <Gold.Chemscore.Internal_Hbond>
0.0000

> <Gold.Chemscore.DEClash>
0.2182

> <Gold.Chemscore.DEInternal>
1.9189

> <Gold.Chemscore.Rot>
2.1220

> <Gold.Chemscore.Internal.Correction>
   9.000000E+99

> <Gold.Chemscore.Hbonds>
donor molecule, donor type, donor heavy atom, donor atom, acceptor molecule, acceptor atom, score
      L1  H    15    54       P1  8028  0.79
      P1  H  6896  6908       L1     3  0.61
      P1  H 10752 10764       L1    11  0.32

> <Gold.Chemscore.Hbond.Weighted>
-7.5442

> <Gold.Chemscore.Metal.Weighted>
-0.0000

> <Gold.Chemscore.Lipo.Weighted>
-11.2978

> <Gold.Chemscore.Internal_Hbond.Weighted>
0.0000

> <Gold.Chemscore.DEClash.Weighted>
0.2182

> <Gold.Chemscore.DEInternal.Weighted>
1.9189

> <Gold.Chemscore.Rot.Weighted>
5.4322

> <Gold.Chemscore.Internal.Correction.Weighted>
   9.000000E+99

> <Gold.Protein.RotatedTorsions>
[ 6907 6896 6895 6894 ] final   72.07 input  -60.11 | X-H torsion
[ 7974 7965 7964 7962 ] final  -21.12 input  175.53 | X-H torsion
[ 8008 7997 7996 7995 ] final  -75.66 input   59.86 | X-H torsion
[ 10167 10162 10161 10158 ] final   77.17 input  -65.29 | X-H torsion
[ 10718 10713 10712 10709 ] final  172.36 input   66.30 | X-H torsion
[ 10763 10752 10751 10750 ] final  -75.18 input  -60.55 | X-H torsion
[ 11005 11000 10999 10996 ] final  -84.15 input  -57.11 | X-H torsion

> <Gold.Protein.ActiveResidues>
 VAL166  LYS551  ARG553  GLY616  TRP617  ASP618  TYR619  PRO620  LYS621  CYS622 
 ASP623  PHE694  ASN695  SER759  ASP760  ASP761  ALA762  ILE779  LEU786  VAL792 
 PHE793  MET794  SER795  GLU796  ALA797  LYS798  CYS799  TRP800  GLU811  SER814 

> <Gold.Protein.RotatedAtoms>
  152.4847  134.4626  159.9609 H   0  0  0  0  0  0  0  0  0  0  0  0  # atno 6907 bound_to 6896
  151.4624  133.3583  159.2819 H   0  0  0  0  0  0  0  0  0  0  0  0  # atno 6908 bound_to 6896
  150.8947  134.8379  159.7379 H   0  0  0  0  0  0  0  0  0  0  0  0  # atno 6909 bound_to 6896
  146.1751  140.4297  142.8517 H   0  0  0  0  0  0  0  0  0  0  0  0  # atno 7974 bound_to 7965
  154.5437  140.0740  156.8552 H   0  0  0  0  0  0  0  0  0  0  0  0  # atno 8008 bound_to 7997
  155.3131  140.3391  155.4225 H   0  0  0  0  0  0  0  0  0  0  0  0  # atno 8009 bound_to 7997
  156.1898  140.1682  156.8101 H   0  0  0  0  0  0  0  0  0  0  0  0  # atno 8010 bound_to 7997
  139.9844  144.5803  150.7872 H   0  0  0  0  0  0  0  0  0  0  0  0  # atno 10167 bound_to 10162
  156.9801  131.0116  151.2883 H   0  0  0  0  0  0  0  0  0  0  0  0  # atno 10718 bound_to 10713
  154.4831  135.5840  153.6404 H   0  0  0  0  0  0  0  0  0  0  0  0  # atno 10763 bound_to 10752
  152.9850  135.6094  154.3221 H   0  0  0  0  0  0  0  0  0  0  0  0  # atno 10764 bound_to 10752
  154.3114  135.2845  155.2543 H   0  0  0  0  0  0  0  0  0  0  0  0  # atno 10765 bound_to 10752
  141.1652  133.7331  156.8826 H   0  0  0  0  0  0  0  0  0  0  0  0  # atno 11005 bound_to 11000
  144.8223  140.6570  143.6345 LP  0  0  0  0  0  0  0  0  0  0  0  0  # atno 17320 bound_to 7965
  145.4235  139.1560  143.4061 LP  0  0  0  0  0  0  0  0  0  0  0  0  # atno 17321 bound_to 7965
  140.7477  143.2911  151.3328 LP  0  0  0  0  0  0  0  0  0  0  0  0  # atno 17342 bound_to 10162
  139.6386  144.0583  152.2536 LP  0  0  0  0  0  0  0  0  0  0  0  0  # atno 17343 bound_to 10162
  157.5532  130.8196  149.8171 LP  0  0  0  0  0  0  0  0  0  0  0  0  # atno 17370 bound_to 10713
  156.0248  130.3783  150.1856 LP  0  0  0  0  0  0  0  0  0  0  0  0  # atno 17371 bound_to 10713
  140.1704  134.9104  157.2826 LP  0  0  0  0  0  0  0  0  0  0  0  0  # atno 17394 bound_to 11000
  140.2508  134.3685  155.7443 LP  0  0  0  0  0  0  0  0  0  0  0  0  # atno 17395 bound_to 11000

$$$$
