AV-unprocessed.smi:170|AV-procd|sdf|1413|dock8
  -GOLD-   2262019173D 1   1.00000     0.00000
 Structure written by MMmdl.
 57 61  0  0  0  0  0  0  0  0  1 V2000
  147.9872  134.2384  156.0561 O   0  0  0  0  0  0  0  0  0  0  0  0
  149.3257  134.2675  155.5963 C   0  0  1  0  0  0  0  0  0  0  0  0
  150.2653  134.5312  156.7902 C   0  0  0  0  0  0  0  0  0  0  0  0
  150.5111  135.9474  156.9983 N   0  0  0  0  0  0  0  0  0  0  0  0
  150.3355  136.6553  158.1663 C   0  0  0  0  0  0  0  0  0  0  0  0
  150.6207  137.9274  158.0943 N   0  0  0  0  0  0  0  0  0  0  0  0
  151.0242  138.1064  156.7773 C   0  0  0  0  0  0  0  0  0  0  0  0
  151.4569  139.2281  156.0225 C   0  0  0  0  0  0  0  0  0  0  0  0
  151.5629  140.4607  156.5733 N   0  0  0  0  0  0  0  0  0  0  0  0
  150.5840  141.3599  155.9715 C   0  0  0  0  0  0  0  0  0  0  0  0
  150.8045  142.7970  156.4590 C   0  0  0  0  0  0  0  0  0  0  0  0
  150.7359  142.8137  157.8776 O   0  0  0  0  0  0  0  0  0  0  0  0
  151.7623  142.0232  158.4653 C   0  0  0  0  0  0  0  0  0  0  0  0
  151.6277  140.5411  158.0398 C   0  0  2  0  0  0  0  0  0  0  0  0
  152.7868  139.6876  158.6200 C   0  0  0  0  0  0  0  0  0  0  0  0
  153.1561  140.0293  160.0623 C   0  0  0  0  0  0  0  0  0  0  0  0
  153.9795  141.2925  160.3562 C   0  0  0  0  0  0  0  0  0  0  0  0
  154.6591  140.5285  161.4959 C   0  0  0  0  0  0  0  0  0  0  0  0
  154.2598  139.2362  160.7784 C   0  0  0  0  0  0  0  0  0  0  0  0
  151.7931  139.0254  154.7203 N   0  0  0  0  0  0  0  0  0  0  0  0
  151.6930  137.8041  154.1868 C   0  0  0  0  0  0  0  0  0  0  0  0
  151.2938  136.6694  154.7662 N   0  0  0  0  0  0  0  0  0  0  0  0
  150.9671  136.8707  156.0751 C   0  0  0  0  0  0  0  0  0  0  0  0
  149.6384  132.9365  154.8875 C   0  0  1  0  0  0  0  0  0  0  0  0
  149.6025  131.7108  155.8030 C   0  0  0  0  0  0  0  0  0  0  0  0
  149.3225  130.5996  154.8180 C   0  0  0  0  0  0  0  0  0  0  0  0
  148.3392  131.2723  153.8661 C   0  0  0  0  0  0  0  0  0  0  0  0
  148.6612  132.6610  153.8853 O   0  0  0  0  0  0  0  0  0  0  0  0
  147.5626  135.0409  155.7948 H   0  0  0  0  0  0  0  0  0  0  0  0
  149.4165  135.0848  154.8797 H   0  0  0  0  0  0  0  0  0  0  0  0
  149.8480  134.1100  157.7059 H   0  0  0  0  0  0  0  0  0  0  0  0
  151.2271  134.0421  156.6325 H   0  0  0  0  0  0  0  0  0  0  0  0
  149.9810  136.1971  159.0782 H   0  0  0  0  0  0  0  0  0  0  0  0
  150.6602  141.3275  154.8835 H   0  0  0  0  0  0  0  0  0  0  0  0
  149.5773  141.0304  156.2336 H   0  0  0  0  0  0  0  0  0  0  0  0
  151.7665  143.1845  156.1190 H   0  0  0  0  0  0  0  0  0  0  0  0
  150.0331  143.4537  156.0569 H   0  0  0  0  0  0  0  0  0  0  0  0
  152.7397  142.4216  158.1875 H   0  0  0  0  0  0  0  0  0  0  0  0
  151.6745  142.1238  159.5465 H   0  0  0  0  0  0  0  0  0  0  0  0
  150.6829  140.1663  158.4364 H   0  0  0  0  0  0  0  0  0  0  0  0
  152.5314  138.6293  158.5769 H   0  0  0  0  0  0  0  0  0  0  0  0
  153.6653  139.7973  157.9832 H   0  0  0  0  0  0  0  0  0  0  0  0
  152.2698  140.0491  160.6993 H   0  0  0  0  0  0  0  0  0  0  0  0
  154.6712  141.5479  159.5516 H   0  0  0  0  0  0  0  0  0  0  0  0
  153.3932  142.1565  160.6704 H   0  0  0  0  0  0  0  0  0  0  0  0
  155.7337  140.6921  161.5797 H   0  0  0  0  0  0  0  0  0  0  0  0
  154.1512  140.6556  162.4534 H   0  0  0  0  0  0  0  0  0  0  0  0
  153.8992  138.4412  161.4317 H   0  0  0  0  0  0  0  0  0  0  0  0
  155.0328  138.8770  160.0969 H   0  0  0  0  0  0  0  0  0  0  0  0
  151.9724  137.7251  153.1465 H   0  0  0  0  0  0  0  0  0  0  0  0
  150.6110  132.9880  154.3949 H   0  0  0  0  0  0  0  0  0  0  0  0
  150.5302  131.5656  156.3571 H   0  0  0  0  0  0  0  0  0  0  0  0
  148.7837  131.7876  156.5201 H   0  0  0  0  0  0  0  0  0  0  0  0
  150.2374  130.3303  154.2882 H   0  0  0  0  0  0  0  0  0  0  0  0
  148.9183  129.7009  155.2848 H   0  0  0  0  0  0  0  0  0  0  0  0
  148.3941  130.8636  152.8567 H   0  0  0  0  0  0  0  0  0  0  0  0
  147.3165  131.1509  154.2258 H   0  0  0  0  0  0  0  0  0  0  0  0
  1  2  1  0  0  0  0
  1 29  1  0  0  0  0
  2  3  1  0  0  0  0
  2 24  1  0  0  0  0
  2 30  1  0  0  0  0
  3  4  1  0  0  0  0
  3 31  1  0  0  0  0
  3 32  1  0  0  0  0
  4 23  1  0  0  0  0
  4  5  1  0  0  0  0
  5  6  2  0  0  0  0
  5 33  1  0  0  0  0
  6  7  1  0  0  0  0
  7 23  2  0  0  0  0
  7  8  1  0  0  0  0
  8  9  1  0  0  0  0
  8 20  2  0  0  0  0
  9 14  1  0  0  0  0
  9 10  1  0  0  0  0
 10 11  1  0  0  0  0
 10 34  1  0  0  0  0
 10 35  1  0  0  0  0
 11 12  1  0  0  0  0
 11 36  1  0  0  0  0
 11 37  1  0  0  0  0
 12 13  1  0  0  0  0
 13 14  1  0  0  0  0
 13 38  1  0  0  0  0
 13 39  1  0  0  0  0
 14 15  1  0  0  0  0
 14 40  1  0  0  0  0
 15 16  1  0  0  0  0
 15 41  1  0  0  0  0
 15 42  1  0  0  0  0
 16 19  1  0  0  0  0
 16 17  1  0  0  0  0
 16 43  1  0  0  0  0
 17 18  1  0  0  0  0
 17 44  1  0  0  0  0
 17 45  1  0  0  0  0
 18 19  1  0  0  0  0
 18 46  1  0  0  0  0
 18 47  1  0  0  0  0
 19 48  1  0  0  0  0
 19 49  1  0  0  0  0
 20 21  1  0  0  0  0
 21 22  2  0  0  0  0
 21 50  1  0  0  0  0
 22 23  1  0  0  0  0
 24 28  1  0  0  0  0
 24 25  1  0  0  0  0
 24 51  1  0  0  0  0
 25 26  1  0  0  0  0
 25 52  1  0  0  0  0
 25 53  1  0  0  0  0
 26 27  1  0  0  0  0
 26 54  1  0  0  0  0
 26 55  1  0  0  0  0
 27 28  1  0  0  0  0
 27 56  1  0  0  0  0
 27 57  1  0  0  0  0
M  END
> <s_m_source_file>
AV-unprocessed.smi

> <i_m_source_file_index>
170

> <i_lp_mmshare_version>
43012

> <i_f3d_flags>
0

> <s_epik_input>
TzFbQ0gyXVtDSDJdW0NIMl1bQ0BIXTFbQ0BIXShbT0hdKVtDSDJdbihbY0hdbjIpYyhjMjMpbltjSF1uYzNONFtDSDJdW0NIMl1PW0NIMl1bQ0BIXTRbQ0gyXVtDSF01W0NIMl1bQ0gyXVtDSDJdNQ==

> <s_epik_cmdline>
J2VwaWtfcHl0aG9uJywgJy1waCcsICc3LjAnLCAnLXRuJywgJzgnLCAnLW1hJywgJzIwMCcsICctbWV0YWxfYmluZGluZycsICctaW1hZScsICc8aW5maWxlLm1hZT4nLCAnLW9tYWUnLCAnPG91dGZpbGUubWFlPic=

> <r_lp_tautomer_probability>
1

> <r_epik_Ionization_Penalty>
4.98275e-05

> <r_epik_Ionization_Penalty_Charging>
0

> <r_epik_Ionization_Penalty_Neutral>
4.98275e-05

> <r_epik_State_Penalty>
-0

> <r_epik_Charging_Adjusted_Penalty>
0

> <i_epik_Tot_Q>
0

> <i_epik_Tot_abs_Q>
0

> <r_epik_Metal_State_Penalty>
-0

> <b_epik_Metal_Only>
0

> <s_lp_Force_Field>
OPLS_2005

> <r_lp_Energy>
50.2735

> <b_lp_Chiralities_Consistent>
1

> <s_lp_Variant>
AV-unprocessed.smi:170-8

> <Gold.Version>
5.8.1

> <Gold.Id.Protein>
6NUR|6NUR_protein|mol2

> <Gold.PLP.Fitness>
46.3527

> <Gold.PLP.PLP>
-39.7469

> <Gold.PLP.part.hbond>
-2.0000

> <Gold.PLP.part.metal>
0.0000

> <Gold.PLP.part.buried>
-3.2370

> <Gold.PLP.part.nonpolar>
-36.1714

> <Gold.PLP.part.repulsive>
0.5338

> <Gold.PLP.ligand.clash>
0.0000

> <Gold.PLP.ligand.torsion>
1.0024

> <Gold.PLP.Chemscore.Hbond>
2.0000

> <Gold.PLP.Chemscore.CHOScore>
0.7814

> <Gold.PLP.Chemscore.Metal>
0.0000

> <Gold.Chemscore.Hbonds>
donor molecule, donor type, donor heavy atom, donor atom, acceptor molecule, acceptor atom, score
      P1  H  7989  7998       L1    20  0.57
      P1  H 10752 10763       L1    22  0.80
      L1  C    21    50       P1  7949  0.95

> <Gold.PLP.Chemscore.Internal.Correction>
0.2665

> <Gold.Rescore>
     Score         DG    S(hbond)    S(metal)    S(lipo)     H(rot)  DE(clash)    DE(int)     intcor
     11.77     -16.24       1.61        0.00     103.33       2.61       1.79       2.68       ----

> <Gold.Chemscore.Fitness>
11.7743

> <Gold.Chemscore.DG>
-16.2409

> <Gold.Chemscore.ZeroCoef>
-5.4800

> <Gold.Chemscore.Hbond>
1.6062

> <Gold.Chemscore.Metal>
0.0000

> <Gold.Chemscore.Lipo>
103.3253

> <Gold.Chemscore.Internal_Hbond>
0.0000

> <Gold.Chemscore.DEClash>
1.7893

> <Gold.Chemscore.DEInternal>
2.6773

> <Gold.Chemscore.Rot>
2.6144

> <Gold.Chemscore.Internal.Correction>
   9.000000E+99

> <Gold.Chemscore.Hbonds>
donor molecule, donor type, donor heavy atom, donor atom, acceptor molecule, acceptor atom, score
      P1  H  7989  7998       L1    20  0.47
      P1  H 10752 10763       L1    22  0.11

> <Gold.Chemscore.Hbond.Weighted>
-5.3648

> <Gold.Chemscore.Metal.Weighted>
-0.0000

> <Gold.Chemscore.Lipo.Weighted>
-12.0891

> <Gold.Chemscore.Internal_Hbond.Weighted>
0.0000

> <Gold.Chemscore.DEClash.Weighted>
1.7893

> <Gold.Chemscore.DEInternal.Weighted>
2.6773

> <Gold.Chemscore.Rot.Weighted>
6.6929

> <Gold.Chemscore.Internal.Correction.Weighted>
   9.000000E+99

> <Gold.Protein.RotatedTorsions>
[ 6907 6896 6895 6894 ] final   92.49 input  -60.11 | X-H torsion
[ 7974 7965 7964 7962 ] final  -63.05 input  175.53 | X-H torsion
[ 8008 7997 7996 7995 ] final  -11.60 input   59.86 | X-H torsion
[ 10167 10162 10161 10158 ] final -168.07 input  -65.29 | X-H torsion
[ 10718 10713 10712 10709 ] final -162.25 input   66.30 | X-H torsion
[ 10763 10752 10751 10750 ] final   45.49 input  -60.55 | X-H torsion
[ 11005 11000 10999 10996 ] final   27.68 input  -57.11 | X-H torsion

> <Gold.Protein.ActiveResidues>
 VAL166  LYS551  ARG553  GLY616  TRP617  ASP618  TYR619  PRO620  LYS621  CYS622 
 ASP623  PHE694  ASN695  SER759  ASP760  ASP761  ALA762  ILE779  LEU786  VAL792 
 PHE793  MET794  SER795  GLU796  ALA797  LYS798  CYS799  TRP800  GLU811  SER814 

> <Gold.Protein.RotatedAtoms>
  152.5452  134.1495  159.8512 H   0  0  0  0  0  0  0  0  0  0  0  0  # atno 6907 bound_to 6896
  151.1523  133.4892  159.2602 H   0  0  0  0  0  0  0  0  0  0  0  0  # atno 6908 bound_to 6896
  151.1459  135.0214  159.8701 H   0  0  0  0  0  0  0  0  0  0  0  0  # atno 6909 bound_to 6896
  145.7838  140.8747  143.0316 H   0  0  0  0  0  0  0  0  0  0  0  0  # atno 7974 bound_to 7965
  154.5451  140.2298  155.8577 H   0  0  0  0  0  0  0  0  0  0  0  0  # atno 8008 bound_to 7997
  156.1895  140.3080  155.9266 H   0  0  0  0  0  0  0  0  0  0  0  0  # atno 8009 bound_to 7997
  155.3181  140.0439  157.3028 H   0  0  0  0  0  0  0  0  0  0  0  0  # atno 8010 bound_to 7997
  139.6009  144.1014  152.1741 H   0  0  0  0  0  0  0  0  0  0  0  0  # atno 10167 bound_to 10162
  156.6078  130.8838  151.2929 H   0  0  0  0  0  0  0  0  0  0  0  0  # atno 10718 bound_to 10713
  152.9824  135.6038  154.3445 H   0  0  0  0  0  0  0  0  0  0  0  0  # atno 10763 bound_to 10752
  154.3140  135.2770  155.2554 H   0  0  0  0  0  0  0  0  0  0  0  0  # atno 10764 bound_to 10752
  154.4751  135.5932  153.6405 H   0  0  0  0  0  0  0  0  0  0  0  0  # atno 10765 bound_to 10752
  140.3237  134.2515  155.7713 H   0  0  0  0  0  0  0  0  0  0  0  0  # atno 11005 bound_to 11000
  144.6792  140.0026  143.7484 LP  0  0  0  0  0  0  0  0  0  0  0  0  # atno 17320 bound_to 7965
  146.0047  139.3120  143.0906 LP  0  0  0  0  0  0  0  0  0  0  0  0  # atno 17321 bound_to 7965
  140.0609  144.5857  150.7263 LP  0  0  0  0  0  0  0  0  0  0  0  0  # atno 17342 bound_to 10162
  140.7248  143.2625  151.4156 LP  0  0  0  0  0  0  0  0  0  0  0  0  # atno 17343 bound_to 10162
  157.7262  130.9626  150.1647 LP  0  0  0  0  0  0  0  0  0  0  0  0  # atno 17370 bound_to 10713
  156.2415  130.3691  149.8332 LP  0  0  0  0  0  0  0  0  0  0  0  0  # atno 17371 bound_to 10713
  141.2080  133.7789  157.0083 LP  0  0  0  0  0  0  0  0  0  0  0  0  # atno 17394 bound_to 11000
  140.0920  134.9587  157.1791 LP  0  0  0  0  0  0  0  0  0  0  0  0  # atno 17395 bound_to 11000

$$$$
