AV-unprocessed.smi:2359|AV-procd|sdf|9408|dock2
  -GOLD-   2272013 43D 1   1.00000     0.00000
 Structure written by MMmdl.
 40 41  0  0  0  0  0  0  0  0  1 V2000
  151.7681  145.5873  159.8856 C   0  0  0  0  0  0  0  0  0  0  0  0
  151.8301  144.2331  159.2110 C   0  0  0  0  0  0  0  0  0  0  0  0
  152.4582  143.1432  159.8415 C   0  0  0  0  0  0  0  0  0  0  0  0
  152.4913  141.9018  159.1778 C   0  0  0  0  0  0  0  0  0  0  0  0
  151.8961  141.7785  157.9022 C   0  0  0  0  0  0  0  0  0  0  0  0
  151.9870  140.4868  157.3186 N   0  0  0  0  0  0  0  0  0  0  0  0
  151.5174  140.0774  156.1268 C   0  0  0  0  0  0  0  0  0  0  0  0
  150.8987  140.7775  155.3244 O   0  0  0  0  0  0  0  0  0  0  0  0
  151.8059  138.7872  155.9093 N   0  0  0  0  0  0  0  0  0  0  0  0
  151.4297  138.0516  154.7098 C   0  0  0  0  0  0  0  0  0  0  0  0
  150.1543  137.2324  154.9555 C   0  0  0  0  0  0  0  0  0  0  0  0
  150.4082  135.7165  154.9523 C   0  0  1  0  0  0  0  0  0  0  0  0
  150.9813  135.2241  156.2956 C   0  0  0  0  0  0  0  0  0  0  0  0
  151.1527  133.7008  156.2821 C   0  0  0  0  0  0  0  0  0  0  0  0
  149.8316  133.0356  155.8820 C   0  0  0  0  0  0  0  0  0  0  0  0
  149.3057  133.6383  154.5695 C   0  0  0  0  0  0  0  0  0  0  0  0
  149.1719  135.0499  154.7034 O   0  0  0  0  0  0  0  0  0  0  0  0
  151.2918  142.8348  157.3031 N   0  0  0  0  0  0  0  0  0  0  0  0
  151.2603  144.0242  157.9398 C   0  0  0  0  0  0  0  0  0  0  0  0
  152.7561  145.8808  160.2413 H   0  0  0  0  0  0  0  0  0  0  0  0
  151.0911  145.5521  160.7391 H   0  0  0  0  0  0  0  0  0  0  0  0
  151.4130  146.3551  159.1978 H   0  0  0  0  0  0  0  0  0  0  0  0
  152.9081  143.2538  160.8173 H   0  0  0  0  0  0  0  0  0  0  0  0
  152.9699  141.0550  159.6480 H   0  0  0  0  0  0  0  0  0  0  0  0
  152.4689  139.7941  157.8720 H   0  0  0  0  0  0  0  0  0  0  0  0
  152.3168  138.2808  156.6177 H   0  0  0  0  0  0  0  0  0  0  0  0
  151.2754  138.7568  153.8920 H   0  0  0  0  0  0  0  0  0  0  0  0
  152.2473  137.3909  154.4168 H   0  0  0  0  0  0  0  0  0  0  0  0
  149.7293  137.5211  155.9177 H   0  0  0  0  0  0  0  0  0  0  0  0
  149.4052  137.4790  154.2019 H   0  0  0  0  0  0  0  0  0  0  0  0
  151.1116  135.4803  154.1517 H   0  0  0  0  0  0  0  0  0  0  0  0
  151.9394  135.7037  156.4984 H   0  0  0  0  0  0  0  0  0  0  0  0
  150.3114  135.5077  157.1084 H   0  0  0  0  0  0  0  0  0  0  0  0
  151.9331  133.4252  155.5716 H   0  0  0  0  0  0  0  0  0  0  0  0
  151.4779  133.3450  157.2600 H   0  0  0  0  0  0  0  0  0  0  0  0
  149.9675  131.9589  155.7762 H   0  0  0  0  0  0  0  0  0  0  0  0
  149.0935  133.1828  156.6711 H   0  0  0  0  0  0  0  0  0  0  0  0
  149.9712  133.4026  153.7376 H   0  0  0  0  0  0  0  0  0  0  0  0
  148.3313  133.2144  154.3268 H   0  0  0  0  0  0  0  0  0  0  0  0
  150.7658  144.8296  157.4170 H   0  0  0  0  0  0  0  0  0  0  0  0
  1  2  1  0  0  0  0
  1 20  1  0  0  0  0
  1 21  1  0  0  0  0
  1 22  1  0  0  0  0
  2 19  1  0  0  0  0
  2  3  2  0  0  0  0
  3  4  1  0  0  0  0
  3 23  1  0  0  0  0
  4  5  2  0  0  0  0
  4 24  1  0  0  0  0
  5  6  1  0  0  0  0
  5 18  1  0  0  0  0
  6  7  1  0  0  0  0
  6 25  1  0  0  0  0
  7  8  2  0  0  0  0
  7  9  1  0  0  0  0
  9 10  1  0  0  0  0
  9 26  1  0  0  0  0
 10 11  1  0  0  0  0
 10 27  1  0  0  0  0
 10 28  1  0  0  0  0
 11 12  1  0  0  0  0
 11 29  1  0  0  0  0
 11 30  1  0  0  0  0
 12 17  1  0  0  0  0
 12 13  1  0  0  0  0
 12 31  1  0  0  0  0
 13 14  1  0  0  0  0
 13 32  1  0  0  0  0
 13 33  1  0  0  0  0
 14 15  1  0  0  0  0
 14 34  1  0  0  0  0
 14 35  1  0  0  0  0
 15 16  1  0  0  0  0
 15 36  1  0  0  0  0
 15 37  1  0  0  0  0
 16 17  1  0  0  0  0
 16 38  1  0  0  0  0
 16 39  1  0  0  0  0
 18 19  2  0  0  0  0
 19 40  1  0  0  0  0
M  END
> <s_m_source_file>
AV-unprocessed.smi

> <i_m_source_file_index>
2359

> <i_lp_mmshare_version>
43012

> <i_f3d_flags>
0

> <s_epik_input>
W0NIM11jMVtjSF1bY0hdYyhuW2NIXTEpW05IXUMoPU8pW05IXVtDSDJdW0NIMl1bQ0BASF0yW0NIMl1bQ0gyXVtDSDJdW0NIMl1PMg==

> <s_epik_cmdline>
J2VwaWtfcHl0aG9uJywgJy1waCcsICc3LjAnLCAnLXRuJywgJzgnLCAnLW1hJywgJzIwMCcsICctbWV0YWxfYmluZGluZycsICctaW1hZScsICc8aW5maWxlLm1hZT4nLCAnLW9tYWUnLCAnPG91dGZpbGUubWFlPic=

> <r_lp_tautomer_probability>
1

> <r_epik_Ionization_Penalty>
5.73679e-05

> <r_epik_Ionization_Penalty_Charging>
0

> <r_epik_Ionization_Penalty_Neutral>
5.73679e-05

> <r_epik_State_Penalty>
-0

> <r_epik_Charging_Adjusted_Penalty>
0

> <i_epik_Tot_Q>
0

> <i_epik_Tot_abs_Q>
0

> <r_epik_Metal_State_Penalty>
-0

> <b_epik_Metal_Only>
0

> <s_lp_Force_Field>
OPLS_2005

> <r_lp_Energy>
11.4199

> <b_lp_Chiralities_Consistent>
1

> <s_lp_Variant>
AV-unprocessed.smi:2359-2

> <Gold.Version>
5.8.1

> <Gold.Id.Protein>
6NUR|6NUR_protein|mol2

> <Gold.PLP.Fitness>
42.3543

> <Gold.PLP.PLP>
-38.2666

> <Gold.PLP.part.hbond>
-1.0000

> <Gold.PLP.part.metal>
0.0000

> <Gold.PLP.part.buried>
-5.4270

> <Gold.PLP.part.nonpolar>
-32.4115

> <Gold.PLP.part.repulsive>
0.7704

> <Gold.PLP.ligand.clash>
0.0000

> <Gold.PLP.ligand.torsion>
0.7076

> <Gold.PLP.Chemscore.Hbond>
0.8320

> <Gold.PLP.Chemscore.CHOScore>
1.0000

> <Gold.PLP.Chemscore.Metal>
0.0000

> <Gold.Chemscore.Hbonds>
donor molecule, donor type, donor heavy atom, donor atom, acceptor molecule, acceptor atom, score
      P1  H  7989  7998       L1     8  0.83
      L1  C    19    40       P1  8028  1.00

> <Gold.PLP.Chemscore.Internal.Correction>
0.0068

> <Gold.Rescore>
     Score         DG    S(hbond)    S(metal)    S(lipo)     H(rot)  DE(clash)    DE(int)     intcor
     13.84     -15.84       0.85        0.00      95.48       1.42       0.03       1.97       ----

> <Gold.Chemscore.Fitness>
13.8390

> <Gold.Chemscore.DG>
-15.8368

> <Gold.Chemscore.ZeroCoef>
-5.4800

> <Gold.Chemscore.Hbond>
0.8484

> <Gold.Chemscore.Metal>
0.0000

> <Gold.Chemscore.Lipo>
95.4773

> <Gold.Chemscore.Internal_Hbond>
0.0000

> <Gold.Chemscore.DEClash>
0.0285

> <Gold.Chemscore.DEInternal>
1.9693

> <Gold.Chemscore.Rot>
1.4248

> <Gold.Chemscore.Internal.Correction>
   9.000000E+99

> <Gold.Chemscore.Hbonds>
donor molecule, donor type, donor heavy atom, donor atom, acceptor molecule, acceptor atom, score
      P1  H  7989  7998       L1     8  0.76

> <Gold.Chemscore.Hbond.Weighted>
-2.8336

> <Gold.Chemscore.Metal.Weighted>
-0.0000

> <Gold.Chemscore.Lipo.Weighted>
-11.1708

> <Gold.Chemscore.Internal_Hbond.Weighted>
0.0000

> <Gold.Chemscore.DEClash.Weighted>
0.0285

> <Gold.Chemscore.DEInternal.Weighted>
1.9693

> <Gold.Chemscore.Rot.Weighted>
3.6476

> <Gold.Chemscore.Internal.Correction.Weighted>
   9.000000E+99

> <Gold.Protein.RotatedTorsions>
[ 6907 6896 6895 6894 ] final  -94.52 input  -60.11 | X-H torsion
[ 7974 7965 7964 7962 ] final -116.53 input  175.53 | X-H torsion
[ 8008 7997 7996 7995 ] final  102.08 input   59.86 | X-H torsion
[ 10167 10162 10161 10158 ] final   92.20 input  -65.29 | X-H torsion
[ 10718 10713 10712 10709 ] final  -81.28 input   66.30 | X-H torsion
[ 10763 10752 10751 10750 ] final  173.70 input  -60.55 | X-H torsion
[ 11005 11000 10999 10996 ] final  -75.27 input  -57.11 | X-H torsion

> <Gold.Protein.ActiveResidues>
 VAL166  LYS551  ARG553  GLY616  TRP617  ASP618  TYR619  PRO620  LYS621  CYS622 
 ASP623  PHE694  ASN695  SER759  ASP760  ASP761  ALA762  ILE779  LEU786  VAL792 
 PHE793  MET794  SER795  GLU796  ALA797  LYS798  CYS799  TRP800  GLU811  SER814 

> <Gold.Protein.RotatedAtoms>
  150.6943  134.1800  159.4244 H   0  0  0  0  0  0  0  0  0  0  0  0  # atno 6907 bound_to 6896
  151.9775  135.0043  160.0565 H   0  0  0  0  0  0  0  0  0  0  0  0  # atno 6908 bound_to 6896
  152.1785  133.4656  159.4983 H   0  0  0  0  0  0  0  0  0  0  0  0  # atno 6909 bound_to 6896
  145.0957  140.8519  143.3956 H   0  0  0  0  0  0  0  0  0  0  0  0  # atno 7974 bound_to 7965
  156.1359  140.3187  155.8421 H   0  0  0  0  0  0  0  0  0  0  0  0  # atno 8008 bound_to 7997
  155.4245  140.0514  157.3040 H   0  0  0  0  0  0  0  0  0  0  0  0  # atno 8009 bound_to 7997
  154.4937  140.2102  155.9506 H   0  0  0  0  0  0  0  0  0  0  0  0  # atno 8010 bound_to 7997
  139.8300  144.6691  150.9411 H   0  0  0  0  0  0  0  0  0  0  0  0  # atno 10167 bound_to 10162
  156.0053  130.4599  150.3929 H   0  0  0  0  0  0  0  0  0  0  0  0  # atno 10718 bound_to 10713
  154.4437  135.2763  155.1830 H   0  0  0  0  0  0  0  0  0  0  0  0  # atno 10763 bound_to 10752
  154.3686  135.6113  153.5731 H   0  0  0  0  0  0  0  0  0  0  0  0  # atno 10764 bound_to 10752
  152.9842  135.5852  154.4769 H   0  0  0  0  0  0  0  0  0  0  0  0  # atno 10765 bound_to 10752
  141.1644  133.6941  156.7492 H   0  0  0  0  0  0  0  0  0  0  0  0  # atno 11005 bound_to 11000
  145.1014  139.2820  143.5684 LP  0  0  0  0  0  0  0  0  0  0  0  0  # atno 17320 bound_to 7965
  146.3531  140.0582  142.8631 LP  0  0  0  0  0  0  0  0  0  0  0  0  # atno 17321 bound_to 7965
  140.7807  143.4010  151.1150 LP  0  0  0  0  0  0  0  0  0  0  0  0  # atno 17342 bound_to 10162
  139.7664  143.8559  152.3111 LP  0  0  0  0  0  0  0  0  0  0  0  0  # atno 17343 bound_to 10162
  157.2002  131.0436  151.2654 LP  0  0  0  0  0  0  0  0  0  0  0  0  # atno 17370 bound_to 10713
  157.3982  130.7319  149.6747 LP  0  0  0  0  0  0  0  0  0  0  0  0  # atno 17371 bound_to 10713
  140.2617  134.8462  157.3764 LP  0  0  0  0  0  0  0  0  0  0  0  0  # atno 17394 bound_to 11000
  140.1605  134.4735  155.7898 LP  0  0  0  0  0  0  0  0  0  0  0  0  # atno 17395 bound_to 11000

$$$$
