AV-unprocessed.smi:2217|AV-procd|sdf|8971|dock1
  -GOLD-   2272012183D 1   1.00000     0.00000
 Structure written by MMmdl.
 45 48  0  0  0  0  0  0  0  0  1 V2000
  141.8591  145.2450  161.1855 C   0  0  0  0  0  0  0  0  0  0  0  0
  143.1308  144.9021  160.4379 C   0  0  0  0  0  0  0  0  0  0  0  0
  143.5250  145.6256  159.2968 C   0  0  0  0  0  0  0  0  0  0  0  0
  144.7173  145.2617  158.6414 C   0  0  0  0  0  0  0  0  0  0  0  0
  145.4905  144.1887  159.1397 C   0  0  0  0  0  0  0  0  0  0  0  0
  146.6707  143.9120  158.3882 N   0  0  0  0  0  0  0  0  0  0  0  0
  147.4919  142.8403  158.3772 C   0  0  0  0  0  0  0  0  0  0  0  0
  147.2805  141.8708  159.1039 O   0  0  0  0  0  0  0  0  0  0  0  0
  148.5353  142.9006  157.5352 N   0  0  0  0  0  0  0  0  0  0  0  0
  149.5568  141.8693  157.3997 C   0  0  1  0  0  0  0  0  0  0  0  0
  150.0123  141.6840  155.9432 C   0  0  2  0  0  0  0  0  0  0  0  0
  149.7312  140.3896  155.2301 C   0  0  0  0  0  0  0  0  0  0  0  0
  151.0245  139.5965  155.4397 C   0  0  0  0  0  0  0  0  0  0  0  0
  151.6354  140.1956  156.5802 O   0  0  0  0  0  0  0  0  0  0  0  0
  151.4313  141.6034  156.4862 C   0  0  2  0  0  0  0  0  0  0  0  0
  150.9850  142.3315  157.7721 C   0  0  0  0  0  0  0  0  0  0  0  0
  151.5864  141.8571  159.0924 C   0  0  0  0  0  0  0  0  0  0  0  0
  152.8244  142.7183  159.3692 C   0  0  0  0  0  0  0  0  0  0  0  0
  152.6912  143.9474  158.4645 C   0  0  0  0  0  0  0  0  0  0  0  0
  151.3093  143.8273  157.8220 C   0  0  0  0  0  0  0  0  0  0  0  0
  145.0962  143.4953  160.2383 N   0  0  0  0  0  0  0  0  0  0  0  0
  143.9532  143.8431  160.8659 C   0  0  0  0  0  0  0  0  0  0  0  0
  141.4228  146.1743  160.8183 H   0  0  0  0  0  0  0  0  0  0  0  0
  142.0650  145.3629  162.2496 H   0  0  0  0  0  0  0  0  0  0  0  0
  141.1237  144.4495  161.0630 H   0  0  0  0  0  0  0  0  0  0  0  0
  142.9275  146.4454  158.9263 H   0  0  0  0  0  0  0  0  0  0  0  0
  145.0327  145.8070  157.7635 H   0  0  0  0  0  0  0  0  0  0  0  0
  146.9131  144.6276  157.7188 H   0  0  0  0  0  0  0  0  0  0  0  0
  148.6403  143.7311  156.9695 H   0  0  0  0  0  0  0  0  0  0  0  0
  149.2965  140.9175  157.8689 H   0  0  0  0  0  0  0  0  0  0  0  0
  149.8650  142.5809  155.3386 H   0  0  0  0  0  0  0  0  0  0  0  0
  148.8814  139.8742  155.6789 H   0  0  0  0  0  0  0  0  0  0  0  0
  149.5156  140.5331  154.1709 H   0  0  0  0  0  0  0  0  0  0  0  0
  150.8451  138.5323  155.5933 H   0  0  0  0  0  0  0  0  0  0  0  0
  151.6878  139.7113  154.5811 H   0  0  0  0  0  0  0  0  0  0  0  0
  152.1749  142.1145  155.8730 H   0  0  0  0  0  0  0  0  0  0  0  0
  150.8628  141.9979  159.8964 H   0  0  0  0  0  0  0  0  0  0  0  0
  151.8360  140.7961  159.0837 H   0  0  0  0  0  0  0  0  0  0  0  0
  152.8781  142.9965  160.4224 H   0  0  0  0  0  0  0  0  0  0  0  0
  153.7365  142.1717  159.1271 H   0  0  0  0  0  0  0  0  0  0  0  0
  152.8073  144.8828  159.0125 H   0  0  0  0  0  0  0  0  0  0  0  0
  153.4610  143.9186  157.6925 H   0  0  0  0  0  0  0  0  0  0  0  0
  151.2822  144.2973  156.8383 H   0  0  0  0  0  0  0  0  0  0  0  0
  150.5885  144.3568  158.4460 H   0  0  0  0  0  0  0  0  0  0  0  0
  143.6890  143.2577  161.7344 H   0  0  0  0  0  0  0  0  0  0  0  0
  1  2  1  0  0  0  0
  1 23  1  0  0  0  0
  1 24  1  0  0  0  0
  1 25  1  0  0  0  0
  2 22  1  0  0  0  0
  2  3  2  0  0  0  0
  3  4  1  0  0  0  0
  3 26  1  0  0  0  0
  4  5  2  0  0  0  0
  4 27  1  0  0  0  0
  5  6  1  0  0  0  0
  5 21  1  0  0  0  0
  6  7  1  0  0  0  0
  6 28  1  0  0  0  0
  7  8  2  0  0  0  0
  7  9  1  0  0  0  0
  9 10  1  0  0  0  0
  9 29  1  0  0  0  0
 10 16  1  0  0  0  0
 10 11  1  0  0  0  0
 10 30  1  0  0  0  0
 11 15  1  0  0  0  0
 11 12  1  0  0  0  0
 11 31  1  0  0  0  0
 12 13  1  0  0  0  0
 12 32  1  0  0  0  0
 12 33  1  0  0  0  0
 13 14  1  0  0  0  0
 13 34  1  0  0  0  0
 13 35  1  0  0  0  0
 14 15  1  0  0  0  0
 15 16  1  0  0  0  0
 15 36  1  0  0  0  0
 16 20  1  0  0  0  0
 16 17  1  0  0  0  0
 17 18  1  0  0  0  0
 17 37  1  0  0  0  0
 17 38  1  0  0  0  0
 18 19  1  0  0  0  0
 18 39  1  0  0  0  0
 18 40  1  0  0  0  0
 19 20  1  0  0  0  0
 19 41  1  0  0  0  0
 19 42  1  0  0  0  0
 20 43  1  0  0  0  0
 20 44  1  0  0  0  0
 21 22  2  0  0  0  0
 22 45  1  0  0  0  0
M  END
> <s_m_source_file>
AV-unprocessed.smi

> <i_m_source_file_index>
2217

> <i_lp_mmshare_version>
43012

> <i_f3d_flags>
0

> <s_epik_input>
W0NIM11jMVtjSF1bY0hdYyhuW2NIXTEpW05IXUMoPU8pW05IXVtDQEBIXTJbQ0BASF0oW0NIMl1bQ0gyXU8zKVtDQEhdM0MyNFtDSDJdW0NIMl1bQ0gyXVtDSDJdNA==

> <s_epik_cmdline>
J2VwaWtfcHl0aG9uJywgJy1waCcsICc3LjAnLCAnLXRuJywgJzgnLCAnLW1hJywgJzIwMCcsICctbWV0YWxfYmluZGluZycsICctaW1hZScsICc8aW5maWxlLm1hZT4nLCAnLW9tYWUnLCAnPG91dGZpbGUubWFlPic=

> <r_lp_tautomer_probability>
1

> <r_epik_Ionization_Penalty>
6.14796e-05

> <r_epik_Ionization_Penalty_Charging>
0

> <r_epik_Ionization_Penalty_Neutral>
6.14796e-05

> <r_epik_State_Penalty>
-0

> <r_epik_Charging_Adjusted_Penalty>
0

> <i_epik_Tot_Q>
0

> <i_epik_Tot_abs_Q>
0

> <r_epik_Metal_State_Penalty>
-0

> <b_epik_Metal_Only>
0

> <s_lp_Force_Field>
OPLS_2005

> <r_lp_Energy>
58.5604

> <b_lp_Chiralities_Consistent>
1

> <s_lp_Variant>
AV-unprocessed.smi:2217-4

> <Gold.Version>
5.8.1

> <Gold.Id.Protein>
6NUR|6NUR_protein|mol2

> <Gold.PLP.Fitness>
42.6998

> <Gold.PLP.PLP>
-36.0036

> <Gold.PLP.part.hbond>
-4.2892

> <Gold.PLP.part.metal>
0.0000

> <Gold.PLP.part.buried>
-2.3108

> <Gold.PLP.part.nonpolar>
-29.9510

> <Gold.PLP.part.repulsive>
0.1424

> <Gold.PLP.ligand.clash>
0.0000

> <Gold.PLP.ligand.torsion>
0.2128

> <Gold.PLP.Chemscore.Hbond>
2.3120

> <Gold.PLP.Chemscore.CHOScore>
0.0000

> <Gold.PLP.Chemscore.Metal>
0.0000

> <Gold.Chemscore.Hbonds>
donor molecule, donor type, donor heavy atom, donor atom, acceptor molecule, acceptor atom, score
      L1  H     6    28       P1  8029  0.95
      L1  H     9    29       P1  8028  0.80
      P1  H  6934  6946       L1     8  0.51

> <Gold.PLP.Chemscore.Internal.Correction>
0.1858

> <Gold.Rescore>
     Score         DG    S(hbond)    S(metal)    S(lipo)     H(rot)  DE(clash)    DE(int)     intcor
     19.07     -20.79       1.47        0.00     110.70       1.00       0.31       1.41       ----

> <Gold.Chemscore.Fitness>
19.0689

> <Gold.Chemscore.DG>
-20.7897

> <Gold.Chemscore.ZeroCoef>
-5.4800

> <Gold.Chemscore.Hbond>
1.4724

> <Gold.Chemscore.Metal>
0.0000

> <Gold.Chemscore.Lipo>
110.6991

> <Gold.Chemscore.Internal_Hbond>
0.0000

> <Gold.Chemscore.DEClash>
0.3089

> <Gold.Chemscore.DEInternal>
1.4119

> <Gold.Chemscore.Rot>
1.0000

> <Gold.Chemscore.Internal.Correction>
   9.000000E+99

> <Gold.Chemscore.Hbonds>
donor molecule, donor type, donor heavy atom, donor atom, acceptor molecule, acceptor atom, score
      L1  H     6    28       P1  8029  0.21
      L1  H     9    29       P1  8028  0.12
      P1  H  6934  6946       L1     8  0.50

> <Gold.Chemscore.Hbond.Weighted>
-4.9179

> <Gold.Chemscore.Metal.Weighted>
-0.0000

> <Gold.Chemscore.Lipo.Weighted>
-12.9518

> <Gold.Chemscore.Internal_Hbond.Weighted>
0.0000

> <Gold.Chemscore.DEClash.Weighted>
0.3089

> <Gold.Chemscore.DEInternal.Weighted>
1.4119

> <Gold.Chemscore.Rot.Weighted>
2.5600

> <Gold.Chemscore.Internal.Correction.Weighted>
   9.000000E+99

> <Gold.Protein.RotatedTorsions>
[ 6907 6896 6895 6894 ] final -138.05 input  -60.11 | X-H torsion
[ 7974 7965 7964 7962 ] final   16.39 input  175.53 | X-H torsion
[ 8008 7997 7996 7995 ] final -116.39 input   59.86 | X-H torsion
[ 10167 10162 10161 10158 ] final -113.19 input  -65.29 | X-H torsion
[ 10718 10713 10712 10709 ] final -121.24 input   66.30 | X-H torsion
[ 10763 10752 10751 10750 ] final -166.57 input  -60.55 | X-H torsion
[ 11005 11000 10999 10996 ] final   35.76 input  -57.11 | X-H torsion

> <Gold.Protein.ActiveResidues>
 VAL166  LYS551  ARG553  GLY616  TRP617  ASP618  TYR619  PRO620  LYS621  CYS622 
 ASP623  PHE694  ASN695  SER759  ASP760  ASP761  ALA762  ILE779  LEU786  VAL792 
 PHE793  MET794  SER795  GLU796  ALA797  LYS798  CYS799  TRP800  GLU811  SER814 

> <Gold.Protein.RotatedAtoms>
  151.0301  133.5798  159.2661 H   0  0  0  0  0  0  0  0  0  0  0  0  # atno 6907 bound_to 6896
  151.2882  135.0733  159.9204 H   0  0  0  0  0  0  0  0  0  0  0  0  # atno 6908 bound_to 6896
  152.5343  134.0004  159.7946 H   0  0  0  0  0  0  0  0  0  0  0  0  # atno 6909 bound_to 6896
  146.2251  139.8755  142.8580 H   0  0  0  0  0  0  0  0  0  0  0  0  # atno 7974 bound_to 7965
  155.0671  140.0393  157.2596 H   0  0  0  0  0  0  0  0  0  0  0  0  # atno 8008 bound_to 7997
  154.7012  140.2673  155.6693 H   0  0  0  0  0  0  0  0  0  0  0  0  # atno 8009 bound_to 7997
  156.2761  140.2740  156.1624 H   0  0  0  0  0  0  0  0  0  0  0  0  # atno 8010 bound_to 7997
  140.1146  143.4497  152.1731 H   0  0  0  0  0  0  0  0  0  0  0  0  # atno 10167 bound_to 10162
  156.1321  130.6403  150.9638 H   0  0  0  0  0  0  0  0  0  0  0  0  # atno 10718 bound_to 10713
  154.6820  135.2956  154.9600 H   0  0  0  0  0  0  0  0  0  0  0  0  # atno 10763 bound_to 10752
  154.0592  135.6634  153.4813 H   0  0  0  0  0  0  0  0  0  0  0  0  # atno 10764 bound_to 10752
  153.0553  135.5148  154.7868 H   0  0  0  0  0  0  0  0  0  0  0  0  # atno 10765 bound_to 10752
  140.2394  134.3433  155.7932 H   0  0  0  0  0  0  0  0  0  0  0  0  # atno 11005 bound_to 11000
  145.2565  141.0062  143.3851 LP  0  0  0  0  0  0  0  0  0  0  0  0  # atno 17320 bound_to 7965
  144.9333  139.4273  143.6484 LP  0  0  0  0  0  0  0  0  0  0  0  0  # atno 17321 bound_to 7965
  139.5601  144.7400  151.4180 LP  0  0  0  0  0  0  0  0  0  0  0  0  # atno 17342 bound_to 10162
  140.6907  143.7869  150.7251 LP  0  0  0  0  0  0  0  0  0  0  0  0  # atno 17343 bound_to 10162
  157.6498  131.0898  150.8075 LP  0  0  0  0  0  0  0  0  0  0  0  0  # atno 17370 bound_to 10713
  156.8159  130.4968  149.5349 LP  0  0  0  0  0  0  0  0  0  0  0  0  # atno 17371 bound_to 10713
  141.2212  133.7290  156.8860 LP  0  0  0  0  0  0  0  0  0  0  0  0  # atno 17394 bound_to 11000
  140.1669  134.9127  157.2785 LP  0  0  0  0  0  0  0  0  0  0  0  0  # atno 17395 bound_to 11000

$$$$
