AV-unprocessed.smi:30|AV-procd|sdf|193|dock3
  -GOLD-   2262015463D 1   1.00000     0.00000
 Structure written by MMmdl.
 54 57  0  0  0  0  0  0  0  0  1 V2000
  147.8325  138.0583  154.2131 O   0  0  0  0  0  0  0  0  0  0  0  0
  147.6461  137.3721  155.2191 C   0  0  0  0  0  0  0  0  0  0  0  0
  146.5924  136.2531  155.2158 C   0  0  0  0  0  0  0  0  0  0  0  0
  146.9229  135.1304  154.3102 N   0  0  0  0  0  0  0  0  0  0  0  0
  147.9598  134.2422  154.6876 C   0  0  0  0  0  0  0  0  0  0  0  0
  148.5561  134.3740  155.7577 O   0  0  0  0  0  0  0  0  0  0  0  0
  148.2726  133.1959  153.7225 C   0  0  0  0  0  0  0  0  0  0  0  0
  149.2761  132.3379  153.9730 F   0  0  0  0  0  0  0  0  0  0  0  0
  147.5817  133.0856  152.5694 C   0  0  0  0  0  0  0  0  0  0  0  0
  146.5324  133.9242  152.2354 N   0  0  0  0  0  0  0  0  0  0  0  0
  145.8428  133.8385  150.8888 C   0  0  2  0  0  0  0  0  0  0  0  0
  144.3198  133.6345  150.9722 C   0  0  0  0  0  0  0  0  0  0  0  0
  144.1677  132.1734  150.5969 C   0  0  0  0  0  0  0  0  0  0  0  0
  145.3348  131.9806  149.6366 C   0  0  0  0  0  0  0  0  0  0  0  0
  146.3866  132.7475  150.2078 O   0  0  0  0  0  0  0  0  0  0  0  0
  146.2233  135.0111  153.0851 C   0  0  0  0  0  0  0  0  0  0  0  0
  145.3654  135.8378  152.7674 O   0  0  0  0  0  0  0  0  0  0  0  0
  148.2921  137.5435  156.3868 N   0  0  0  0  0  0  0  0  0  0  0  0
  149.3303  138.4623  156.6986 C   0  0  0  0  0  0  0  0  0  0  0  0
  149.8927  138.3919  157.9884 C   0  0  0  0  0  0  0  0  0  0  0  0
  150.9409  139.2559  158.3581 C   0  0  0  0  0  0  0  0  0  0  0  0
  151.4571  140.1973  157.4456 C   0  0  0  0  0  0  0  0  0  0  0  0
  152.4852  141.0014  157.8895 O   0  0  0  0  0  0  0  0  0  0  0  0
  152.5549  141.3016  159.2769 C   0  0  0  0  0  0  0  0  0  0  0  0
  152.3094  142.7750  159.5335 C   0  0  0  0  0  0  0  0  0  0  0  0
  152.2102  143.6696  158.4474 C   0  0  0  0  0  0  0  0  0  0  0  0
  151.9880  145.0414  158.6778 C   0  0  0  0  0  0  0  0  0  0  0  0
  151.8656  145.5235  159.9954 C   0  0  0  0  0  0  0  0  0  0  0  0
  151.9657  144.6335  161.0823 C   0  0  0  0  0  0  0  0  0  0  0  0
  152.1886  143.2617  160.8525 C   0  0  0  0  0  0  0  0  0  0  0  0
  150.9022  140.2572  156.1430 C   0  0  0  0  0  0  0  0  0  0  0  0
  149.8525  139.3948  155.7716 C   0  0  0  0  0  0  0  0  0  0  0  0
  146.4605  135.8925  156.2375 H   0  0  0  0  0  0  0  0  0  0  0  0
  145.6260  136.6935  154.9662 H   0  0  0  0  0  0  0  0  0  0  0  0
  147.8838  132.3064  151.8883 H   0  0  0  0  0  0  0  0  0  0  0  0
  146.0689  134.7718  150.3711 H   0  0  0  0  0  0  0  0  0  0  0  0
  143.8954  133.9098  151.9375 H   0  0  0  0  0  0  0  0  0  0  0  0
  143.8525  134.2606  150.2110 H   0  0  0  0  0  0  0  0  0  0  0  0
  144.2930  131.5335  151.4704 H   0  0  0  0  0  0  0  0  0  0  0  0
  143.2024  131.9467  150.1445 H   0  0  0  0  0  0  0  0  0  0  0  0
  145.6182  130.9346  149.5200 H   0  0  0  0  0  0  0  0  0  0  0  0
  145.0918  132.3828  148.6517 H   0  0  0  0  0  0  0  0  0  0  0  0
  147.9644  136.9820  157.1593 H   0  0  0  0  0  0  0  0  0  0  0  0
  149.5183  137.6757  158.7054 H   0  0  0  0  0  0  0  0  0  0  0  0
  151.3559  139.1925  159.3534 H   0  0  0  0  0  0  0  0  0  0  0  0
  151.8195  140.7105  159.8255 H   0  0  0  0  0  0  0  0  0  0  0  0
  153.5424  141.0505  159.6669 H   0  0  0  0  0  0  0  0  0  0  0  0
  152.3041  143.3042  157.4352 H   0  0  0  0  0  0  0  0  0  0  0  0
  151.9116  145.7235  157.8439 H   0  0  0  0  0  0  0  0  0  0  0  0
  151.6952  146.5753  160.1721 H   0  0  0  0  0  0  0  0  0  0  0  0
  151.8715  145.0027  162.0928 H   0  0  0  0  0  0  0  0  0  0  0  0
  152.2644  142.5865  161.6923 H   0  0  0  0  0  0  0  0  0  0  0  0
  151.2685  140.9540  155.4048 H   0  0  0  0  0  0  0  0  0  0  0  0
  149.4743  139.4562  154.7628 H   0  0  0  0  0  0  0  0  0  0  0  0
  1  2  2  0  0  0  0
  2  3  1  0  0  0  0
  2 18  1  0  0  0  0
  3  4  1  0  0  0  0
  3 33  1  0  0  0  0
  3 34  1  0  0  0  0
  4 16  1  0  0  0  0
  4  5  1  0  0  0  0
  5  6  2  0  0  0  0
  5  7  1  0  0  0  0
  7  8  1  0  0  0  0
  7  9  2  0  0  0  0
  9 10  1  0  0  0  0
  9 35  1  0  0  0  0
 10 11  1  0  0  0  0
 10 16  1  0  0  0  0
 11 15  1  0  0  0  0
 11 12  1  0  0  0  0
 11 36  1  0  0  0  0
 12 13  1  0  0  0  0
 12 37  1  0  0  0  0
 12 38  1  0  0  0  0
 13 14  1  0  0  0  0
 13 39  1  0  0  0  0
 13 40  1  0  0  0  0
 14 15  1  0  0  0  0
 14 41  1  0  0  0  0
 14 42  1  0  0  0  0
 16 17  2  0  0  0  0
 18 19  1  0  0  0  0
 18 43  1  0  0  0  0
 19 32  1  0  0  0  0
 19 20  2  0  0  0  0
 20 21  1  0  0  0  0
 20 44  1  0  0  0  0
 21 22  2  0  0  0  0
 21 45  1  0  0  0  0
 22 23  1  0  0  0  0
 22 31  1  0  0  0  0
 23 24  1  0  0  0  0
 24 25  1  0  0  0  0
 24 46  1  0  0  0  0
 24 47  1  0  0  0  0
 25 30  1  0  0  0  0
 25 26  2  0  0  0  0
 26 27  1  0  0  0  0
 26 48  1  0  0  0  0
 27 28  2  0  0  0  0
 27 49  1  0  0  0  0
 28 29  1  0  0  0  0
 28 50  1  0  0  0  0
 29 30  2  0  0  0  0
 29 51  1  0  0  0  0
 30 52  1  0  0  0  0
 31 32  2  0  0  0  0
 31 53  1  0  0  0  0
 32 54  1  0  0  0  0
M  END
> <s_m_source_file>
AV-unprocessed.smi

> <i_m_source_file_index>
30

> <i_lp_mmshare_version>
43012

> <i_f3d_flags>
0

> <s_epik_input>
TzFbQ0gyXVtDSDJdW0NIMl1bQ0BIXTFuKGMyPU8pW2NIXWMoRiljKD1PKW4yW0NIMl1DKD1PKVtOSF1jM1tjSF1bY0hdYyhbY0hdW2NIXTMpT1tDSDJdYzRbY0hdW2NIXVtjSF1bY0hdW2NIXTQ=

> <s_epik_cmdline>
J2VwaWtfcHl0aG9uJywgJy1waCcsICc3LjAnLCAnLXRuJywgJzgnLCAnLW1hJywgJzIwMCcsICctbWV0YWxfYmluZGluZycsICctaW1hZScsICc8aW5maWxlLm1hZT4nLCAnLW9tYWUnLCAnPG91dGZpbGUubWFlPic=

> <r_lp_tautomer_probability>
1

> <r_epik_Ionization_Penalty>
1.04818e-05

> <r_epik_Ionization_Penalty_Charging>
3.88729e-08

> <r_epik_Ionization_Penalty_Neutral>
1.04429e-05

> <r_epik_State_Penalty>
-0

> <r_epik_Charging_Adjusted_Penalty>
3.88729e-08

> <i_epik_Tot_Q>
0

> <i_epik_Tot_abs_Q>
0

> <r_epik_Metal_State_Penalty>
-0

> <b_epik_Metal_Only>
0

> <s_epik_Chemistry_Notes>
This compound contains an acetal/aminal-like group ( X-CH(R)-Y where X, Y are N, S, or O) that may be acid/base labile, releasing an aldehyde.

> <s_lp_Force_Field>
OPLS_2005

> <r_lp_Energy>
43.3432

> <b_lp_Chiralities_Consistent>
1

> <s_lp_Variant>
AV-unprocessed.smi:30-1

> <Gold.Version>
5.8.1

> <Gold.Id.Protein>
6NUR|6NUR_protein|mol2

> <Gold.PLP.Fitness>
57.9911

> <Gold.PLP.PLP>
-56.6651

> <Gold.PLP.part.hbond>
-0.6843

> <Gold.PLP.part.metal>
0.0000

> <Gold.PLP.part.buried>
-4.9405

> <Gold.PLP.part.nonpolar>
-51.5248

> <Gold.PLP.part.repulsive>
0.4997

> <Gold.PLP.ligand.clash>
0.0000

> <Gold.PLP.ligand.torsion>
1.0333

> <Gold.PLP.Chemscore.Hbond>
0.0000

> <Gold.PLP.Chemscore.CHOScore>
1.0000

> <Gold.PLP.Chemscore.Metal>
0.0000

> <Gold.Chemscore.Hbonds>
donor molecule, donor type, donor heavy atom, donor atom, acceptor molecule, acceptor atom, score
      L1  C     9    35       P1 10747  1.00

> <Gold.PLP.Chemscore.Internal.Correction>
0.3926

> <Gold.Rescore>
     Score         DG    S(hbond)    S(metal)    S(lipo)     H(rot)  DE(clash)    DE(int)     intcor
     14.39     -17.04       0.00        0.00     146.78       2.20       0.23       2.42       ----

> <Gold.Chemscore.Fitness>
14.3851

> <Gold.Chemscore.DG>
-17.0350

> <Gold.Chemscore.ZeroCoef>
-5.4800

> <Gold.Chemscore.Hbond>
0.0004

> <Gold.Chemscore.Metal>
0.0000

> <Gold.Chemscore.Lipo>
146.7799

> <Gold.Chemscore.Internal_Hbond>
0.0000

> <Gold.Chemscore.DEClash>
0.2345

> <Gold.Chemscore.DEInternal>
2.4153

> <Gold.Chemscore.Rot>
2.1952

> <Gold.Chemscore.Internal.Correction>
   9.000000E+99

> <Gold.Chemscore.Hbond.Weighted>
-0.0014

> <Gold.Chemscore.Metal.Weighted>
-0.0000

> <Gold.Chemscore.Lipo.Weighted>
-17.1733

> <Gold.Chemscore.Internal_Hbond.Weighted>
0.0000

> <Gold.Chemscore.DEClash.Weighted>
0.2345

> <Gold.Chemscore.DEInternal.Weighted>
2.4153

> <Gold.Chemscore.Rot.Weighted>
5.6196

> <Gold.Chemscore.Internal.Correction.Weighted>
   9.000000E+99

> <Gold.Protein.RotatedTorsions>
[ 6907 6896 6895 6894 ] final  117.89 input  -60.11 | X-H torsion
[ 7974 7965 7964 7962 ] final   84.62 input  175.53 | X-H torsion
[ 8008 7997 7996 7995 ] final -144.24 input   59.86 | X-H torsion
[ 10167 10162 10161 10158 ] final  -16.92 input  -65.29 | X-H torsion
[ 10718 10713 10712 10709 ] final  -22.80 input   66.30 | X-H torsion
[ 10763 10752 10751 10750 ] final -104.20 input  -60.55 | X-H torsion
[ 11005 11000 10999 10996 ] final -148.98 input  -57.11 | X-H torsion

> <Gold.Protein.ActiveResidues>
 VAL166  LYS551  ARG553  GLY616  TRP617  ASP618  TYR619  PRO620  LYS621  CYS622 
 ASP623  PHE694  ASN695  SER759  ASP760  ASP761  ALA762  ILE779  LEU786  VAL792 
 PHE793  MET794  SER795  GLU796  ALA797  LYS798  CYS799  TRP800  GLU811  SER814 

> <Gold.Protein.RotatedAtoms>
  152.4581  133.7765  159.6827 H   0  0  0  0  0  0  0  0  0  0  0  0  # atno 6907 bound_to 6896
  150.8515  133.7770  159.3030 H   0  0  0  0  0  0  0  0  0  0  0  0  # atno 6908 bound_to 6896
  151.5364  135.1071  159.9967 H   0  0  0  0  0  0  0  0  0  0  0  0  # atno 6909 bound_to 6896
  145.5964  139.2345  143.2270 H   0  0  0  0  0  0  0  0  0  0  0  0  # atno 7974 bound_to 7965
  155.5237  140.0593  157.2902 H   0  0  0  0  0  0  0  0  0  0  0  0  # atno 8008 bound_to 7997
  154.4508  140.1948  156.0470 H   0  0  0  0  0  0  0  0  0  0  0  0  # atno 8009 bound_to 7997
  156.0701  140.3261  155.7569 H   0  0  0  0  0  0  0  0  0  0  0  0  # atno 8010 bound_to 7997
  140.7240  143.5067  150.9801 H   0  0  0  0  0  0  0  0  0  0  0  0  # atno 10167 bound_to 10162
  156.4996  130.4585  149.6708 H   0  0  0  0  0  0  0  0  0  0  0  0  # atno 10718 bound_to 10713
  154.7862  135.4795  153.9951 H   0  0  0  0  0  0  0  0  0  0  0  0  # atno 10763 bound_to 10752
  153.1563  135.6800  153.8814 H   0  0  0  0  0  0  0  0  0  0  0  0  # atno 10764 bound_to 10752
  153.8442  135.3175  155.3406 H   0  0  0  0  0  0  0  0  0  0  0  0  # atno 10765 bound_to 10752
  140.7556  134.3357  157.5115 H   0  0  0  0  0  0  0  0  0  0  0  0  # atno 11005 bound_to 11000
  146.1609  140.6789  142.9278 LP  0  0  0  0  0  0  0  0  0  0  0  0  # atno 17320 bound_to 7965
  144.7329  140.4724  143.6925 LP  0  0  0  0  0  0  0  0  0  0  0  0  # atno 17321 bound_to 7965
  139.8779  143.7109  152.3160 LP  0  0  0  0  0  0  0  0  0  0  0  0  # atno 17342 bound_to 10162
  139.7381  144.7566  151.0695 LP  0  0  0  0  0  0  0  0  0  0  0  0  # atno 17343 bound_to 10162
  156.3346  130.7349  151.2285 LP  0  0  0  0  0  0  0  0  0  0  0  0  # atno 17370 bound_to 10713
  157.7464  131.0420  150.4676 LP  0  0  0  0  0  0  0  0  0  0  0  0  # atno 17371 bound_to 10713
  139.8780  134.9169  156.3166 LP  0  0  0  0  0  0  0  0  0  0  0  0  # atno 17394 bound_to 11000
  140.9711  133.7327  156.0536 LP  0  0  0  0  0  0  0  0  0  0  0  0  # atno 17395 bound_to 11000

$$$$
