AV-unprocessed.smi:798|AV-procd|sdf|3783|dock6
  -GOLD-   22720 1213D 1   1.00000     0.00000
 Structure written by MMmdl.
 33 35  0  0  0  0  0  0  0  0  2 V2000
  148.8458  138.2855  159.2815 O   0  0  0  0  0  0  0  0  0  0  0  0
  149.2756  137.2671  158.7350 C   0  0  0  0  0  0  0  0  0  0  0  0
  149.2425  136.0124  159.2386 N   0  5  0  0  0  0  0  0  0  0  0  0
  148.5317  135.7532  160.3484 C   0  0  0  0  0  0  0  0  0  0  0  0
  148.3345  136.6736  161.3060 N   0  0  0  0  0  0  0  0  0  0  0  0
  147.5767  136.2018  162.3693 N   0  0  0  0  0  0  0  0  0  0  0  0
  147.2286  134.9278  162.1899 C   0  0  0  0  0  0  0  0  0  0  0  0
  147.7958  134.1887  160.7073 S   0  0  0  0  0  0  0  0  0  0  0  0
  149.8516  137.3468  157.5268 N   0  0  0  0  0  0  0  0  0  0  0  0
  150.0345  138.5639  156.7334 C   0  0  2  0  0  0  0  0  0  0  0  0
  148.6731  139.2520  156.4937 C   0  0  1  0  0  0  0  0  0  0  0  0
  148.9154  140.6953  156.0161 C   0  0  0  0  0  0  0  0  0  0  0  0
  149.4451  140.4880  154.5842 C   0  0  0  0  0  0  0  0  0  0  0  0
  149.4310  138.9538  154.4309 C   0  0  2  0  0  0  0  0  0  0  0  0
  148.1798  138.5827  155.2166 C   0  0  0  0  0  0  0  0  0  0  0  0
  150.5679  138.3400  155.2851 C   0  0  2  0  0  0  0  0  0  0  0  0
  150.9034  136.8810  154.8989 C   0  0  0  0  0  0  0  0  0  0  0  0
  151.7885  136.8500  153.7987 O   0  0  0  0  0  0  0  0  0  0  0  0
  146.6370  134.4195  162.9366 H   0  0  0  0  0  0  0  0  0  0  0  0
  150.1894  136.4866  157.1210 H   0  0  0  0  0  0  0  0  0  0  0  0
  150.6918  139.2437  157.2794 H   0  0  0  0  0  0  0  0  0  0  0  0
  147.9889  139.1900  157.3411 H   0  0  0  0  0  0  0  0  0  0  0  0
  147.9829  141.2607  156.0011 H   0  0  0  0  0  0  0  0  0  0  0  0
  149.6215  141.2325  156.6504 H   0  0  0  0  0  0  0  0  0  0  0  0
  148.7775  140.9555  153.8594 H   0  0  0  0  0  0  0  0  0  0  0  0
  150.4399  140.9116  154.4417 H   0  0  0  0  0  0  0  0  0  0  0  0
  149.4294  138.6300  153.3898 H   0  0  0  0  0  0  0  0  0  0  0  0
  148.0296  137.5072  155.3194 H   0  0  0  0  0  0  0  0  0  0  0  0
  147.2687  139.0317  154.8172 H   0  0  0  0  0  0  0  0  0  0  0  0
  151.4794  138.9254  155.1530 H   0  0  0  0  0  0  0  0  0  0  0  0
  151.3933  136.3693  155.7272 H   0  0  0  0  0  0  0  0  0  0  0  0
  150.0057  136.3140  154.6515 H   0  0  0  0  0  0  0  0  0  0  0  0
  151.2867  136.6699  153.0185 H   0  0  0  0  0  0  0  0  0  0  0  0
  1  2  2  0  0  0  0
  2  3  1  0  0  0  0
  2  9  1  0  0  0  0
  3  4  1  0  0  0  0
  4  8  1  0  0  0  0
  4  5  2  0  0  0  0
  5  6  1  0  0  0  0
  6  7  2  0  0  0  0
  7  8  1  0  0  0  0
  7 19  1  0  0  0  0
  9 10  1  0  0  0  0
  9 20  1  0  0  0  0
 10 16  1  0  0  0  0
 10 11  1  0  0  0  0
 10 21  1  0  0  0  0
 11 15  1  0  0  0  0
 11 12  1  0  0  0  0
 11 22  1  0  0  0  0
 12 13  1  0  0  0  0
 12 23  1  0  0  0  0
 12 24  1  0  0  0  0
 13 14  1  0  0  0  0
 13 25  1  0  0  0  0
 13 26  1  0  0  0  0
 14 15  1  0  0  0  0
 14 16  1  0  0  0  0
 14 27  1  0  0  0  0
 15 28  1  0  0  0  0
 15 29  1  0  0  0  0
 16 17  1  0  0  0  0
 16 30  1  0  0  0  0
 17 18  1  0  0  0  0
 17 31  1  0  0  0  0
 17 32  1  0  0  0  0
 18 33  1  0  0  0  0
M  CHG  1   3  -1
M  END
> <s_m_source_file>
AV-unprocessed.smi

> <i_m_source_file_index>
798

> <i_lp_mmshare_version>
43012

> <i_f3d_flags>
0

> <s_epik_input>
W0NIMl0xW0NIMl1bQ0BASF0oW0NIMl0yKVtDQEBIXShbQ0gyXVtPSF0pW0NAQEhdKFtDQEhdMTIpW05IXUMoPU8pW05IXWMzbm5bY0hdczM=

> <s_epik_cmdline>
J2VwaWtfcHl0aG9uJywgJy1waCcsICc3LjAnLCAnLXRuJywgJzgnLCAnLW1hJywgJzIwMCcsICctbWV0YWxfYmluZGluZycsICctaW1hZScsICc8aW5maWxlLm1hZT4nLCAnLW9tYWUnLCAnPG91dGZpbGUubWFlPic=

> <r_lp_tautomer_probability>
1

> <r_epik_Ionization_Penalty>
4.53732

> <r_epik_Ionization_Penalty_Charging>
4.48632

> <r_epik_Ionization_Penalty_Neutral>
0.0510007

> <r_epik_State_Penalty>
4.48602

> <r_epik_Charging_Adjusted_Penalty>
8.97234

> <i_epik_Tot_Q>
-1

> <i_epik_Tot_abs_Q>
1

> <r_epik_Metal_State_Penalty>
0.812492

> <b_epik_Metal_Only>
1

> <s_lp_Force_Field>
OPLS_2005

> <r_lp_Energy>
47.4456

> <b_lp_Chiralities_Consistent>
1

> <s_lp_Variant>
AV-unprocessed.smi:798-15

> <Gold.Version>
5.8.1

> <Gold.Id.Protein>
6NUR|6NUR_protein|mol2

> <Gold.PLP.Fitness>
38.8324

> <Gold.PLP.PLP>
-24.7066

> <Gold.PLP.part.hbond>
-5.9899

> <Gold.PLP.part.metal>
0.0000

> <Gold.PLP.part.buried>
-3.9679

> <Gold.PLP.part.nonpolar>
-16.3517

> <Gold.PLP.part.repulsive>
0.0460

> <Gold.PLP.ligand.clash>
0.0000

> <Gold.PLP.ligand.torsion>
0.4585

> <Gold.PLP.Chemscore.Hbond>
5.0073

> <Gold.PLP.Chemscore.CHOScore>
0.0000

> <Gold.PLP.Chemscore.Metal>
0.0000

> <Gold.Chemscore.Hbonds>
donor molecule, donor type, donor heavy atom, donor atom, acceptor molecule, acceptor atom, score
      L1  H    18    33       P1  7949  0.99
      P1  H  6896  6908       L1     3  1.60
      P1  H  6931  6943       L1     5  1.00
      P1  H 10752 10764       L1    18  0.99

> <Gold.PLP.Chemscore.Internal.Correction>
0.0210

> <Gold.Rescore>
     Score         DG    S(hbond)    S(metal)    S(lipo)     H(rot)  DE(clash)    DE(int)     intcor
     11.51     -15.59       2.85        0.00      47.11       1.92       0.83       3.24       ----

> <Gold.Chemscore.Fitness>
11.5114

> <Gold.Chemscore.DG>
-15.5863

> <Gold.Chemscore.ZeroCoef>
-5.4800

> <Gold.Chemscore.Hbond>
2.8478

> <Gold.Chemscore.Metal>
0.0000

> <Gold.Chemscore.Lipo>
47.1078

> <Gold.Chemscore.Internal_Hbond>
0.0000

> <Gold.Chemscore.DEClash>
0.8305

> <Gold.Chemscore.DEInternal>
3.2444

> <Gold.Chemscore.Rot>
1.9207

> <Gold.Chemscore.Internal.Correction>
   9.000000E+99

> <Gold.Chemscore.Hbonds>
donor molecule, donor type, donor heavy atom, donor atom, acceptor molecule, acceptor atom, score
      L1  H    18    33       P1  7949  0.66
      P1  H  6896  6908       L1     3  0.11
      P1  H  6931  6943       L1     5  0.50
      P1  H  6934  6947       L1     1  0.01
      P1  H 10752 10764       L1    18  0.23

> <Gold.Chemscore.Hbond.Weighted>
-9.5115

> <Gold.Chemscore.Metal.Weighted>
-0.0000

> <Gold.Chemscore.Lipo.Weighted>
-5.5116

> <Gold.Chemscore.Internal_Hbond.Weighted>
0.0000

> <Gold.Chemscore.DEClash.Weighted>
0.8305

> <Gold.Chemscore.DEInternal.Weighted>
3.2444

> <Gold.Chemscore.Rot.Weighted>
4.9169

> <Gold.Chemscore.Internal.Correction.Weighted>
   9.000000E+99

> <Gold.Protein.RotatedTorsions>
[ 6907 6896 6895 6894 ] final -178.29 input  -60.11 | X-H torsion
[ 7974 7965 7964 7962 ] final  121.95 input  175.53 | X-H torsion
[ 8008 7997 7996 7995 ] final -113.93 input   59.86 | X-H torsion
[ 10167 10162 10161 10158 ] final  -55.12 input  -65.29 | X-H torsion
[ 10718 10713 10712 10709 ] final -119.45 input   66.30 | X-H torsion
[ 10763 10752 10751 10750 ] final  -70.69 input  -60.55 | X-H torsion
[ 11005 11000 10999 10996 ] final  -92.75 input  -57.11 | X-H torsion

> <Gold.Protein.ActiveResidues>
 VAL166  LYS551  ARG553  GLY616  TRP617  ASP618  TYR619  PRO620  LYS621  CYS622 
 ASP623  PHE694  ASN695  SER759  ASP760  ASP761  ALA762  ILE779  LEU786  VAL792 
 PHE793  MET794  SER795  GLU796  ALA797  LYS798  CYS799  TRP800  GLU811  SER814 

> <Gold.Protein.RotatedAtoms>
  151.6348  133.3329  159.3116 H   0  0  0  0  0  0  0  0  0  0  0  0  # atno 6907 bound_to 6896
  150.8038  134.7153  159.6636 H   0  0  0  0  0  0  0  0  0  0  0  0  # atno 6908 bound_to 6896
  152.4132  134.6092  160.0072 H   0  0  0  0  0  0  0  0  0  0  0  0  # atno 6909 bound_to 6896
  145.1133  139.3438  143.4752 H   0  0  0  0  0  0  0  0  0  0  0  0  # atno 7974 bound_to 7965
  155.0284  140.0393  157.2464 H   0  0  0  0  0  0  0  0  0  0  0  0  # atno 8008 bound_to 7997
  154.7317  140.2732  155.6426 H   0  0  0  0  0  0  0  0  0  0  0  0  # atno 8009 bound_to 7997
  156.2843  140.2683  156.2019 H   0  0  0  0  0  0  0  0  0  0  0  0  # atno 8010 bound_to 7997
  140.6392  143.2498  151.5035 H   0  0  0  0  0  0  0  0  0  0  0  0  # atno 10167 bound_to 10162
  156.1182  130.6302  150.9418 H   0  0  0  0  0  0  0  0  0  0  0  0  # atno 10718 bound_to 10713
  154.4212  135.5986  153.6011 H   0  0  0  0  0  0  0  0  0  0  0  0  # atno 10763 bound_to 10752
  152.9794  135.5953  154.3952 H   0  0  0  0  0  0  0  0  0  0  0  0  # atno 10764 bound_to 10752
  154.3778  135.2841  155.2207 H   0  0  0  0  0  0  0  0  0  0  0  0  # atno 10765 bound_to 10752
  141.1514  133.7842  157.0064 H   0  0  0  0  0  0  0  0  0  0  0  0  # atno 11005 bound_to 11000
  146.3525  140.1062  142.8606 LP  0  0  0  0  0  0  0  0  0  0  0  0  # atno 17320 bound_to 7965
  145.0822  140.9228  143.4819 LP  0  0  0  0  0  0  0  0  0  0  0  0  # atno 17321 bound_to 7965
  139.5602  144.2176  152.1678 LP  0  0  0  0  0  0  0  0  0  0  0  0  # atno 17342 bound_to 10162
  140.1442  144.5174  150.6726 LP  0  0  0  0  0  0  0  0  0  0  0  0  # atno 17343 bound_to 10162
  157.6366  131.0915  150.8337 LP  0  0  0  0  0  0  0  0  0  0  0  0  # atno 17370 bound_to 10713
  156.8437  130.5056  149.5318 LP  0  0  0  0  0  0  0  0  0  0  0  0  # atno 17371 bound_to 10713
  140.0906  134.9594  157.1770 LP  0  0  0  0  0  0  0  0  0  0  0  0  # atno 17394 bound_to 11000
  140.3451  134.2661  155.7206 LP  0  0  0  0  0  0  0  0  0  0  0  0  # atno 17395 bound_to 11000

$$$$
