AV-unprocessed.smi:2227|AV-procd|sdf|9022|dock3
  -GOLD-   2272012223D 1   1.00000     0.00000
 Structure written by MMmdl.
 42 44  0  0  0  0  0  0  0  0  1 V2000
  151.4238  137.0488  156.1019 C   0  0  0  0  0  0  0  0  0  0  0  0
  152.0527  138.3000  155.4726 C   0  0  0  0  0  0  0  0  0  0  0  0
  153.4700  138.5610  156.0032 C   0  0  0  0  0  0  0  0  0  0  0  0
  151.1642  139.5032  155.6393 C   0  0  0  0  0  0  0  0  0  0  0  0
  150.6906  140.2042  154.6117 N   0  0  0  0  0  0  0  0  0  0  0  0
  149.9501  141.2312  155.1838 C   0  0  0  0  0  0  0  0  0  0  0  0
  150.0055  141.1220  156.5510 C   0  0  0  0  0  0  0  0  0  0  0  0
  150.7935  140.0129  156.8353 N   0  0  0  0  0  0  0  0  0  0  0  0
  151.1216  139.5433  158.1739 C   0  0  0  0  0  0  0  0  0  0  0  0
  152.2568  140.3616  158.7951 C   0  0  0  0  0  0  0  0  0  0  0  0
  153.4174  139.9574  158.7275 O   0  0  0  0  0  0  0  0  0  0  0  0
  151.9029  141.5041  159.4040 N   0  0  0  0  0  0  0  0  0  0  0  0
  152.8062  142.4212  160.0898 C   0  0  0  0  0  0  0  0  0  0  0  0
  152.6680  142.3077  161.5971 C   0  0  0  0  0  0  0  0  0  0  0  0
  152.9709  143.4737  162.5084 C   0  0  0  0  0  0  0  0  0  0  0  0
  153.8832  142.2681  162.4921 C   0  0  0  0  0  0  0  0  0  0  0  0
  152.6178  143.8648  159.6516 C   0  0  0  0  0  0  0  0  0  0  0  0
  151.2470  144.4319  159.3648 C   0  0  0  0  0  0  0  0  0  0  0  0
  152.2248  144.2112  158.2343 C   0  0  0  0  0  0  0  0  0  0  0  0
  150.4454  136.8432  155.6663 H   0  0  0  0  0  0  0  0  0  0  0  0
  151.2902  137.1687  157.1776 H   0  0  0  0  0  0  0  0  0  0  0  0
  152.0488  136.1703  155.9402 H   0  0  0  0  0  0  0  0  0  0  0  0
  152.1640  138.0911  154.4106 H   0  0  0  0  0  0  0  0  0  0  0  0
  153.9240  139.4164  155.5019 H   0  0  0  0  0  0  0  0  0  0  0  0
  154.1169  137.6994  155.8356 H   0  0  0  0  0  0  0  0  0  0  0  0
  153.4634  138.7665  157.0742 H   0  0  0  0  0  0  0  0  0  0  0  0
  149.4418  141.9630  154.5736 H   0  0  0  0  0  0  0  0  0  0  0  0
  149.5653  141.7308  157.3270 H   0  0  0  0  0  0  0  0  0  0  0  0
  150.2378  139.6333  158.8065 H   0  0  0  0  0  0  0  0  0  0  0  0
  151.3678  138.4816  158.1325 H   0  0  0  0  0  0  0  0  0  0  0  0
  150.9242  141.7517  159.4055 H   0  0  0  0  0  0  0  0  0  0  0  0
  153.8305  142.1327  159.8438 H   0  0  0  0  0  0  0  0  0  0  0  0
  151.8367  141.6768  161.9074 H   0  0  0  0  0  0  0  0  0  0  0  0
  153.3510  144.3894  162.0603 H   0  0  0  0  0  0  0  0  0  0  0  0
  152.3319  143.6102  163.3784 H   0  0  0  0  0  0  0  0  0  0  0  0
  153.8530  141.5998  163.3502 H   0  0  0  0  0  0  0  0  0  0  0  0
  154.8602  142.3898  162.0295 H   0  0  0  0  0  0  0  0  0  0  0  0
  153.3222  144.5509  160.1182 H   0  0  0  0  0  0  0  0  0  0  0  0
  150.3931  143.7602  159.4221 H   0  0  0  0  0  0  0  0  0  0  0  0
  151.0541  145.4577  159.6722 H   0  0  0  0  0  0  0  0  0  0  0  0
  152.6851  145.0895  157.7869 H   0  0  0  0  0  0  0  0  0  0  0  0
  152.0118  143.3948  157.5475 H   0  0  0  0  0  0  0  0  0  0  0  0
  1  2  1  0  0  0  0
  1 20  1  0  0  0  0
  1 21  1  0  0  0  0
  1 22  1  0  0  0  0
  2  3  1  0  0  0  0
  2  4  1  0  0  0  0
  2 23  1  0  0  0  0
  3 24  1  0  0  0  0
  3 25  1  0  0  0  0
  3 26  1  0  0  0  0
  4  8  1  0  0  0  0
  4  5  2  0  0  0  0
  5  6  1  0  0  0  0
  6  7  2  0  0  0  0
  6 27  1  0  0  0  0
  7  8  1  0  0  0  0
  7 28  1  0  0  0  0
  8  9  1  0  0  0  0
  9 10  1  0  0  0  0
  9 29  1  0  0  0  0
  9 30  1  0  0  0  0
 10 11  2  0  0  0  0
 10 12  1  0  0  0  0
 12 13  1  0  0  0  0
 12 31  1  0  0  0  0
 13 14  1  0  0  0  0
 13 17  1  0  0  0  0
 13 32  1  0  0  0  0
 14 16  1  0  0  0  0
 14 15  1  0  0  0  0
 14 33  1  0  0  0  0
 15 16  1  0  0  0  0
 15 34  1  0  0  0  0
 15 35  1  0  0  0  0
 16 36  1  0  0  0  0
 16 37  1  0  0  0  0
 17 19  1  0  0  0  0
 17 18  1  0  0  0  0
 17 38  1  0  0  0  0
 18 19  1  0  0  0  0
 18 39  1  0  0  0  0
 18 40  1  0  0  0  0
 19 41  1  0  0  0  0
 19 42  1  0  0  0  0
M  END
> <s_m_source_file>
AV-unprocessed.smi

> <i_m_source_file_index>
2227

> <i_lp_mmshare_version>
43012

> <i_f3d_flags>
0

> <s_epik_input>
W0NIM11bQ0hdKFtDSDNdKWMxbltjSF1bY0hdbjFbQ0gyXUMoPU8pW05IXVtDSF0oW0NIXTJbQ0gyXVtDSDJdMilbQ0hdM1tDSDJdW0NIMl0z

> <s_epik_cmdline>
J2VwaWtfcHl0aG9uJywgJy1waCcsICc3LjAnLCAnLXRuJywgJzgnLCAnLW1hJywgJzIwMCcsICctbWV0YWxfYmluZGluZycsICctaW1hZScsICc8aW5maWxlLm1hZT4nLCAnLW9tYWUnLCAnPG91dGZpbGUubWFlPic=

> <r_lp_tautomer_probability>
1

> <r_epik_Ionization_Penalty>
0.615412

> <r_epik_Ionization_Penalty_Charging>
0.615412

> <r_epik_Ionization_Penalty_Neutral>
4.7269e-08

> <r_epik_State_Penalty>
0.630977

> <r_epik_Charging_Adjusted_Penalty>
1.24639

> <i_epik_Tot_Q>
0

> <i_epik_Tot_abs_Q>
0

> <r_epik_Metal_State_Penalty>
0.305199

> <b_epik_Metal_Only>
0

> <s_lp_Force_Field>
OPLS_2005

> <r_lp_Energy>
23.5493

> <b_lp_Chiralities_Consistent>
1

> <s_lp_Variant>
AV-unprocessed.smi:2227-2

> <Gold.Version>
5.8.1

> <Gold.Id.Protein>
6NUR|6NUR_protein|mol2

> <Gold.PLP.Fitness>
51.1041

> <Gold.PLP.PLP>
-46.1389

> <Gold.PLP.part.hbond>
-1.9877

> <Gold.PLP.part.metal>
0.0000

> <Gold.PLP.part.buried>
-2.5338

> <Gold.PLP.part.nonpolar>
-41.5633

> <Gold.PLP.part.repulsive>
0.2761

> <Gold.PLP.ligand.clash>
0.0000

> <Gold.PLP.ligand.torsion>
2.2889

> <Gold.PLP.Chemscore.Hbond>
1.6528

> <Gold.PLP.Chemscore.CHOScore>
0.7743

> <Gold.PLP.Chemscore.Metal>
0.0000

> <Gold.Chemscore.Hbonds>
donor molecule, donor type, donor heavy atom, donor atom, acceptor molecule, acceptor atom, score
      P1  H  7989  7998       L1     5  1.00
      P1  H  7997  8010       L1    11  0.57

> <Gold.PLP.Chemscore.Internal.Correction>
2.2618

> <Gold.Rescore>
     Score         DG    S(hbond)    S(metal)    S(lipo)     H(rot)  DE(clash)    DE(int)     intcor
     15.98     -18.84       1.23        0.00     115.40       1.66       0.17       2.68       ----

> <Gold.Chemscore.Fitness>
15.9844

> <Gold.Chemscore.DG>
-18.8427

> <Gold.Chemscore.ZeroCoef>
-5.4800

> <Gold.Chemscore.Hbond>
1.2327

> <Gold.Chemscore.Metal>
0.0000

> <Gold.Chemscore.Lipo>
115.4030

> <Gold.Chemscore.Internal_Hbond>
0.0000

> <Gold.Chemscore.DEClash>
0.1740

> <Gold.Chemscore.DEInternal>
2.6843

> <Gold.Chemscore.Rot>
1.6627

> <Gold.Chemscore.Internal.Correction>
   9.000000E+99

> <Gold.Chemscore.Hbonds>
donor molecule, donor type, donor heavy atom, donor atom, acceptor molecule, acceptor atom, score
      P1  H  7989  7998       L1     5  0.59
      P1  H  7997  8010       L1    11  0.55

> <Gold.Chemscore.Hbond.Weighted>
-4.1171

> <Gold.Chemscore.Metal.Weighted>
-0.0000

> <Gold.Chemscore.Lipo.Weighted>
-13.5021

> <Gold.Chemscore.Internal_Hbond.Weighted>
0.0000

> <Gold.Chemscore.DEClash.Weighted>
0.1740

> <Gold.Chemscore.DEInternal.Weighted>
2.6843

> <Gold.Chemscore.Rot.Weighted>
4.2565

> <Gold.Chemscore.Internal.Correction.Weighted>
   9.000000E+99

> <Gold.Protein.RotatedTorsions>
[ 6907 6896 6895 6894 ] final  124.78 input  -60.11 | X-H torsion
[ 7974 7965 7964 7962 ] final  -88.14 input  175.53 | X-H torsion
[ 8008 7997 7996 7995 ] final   47.44 input   59.86 | X-H torsion
[ 10167 10162 10161 10158 ] final  -32.34 input  -65.29 | X-H torsion
[ 10718 10713 10712 10709 ] final   28.75 input   66.30 | X-H torsion
[ 10763 10752 10751 10750 ] final  -23.54 input  -60.55 | X-H torsion
[ 11005 11000 10999 10996 ] final -164.69 input  -57.11 | X-H torsion

> <Gold.Protein.ActiveResidues>
 VAL166  LYS551  ARG553  GLY616  TRP617  ASP618  TYR619  PRO620  LYS621  CYS622 
 ASP623  PHE694  ASN695  SER759  ASP760  ASP761  ALA762  ILE779  LEU786  VAL792 
 PHE793  MET794  SER795  GLU796  ALA797  LYS798  CYS799  TRP800  GLU811  SER814 

> <Gold.Protein.RotatedAtoms>
  152.4049  133.6874  159.6347 H   0  0  0  0  0  0  0  0  0  0  0  0  # atno 6907 bound_to 6896
  150.7935  133.8726  159.3272 H   0  0  0  0  0  0  0  0  0  0  0  0  # atno 6908 bound_to 6896
  151.6483  135.1006  160.0207 H   0  0  0  0  0  0  0  0  0  0  0  0  # atno 6909 bound_to 6896
  145.4571  140.9561  143.1990 H   0  0  0  0  0  0  0  0  0  0  0  0  # atno 7974 bound_to 7965
  155.3690  140.3423  155.4242 H   0  0  0  0  0  0  0  0  0  0  0  0  # atno 8008 bound_to 7997
  156.1672  140.1620  156.8544 H   0  0  0  0  0  0  0  0  0  0  0  0  # atno 8009 bound_to 7997
  154.5197  140.0770  156.8131 H   0  0  0  0  0  0  0  0  0  0  0  0  # atno 8010 bound_to 7997
  140.7223  143.3702  151.1793 H   0  0  0  0  0  0  0  0  0  0  0  0  # atno 10167 bound_to 10162
  157.2375  130.7053  149.6343 H   0  0  0  0  0  0  0  0  0  0  0  0  # atno 10718 bound_to 10713
  153.6694  135.6972  153.5152 H   0  0  0  0  0  0  0  0  0  0  0  0  # atno 10763 bound_to 10752
  153.2569  135.4257  155.0854 H   0  0  0  0  0  0  0  0  0  0  0  0  # atno 10764 bound_to 10752
  154.8430  135.3545  154.6239 H   0  0  0  0  0  0  0  0  0  0  0  0  # atno 10765 bound_to 10752
  140.5841  134.5112  157.5183 H   0  0  0  0  0  0  0  0  0  0  0  0  # atno 11005 bound_to 11000
  144.8026  139.6112  143.7065 LP  0  0  0  0  0  0  0  0  0  0  0  0  # atno 17320 bound_to 7965
  146.2472  139.6123  142.9451 LP  0  0  0  0  0  0  0  0  0  0  0  0  # atno 17321 bound_to 7965
  139.7272  143.9130  152.3006 LP  0  0  0  0  0  0  0  0  0  0  0  0  # atno 17342 bound_to 10162
  139.8907  144.6967  150.8774 LP  0  0  0  0  0  0  0  0  0  0  0  0  # atno 17343 bound_to 10162
  155.9672  130.4469  150.5558 LP  0  0  0  0  0  0  0  0  0  0  0  0  # atno 17370 bound_to 10713
  157.3413  131.0717  151.1786 LP  0  0  0  0  0  0  0  0  0  0  0  0  # atno 17371 bound_to 10713
  139.9304  134.7975  156.0948 LP  0  0  0  0  0  0  0  0  0  0  0  0  # atno 17394 bound_to 11000
  141.0977  133.6689  156.2684 LP  0  0  0  0  0  0  0  0  0  0  0  0  # atno 17395 bound_to 11000

$$$$
