AV-unprocessed.smi:1380|AV-procd|sdf|5601|dock5
  -GOLD-   22720 5203D 1   1.00000     0.00000
 Structure written by MMmdl.
 34 35  0  0  0  0  0  0  0  0  2 V2000
  150.5045  136.9280  159.0996 O   0  0  0  0  0  0  0  0  0  0  0  0
  149.4450  137.5222  158.9014 C   0  0  0  0  0  0  0  0  0  0  0  0
  149.3435  138.6557  158.1933 N   0  0  0  0  0  0  0  0  0  0  0  0
  150.4614  139.3477  157.5577 C   0  0  0  0  0  0  0  0  0  0  0  0
  151.3291  140.1444  158.5536 C   0  0  0  0  0  0  0  0  0  0  0  0
  151.2731  141.6477  158.3431 C   0  0  0  0  0  0  0  0  0  0  0  0
  152.1636  142.5015  159.0301 C   0  0  0  0  0  0  0  0  0  0  0  0
  152.0928  143.8936  158.8134 C   0  0  0  0  0  0  0  0  0  0  0  0
  151.1321  144.4002  157.9143 C   0  0  0  0  0  0  0  0  0  0  0  0
  150.2963  143.5524  157.2748 N   0  3  0  0  0  0  0  0  0  0  0  0
  150.3317  142.2140  157.4556 C   0  0  0  0  0  0  0  0  0  0  0  0
  148.2590  137.1253  159.3817 N   0  0  0  0  0  0  0  0  0  0  0  0
  148.0563  135.9543  160.2246 C   0  0  0  0  0  0  0  0  0  0  0  0
  147.1243  136.1699  161.4020 C   0  0  0  0  0  0  0  0  0  0  0  0
  147.6330  136.1131  162.8240 C   0  0  0  0  0  0  0  0  0  0  0  0
  146.7447  135.0131  162.2966 C   0  0  0  0  0  0  0  0  0  0  0  0
  148.4286  139.0681  158.0822 H   0  0  0  0  0  0  0  0  0  0  0  0
  151.0759  138.6347  157.0059 H   0  0  0  0  0  0  0  0  0  0  0  0
  150.0418  140.0288  156.8170 H   0  0  0  0  0  0  0  0  0  0  0  0
  151.0209  139.9200  159.5756 H   0  0  0  0  0  0  0  0  0  0  0  0
  152.3662  139.8159  158.4785 H   0  0  0  0  0  0  0  0  0  0  0  0
  152.8942  142.0951  159.7146 H   0  0  0  0  0  0  0  0  0  0  0  0
  152.7658  144.5625  159.3298 H   0  0  0  0  0  0  0  0  0  0  0  0
  151.0079  145.4494  157.6888 H   0  0  0  0  0  0  0  0  0  0  0  0
  149.6152  141.6408  156.8848 H   0  0  0  0  0  0  0  0  0  0  0  0
  147.4422  137.6759  159.1606 H   0  0  0  0  0  0  0  0  0  0  0  0
  147.6354  135.1667  159.5993 H   0  0  0  0  0  0  0  0  0  0  0  0
  149.0178  135.5797  160.5804 H   0  0  0  0  0  0  0  0  0  0  0  0
  146.3280  136.8850  161.2038 H   0  0  0  0  0  0  0  0  0  0  0  0
  148.6839  135.8775  162.9790 H   0  0  0  0  0  0  0  0  0  0  0  0
  147.2020  136.8110  163.5387 H   0  0  0  0  0  0  0  0  0  0  0  0
  145.7209  134.9750  162.6629 H   0  0  0  0  0  0  0  0  0  0  0  0
  147.2068  134.0472  162.1021 H   0  0  0  0  0  0  0  0  0  0  0  0
  149.6083  143.9396  156.6283 H   0  0  0  0  0  0  0  0  0  0  0  0
  1  2  2  0  0  0  0
  2  3  1  0  0  0  0
  2 12  1  0  0  0  0
  3  4  1  0  0  0  0
  3 17  1  0  0  0  0
  4  5  1  0  0  0  0
  4 18  1  0  0  0  0
  4 19  1  0  0  0  0
  5  6  1  0  0  0  0
  5 20  1  0  0  0  0
  5 21  1  0  0  0  0
  6 11  1  0  0  0  0
  6  7  2  0  0  0  0
  7  8  1  0  0  0  0
  7 22  1  0  0  0  0
  8  9  2  0  0  0  0
  8 23  1  0  0  0  0
  9 10  1  0  0  0  0
  9 24  1  0  0  0  0
 10 11  2  0  0  0  0
 10 34  1  0  0  0  0
 11 25  1  0  0  0  0
 12 13  1  0  0  0  0
 12 26  1  0  0  0  0
 13 14  1  0  0  0  0
 13 27  1  0  0  0  0
 13 28  1  0  0  0  0
 14 16  1  0  0  0  0
 14 15  1  0  0  0  0
 14 29  1  0  0  0  0
 15 16  1  0  0  0  0
 15 30  1  0  0  0  0
 15 31  1  0  0  0  0
 16 32  1  0  0  0  0
 16 33  1  0  0  0  0
M  CHG  1  10   1
M  END
> <s_m_source_file>
AV-unprocessed.smi

> <i_m_source_file_index>
1380

> <i_lp_mmshare_version>
43012

> <i_f3d_flags>
0

> <s_epik_input>
W0NIMl0xW0NIMl1bQ0hdMVtDSDJdW05IXUMoPU8pW05IXVtDSDJdW0NIMl1jMltjSF1bY0hdW2NIXW5bY0hdMg==

> <s_epik_cmdline>
J2VwaWtfcHl0aG9uJywgJy1waCcsICc3LjAnLCAnLXRuJywgJzgnLCAnLW1hJywgJzIwMCcsICctbWV0YWxfYmluZGluZycsICctaW1hZScsICc8aW5maWxlLm1hZT4nLCAnLW9tYWUnLCAnPG91dGZpbGUubWFlPic=

> <r_epik_Ionization_Penalty>
2.21218

> <r_epik_Ionization_Penalty_Charging>
2.21212

> <r_epik_Ionization_Penalty_Neutral>
5.76468e-05

> <r_epik_State_Penalty>
2.35642

> <r_epik_Charging_Adjusted_Penalty>
4.56854

> <i_epik_Tot_Q>
1

> <i_epik_Tot_abs_Q>
1

> <r_epik_Metal_State_Penalty>
2.37048

> <b_epik_Metal_Only>
0

> <s_lp_Force_Field>
OPLS_2005

> <r_lp_Energy>
16.6962

> <b_lp_Chiralities_Consistent>
1

> <s_lp_Variant>
AV-unprocessed.smi:1380-2

> <Gold.Version>
5.8.1

> <Gold.Id.Protein>
6NUR|6NUR_protein|mol2

> <Gold.PLP.Fitness>
46.1349

> <Gold.PLP.PLP>
-38.6606

> <Gold.PLP.part.hbond>
-2.0000

> <Gold.PLP.part.metal>
0.0000

> <Gold.PLP.part.buried>
-5.3159

> <Gold.PLP.part.nonpolar>
-32.2416

> <Gold.PLP.part.repulsive>
0.3713

> <Gold.PLP.ligand.clash>
0.0000

> <Gold.PLP.ligand.torsion>
1.0437

> <Gold.PLP.Chemscore.Hbond>
3.0000

> <Gold.PLP.Chemscore.CHOScore>
0.0000

> <Gold.PLP.Chemscore.Metal>
0.0000

> <Gold.Chemscore.Hbonds>
donor molecule, donor type, donor heavy atom, donor atom, acceptor molecule, acceptor atom, score
      L1  H    10    34       P1  8028  1.50
      P1  H  6896  6909       L1     1  0.81

> <Gold.PLP.Chemscore.Internal.Correction>
0.5617

> <Gold.Rescore>
     Score         DG    S(hbond)    S(metal)    S(lipo)     H(rot)  DE(clash)    DE(int)     intcor
     17.98     -19.20       1.99        0.00      99.94       1.80       0.01       1.21       ----

> <Gold.Chemscore.Fitness>
17.9835

> <Gold.Chemscore.DG>
-19.2038

> <Gold.Chemscore.ZeroCoef>
-5.4800

> <Gold.Chemscore.Hbond>
1.9913

> <Gold.Chemscore.Metal>
0.0000

> <Gold.Chemscore.Lipo>
99.9392

> <Gold.Chemscore.Internal_Hbond>
0.0000

> <Gold.Chemscore.DEClash>
0.0067

> <Gold.Chemscore.DEInternal>
1.2137

> <Gold.Chemscore.Rot>
1.8047

> <Gold.Chemscore.Internal.Correction>
   9.000000E+99

> <Gold.Chemscore.Hbonds>
donor molecule, donor type, donor heavy atom, donor atom, acceptor molecule, acceptor atom, score
      L1  H    10    34       P1  8028  0.72
      P1  H  6896  6909       L1     1  0.78

> <Gold.Chemscore.Hbond.Weighted>
-6.6509

> <Gold.Chemscore.Metal.Weighted>
-0.0000

> <Gold.Chemscore.Lipo.Weighted>
-11.6929

> <Gold.Chemscore.Internal_Hbond.Weighted>
0.0000

> <Gold.Chemscore.DEClash.Weighted>
0.0067

> <Gold.Chemscore.DEInternal.Weighted>
1.2137

> <Gold.Chemscore.Rot.Weighted>
4.6199

> <Gold.Chemscore.Internal.Correction.Weighted>
   9.000000E+99

> <Gold.Protein.RotatedTorsions>
[ 6907 6896 6895 6894 ] final  102.67 input  -60.11 | X-H torsion
[ 7974 7965 7964 7962 ] final   -2.19 input  175.53 | X-H torsion
[ 8008 7997 7996 7995 ] final   23.77 input   59.86 | X-H torsion
[ 10167 10162 10161 10158 ] final  -55.20 input  -65.29 | X-H torsion
[ 10718 10713 10712 10709 ] final  -49.38 input   66.30 | X-H torsion
[ 10763 10752 10751 10750 ] final  159.96 input  -60.55 | X-H torsion
[ 11005 11000 10999 10996 ] final -138.58 input  -57.11 | X-H torsion

> <Gold.Protein.ActiveResidues>
 VAL166  LYS551  ARG553  GLY616  TRP617  ASP618  TYR619  PRO620  LYS621  CYS622 
 ASP623  PHE694  ASN695  SER759  ASP760  ASP761  ALA762  ILE779  LEU786  VAL792 
 PHE793  MET794  SER795  GLU796  ALA797  LYS798  CYS799  TRP800  GLU811  SER814 

> <Gold.Protein.RotatedAtoms>
  152.5317  133.9941  159.7864 H   0  0  0  0  0  0  0  0  0  0  0  0  # atno 6907 bound_to 6896
  151.0172  133.5902  159.2682 H   0  0  0  0  0  0  0  0  0  0  0  0  # atno 6908 bound_to 6896
  151.2955  135.0761  159.9273 H   0  0  0  0  0  0  0  0  0  0  0  0  # atno 6909 bound_to 6896
  146.2408  140.1534  142.8333 H   0  0  0  0  0  0  0  0  0  0  0  0  # atno 7974 bound_to 7965
  154.9860  140.3108  155.4926 H   0  0  0  0  0  0  0  0  0  0  0  0  # atno 8008 bound_to 7997
  156.2947  140.2258  156.4902 H   0  0  0  0  0  0  0  0  0  0  0  0  # atno 8009 bound_to 7997
  154.7746  140.0450  157.1067 H   0  0  0  0  0  0  0  0  0  0  0  0  # atno 8010 bound_to 7997
  140.6388  143.2496  151.5045 H   0  0  0  0  0  0  0  0  0  0  0  0  # atno 10167 bound_to 10162
  156.1898  130.4152  149.9387 H   0  0  0  0  0  0  0  0  0  0  0  0  # atno 10718 bound_to 10713
  154.2400  135.2775  155.2857 H   0  0  0  0  0  0  0  0  0  0  0  0  # atno 10763 bound_to 10752
  154.5553  135.5663  153.6962 H   0  0  0  0  0  0  0  0  0  0  0  0  # atno 10764 bound_to 10752
  153.0002  135.6284  154.2544 H   0  0  0  0  0  0  0  0  0  0  0  0  # atno 10765 bound_to 10752
  140.8602  134.2178  157.4711 H   0  0  0  0  0  0  0  0  0  0  0  0  # atno 11005 bound_to 11000
  145.0149  140.8745  143.5202 LP  0  0  0  0  0  0  0  0  0  0  0  0  # atno 17320 bound_to 7965
  145.1573  139.2479  143.5410 LP  0  0  0  0  0  0  0  0  0  0  0  0  # atno 17321 bound_to 7965
  139.5598  144.2186  152.1672 LP  0  0  0  0  0  0  0  0  0  0  0  0  # atno 17342 bound_to 10162
  140.1450  144.5167  150.6721 LP  0  0  0  0  0  0  0  0  0  0  0  0  # atno 17343 bound_to 10162
  156.7131  130.8978  151.3611 LP  0  0  0  0  0  0  0  0  0  0  0  0  # atno 17370 bound_to 10713
  157.6922  130.9245  150.0545 LP  0  0  0  0  0  0  0  0  0  0  0  0  # atno 17371 bound_to 10713
  139.8706  134.9726  156.4778 LP  0  0  0  0  0  0  0  0  0  0  0  0  # atno 17394 bound_to 11000
  140.8691  133.8001  155.9346 LP  0  0  0  0  0  0  0  0  0  0  0  0  # atno 17395 bound_to 11000

$$$$
