AV-unprocessed.smi:3154|AV-procd|sdf|12021|dock5
  -GOLD-   2272017433D 1   1.00000     0.00000
 Structure written by MMmdl.
 35 36  0  0  0  0  0  0  0  0  2 V2000
  147.1061  141.7437  155.1372 C   0  0  0  0  0  0  0  0  0  0  0  0
  148.4567  141.5080  154.4404 C   0  0  2  0  0  0  0  0  0  0  0  0
  148.7691  140.0047  154.2538 C   0  0  0  0  0  0  0  0  0  0  0  0
  147.6864  139.2737  153.6204 N   0  0  0  0  0  0  0  0  0  0  0  0
  146.9437  138.2273  154.1259 C   0  0  0  0  0  0  0  0  0  0  0  0
  146.0527  137.8585  153.1592 C   0  0  0  0  0  0  0  0  0  0  0  0
  146.3350  138.7448  152.0824 C   0  0  0  0  0  0  0  0  0  0  0  0
  147.3165  139.5878  152.3602 N   0  0  0  0  0  0  0  0  0  0  0  0
  149.5279  142.1820  155.2067 N   0  3  0  0  0  0  0  0  0  0  0  0
  149.7880  141.6279  156.5538 C   0  0  0  0  0  0  0  0  0  0  0  0
  151.0512  142.2136  157.1874 C   0  0  0  0  0  0  0  0  0  0  0  0
  151.9443  141.4756  157.6054 O   0  0  0  0  0  0  0  0  0  0  0  0
  151.1115  143.5520  157.2417 N   0  0  0  0  0  0  0  0  0  0  0  0
  152.1956  144.3126  157.7744 C   0  0  0  0  0  0  0  0  0  0  0  0
  152.7301  143.9206  159.1348 C   0  0  0  0  0  0  0  0  0  0  0  0
  151.9167  145.1764  158.9857 C   0  0  0  0  0  0  0  0  0  0  0  0
  146.2774  141.3414  154.5538 H   0  0  0  0  0  0  0  0  0  0  0  0
  146.9155  142.8088  155.2722 H   0  0  0  0  0  0  0  0  0  0  0  0
  147.0795  141.2737  156.1208 H   0  0  0  0  0  0  0  0  0  0  0  0
  148.4014  141.9838  153.4599 H   0  0  0  0  0  0  0  0  0  0  0  0
  149.6614  139.8618  153.6442 H   0  0  0  0  0  0  0  0  0  0  0  0
  148.9759  139.5423  155.2199 H   0  0  0  0  0  0  0  0  0  0  0  0
  147.1072  137.8365  155.1195 H   0  0  0  0  0  0  0  0  0  0  0  0
  145.3131  137.0734  153.2113 H   0  0  0  0  0  0  0  0  0  0  0  0
  145.8604  138.7986  151.1136 H   0  0  0  0  0  0  0  0  0  0  0  0
  150.3858  142.0943  154.6810 H   0  0  0  0  0  0  0  0  0  0  0  0
  148.9471  141.8343  157.2154 H   0  0  0  0  0  0  0  0  0  0  0  0
  149.8929  140.5444  156.4853 H   0  0  0  0  0  0  0  0  0  0  0  0
  150.3315  144.0762  156.8718 H   0  0  0  0  0  0  0  0  0  0  0  0
  152.9260  144.7058  157.0686 H   0  0  0  0  0  0  0  0  0  0  0  0
  152.2643  143.0783  159.6429 H   0  0  0  0  0  0  0  0  0  0  0  0
  153.7992  144.0321  159.3045 H   0  0  0  0  0  0  0  0  0  0  0  0
  152.4425  146.1264  159.0573 H   0  0  0  0  0  0  0  0  0  0  0  0
  150.9082  145.1714  159.3948 H   0  0  0  0  0  0  0  0  0  0  0  0
  149.3081  143.1642  155.2896 H   0  0  0  0  0  0  0  0  0  0  0  0
  1  2  1  0  0  0  0
  1 17  1  0  0  0  0
  1 18  1  0  0  0  0
  1 19  1  0  0  0  0
  2  3  1  0  0  0  0
  2  9  1  0  0  0  0
  2 20  1  0  0  0  0
  3  4  1  0  0  0  0
  3 21  1  0  0  0  0
  3 22  1  0  0  0  0
  4  8  1  0  0  0  0
  4  5  1  0  0  0  0
  5  6  2  0  0  0  0
  5 23  1  0  0  0  0
  6  7  1  0  0  0  0
  6 24  1  0  0  0  0
  7  8  2  0  0  0  0
  7 25  1  0  0  0  0
  9 10  1  0  0  0  0
  9 26  1  0  0  0  0
  9 35  1  0  0  0  0
 10 11  1  0  0  0  0
 10 27  1  0  0  0  0
 10 28  1  0  0  0  0
 11 12  2  0  0  0  0
 11 13  1  0  0  0  0
 13 14  1  0  0  0  0
 13 29  1  0  0  0  0
 14 16  1  0  0  0  0
 14 15  1  0  0  0  0
 14 30  1  0  0  0  0
 15 16  1  0  0  0  0
 15 31  1  0  0  0  0
 15 32  1  0  0  0  0
 16 33  1  0  0  0  0
 16 34  1  0  0  0  0
M  CHG  1   9   1
M  END
> <s_m_source_file>
AV-unprocessed.smi

> <i_m_source_file_index>
3154

> <i_lp_mmshare_version>
43012

> <i_f3d_flags>
0

> <s_epik_input>
bjFbY0hdW2NIXVtjSF1uMVtDSDJdW0NAQEhdKFtDSDNdKVtOSF1bQ0gyXUMoPU8pW05IXVtDSF0yW0NIMl1bQ0gyXTI=

> <s_epik_cmdline>
J2VwaWtfcHl0aG9uJywgJy1waCcsICc3LjAnLCAnLXRuJywgJzgnLCAnLW1hJywgJzIwMCcsICctbWV0YWxfYmluZGluZycsICctaW1hZScsICc8aW5maWxlLm1hZT4nLCAnLW9tYWUnLCAnPG91dGZpbGUubWFlPic=

> <r_lp_tautomer_probability>
1

> <r_epik_Ionization_Penalty>
0.12065

> <r_epik_Ionization_Penalty_Charging>
0.120646

> <r_epik_Ionization_Penalty_Neutral>
4.1343e-06

> <r_epik_State_Penalty>
0.110186

> <r_epik_Charging_Adjusted_Penalty>
0.230832

> <i_epik_Tot_Q>
1

> <i_epik_Tot_abs_Q>
1

> <r_epik_Metal_State_Penalty>
0.110197

> <b_epik_Metal_Only>
0

> <s_lp_Force_Field>
OPLS_2005

> <r_lp_Energy>
15.3848

> <b_lp_Chiralities_Consistent>
1

> <s_lp_Variant>
AV-unprocessed.smi:3154-1

> <Gold.Version>
5.8.1

> <Gold.Id.Protein>
6NUR|6NUR_protein|mol2

> <Gold.PLP.Fitness>
45.1425

> <Gold.PLP.PLP>
-33.4339

> <Gold.PLP.part.hbond>
-2.0000

> <Gold.PLP.part.metal>
0.0000

> <Gold.PLP.part.buried>
-4.2266

> <Gold.PLP.part.nonpolar>
-31.6047

> <Gold.PLP.part.repulsive>
4.7006

> <Gold.PLP.ligand.clash>
0.0000

> <Gold.PLP.ligand.torsion>
0.1699

> <Gold.PLP.Chemscore.Hbond>
3.0000

> <Gold.PLP.Chemscore.CHOScore>
1.0000

> <Gold.PLP.Chemscore.Metal>
0.0000

> <Gold.Chemscore.Hbonds>
donor molecule, donor type, donor heavy atom, donor atom, acceptor molecule, acceptor atom, score
      L1  H     9    35       P1  8028  2.00
      L1  H    13    29       P1  8028  1.00
      L1  C     7    25       P1 10171  1.00

> <Gold.PLP.Chemscore.Internal.Correction>
0.0484

> <Gold.Rescore>
     Score         DG    S(hbond)    S(metal)    S(lipo)     H(rot)  DE(clash)    DE(int)     intcor
     14.27     -16.04       1.98        0.00      81.95       2.20       1.60       0.17       ----

> <Gold.Chemscore.Fitness>
14.2693

> <Gold.Chemscore.DG>
-16.0420

> <Gold.Chemscore.ZeroCoef>
-5.4800

> <Gold.Chemscore.Hbond>
1.9809

> <Gold.Chemscore.Metal>
0.0000

> <Gold.Chemscore.Lipo>
81.9518

> <Gold.Chemscore.Internal_Hbond>
0.0000

> <Gold.Chemscore.DEClash>
1.5983

> <Gold.Chemscore.DEInternal>
0.1744

> <Gold.Chemscore.Rot>
2.2042

> <Gold.Chemscore.Internal.Correction>
   9.000000E+99

> <Gold.Chemscore.Hbonds>
donor molecule, donor type, donor heavy atom, donor atom, acceptor molecule, acceptor atom, score
      L1  H     9    35       P1  8028  1.00
      L1  H    13    29       P1  8028  0.96

> <Gold.Chemscore.Hbond.Weighted>
-6.6163

> <Gold.Chemscore.Metal.Weighted>
-0.0000

> <Gold.Chemscore.Lipo.Weighted>
-9.5884

> <Gold.Chemscore.Internal_Hbond.Weighted>
0.0000

> <Gold.Chemscore.DEClash.Weighted>
1.5983

> <Gold.Chemscore.DEInternal.Weighted>
0.1744

> <Gold.Chemscore.Rot.Weighted>
5.6427

> <Gold.Chemscore.Internal.Correction.Weighted>
   9.000000E+99

> <Gold.Protein.RotatedTorsions>
[ 6907 6896 6895 6894 ] final  -83.70 input  -60.11 | X-H torsion
[ 7974 7965 7964 7962 ] final  -18.55 input  175.53 | X-H torsion
[ 8008 7997 7996 7995 ] final  -90.28 input   59.86 | X-H torsion
[ 10167 10162 10161 10158 ] final   36.01 input  -65.29 | X-H torsion
[ 10718 10713 10712 10709 ] final   80.64 input   66.30 | X-H torsion
[ 10763 10752 10751 10750 ] final  -44.48 input  -60.55 | X-H torsion
[ 11005 11000 10999 10996 ] final -131.84 input  -57.11 | X-H torsion

> <Gold.Protein.ActiveResidues>
 VAL166  LYS551  ARG553  GLY616  TRP617  ASP618  TYR619  PRO620  LYS621  CYS622 
 ASP623  PHE694  ASN695  SER759  ASP760  ASP761  ALA762  ILE779  LEU786  VAL792 
 PHE793  MET794  SER795  GLU796  ALA797  LYS798  CYS799  TRP800  GLU811  SER814 

> <Gold.Protein.RotatedAtoms>
  150.6883  134.3472  159.4892 H   0  0  0  0  0  0  0  0  0  0  0  0  # atno 6907 bound_to 6896
  152.1317  134.9127  160.0567 H   0  0  0  0  0  0  0  0  0  0  0  0  # atno 6908 bound_to 6896
  152.0294  133.3896  159.4328 H   0  0  0  0  0  0  0  0  0  0  0  0  # atno 6909 bound_to 6896
  146.1886  140.3937  142.8466 H   0  0  0  0  0  0  0  0  0  0  0  0  # atno 7974 bound_to 7965
  154.6967  140.0532  157.0417 H   0  0  0  0  0  0  0  0  0  0  0  0  # atno 8008 bound_to 7997
  155.0742  140.3203  155.4602 H   0  0  0  0  0  0  0  0  0  0  0  0  # atno 8009 bound_to 7997
  156.2746  140.2076  156.5869 H   0  0  0  0  0  0  0  0  0  0  0  0  # atno 8010 bound_to 7997
  140.4168  144.1516  150.6144 H   0  0  0  0  0  0  0  0  0  0  0  0  # atno 10167 bound_to 10162
  157.6812  130.9968  150.2109 H   0  0  0  0  0  0  0  0  0  0  0  0  # atno 10718 bound_to 10713
  154.0127  135.6679  153.4766 H   0  0  0  0  0  0  0  0  0  0  0  0  # atno 10763 bound_to 10752
  153.0614  135.5026  154.8097 H   0  0  0  0  0  0  0  0  0  0  0  0  # atno 10764 bound_to 10752
  154.6986  135.3074  154.9339 H   0  0  0  0  0  0  0  0  0  0  0  0  # atno 10765 bound_to 10752
  140.9223  134.1428  157.4304 H   0  0  0  0  0  0  0  0  0  0  0  0  # atno 11005 bound_to 11000
  144.8444  140.6907  143.6208 LP  0  0  0  0  0  0  0  0  0  0  0  0  # atno 17320 bound_to 7965
  145.3861  139.1626  143.4254 LP  0  0  0  0  0  0  0  0  0  0  0  0  # atno 17321 bound_to 7965
  140.4578  143.2461  151.9261 LP  0  0  0  0  0  0  0  0  0  0  0  0  # atno 17342 bound_to 10162
  139.4782  144.5498  151.8403 LP  0  0  0  0  0  0  0  0  0  0  0  0  # atno 17343 bound_to 10162
  156.2780  130.3730  149.7963 LP  0  0  0  0  0  0  0  0  0  0  0  0  # atno 17370 bound_to 10713
  156.5660  130.8404  151.3343 LP  0  0  0  0  0  0  0  0  0  0  0  0  # atno 17371 bound_to 10713
  139.8778  134.9975  156.5853 LP  0  0  0  0  0  0  0  0  0  0  0  0  # atno 17394 bound_to 11000
  140.7972  133.8534  155.8696 LP  0  0  0  0  0  0  0  0  0  0  0  0  # atno 17395 bound_to 11000

$$$$
