AV-unprocessed.smi:1702|AV-procd|sdf|6846|dock5
  -GOLD-   22720 8 23D 1   1.00000     0.00000
 Structure written by MMmdl.
 44 46  0  0  0  0  0  0  0  0  2 V2000
  144.0465  143.6144  157.6399 C   0  0  0  0  0  0  0  0  0  0  0  0
  144.8309  142.6971  156.6915 C   0  0  2  0  0  0  0  0  0  0  0  0
  146.1539  142.2276  157.3188 C   0  0  0  0  0  0  0  0  0  0  0  0
  146.9471  141.3361  156.3487 C   0  0  0  0  0  0  0  0  0  0  0  0
  147.2048  142.0358  155.0636 N   0  3  1  0  0  0  0  0  0  0  0  0
  148.0835  141.2467  154.1626 C   0  0  0  0  0  0  0  0  0  0  0  0
  149.3702  140.7470  154.8590 C   0  0  1  0  0  0  0  0  0  0  0  0
  150.2457  140.2135  153.8859 O   0  0  0  0  0  0  0  0  0  0  0  0
  150.1328  141.8621  155.6013 C   0  0  0  0  0  0  0  0  0  0  0  0
  151.0918  141.3401  156.5579 N   0  0  0  0  0  0  0  0  0  0  0  0
  151.8560  140.2399  156.4171 C   0  0  0  0  0  0  0  0  0  0  0  0
  152.6694  139.9307  157.4227 N   0  0  0  0  0  0  0  0  0  0  0  0
  152.4093  140.9531  158.3186 C   0  0  0  0  0  0  0  0  0  0  0  0
  152.9487  141.2100  159.5991 C   0  0  0  0  0  0  0  0  0  0  0  0
  152.5203  142.3283  160.3442 C   0  0  0  0  0  0  0  0  0  0  0  0
  153.0458  142.5585  161.5708 F   0  0  0  0  0  0  0  0  0  0  0  0
  151.5475  143.2056  159.8203 C   0  0  0  0  0  0  0  0  0  0  0  0
  151.1390  144.2750  160.5430 F   0  0  0  0  0  0  0  0  0  0  0  0
  150.9968  142.9709  158.5459 C   0  0  0  0  0  0  0  0  0  0  0  0
  151.4270  141.8537  157.8066 C   0  0  0  0  0  0  0  0  0  0  0  0
  145.9367  142.4677  154.4173 C   0  0  0  0  0  0  0  0  0  0  0  0
  145.1243  143.3840  155.3474 C   0  0  0  0  0  0  0  0  0  0  0  0
  144.6124  144.5151  157.8797 H   0  0  0  0  0  0  0  0  0  0  0  0
  143.8169  143.1061  158.5769 H   0  0  0  0  0  0  0  0  0  0  0  0
  143.1012  143.9244  157.1935 H   0  0  0  0  0  0  0  0  0  0  0  0
  144.2154  141.8174  156.4970 H   0  0  0  0  0  0  0  0  0  0  0  0
  146.7597  143.0913  157.5973 H   0  0  0  0  0  0  0  0  0  0  0  0
  145.9562  141.6796  158.2409 H   0  0  0  0  0  0  0  0  0  0  0  0
  147.8935  141.0591  156.8145 H   0  0  0  0  0  0  0  0  0  0  0  0
  146.4039  140.4091  156.1575 H   0  0  0  0  0  0  0  0  0  0  0  0
  147.5421  140.3790  153.7822 H   0  0  0  0  0  0  0  0  0  0  0  0
  148.3190  141.8591  153.2916 H   0  0  0  0  0  0  0  0  0  0  0  0
  149.1415  139.9574  155.5738 H   0  0  0  0  0  0  0  0  0  0  0  0
  149.7758  140.1064  153.0731 H   0  0  0  0  0  0  0  0  0  0  0  0
  150.6726  142.4891  154.8899 H   0  0  0  0  0  0  0  0  0  0  0  0
  149.4375  142.5183  156.1265 H   0  0  0  0  0  0  0  0  0  0  0  0
  151.8084  139.6285  155.5276 H   0  0  0  0  0  0  0  0  0  0  0  0
  153.6936  140.5449  160.0106 H   0  0  0  0  0  0  0  0  0  0  0  0
  150.2521  143.6417  158.1443 H   0  0  0  0  0  0  0  0  0  0  0  0
  146.1422  143.0020  153.4908 H   0  0  0  0  0  0  0  0  0  0  0  0
  145.3459  141.5904  154.1487 H   0  0  0  0  0  0  0  0  0  0  0  0
  144.1897  143.6640  154.8600 H   0  0  0  0  0  0  0  0  0  0  0  0
  145.6742  144.3112  155.5159 H   0  0  0  0  0  0  0  0  0  0  0  0
  147.7178  142.8727  155.3011 H   0  0  0  0  0  0  0  0  0  0  0  0
  1  2  1  0  0  0  0
  1 23  1  0  0  0  0
  1 24  1  0  0  0  0
  1 25  1  0  0  0  0
  2 22  1  0  0  0  0
  2  3  1  0  0  0  0
  2 26  1  0  0  0  0
  3  4  1  0  0  0  0
  3 27  1  0  0  0  0
  3 28  1  0  0  0  0
  4  5  1  0  0  0  0
  4 29  1  0  0  0  0
  4 30  1  0  0  0  0
  5  6  1  0  0  0  0
  5 21  1  0  0  0  0
  5 44  1  0  0  0  0
  6  7  1  0  0  0  0
  6 31  1  0  0  0  0
  6 32  1  0  0  0  0
  7  8  1  0  0  0  0
  7  9  1  0  0  0  0
  7 33  1  0  0  0  0
  8 34  1  0  0  0  0
  9 10  1  0  0  0  0
  9 35  1  0  0  0  0
  9 36  1  0  0  0  0
 10 20  1  0  0  0  0
 10 11  1  0  0  0  0
 11 12  2  0  0  0  0
 11 37  1  0  0  0  0
 12 13  1  0  0  0  0
 13 20  2  0  0  0  0
 13 14  1  0  0  0  0
 14 15  2  0  0  0  0
 14 38  1  0  0  0  0
 15 16  1  0  0  0  0
 15 17  1  0  0  0  0
 17 18  1  0  0  0  0
 17 19  2  0  0  0  0
 19 20  1  0  0  0  0
 19 39  1  0  0  0  0
 21 22  1  0  0  0  0
 21 40  1  0  0  0  0
 21 41  1  0  0  0  0
 22 42  1  0  0  0  0
 22 43  1  0  0  0  0
M  CHG  1   5   1
M  END
> <s_m_source_file>
AV-unprocessed.smi

> <i_m_source_file_index>
1702

> <i_lp_mmshare_version>
43012

> <i_f3d_flags>
0

> <s_epik_input>
W0NIM11bQ0hdMVtDSDJdW0NIMl1OKFtDSDJdW0NIMl0xKVtDSDJdW0NASF0oW09IXSlbQ0gyXW4oW2NIXW4yKWMoYzIzKVtjSF1jKEYpYyhGKVtjSF0z

> <s_epik_cmdline>
J2VwaWtfcHl0aG9uJywgJy1waCcsICc3LjAnLCAnLXRuJywgJzgnLCAnLW1hJywgJzIwMCcsICctbWV0YWxfYmluZGluZycsICctaW1hZScsICc8aW5maWxlLm1hZT4nLCAnLW9tYWUnLCAnPG91dGZpbGUubWFlPic=

> <r_epik_Ionization_Penalty>
0.0135195

> <r_epik_Ionization_Penalty_Charging>
0.00181365

> <r_epik_Ionization_Penalty_Neutral>
0.0117059

> <r_epik_State_Penalty>
0.00902283

> <r_epik_Charging_Adjusted_Penalty>
0.0108365

> <i_epik_Tot_Q>
1

> <i_epik_Tot_abs_Q>
1

> <r_epik_Metal_State_Penalty>
9.09181e-06

> <b_epik_Metal_Only>
0

> <s_lp_Force_Field>
OPLS_2005

> <r_lp_Energy>
23.1307

> <b_lp_Chiralities_Consistent>
1

> <s_lp_Variant>
AV-unprocessed.smi:1702-2

> <Gold.Version>
5.8.1

> <Gold.Id.Protein>
6NUR|6NUR_protein|mol2

> <Gold.PLP.Fitness>
62.0589

> <Gold.PLP.PLP>
-48.4539

> <Gold.PLP.part.hbond>
-4.0000

> <Gold.PLP.part.metal>
0.0000

> <Gold.PLP.part.buried>
-6.1156

> <Gold.PLP.part.nonpolar>
-37.9181

> <Gold.PLP.part.repulsive>
0.1072

> <Gold.PLP.ligand.clash>
0.0000

> <Gold.PLP.ligand.torsion>
0.5404

> <Gold.PLP.Chemscore.Hbond>
4.8712

> <Gold.PLP.Chemscore.CHOScore>
0.0000

> <Gold.PLP.Chemscore.Metal>
0.0000

> <Gold.Chemscore.Hbonds>
donor molecule, donor type, donor heavy atom, donor atom, acceptor molecule, acceptor atom, score
      L1  H     5    44       P1  8028  1.24
      L1  H     8    34       P1  7957  1.00
      P1  H  7989  7998       L1     8  0.86
      P1  H  7997  8008       L1    12  1.00

> <Gold.PLP.Chemscore.Internal.Correction>
0.0720

> <Gold.Rescore>
     Score         DG    S(hbond)    S(metal)    S(lipo)     H(rot)  DE(clash)    DE(int)     intcor
     17.12     -18.75       2.30        0.00      97.18       2.26       0.09       1.53       ----

> <Gold.Chemscore.Fitness>
17.1240

> <Gold.Chemscore.DG>
-18.7512

> <Gold.Chemscore.ZeroCoef>
-5.4800

> <Gold.Chemscore.Hbond>
2.3029

> <Gold.Chemscore.Metal>
0.0000

> <Gold.Chemscore.Lipo>
97.1796

> <Gold.Chemscore.Internal_Hbond>
0.0000

> <Gold.Chemscore.DEClash>
0.0949

> <Gold.Chemscore.DEInternal>
1.5322

> <Gold.Chemscore.Rot>
2.2619

> <Gold.Chemscore.Internal.Correction>
   9.000000E+99

> <Gold.Chemscore.Hbonds>
donor molecule, donor type, donor heavy atom, donor atom, acceptor molecule, acceptor atom, score
      L1  H     5    44       P1  8028  0.39
      L1  H     8    34       P1  7957  0.97
      P1  H  7989  7998       L1     8  0.37
      P1  H  7997  8008       L1    12  0.39

> <Gold.Chemscore.Hbond.Weighted>
-7.6916

> <Gold.Chemscore.Metal.Weighted>
-0.0000

> <Gold.Chemscore.Lipo.Weighted>
-11.3700

> <Gold.Chemscore.Internal_Hbond.Weighted>
0.0000

> <Gold.Chemscore.DEClash.Weighted>
0.0949

> <Gold.Chemscore.DEInternal.Weighted>
1.5322

> <Gold.Chemscore.Rot.Weighted>
5.7904

> <Gold.Chemscore.Internal.Correction.Weighted>
   9.000000E+99

> <Gold.Protein.RotatedTorsions>
[ 6907 6896 6895 6894 ] final   56.26 input  -60.11 | X-H torsion
[ 7974 7965 7964 7962 ] final  177.53 input  175.53 | X-H torsion
[ 8008 7997 7996 7995 ] final  -63.49 input   59.86 | X-H torsion
[ 10167 10162 10161 10158 ] final   -0.95 input  -65.29 | X-H torsion
[ 10718 10713 10712 10709 ] final -127.88 input   66.30 | X-H torsion
[ 10763 10752 10751 10750 ] final  -99.71 input  -60.55 | X-H torsion
[ 11005 11000 10999 10996 ] final  115.92 input  -57.11 | X-H torsion

> <Gold.Protein.ActiveResidues>
 VAL166  LYS551  ARG553  GLY616  TRP617  ASP618  TYR619  PRO620  LYS621  CYS622 
 ASP623  PHE694  ASN695  SER759  ASP760  ASP761  ALA762  ILE779  LEU786  VAL792 
 PHE793  MET794  SER795  GLU796  ALA797  LYS798  CYS799  TRP800  GLU811  SER814 

> <Gold.Protein.RotatedAtoms>
  152.3618  134.6860  160.0204 H   0  0  0  0  0  0  0  0  0  0  0  0  # atno 6907 bound_to 6896
  151.7181  133.3308  159.3316 H   0  0  0  0  0  0  0  0  0  0  0  0  # atno 6908 bound_to 6896
  150.7610  134.6407  159.6280 H   0  0  0  0  0  0  0  0  0  0  0  0  # atno 6909 bound_to 6896
  144.7168  140.0260  143.6439 H   0  0  0  0  0  0  0  0  0  0  0  0  # atno 7974 bound_to 7965
  154.4557  140.0974  156.6750 H   0  0  0  0  0  0  0  0  0  0  0  0  # atno 8008 bound_to 7997
  155.5145  140.3477  155.4376 H   0  0  0  0  0  0  0  0  0  0  0  0  # atno 8009 bound_to 7997
  156.0773  140.1364  156.9745 H   0  0  0  0  0  0  0  0  0  0  0  0  # atno 8010 bound_to 7997
  140.6789  143.6833  150.8087 H   0  0  0  0  0  0  0  0  0  0  0  0  # atno 10167 bound_to 10162
  156.1899  130.6788  151.0410 H   0  0  0  0  0  0  0  0  0  0  0  0  # atno 10718 bound_to 10713
  154.7520  135.4962  153.9306 H   0  0  0  0  0  0  0  0  0  0  0  0  # atno 10763 bound_to 10752
  153.1154  135.6719  153.9436 H   0  0  0  0  0  0  0  0  0  0  0  0  # atno 10764 bound_to 10752
  153.9183  135.3091  155.3427 H   0  0  0  0  0  0  0  0  0  0  0  0  # atno 10765 bound_to 10752
  139.9025  134.9591  156.7119 H   0  0  0  0  0  0  0  0  0  0  0  0  # atno 11005 bound_to 11000
  146.0141  139.3195  143.0852 LP  0  0  0  0  0  0  0  0  0  0  0  0  # atno 17320 bound_to 7965
  145.8646  140.9455  143.0682 LP  0  0  0  0  0  0  0  0  0  0  0  0  # atno 17321 bound_to 7965
  140.0530  143.5230  152.2664 LP  0  0  0  0  0  0  0  0  0  0  0  0  # atno 17342 bound_to 10162
  139.6099  144.7606  151.2975 LP  0  0  0  0  0  0  0  0  0  0  0  0  # atno 17343 bound_to 10162
  157.6922  131.0806  150.7074 LP  0  0  0  0  0  0  0  0  0  0  0  0  # atno 17370 bound_to 10713
  156.7130  130.4657  149.5542 LP  0  0  0  0  0  0  0  0  0  0  0  0  # atno 17371 bound_to 10713
  140.7068  133.9258  155.8059 LP  0  0  0  0  0  0  0  0  0  0  0  0  # atno 17394 bound_to 11000
  141.0330  134.0729  157.3992 LP  0  0  0  0  0  0  0  0  0  0  0  0  # atno 17395 bound_to 11000

$$$$
