AV-unprocessed.smi:2339|AV-procd|sdf|9343|dock1
  -GOLD-   2272012563D 1   1.00000     0.00000
 Structure written by MMmdl.
 49 52  0  0  0  0  0  0  0  0  1 V2000
  148.8065  131.1080  161.5660 C   0  0  0  0  0  0  0  0  0  0  0  0
  147.8896  131.8528  160.5897 C   0  0  0  0  0  0  0  0  0  0  0  0
  147.8089  133.2723  160.9019 N   0  0  0  0  0  0  0  0  0  0  0  0
  147.4700  133.7147  162.1764 C   0  0  0  0  0  0  0  0  0  0  0  0
  147.3227  135.0112  162.5110 C   0  0  0  0  0  0  0  0  0  0  0  0
  147.5231  136.0513  161.4822 C   0  0  0  0  0  0  0  0  0  0  0  0
  147.3969  137.2455  161.7531 O   0  0  0  0  0  0  0  0  0  0  0  0
  147.8809  135.5781  160.1191 C   0  0  0  0  0  0  0  0  0  0  0  0
  148.0534  136.5746  159.1464 N   0  0  0  0  0  0  0  0  0  0  0  0
  149.1833  137.0375  158.5748 C   0  0  0  0  0  0  0  0  0  0  0  0
  150.3245  136.6831  158.8614 O   0  0  0  0  0  0  0  0  0  0  0  0
  148.9635  137.9561  157.6180 N   0  0  0  0  0  0  0  0  0  0  0  0
  149.9624  138.6548  156.8062 C   0  0  1  0  0  0  0  0  0  0  0  0
  150.6683  137.7056  155.8243 C   0  0  2  0  0  0  0  0  0  0  0  0
  152.1364  137.4200  155.9851 C   0  0  0  0  0  0  0  0  0  0  0  0
  152.7839  138.4136  155.0170 C   0  0  0  0  0  0  0  0  0  0  0  0
  151.8063  139.4375  154.8470 O   0  0  0  0  0  0  0  0  0  0  0  0
  150.5297  138.8061  154.7839 C   0  0  2  0  0  0  0  0  0  0  0  0
  149.3929  139.4510  155.6049 C   0  0  0  0  0  0  0  0  0  0  0  0
  147.9752  139.1594  155.1048 C   0  0  0  0  0  0  0  0  0  0  0  0
  147.6197  140.2718  154.1159 C   0  0  0  0  0  0  0  0  0  0  0  0
  148.5012  141.4631  154.5045 C   0  0  0  0  0  0  0  0  0  0  0  0
  149.3672  140.9763  155.6701 C   0  0  0  0  0  0  0  0  0  0  0  0
  147.9936  134.2407  159.9170 C   0  0  0  0  0  0  0  0  0  0  0  0
  148.8534  130.0469  161.3206 H   0  0  0  0  0  0  0  0  0  0  0  0
  148.4463  131.1976  162.5913 H   0  0  0  0  0  0  0  0  0  0  0  0
  149.8223  131.5030  161.5305 H   0  0  0  0  0  0  0  0  0  0  0  0
  148.2527  131.7253  159.5692 H   0  0  0  0  0  0  0  0  0  0  0  0
  146.8905  131.4164  160.6149 H   0  0  0  0  0  0  0  0  0  0  0  0
  147.3339  132.9249  162.9008 H   0  0  0  0  0  0  0  0  0  0  0  0
  147.0601  135.3084  163.5155 H   0  0  0  0  0  0  0  0  0  0  0  0
  147.1932  136.9939  158.8240 H   0  0  0  0  0  0  0  0  0  0  0  0
  147.9998  138.1899  157.4283 H   0  0  0  0  0  0  0  0  0  0  0  0
  150.6808  139.2400  157.3852 H   0  0  0  0  0  0  0  0  0  0  0  0
  150.0597  136.8366  155.5673 H   0  0  0  0  0  0  0  0  0  0  0  0
  152.4597  137.6091  157.0091 H   0  0  0  0  0  0  0  0  0  0  0  0
  152.3940  136.3899  155.7367 H   0  0  0  0  0  0  0  0  0  0  0  0
  153.7255  138.8148  155.3920 H   0  0  0  0  0  0  0  0  0  0  0  0
  152.9731  137.9403  154.0522 H   0  0  0  0  0  0  0  0  0  0  0  0
  150.2656  138.4499  153.7871 H   0  0  0  0  0  0  0  0  0  0  0  0
  147.8850  138.1735  154.6475 H   0  0  0  0  0  0  0  0  0  0  0  0
  147.2633  139.1917  155.9301 H   0  0  0  0  0  0  0  0  0  0  0  0
  147.8518  139.9571  153.0977 H   0  0  0  0  0  0  0  0  0  0  0  0
  146.5577  140.5162  154.1515 H   0  0  0  0  0  0  0  0  0  0  0  0
  149.1284  141.7523  153.6602 H   0  0  0  0  0  0  0  0  0  0  0  0
  147.9097  142.3342  154.7879 H   0  0  0  0  0  0  0  0  0  0  0  0
  148.9149  141.3014  156.6066 H   0  0  0  0  0  0  0  0  0  0  0  0
  150.3629  141.4189  155.6379 H   0  0  0  0  0  0  0  0  0  0  0  0
  148.2379  133.8087  158.9597 H   0  0  0  0  0  0  0  0  0  0  0  0
  1  2  1  0  0  0  0
  1 25  1  0  0  0  0
  1 26  1  0  0  0  0
  1 27  1  0  0  0  0
  2  3  1  0  0  0  0
  2 28  1  0  0  0  0
  2 29  1  0  0  0  0
  3 24  1  0  0  0  0
  3  4  1  0  0  0  0
  4  5  2  0  0  0  0
  4 30  1  0  0  0  0
  5  6  1  0  0  0  0
  5 31  1  0  0  0  0
  6  7  2  0  0  0  0
  6  8  1  0  0  0  0
  8  9  1  0  0  0  0
  8 24  2  0  0  0  0
  9 10  1  0  0  0  0
  9 32  1  0  0  0  0
 10 11  2  0  0  0  0
 10 12  1  0  0  0  0
 12 13  1  0  0  0  0
 12 33  1  0  0  0  0
 13 19  1  0  0  0  0
 13 14  1  0  0  0  0
 13 34  1  0  0  0  0
 14 18  1  0  0  0  0
 14 15  1  0  0  0  0
 14 35  1  0  0  0  0
 15 16  1  0  0  0  0
 15 36  1  0  0  0  0
 15 37  1  0  0  0  0
 16 17  1  0  0  0  0
 16 38  1  0  0  0  0
 16 39  1  0  0  0  0
 17 18  1  0  0  0  0
 18 19  1  0  0  0  0
 18 40  1  0  0  0  0
 19 23  1  0  0  0  0
 19 20  1  0  0  0  0
 20 21  1  0  0  0  0
 20 41  1  0  0  0  0
 20 42  1  0  0  0  0
 21 22  1  0  0  0  0
 21 43  1  0  0  0  0
 21 44  1  0  0  0  0
 22 23  1  0  0  0  0
 22 45  1  0  0  0  0
 22 46  1  0  0  0  0
 23 47  1  0  0  0  0
 23 48  1  0  0  0  0
 24 49  1  0  0  0  0
M  END
> <s_m_source_file>
AV-unprocessed.smi

> <i_m_source_file_index>
2339

> <i_lp_mmshare_version>
43012

> <i_f3d_flags>
0

> <s_epik_input>
W0NIM11bQ0gyXW4xW2NIXVtjSF1jKD1PKWMoW2NIXTEpW05IXUMoPU8pW05IXVtDQEBIXTJbQ0BASF0oW0NIMl1bQ0gyXU8zKVtDQEBIXTNDMjRbQ0gyXVtDSDJdW0NIMl1bQ0gyXTQ=

> <s_epik_cmdline>
J2VwaWtfcHl0aG9uJywgJy1waCcsICc3LjAnLCAnLXRuJywgJzgnLCAnLW1hJywgJzIwMCcsICctbWV0YWxfYmluZGluZycsICctaW1hZScsICc8aW5maWxlLm1hZT4nLCAnLW9tYWUnLCAnPG91dGZpbGUubWFlPic=

> <r_lp_tautomer_probability>
1

> <r_epik_Ionization_Penalty>
0.00145966

> <r_epik_Ionization_Penalty_Charging>
0.00143969

> <r_epik_Ionization_Penalty_Neutral>
1.99697e-05

> <r_epik_State_Penalty>
0.000961843

> <r_epik_Charging_Adjusted_Penalty>
0.00240153

> <i_epik_Tot_Q>
0

> <i_epik_Tot_abs_Q>
0

> <r_epik_Metal_State_Penalty>
-0

> <b_epik_Metal_Only>
0

> <s_lp_Force_Field>
OPLS_2005

> <r_lp_Energy>
57.3281

> <b_lp_Chiralities_Consistent>
1

> <s_lp_Variant>
AV-unprocessed.smi:2339-8

> <Gold.Version>
5.8.1

> <Gold.Id.Protein>
6NUR|6NUR_protein|mol2

> <Gold.PLP.Fitness>
49.5590

> <Gold.PLP.PLP>
-39.9944

> <Gold.PLP.part.hbond>
-4.0000

> <Gold.PLP.part.metal>
0.0000

> <Gold.PLP.part.buried>
-6.3518

> <Gold.PLP.part.nonpolar>
-30.9667

> <Gold.PLP.part.repulsive>
0.2448

> <Gold.PLP.ligand.clash>
0.0000

> <Gold.PLP.ligand.torsion>
0.8581

> <Gold.PLP.Chemscore.Hbond>
3.6960

> <Gold.PLP.Chemscore.CHOScore>
0.0000

> <Gold.PLP.Chemscore.Metal>
0.0000

> <Gold.Chemscore.Hbonds>
donor molecule, donor type, donor heavy atom, donor atom, acceptor molecule, acceptor atom, score
      P1  H  6896  6909       L1    11  1.00
      P1  H  6931  6943       L1     7  0.90
      P1  H  6934  6947       L1     7  0.80
      P1  H  7989  7998       L1    17  1.00

> <Gold.PLP.Chemscore.Internal.Correction>
0.1929

> <Gold.Rescore>
     Score         DG    S(hbond)    S(metal)    S(lipo)     H(rot)  DE(clash)    DE(int)     intcor
     23.28     -24.09       3.42        0.00      86.82       1.17       0.01       0.80       ----

> <Gold.Chemscore.Fitness>
23.2805

> <Gold.Chemscore.DG>
-24.0882

> <Gold.Chemscore.ZeroCoef>
-5.4800

> <Gold.Chemscore.Hbond>
3.4246

> <Gold.Chemscore.Metal>
0.0000

> <Gold.Chemscore.Lipo>
86.8174

> <Gold.Chemscore.Internal_Hbond>
0.0000

> <Gold.Chemscore.DEClash>
0.0073

> <Gold.Chemscore.DEInternal>
0.8004

> <Gold.Chemscore.Rot>
1.1670

> <Gold.Chemscore.Internal.Correction>
   9.000000E+99

> <Gold.Chemscore.Hbonds>
donor molecule, donor type, donor heavy atom, donor atom, acceptor molecule, acceptor atom, score
      P1  H  6896  6909       L1    11  0.93
      P1  H  6931  6943       L1     7  0.83
      P1  H  6934  6947       L1     7  0.78
      P1  H  7989  7998       L1    17  0.38

> <Gold.Chemscore.Hbond.Weighted>
-11.4380

> <Gold.Chemscore.Metal.Weighted>
-0.0000

> <Gold.Chemscore.Lipo.Weighted>
-10.1576

> <Gold.Chemscore.Internal_Hbond.Weighted>
0.0000

> <Gold.Chemscore.DEClash.Weighted>
0.0073

> <Gold.Chemscore.DEInternal.Weighted>
0.8004

> <Gold.Chemscore.Rot.Weighted>
2.9874

> <Gold.Chemscore.Internal.Correction.Weighted>
   9.000000E+99

> <Gold.Protein.RotatedTorsions>
[ 6907 6896 6895 6894 ] final   80.17 input  -60.11 | X-H torsion
[ 7974 7965 7964 7962 ] final  179.50 input  175.53 | X-H torsion
[ 8008 7997 7996 7995 ] final -110.09 input   59.86 | X-H torsion
[ 10167 10162 10161 10158 ] final  -85.05 input  -65.29 | X-H torsion
[ 10718 10713 10712 10709 ] final -144.06 input   66.30 | X-H torsion
[ 10763 10752 10751 10750 ] final -144.38 input  -60.55 | X-H torsion
[ 11005 11000 10999 10996 ] final   56.22 input  -57.11 | X-H torsion

> <Gold.Protein.ActiveResidues>
 VAL166  LYS551  ARG553  GLY616  TRP617  ASP618  TYR619  PRO620  LYS621  CYS622 
 ASP623  PHE694  ASN695  SER759  ASP760  ASP761  ALA762  ILE779  LEU786  VAL792 
 PHE793  MET794  SER795  GLU796  ALA797  LYS798  CYS799  TRP800  GLU811  SER814 

> <Gold.Protein.RotatedAtoms>
  152.5225  134.3398  159.9212 H   0  0  0  0  0  0  0  0  0  0  0  0  # atno 6907 bound_to 6896
  151.3348  133.3979  159.2673 H   0  0  0  0  0  0  0  0  0  0  0  0  # atno 6908 bound_to 6896
  150.9851  134.9216  159.7925 H   0  0  0  0  0  0  0  0  0  0  0  0  # atno 6909 bound_to 6896
  144.7145  140.0558  143.6434 H   0  0  0  0  0  0  0  0  0  0  0  0  # atno 7974 bound_to 7965
  154.9692  140.0398  157.2226 H   0  0  0  0  0  0  0  0  0  0  0  0  # atno 8008 bound_to 7997
  154.7816  140.2820  155.6037 H   0  0  0  0  0  0  0  0  0  0  0  0  # atno 8009 bound_to 7997
  156.2937  140.2590  156.2643 H   0  0  0  0  0  0  0  0  0  0  0  0  # atno 8010 bound_to 7997
  140.4074  143.2637  151.9062 H   0  0  0  0  0  0  0  0  0  0  0  0  # atno 10167 bound_to 10162
  156.3655  130.7760  151.1934 H   0  0  0  0  0  0  0  0  0  0  0  0  # atno 10718 bound_to 10713
  154.8430  135.3442  154.6337 H   0  0  0  0  0  0  0  0  0  0  0  0  # atno 10763 bound_to 10752
  153.6947  135.6973  153.5084 H   0  0  0  0  0  0  0  0  0  0  0  0  # atno 10764 bound_to 10752
  153.2568  135.4335  155.0809 H   0  0  0  0  0  0  0  0  0  0  0  0  # atno 10765 bound_to 10752
  140.0546  134.5688  155.9223 H   0  0  0  0  0  0  0  0  0  0  0  0  # atno 11005 bound_to 11000
  145.9906  139.3012  143.0987 LP  0  0  0  0  0  0  0  0  0  0  0  0  # atno 17320 bound_to 7965
  145.8907  140.9305  143.0553 LP  0  0  0  0  0  0  0  0  0  0  0  0  # atno 17321 bound_to 7965
  139.4783  144.5571  151.8296 LP  0  0  0  0  0  0  0  0  0  0  0  0  # atno 17342 bound_to 10162
  140.4674  144.1635  150.5913 LP  0  0  0  0  0  0  0  0  0  0  0  0  # atno 17343 bound_to 10162
  157.7478  131.0387  150.4518 LP  0  0  0  0  0  0  0  0  0  0  0  0  # atno 17370 bound_to 10713
  156.4736  130.4058  149.6503 LP  0  0  0  0  0  0  0  0  0  0  0  0  # atno 17371 bound_to 10713
  141.1946  133.6583  156.5603 LP  0  0  0  0  0  0  0  0  0  0  0  0  # atno 17394 bound_to 11000
  140.3864  134.7479  157.4694 LP  0  0  0  0  0  0  0  0  0  0  0  0  # atno 17395 bound_to 11000

$$$$
