AV-unprocessed.smi:3031|AV-procd|sdf|11543|dock6
  -GOLD-   2272016493D 1   1.00000     0.00000
 Structure written by MMmdl.
 47 48  0  0  0  0  0  0  0  0  2 V2000
  145.3368  132.6849  149.7879 C   0  0  0  0  0  0  0  0  0  0  0  0
  145.1877  133.9339  150.6077 C   0  0  0  0  0  0  0  0  0  0  0  0
  144.0303  134.7494  150.7590 C   0  0  0  0  0  0  0  0  0  0  0  0
  144.2337  135.7877  151.5537 N   0  0  0  0  0  0  0  0  0  0  0  0
  145.5221  135.6696  151.9400 N   0  0  0  0  0  0  0  0  0  0  0  0
  146.1065  136.6587  152.8283 C   0  0  0  0  0  0  0  0  0  0  0  0
  146.3721  137.9990  152.1148 C   0  0  2  0  0  0  0  0  0  0  0  0
  146.2545  137.8402  150.5901 C   0  0  0  0  0  0  0  0  0  0  0  0
  147.7060  138.5202  152.4904 N   0  3  0  0  0  0  0  0  0  0  0  0
  147.8164  139.0612  153.8610 C   0  0  0  0  0  0  0  0  0  0  0  0
  149.2634  138.9618  154.3726 C   0  0  1  0  0  0  0  0  0  0  0  0
  150.0856  139.8618  153.6565 O   0  0  0  0  0  0  0  0  0  0  0  0
  149.4742  139.1774  155.8895 C   0  0  0  0  0  0  0  0  0  0  0  0
  149.1219  138.0631  156.7770 N   0  0  0  0  0  0  0  0  0  0  0  0
  149.6042  138.3084  158.1340 C   0  0  0  0  0  0  0  0  0  0  0  0
  149.2404  137.1627  159.0944 C   0  0  0  0  0  0  0  0  0  0  0  0
  149.7698  135.9392  158.5962 O   0  0  0  0  0  0  0  0  0  0  0  0
  149.3016  135.6333  157.2874 C   0  0  0  0  0  0  0  0  0  0  0  0
  149.6653  136.7803  156.3281 C   0  0  0  0  0  0  0  0  0  0  0  0
  146.1215  134.5598  151.3839 C   0  0  0  0  0  0  0  0  0  0  0  0
  144.3804  132.3427  149.3917 H   0  0  0  0  0  0  0  0  0  0  0  0
  145.7522  131.8655  150.3749 H   0  0  0  0  0  0  0  0  0  0  0  0
  145.9996  132.8399  148.9365 H   0  0  0  0  0  0  0  0  0  0  0  0
  143.0543  134.6190  150.3149 H   0  0  0  0  0  0  0  0  0  0  0  0
  145.4507  136.7975  153.6895 H   0  0  0  0  0  0  0  0  0  0  0  0
  147.0404  136.2478  153.2140 H   0  0  0  0  0  0  0  0  0  0  0  0
  145.6140  138.7102  152.4469 H   0  0  0  0  0  0  0  0  0  0  0  0
  145.2798  137.4368  150.3138 H   0  0  0  0  0  0  0  0  0  0  0  0
  147.0149  137.1615  150.2021 H   0  0  0  0  0  0  0  0  0  0  0  0
  146.3637  138.7939  150.0739 H   0  0  0  0  0  0  0  0  0  0  0  0
  148.3601  137.7531  152.4181 H   0  0  0  0  0  0  0  0  0  0  0  0
  147.4787  140.0968  153.8677 H   0  0  0  0  0  0  0  0  0  0  0  0
  147.1559  138.4895  154.5140 H   0  0  0  0  0  0  0  0  0  0  0  0
  149.6274  137.9573  154.1518 H   0  0  0  0  0  0  0  0  0  0  0  0
  149.8320  139.8429  152.7459 H   0  0  0  0  0  0  0  0  0  0  0  0
  150.5015  139.4906  156.0806 H   0  0  0  0  0  0  0  0  0  0  0  0
  148.8637  140.0419  156.1557 H   0  0  0  0  0  0  0  0  0  0  0  0
  150.6871  138.4421  158.1248 H   0  0  0  0  0  0  0  0  0  0  0  0
  149.1795  139.2376  158.5158 H   0  0  0  0  0  0  0  0  0  0  0  0
  149.6520  137.3525  160.0859 H   0  0  0  0  0  0  0  0  0  0  0  0
  148.1578  137.0806  159.2059 H   0  0  0  0  0  0  0  0  0  0  0  0
  149.7584  134.7012  156.9550 H   0  0  0  0  0  0  0  0  0  0  0  0
  148.2223  135.4728  157.3066 H   0  0  0  0  0  0  0  0  0  0  0  0
  149.3017  136.5249  155.3372 H   0  0  0  0  0  0  0  0  0  0  0  0
  150.7516  136.8468  156.2493 H   0  0  0  0  0  0  0  0  0  0  0  0
  147.1536  134.3104  151.5829 H   0  0  0  0  0  0  0  0  0  0  0  0
  147.9813  139.2332  151.8298 H   0  0  0  0  0  0  0  0  0  0  0  0
  1  2  1  0  0  0  0
  1 21  1  0  0  0  0
  1 22  1  0  0  0  0
  1 23  1  0  0  0  0
  2 20  2  0  0  0  0
  2  3  1  0  0  0  0
  3  4  2  0  0  0  0
  3 24  1  0  0  0  0
  4  5  1  0  0  0  0
  5  6  1  0  0  0  0
  5 20  1  0  0  0  0
  6  7  1  0  0  0  0
  6 25  1  0  0  0  0
  6 26  1  0  0  0  0
  7  8  1  0  0  0  0
  7  9  1  0  0  0  0
  7 27  1  0  0  0  0
  8 28  1  0  0  0  0
  8 29  1  0  0  0  0
  8 30  1  0  0  0  0
  9 10  1  0  0  0  0
  9 31  1  0  0  0  0
  9 47  1  0  0  0  0
 10 11  1  0  0  0  0
 10 32  1  0  0  0  0
 10 33  1  0  0  0  0
 11 12  1  0  0  0  0
 11 13  1  0  0  0  0
 11 34  1  0  0  0  0
 12 35  1  0  0  0  0
 13 14  1  0  0  0  0
 13 36  1  0  0  0  0
 13 37  1  0  0  0  0
 14 19  1  0  0  0  0
 14 15  1  0  0  0  0
 15 16  1  0  0  0  0
 15 38  1  0  0  0  0
 15 39  1  0  0  0  0
 16 17  1  0  0  0  0
 16 40  1  0  0  0  0
 16 41  1  0  0  0  0
 17 18  1  0  0  0  0
 18 19  1  0  0  0  0
 18 42  1  0  0  0  0
 18 43  1  0  0  0  0
 19 44  1  0  0  0  0
 19 45  1  0  0  0  0
 20 46  1  0  0  0  0
M  CHG  1   9   1
M  END
> <s_m_source_file>
AV-unprocessed.smi

> <i_m_source_file_index>
3031

> <i_lp_mmshare_version>
43012

> <i_f3d_flags>
0

> <s_epik_input>
W0NIM11jMVtjSF1ubihbY0hdMSlbQ0gyXVtDQEhdKFtDSDNdKVtOSF1bQ0gyXVtDQEhdKFtPSF0pW0NIMl1OMltDSDJdW0NIMl1PW0NIMl1bQ0gyXTI=

> <s_epik_cmdline>
J2VwaWtfcHl0aG9uJywgJy1waCcsICc3LjAnLCAnLXRuJywgJzgnLCAnLW1hJywgJzIwMCcsICctbWV0YWxfYmluZGluZycsICctaW1hZScsICc8aW5maWxlLm1hZT4nLCAnLW9tYWUnLCAnPG91dGZpbGUubWFlPic=

> <r_lp_tautomer_probability>
1

> <r_epik_Ionization_Penalty>
0.108564

> <r_epik_Ionization_Penalty_Charging>
0.01811

> <r_epik_Ionization_Penalty_Neutral>
0.0904541

> <r_epik_State_Penalty>
0.141043

> <r_epik_Charging_Adjusted_Penalty>
0.159153

> <i_epik_Tot_Q>
1

> <i_epik_Tot_abs_Q>
1

> <r_epik_Metal_State_Penalty>
0.141052

> <b_epik_Metal_Only>
0

> <s_lp_Force_Field>
OPLS_2005

> <r_lp_Energy>
34.8443

> <b_lp_Chiralities_Consistent>
1

> <s_lp_Variant>
AV-unprocessed.smi:3031-3

> <Gold.Version>
5.8.1

> <Gold.Id.Protein>
6NUR|6NUR_protein|mol2

> <Gold.PLP.Fitness>
46.2120

> <Gold.PLP.PLP>
-26.8835

> <Gold.PLP.part.hbond>
-5.0000

> <Gold.PLP.part.metal>
0.0000

> <Gold.PLP.part.buried>
3.0117

> <Gold.PLP.part.nonpolar>
-24.3218

> <Gold.PLP.part.repulsive>
0.2248

> <Gold.PLP.ligand.clash>
0.0000

> <Gold.PLP.ligand.torsion>
1.3703

> <Gold.PLP.Chemscore.Hbond>
5.5040

> <Gold.PLP.Chemscore.CHOScore>
1.8249

> <Gold.PLP.Chemscore.Metal>
0.0000

> <Gold.Chemscore.Hbonds>
donor molecule, donor type, donor heavy atom, donor atom, acceptor molecule, acceptor atom, score
      L1  H     9    31       P1  7948  2.00
      L1  H     9    47       P1  7957  0.78
      L1  H    12    35       P1  7957  1.00
      P1  H  6896  6909       L1    17  1.00
      P1  H  7989  7998       L1    12  0.68
      L1  C     3    24       P1 10186  1.00
      L1  C    20    46       P1  7948  0.69

> <Gold.PLP.Chemscore.Internal.Correction>
0.0824

> <Gold.Rescore>
     Score         DG    S(hbond)    S(metal)    S(lipo)     H(rot)  DE(clash)    DE(int)     intcor
     17.86     -21.00       4.05        0.00      74.59       2.63       1.79       1.35       ----

> <Gold.Chemscore.Fitness>
17.8638

> <Gold.Chemscore.DG>
-21.0005

> <Gold.Chemscore.ZeroCoef>
-5.4800

> <Gold.Chemscore.Hbond>
4.0475

> <Gold.Chemscore.Metal>
0.0000

> <Gold.Chemscore.Lipo>
74.5904

> <Gold.Chemscore.Internal_Hbond>
0.0000

> <Gold.Chemscore.DEClash>
1.7911

> <Gold.Chemscore.DEInternal>
1.3455

> <Gold.Chemscore.Rot>
2.6270

> <Gold.Chemscore.Internal.Correction>
   9.000000E+99

> <Gold.Chemscore.Hbonds>
donor molecule, donor type, donor heavy atom, donor atom, acceptor molecule, acceptor atom, score
      L1  H     9    31       P1  7948  0.98
      L1  H     9    47       P1  7957  0.77
      L1  H    12    35       P1  7957  0.99
      P1  H  6896  6909       L1    17  0.98
      P1  H  7989  7998       L1    12  0.12

> <Gold.Chemscore.Hbond.Weighted>
-13.5185

> <Gold.Chemscore.Metal.Weighted>
-0.0000

> <Gold.Chemscore.Lipo.Weighted>
-8.7271

> <Gold.Chemscore.Internal_Hbond.Weighted>
0.0000

> <Gold.Chemscore.DEClash.Weighted>
1.7911

> <Gold.Chemscore.DEInternal.Weighted>
1.3455

> <Gold.Chemscore.Rot.Weighted>
6.7251

> <Gold.Chemscore.Internal.Correction.Weighted>
   9.000000E+99

> <Gold.Protein.RotatedTorsions>
[ 6907 6896 6895 6894 ] final   68.57 input  -60.11 | X-H torsion
[ 7974 7965 7964 7962 ] final   -3.41 input  175.53 | X-H torsion
[ 8008 7997 7996 7995 ] final   62.79 input   59.86 | X-H torsion
[ 10167 10162 10161 10158 ] final   75.51 input  -65.29 | X-H torsion
[ 10718 10713 10712 10709 ] final  -33.73 input   66.30 | X-H torsion
[ 10763 10752 10751 10750 ] final   46.07 input  -60.55 | X-H torsion
[ 11005 11000 10999 10996 ] final  -99.93 input  -57.11 | X-H torsion

> <Gold.Protein.ActiveResidues>
 VAL166  LYS551  ARG553  GLY616  TRP617  ASP618  TYR619  PRO620  LYS621  CYS622 
 ASP623  PHE694  ASN695  SER759  ASP760  ASP761  ALA762  ILE779  LEU786  VAL792 
 PHE793  MET794  SER795  GLU796  ALA797  LYS798  CYS799  TRP800  GLU811  SER814 

> <Gold.Protein.RotatedAtoms>
  152.4629  134.5143  159.9762 H   0  0  0  0  0  0  0  0  0  0  0  0  # atno 6907 bound_to 6896
  151.5187  133.3465  159.2905 H   0  0  0  0  0  0  0  0  0  0  0  0  # atno 6908 bound_to 6896
  150.8600  134.7978  159.7137 H   0  0  0  0  0  0  0  0  0  0  0  0  # atno 6909 bound_to 6896
  146.2390  140.1717  142.8332 H   0  0  0  0  0  0  0  0  0  0  0  0  # atno 7974 bound_to 7965
  155.6199  140.3495  155.4648 H   0  0  0  0  0  0  0  0  0  0  0  0  # atno 8008 bound_to 7997
  156.0088  140.1229  157.0499 H   0  0  0  0  0  0  0  0  0  0  0  0  # atno 8009 bound_to 7997
  154.4273  140.1086  156.5786 H   0  0  0  0  0  0  0  0  0  0  0  0  # atno 8010 bound_to 7997
  140.0022  144.5677  150.7728 H   0  0  0  0  0  0  0  0  0  0  0  0  # atno 10167 bound_to 10162
  156.3591  130.4321  149.7639 H   0  0  0  0  0  0  0  0  0  0  0  0  # atno 10718 bound_to 10713
  152.9815  135.6019  154.3540 H   0  0  0  0  0  0  0  0  0  0  0  0  # atno 10763 bound_to 10752
  154.3227  135.2769  155.2513 H   0  0  0  0  0  0  0  0  0  0  0  0  # atno 10764 bound_to 10752
  154.4673  135.5951  153.6352 H   0  0  0  0  0  0  0  0  0  0  0  0  # atno 10765 bound_to 10752
  141.1290  133.8359  157.1036 H   0  0  0  0  0  0  0  0  0  0  0  0  # atno 11005 bound_to 11000
  145.0006  140.8628  143.5284 LP  0  0  0  0  0  0  0  0  0  0  0  0  # atno 17320 bound_to 7965
  145.1736  139.2391  143.5329 LP  0  0  0  0  0  0  0  0  0  0  0  0  # atno 17321 bound_to 7965
  140.7414  143.2818  151.3577 LP  0  0  0  0  0  0  0  0  0  0  0  0  # atno 17342 bound_to 10162
  139.6264  144.0807  152.2437 LP  0  0  0  0  0  0  0  0  0  0  0  0  # atno 17343 bound_to 10162
  156.4810  130.8041  151.3055 LP  0  0  0  0  0  0  0  0  0  0  0  0  # atno 17370 bound_to 10713
  157.7471  131.0006  150.2931 LP  0  0  0  0  0  0  0  0  0  0  0  0  # atno 17371 bound_to 10713
  140.0318  134.9897  157.0795 LP  0  0  0  0  0  0  0  0  0  0  0  0  # atno 17394 bound_to 11000
  140.4273  134.1817  155.7166 LP  0  0  0  0  0  0  0  0  0  0  0  0  # atno 17395 bound_to 11000

$$$$
