AV-unprocessed.smi:2681|AV-procd|sdf|10373|dock1
  -GOLD-   2272014403D 1   1.00000     0.00000
 Structure written by MMmdl.
 42 43  0  0  0  0  0  0  0  0  1 V2000
  152.5203  133.4669  155.9926 N   0  0  0  0  0  0  0  0  0  0  0  0
  152.3669  134.6009  155.8223 C   0  0  0  0  0  0  0  0  0  0  0  0
  152.1731  136.0289  155.6075 C   0  0  0  0  0  0  0  0  0  0  0  0
  152.9154  136.9481  156.3783 C   0  0  0  0  0  0  0  0  0  0  0  0
  152.7429  138.3302  156.1622 C   0  0  0  0  0  0  0  0  0  0  0  0
  153.5235  139.2827  156.9381 C   0  0  0  0  0  0  0  0  0  0  0  0
  154.1439  140.0405  157.5543 N   0  0  0  0  0  0  0  0  0  0  0  0
  151.8152  138.7313  155.1717 C   0  0  0  0  0  0  0  0  0  0  0  0
  151.5195  140.4338  154.7792 S   0  0  0  0  0  0  0  0  0  0  0  0
  149.8626  140.8332  155.4134 C   0  0  0  0  0  0  0  0  0  0  0  0
  149.8925  141.3061  156.8735 C   0  0  0  0  0  0  0  0  0  0  0  0
  151.2063  141.7318  157.2061 O   0  0  0  0  0  0  0  0  0  0  0  0
  151.3308  142.4043  158.4527 C   0  0  0  0  0  0  0  0  0  0  0  0
  151.0077  143.9029  158.2559 C   0  0  0  0  0  0  0  0  0  0  0  0
  151.5858  144.8841  159.2916 C   0  0  0  0  0  0  0  0  0  0  0  0
  151.5719  144.3947  160.7483 C   0  0  0  0  0  0  0  0  0  0  0  0
  152.8218  143.5742  161.1089 C   0  0  0  0  0  0  0  0  0  0  0  0
  152.8627  142.1647  160.5012 C   0  0  0  0  0  0  0  0  0  0  0  0
  152.7531  142.1149  158.9675 C   0  0  0  0  0  0  0  0  0  0  0  0
  151.0892  137.8614  154.4368 N   0  0  0  0  0  0  0  0  0  0  0  0
  151.2664  136.5396  154.6435 C   0  0  0  0  0  0  0  0  0  0  0  0
  150.4932  135.7021  153.8372 N   0  0  0  0  0  0  0  0  0  0  0  0
  153.6185  136.5960  157.1204 H   0  0  0  0  0  0  0  0  0  0  0  0
  149.3921  141.5811  154.7749 H   0  0  0  0  0  0  0  0  0  0  0  0
  149.2555  139.9310  155.3386 H   0  0  0  0  0  0  0  0  0  0  0  0
  149.1909  142.1303  157.0024 H   0  0  0  0  0  0  0  0  0  0  0  0
  149.5704  140.4968  157.5304 H   0  0  0  0  0  0  0  0  0  0  0  0
  150.6224  141.9657  159.1575 H   0  0  0  0  0  0  0  0  0  0  0  0
  151.3562  144.2193  157.2719 H   0  0  0  0  0  0  0  0  0  0  0  0
  149.9239  144.0199  158.2336 H   0  0  0  0  0  0  0  0  0  0  0  0
  152.6041  145.1543  159.0097 H   0  0  0  0  0  0  0  0  0  0  0  0
  151.0168  145.8122  159.2252 H   0  0  0  0  0  0  0  0  0  0  0  0
  151.5545  145.2710  161.3972 H   0  0  0  0  0  0  0  0  0  0  0  0
  150.6579  143.8421  160.9691 H   0  0  0  0  0  0  0  0  0  0  0  0
  153.7188  144.1236  160.8207 H   0  0  0  0  0  0  0  0  0  0  0  0
  152.8735  143.4771  162.1938 H   0  0  0  0  0  0  0  0  0  0  0  0
  153.8021  141.6964  160.7963 H   0  0  0  0  0  0  0  0  0  0  0  0
  152.0784  141.5507  160.9456 H   0  0  0  0  0  0  0  0  0  0  0  0
  153.0225  141.1024  158.6677 H   0  0  0  0  0  0  0  0  0  0  0  0
  153.4866  142.7674  158.4924 H   0  0  0  0  0  0  0  0  0  0  0  0
  150.5498  134.6962  153.9095 H   0  0  0  0  0  0  0  0  0  0  0  0
  149.8500  136.0778  153.1551 H   0  0  0  0  0  0  0  0  0  0  0  0
  1  2  3  0  0  0  0
  2  3  1  0  0  0  0
  3 21  1  0  0  0  0
  3  4  2  0  0  0  0
  4  5  1  0  0  0  0
  4 23  1  0  0  0  0
  5  6  1  0  0  0  0
  5  8  2  0  0  0  0
  6  7  3  0  0  0  0
  8  9  1  0  0  0  0
  8 20  1  0  0  0  0
  9 10  1  0  0  0  0
 10 11  1  0  0  0  0
 10 24  1  0  0  0  0
 10 25  1  0  0  0  0
 11 12  1  0  0  0  0
 11 26  1  0  0  0  0
 11 27  1  0  0  0  0
 12 13  1  0  0  0  0
 13 19  1  0  0  0  0
 13 14  1  0  0  0  0
 13 28  1  0  0  0  0
 14 15  1  0  0  0  0
 14 29  1  0  0  0  0
 14 30  1  0  0  0  0
 15 16  1  0  0  0  0
 15 31  1  0  0  0  0
 15 32  1  0  0  0  0
 16 17  1  0  0  0  0
 16 33  1  0  0  0  0
 16 34  1  0  0  0  0
 17 18  1  0  0  0  0
 17 35  1  0  0  0  0
 17 36  1  0  0  0  0
 18 19  1  0  0  0  0
 18 37  1  0  0  0  0
 18 38  1  0  0  0  0
 19 39  1  0  0  0  0
 19 40  1  0  0  0  0
 20 21  2  0  0  0  0
 21 22  1  0  0  0  0
 22 41  1  0  0  0  0
 22 42  1  0  0  0  0
M  END
> <s_m_source_file>
AV-unprocessed.smi

> <i_m_source_file_index>
2681

> <i_lp_mmshare_version>
43012

> <i_f3d_flags>
0

> <s_epik_input>
TiNDYzFbY0hdYyhDI04pYyhuYzFbTkgyXSlTW0NIMl1bQ0gyXU9bQ0hdMltDSDJdW0NIMl1bQ0gyXVtDSDJdW0NIMl1bQ0gyXTI=

> <s_epik_cmdline>
J2VwaWtfcHl0aG9uJywgJy1waCcsICc3LjAnLCAnLXRuJywgJzgnLCAnLW1hJywgJzIwMCcsICctbWV0YWxfYmluZGluZycsICctaW1hZScsICc8aW5maWxlLm1hZT4nLCAnLW9tYWUnLCAnPG91dGZpbGUubWFlPic=

> <r_epik_Ionization_Penalty>
0.00177186

> <r_epik_Ionization_Penalty_Charging>
0

> <r_epik_Ionization_Penalty_Neutral>
0.00177186

> <r_epik_State_Penalty>
0.00120048

> <r_epik_Charging_Adjusted_Penalty>
0.00120048

> <i_epik_Tot_Q>
0

> <i_epik_Tot_abs_Q>
0

> <r_epik_Metal_State_Penalty>
-0

> <b_epik_Metal_Only>
0

> <s_lp_Force_Field>
OPLS_2005

> <r_lp_Energy>
17.568

> <b_lp_Chiralities_Consistent>
1

> <s_lp_Variant>
AV-unprocessed.smi:2681-1

> <Gold.Version>
5.8.1

> <Gold.Id.Protein>
6NUR|6NUR_protein|mol2

> <Gold.PLP.Fitness>
45.6783

> <Gold.PLP.PLP>
-38.9594

> <Gold.PLP.part.hbond>
-3.0000

> <Gold.PLP.part.metal>
0.0000

> <Gold.PLP.part.buried>
0.2399

> <Gold.PLP.part.nonpolar>
-35.3448

> <Gold.PLP.part.repulsive>
0.2286

> <Gold.PLP.ligand.clash>
0.0000

> <Gold.PLP.ligand.torsion>
0.9267

> <Gold.PLP.Chemscore.Hbond>
2.8143

> <Gold.PLP.Chemscore.CHOScore>
0.0000

> <Gold.PLP.Chemscore.Metal>
0.0000

> <Gold.Chemscore.Hbonds>
donor molecule, donor type, donor heavy atom, donor atom, acceptor molecule, acceptor atom, score
      L1  H    22    42       P1  7948  0.50

> <Gold.PLP.Chemscore.Internal.Correction>
0.1294

> <Gold.Rescore>
     Score         DG    S(hbond)    S(metal)    S(lipo)     H(rot)  DE(clash)    DE(int)     intcor
     17.88     -19.78       1.87        0.00     115.15       2.12       1.36       0.54       ----

> <Gold.Chemscore.Fitness>
17.8824

> <Gold.Chemscore.DG>
-19.7840

> <Gold.Chemscore.ZeroCoef>
-5.4800

> <Gold.Chemscore.Hbond>
1.8703

> <Gold.Chemscore.Metal>
0.0000

> <Gold.Chemscore.Lipo>
115.1480

> <Gold.Chemscore.Internal_Hbond>
0.0000

> <Gold.Chemscore.DEClash>
1.3599

> <Gold.Chemscore.DEInternal>
0.5417

> <Gold.Chemscore.Rot>
2.1152

> <Gold.Chemscore.Internal.Correction>
   9.000000E+99

> <Gold.Chemscore.Hbonds>
donor molecule, donor type, donor heavy atom, donor atom, acceptor molecule, acceptor atom, score
      L1  H    22    42       P1  7948  0.02

> <Gold.Chemscore.Hbond.Weighted>
-6.2467

> <Gold.Chemscore.Metal.Weighted>
-0.0000

> <Gold.Chemscore.Lipo.Weighted>
-13.4723

> <Gold.Chemscore.Internal_Hbond.Weighted>
0.0000

> <Gold.Chemscore.DEClash.Weighted>
1.3599

> <Gold.Chemscore.DEInternal.Weighted>
0.5417

> <Gold.Chemscore.Rot.Weighted>
5.4149

> <Gold.Chemscore.Internal.Correction.Weighted>
   9.000000E+99

> <Gold.Protein.RotatedTorsions>
[ 6907 6896 6895 6894 ] final  -28.01 input  -60.11 | X-H torsion
[ 7974 7965 7964 7962 ] final  -51.13 input  175.53 | X-H torsion
[ 8008 7997 7996 7995 ] final  131.43 input   59.86 | X-H torsion
[ 10167 10162 10161 10158 ] final  144.96 input  -65.29 | X-H torsion
[ 10718 10713 10712 10709 ] final   76.45 input   66.30 | X-H torsion
[ 10763 10752 10751 10750 ] final  122.60 input  -60.55 | X-H torsion
[ 11005 11000 10999 10996 ] final -127.24 input  -57.11 | X-H torsion

> <Gold.Protein.ActiveResidues>
 VAL166  LYS551  ARG553  GLY616  TRP617  ASP618  TYR619  PRO620  LYS621  CYS622 
 ASP623  PHE694  ASN695  SER759  ASP760  ASP761  ALA762  ILE779  LEU786  VAL792 
 PHE793  MET794  SER795  GLU796  ALA797  LYS798  CYS799  TRP800  GLU811  SER814 

> <Gold.Protein.RotatedAtoms>
  151.1389  135.0169  159.8616 H   0  0  0  0  0  0  0  0  0  0  0  0  # atno 6907 bound_to 6896
  152.5452  134.1522  159.8533 H   0  0  0  0  0  0  0  0  0  0  0  0  # atno 6908 bound_to 6896
  151.1596  133.4808  159.2627 H   0  0  0  0  0  0  0  0  0  0  0  0  # atno 6909 bound_to 6896
  145.9223  140.7822  142.9641 H   0  0  0  0  0  0  0  0  0  0  0  0  # atno 7974 bound_to 7965
  156.2970  140.2571  156.2924 H   0  0  0  0  0  0  0  0  0  0  0  0  # atno 8008 bound_to 7997
  154.9497  140.0394  157.2156 H   0  0  0  0  0  0  0  0  0  0  0  0  # atno 8009 bound_to 7997
  154.8048  140.2834  155.5900 H   0  0  0  0  0  0  0  0  0  0  0  0  # atno 8010 bound_to 7997
  139.4936  144.5935  151.6631 H   0  0  0  0  0  0  0  0  0  0  0  0  # atno 10167 bound_to 10162
  157.6674  130.9775  150.1499 H   0  0  0  0  0  0  0  0  0  0  0  0  # atno 10718 bound_to 10713
  153.6323  135.3394  155.3045 H   0  0  0  0  0  0  0  0  0  0  0  0  # atno 10763 bound_to 10752
  154.8577  135.4298  154.2092 H   0  0  0  0  0  0  0  0  0  0  0  0  # atno 10764 bound_to 10752
  153.2991  135.7023  153.7293 H   0  0  0  0  0  0  0  0  0  0  0  0  # atno 10765 bound_to 10752
  140.9615  134.0929  157.3963 H   0  0  0  0  0  0  0  0  0  0  0  0  # atno 11005 bound_to 11000
  144.6754  140.1996  143.7388 LP  0  0  0  0  0  0  0  0  0  0  0  0  # atno 17320 bound_to 7965
  145.8533  139.2186  143.1759 LP  0  0  0  0  0  0  0  0  0  0  0  0  # atno 17321 bound_to 7965
  140.5568  144.0335  150.6151 LP  0  0  0  0  0  0  0  0  0  0  0  0  # atno 17342 bound_to 10162
  140.3408  143.3021  152.0590 LP  0  0  0  0  0  0  0  0  0  0  0  0  # atno 17343 bound_to 10162
  156.2301  130.3681  149.8455 LP  0  0  0  0  0  0  0  0  0  0  0  0  # atno 17370 bound_to 10713
  156.6284  130.8655  151.3490 LP  0  0  0  0  0  0  0  0  0  0  0  0  # atno 17371 bound_to 10713
  139.8880  135.0094  156.6593 LP  0  0  0  0  0  0  0  0  0  0  0  0  # atno 17394 bound_to 11000
  140.7460  133.8937  155.8312 LP  0  0  0  0  0  0  0  0  0  0  0  0  # atno 17395 bound_to 11000

$$$$
