AV-unprocessed.smi:363|AV-procd|sdf|2423|dock3
  -GOLD-   2262022363D 1   1.00000     0.00000
 Structure written by MMmdl.
 39 40  0  0  0  0  0  0  0  0  1 V2000
  154.3491  142.0936  162.4561 C   0  0  0  0  0  0  0  0  0  0  0  0
  153.5960  142.0908  161.1314 C   0  0  0  0  0  0  0  0  0  0  0  0
  152.7471  143.2206  160.8327 C   0  0  0  0  0  0  0  0  0  0  0  0
  152.0180  143.2633  159.7062 C   0  0  0  0  0  0  0  0  0  0  0  0
  151.1127  144.4548  159.4111 C   0  0  0  0  0  0  0  0  0  0  0  0
  152.0825  142.1996  158.7642 N   0  0  0  0  0  0  0  0  0  0  0  0
  151.2690  142.2684  157.5272 C   0  0  0  0  0  0  0  0  0  0  0  0
  149.7686  142.0070  157.7991 C   0  0  2  0  0  0  0  0  0  0  0  0
  149.6421  141.1518  158.9178 O   0  0  0  0  0  0  0  0  0  0  0  0
  149.0878  141.4048  156.5790 C   0  0  0  0  0  0  0  0  0  0  0  0
  149.8557  141.0202  155.4588 C   0  0  0  0  0  0  0  0  0  0  0  0
  149.2310  140.4582  154.3284 C   0  0  0  0  0  0  0  0  0  0  0  0
  147.8347  140.2757  154.3118 C   0  0  0  0  0  0  0  0  0  0  0  0
  147.0700  139.5883  152.9262 Cl  0  0  0  0  0  0  0  0  0  0  0  0
  147.0636  140.6545  155.4276 C   0  0  0  0  0  0  0  0  0  0  0  0
  147.6881  141.2165  156.5580 C   0  0  0  0  0  0  0  0  0  0  0  0
  152.8896  141.1065  158.9534 C   0  0  0  0  0  0  0  0  0  0  0  0
  152.9702  140.2328  158.0840 O   0  0  0  0  0  0  0  0  0  0  0  0
  153.6499  141.0708  160.2331 C   0  0  0  0  0  0  0  0  0  0  0  0
  154.4932  139.8823  160.4671 C   0  0  0  0  0  0  0  0  0  0  0  0
  154.1625  138.7994  159.7502 N   0  0  0  0  0  0  0  0  0  0  0  0
  155.3915  139.8125  161.3045 O   0  0  0  0  0  0  0  0  0  0  0  0
  154.0056  142.9016  163.1023 H   0  0  0  0  0  0  0  0  0  0  0  0
  155.4172  142.2340  162.2886 H   0  0  0  0  0  0  0  0  0  0  0  0
  154.1983  141.1588  162.9970 H   0  0  0  0  0  0  0  0  0  0  0  0
  152.6906  144.0404  161.5344 H   0  0  0  0  0  0  0  0  0  0  0  0
  150.9788  145.0665  160.3038 H   0  0  0  0  0  0  0  0  0  0  0  0
  150.1177  144.1530  159.0890 H   0  0  0  0  0  0  0  0  0  0  0  0
  151.5566  145.0902  158.6441 H   0  0  0  0  0  0  0  0  0  0  0  0
  151.3934  143.2492  157.0707 H   0  0  0  0  0  0  0  0  0  0  0  0
  151.6327  141.6044  156.7408 H   0  0  0  0  0  0  0  0  0  0  0  0
  149.2649  142.9412  158.0492 H   0  0  0  0  0  0  0  0  0  0  0  0
  149.1979  140.3641  158.6436 H   0  0  0  0  0  0  0  0  0  0  0  0
  150.9277  141.1539  155.4607 H   0  0  0  0  0  0  0  0  0  0  0  0
  149.8247  140.1675  153.4743 H   0  0  0  0  0  0  0  0  0  0  0  0
  145.9926  140.5145  155.4187 H   0  0  0  0  0  0  0  0  0  0  0  0
  147.0888  141.5021  157.4103 H   0  0  0  0  0  0  0  0  0  0  0  0
  154.6809  137.9405  159.8650 H   0  0  0  0  0  0  0  0  0  0  0  0
  153.3840  138.8422  159.1085 H   0  0  0  0  0  0  0  0  0  0  0  0
  1  2  1  0  0  0  0
  1 23  1  0  0  0  0
  1 24  1  0  0  0  0
  1 25  1  0  0  0  0
  2 19  2  0  0  0  0
  2  3  1  0  0  0  0
  3  4  2  0  0  0  0
  3 26  1  0  0  0  0
  4  5  1  0  0  0  0
  4  6  1  0  0  0  0
  5 27  1  0  0  0  0
  5 28  1  0  0  0  0
  5 29  1  0  0  0  0
  6  7  1  0  0  0  0
  6 17  1  0  0  0  0
  7  8  1  0  0  0  0
  7 30  1  0  0  0  0
  7 31  1  0  0  0  0
  8  9  1  0  0  0  0
  8 10  1  0  0  0  0
  8 32  1  0  0  0  0
  9 33  1  0  0  0  0
 10 16  1  0  0  0  0
 10 11  2  0  0  0  0
 11 12  1  0  0  0  0
 11 34  1  0  0  0  0
 12 13  2  0  0  0  0
 12 35  1  0  0  0  0
 13 14  1  0  0  0  0
 13 15  1  0  0  0  0
 15 16  2  0  0  0  0
 15 36  1  0  0  0  0
 16 37  1  0  0  0  0
 17 18  2  0  0  0  0
 17 19  1  0  0  0  0
 19 20  1  0  0  0  0
 20 21  1  0  0  0  0
 20 22  2  0  0  0  0
 21 38  1  0  0  0  0
 21 39  1  0  0  0  0
M  END
> <s_m_source_file>
AV-unprocessed.smi

> <i_m_source_file_index>
363

> <i_lp_mmshare_version>
43012

> <i_f3d_flags>
0

> <s_epik_input>
W0NIM11jMVtjSF1jKFtDSDNdKW4oYyg9TyljMUMoPU8pW05IMl0pW0NIMl1bQ0BIXShbT0hdKWMyW2NIXVtjSF1jKENsKVtjSF1bY0hdMg==

> <s_epik_cmdline>
J2VwaWtfcHl0aG9uJywgJy1waCcsICc3LjAnLCAnLXRuJywgJzgnLCAnLW1hJywgJzIwMCcsICctbWV0YWxfYmluZGluZycsICctaW1hZScsICc8aW5maWxlLm1hZT4nLCAnLW9tYWUnLCAnPG91dGZpbGUubWFlPic=

> <r_lp_tautomer_probability>
1

> <r_epik_Ionization_Penalty>
3.91973e-07

> <r_epik_Ionization_Penalty_Charging>
1.35363e-07

> <r_epik_Ionization_Penalty_Neutral>
2.5661e-07

> <r_epik_State_Penalty>
-0

> <r_epik_Charging_Adjusted_Penalty>
1.35363e-07

> <i_epik_Tot_Q>
0

> <i_epik_Tot_abs_Q>
0

> <r_epik_Metal_State_Penalty>
-0

> <b_epik_Metal_Only>
0

> <s_lp_Force_Field>
OPLS_2005

> <r_lp_Energy>
39.7948

> <b_lp_Chiralities_Consistent>
1

> <s_lp_Variant>
AV-unprocessed.smi:363-1

> <Gold.Version>
5.8.1

> <Gold.Id.Protein>
6NUR|6NUR_protein|mol2

> <Gold.PLP.Fitness>
43.4976

> <Gold.PLP.PLP>
-41.7182

> <Gold.PLP.part.hbond>
-2.1692

> <Gold.PLP.part.metal>
0.0000

> <Gold.PLP.part.buried>
3.7056

> <Gold.PLP.part.nonpolar>
-41.2339

> <Gold.PLP.part.repulsive>
0.0538

> <Gold.PLP.ligand.clash>
0.0000

> <Gold.PLP.ligand.torsion>
0.7507

> <Gold.PLP.Chemscore.Hbond>
0.9760

> <Gold.PLP.Chemscore.CHOScore>
0.0000

> <Gold.PLP.Chemscore.Metal>
0.0000

> <Gold.Chemscore.Hbonds>
donor molecule, donor type, donor heavy atom, donor atom, acceptor molecule, acceptor atom, score
      P1  H  7997  8008       L1    18  0.94

> <Gold.PLP.Chemscore.Internal.Correction>
0.3528

> <Gold.Rescore>
     Score         DG    S(hbond)    S(metal)    S(lipo)     H(rot)  DE(clash)    DE(int)     intcor
     14.68     -17.43       0.88        0.00     119.69       1.95       0.50       2.25       ----

> <Gold.Chemscore.Fitness>
14.6829

> <Gold.Chemscore.DG>
-17.4348

> <Gold.Chemscore.ZeroCoef>
-5.4800

> <Gold.Chemscore.Hbond>
0.8810

> <Gold.Chemscore.Metal>
0.0000

> <Gold.Chemscore.Lipo>
119.6855

> <Gold.Chemscore.Internal_Hbond>
0.0000

> <Gold.Chemscore.DEClash>
0.4999

> <Gold.Chemscore.DEInternal>
2.2521

> <Gold.Chemscore.Rot>
1.9495

> <Gold.Chemscore.Internal.Correction>
   9.000000E+99

> <Gold.Chemscore.Hbonds>
donor molecule, donor type, donor heavy atom, donor atom, acceptor molecule, acceptor atom, score
      P1  H  7997  8008       L1    18  0.90

> <Gold.Chemscore.Hbond.Weighted>
-2.9424

> <Gold.Chemscore.Metal.Weighted>
-0.0000

> <Gold.Chemscore.Lipo.Weighted>
-14.0032

> <Gold.Chemscore.Internal_Hbond.Weighted>
0.0000

> <Gold.Chemscore.DEClash.Weighted>
0.4999

> <Gold.Chemscore.DEInternal.Weighted>
2.2521

> <Gold.Chemscore.Rot.Weighted>
4.9908

> <Gold.Chemscore.Internal.Correction.Weighted>
   9.000000E+99

> <Gold.Protein.RotatedTorsions>
[ 6907 6896 6895 6894 ] final -114.23 input  -60.11 | X-H torsion
[ 7974 7965 7964 7962 ] final   92.71 input  175.53 | X-H torsion
[ 8008 7997 7996 7995 ] final  -73.91 input   59.86 | X-H torsion
[ 10167 10162 10161 10158 ] final -178.70 input  -65.29 | X-H torsion
[ 10718 10713 10712 10709 ] final  -71.71 input   66.30 | X-H torsion
[ 10763 10752 10751 10750 ] final  -48.40 input  -60.55 | X-H torsion
[ 11005 11000 10999 10996 ] final   52.86 input  -57.11 | X-H torsion

> <Gold.Protein.ActiveResidues>
 VAL166  LYS551  ARG553  GLY616  TRP617  ASP618  TYR619  PRO620  LYS621  CYS622 
 ASP623  PHE694  ASN695  SER759  ASP760  ASP761  ALA762  ILE779  LEU786  VAL792 
 PHE793  MET794  SER795  GLU796  ALA797  LYS798  CYS799  TRP800  GLU811  SER814 

> <Gold.Protein.RotatedAtoms>
  150.7887  133.8830  159.3291 H   0  0  0  0  0  0  0  0  0  0  0  0  # atno 6907 bound_to 6896
  151.6674  135.0979  160.0201 H   0  0  0  0  0  0  0  0  0  0  0  0  # atno 6908 bound_to 6896
  152.3957  133.6704  159.6309 H   0  0  0  0  0  0  0  0  0  0  0  0  # atno 6909 bound_to 6896
  145.4887  139.2277  143.2842 H   0  0  0  0  0  0  0  0  0  0  0  0  # atno 7974 bound_to 7965
  154.5286  140.0771  156.8304 H   0  0  0  0  0  0  0  0  0  0  0  0  # atno 8008 bound_to 7997
  155.3422  140.3408  155.4221 H   0  0  0  0  0  0  0  0  0  0  0  0  # atno 8009 bound_to 7997
  156.1758  140.1635  156.8352 H   0  0  0  0  0  0  0  0  0  0  0  0  # atno 8010 bound_to 7997
  139.5420  144.2337  152.0914 H   0  0  0  0  0  0  0  0  0  0  0  0  # atno 10167 bound_to 10162
  156.0351  130.4357  150.2485 H   0  0  0  0  0  0  0  0  0  0  0  0  # atno 10718 bound_to 10713
  154.0771  135.6596  153.4832 H   0  0  0  0  0  0  0  0  0  0  0  0  # atno 10763 bound_to 10752
  153.0369  135.5171  154.7510 H   0  0  0  0  0  0  0  0  0  0  0  0  # atno 10764 bound_to 10752
  154.6594  135.3012  154.9854 H   0  0  0  0  0  0  0  0  0  0  0  0  # atno 10765 bound_to 10752
  140.0815  134.5333  155.8942 H   0  0  0  0  0  0  0  0  0  0  0  0  # atno 11005 bound_to 11000
  146.2297  140.5679  142.8980 LP  0  0  0  0  0  0  0  0  0  0  0  0  # atno 17320 bound_to 7965
  144.7846  140.5911  143.6582 LP  0  0  0  0  0  0  0  0  0  0  0  0  # atno 17321 bound_to 7965
  140.1817  144.4838  150.6525 LP  0  0  0  0  0  0  0  0  0  0  0  0  # atno 17342 bound_to 10162
  140.6654  143.2266  151.5756 LP  0  0  0  0  0  0  0  0  0  0  0  0  # atno 17343 bound_to 10162
  157.0584  131.0083  151.3230 LP  0  0  0  0  0  0  0  0  0  0  0  0  # atno 17370 bound_to 10713
  157.5088  130.7926  149.7683 LP  0  0  0  0  0  0  0  0  0  0  0  0  # atno 17371 bound_to 10713
  141.2048  133.6642  156.6143 LP  0  0  0  0  0  0  0  0  0  0  0  0  # atno 17394 bound_to 11000
  140.3481  134.7791  157.4447 LP  0  0  0  0  0  0  0  0  0  0  0  0  # atno 17395 bound_to 11000

$$$$
