AV-unprocessed.smi:1531|AV-procd|sdf|6158|dock1
  -GOLD-   22720 6303D 1   1.00000     0.00000
 Structure written by MMmdl.
 44 45  0  0  0  0  0  0  0  0  1 V2000
  154.6195  140.3564  161.5933 C   0  0  0  0  0  0  0  0  0  0  0  0
  153.9488  140.8270  160.2955 C   0  0  0  0  0  0  0  0  0  0  0  0
  153.5095  142.3092  160.3117 C   0  0  2  0  0  0  0  0  0  0  0  0
  152.6169  142.6037  161.5370 C   0  0  0  0  0  0  0  0  0  0  0  0
  152.2095  144.0838  161.6073 C   0  0  0  0  0  0  0  0  0  0  0  0
  151.5043  144.5277  160.3183 C   0  0  0  0  0  0  0  0  0  0  0  0
  152.3822  144.2533  159.0864 C   0  0  0  0  0  0  0  0  0  0  0  0
  152.8246  142.7780  158.9996 C   0  0  2  0  0  0  0  0  0  0  0  0
  151.6843  141.9250  158.6596 N   0  0  0  0  0  0  0  0  0  0  0  0
  151.7484  140.7331  158.0496 C   0  0  0  0  0  0  0  0  0  0  0  0
  152.7996  140.2031  157.6893 O   0  0  0  0  0  0  0  0  0  0  0  0
  150.5240  140.2064  157.8846 N   0  0  0  0  0  0  0  0  0  0  0  0
  150.1992  138.9474  157.3197 C   0  0  0  0  0  0  0  0  0  0  0  0
  148.9721  138.2626  157.5169 C   0  0  0  0  0  0  0  0  0  0  0  0
  148.9595  137.1066  156.8707 N   0  0  0  0  0  0  0  0  0  0  0  0
  150.1675  137.0320  156.2574 N   0  0  0  0  0  0  0  0  0  0  0  0
  150.4943  135.8705  155.4493 C   0  0  0  0  0  0  0  0  0  0  0  0
  149.3095  134.9075  155.3548 C   0  0  0  0  0  0  0  0  0  0  0  0
  148.7605  134.7312  154.1495 N   0  0  0  0  0  0  0  0  0  0  0  0
  148.8974  134.3258  156.3560 O   0  0  0  0  0  0  0  0  0  0  0  0
  150.9505  138.1410  156.5125 C   0  0  0  0  0  0  0  0  0  0  0  0
  154.8226  139.2860  161.5555 H   0  0  0  0  0  0  0  0  0  0  0  0
  153.9817  140.5421  162.4579 H   0  0  0  0  0  0  0  0  0  0  0  0
  155.5708  140.8615  161.7599 H   0  0  0  0  0  0  0  0  0  0  0  0
  154.6142  140.6361  159.4530 H   0  0  0  0  0  0  0  0  0  0  0  0
  153.0707  140.2030  160.1247 H   0  0  0  0  0  0  0  0  0  0  0  0
  154.4147  142.9068  160.4311 H   0  0  0  0  0  0  0  0  0  0  0  0
  151.7221  141.9813  161.5040 H   0  0  0  0  0  0  0  0  0  0  0  0
  153.1423  142.3326  162.4535 H   0  0  0  0  0  0  0  0  0  0  0  0
  151.5556  144.2492  162.4639 H   0  0  0  0  0  0  0  0  0  0  0  0
  153.0947  144.6996  161.7708 H   0  0  0  0  0  0  0  0  0  0  0  0
  150.5531  144.0029  160.2205 H   0  0  0  0  0  0  0  0  0  0  0  0
  151.2648  145.5898  160.3737 H   0  0  0  0  0  0  0  0  0  0  0  0
  151.8524  144.5434  158.1781 H   0  0  0  0  0  0  0  0  0  0  0  0
  153.2676  144.8885  159.1342 H   0  0  0  0  0  0  0  0  0  0  0  0
  153.5655  142.7178  158.2011 H   0  0  0  0  0  0  0  0  0  0  0  0
  150.7725  142.2753  158.9139 H   0  0  0  0  0  0  0  0  0  0  0  0
  149.7425  140.7603  158.2035 H   0  0  0  0  0  0  0  0  0  0  0  0
  148.1083  138.5585  158.0939 H   0  0  0  0  0  0  0  0  0  0  0  0
  150.7865  136.2053  154.4530 H   0  0  0  0  0  0  0  0  0  0  0  0
  151.3569  135.3595  155.8801 H   0  0  0  0  0  0  0  0  0  0  0  0
  147.9783  134.1023  154.0366 H   0  0  0  0  0  0  0  0  0  0  0  0
  149.1341  135.2268  153.3531 H   0  0  0  0  0  0  0  0  0  0  0  0
  151.9451  138.2462  156.1049 H   0  0  0  0  0  0  0  0  0  0  0  0
  1  2  1  0  0  0  0
  1 22  1  0  0  0  0
  1 23  1  0  0  0  0
  1 24  1  0  0  0  0
  2  3  1  0  0  0  0
  2 25  1  0  0  0  0
  2 26  1  0  0  0  0
  3  8  1  0  0  0  0
  3  4  1  0  0  0  0
  3 27  1  0  0  0  0
  4  5  1  0  0  0  0
  4 28  1  0  0  0  0
  4 29  1  0  0  0  0
  5  6  1  0  0  0  0
  5 30  1  0  0  0  0
  5 31  1  0  0  0  0
  6  7  1  0  0  0  0
  6 32  1  0  0  0  0
  6 33  1  0  0  0  0
  7  8  1  0  0  0  0
  7 34  1  0  0  0  0
  7 35  1  0  0  0  0
  8  9  1  0  0  0  0
  8 36  1  0  0  0  0
  9 10  1  0  0  0  0
  9 37  1  0  0  0  0
 10 11  2  0  0  0  0
 10 12  1  0  0  0  0
 12 13  1  0  0  0  0
 12 38  1  0  0  0  0
 13 21  2  0  0  0  0
 13 14  1  0  0  0  0
 14 15  2  0  0  0  0
 14 39  1  0  0  0  0
 15 16  1  0  0  0  0
 16 17  1  0  0  0  0
 16 21  1  0  0  0  0
 17 18  1  0  0  0  0
 17 40  1  0  0  0  0
 17 41  1  0  0  0  0
 18 19  1  0  0  0  0
 18 20  2  0  0  0  0
 19 42  1  0  0  0  0
 19 43  1  0  0  0  0
 21 44  1  0  0  0  0
M  END
> <s_m_source_file>
AV-unprocessed.smi

> <i_m_source_file_index>
1531

> <i_lp_mmshare_version>
43012

> <i_f3d_flags>
0

> <s_epik_input>
W0NIM11bQ0gyXVtDQEBIXTFbQ0gyXVtDSDJdW0NIMl1bQ0gyXVtDQEhdMVtOSF1DKD1PKVtOSF1jMltjSF1ubihbY0hdMilbQ0gyXUMoPU8pW05IMl0=

> <s_epik_cmdline>
J2VwaWtfcHl0aG9uJywgJy1waCcsICc3LjAnLCAnLXRuJywgJzgnLCAnLW1hJywgJzIwMCcsICctbWV0YWxfYmluZGluZycsICctaW1hZScsICc8aW5maWxlLm1hZT4nLCAnLW9tYWUnLCAnPG91dGZpbGUubWFlPic=

> <r_lp_tautomer_probability>
1

> <r_epik_Ionization_Penalty>
4.83437e-05

> <r_epik_Ionization_Penalty_Charging>
0

> <r_epik_Ionization_Penalty_Neutral>
4.83437e-05

> <r_epik_State_Penalty>
-0

> <r_epik_Charging_Adjusted_Penalty>
0

> <i_epik_Tot_Q>
0

> <i_epik_Tot_abs_Q>
0

> <r_epik_Metal_State_Penalty>
-0

> <b_epik_Metal_Only>
0

> <s_lp_Force_Field>
OPLS_2005

> <r_lp_Energy>
15.1652

> <b_lp_Chiralities_Consistent>
1

> <s_lp_Variant>
AV-unprocessed.smi:1531-3

> <Gold.Version>
5.8.1

> <Gold.Id.Protein>
6NUR|6NUR_protein|mol2

> <Gold.PLP.Fitness>
44.4010

> <Gold.PLP.PLP>
-39.2686

> <Gold.PLP.part.hbond>
-2.0000

> <Gold.PLP.part.metal>
0.0000

> <Gold.PLP.part.buried>
-4.6783

> <Gold.PLP.part.nonpolar>
-31.6859

> <Gold.PLP.part.repulsive>
0.1935

> <Gold.PLP.ligand.clash>
0.0000

> <Gold.PLP.ligand.torsion>
0.4611

> <Gold.PLP.Chemscore.Hbond>
2.0000

> <Gold.PLP.Chemscore.CHOScore>
0.0000

> <Gold.PLP.Chemscore.Metal>
0.0000

> <Gold.Chemscore.Hbonds>
donor molecule, donor type, donor heavy atom, donor atom, acceptor molecule, acceptor atom, score
      L1  H    19    43       P1  7948  1.00
      P1  H  7997  8009       L1    11  0.99

> <Gold.PLP.Chemscore.Internal.Correction>
0.0546

> <Gold.Rescore>
     Score         DG    S(hbond)    S(metal)    S(lipo)     H(rot)  DE(clash)    DE(int)     intcor
     15.95     -18.73       1.95        0.00     104.30       2.13       0.01       2.77       ----

> <Gold.Chemscore.Fitness>
15.9469

> <Gold.Chemscore.DG>
-18.7316

> <Gold.Chemscore.ZeroCoef>
-5.4800

> <Gold.Chemscore.Hbond>
1.9492

> <Gold.Chemscore.Metal>
0.0000

> <Gold.Chemscore.Lipo>
104.3000

> <Gold.Chemscore.Internal_Hbond>
0.0000

> <Gold.Chemscore.DEClash>
0.0115

> <Gold.Chemscore.DEInternal>
2.7732

> <Gold.Chemscore.Rot>
2.1335

> <Gold.Chemscore.Internal.Correction>
   9.000000E+99

> <Gold.Chemscore.Hbonds>
donor molecule, donor type, donor heavy atom, donor atom, acceptor molecule, acceptor atom, score
      L1  H    19    43       P1  7948  0.25
      P1  H  7997  8009       L1    11  0.94

> <Gold.Chemscore.Hbond.Weighted>
-6.5103

> <Gold.Chemscore.Metal.Weighted>
-0.0000

> <Gold.Chemscore.Lipo.Weighted>
-12.2031

> <Gold.Chemscore.Internal_Hbond.Weighted>
0.0000

> <Gold.Chemscore.DEClash.Weighted>
0.0115

> <Gold.Chemscore.DEInternal.Weighted>
2.7732

> <Gold.Chemscore.Rot.Weighted>
5.4618

> <Gold.Chemscore.Internal.Correction.Weighted>
   9.000000E+99

> <Gold.Protein.RotatedTorsions>
[ 6907 6896 6895 6894 ] final   32.28 input  -60.11 | X-H torsion
[ 7974 7965 7964 7962 ] final  155.63 input  175.53 | X-H torsion
[ 8008 7997 7996 7995 ] final  166.50 input   59.86 | X-H torsion
[ 10167 10162 10161 10158 ] final -121.11 input  -65.29 | X-H torsion
[ 10718 10713 10712 10709 ] final  130.97 input   66.30 | X-H torsion
[ 10763 10752 10751 10750 ] final -105.67 input  -60.55 | X-H torsion
[ 11005 11000 10999 10996 ] final   73.30 input  -57.11 | X-H torsion

> <Gold.Protein.ActiveResidues>
 VAL166  LYS551  ARG553  GLY616  TRP617  ASP618  TYR619  PRO620  LYS621  CYS622 
 ASP623  PHE694  ASN695  SER759  ASP760  ASP761  ALA762  ILE779  LEU786  VAL792 
 PHE793  MET794  SER795  GLU796  ALA797  LYS798  CYS799  TRP800  GLU811  SER814 

> <Gold.Protein.RotatedAtoms>
  152.0722  134.9526  160.0574 H   0  0  0  0  0  0  0  0  0  0  0  0  # atno 6907 bound_to 6896
  152.0847  133.4165  159.4525 H   0  0  0  0  0  0  0  0  0  0  0  0  # atno 6908 bound_to 6896
  150.6836  134.2861  159.4691 H   0  0  0  0  0  0  0  0  0  0  0  0  # atno 6909 bound_to 6896
  144.8013  139.7094  143.6181 H   0  0  0  0  0  0  0  0  0  0  0  0  # atno 7974 bound_to 7965
  156.1713  140.1642  156.8442 H   0  0  0  0  0  0  0  0  0  0  0  0  # atno 8008 bound_to 7997
  154.5260  140.0767  156.8293 H   0  0  0  0  0  0  0  0  0  0  0  0  # atno 8009 bound_to 7997
  155.3506  140.3390  155.4241 H   0  0  0  0  0  0  0  0  0  0  0  0  # atno 8010 bound_to 7997
  140.0285  143.5272  152.2187 H   0  0  0  0  0  0  0  0  0  0  0  0  # atno 10167 bound_to 10162
  157.5012  131.1094  150.9424 H   0  0  0  0  0  0  0  0  0  0  0  0  # atno 10718 bound_to 10713
  154.7962  135.4740  154.0166 H   0  0  0  0  0  0  0  0  0  0  0  0  # atno 10763 bound_to 10752
  153.1707  135.6824  153.8619 H   0  0  0  0  0  0  0  0  0  0  0  0  # atno 10764 bound_to 10752
  153.8203  135.3205  155.3387 H   0  0  0  0  0  0  0  0  0  0  0  0  # atno 10765 bound_to 10752
  139.9447  134.7335  156.1010 H   0  0  0  0  0  0  0  0  0  0  0  0  # atno 11005 bound_to 11000
  146.2294  139.5785  142.9565 LP  0  0  0  0  0  0  0  0  0  0  0  0  # atno 17320 bound_to 7965
  145.5547  141.0410  143.2259 LP  0  0  0  0  0  0  0  0  0  0  0  0  # atno 17321 bound_to 7965
  139.6091  144.7604  151.2992 LP  0  0  0  0  0  0  0  0  0  0  0  0  # atno 17342 bound_to 10162
  140.7312  143.6858  150.7963 LP  0  0  0  0  0  0  0  0  0  0  0  0  # atno 17343 bound_to 10162
  157.0095  130.5631  149.5319 LP  0  0  0  0  0  0  0  0  0  0  0  0  # atno 17370 bound_to 10713
  156.0230  130.5325  150.8329 LP  0  0  0  0  0  0  0  0  0  0  0  0  # atno 17371 bound_to 10713
  141.1093  133.6649  156.2940 LP  0  0  0  0  0  0  0  0  0  0  0  0  # atno 17394 bound_to 11000
  140.5864  134.5694  157.5490 LP  0  0  0  0  0  0  0  0  0  0  0  0  # atno 17395 bound_to 11000

$$$$
