AV-unprocessed.smi:1824|AV-procd|sdf|7397|dock3
  -GOLD-   22720 9 63D 1   1.00000     0.00000
 Structure written by MMmdl.
 44 46  0  0  0  0  0  0  0  0  1 V2000
  146.7034  137.7154  157.1814 C   0  0  0  0  0  0  0  0  0  0  0  0
  147.1771  138.6922  156.1001 C   0  0  1  0  0  0  0  0  0  0  0  0
  148.5005  139.3803  156.4806 C   0  0  0  0  0  0  0  0  0  0  0  0
  148.9920  140.2448  155.4152 N   0  0  0  0  0  0  0  0  0  0  0  0
  150.2244  140.9242  155.8148 C   0  0  0  0  0  0  0  0  0  0  0  0
  150.1172  141.7785  157.0963 C   0  0  2  0  0  0  0  0  0  0  0  0
  148.9821  142.6188  157.0010 O   0  0  0  0  0  0  0  0  0  0  0  0
  151.3643  142.6596  157.3077 C   0  0  0  0  0  0  0  0  0  0  0  0
  151.3429  143.3578  158.5810 N   0  0  0  0  0  0  0  0  0  0  0  0
  150.6518  144.4728  158.8876 C   0  0  0  0  0  0  0  0  0  0  0  0
  150.7786  144.9477  160.1236 N   0  0  0  0  0  0  0  0  0  0  0  0
  151.6546  144.0347  160.6853 C   0  0  0  0  0  0  0  0  0  0  0  0
  152.1987  143.9672  161.9877 C   0  0  0  0  0  0  0  0  0  0  0  0
  153.0867  142.9288  162.3387 C   0  0  0  0  0  0  0  0  0  0  0  0
  153.5994  142.8792  163.5912 F   0  0  0  0  0  0  0  0  0  0  0  0
  153.4429  141.9434  161.3937 C   0  0  0  0  0  0  0  0  0  0  0  0
  154.2960  140.9498  161.7389 F   0  0  0  0  0  0  0  0  0  0  0  0
  152.9131  141.9897  160.0901 C   0  0  0  0  0  0  0  0  0  0  0  0
  152.0281  143.0277  159.7449 C   0  0  0  0  0  0  0  0  0  0  0  0
  149.1565  139.4524  154.1987 C   0  0  0  0  0  0  0  0  0  0  0  0
  147.8664  138.7138  153.7893 C   0  0  2  0  0  0  0  0  0  0  0  0
  146.7982  139.6441  153.1900 C   0  0  0  0  0  0  0  0  0  0  0  0
  147.3558  137.9590  154.8896 O   0  0  0  0  0  0  0  0  0  0  0  0
  146.5392  138.2280  158.1294 H   0  0  0  0  0  0  0  0  0  0  0  0
  147.4374  136.9269  157.3499 H   0  0  0  0  0  0  0  0  0  0  0  0
  145.7650  137.2409  156.8933 H   0  0  0  0  0  0  0  0  0  0  0  0
  146.4025  139.4460  155.9564 H   0  0  0  0  0  0  0  0  0  0  0  0
  148.3509  139.9635  157.3900 H   0  0  0  0  0  0  0  0  0  0  0  0
  149.2507  138.6237  156.7164 H   0  0  0  0  0  0  0  0  0  0  0  0
  150.9746  140.1542  155.9998 H   0  0  0  0  0  0  0  0  0  0  0  0
  150.6204  141.5181  154.9894 H   0  0  0  0  0  0  0  0  0  0  0  0
  149.9982  141.1280  157.9641 H   0  0  0  0  0  0  0  0  0  0  0  0
  149.0744  143.1634  156.2345 H   0  0  0  0  0  0  0  0  0  0  0  0
  152.2673  142.0487  157.2750 H   0  0  0  0  0  0  0  0  0  0  0  0
  151.4552  143.3938  156.5055 H   0  0  0  0  0  0  0  0  0  0  0  0
  150.0171  144.9625  158.1631 H   0  0  0  0  0  0  0  0  0  0  0  0
  151.9325  144.7156  162.7192 H   0  0  0  0  0  0  0  0  0  0  0  0
  153.1823  141.2360  159.3651 H   0  0  0  0  0  0  0  0  0  0  0  0
  149.4773  140.0854  153.3719 H   0  0  0  0  0  0  0  0  0  0  0  0
  149.9499  138.7189  154.3503 H   0  0  0  0  0  0  0  0  0  0  0  0
  148.1264  137.9899  153.0166 H   0  0  0  0  0  0  0  0  0  0  0  0
  147.1693  140.1282  152.2865 H   0  0  0  0  0  0  0  0  0  0  0  0
  146.5047  140.4320  153.8832 H   0  0  0  0  0  0  0  0  0  0  0  0
  145.9022  139.0847  152.9205 H   0  0  0  0  0  0  0  0  0  0  0  0
  1  2  1  0  0  0  0
  1 24  1  0  0  0  0
  1 25  1  0  0  0  0
  1 26  1  0  0  0  0
  2 23  1  0  0  0  0
  2  3  1  0  0  0  0
  2 27  1  0  0  0  0
  3  4  1  0  0  0  0
  3 28  1  0  0  0  0
  3 29  1  0  0  0  0
  4  5  1  0  0  0  0
  4 20  1  0  0  0  0
  5  6  1  0  0  0  0
  5 30  1  0  0  0  0
  5 31  1  0  0  0  0
  6  7  1  0  0  0  0
  6  8  1  0  0  0  0
  6 32  1  0  0  0  0
  7 33  1  0  0  0  0
  8  9  1  0  0  0  0
  8 34  1  0  0  0  0
  8 35  1  0  0  0  0
  9 19  1  0  0  0  0
  9 10  1  0  0  0  0
 10 11  2  0  0  0  0
 10 36  1  0  0  0  0
 11 12  1  0  0  0  0
 12 19  2  0  0  0  0
 12 13  1  0  0  0  0
 13 14  2  0  0  0  0
 13 37  1  0  0  0  0
 14 15  1  0  0  0  0
 14 16  1  0  0  0  0
 16 17  1  0  0  0  0
 16 18  2  0  0  0  0
 18 19  1  0  0  0  0
 18 38  1  0  0  0  0
 20 21  1  0  0  0  0
 20 39  1  0  0  0  0
 20 40  1  0  0  0  0
 21 22  1  0  0  0  0
 21 23  1  0  0  0  0
 21 41  1  0  0  0  0
 22 42  1  0  0  0  0
 22 43  1  0  0  0  0
 22 44  1  0  0  0  0
M  END
> <s_m_source_file>
AV-unprocessed.smi

> <i_m_source_file_index>
1824

> <i_lp_mmshare_version>
43012

> <i_f3d_flags>
0

> <s_epik_input>
W0NIM11bQ0BASF0xW0NIMl1OKFtDSDJdW0NASF0oTzEpW0NIM10pW0NIMl1bQ0BIXShbT0hdKVtDSDJdbihbY0hdbjIpYyhjMjMpW2NIXWMoRiljKEYpW2NIXTM=

> <s_epik_cmdline>
J2VwaWtfcHl0aG9uJywgJy1waCcsICc3LjAnLCAnLXRuJywgJzgnLCAnLW1hJywgJzIwMCcsICctbWV0YWxfYmluZGluZycsICctaW1hZScsICc8aW5maWxlLm1hZT4nLCAnLW9tYWUnLCAnPG91dGZpbGUubWFlPic=

> <r_epik_Ionization_Penalty>
0.273778

> <r_epik_Ionization_Penalty_Charging>
0

> <r_epik_Ionization_Penalty_Neutral>
0.273778

> <r_epik_State_Penalty>
0.246794

> <r_epik_Charging_Adjusted_Penalty>
0.246794

> <i_epik_Tot_Q>
0

> <i_epik_Tot_abs_Q>
0

> <r_epik_Metal_State_Penalty>
0.238234

> <b_epik_Metal_Only>
0

> <s_lp_Force_Field>
OPLS_2005

> <r_lp_Energy>
30.6075

> <b_lp_Chiralities_Consistent>
1

> <s_lp_Variant>
AV-unprocessed.smi:1824-5

> <Gold.Version>
5.8.1

> <Gold.Id.Protein>
6NUR|6NUR_protein|mol2

> <Gold.PLP.Fitness>
51.5095

> <Gold.PLP.PLP>
-46.6762

> <Gold.PLP.part.hbond>
-0.8051

> <Gold.PLP.part.metal>
0.0000

> <Gold.PLP.part.buried>
-4.7533

> <Gold.PLP.part.nonpolar>
-42.2517

> <Gold.PLP.part.repulsive>
0.2890

> <Gold.PLP.ligand.clash>
0.0000

> <Gold.PLP.ligand.torsion>
0.3356

> <Gold.PLP.Chemscore.Hbond>
0.8160

> <Gold.PLP.Chemscore.CHOScore>
1.0087

> <Gold.PLP.Chemscore.Metal>
0.0000

> <Gold.Chemscore.Hbonds>
donor molecule, donor type, donor heavy atom, donor atom, acceptor molecule, acceptor atom, score
      L1  H     7    33       P1  8028  0.86
      L1  C    10    36       P1  8028  0.18
      L1  C    10    36       P1  8029  0.85

> <Gold.PLP.Chemscore.Internal.Correction>
0.0303

> <Gold.Rescore>
     Score         DG    S(hbond)    S(metal)    S(lipo)     H(rot)  DE(clash)    DE(int)     intcor
     15.38     -15.72       0.92        0.00     110.74       2.26       0.03       0.31       ----

> <Gold.Chemscore.Fitness>
15.3781

> <Gold.Chemscore.DG>
-15.7240

> <Gold.Chemscore.ZeroCoef>
-5.4800

> <Gold.Chemscore.Hbond>
0.9213

> <Gold.Chemscore.Metal>
0.0000

> <Gold.Chemscore.Lipo>
110.7448

> <Gold.Chemscore.Internal_Hbond>
0.0000

> <Gold.Chemscore.DEClash>
0.0339

> <Gold.Chemscore.DEInternal>
0.3120

> <Gold.Chemscore.Rot>
2.2619

> <Gold.Chemscore.Internal.Correction>
   9.000000E+99

> <Gold.Chemscore.Hbonds>
donor molecule, donor type, donor heavy atom, donor atom, acceptor molecule, acceptor atom, score
      L1  H     7    33       P1  8028  0.85

> <Gold.Chemscore.Hbond.Weighted>
-3.0773

> <Gold.Chemscore.Metal.Weighted>
-0.0000

> <Gold.Chemscore.Lipo.Weighted>
-12.9571

> <Gold.Chemscore.Internal_Hbond.Weighted>
0.0000

> <Gold.Chemscore.DEClash.Weighted>
0.0339

> <Gold.Chemscore.DEInternal.Weighted>
0.3120

> <Gold.Chemscore.Rot.Weighted>
5.7904

> <Gold.Chemscore.Internal.Correction.Weighted>
   9.000000E+99

> <Gold.Protein.RotatedTorsions>
[ 6907 6896 6895 6894 ] final  -12.51 input  -60.11 | X-H torsion
[ 7974 7965 7964 7962 ] final  -16.43 input  175.53 | X-H torsion
[ 8008 7997 7996 7995 ] final   39.76 input   59.86 | X-H torsion
[ 10167 10162 10161 10158 ] final   58.21 input  -65.29 | X-H torsion
[ 10718 10713 10712 10709 ] final -132.27 input   66.30 | X-H torsion
[ 10763 10752 10751 10750 ] final -127.21 input  -60.55 | X-H torsion
[ 11005 11000 10999 10996 ] final  148.63 input  -57.11 | X-H torsion

> <Gold.Protein.ActiveResidues>
 VAL166  LYS551  ARG553  GLY616  TRP617  ASP618  TYR619  PRO620  LYS621  CYS622 
 ASP623  PHE694  ASN695  SER759  ASP760  ASP761  ALA762  ILE779  LEU786  VAL792 
 PHE793  MET794  SER795  GLU796  ALA797  LYS798  CYS799  TRP800  GLU811  SER814 

> <Gold.Protein.RotatedAtoms>
  151.3693  135.0919  159.9459 H   0  0  0  0  0  0  0  0  0  0  0  0  # atno 6907 bound_to 6896
  152.5140  133.9180  159.7531 H   0  0  0  0  0  0  0  0  0  0  0  0  # atno 6908 bound_to 6896
  150.9591  133.6410  159.2787 H   0  0  0  0  0  0  0  0  0  0  0  0  # atno 6909 bound_to 6896
  146.1988  140.3635  142.8431 H   0  0  0  0  0  0  0  0  0  0  0  0  # atno 7974 bound_to 7965
  155.2420  140.3346  155.4291 H   0  0  0  0  0  0  0  0  0  0  0  0  # atno 8008 bound_to 7997
  156.2252  140.1826  156.7426 H   0  0  0  0  0  0  0  0  0  0  0  0  # atno 8009 bound_to 7997
  154.5887  140.0641  156.9193 H   0  0  0  0  0  0  0  0  0  0  0  0  # atno 8010 bound_to 7997
  140.1897  144.4098  150.6577 H   0  0  0  0  0  0  0  0  0  0  0  0  # atno 10167 bound_to 10162
  156.2329  130.7048  151.0877 H   0  0  0  0  0  0  0  0  0  0  0  0  # atno 10718 bound_to 10713
  154.8751  135.3969  154.3557 H   0  0  0  0  0  0  0  0  0  0  0  0  # atno 10763 bound_to 10752
  153.4336  135.7025  153.6220 H   0  0  0  0  0  0  0  0  0  0  0  0  # atno 10764 bound_to 10752
  153.4831  135.3765  155.2422 H   0  0  0  0  0  0  0  0  0  0  0  0  # atno 10765 bound_to 10752
  140.0976  134.9003  157.1747 H   0  0  0  0  0  0  0  0  0  0  0  0  # atno 11005 bound_to 11000
  144.8637  140.7176  143.6091 LP  0  0  0  0  0  0  0  0  0  0  0  0  # atno 17320 bound_to 7965
  145.3555  139.1695  143.4411 LP  0  0  0  0  0  0  0  0  0  0  0  0  # atno 17321 bound_to 7965
  140.6464  143.2214  151.6176 LP  0  0  0  0  0  0  0  0  0  0  0  0  # atno 17342 bound_to 10162
  139.5261  144.3055  152.1037 LP  0  0  0  0  0  0  0  0  0  0  0  0  # atno 17343 bound_to 10162
  157.7141  131.0719  150.6393 LP  0  0  0  0  0  0  0  0  0  0  0  0  # atno 17370 bound_to 10713
  156.6461  130.4472  149.5735 LP  0  0  0  0  0  0  0  0  0  0  0  0  # atno 17371 bound_to 10713
  140.3264  134.2858  155.7236 LP  0  0  0  0  0  0  0  0  0  0  0  0  # atno 17394 bound_to 11000
  141.2096  133.7743  156.9983 LP  0  0  0  0  0  0  0  0  0  0  0  0  # atno 17395 bound_to 11000

$$$$
