AV-unprocessed.smi:2160|AV-procd|sdf|8800|dock1
  -GOLD-   2272011583D 1   1.00000     0.00000
 Structure written by MMmdl.
 44 46  0  0  0  0  0  0  0  0  2 V2000
  148.8940  131.2466  152.7603 C   0  0  0  0  0  0  0  0  0  0  0  0
  149.6472  131.3199  153.9620 O   0  0  0  0  0  0  0  0  0  0  0  0
  149.9856  132.5677  154.4398 C   0  0  0  0  0  0  0  0  0  0  0  0
  149.5870  133.7867  153.8361 C   0  0  0  0  0  0  0  0  0  0  0  0
  149.9782  135.0197  154.3928 C   0  0  0  0  0  0  0  0  0  0  0  0
  150.7677  135.0592  155.5593 C   0  0  0  0  0  0  0  0  0  0  0  0
  151.1918  136.4012  156.1291 C   0  0  0  0  0  0  0  0  0  0  0  0
  152.0393  137.1296  155.2542 O   0  0  0  0  0  0  0  0  0  0  0  0
  152.8293  138.0925  155.9325 C   0  0  0  0  0  0  0  0  0  0  0  0
  152.1241  139.4568  155.8752 C   0  0  1  0  0  0  0  0  0  0  0  0
  151.2429  139.4593  154.7687 O   0  0  0  0  0  0  0  0  0  0  0  0
  151.3253  139.7457  157.1620 C   0  0  0  0  0  0  0  0  0  0  0  0
  151.0260  141.1747  157.3370 N   0  0  0  0  0  0  0  0  0  0  0  0
  150.3118  142.0128  156.5376 C   0  0  0  0  0  0  0  0  0  0  0  0
  150.3085  143.2407  157.1260 N   0  3  0  0  0  0  0  0  0  0  0  0
  151.0301  143.1878  158.3201 C   0  0  0  0  0  0  0  0  0  0  0  0
  151.3029  144.1743  159.2627 C   0  0  0  0  0  0  0  0  0  0  0  0
  152.0713  143.7872  160.3798 C   0  0  0  0  0  0  0  0  0  0  0  0
  152.5364  142.4644  160.5282 C   0  0  0  0  0  0  0  0  0  0  0  0
  152.2543  141.4725  159.5661 C   0  0  0  0  0  0  0  0  0  0  0  0
  151.4948  141.8628  158.4631 C   0  0  0  0  0  0  0  0  0  0  0  0
  151.1742  133.8489  156.1590 C   0  0  0  0  0  0  0  0  0  0  0  0
  150.7811  132.6164  155.6028 C   0  0  0  0  0  0  0  0  0  0  0  0
  148.7081  130.2012  152.5146 H   0  0  0  0  0  0  0  0  0  0  0  0
  149.4348  131.6904  151.9233 H   0  0  0  0  0  0  0  0  0  0  0  0
  147.9254  131.7370  152.8660 H   0  0  0  0  0  0  0  0  0  0  0  0
  148.9812  133.8038  152.9429 H   0  0  0  0  0  0  0  0  0  0  0  0
  149.6693  135.9397  153.9186 H   0  0  0  0  0  0  0  0  0  0  0  0
  150.2925  136.9816  156.3402 H   0  0  0  0  0  0  0  0  0  0  0  0
  151.7028  136.2336  157.0787 H   0  0  0  0  0  0  0  0  0  0  0  0
  153.0259  137.7958  156.9644 H   0  0  0  0  0  0  0  0  0  0  0  0
  153.7940  138.1549  155.4264 H   0  0  0  0  0  0  0  0  0  0  0  0
  152.8639  140.2466  155.7365 H   0  0  0  0  0  0  0  0  0  0  0  0
  151.0792  138.5648  154.5129 H   0  0  0  0  0  0  0  0  0  0  0  0
  150.3987  139.1723  157.1912 H   0  0  0  0  0  0  0  0  0  0  0  0
  151.9023  139.4338  158.0334 H   0  0  0  0  0  0  0  0  0  0  0  0
  149.8313  141.7500  155.6062 H   0  0  0  0  0  0  0  0  0  0  0  0
  150.9457  145.1877  159.1522 H   0  0  0  0  0  0  0  0  0  0  0  0
  152.3080  144.5189  161.1388 H   0  0  0  0  0  0  0  0  0  0  0  0
  153.1209  142.2044  161.3988 H   0  0  0  0  0  0  0  0  0  0  0  0
  152.6137  140.4627  159.6950 H   0  0  0  0  0  0  0  0  0  0  0  0
  151.7894  133.8544  157.0469 H   0  0  0  0  0  0  0  0  0  0  0  0
  151.0968  131.6968  156.0736 H   0  0  0  0  0  0  0  0  0  0  0  0
  149.8449  144.0531  156.7396 H   0  0  0  0  0  0  0  0  0  0  0  0
  1  2  1  0  0  0  0
  1 24  1  0  0  0  0
  1 25  1  0  0  0  0
  1 26  1  0  0  0  0
  2  3  1  0  0  0  0
  3 23  1  0  0  0  0
  3  4  2  0  0  0  0
  4  5  1  0  0  0  0
  4 27  1  0  0  0  0
  5  6  2  0  0  0  0
  5 28  1  0  0  0  0
  6  7  1  0  0  0  0
  6 22  1  0  0  0  0
  7  8  1  0  0  0  0
  7 29  1  0  0  0  0
  7 30  1  0  0  0  0
  8  9  1  0  0  0  0
  9 10  1  0  0  0  0
  9 31  1  0  0  0  0
  9 32  1  0  0  0  0
 10 11  1  0  0  0  0
 10 12  1  0  0  0  0
 10 33  1  0  0  0  0
 11 34  1  0  0  0  0
 12 13  1  0  0  0  0
 12 35  1  0  0  0  0
 12 36  1  0  0  0  0
 13 21  1  0  0  0  0
 13 14  1  0  0  0  0
 14 15  2  0  0  0  0
 14 37  1  0  0  0  0
 15 16  1  0  0  0  0
 15 44  1  0  0  0  0
 16 21  2  0  0  0  0
 16 17  1  0  0  0  0
 17 18  2  0  0  0  0
 17 38  1  0  0  0  0
 18 19  1  0  0  0  0
 18 39  1  0  0  0  0
 19 20  2  0  0  0  0
 19 40  1  0  0  0  0
 20 21  1  0  0  0  0
 20 41  1  0  0  0  0
 22 23  2  0  0  0  0
 22 42  1  0  0  0  0
 23 43  1  0  0  0  0
M  CHG  1  15   1
M  END
> <s_m_source_file>
AV-unprocessed.smi

> <i_m_source_file_index>
2160

> <i_lp_mmshare_version>
43012

> <i_f3d_flags>
0

> <s_epik_input>
W0NIM11PYzFbY0hdW2NIXWMoW2NIXVtjSF0xKVtDSDJdT1tDSDJdW0NASF0oW09IXSlbQ0gyXW4oW2NIXW4yKWMoYzIzKVtjSF1bY0hdW2NIXVtjSF0z

> <s_epik_cmdline>
J2VwaWtfcHl0aG9uJywgJy1waCcsICc3LjAnLCAnLXRuJywgJzgnLCAnLW1hJywgJzIwMCcsICctbWV0YWxfYmluZGluZycsICctaW1hZScsICc8aW5maWxlLm1hZT4nLCAnLW9tYWUnLCAnPG91dGZpbGUubWFlPic=

> <r_lp_tautomer_probability>
1

> <r_epik_Ionization_Penalty>
1.28975

> <r_epik_Ionization_Penalty_Charging>
1.28975

> <r_epik_Ionization_Penalty_Neutral>
9.74819e-07

> <r_epik_State_Penalty>
1.36276

> <r_epik_Charging_Adjusted_Penalty>
2.65251

> <i_epik_Tot_Q>
1

> <i_epik_Tot_abs_Q>
1

> <r_epik_Metal_State_Penalty>
5.39298

> <b_epik_Metal_Only>
0

> <s_lp_Force_Field>
OPLS_2005

> <r_lp_Energy>
25.2455

> <b_lp_Chiralities_Consistent>
1

> <s_lp_Variant>
AV-unprocessed.smi:2160-4

> <Gold.Version>
5.8.1

> <Gold.Id.Protein>
6NUR|6NUR_protein|mol2

> <Gold.PLP.Fitness>
57.6323

> <Gold.PLP.PLP>
-48.0457

> <Gold.PLP.part.hbond>
-3.0000

> <Gold.PLP.part.metal>
0.0000

> <Gold.PLP.part.buried>
-6.1778

> <Gold.PLP.part.nonpolar>
-40.4763

> <Gold.PLP.part.repulsive>
0.0984

> <Gold.PLP.ligand.clash>
0.0000

> <Gold.PLP.ligand.torsion>
1.0711

> <Gold.PLP.Chemscore.Hbond>
3.8512

> <Gold.PLP.Chemscore.CHOScore>
0.0000

> <Gold.PLP.Chemscore.Metal>
0.0000

> <Gold.Chemscore.Hbonds>
donor molecule, donor type, donor heavy atom, donor atom, acceptor molecule, acceptor atom, score
      L1  H    15    44       P1  8028  2.00
      P1  H  7989  7998       L1    11  1.00
      P1  H 10752 10763       L1     8  0.72

> <Gold.PLP.Chemscore.Internal.Correction>
0.1753

> <Gold.Rescore>
     Score         DG    S(hbond)    S(metal)    S(lipo)     H(rot)  DE(clash)    DE(int)     intcor
     20.36     -21.38       2.53        0.00     123.71       2.74       0.12       0.90       ----

> <Gold.Chemscore.Fitness>
20.3611

> <Gold.Chemscore.DG>
-21.3813

> <Gold.Chemscore.ZeroCoef>
-5.4800

> <Gold.Chemscore.Hbond>
2.5265

> <Gold.Chemscore.Metal>
0.0000

> <Gold.Chemscore.Lipo>
123.7147

> <Gold.Chemscore.Internal_Hbond>
0.0000

> <Gold.Chemscore.DEClash>
0.1183

> <Gold.Chemscore.DEInternal>
0.9019

> <Gold.Chemscore.Rot>
2.7390

> <Gold.Chemscore.Internal.Correction>
   9.000000E+99

> <Gold.Chemscore.Hbonds>
donor molecule, donor type, donor heavy atom, donor atom, acceptor molecule, acceptor atom, score
      L1  H    15    44       P1  8028  0.91
      P1  H  7989  7998       L1    11  0.84
      P1  H 10752 10763       L1     8  0.10

> <Gold.Chemscore.Hbond.Weighted>
-8.4385

> <Gold.Chemscore.Metal.Weighted>
-0.0000

> <Gold.Chemscore.Lipo.Weighted>
-14.4746

> <Gold.Chemscore.Internal_Hbond.Weighted>
0.0000

> <Gold.Chemscore.DEClash.Weighted>
0.1183

> <Gold.Chemscore.DEInternal.Weighted>
0.9019

> <Gold.Chemscore.Rot.Weighted>
7.0118

> <Gold.Chemscore.Internal.Correction.Weighted>
   9.000000E+99

> <Gold.Protein.RotatedTorsions>
[ 6907 6896 6895 6894 ] final  104.04 input  -60.11 | X-H torsion
[ 7974 7965 7964 7962 ] final  -11.76 input  175.53 | X-H torsion
[ 8008 7997 7996 7995 ] final -116.11 input   59.86 | X-H torsion
[ 10167 10162 10161 10158 ] final   88.02 input  -65.29 | X-H torsion
[ 10718 10713 10712 10709 ] final  -41.30 input   66.30 | X-H torsion
[ 10763 10752 10751 10750 ] final   57.38 input  -60.55 | X-H torsion
[ 11005 11000 10999 10996 ] final  -91.03 input  -57.11 | X-H torsion

> <Gold.Protein.ActiveResidues>
 VAL166  LYS551  ARG553  GLY616  TRP617  ASP618  TYR619  PRO620  LYS621  CYS622 
 ASP623  PHE694  ASN695  SER759  ASP760  ASP761  ALA762  ILE779  LEU786  VAL792 
 PHE793  MET794  SER795  GLU796  ALA797  LYS798  CYS799  TRP800  GLU811  SER814 

> <Gold.Protein.RotatedAtoms>
  152.5277  133.9736  159.7773 H   0  0  0  0  0  0  0  0  0  0  0  0  # atno 6907 bound_to 6896
  151.0003  133.6054  159.2703 H   0  0  0  0  0  0  0  0  0  0  0  0  # atno 6908 bound_to 6896
  151.3165  135.0814  159.9344 H   0  0  0  0  0  0  0  0  0  0  0  0  # atno 6909 bound_to 6896
  146.2176  140.2958  142.8371 H   0  0  0  0  0  0  0  0  0  0  0  0  # atno 7974 bound_to 7965
  155.0627  140.0393  157.2582 H   0  0  0  0  0  0  0  0  0  0  0  0  # atno 8008 bound_to 7997
  154.7046  140.2680  155.6662 H   0  0  0  0  0  0  0  0  0  0  0  0  # atno 8009 bound_to 7997
  156.2771  140.2733  156.1668 H   0  0  0  0  0  0  0  0  0  0  0  0  # atno 8010 bound_to 7997
  139.8715  144.6490  150.8944 H   0  0  0  0  0  0  0  0  0  0  0  0  # atno 10167 bound_to 10162
  156.2719  130.4207  149.8429 H   0  0  0  0  0  0  0  0  0  0  0  0  # atno 10718 bound_to 10713
  152.9849  135.5643  154.5382 H   0  0  0  0  0  0  0  0  0  0  0  0  # atno 10763 bound_to 10752
  154.4841  135.2790  155.1550 H   0  0  0  0  0  0  0  0  0  0  0  0  # atno 10764 bound_to 10752
  154.3046  135.6300  153.5492 H   0  0  0  0  0  0  0  0  0  0  0  0  # atno 10765 bound_to 10752
  141.1553  133.7730  156.9822 H   0  0  0  0  0  0  0  0  0  0  0  0  # atno 11005 bound_to 11000
  144.9093  140.7738  143.5817 LP  0  0  0  0  0  0  0  0  0  0  0  0  # atno 17320 bound_to 7965
  145.2888  139.1891  143.4751 LP  0  0  0  0  0  0  0  0  0  0  0  0  # atno 17321 bound_to 7965
  140.7760  143.3660  151.1738 LP  0  0  0  0  0  0  0  0  0  0  0  0  # atno 17342 bound_to 10162
  139.7279  143.9118  152.3009 LP  0  0  0  0  0  0  0  0  0  0  0  0  # atno 17343 bound_to 10162
  156.5907  130.8505  151.3407 LP  0  0  0  0  0  0  0  0  0  0  0  0  # atno 17370 bound_to 10713
  157.7286  130.9660  150.1752 LP  0  0  0  0  0  0  0  0  0  0  0  0  # atno 17371 bound_to 10713
  140.1058  134.9507  157.1992 LP  0  0  0  0  0  0  0  0  0  0  0  0  # atno 17394 bound_to 11000
  140.3258  134.2865  155.7237 LP  0  0  0  0  0  0  0  0  0  0  0  0  # atno 17395 bound_to 11000

$$$$
