AV-unprocessed.smi:1038|AV-procd|sdf|4521|dock3
  -GOLD-   22720 2533D 1   1.00000     0.00000
 Structure written by MMmdl.
 57 58  0  0  0  0  0  0  0  0  2 V2000
  147.5582  142.2068  153.5615 C   0  0  0  0  0  0  0  0  0  0  0  0
  146.5706  141.2251  153.8202 O   0  0  0  0  0  0  0  0  0  0  0  0
  147.1112  140.0477  154.3968 C   0  0  0  0  0  0  0  0  0  0  0  0
  148.1969  139.4657  153.4772 C   0  0  0  0  0  0  0  0  0  0  0  0
  149.2332  138.7518  154.2372 N   0  0  0  0  0  0  0  0  0  0  0  0
  148.9836  137.3967  154.5296 C   0  0  0  0  0  0  0  0  0  0  0  0
  149.8547  136.6346  155.2191 C   0  0  0  0  0  0  0  0  0  0  0  0
  149.5336  135.2316  155.4906 C   0  0  0  0  0  0  0  0  0  0  0  0
  149.7066  134.6693  156.5730 O   0  0  0  0  0  0  0  0  0  0  0  0
  149.0212  134.5821  154.4335 N   0  0  0  0  0  0  0  0  0  0  0  0
  148.6174  133.1790  154.4275 C   0  0  0  0  0  0  0  0  0  0  0  0
  147.3145  132.9221  153.6046 C   0  0  0  0  0  0  0  0  0  0  0  0
  146.1416  133.5762  154.2922 N   0  3  0  0  0  0  0  0  0  0  0  0
  146.0602  135.0561  154.1682 C   0  0  0  0  0  0  0  0  0  0  0  0
  145.9316  133.1808  155.7104 C   0  0  0  0  0  0  0  0  0  0  0  0
  147.5471  133.4983  152.1684 C   0  0  0  0  0  0  0  0  0  0  0  0
  146.3608  133.5002  151.1863 C   0  0  0  0  0  0  0  0  0  0  0  0
  145.7887  132.1159  150.8564 C   0  0  0  0  0  0  0  0  0  0  0  0
  144.9390  131.5542  152.0008 C   0  0  0  0  0  0  0  0  0  0  0  0
  145.7265  130.8181  153.0947 C   0  0  0  0  0  0  0  0  0  0  0  0
  147.1141  131.3762  153.4890 C   0  0  0  0  0  0  0  0  0  0  0  0
  151.0901  137.2664  155.6590 C   0  0  0  0  0  0  0  0  0  0  0  0
  151.3357  138.5608  155.3773 C   0  0  0  0  0  0  0  0  0  0  0  0
  150.3821  139.3822  154.6262 C   0  0  0  0  0  0  0  0  0  0  0  0
  150.6063  140.5641  154.3648 O   0  0  0  0  0  0  0  0  0  0  0  0
  147.0914  143.0914  153.1284 H   0  0  0  0  0  0  0  0  0  0  0  0
  148.3038  141.8394  152.8551 H   0  0  0  0  0  0  0  0  0  0  0  0
  148.0643  142.5084  154.4795 H   0  0  0  0  0  0  0  0  0  0  0  0
  147.5505  140.2904  155.3656 H   0  0  0  0  0  0  0  0  0  0  0  0
  146.3250  139.3115  154.5731 H   0  0  0  0  0  0  0  0  0  0  0  0
  147.7415  138.8297  152.7162 H   0  0  0  0  0  0  0  0  0  0  0  0
  148.6623  140.2785  152.9178 H   0  0  0  0  0  0  0  0  0  0  0  0
  148.0397  137.0291  154.1512 H   0  0  0  0  0  0  0  0  0  0  0  0
  148.9048  135.0976  153.5731 H   0  0  0  0  0  0  0  0  0  0  0  0
  149.4530  132.6037  154.0278 H   0  0  0  0  0  0  0  0  0  0  0  0
  148.4887  132.8635  155.4634 H   0  0  0  0  0  0  0  0  0  0  0  0
  146.8805  135.5494  154.6893 H   0  0  0  0  0  0  0  0  0  0  0  0
  145.1315  135.4162  154.6124 H   0  0  0  0  0  0  0  0  0  0  0  0
  146.0561  135.3996  153.1362 H   0  0  0  0  0  0  0  0  0  0  0  0
  146.6762  133.6327  156.3662 H   0  0  0  0  0  0  0  0  0  0  0  0
  145.9578  132.1044  155.8650 H   0  0  0  0  0  0  0  0  0  0  0  0
  144.9533  133.5227  156.0497 H   0  0  0  0  0  0  0  0  0  0  0  0
  147.9245  134.5187  152.2412 H   0  0  0  0  0  0  0  0  0  0  0  0
  148.3570  132.9526  151.6832 H   0  0  0  0  0  0  0  0  0  0  0  0
  145.5636  134.1527  151.5407 H   0  0  0  0  0  0  0  0  0  0  0  0
  146.7051  133.9523  150.2553 H   0  0  0  0  0  0  0  0  0  0  0  0
  145.1472  132.2214  149.9807 H   0  0  0  0  0  0  0  0  0  0  0  0
  146.5758  131.4183  150.5676 H   0  0  0  0  0  0  0  0  0  0  0  0
  144.3469  132.3552  152.4445 H   0  0  0  0  0  0  0  0  0  0  0  0
  144.2081  130.8575  151.5886 H   0  0  0  0  0  0  0  0  0  0  0  0
  145.0907  130.7474  153.9767 H   0  0  0  0  0  0  0  0  0  0  0  0
  145.8719  129.7853  152.7754 H   0  0  0  0  0  0  0  0  0  0  0  0
  147.8403  130.9808  152.7775 H   0  0  0  0  0  0  0  0  0  0  0  0
  147.3889  130.9025  154.4323 H   0  0  0  0  0  0  0  0  0  0  0  0
  151.8363  136.7186  156.2154 H   0  0  0  0  0  0  0  0  0  0  0  0
  152.2600  139.0079  155.7130 H   0  0  0  0  0  0  0  0  0  0  0  0
  145.3334  133.2258  153.7974 H   0  0  0  0  0  0  0  0  0  0  0  0
  1  2  1  0  0  0  0
  1 26  1  0  0  0  0
  1 27  1  0  0  0  0
  1 28  1  0  0  0  0
  2  3  1  0  0  0  0
  3  4  1  0  0  0  0
  3 29  1  0  0  0  0
  3 30  1  0  0  0  0
  4  5  1  0  0  0  0
  4 31  1  0  0  0  0
  4 32  1  0  0  0  0
  5 24  1  0  0  0  0
  5  6  1  0  0  0  0
  6  7  2  0  0  0  0
  6 33  1  0  0  0  0
  7  8  1  0  0  0  0
  7 22  1  0  0  0  0
  8  9  2  0  0  0  0
  8 10  1  0  0  0  0
 10 11  1  0  0  0  0
 10 34  1  0  0  0  0
 11 12  1  0  0  0  0
 11 35  1  0  0  0  0
 11 36  1  0  0  0  0
 12 21  1  0  0  0  0
 12 13  1  0  0  0  0
 12 16  1  0  0  0  0
 13 14  1  0  0  0  0
 13 15  1  0  0  0  0
 13 57  1  0  0  0  0
 14 37  1  0  0  0  0
 14 38  1  0  0  0  0
 14 39  1  0  0  0  0
 15 40  1  0  0  0  0
 15 41  1  0  0  0  0
 15 42  1  0  0  0  0
 16 17  1  0  0  0  0
 16 43  1  0  0  0  0
 16 44  1  0  0  0  0
 17 18  1  0  0  0  0
 17 45  1  0  0  0  0
 17 46  1  0  0  0  0
 18 19  1  0  0  0  0
 18 47  1  0  0  0  0
 18 48  1  0  0  0  0
 19 20  1  0  0  0  0
 19 49  1  0  0  0  0
 19 50  1  0  0  0  0
 20 21  1  0  0  0  0
 20 51  1  0  0  0  0
 20 52  1  0  0  0  0
 21 53  1  0  0  0  0
 21 54  1  0  0  0  0
 22 23  2  0  0  0  0
 22 55  1  0  0  0  0
 23 24  1  0  0  0  0
 23 56  1  0  0  0  0
 24 25  2  0  0  0  0
M  CHG  1  13   1
M  END
> <s_m_source_file>
AV-unprocessed.smi

> <i_m_source_file_index>
1038

> <i_lp_mmshare_version>
43012

> <i_f3d_flags>
0

> <s_epik_input>
W0NIM11PW0NIMl1bQ0gyXW4xW2NIXWMoW2NIXVtjSF1jMT1PKUMoPU8pW05IXVtDSDJdQzIoTihbQ0gzXSlbQ0gzXSlbQ0gyXVtDSDJdW0NIMl1bQ0gyXVtDSDJdW0NIMl0y

> <s_epik_cmdline>
J2VwaWtfcHl0aG9uJywgJy1waCcsICc3LjAnLCAnLXRuJywgJzgnLCAnLW1hJywgJzIwMCcsICctbWV0YWxfYmluZGluZycsICctaW1hZScsICc8aW5maWxlLm1hZT4nLCAnLW9tYWUnLCAnPG91dGZpbGUubWFlPic=

> <r_lp_tautomer_probability>
1

> <r_epik_Ionization_Penalty>
0.00379096

> <r_epik_Ionization_Penalty_Charging>
0.0037899

> <r_epik_Ionization_Penalty_Neutral>
1.06849e-06

> <r_epik_State_Penalty>
0.00270348

> <r_epik_Charging_Adjusted_Penalty>
0.00649338

> <i_epik_Tot_Q>
1

> <i_epik_Tot_abs_Q>
1

> <r_epik_Metal_State_Penalty>
-0

> <b_epik_Metal_Only>
0

> <s_lp_Force_Field>
OPLS_2005

> <r_lp_Energy>
50.9414

> <b_lp_Chiralities_Consistent>
1

> <s_lp_Variant>
AV-unprocessed.smi:1038-1

> <Gold.Version>
5.8.1

> <Gold.Id.Protein>
6NUR|6NUR_protein|mol2

> <Gold.PLP.Fitness>
39.9487

> <Gold.PLP.PLP>
-36.4928

> <Gold.PLP.part.hbond>
-1.9969

> <Gold.PLP.part.metal>
0.0000

> <Gold.PLP.part.buried>
-0.9687

> <Gold.PLP.part.nonpolar>
-33.1087

> <Gold.PLP.part.repulsive>
0.2667

> <Gold.PLP.ligand.clash>
0.0000

> <Gold.PLP.ligand.torsion>
1.6403

> <Gold.PLP.Chemscore.Hbond>
1.9260

> <Gold.PLP.Chemscore.CHOScore>
0.2203

> <Gold.PLP.Chemscore.Metal>
0.0000

> <Gold.Chemscore.Hbonds>
donor molecule, donor type, donor heavy atom, donor atom, acceptor molecule, acceptor atom, score
      L1  H    10    34       P1  7948  1.00
      P1  H  7989  7998       L1    25  0.59
      L1  C     6    33       P1  7948  0.27

> <Gold.PLP.Chemscore.Internal.Correction>
0.2974

> <Gold.Rescore>
     Score         DG    S(hbond)    S(metal)    S(lipo)     H(rot)  DE(clash)    DE(int)     intcor
     12.21     -15.22       1.22        0.00      89.18       1.86       1.34       1.66       ----

> <Gold.Chemscore.Fitness>
12.2143

> <Gold.Chemscore.DG>
-15.2173

> <Gold.Chemscore.ZeroCoef>
-5.4800

> <Gold.Chemscore.Hbond>
1.2208

> <Gold.Chemscore.Metal>
0.0000

> <Gold.Chemscore.Lipo>
89.1792

> <Gold.Chemscore.Internal_Hbond>
0.0000

> <Gold.Chemscore.DEClash>
1.3395

> <Gold.Chemscore.DEInternal>
1.6635

> <Gold.Chemscore.Rot>
1.8649

> <Gold.Chemscore.Internal.Correction>
   9.000000E+99

> <Gold.Chemscore.Hbonds>
donor molecule, donor type, donor heavy atom, donor atom, acceptor molecule, acceptor atom, score
      L1  H    10    34       P1  7948  0.52
      P1  H  7989  7998       L1    25  0.55

> <Gold.Chemscore.Hbond.Weighted>
-4.0774

> <Gold.Chemscore.Metal.Weighted>
-0.0000

> <Gold.Chemscore.Lipo.Weighted>
-10.4340

> <Gold.Chemscore.Internal_Hbond.Weighted>
0.0000

> <Gold.Chemscore.DEClash.Weighted>
1.3395

> <Gold.Chemscore.DEInternal.Weighted>
1.6635

> <Gold.Chemscore.Rot.Weighted>
4.7741

> <Gold.Chemscore.Internal.Correction.Weighted>
   9.000000E+99

> <Gold.Protein.RotatedTorsions>
[ 6907 6896 6895 6894 ] final  175.65 input  -60.11 | X-H torsion
[ 7974 7965 7964 7962 ] final -152.89 input  175.53 | X-H torsion
[ 8008 7997 7996 7995 ] final  154.81 input   59.86 | X-H torsion
[ 10167 10162 10161 10158 ] final  -16.72 input  -65.29 | X-H torsion
[ 10718 10713 10712 10709 ] final  166.34 input   66.30 | X-H torsion
[ 10763 10752 10751 10750 ] final -103.93 input  -60.55 | X-H torsion
[ 11005 11000 10999 10996 ] final -141.65 input  -57.11 | X-H torsion

> <Gold.Protein.ActiveResidues>
 VAL166  LYS551  ARG553  GLY616  TRP617  ASP618  TYR619  PRO620  LYS621  CYS622 
 ASP623  PHE694  ASN695  SER759  ASP760  ASP761  ALA762  ILE779  LEU786  VAL792 
 PHE793  MET794  SER795  GLU796  ALA797  LYS798  CYS799  TRP800  GLU811  SER814 

> <Gold.Protein.RotatedAtoms>
  151.7329  133.3318  159.3344 H   0  0  0  0  0  0  0  0  0  0  0  0  # atno 6907 bound_to 6896
  150.7605  134.6348  159.6215 H   0  0  0  0  0  0  0  0  0  0  0  0  # atno 6908 bound_to 6896
  152.3580  134.6914  160.0267 H   0  0  0  0  0  0  0  0  0  0  0  0  # atno 6909 bound_to 6896
  144.7770  140.4600  143.5866 H   0  0  0  0  0  0  0  0  0  0  0  0  # atno 7974 bound_to 7965
  156.2512  140.1956  156.6703 H   0  0  0  0  0  0  0  0  0  0  0  0  # atno 8008 bound_to 7997
  154.6398  140.0585  156.9857 H   0  0  0  0  0  0  0  0  0  0  0  0  # atno 8009 bound_to 7997
  155.1581  140.3257  155.4420 H   0  0  0  0  0  0  0  0  0  0  0  0  # atno 8010 bound_to 7997
  140.7237  143.5088  150.9776 H   0  0  0  0  0  0  0  0  0  0  0  0  # atno 10167 bound_to 10162
  157.0672  131.0356  151.2625 H   0  0  0  0  0  0  0  0  0  0  0  0  # atno 10718 bound_to 10713
  154.7842  135.4805  153.9911 H   0  0  0  0  0  0  0  0  0  0  0  0  # atno 10763 bound_to 10752
  153.1537  135.6796  153.8851 H   0  0  0  0  0  0  0  0  0  0  0  0  # atno 10764 bound_to 10752
  153.8487  135.3170  155.3409 H   0  0  0  0  0  0  0  0  0  0  0  0  # atno 10765 bound_to 10752
  140.8303  134.2524  157.4859 H   0  0  0  0  0  0  0  0  0  0  0  0  # atno 11005 bound_to 11000
  145.6159  139.1518  143.3050 LP  0  0  0  0  0  0  0  0  0  0  0  0  # atno 17320 bound_to 7965
  146.1955  140.6272  142.9126 LP  0  0  0  0  0  0  0  0  0  0  0  0  # atno 17321 bound_to 7965
  139.8800  143.7083  152.3158 LP  0  0  0  0  0  0  0  0  0  0  0  0  # atno 17342 bound_to 10162
  139.7362  144.7570  151.0723 LP  0  0  0  0  0  0  0  0  0  0  0  0  # atno 17343 bound_to 10162
  157.4907  130.7820  149.7505 LP  0  0  0  0  0  0  0  0  0  0  0  0  # atno 17370 bound_to 10713
  155.9961  130.3908  150.2793 LP  0  0  0  0  0  0  0  0  0  0  0  0  # atno 17371 bound_to 10713
  139.8705  134.9583  156.4295 LP  0  0  0  0  0  0  0  0  0  0  0  0  # atno 17394 bound_to 11000
  140.9005  133.7783  155.9674 LP  0  0  0  0  0  0  0  0  0  0  0  0  # atno 17395 bound_to 11000

$$$$
