AV-unprocessed.smi:156|AV-procd|sdf|1290|dock4
  -GOLD-   2262018573D 1   1.00000     0.00000
 Structure written by MMmdl.
 51 53  0  0  0  0  0  0  0  0  1 V2000
  150.7798  136.2924  157.7062 C   0  0  0  0  0  0  0  0  0  0  0  0
  150.3232  136.7805  156.3181 C   0  0  1  0  0  0  0  0  0  0  0  0
  151.2283  137.8717  155.6751 C   0  0  1  0  0  0  0  0  0  0  0  0
  150.8528  138.0995  154.1973 C   0  0  0  0  0  0  0  0  0  0  0  0
  151.1309  139.4789  156.6107 S   0  0  0  0  0  0  0  0  0  0  0  0
  149.8768  139.1488  157.9193 C   0  0  0  0  0  0  0  0  0  0  0  0
  152.4247  139.7169  157.2687 O   0  0  0  0  0  0  0  0  0  0  0  0
  150.5704  140.5064  155.7198 O   0  0  0  0  0  0  0  0  0  0  0  0
  150.1372  135.6265  155.4261 N   0  0  0  0  0  0  0  0  0  0  0  0
  151.1831  134.6168  155.2932 C   0  0  0  0  0  0  0  0  0  0  0  0
  148.8729  135.3009  155.0472 C   0  0  0  0  0  0  0  0  0  0  0  0
  147.8407  135.9315  155.6668 N   0  0  0  0  0  0  0  0  0  0  0  0
  146.5773  135.6600  155.3297 C   0  0  0  0  0  0  0  0  0  0  0  0
  146.1251  134.8021  154.4148 N   0  0  0  0  0  0  0  0  0  0  0  0
  147.1525  134.1588  153.7900 C   0  0  0  0  0  0  0  0  0  0  0  0
  148.5431  134.3504  154.0347 C   0  0  0  0  0  0  0  0  0  0  0  0
  149.2799  133.5180  153.1988 N   0  0  0  0  0  0  0  0  0  0  0  0
  148.3813  132.8799  152.5012 C   0  0  0  0  0  0  0  0  0  0  0  0
  147.0749  133.1879  152.8055 N   0  0  0  0  0  0  0  0  0  0  0  0
  145.8762  132.6285  152.1952 C   0  0  0  0  0  0  0  0  0  0  0  0
  145.4498  133.2883  150.8625 C   0  0  0  0  0  0  0  0  0  0  0  0
  145.3499  134.7969  151.1490 C   0  0  0  0  0  0  0  0  0  0  0  0
  144.6986  135.5116  150.1177 O   0  0  0  0  0  0  0  0  0  0  0  0
  146.2417  132.8595  149.6145 C   0  0  0  0  0  0  0  0  0  0  0  0
  145.1828  131.9761  149.1841 O   0  0  0  0  0  0  0  0  0  0  0  0
  144.2815  132.6354  150.1007 C   0  0  0  0  0  0  0  0  0  0  0  0
  150.6911  137.0731  158.4604 H   0  0  0  0  0  0  0  0  0  0  0  0
  151.8145  135.9491  157.6912 H   0  0  0  0  0  0  0  0  0  0  0  0
  150.1596  135.4631  158.0488 H   0  0  0  0  0  0  0  0  0  0  0  0
  149.3578  137.2563  156.4909 H   0  0  0  0  0  0  0  0  0  0  0  0
  152.2715  137.5619  155.7257 H   0  0  0  0  0  0  0  0  0  0  0  0
  150.8812  137.1713  153.6268 H   0  0  0  0  0  0  0  0  0  0  0  0
  151.5445  138.7794  153.7029 H   0  0  0  0  0  0  0  0  0  0  0  0
  149.8479  138.5121  154.1047 H   0  0  0  0  0  0  0  0  0  0  0  0
  149.6396  140.0827  158.4288 H   0  0  0  0  0  0  0  0  0  0  0  0
  150.2733  138.4439  158.6488 H   0  0  0  0  0  0  0  0  0  0  0  0
  148.9708  138.7461  157.4672 H   0  0  0  0  0  0  0  0  0  0  0  0
  151.0460  134.0306  154.3839 H   0  0  0  0  0  0  0  0  0  0  0  0
  151.1743  133.9400  156.1478 H   0  0  0  0  0  0  0  0  0  0  0  0
  152.1702  135.0733  155.2381 H   0  0  0  0  0  0  0  0  0  0  0  0
  145.8213  136.2075  155.8727 H   0  0  0  0  0  0  0  0  0  0  0  0
  148.6517  132.1594  151.7437 H   0  0  0  0  0  0  0  0  0  0  0  0
  146.0475  131.5603  152.0553 H   0  0  0  0  0  0  0  0  0  0  0  0
  145.0701  132.7032  152.9263 H   0  0  0  0  0  0  0  0  0  0  0  0
  144.8043  134.9788  152.0757 H   0  0  0  0  0  0  0  0  0  0  0  0
  146.3415  135.2318  151.2790 H   0  0  0  0  0  0  0  0  0  0  0  0
  145.1791  135.3863  149.3134 H   0  0  0  0  0  0  0  0  0  0  0  0
  146.4163  133.6564  148.8905 H   0  0  0  0  0  0  0  0  0  0  0  0
  147.1726  132.3354  149.8256 H   0  0  0  0  0  0  0  0  0  0  0  0
  143.6837  131.9364  150.6826 H   0  0  0  0  0  0  0  0  0  0  0  0
  143.6309  133.3405  149.5818 H   0  0  0  0  0  0  0  0  0  0  0  0
  1  2  1  0  0  0  0
  1 27  1  0  0  0  0
  1 28  1  0  0  0  0
  1 29  1  0  0  0  0
  2  3  1  0  0  0  0
  2  9  1  0  0  0  0
  2 30  1  0  0  0  0
  3  4  1  0  0  0  0
  3  5  1  0  0  0  0
  3 31  1  0  0  0  0
  4 32  1  0  0  0  0
  4 33  1  0  0  0  0
  4 34  1  0  0  0  0
  5  6  1  0  0  0  0
  5  7  2  0  0  0  0
  5  8  2  0  0  0  0
  6 35  1  0  0  0  0
  6 36  1  0  0  0  0
  6 37  1  0  0  0  0
  9 10  1  0  0  0  0
  9 11  1  0  0  0  0
 10 38  1  0  0  0  0
 10 39  1  0  0  0  0
 10 40  1  0  0  0  0
 11 16  1  0  0  0  0
 11 12  2  0  0  0  0
 12 13  1  0  0  0  0
 13 14  2  0  0  0  0
 13 41  1  0  0  0  0
 14 15  1  0  0  0  0
 15 19  1  0  0  0  0
 15 16  2  0  0  0  0
 16 17  1  0  0  0  0
 17 18  2  0  0  0  0
 18 19  1  0  0  0  0
 18 42  1  0  0  0  0
 19 20  1  0  0  0  0
 20 21  1  0  0  0  0
 20 43  1  0  0  0  0
 20 44  1  0  0  0  0
 21 26  1  0  0  0  0
 21 22  1  0  0  0  0
 21 24  1  0  0  0  0
 22 23  1  0  0  0  0
 22 45  1  0  0  0  0
 22 46  1  0  0  0  0
 23 47  1  0  0  0  0
 24 25  1  0  0  0  0
 24 48  1  0  0  0  0
 24 49  1  0  0  0  0
 25 26  1  0  0  0  0
 26 50  1  0  0  0  0
 26 51  1  0  0  0  0
M  END
> <s_m_source_file>
AV-unprocessed.smi

> <i_m_source_file_index>
156

> <i_lp_mmshare_version>
43012

> <i_f3d_flags>
0

> <s_epik_input>
W0NIM11TKD1PKSg9TylbQ0BASF0oW0NIM10pW0NAQEhdKFtDSDNdKU4oW0NIM10pYyhuW2NIXW4xKWMoYzEyKW5bY0hdbjJbQ0gyXUMzKFtDSDJdW09IXSlbQ0gyXU9bQ0gyXTM=

> <s_epik_cmdline>
J2VwaWtfcHl0aG9uJywgJy1waCcsICc3LjAnLCAnLXRuJywgJzgnLCAnLW1hJywgJzIwMCcsICctbWV0YWxfYmluZGluZycsICctaW1hZScsICc8aW5maWxlLm1hZT4nLCAnLW9tYWUnLCAnPG91dGZpbGUubWFlPic=

> <r_lp_tautomer_probability>
1

> <r_epik_Ionization_Penalty>
0.00107697

> <r_epik_Ionization_Penalty_Charging>
0

> <r_epik_Ionization_Penalty_Neutral>
0.00107697

> <r_epik_State_Penalty>
0.000614712

> <r_epik_Charging_Adjusted_Penalty>
0.000614712

> <i_epik_Tot_Q>
0

> <i_epik_Tot_abs_Q>
0

> <r_epik_Metal_State_Penalty>
-0

> <b_epik_Metal_Only>
0

> <s_lp_Force_Field>
OPLS_2005

> <r_lp_Energy>
27.5373

> <b_lp_Chiralities_Consistent>
1

> <s_lp_Variant>
AV-unprocessed.smi:156-4

> <Gold.Version>
5.8.1

> <Gold.Id.Protein>
6NUR|6NUR_protein|mol2

> <Gold.PLP.Fitness>
45.2994

> <Gold.PLP.PLP>
-34.6969

> <Gold.PLP.part.hbond>
-3.8496

> <Gold.PLP.part.metal>
0.0000

> <Gold.PLP.part.buried>
-4.8381

> <Gold.PLP.part.nonpolar>
-26.6170

> <Gold.PLP.part.repulsive>
0.4782

> <Gold.PLP.ligand.clash>
0.0000

> <Gold.PLP.ligand.torsion>
1.2657

> <Gold.PLP.Chemscore.Hbond>
2.9760

> <Gold.PLP.Chemscore.CHOScore>
1.0000

> <Gold.PLP.Chemscore.Metal>
0.0000

> <Gold.Chemscore.Hbonds>
donor molecule, donor type, donor heavy atom, donor atom, acceptor molecule, acceptor atom, score
      L1  H    23    47       P1  7921  1.00
      P1  H  7997  8009       L1     7  0.88
      L1  C    18    42       P1 10747  0.86

> <Gold.PLP.Chemscore.Internal.Correction>
1.2059

> <Gold.Rescore>
     Score         DG    S(hbond)    S(metal)    S(lipo)     H(rot)  DE(clash)    DE(int)     intcor
     12.51     -15.20       2.97        0.00      68.69       3.21       0.31       2.38       ----

> <Gold.Chemscore.Fitness>
12.5094

> <Gold.Chemscore.DG>
-15.1990

> <Gold.Chemscore.ZeroCoef>
-5.4800

> <Gold.Chemscore.Hbond>
2.9651

> <Gold.Chemscore.Metal>
0.0000

> <Gold.Chemscore.Lipo>
68.6937

> <Gold.Chemscore.Internal_Hbond>
0.0000

> <Gold.Chemscore.DEClash>
0.3113

> <Gold.Chemscore.DEInternal>
2.3783

> <Gold.Chemscore.Rot>
3.2115

> <Gold.Chemscore.Internal.Correction>
   9.000000E+99

> <Gold.Chemscore.Hbonds>
donor molecule, donor type, donor heavy atom, donor atom, acceptor molecule, acceptor atom, score
      L1  H    23    47       P1  7921  0.95
      P1  H  7989  7998       L1     8  0.02
      P1  H  7997  8009       L1     7  0.86

> <Gold.Chemscore.Hbond.Weighted>
-9.9033

> <Gold.Chemscore.Metal.Weighted>
-0.0000

> <Gold.Chemscore.Lipo.Weighted>
-8.0372

> <Gold.Chemscore.Internal_Hbond.Weighted>
0.0000

> <Gold.Chemscore.DEClash.Weighted>
0.3113

> <Gold.Chemscore.DEInternal.Weighted>
2.3783

> <Gold.Chemscore.Rot.Weighted>
8.2215

> <Gold.Chemscore.Internal.Correction.Weighted>
   9.000000E+99

> <Gold.Protein.RotatedTorsions>
[ 6907 6896 6895 6894 ] final -158.57 input  -60.11 | X-H torsion
[ 7974 7965 7964 7962 ] final  147.29 input  175.53 | X-H torsion
[ 8008 7997 7996 7995 ] final  178.91 input   59.86 | X-H torsion
[ 10167 10162 10161 10158 ] final  -15.00 input  -65.29 | X-H torsion
[ 10718 10713 10712 10709 ] final   25.46 input   66.30 | X-H torsion
[ 10763 10752 10751 10750 ] final   69.82 input  -60.55 | X-H torsion
[ 11005 11000 10999 10996 ] final   59.89 input  -57.11 | X-H torsion

> <Gold.Protein.ActiveResidues>
 VAL166  LYS551  ARG553  GLY616  TRP617  ASP618  TYR619  PRO620  LYS621  CYS622 
 ASP623  PHE694  ASN695  SER759  ASP760  ASP761  ALA762  ILE779  LEU786  VAL792 
 PHE793  MET794  SER795  GLU796  ALA797  LYS798  CYS799  TRP800  GLU811  SER814 

> <Gold.Protein.RotatedAtoms>
  151.3202  133.4043  159.2653 H   0  0  0  0  0  0  0  0  0  0  0  0  # atno 6907 bound_to 6896
  151.0041  134.9346  159.7980 H   0  0  0  0  0  0  0  0  0  0  0  0  # atno 6908 bound_to 6896
  152.5283  134.3167  159.9186 H   0  0  0  0  0  0  0  0  0  0  0  0  # atno 6909 bound_to 6896
  144.8603  139.6011  143.5933 H   0  0  0  0  0  0  0  0  0  0  0  0  # atno 7974 bound_to 7965
  156.0494  140.1322  157.0068 H   0  0  0  0  0  0  0  0  0  0  0  0  # atno 8008 bound_to 7997
  154.4427  140.1014  156.6424 H   0  0  0  0  0  0  0  0  0  0  0  0  # atno 8009 bound_to 7997
  155.5547  140.3463  155.4479 H   0  0  0  0  0  0  0  0  0  0  0  0  # atno 8010 bound_to 7997
  140.7211  143.5264  150.9572 H   0  0  0  0  0  0  0  0  0  0  0  0  # atno 10167 bound_to 10162
  157.1937  130.6858  149.6160 H   0  0  0  0  0  0  0  0  0  0  0  0  # atno 10718 bound_to 10713
  153.0308  135.5196  154.7347 H   0  0  0  0  0  0  0  0  0  0  0  0  # atno 10763 bound_to 10752
  154.6364  135.2907  155.0158 H   0  0  0  0  0  0  0  0  0  0  0  0  # atno 10764 bound_to 10752
  154.1091  135.6625  153.4934 H   0  0  0  0  0  0  0  0  0  0  0  0  # atno 10765 bound_to 10752
  140.0271  134.6066  155.9558 H   0  0  0  0  0  0  0  0  0  0  0  0  # atno 11005 bound_to 11000
  146.2855  139.6992  142.9198 LP  0  0  0  0  0  0  0  0  0  0  0  0  # atno 17320 bound_to 7965
  145.4326  141.0416  143.2902 LP  0  0  0  0  0  0  0  0  0  0  0  0  # atno 17321 bound_to 7965
  139.8983  143.6868  152.3135 LP  0  0  0  0  0  0  0  0  0  0  0  0  # atno 17342 bound_to 10162
  139.7208  144.7603  151.0958 LP  0  0  0  0  0  0  0  0  0  0  0  0  # atno 17343 bound_to 10162
  155.9708  130.4606  150.6078 LP  0  0  0  0  0  0  0  0  0  0  0  0  # atno 17370 bound_to 10713
  157.3835  131.0784  151.1456 LP  0  0  0  0  0  0  0  0  0  0  0  0  # atno 17371 bound_to 10713
  141.1809  133.6546  156.5017 LP  0  0  0  0  0  0  0  0  0  0  0  0  # atno 17394 bound_to 11000
  140.4288  134.7121  157.4930 LP  0  0  0  0  0  0  0  0  0  0  0  0  # atno 17395 bound_to 11000

$$$$
