AV-unprocessed.smi:1940|AV-procd|sdf|7841|dock6
  -GOLD-   22720 9583D 1   1.00000     0.00000
 Structure written by MMmdl.
 50 52  0  0  0  0  0  0  0  0  2 V2000
  146.5671  138.6763  150.3584 C   0  0  0  0  0  0  0  0  0  0  0  0
  146.3377  138.3077  151.8321 C   0  0  2  0  0  0  0  0  0  0  0  0
  147.5807  138.5306  152.5673 N   0  0  0  0  0  0  0  0  0  0  0  0
  147.8034  139.5083  153.4575 C   0  0  0  0  0  0  0  0  0  0  0  0
  146.9724  140.3658  153.7557 O   0  0  0  0  0  0  0  0  0  0  0  0
  149.0349  139.4068  153.9857 N   0  0  0  0  0  0  0  0  0  0  0  0
  149.6706  140.2669  154.9208 C   0  0  0  0  0  0  0  0  0  0  0  0
  150.5562  139.6838  155.8525 C   0  0  0  0  0  0  0  0  0  0  0  0
  151.2308  140.4999  156.7828 C   0  0  0  0  0  0  0  0  0  0  0  0
  151.0171  141.8970  156.7602 C   0  0  0  0  0  0  0  0  0  0  0  0
  151.6508  142.7870  157.6371 N   0  0  0  0  0  0  0  0  0  0  0  0
  150.7246  143.7549  158.2194 C   0  0  0  0  0  0  0  0  0  0  0  0
  151.4825  144.8197  159.0309 C   0  0  0  0  0  0  0  0  0  0  0  0
  152.3870  144.1643  160.0869 C   0  0  0  0  0  0  0  0  0  0  0  0
  153.3218  143.1411  159.4224 C   0  0  0  0  0  0  0  0  0  0  0  0
  152.5187  142.1167  158.6030 C   0  0  0  0  0  0  0  0  0  0  0  0
  150.1664  142.4194  155.8505 N   0  3  0  0  0  0  0  0  0  0  0  0
  149.4989  141.6728  154.9437 C   0  0  0  0  0  0  0  0  0  0  0  0
  145.8920  136.8427  152.0105 C   0  0  2  0  0  0  0  0  0  0  0  0
  145.6700  136.0784  150.7046 C   0  0  0  0  0  0  0  0  0  0  0  0
  144.7230  134.9873  151.1466 C   0  0  0  0  0  0  0  0  0  0  0  0
  143.8306  135.7324  152.1340 C   0  0  0  0  0  0  0  0  0  0  0  0
  144.6321  136.7784  152.6772 O   0  0  0  0  0  0  0  0  0  0  0  0
  145.6515  138.5772  149.7754 H   0  0  0  0  0  0  0  0  0  0  0  0
  147.3235  138.0371  149.9020 H   0  0  0  0  0  0  0  0  0  0  0  0
  146.9013  139.7099  150.2616 H   0  0  0  0  0  0  0  0  0  0  0  0
  145.5501  138.9578  152.2176 H   0  0  0  0  0  0  0  0  0  0  0  0
  148.3257  137.8719  152.3944 H   0  0  0  0  0  0  0  0  0  0  0  0
  149.5684  138.5954  153.7099 H   0  0  0  0  0  0  0  0  0  0  0  0
  150.7185  138.6158  155.8590 H   0  0  0  0  0  0  0  0  0  0  0  0
  151.9041  140.0546  157.5005 H   0  0  0  0  0  0  0  0  0  0  0  0
  150.1475  144.2346  157.4278 H   0  0  0  0  0  0  0  0  0  0  0  0
  150.0132  143.2365  158.8639 H   0  0  0  0  0  0  0  0  0  0  0  0
  152.0889  145.4283  158.3584 H   0  0  0  0  0  0  0  0  0  0  0  0
  150.7757  145.4974  159.5102 H   0  0  0  0  0  0  0  0  0  0  0  0
  152.9689  144.9236  160.6100 H   0  0  0  0  0  0  0  0  0  0  0  0
  151.7733  143.6673  160.8391 H   0  0  0  0  0  0  0  0  0  0  0  0
  154.0264  143.6595  158.7705 H   0  0  0  0  0  0  0  0  0  0  0  0
  153.9176  142.6300  160.1791 H   0  0  0  0  0  0  0  0  0  0  0  0
  151.9173  141.5017  159.2739 H   0  0  0  0  0  0  0  0  0  0  0  0
  153.2010  141.4456  158.0793 H   0  0  0  0  0  0  0  0  0  0  0  0
  148.8715  142.2347  154.2685 H   0  0  0  0  0  0  0  0  0  0  0  0
  146.6154  136.2998  152.6213 H   0  0  0  0  0  0  0  0  0  0  0  0
  145.1854  136.7138  149.9618 H   0  0  0  0  0  0  0  0  0  0  0  0
  146.5939  135.6906  150.2746 H   0  0  0  0  0  0  0  0  0  0  0  0
  144.1670  134.5379  150.3233 H   0  0  0  0  0  0  0  0  0  0  0  0
  145.2749  134.1980  151.6588 H   0  0  0  0  0  0  0  0  0  0  0  0
  142.9817  136.1816  151.6173 H   0  0  0  0  0  0  0  0  0  0  0  0
  143.4439  135.0798  152.9168 H   0  0  0  0  0  0  0  0  0  0  0  0
  150.0251  143.4300  155.8426 H   0  0  0  0  0  0  0  0  0  0  0  0
  1  2  1  0  0  0  0
  1 24  1  0  0  0  0
  1 25  1  0  0  0  0
  1 26  1  0  0  0  0
  2  3  1  0  0  0  0
  2 19  1  0  0  0  0
  2 27  1  0  0  0  0
  3  4  1  0  0  0  0
  3 28  1  0  0  0  0
  4  5  2  0  0  0  0
  4  6  1  0  0  0  0
  6  7  1  0  0  0  0
  6 29  1  0  0  0  0
  7 18  1  0  0  0  0
  7  8  2  0  0  0  0
  8  9  1  0  0  0  0
  8 30  1  0  0  0  0
  9 10  2  0  0  0  0
  9 31  1  0  0  0  0
 10 11  1  0  0  0  0
 10 17  1  0  0  0  0
 11 16  1  0  0  0  0
 11 12  1  0  0  0  0
 12 13  1  0  0  0  0
 12 32  1  0  0  0  0
 12 33  1  0  0  0  0
 13 14  1  0  0  0  0
 13 34  1  0  0  0  0
 13 35  1  0  0  0  0
 14 15  1  0  0  0  0
 14 36  1  0  0  0  0
 14 37  1  0  0  0  0
 15 16  1  0  0  0  0
 15 38  1  0  0  0  0
 15 39  1  0  0  0  0
 16 40  1  0  0  0  0
 16 41  1  0  0  0  0
 17 18  2  0  0  0  0
 17 50  1  0  0  0  0
 18 42  1  0  0  0  0
 19 23  1  0  0  0  0
 19 20  1  0  0  0  0
 19 43  1  0  0  0  0
 20 21  1  0  0  0  0
 20 44  1  0  0  0  0
 20 45  1  0  0  0  0
 21 22  1  0  0  0  0
 21 46  1  0  0  0  0
 21 47  1  0  0  0  0
 22 23  1  0  0  0  0
 22 48  1  0  0  0  0
 22 49  1  0  0  0  0
M  CHG  1  17   1
M  END
> <s_m_source_file>
AV-unprocessed.smi

> <i_m_source_file_index>
1940

> <i_lp_mmshare_version>
43012

> <i_f3d_flags>
0

> <s_epik_input>
TzFbQ0gyXVtDSDJdW0NIMl1bQ0BIXTFbQ0BIXShbQ0gzXSlbTkhdQyg9TylbTkhdYzJbY0hdW2NIXWMobltjSF0yKU4zW0NIMl1bQ0gyXVtDSDJdW0NIMl1bQ0gyXTM=

> <s_epik_cmdline>
J2VwaWtfcHl0aG9uJywgJy1waCcsICc3LjAnLCAnLXRuJywgJzgnLCAnLW1hJywgJzIwMCcsICctbWV0YWxfYmluZGluZycsICctaW1hZScsICc8aW5maWxlLm1hZT4nLCAnLW9tYWUnLCAnPG91dGZpbGUubWFlPic=

> <r_lp_tautomer_probability>
0.999994

> <r_epik_Ionization_Penalty>
1.10603

> <r_epik_Ionization_Penalty_Charging>
1.10601

> <r_epik_Ionization_Penalty_Neutral>
1.929e-05

> <r_epik_State_Penalty>
1.16358

> <r_epik_Charging_Adjusted_Penalty>
2.26959

> <i_epik_Tot_Q>
1

> <i_epik_Tot_abs_Q>
1

> <r_epik_Metal_State_Penalty>
1.25013

> <b_epik_Metal_Only>
0

> <s_lp_Force_Field>
OPLS_2005

> <r_lp_Energy>
41.0283

> <b_lp_Chiralities_Consistent>
1

> <s_lp_Variant>
AV-unprocessed.smi:1940-5

> <Gold.Version>
5.8.1

> <Gold.Id.Protein>
6NUR|6NUR_protein|mol2

> <Gold.PLP.Fitness>
47.6609

> <Gold.PLP.PLP>
-42.4725

> <Gold.PLP.part.hbond>
-3.9196

> <Gold.PLP.part.metal>
0.0000

> <Gold.PLP.part.buried>
2.9951

> <Gold.PLP.part.nonpolar>
-42.5553

> <Gold.PLP.part.repulsive>
0.6302

> <Gold.PLP.ligand.clash>
0.0000

> <Gold.PLP.ligand.torsion>
1.9810

> <Gold.PLP.Chemscore.Hbond>
3.0000

> <Gold.PLP.Chemscore.CHOScore>
0.0000

> <Gold.PLP.Chemscore.Metal>
0.0000

> <Gold.Chemscore.Hbonds>
donor molecule, donor type, donor heavy atom, donor atom, acceptor molecule, acceptor atom, score
      L1  H     3    28       P1  7948  1.00
      L1  H    17    50       P1  8028  1.89

> <Gold.PLP.Chemscore.Internal.Correction>
0.1503

> <Gold.Rescore>
     Score         DG    S(hbond)    S(metal)    S(lipo)     H(rot)  DE(clash)    DE(int)     intcor
     19.15     -22.69       1.91        0.00     122.13       1.36       1.72       1.81       ----

> <Gold.Chemscore.Fitness>
19.1514

> <Gold.Chemscore.DG>
-22.6876

> <Gold.Chemscore.ZeroCoef>
-5.4800

> <Gold.Chemscore.Hbond>
1.9138

> <Gold.Chemscore.Metal>
0.0000

> <Gold.Chemscore.Lipo>
122.1327

> <Gold.Chemscore.Internal_Hbond>
0.0000

> <Gold.Chemscore.DEClash>
1.7240

> <Gold.Chemscore.DEInternal>
1.8121

> <Gold.Chemscore.Rot>
1.3571

> <Gold.Chemscore.Internal.Correction>
   9.000000E+99

> <Gold.Chemscore.Hbonds>
donor molecule, donor type, donor heavy atom, donor atom, acceptor molecule, acceptor atom, score
      L1  H     3    28       P1  7948  0.97
      L1  H    17    50       P1  8028  0.91

> <Gold.Chemscore.Hbond.Weighted>
-6.3921

> <Gold.Chemscore.Metal.Weighted>
-0.0000

> <Gold.Chemscore.Lipo.Weighted>
-14.2895

> <Gold.Chemscore.Internal_Hbond.Weighted>
0.0000

> <Gold.Chemscore.DEClash.Weighted>
1.7240

> <Gold.Chemscore.DEInternal.Weighted>
1.8121

> <Gold.Chemscore.Rot.Weighted>
3.4741

> <Gold.Chemscore.Internal.Correction.Weighted>
   9.000000E+99

> <Gold.Protein.RotatedTorsions>
[ 6907 6896 6895 6894 ] final  -35.49 input  -60.11 | X-H torsion
[ 7974 7965 7964 7962 ] final  -28.52 input  175.53 | X-H torsion
[ 8008 7997 7996 7995 ] final  138.32 input   59.86 | X-H torsion
[ 10167 10162 10161 10158 ] final  -22.89 input  -65.29 | X-H torsion
[ 10718 10713 10712 10709 ] final  146.18 input   66.30 | X-H torsion
[ 10763 10752 10751 10750 ] final   64.05 input  -60.55 | X-H torsion
[ 11005 11000 10999 10996 ] final  163.10 input  -57.11 | X-H torsion

> <Gold.Protein.ActiveResidues>
 VAL166  LYS551  ARG553  GLY616  TRP617  ASP618  TYR619  PRO620  LYS621  CYS622 
 ASP623  PHE694  ASN695  SER759  ASP760  ASP761  ALA762  ILE779  LEU786  VAL792 
 PHE793  MET794  SER795  GLU796  ALA797  LYS798  CYS799  TRP800  GLU811  SER814 

> <Gold.Protein.RotatedAtoms>
  151.0391  134.9594  159.8151 H   0  0  0  0  0  0  0  0  0  0  0  0  # atno 6907 bound_to 6896
  152.5360  134.2681  159.8971 H   0  0  0  0  0  0  0  0  0  0  0  0  # atno 6908 bound_to 6896
  151.2693  133.4221  159.2654 H   0  0  0  0  0  0  0  0  0  0  0  0  # atno 6909 bound_to 6896
  146.1282  140.5294  142.8705 H   0  0  0  0  0  0  0  0  0  0  0  0  # atno 7974 bound_to 7965
  156.2998  140.2396  156.4054 H   0  0  0  0  0  0  0  0  0  0  0  0  # atno 8008 bound_to 7997
  154.8489  140.0425  157.1611 H   0  0  0  0  0  0  0  0  0  0  0  0  # atno 8009 bound_to 7997
  154.9021  140.2978  155.5316 H   0  0  0  0  0  0  0  0  0  0  0  0  # atno 8010 bound_to 7997
  140.7287  143.4493  151.0539 H   0  0  0  0  0  0  0  0  0  0  0  0  # atno 10167 bound_to 10162
  157.3363  131.0928  151.1120 H   0  0  0  0  0  0  0  0  0  0  0  0  # atno 10718 bound_to 10713
  153.0041  135.5407  154.6449 H   0  0  0  0  0  0  0  0  0  0  0  0  # atno 10763 bound_to 10752
  154.5695  135.2840  155.0843 H   0  0  0  0  0  0  0  0  0  0  0  0  # atno 10764 bound_to 10752
  154.2014  135.6483  153.5141 H   0  0  0  0  0  0  0  0  0  0  0  0  # atno 10765 bound_to 10752
  140.2324  134.8114  157.3330 H   0  0  0  0  0  0  0  0  0  0  0  0  # atno 11005 bound_to 11000
  144.7663  140.5538  143.6700 LP  0  0  0  0  0  0  0  0  0  0  0  0  # atno 17320 bound_to 7965
  145.5319  139.1475  143.3495 LP  0  0  0  0  0  0  0  0  0  0  0  0  # atno 17321 bound_to 7965
  139.8168  143.7875  152.3175 LP  0  0  0  0  0  0  0  0  0  0  0  0  # atno 17342 bound_to 10162
  139.7943  144.7398  150.9911 LP  0  0  0  0  0  0  0  0  0  0  0  0  # atno 17343 bound_to 10162
  157.2349  130.6542  149.5865 LP  0  0  0  0  0  0  0  0  0  0  0  0  # atno 17370 bound_to 10713
  155.9702  130.4587  150.6008 LP  0  0  0  0  0  0  0  0  0  0  0  0  # atno 17371 bound_to 10713
  140.1737  134.4577  155.7815 LP  0  0  0  0  0  0  0  0  0  0  0  0  # atno 17394 bound_to 11000
  141.2217  133.6953  156.7750 LP  0  0  0  0  0  0  0  0  0  0  0  0  # atno 17395 bound_to 11000

$$$$
