AV-unprocessed.smi:2114|AV-procd|sdf|8622|dock6
  -GOLD-   2272011363D 1   1.00000     0.00000
 Structure written by MMmdl.
 47 48  0  0  0  0  0  0  0  0  1 V2000
  155.0978  143.1716  167.8060 C   0  0  0  0  0  0  0  0  0  0  0  0
  155.8924  142.3870  166.9343 O   0  0  0  0  0  0  0  0  0  0  0  0
  155.7027  140.9946  167.1282 C   0  0  0  0  0  0  0  0  0  0  0  0
  156.3015  140.2305  165.9374 C   0  0  1  0  0  0  0  0  0  0  0  0
  156.1772  138.7106  166.1154 C   0  0  0  0  0  0  0  0  0  0  0  0
  155.6234  140.6317  164.7075 N   0  0  0  0  0  0  0  0  0  0  0  0
  155.6382  139.9585  163.5454 C   0  0  0  0  0  0  0  0  0  0  0  0
  156.2538  138.9073  163.3682 O   0  0  0  0  0  0  0  0  0  0  0  0
  154.8937  140.6113  162.4179 C   0  0  0  0  0  0  0  0  0  0  0  0
  154.9759  140.1225  161.0948 C   0  0  0  0  0  0  0  0  0  0  0  0
  154.2688  140.7878  160.0753 C   0  0  0  0  0  0  0  0  0  0  0  0
  153.5026  141.9229  160.4102 C   0  0  0  0  0  0  0  0  0  0  0  0
  152.7906  142.5832  159.3996 N   0  0  0  0  0  0  0  0  0  0  0  0
  151.7875  141.7558  158.7439 C   0  0  0  0  0  0  0  0  0  0  0  0
  151.1967  142.5053  157.5366 C   0  0  1  0  0  0  0  0  0  0  0  0
  150.0620  141.7182  156.8726 C   0  0  0  0  0  0  0  0  0  0  0  0
  150.6723  143.7608  157.9709 O   0  0  0  0  0  0  0  0  0  0  0  0
  151.6146  144.6110  158.6311 C   0  0  2  0  0  0  0  0  0  0  0  0
  152.6433  145.2031  157.6518 C   0  0  0  0  0  0  0  0  0  0  0  0
  152.2563  143.8710  159.8220 C   0  0  0  0  0  0  0  0  0  0  0  0
  153.4301  142.4072  161.6729 N   0  0  0  0  0  0  0  0  0  0  0  0
  154.1152  141.7675  162.6449 C   0  0  0  0  0  0  0  0  0  0  0  0
  155.2783  144.2292  167.6137 H   0  0  0  0  0  0  0  0  0  0  0  0
  155.3426  142.9730  168.8503 H   0  0  0  0  0  0  0  0  0  0  0  0
  154.0355  142.9782  167.6522 H   0  0  0  0  0  0  0  0  0  0  0  0
  156.1967  140.6882  168.0516 H   0  0  0  0  0  0  0  0  0  0  0  0
  154.6407  140.7663  167.2343 H   0  0  0  0  0  0  0  0  0  0  0  0
  157.3637  140.4757  165.8839 H   0  0  0  0  0  0  0  0  0  0  0  0
  156.6934  138.3783  167.0164 H   0  0  0  0  0  0  0  0  0  0  0  0
  156.6172  138.1792  165.2708 H   0  0  0  0  0  0  0  0  0  0  0  0
  155.1340  138.4033  166.1966 H   0  0  0  0  0  0  0  0  0  0  0  0
  155.1112  141.5012  164.7390 H   0  0  0  0  0  0  0  0  0  0  0  0
  155.5709  139.2535  160.8536 H   0  0  0  0  0  0  0  0  0  0  0  0
  154.3129  140.4302  159.0570 H   0  0  0  0  0  0  0  0  0  0  0  0
  152.2394  140.8172  158.4203 H   0  0  0  0  0  0  0  0  0  0  0  0
  150.9957  141.5064  159.4521 H   0  0  0  0  0  0  0  0  0  0  0  0
  151.9744  142.6701  156.7905 H   0  0  0  0  0  0  0  0  0  0  0  0
  150.4135  140.7506  156.5132 H   0  0  0  0  0  0  0  0  0  0  0  0
  149.6588  142.2626  156.0183 H   0  0  0  0  0  0  0  0  0  0  0  0
  149.2434  141.5397  157.5707 H   0  0  0  0  0  0  0  0  0  0  0  0
  151.0413  145.4480  159.0302 H   0  0  0  0  0  0  0  0  0  0  0  0
  153.2618  145.9515  158.1477 H   0  0  0  0  0  0  0  0  0  0  0  0
  152.1449  145.6905  156.8136 H   0  0  0  0  0  0  0  0  0  0  0  0
  153.3144  144.4451  157.2483 H   0  0  0  0  0  0  0  0  0  0  0  0
  151.5052  143.7081  160.5966 H   0  0  0  0  0  0  0  0  0  0  0  0
  153.0452  144.4790  160.2669 H   0  0  0  0  0  0  0  0  0  0  0  0
  154.0276  142.1913  163.6349 H   0  0  0  0  0  0  0  0  0  0  0  0
  1  2  1  0  0  0  0
  1 23  1  0  0  0  0
  1 24  1  0  0  0  0
  1 25  1  0  0  0  0
  2  3  1  0  0  0  0
  3  4  1  0  0  0  0
  3 26  1  0  0  0  0
  3 27  1  0  0  0  0
  4  5  1  0  0  0  0
  4  6  1  0  0  0  0
  4 28  1  0  0  0  0
  5 29  1  0  0  0  0
  5 30  1  0  0  0  0
  5 31  1  0  0  0  0
  6  7  1  0  0  0  0
  6 32  1  0  0  0  0
  7  8  2  0  0  0  0
  7  9  1  0  0  0  0
  9 22  1  0  0  0  0
  9 10  2  0  0  0  0
 10 11  1  0  0  0  0
 10 33  1  0  0  0  0
 11 12  2  0  0  0  0
 11 34  1  0  0  0  0
 12 13  1  0  0  0  0
 12 21  1  0  0  0  0
 13 20  1  0  0  0  0
 13 14  1  0  0  0  0
 14 15  1  0  0  0  0
 14 35  1  0  0  0  0
 14 36  1  0  0  0  0
 15 16  1  0  0  0  0
 15 17  1  0  0  0  0
 15 37  1  0  0  0  0
 16 38  1  0  0  0  0
 16 39  1  0  0  0  0
 16 40  1  0  0  0  0
 17 18  1  0  0  0  0
 18 19  1  0  0  0  0
 18 20  1  0  0  0  0
 18 41  1  0  0  0  0
 19 42  1  0  0  0  0
 19 43  1  0  0  0  0
 19 44  1  0  0  0  0
 20 45  1  0  0  0  0
 20 46  1  0  0  0  0
 21 22  2  0  0  0  0
 22 47  1  0  0  0  0
M  END
> <s_m_source_file>
AV-unprocessed.smi

> <i_m_source_file_index>
2114

> <i_lp_mmshare_version>
43012

> <i_f3d_flags>
0

> <s_epik_input>
W0NIM11PW0NIMl1bQ0BIXShbQ0gzXSlbTkhdQyg9TyljMVtjSF1bY0hdYyhuW2NIXTEpTjJbQ0gyXVtDQEBIXShbQ0gzXSlPW0NAQEhdKFtDSDNdKVtDSDJdMg==

> <s_epik_cmdline>
J2VwaWtfcHl0aG9uJywgJy1waCcsICc3LjAnLCAnLXRuJywgJzgnLCAnLW1hJywgJzIwMCcsICctbWV0YWxfYmluZGluZycsICctaW1hZScsICc8aW5maWxlLm1hZT4nLCAnLW9tYWUnLCAnPG91dGZpbGUubWFlPic=

> <r_lp_tautomer_probability>
1

> <r_epik_Ionization_Penalty>
1.92915e-05

> <r_epik_Ionization_Penalty_Charging>
0

> <r_epik_Ionization_Penalty_Neutral>
1.92915e-05

> <r_epik_State_Penalty>
-0

> <r_epik_Charging_Adjusted_Penalty>
0

> <i_epik_Tot_Q>
0

> <i_epik_Tot_abs_Q>
0

> <r_epik_Metal_State_Penalty>
-0

> <b_epik_Metal_Only>
0

> <s_lp_Force_Field>
OPLS_2005

> <r_lp_Energy>
24.377

> <b_lp_Chiralities_Consistent>
1

> <s_lp_Variant>
AV-unprocessed.smi:2114-6

> <Gold.Version>
5.8.1

> <Gold.Id.Protein>
6NUR|6NUR_protein|mol2

> <Gold.PLP.Fitness>
41.5856

> <Gold.PLP.PLP>
-42.3573

> <Gold.PLP.part.hbond>
0.0000

> <Gold.PLP.part.metal>
0.0000

> <Gold.PLP.part.buried>
-5.2593

> <Gold.PLP.part.nonpolar>
-37.6523

> <Gold.PLP.part.repulsive>
0.7795

> <Gold.PLP.ligand.clash>
0.0000

> <Gold.PLP.ligand.torsion>
0.4470

> <Gold.PLP.Chemscore.Hbond>
0.0000

> <Gold.PLP.Chemscore.CHOScore>
0.0000

> <Gold.PLP.Chemscore.Metal>
0.0000

> <Gold.PLP.Chemscore.Internal.Correction>
0.1223

> <Gold.Rescore>
     Score         DG    S(hbond)    S(metal)    S(lipo)     H(rot)  DE(clash)    DE(int)     intcor
     13.01     -15.60       0.00        0.00     119.80       1.52       0.80       1.78       ----

> <Gold.Chemscore.Fitness>
13.0142

> <Gold.Chemscore.DG>
-15.5984

> <Gold.Chemscore.ZeroCoef>
-5.4800

> <Gold.Chemscore.Hbond>
0.0000

> <Gold.Chemscore.Metal>
0.0000

> <Gold.Chemscore.Lipo>
119.7981

> <Gold.Chemscore.Internal_Hbond>
0.0000

> <Gold.Chemscore.DEClash>
0.8004

> <Gold.Chemscore.DEInternal>
1.7838

> <Gold.Chemscore.Rot>
1.5226

> <Gold.Chemscore.Internal.Correction>
   9.000000E+99

> <Gold.Chemscore.Hbond.Weighted>
-0.0000

> <Gold.Chemscore.Metal.Weighted>
-0.0000

> <Gold.Chemscore.Lipo.Weighted>
-14.0164

> <Gold.Chemscore.Internal_Hbond.Weighted>
0.0000

> <Gold.Chemscore.DEClash.Weighted>
0.8004

> <Gold.Chemscore.DEInternal.Weighted>
1.7838

> <Gold.Chemscore.Rot.Weighted>
3.8980

> <Gold.Chemscore.Internal.Correction.Weighted>
   9.000000E+99

> <Gold.Protein.RotatedTorsions>
[ 6907 6896 6895 6894 ] final -171.72 input  -60.11 | X-H torsion
[ 7974 7965 7964 7962 ] final  -14.72 input  175.53 | X-H torsion
[ 8008 7997 7996 7995 ] final    4.76 input   59.86 | X-H torsion
[ 10167 10162 10161 10158 ] final   93.92 input  -65.29 | X-H torsion
[ 10718 10713 10712 10709 ] final -135.14 input   66.30 | X-H torsion
[ 10763 10752 10751 10750 ] final -151.86 input  -60.55 | X-H torsion
[ 11005 11000 10999 10996 ] final   41.97 input  -57.11 | X-H torsion

> <Gold.Protein.ActiveResidues>
 VAL166  LYS551  ARG553  GLY616  TRP617  ASP618  TYR619  PRO620  LYS621  CYS622 
 ASP623  PHE694  ASN695  SER759  ASP760  ASP761  ALA762  ILE779  LEU786  VAL792 
 PHE793  MET794  SER795  GLU796  ALA797  LYS798  CYS799  TRP800  GLU811  SER814 

> <Gold.Protein.RotatedAtoms>
  151.5284  133.3453  159.2913 H   0  0  0  0  0  0  0  0  0  0  0  0  # atno 6907 bound_to 6896
  150.8609  134.7963  159.7093 H   0  0  0  0  0  0  0  0  0  0  0  0  # atno 6908 bound_to 6896
  152.4629  134.5152  159.9818 H   0  0  0  0  0  0  0  0  0  0  0  0  # atno 6909 bound_to 6896
  146.2062  140.3389  142.8406 H   0  0  0  0  0  0  0  0  0  0  0  0  # atno 7974 bound_to 7965
  154.7199  140.2709  155.6551 H   0  0  0  0  0  0  0  0  0  0  0  0  # atno 8008 bound_to 7997
  156.2820  140.2736  156.1792 H   0  0  0  0  0  0  0  0  0  0  0  0  # atno 8009 bound_to 7997
  155.0521  140.0371  157.2537 H   0  0  0  0  0  0  0  0  0  0  0  0  # atno 8010 bound_to 7997
  139.8133  144.6764  150.9612 H   0  0  0  0  0  0  0  0  0  0  0  0  # atno 10167 bound_to 10162
  156.2630  130.7221  151.1161 H   0  0  0  0  0  0  0  0  0  0  0  0  # atno 10718 bound_to 10713
  154.8031  135.3250  154.7500 H   0  0  0  0  0  0  0  0  0  0  0  0  # atno 10763 bound_to 10752
  153.8164  135.6891  153.4837 H   0  0  0  0  0  0  0  0  0  0  0  0  # atno 10764 bound_to 10752
  153.1759  135.4605  154.9908 H   0  0  0  0  0  0  0  0  0  0  0  0  # atno 10765 bound_to 10752
  140.1783  134.4135  155.8215 H   0  0  0  0  0  0  0  0  0  0  0  0  # atno 11005 bound_to 11000
  144.8799  140.7386  143.5993 LP  0  0  0  0  0  0  0  0  0  0  0  0  # atno 17320 bound_to 7965
  145.3310  139.1760  143.4537 LP  0  0  0  0  0  0  0  0  0  0  0  0  # atno 17321 bound_to 7965
  140.7817  143.4163  151.0912 LP  0  0  0  0  0  0  0  0  0  0  0  0  # atno 17342 bound_to 10162
  139.7828  143.8330  152.3140 LP  0  0  0  0  0  0  0  0  0  0  0  0  # atno 17343 bound_to 10162
  157.7257  131.0651  150.5941 LP  0  0  0  0  0  0  0  0  0  0  0  0  # atno 17370 bound_to 10713
  156.6030  130.4359  149.5889 LP  0  0  0  0  0  0  0  0  0  0  0  0  # atno 17371 bound_to 10713
  141.2221  133.6988  156.7886 LP  0  0  0  0  0  0  0  0  0  0  0  0  # atno 17394 bound_to 11000
  140.2297  134.8695  157.3463 LP  0  0  0  0  0  0  0  0  0  0  0  0  # atno 17395 bound_to 11000

$$$$
