AV-unprocessed.smi:2482|AV-procd|sdf|9777|dock6
  -GOLD-   2272013423D 1   1.00000     0.00000
 Structure written by MMmdl.
 35 36  0  0  0  0  0  0  0  0  2 V2000
  152.3971  143.2172  161.3984 C   0  0  0  0  0  0  0  0  0  0  0  0
  151.8536  142.9174  160.0114 C   0  0  0  0  0  0  0  0  0  0  0  0
  150.9013  143.7778  159.5890 N   0  0  0  0  0  0  0  0  0  0  0  0
  150.3642  143.5898  158.3665 C   0  0  0  0  0  0  0  0  0  0  0  0
  150.7398  142.5374  157.5114 C   0  0  0  0  0  0  0  0  0  0  0  0
  151.7254  141.6252  157.9544 C   0  0  0  0  0  0  0  0  0  0  0  0
  152.1889  140.5487  157.1518 N   0  0  0  0  0  0  0  0  0  0  0  0
  151.7263  140.1503  155.9529 C   0  0  0  0  0  0  0  0  0  0  0  0
  150.8057  140.7016  155.3488 O   0  0  0  0  0  0  0  0  0  0  0  0
  152.4169  138.9100  155.3507 C   0  0  2  0  0  0  0  0  0  0  0  0
  151.4535  137.8900  154.6980 C   0  0  0  0  0  0  0  0  0  0  0  0
  150.6492  137.1832  155.7229 N   0  3  1  0  0  0  0  0  0  0  0  0
  149.6677  136.2481  155.1329 C   0  0  0  0  0  0  0  0  0  0  0  0
  151.5277  136.5357  156.7230 C   0  0  0  0  0  0  0  0  0  0  0  0
  152.4738  137.5703  157.3538 C   0  0  0  0  0  0  0  0  0  0  0  0
  153.2151  138.2370  156.3311 O   0  0  0  0  0  0  0  0  0  0  0  0
  152.3079  141.8263  159.2278 C   0  0  0  0  0  0  0  0  0  0  0  0
  153.5346  140.7447  159.8014 Cl  0  0  0  0  0  0  0  0  0  0  0  0
  153.1438  142.5000  161.7340 H   0  0  0  0  0  0  0  0  0  0  0  0
  151.5850  143.2113  162.1259 H   0  0  0  0  0  0  0  0  0  0  0  0
  152.8566  144.2058  161.4137 H   0  0  0  0  0  0  0  0  0  0  0  0
  149.6160  144.3048  158.0575 H   0  0  0  0  0  0  0  0  0  0  0  0
  150.2827  142.4558  156.5368 H   0  0  0  0  0  0  0  0  0  0  0  0
  152.8765  139.9490  157.5853 H   0  0  0  0  0  0  0  0  0  0  0  0
  153.0952  139.2801  154.5812 H   0  0  0  0  0  0  0  0  0  0  0  0
  150.7935  138.3861  153.9847 H   0  0  0  0  0  0  0  0  0  0  0  0
  152.0286  137.1596  154.1266 H   0  0  0  0  0  0  0  0  0  0  0  0
  150.1673  135.4554  154.5745 H   0  0  0  0  0  0  0  0  0  0  0  0
  148.9966  136.7750  154.4538 H   0  0  0  0  0  0  0  0  0  0  0  0
  149.0586  135.7878  155.9117 H   0  0  0  0  0  0  0  0  0  0  0  0
  150.9224  136.0670  157.4995 H   0  0  0  0  0  0  0  0  0  0  0  0
  152.1062  135.7439  156.2444 H   0  0  0  0  0  0  0  0  0  0  0  0
  151.9176  138.2830  157.9640 H   0  0  0  0  0  0  0  0  0  0  0  0
  153.1758  137.0735  158.0237 H   0  0  0  0  0  0  0  0  0  0  0  0
  150.1174  137.8891  156.2128 H   0  0  0  0  0  0  0  0  0  0  0  0
  1  2  1  0  0  0  0
  1 19  1  0  0  0  0
  1 20  1  0  0  0  0
  1 21  1  0  0  0  0
  2 17  1  0  0  0  0
  2  3  2  0  0  0  0
  3  4  1  0  0  0  0
  4  5  2  0  0  0  0
  4 22  1  0  0  0  0
  5  6  1  0  0  0  0
  5 23  1  0  0  0  0
  6  7  1  0  0  0  0
  6 17  2  0  0  0  0
  7  8  1  0  0  0  0
  7 24  1  0  0  0  0
  8  9  2  0  0  0  0
  8 10  1  0  0  0  0
 10 16  1  0  0  0  0
 10 11  1  0  0  0  0
 10 25  1  0  0  0  0
 11 12  1  0  0  0  0
 11 26  1  0  0  0  0
 11 27  1  0  0  0  0
 12 13  1  0  0  0  0
 12 14  1  0  0  0  0
 12 35  1  0  0  0  0
 13 28  1  0  0  0  0
 13 29  1  0  0  0  0
 13 30  1  0  0  0  0
 14 15  1  0  0  0  0
 14 31  1  0  0  0  0
 14 32  1  0  0  0  0
 15 16  1  0  0  0  0
 15 33  1  0  0  0  0
 15 34  1  0  0  0  0
 17 18  1  0  0  0  0
M  CHG  1  12   1
M  END
> <s_m_source_file>
AV-unprocessed.smi

> <i_m_source_file_index>
2482

> <i_lp_mmshare_version>
43012

> <i_f3d_flags>
0

> <s_epik_input>
W0NIM11jMW5bY0hdW2NIXWMoYzFDbClbTkhdQyg9TylbQ0BASF0yW0NIMl1OKFtDSDNdKVtDSDJdW0NIMl1PMg==

> <s_epik_cmdline>
J2VwaWtfcHl0aG9uJywgJy1waCcsICc3LjAnLCAnLXRuJywgJzgnLCAnLW1hJywgJzIwMCcsICctbWV0YWxfYmluZGluZycsICctaW1hZScsICc8aW5maWxlLm1hZT4nLCAnLW9tYWUnLCAnPG91dGZpbGUubWFlPic=

> <r_epik_Ionization_Penalty>
0.314226

> <r_epik_Ionization_Penalty_Charging>
0.314023

> <r_epik_Ionization_Penalty_Neutral>
0.00020299

> <r_epik_State_Penalty>
0.308208

> <r_epik_Charging_Adjusted_Penalty>
0.62223

> <i_epik_Tot_Q>
1

> <i_epik_Tot_abs_Q>
1

> <r_epik_Metal_State_Penalty>
0.314444

> <b_epik_Metal_Only>
0

> <s_lp_Force_Field>
OPLS_2005

> <r_lp_Energy>
21.5381

> <b_lp_Chiralities_Consistent>
1

> <s_lp_Variant>
AV-unprocessed.smi:2482-3

> <Gold.Version>
5.8.1

> <Gold.Id.Protein>
6NUR|6NUR_protein|mol2

> <Gold.PLP.Fitness>
38.6924

> <Gold.PLP.PLP>
-31.8898

> <Gold.PLP.part.hbond>
-2.0000

> <Gold.PLP.part.metal>
0.0000

> <Gold.PLP.part.buried>
-2.9732

> <Gold.PLP.part.nonpolar>
-27.1793

> <Gold.PLP.part.repulsive>
0.6597

> <Gold.PLP.ligand.clash>
0.0413

> <Gold.PLP.ligand.torsion>
0.4125

> <Gold.PLP.Chemscore.Hbond>
1.4201

> <Gold.PLP.Chemscore.CHOScore>
1.1300

> <Gold.PLP.Chemscore.Metal>
0.0000

> <Gold.Chemscore.Hbonds>
donor molecule, donor type, donor heavy atom, donor atom, acceptor molecule, acceptor atom, score
      P1  H  7989  7998       L1     9  0.86
      P1  H  7997  8010       L1    16  0.27
      L1  C     4    22       P1  8028  0.54
      L1  C     4    22       P1  8029  0.61

> <Gold.PLP.Chemscore.Internal.Correction>
0.0188

> <Gold.Rescore>
     Score         DG    S(hbond)    S(metal)    S(lipo)     H(rot)  DE(clash)    DE(int)     intcor
     14.08     -16.19       0.74        0.00      92.27       1.00       0.06       2.05       ----

> <Gold.Chemscore.Fitness>
14.0791

> <Gold.Chemscore.DG>
-16.1879

> <Gold.Chemscore.ZeroCoef>
-5.4800

> <Gold.Chemscore.Hbond>
0.7402

> <Gold.Chemscore.Metal>
0.0000

> <Gold.Chemscore.Lipo>
92.2694

> <Gold.Chemscore.Internal_Hbond>
0.0000

> <Gold.Chemscore.DEClash>
0.0629

> <Gold.Chemscore.DEInternal>
2.0459

> <Gold.Chemscore.Rot>
1.0000

> <Gold.Chemscore.Internal.Correction>
   9.000000E+99

> <Gold.Chemscore.Hbonds>
donor molecule, donor type, donor heavy atom, donor atom, acceptor molecule, acceptor atom, score
      P1  H  7989  7998       L1     9  0.21
      P1  H  7997  8010       L1    16  0.02

> <Gold.Chemscore.Hbond.Weighted>
-2.4724

> <Gold.Chemscore.Metal.Weighted>
-0.0000

> <Gold.Chemscore.Lipo.Weighted>
-10.7955

> <Gold.Chemscore.Internal_Hbond.Weighted>
0.0000

> <Gold.Chemscore.DEClash.Weighted>
0.0629

> <Gold.Chemscore.DEInternal.Weighted>
2.0459

> <Gold.Chemscore.Rot.Weighted>
2.5600

> <Gold.Chemscore.Internal.Correction.Weighted>
   9.000000E+99

> <Gold.Protein.RotatedTorsions>
[ 6907 6896 6895 6894 ] final   65.74 input  -60.11 | X-H torsion
[ 7974 7965 7964 7962 ] final  -27.85 input  175.53 | X-H torsion
[ 8008 7997 7996 7995 ] final   51.43 input   59.86 | X-H torsion
[ 10167 10162 10161 10158 ] final   64.47 input  -65.29 | X-H torsion
[ 10718 10713 10712 10709 ] final  -39.92 input   66.30 | X-H torsion
[ 10763 10752 10751 10750 ] final -101.97 input  -60.55 | X-H torsion
[ 11005 11000 10999 10996 ] final  -38.40 input  -57.11 | X-H torsion

> <Gold.Protein.ActiveResidues>
 VAL166  LYS551  ARG553  GLY616  TRP617  ASP618  TYR619  PRO620  LYS621  CYS622 
 ASP623  PHE694  ASN695  SER759  ASP760  ASP761  ALA762  ILE779  LEU786  VAL792 
 PHE793  MET794  SER795  GLU796  ALA797  LYS798  CYS799  TRP800  GLU811  SER814 

> <Gold.Protein.RotatedAtoms>
  152.4430  134.5552  159.9878 H   0  0  0  0  0  0  0  0  0  0  0  0  # atno 6907 bound_to 6896
  151.5644  133.3393  159.2985 H   0  0  0  0  0  0  0  0  0  0  0  0  # atno 6908 bound_to 6896
  150.8340  134.7639  159.6941 H   0  0  0  0  0  0  0  0  0  0  0  0  # atno 6909 bound_to 6896
  146.1329  140.5205  142.8685 H   0  0  0  0  0  0  0  0  0  0  0  0  # atno 7974 bound_to 7965
  155.4352  140.3452  155.4284 H   0  0  0  0  0  0  0  0  0  0  0  0  # atno 8008 bound_to 7997
  156.1312  140.1515  156.9092 H   0  0  0  0  0  0  0  0  0  0  0  0  # atno 8009 bound_to 7997
  154.4896  140.0845  156.7545 H   0  0  0  0  0  0  0  0  0  0  0  0  # atno 8010 bound_to 7997
  140.1219  144.4724  150.6915 H   0  0  0  0  0  0  0  0  0  0  0  0  # atno 10167 bound_to 10162
  156.2870  130.4224  149.8277 H   0  0  0  0  0  0  0  0  0  0  0  0  # atno 10718 bound_to 10713
  154.7699  135.4878  153.9627 H   0  0  0  0  0  0  0  0  0  0  0  0  # atno 10763 bound_to 10752
  153.1354  135.6761  153.9119 H   0  0  0  0  0  0  0  0  0  0  0  0  # atno 10764 bound_to 10752
  153.8809  135.3132  155.3424 H   0  0  0  0  0  0  0  0  0  0  0  0  # atno 10765 bound_to 10752
  141.0025  133.6948  156.2048 H   0  0  0  0  0  0  0  0  0  0  0  0  # atno 11005 bound_to 11000
  144.7709  140.5636  143.6670 LP  0  0  0  0  0  0  0  0  0  0  0  0  # atno 17320 bound_to 7965
  145.5220  139.1476  143.3547 LP  0  0  0  0  0  0  0  0  0  0  0  0  # atno 17321 bound_to 7965
  140.6867  143.2354  151.5241 LP  0  0  0  0  0  0  0  0  0  0  0  0  # atno 17342 bound_to 10162
  139.5564  144.2264  152.1620 LP  0  0  0  0  0  0  0  0  0  0  0  0  # atno 17343 bound_to 10162
  156.5704  130.8422  151.3355 LP  0  0  0  0  0  0  0  0  0  0  0  0  # atno 17370 bound_to 10713
  157.7331  130.9726  150.1963 LP  0  0  0  0  0  0  0  0  0  0  0  0  # atno 17371 bound_to 10713
  140.6867  134.4710  157.5589 LP  0  0  0  0  0  0  0  0  0  0  0  0  # atno 17394 bound_to 11000
  139.9046  134.8478  156.1758 LP  0  0  0  0  0  0  0  0  0  0  0  0  # atno 17395 bound_to 11000

$$$$
