AV-unprocessed.smi:1092|AV-procd|sdf|4737|dock1
  -GOLD-   22720 3273D 1   1.00000     0.00000
 Structure written by MMmdl.
 43 45  0  0  0  0  0  0  0  0  1 V2000
  150.5296  136.3643  155.3347 C   0  0  0  0  0  0  0  0  0  0  0  0
  151.6428  137.0668  156.1364 C   0  0  0  0  0  0  0  0  0  0  0  0
  151.1544  137.3807  157.5608 C   0  0  0  0  0  0  0  0  0  0  0  0
  152.7105  136.1517  156.2950 O   0  0  0  0  0  0  0  0  0  0  0  0
  152.2020  138.3569  155.4738 C   0  0  0  0  0  0  0  0  0  0  0  0
  151.8911  139.5925  156.2076 N   0  0  0  0  0  0  0  0  0  0  0  0
  152.6306  139.7659  157.3540 N   0  0  0  0  0  0  0  0  0  0  0  0
  152.5033  140.8197  158.0961 C   0  0  0  0  0  0  0  0  0  0  0  0
  153.3279  140.8675  159.3261 C   0  0  0  0  0  0  0  0  0  0  0  0
  154.4556  140.0221  159.4338 C   0  0  0  0  0  0  0  0  0  0  0  0
  155.2406  140.0613  160.6027 C   0  0  0  0  0  0  0  0  0  0  0  0
  154.8971  140.9311  161.6571 C   0  0  0  0  0  0  0  0  0  0  0  0
  153.7641  141.7621  161.5500 C   0  0  0  0  0  0  0  0  0  0  0  0
  152.9720  141.7317  160.3858 C   0  0  0  0  0  0  0  0  0  0  0  0
  151.5013  141.8387  157.6322 C   0  0  0  0  0  0  0  0  0  0  0  0
  151.2973  143.1378  158.3355 C   0  0  0  0  0  0  0  0  0  0  0  0
  152.3548  144.0758  158.3982 C   0  0  0  0  0  0  0  0  0  0  0  0
  152.1817  145.3023  159.0685 C   0  0  0  0  0  0  0  0  0  0  0  0
  150.9545  145.6002  159.6898 C   0  0  0  0  0  0  0  0  0  0  0  0
  149.9010  144.6682  159.6452 C   0  0  0  0  0  0  0  0  0  0  0  0
  150.0722  143.4410  158.9761 C   0  0  0  0  0  0  0  0  0  0  0  0
  150.7969  141.6362  156.5723 N   0  0  0  0  0  0  0  0  0  0  0  0
  150.9454  140.4852  155.7923 C   0  0  0  0  0  0  0  0  0  0  0  0
  150.2742  140.2923  154.7789 O   0  0  0  0  0  0  0  0  0  0  0  0
  149.6861  137.0333  155.1626 H   0  0  0  0  0  0  0  0  0  0  0  0
  150.1516  135.4902  155.8658 H   0  0  0  0  0  0  0  0  0  0  0  0
  150.8843  136.0185  154.3632 H   0  0  0  0  0  0  0  0  0  0  0  0
  150.3119  138.0730  157.5428 H   0  0  0  0  0  0  0  0  0  0  0  0
  151.9419  137.8372  158.1616 H   0  0  0  0  0  0  0  0  0  0  0  0
  150.8254  136.4790  158.0790 H   0  0  0  0  0  0  0  0  0  0  0  0
  152.9824  136.1606  157.1999 H   0  0  0  0  0  0  0  0  0  0  0  0
  153.2830  138.2598  155.3611 H   0  0  0  0  0  0  0  0  0  0  0  0
  151.8347  138.4425  154.4493 H   0  0  0  0  0  0  0  0  0  0  0  0
  154.7329  139.3535  158.6311 H   0  0  0  0  0  0  0  0  0  0  0  0
  156.1078  139.4238  160.6903 H   0  0  0  0  0  0  0  0  0  0  0  0
  155.5013  140.9577  162.5520 H   0  0  0  0  0  0  0  0  0  0  0  0
  153.5005  142.4217  162.3638 H   0  0  0  0  0  0  0  0  0  0  0  0
  152.0980  142.3634  160.3241 H   0  0  0  0  0  0  0  0  0  0  0  0
  153.3041  143.8669  157.9259 H   0  0  0  0  0  0  0  0  0  0  0  0
  152.9925  146.0148  159.1064 H   0  0  0  0  0  0  0  0  0  0  0  0
  150.8232  146.5402  160.2049 H   0  0  0  0  0  0  0  0  0  0  0  0
  148.9616  144.8920  160.1286 H   0  0  0  0  0  0  0  0  0  0  0  0
  149.2562  142.7332  158.9698 H   0  0  0  0  0  0  0  0  0  0  0  0
  1  2  1  0  0  0  0
  1 25  1  0  0  0  0
  1 26  1  0  0  0  0
  1 27  1  0  0  0  0
  2  3  1  0  0  0  0
  2  4  1  0  0  0  0
  2  5  1  0  0  0  0
  3 28  1  0  0  0  0
  3 29  1  0  0  0  0
  3 30  1  0  0  0  0
  4 31  1  0  0  0  0
  5  6  1  0  0  0  0
  5 32  1  0  0  0  0
  5 33  1  0  0  0  0
  6 23  1  0  0  0  0
  6  7  1  0  0  0  0
  7  8  2  0  0  0  0
  8  9  1  0  0  0  0
  8 15  1  0  0  0  0
  9 14  1  0  0  0  0
  9 10  2  0  0  0  0
 10 11  1  0  0  0  0
 10 34  1  0  0  0  0
 11 12  2  0  0  0  0
 11 35  1  0  0  0  0
 12 13  1  0  0  0  0
 12 36  1  0  0  0  0
 13 14  2  0  0  0  0
 13 37  1  0  0  0  0
 14 38  1  0  0  0  0
 15 16  1  0  0  0  0
 15 22  2  0  0  0  0
 16 21  1  0  0  0  0
 16 17  2  0  0  0  0
 17 18  1  0  0  0  0
 17 39  1  0  0  0  0
 18 19  2  0  0  0  0
 18 40  1  0  0  0  0
 19 20  1  0  0  0  0
 19 41  1  0  0  0  0
 20 21  2  0  0  0  0
 20 42  1  0  0  0  0
 21 43  1  0  0  0  0
 22 23  1  0  0  0  0
 23 24  2  0  0  0  0
M  END
> <s_m_source_file>
AV-unprocessed.smi

> <i_m_source_file_index>
1092

> <i_lp_mmshare_version>
43012

> <i_f3d_flags>
0

> <s_epik_input>
W2NIXTFbY0hdW2NIXVtjSF1bY0hdYzEtYyhubjJbQ0gyXUMoW0NIM10pKFtDSDNdKVtPSF0pYyhuYzI9TyktYzNbY0hdW2NIXVtjSF1bY0hdW2NIXTM=

> <s_epik_cmdline>
J2VwaWtfcHl0aG9uJywgJy1waCcsICc3LjAnLCAnLXRuJywgJzgnLCAnLW1hJywgJzIwMCcsICctbWV0YWxfYmluZGluZycsICctaW1hZScsICc8aW5maWxlLm1hZT4nLCAnLW9tYWUnLCAnPG91dGZpbGUubWFlPic=

> <r_lp_tautomer_probability>
1

> <r_epik_Ionization_Penalty>
4.51197e-08

> <r_epik_Ionization_Penalty_Charging>
4.64162e-09

> <r_epik_Ionization_Penalty_Neutral>
4.04781e-08

> <r_epik_State_Penalty>
-0

> <r_epik_Charging_Adjusted_Penalty>
4.64162e-09

> <i_epik_Tot_Q>
0

> <i_epik_Tot_abs_Q>
0

> <r_epik_Metal_State_Penalty>
-0

> <b_epik_Metal_Only>
0

> <s_lp_Force_Field>
OPLS_2005

> <r_lp_Energy>
39.3317

> <b_lp_Chiralities_Consistent>
1

> <s_lp_Variant>
AV-unprocessed.smi:1092-1

> <Gold.Version>
5.8.1

> <Gold.Id.Protein>
6NUR|6NUR_protein|mol2

> <Gold.PLP.Fitness>
55.9295

> <Gold.PLP.PLP>
-50.0876

> <Gold.PLP.part.hbond>
-2.7973

> <Gold.PLP.part.metal>
0.0000

> <Gold.PLP.part.buried>
-4.1008

> <Gold.PLP.part.nonpolar>
-42.7148

> <Gold.PLP.part.repulsive>
0.1556

> <Gold.PLP.ligand.clash>
0.0814

> <Gold.PLP.ligand.torsion>
2.6231

> <Gold.PLP.Chemscore.Hbond>
2.9500

> <Gold.PLP.Chemscore.CHOScore>
0.0000

> <Gold.PLP.Chemscore.Metal>
0.0000

> <Gold.Chemscore.Hbonds>
donor molecule, donor type, donor heavy atom, donor atom, acceptor molecule, acceptor atom, score
      P1  H  7989  7998       L1    24  0.85
      P1  H  7997  8010       L1     7  0.95
      P1  H 10752 10763       L1     4  0.88

> <Gold.PLP.Chemscore.Internal.Correction>
2.3194

> <Gold.Rescore>
     Score         DG    S(hbond)    S(metal)    S(lipo)     H(rot)  DE(clash)    DE(int)     intcor
     20.31     -25.48       1.94        0.00     150.47       1.59       0.06       5.11       ----

> <Gold.Chemscore.Fitness>
20.3144

> <Gold.Chemscore.DG>
-25.4799

> <Gold.Chemscore.ZeroCoef>
-5.4800

> <Gold.Chemscore.Hbond>
1.9372

> <Gold.Chemscore.Metal>
0.0000

> <Gold.Chemscore.Lipo>
150.4671

> <Gold.Chemscore.Internal_Hbond>
0.0000

> <Gold.Chemscore.DEClash>
0.0585

> <Gold.Chemscore.DEInternal>
5.1070

> <Gold.Chemscore.Rot>
1.5918

> <Gold.Chemscore.Internal.Correction>
   9.000000E+99

> <Gold.Chemscore.Hbonds>
donor molecule, donor type, donor heavy atom, donor atom, acceptor molecule, acceptor atom, score
      P1  H  7989  7998       L1    24  0.14
      P1  H  7997  8010       L1     7  0.09
      P1  H 10752 10763       L1     4  0.79

> <Gold.Chemscore.Hbond.Weighted>
-6.4701

> <Gold.Chemscore.Metal.Weighted>
-0.0000

> <Gold.Chemscore.Lipo.Weighted>
-17.6047

> <Gold.Chemscore.Internal_Hbond.Weighted>
0.0000

> <Gold.Chemscore.DEClash.Weighted>
0.0585

> <Gold.Chemscore.DEInternal.Weighted>
5.1070

> <Gold.Chemscore.Rot.Weighted>
4.0749

> <Gold.Chemscore.Internal.Correction.Weighted>
   9.000000E+99

> <Gold.Protein.RotatedTorsions>
[ 6907 6896 6895 6894 ] final  111.96 input  -60.11 | X-H torsion
[ 7974 7965 7964 7962 ] final  -43.96 input  175.53 | X-H torsion
[ 8008 7997 7996 7995 ] final   57.15 input   59.86 | X-H torsion
[ 10167 10162 10161 10158 ] final   73.66 input  -65.29 | X-H torsion
[ 10718 10713 10712 10709 ] final   56.31 input   66.30 | X-H torsion
[ 10763 10752 10751 10750 ] final  118.26 input  -60.55 | X-H torsion
[ 11005 11000 10999 10996 ] final   24.95 input  -57.11 | X-H torsion

> <Gold.Protein.ActiveResidues>
 VAL166  LYS551  ARG553  GLY616  TRP617  ASP618  TYR619  PRO620  LYS621  CYS622 
 ASP623  PHE694  ASN695  SER759  ASP760  ASP761  ALA762  ILE779  LEU786  VAL792 
 PHE793  MET794  SER795  GLU796  ALA797  LYS798  CYS799  TRP800  GLU811  SER814 

> <Gold.Protein.RotatedAtoms>
  152.4942  133.8584  159.7237 H   0  0  0  0  0  0  0  0  0  0  0  0  # atno 6907 bound_to 6896
  150.9102  133.6998  159.2863 H   0  0  0  0  0  0  0  0  0  0  0  0  # atno 6908 bound_to 6896
  151.4409  135.1024  159.9722 H   0  0  0  0  0  0  0  0  0  0  0  0  # atno 6909 bound_to 6896
  145.9968  140.7120  142.9290 H   0  0  0  0  0  0  0  0  0  0  0  0  # atno 7974 bound_to 7965
  155.5291  140.3481  155.4422 H   0  0  0  0  0  0  0  0  0  0  0  0  # atno 8008 bound_to 7997
  156.0731  140.1368  156.9831 H   0  0  0  0  0  0  0  0  0  0  0  0  # atno 8009 bound_to 7997
  154.4538  140.0961  156.6673 H   0  0  0  0  0  0  0  0  0  0  0  0  # atno 8010 bound_to 7997
  140.0220  144.5533  150.7574 H   0  0  0  0  0  0  0  0  0  0  0  0  # atno 10167 bound_to 10162
  157.5420  130.8704  149.8835 H   0  0  0  0  0  0  0  0  0  0  0  0  # atno 10718 bound_to 10713
  153.5649  135.3513  155.2814 H   0  0  0  0  0  0  0  0  0  0  0  0  # atno 10763 bound_to 10752
  154.8690  135.4145  154.2790 H   0  0  0  0  0  0  0  0  0  0  0  0  # atno 10764 bound_to 10752
  153.3543  135.7056  153.6832 H   0  0  0  0  0  0  0  0  0  0  0  0  # atno 10765 bound_to 10752
  140.3531  134.2207  155.7678 H   0  0  0  0  0  0  0  0  0  0  0  0  # atno 11005 bound_to 11000
  144.6906  140.3163  143.7239 LP  0  0  0  0  0  0  0  0  0  0  0  0  # atno 17320 bound_to 7965
  145.7548  139.1805  143.2300 LP  0  0  0  0  0  0  0  0  0  0  0  0  # atno 17321 bound_to 7965
  140.7338  143.2722  151.3854 LP  0  0  0  0  0  0  0  0  0  0  0  0  # atno 17342 bound_to 10162
  139.6133  144.1054  152.2321 LP  0  0  0  0  0  0  0  0  0  0  0  0  # atno 17343 bound_to 10162
  156.0504  130.3719  150.1215 LP  0  0  0  0  0  0  0  0  0  0  0  0  # atno 17370 bound_to 10713
  156.9394  130.9739  151.3519 LP  0  0  0  0  0  0  0  0  0  0  0  0  # atno 17371 bound_to 10713
  141.2006  133.7983  157.0480 LP  0  0  0  0  0  0  0  0  0  0  0  0  # atno 17394 bound_to 11000
  140.0687  134.9714  157.1430 LP  0  0  0  0  0  0  0  0  0  0  0  0  # atno 17395 bound_to 11000

$$$$
