AV-unprocessed.smi:273|AV-procd|sdf|2056|dock7
  -GOLD-   2262021293D 1   1.00000     0.00000
 Structure written by MMmdl.
 59 62  0  0  0  0  0  0  0  0  1 V2000
  152.8072  144.7260  158.1764 C   0  0  0  0  0  0  0  0  0  0  0  0
  151.3281  144.4581  158.4707 C   0  0  0  0  0  0  0  0  0  0  0  0
  150.7259  143.6843  157.3946 N   0  0  0  0  0  0  0  0  0  0  0  0
  150.9916  142.3936  157.1393 C   0  0  0  0  0  0  0  0  0  0  0  0
  151.7854  141.7387  157.8153 O   0  0  0  0  0  0  0  0  0  0  0  0
  150.2520  141.7199  155.9660 C   0  0  0  0  0  0  0  0  0  0  0  0
  148.7274  141.6857  156.2101 C   0  0  0  0  0  0  0  0  0  0  0  0
  147.9837  141.0357  155.0324 C   0  0  0  0  0  0  0  0  0  0  0  0
  148.5230  139.7091  154.7387 N   0  0  0  0  0  0  0  0  0  0  0  0
  147.7230  138.9420  153.9552 C   0  0  0  0  0  0  0  0  0  0  0  0
  147.3761  139.3702  152.7113 N   0  0  0  0  0  0  0  0  0  0  0  0
  146.5744  138.6294  151.9407 C   0  0  0  0  0  0  0  0  0  0  0  0
  146.0152  137.4485  152.2111 N   0  0  0  0  0  0  0  0  0  0  0  0
  146.3670  137.0093  153.4530 C   0  0  0  0  0  0  0  0  0  0  0  0
  147.2094  137.6843  154.3807 C   0  0  0  0  0  0  0  0  0  0  0  0
  147.3482  136.9208  155.5344 N   0  0  0  0  0  0  0  0  0  0  0  0
  146.6213  135.8611  155.3060 C   0  0  0  0  0  0  0  0  0  0  0  0
  145.9904  135.8373  154.0829 N   0  0  0  0  0  0  0  0  0  0  0  0
  145.1199  134.7946  153.5696 C   0  0  0  0  0  0  0  0  0  0  0  0
  145.2519  134.5926  152.0396 C   0  0  2  0  0  0  0  0  0  0  0  0
  143.9080  134.7817  151.2947 C   0  0  0  0  0  0  0  0  0  0  0  0
  142.9736  133.7838  151.6520 O   0  0  0  0  0  0  0  0  0  0  0  0
  145.9317  133.2424  151.7002 C   0  0  1  0  0  0  0  0  0  0  0  0
  145.3220  132.0292  152.3810 C   0  0  0  0  0  0  0  0  0  0  0  0
  145.8364  130.8780  151.5226 C   0  0  0  0  0  0  0  0  0  0  0  0
  145.9868  131.4079  150.2101 O   0  0  0  0  0  0  0  0  0  0  0  0
  145.8103  132.8203  150.2325 C   0  0  0  0  0  0  0  0  0  0  0  0
  149.9616  139.6761  154.4742 C   0  0  0  0  0  0  0  0  0  0  0  0
  150.7495  140.2904  155.6421 C   0  0  0  0  0  0  0  0  0  0  0  0
  153.2606  145.3152  158.9738 H   0  0  0  0  0  0  0  0  0  0  0  0
  152.9308  145.2777  157.2438 H   0  0  0  0  0  0  0  0  0  0  0  0
  153.3667  143.7937  158.0930 H   0  0  0  0  0  0  0  0  0  0  0  0
  151.2302  143.9185  159.4141 H   0  0  0  0  0  0  0  0  0  0  0  0
  150.7924  145.4024  158.5802 H   0  0  0  0  0  0  0  0  0  0  0  0
  150.0615  144.1603  156.8017 H   0  0  0  0  0  0  0  0  0  0  0  0
  150.4397  142.3449  155.0918 H   0  0  0  0  0  0  0  0  0  0  0  0
  148.5108  141.1289  157.1234 H   0  0  0  0  0  0  0  0  0  0  0  0
  148.3381  142.6933  156.3625 H   0  0  0  0  0  0  0  0  0  0  0  0
  146.9196  140.9917  155.2622 H   0  0  0  0  0  0  0  0  0  0  0  0
  148.0837  141.6585  154.1424 H   0  0  0  0  0  0  0  0  0  0  0  0
  146.3457  139.0435  150.9696 H   0  0  0  0  0  0  0  0  0  0  0  0
  146.5177  135.0664  156.0307 H   0  0  0  0  0  0  0  0  0  0  0  0
  145.3599  133.8742  154.1022 H   0  0  0  0  0  0  0  0  0  0  0  0
  144.0907  135.0423  153.8320 H   0  0  0  0  0  0  0  0  0  0  0  0
  145.9127  135.3807  151.6751 H   0  0  0  0  0  0  0  0  0  0  0  0
  143.4757  135.7591  151.5095 H   0  0  0  0  0  0  0  0  0  0  0  0
  144.0542  134.7535  150.2153 H   0  0  0  0  0  0  0  0  0  0  0  0
  142.2529  133.8143  151.0412 H   0  0  0  0  0  0  0  0  0  0  0  0
  146.9908  133.2891  151.9594 H   0  0  0  0  0  0  0  0  0  0  0  0
  145.6141  131.9289  153.4268 H   0  0  0  0  0  0  0  0  0  0  0  0
  144.2329  132.0722  152.3329 H   0  0  0  0  0  0  0  0  0  0  0  0
  146.8133  130.5460  151.8760 H   0  0  0  0  0  0  0  0  0  0  0  0
  145.1631  130.0206  151.5316 H   0  0  0  0  0  0  0  0  0  0  0  0
  144.8154  133.0467  149.8461 H   0  0  0  0  0  0  0  0  0  0  0  0
  146.5410  133.3147  149.5919 H   0  0  0  0  0  0  0  0  0  0  0  0
  150.2902  138.6474  154.3188 H   0  0  0  0  0  0  0  0  0  0  0  0
  150.1723  140.2249  153.5549 H   0  0  0  0  0  0  0  0  0  0  0  0
  151.8094  140.2995  155.3847 H   0  0  0  0  0  0  0  0  0  0  0  0
  150.6441  139.6500  156.5195 H   0  0  0  0  0  0  0  0  0  0  0  0
  1  2  1  0  0  0  0
  1 30  1  0  0  0  0
  1 31  1  0  0  0  0
  1 32  1  0  0  0  0
  2  3  1  0  0  0  0
  2 33  1  0  0  0  0
  2 34  1  0  0  0  0
  3  4  1  0  0  0  0
  3 35  1  0  0  0  0
  4  5  2  0  0  0  0
  4  6  1  0  0  0  0
  6 29  1  0  0  0  0
  6  7  1  0  0  0  0
  6 36  1  0  0  0  0
  7  8  1  0  0  0  0
  7 37  1  0  0  0  0
  7 38  1  0  0  0  0
  8  9  1  0  0  0  0
  8 39  1  0  0  0  0
  8 40  1  0  0  0  0
  9 10  1  0  0  0  0
  9 28  1  0  0  0  0
 10 15  1  0  0  0  0
 10 11  2  0  0  0  0
 11 12  1  0  0  0  0
 12 13  2  0  0  0  0
 12 41  1  0  0  0  0
 13 14  1  0  0  0  0
 14 18  1  0  0  0  0
 14 15  2  0  0  0  0
 15 16  1  0  0  0  0
 16 17  2  0  0  0  0
 17 18  1  0  0  0  0
 17 42  1  0  0  0  0
 18 19  1  0  0  0  0
 19 20  1  0  0  0  0
 19 43  1  0  0  0  0
 19 44  1  0  0  0  0
 20 21  1  0  0  0  0
 20 23  1  0  0  0  0
 20 45  1  0  0  0  0
 21 22  1  0  0  0  0
 21 46  1  0  0  0  0
 21 47  1  0  0  0  0
 22 48  1  0  0  0  0
 23 27  1  0  0  0  0
 23 24  1  0  0  0  0
 23 49  1  0  0  0  0
 24 25  1  0  0  0  0
 24 50  1  0  0  0  0
 24 51  1  0  0  0  0
 25 26  1  0  0  0  0
 25 52  1  0  0  0  0
 25 53  1  0  0  0  0
 26 27  1  0  0  0  0
 27 54  1  0  0  0  0
 27 55  1  0  0  0  0
 28 29  1  0  0  0  0
 28 56  1  0  0  0  0
 28 57  1  0  0  0  0
 29 58  1  0  0  0  0
 29 59  1  0  0  0  0
M  END
> <s_m_source_file>
AV-unprocessed.smi

> <i_m_source_file_index>
273

> <i_lp_mmshare_version>
43012

> <i_f3d_flags>
0

> <s_epik_input>
W0NIM11bQ0gyXVtOSF1DKD1PKVtDSF0xW0NIMl1bQ0gyXU4oW0NIMl1bQ0gyXTEpYyhuW2NIXW4yKWMoYzIzKW5bY0hdbjNbQ0gyXVtDQEhdKFtDSDJdW09IXSlbQ0BASF00W0NIMl1bQ0gyXU9bQ0gyXTQ=

> <s_epik_cmdline>
J2VwaWtfcHl0aG9uJywgJy1waCcsICc3LjAnLCAnLXRuJywgJzgnLCAnLW1hJywgJzIwMCcsICctbWV0YWxfYmluZGluZycsICctaW1hZScsICc8aW5maWxlLm1hZT4nLCAnLW9tYWUnLCAnPG91dGZpbGUubWFlPic=

> <r_lp_tautomer_probability>
1

> <r_epik_Ionization_Penalty>
0.00226556

> <r_epik_Ionization_Penalty_Charging>
0

> <r_epik_Ionization_Penalty_Neutral>
0.00226556

> <r_epik_State_Penalty>
0.00139883

> <r_epik_Charging_Adjusted_Penalty>
0.00139883

> <i_epik_Tot_Q>
0

> <i_epik_Tot_abs_Q>
0

> <r_epik_Metal_State_Penalty>
-0

> <b_epik_Metal_Only>
0

> <s_lp_Force_Field>
OPLS_2005

> <r_lp_Energy>
43.2491

> <b_lp_Chiralities_Consistent>
1

> <s_lp_Variant>
AV-unprocessed.smi:273-3

> <Gold.Version>
5.8.1

> <Gold.Id.Protein>
6NUR|6NUR_protein|mol2

> <Gold.PLP.Fitness>
48.1970

> <Gold.PLP.PLP>
-43.0061

> <Gold.PLP.part.hbond>
-2.0000

> <Gold.PLP.part.metal>
0.0000

> <Gold.PLP.part.buried>
-5.4457

> <Gold.PLP.part.nonpolar>
-37.3088

> <Gold.PLP.part.repulsive>
2.3607

> <Gold.PLP.ligand.clash>
0.0000

> <Gold.PLP.ligand.torsion>
1.7099

> <Gold.PLP.Chemscore.Hbond>
2.0000

> <Gold.PLP.Chemscore.CHOScore>
0.6653

> <Gold.PLP.Chemscore.Metal>
0.0000

> <Gold.Chemscore.Hbonds>
donor molecule, donor type, donor heavy atom, donor atom, acceptor molecule, acceptor atom, score
      L1  H     3    35       P1  8028  1.00
      L1  H    22    48       P1 10186  1.00
      L1  C    12    41       P1 10171  0.38

> <Gold.PLP.Chemscore.Internal.Correction>
0.6148

> <Gold.Rescore>
     Score         DG    S(hbond)    S(metal)    S(lipo)     H(rot)  DE(clash)    DE(int)     intcor
     12.01     -15.26       1.90        0.00      99.99       3.22       1.30       1.96       ----

> <Gold.Chemscore.Fitness>
12.0083

> <Gold.Chemscore.DG>
-15.2647

> <Gold.Chemscore.ZeroCoef>
-5.4800

> <Gold.Chemscore.Hbond>
1.8984

> <Gold.Chemscore.Metal>
0.0000

> <Gold.Chemscore.Lipo>
99.9885

> <Gold.Chemscore.Internal_Hbond>
0.0000

> <Gold.Chemscore.DEClash>
1.2995

> <Gold.Chemscore.DEInternal>
1.9570

> <Gold.Chemscore.Rot>
3.2244

> <Gold.Chemscore.Internal.Correction>
   9.000000E+99

> <Gold.Chemscore.Hbonds>
donor molecule, donor type, donor heavy atom, donor atom, acceptor molecule, acceptor atom, score
      L1  H     3    35       P1  8028  0.96
      L1  H    22    48       P1 10186  0.42

> <Gold.Chemscore.Hbond.Weighted>
-6.3406

> <Gold.Chemscore.Metal.Weighted>
-0.0000

> <Gold.Chemscore.Lipo.Weighted>
-11.6987

> <Gold.Chemscore.Internal_Hbond.Weighted>
0.0000

> <Gold.Chemscore.DEClash.Weighted>
1.2995

> <Gold.Chemscore.DEInternal.Weighted>
1.9570

> <Gold.Chemscore.Rot.Weighted>
8.2545

> <Gold.Chemscore.Internal.Correction.Weighted>
   9.000000E+99

> <Gold.Protein.RotatedTorsions>
[ 6907 6896 6895 6894 ] final -142.62 input  -60.11 | X-H torsion
[ 7974 7965 7964 7962 ] final -115.54 input  175.53 | X-H torsion
[ 8008 7997 7996 7995 ] final  142.34 input   59.86 | X-H torsion
[ 10167 10162 10161 10158 ] final  -74.83 input  -65.29 | X-H torsion
[ 10718 10713 10712 10709 ] final  -28.69 input   66.30 | X-H torsion
[ 10763 10752 10751 10750 ] final  140.27 input  -60.55 | X-H torsion
[ 11005 11000 10999 10996 ] final  -73.30 input  -57.11 | X-H torsion

> <Gold.Protein.ActiveResidues>
 VAL166  LYS551  ARG553  GLY616  TRP617  ASP618  TYR619  PRO620  LYS621  CYS622 
 ASP623  PHE694  ASN695  SER759  ASP760  ASP761  ALA762  ILE779  LEU786  VAL792 
 PHE793  MET794  SER795  GLU796  ALA797  LYS798  CYS799  TRP800  GLU811  SER814 

> <Gold.Protein.RotatedAtoms>
  151.0895  133.5327  159.2615 H   0  0  0  0  0  0  0  0  0  0  0  0  # atno 6907 bound_to 6896
  151.2199  135.0514  159.8955 H   0  0  0  0  0  0  0  0  0  0  0  0  # atno 6908 bound_to 6896
  152.5432  134.0699  159.8243 H   0  0  0  0  0  0  0  0  0  0  0  0  # atno 6909 bound_to 6896
  145.1072  140.8589  143.3891 H   0  0  0  0  0  0  0  0  0  0  0  0  # atno 7974 bound_to 7965
  156.2951  140.2291  156.4712 H   0  0  0  0  0  0  0  0  0  0  0  0  # atno 8008 bound_to 7997
  154.7934  140.0453  157.1239 H   0  0  0  0  0  0  0  0  0  0  0  0  # atno 8009 bound_to 7997
  154.9619  140.3055  155.5030 H   0  0  0  0  0  0  0  0  0  0  0  0  # atno 8010 bound_to 7997
  140.4994  143.2364  151.7778 H   0  0  0  0  0  0  0  0  0  0  0  0  # atno 10167 bound_to 10162
  156.4220  130.4428  149.7177 H   0  0  0  0  0  0  0  0  0  0  0  0  # atno 10718 bound_to 10713
  153.9199  135.3002  155.3448 H   0  0  0  0  0  0  0  0  0  0  0  0  # atno 10763 bound_to 10752
  154.7581  135.4948  153.9415 H   0  0  0  0  0  0  0  0  0  0  0  0  # atno 10764 bound_to 10752
  153.1147  135.6768  153.9541 H   0  0  0  0  0  0  0  0  0  0  0  0  # atno 10765 bound_to 10752
  141.1621  133.6874  156.7190 H   0  0  0  0  0  0  0  0  0  0  0  0  # atno 11005 bound_to 11000
  145.0888  139.2905  143.5745 LP  0  0  0  0  0  0  0  0  0  0  0  0  # atno 17320 bound_to 7965
  146.3528  140.0419  142.8642 LP  0  0  0  0  0  0  0  0  0  0  0  0  # atno 17321 bound_to 7965
  139.4868  144.4543  151.9617 LP  0  0  0  0  0  0  0  0  0  0  0  0  # atno 17342 bound_to 10162
  140.3631  144.2948  150.5930 LP  0  0  0  0  0  0  0  0  0  0  0  0  # atno 17343 bound_to 10162
  156.4114  130.7724  151.2737 LP  0  0  0  0  0  0  0  0  0  0  0  0  # atno 17370 bound_to 10713
  157.7508  131.0210  150.3733 LP  0  0  0  0  0  0  0  0  0  0  0  0  # atno 17371 bound_to 10713
  140.2830  134.8301  157.3950 LP  0  0  0  0  0  0  0  0  0  0  0  0  # atno 17394 bound_to 11000
  140.1416  134.4965  155.8027 LP  0  0  0  0  0  0  0  0  0  0  0  0  # atno 17395 bound_to 11000

$$$$
