AV-unprocessed.smi:135|AV-procd|sdf|1170|dock8
  -GOLD-   2262018313D 1   1.00000     0.00000
 Structure written by MMmdl.
 51 54  0  0  0  0  0  0  0  0  1 V2000
  150.9990  137.1927  159.9210 O   0  0  0  0  0  0  0  0  0  0  0  0
  150.3244  137.3285  158.9003 C   0  0  0  0  0  0  0  0  0  0  0  0
  150.7760  138.2962  157.7951 C   0  0  0  0  0  0  0  0  0  0  0  0
  151.4822  139.4904  158.3082 N   0  0  0  0  0  0  0  0  0  0  0  0
  152.7044  139.3067  159.0009 C   0  0  0  0  0  0  0  0  0  0  0  0
  153.1794  138.1825  159.1698 O   0  0  0  0  0  0  0  0  0  0  0  0
  153.3400  140.5245  159.4912 C   0  0  0  0  0  0  0  0  0  0  0  0
  154.5095  140.4462  160.1483 F   0  0  0  0  0  0  0  0  0  0  0  0
  152.7736  141.7327  159.2933 C   0  0  0  0  0  0  0  0  0  0  0  0
  151.5713  141.8961  158.6280 N   0  0  0  0  0  0  0  0  0  0  0  0
  150.9487  143.2597  158.4129 C   0  0  1  0  0  0  0  0  0  0  0  0
  150.6552  143.9430  159.7622 C   0  0  0  0  0  0  0  0  0  0  0  0
  151.3007  145.3043  159.5952 C   0  0  0  0  0  0  0  0  0  0  0  0
  152.4397  144.9961  158.6353 C   0  0  0  0  0  0  0  0  0  0  0  0
  151.8410  144.0869  157.7212 O   0  0  0  0  0  0  0  0  0  0  0  0
  150.8991  140.7653  158.1151 C   0  0  0  0  0  0  0  0  0  0  0  0
  149.8268  140.8904  157.5196 O   0  0  0  0  0  0  0  0  0  0  0  0
  149.1609  136.7007  158.6526 N   0  0  0  0  0  0  0  0  0  0  0  0
  148.4469  135.7310  159.4145 C   0  0  0  0  0  0  0  0  0  0  0  0
  148.3224  135.7680  160.8265 C   0  0  0  0  0  0  0  0  0  0  0  0
  147.5928  134.7731  161.5048 C   0  0  0  0  0  0  0  0  0  0  0  0
  146.9791  133.7318  160.7862 C   0  0  0  0  0  0  0  0  0  0  0  0
  147.1027  133.6815  159.3866 C   0  0  0  0  0  0  0  0  0  0  0  0
  147.8411  134.6670  158.7003 C   0  0  0  0  0  0  0  0  0  0  0  0
  147.9372  134.5814  157.3329 O   0  0  0  0  0  0  0  0  0  0  0  0
  148.7730  133.6271  156.8062 C   0  0  0  0  0  0  0  0  0  0  0  0
  149.8274  133.9677  155.9288 C   0  0  0  0  0  0  0  0  0  0  0  0
  150.6663  132.9642  155.4066 C   0  0  0  0  0  0  0  0  0  0  0  0
  150.4600  131.6174  155.7618 C   0  0  0  0  0  0  0  0  0  0  0  0
  149.4158  131.2743  156.6423 C   0  0  0  0  0  0  0  0  0  0  0  0
  148.5773  132.2777  157.1650 C   0  0  0  0  0  0  0  0  0  0  0  0
  151.4065  137.7558  157.0862 H   0  0  0  0  0  0  0  0  0  0  0  0
  149.8999  138.5736  157.2074 H   0  0  0  0  0  0  0  0  0  0  0  0
  153.2976  142.5940  159.6780 H   0  0  0  0  0  0  0  0  0  0  0  0
  150.0643  143.0863  157.7972 H   0  0  0  0  0  0  0  0  0  0  0  0
  149.5823  143.9953  159.9493 H   0  0  0  0  0  0  0  0  0  0  0  0
  151.1310  143.3939  160.5762 H   0  0  0  0  0  0  0  0  0  0  0  0
  150.5989  145.9987  159.1314 H   0  0  0  0  0  0  0  0  0  0  0  0
  151.6399  145.7361  160.5370 H   0  0  0  0  0  0  0  0  0  0  0  0
  152.8184  145.8841  158.1288 H   0  0  0  0  0  0  0  0  0  0  0  0
  153.2683  144.5159  159.1578 H   0  0  0  0  0  0  0  0  0  0  0  0
  148.7173  136.9541  157.7816 H   0  0  0  0  0  0  0  0  0  0  0  0
  148.7764  136.5420  161.4228 H   0  0  0  0  0  0  0  0  0  0  0  0
  147.5030  134.8111  162.5803 H   0  0  0  0  0  0  0  0  0  0  0  0
  146.4168  132.9716  161.3079 H   0  0  0  0  0  0  0  0  0  0  0  0
  146.6342  132.8797  158.8351 H   0  0  0  0  0  0  0  0  0  0  0  0
  149.9967  134.9979  155.6518 H   0  0  0  0  0  0  0  0  0  0  0  0
  151.4688  133.2282  154.7337 H   0  0  0  0  0  0  0  0  0  0  0  0
  151.1042  130.8484  155.3613 H   0  0  0  0  0  0  0  0  0  0  0  0
  149.2588  130.2418  156.9176 H   0  0  0  0  0  0  0  0  0  0  0  0
  147.7775  132.0102  157.8400 H   0  0  0  0  0  0  0  0  0  0  0  0
  1  2  2  0  0  0  0
  2  3  1  0  0  0  0
  2 18  1  0  0  0  0
  3  4  1  0  0  0  0
  3 32  1  0  0  0  0
  3 33  1  0  0  0  0
  4 16  1  0  0  0  0
  4  5  1  0  0  0  0
  5  6  2  0  0  0  0
  5  7  1  0  0  0  0
  7  8  1  0  0  0  0
  7  9  2  0  0  0  0
  9 10  1  0  0  0  0
  9 34  1  0  0  0  0
 10 11  1  0  0  0  0
 10 16  1  0  0  0  0
 11 15  1  0  0  0  0
 11 12  1  0  0  0  0
 11 35  1  0  0  0  0
 12 13  1  0  0  0  0
 12 36  1  0  0  0  0
 12 37  1  0  0  0  0
 13 14  1  0  0  0  0
 13 38  1  0  0  0  0
 13 39  1  0  0  0  0
 14 15  1  0  0  0  0
 14 40  1  0  0  0  0
 14 41  1  0  0  0  0
 16 17  2  0  0  0  0
 18 19  1  0  0  0  0
 18 42  1  0  0  0  0
 19 24  1  0  0  0  0
 19 20  2  0  0  0  0
 20 21  1  0  0  0  0
 20 43  1  0  0  0  0
 21 22  2  0  0  0  0
 21 44  1  0  0  0  0
 22 23  1  0  0  0  0
 22 45  1  0  0  0  0
 23 24  2  0  0  0  0
 23 46  1  0  0  0  0
 24 25  1  0  0  0  0
 25 26  1  0  0  0  0
 26 31  1  0  0  0  0
 26 27  2  0  0  0  0
 27 28  1  0  0  0  0
 27 47  1  0  0  0  0
 28 29  2  0  0  0  0
 28 48  1  0  0  0  0
 29 30  1  0  0  0  0
 29 49  1  0  0  0  0
 30 31  2  0  0  0  0
 30 50  1  0  0  0  0
 31 51  1  0  0  0  0
M  END
> <s_m_source_file>
AV-unprocessed.smi

> <i_m_source_file_index>
135

> <i_lp_mmshare_version>
43012

> <i_f3d_flags>
0

> <s_epik_input>
TzFbQ0gyXVtDSDJdW0NIMl1bQ0BIXTFuKGMyPU8pW2NIXWMoRiljKD1PKW4yW0NIMl1DKD1PKVtOSF1jM1tjSF1bY0hdW2NIXVtjSF1jM09jNFtjSF1bY0hdW2NIXVtjSF1bY0hdNA==

> <s_epik_cmdline>
J2VwaWtfcHl0aG9uJywgJy1waCcsICc3LjAnLCAnLXRuJywgJzgnLCAnLW1hJywgJzIwMCcsICctbWV0YWxfYmluZGluZycsICctaW1hZScsICc8aW5maWxlLm1hZT4nLCAnLW9tYWUnLCAnPG91dGZpbGUubWFlPic=

> <r_lp_tautomer_probability>
1

> <r_epik_Ionization_Penalty>
1.89877e-06

> <r_epik_Ionization_Penalty_Charging>
3.88729e-08

> <r_epik_Ionization_Penalty_Neutral>
1.8599e-06

> <r_epik_State_Penalty>
-0

> <r_epik_Charging_Adjusted_Penalty>
3.88729e-08

> <i_epik_Tot_Q>
0

> <i_epik_Tot_abs_Q>
0

> <r_epik_Metal_State_Penalty>
-0

> <b_epik_Metal_Only>
0

> <s_epik_Chemistry_Notes>
This compound contains an acetal/aminal-like group ( X-CH(R)-Y where X, Y are N, S, or O) that may be acid/base labile, releasing an aldehyde.

> <s_lp_Force_Field>
OPLS_2005

> <r_lp_Energy>
40.6736

> <b_lp_Chiralities_Consistent>
1

> <s_lp_Variant>
AV-unprocessed.smi:135-2

> <Gold.Version>
5.8.1

> <Gold.Id.Protein>
6NUR|6NUR_protein|mol2

> <Gold.PLP.Fitness>
47.1966

> <Gold.PLP.PLP>
-46.2102

> <Gold.PLP.part.hbond>
-1.1142

> <Gold.PLP.part.metal>
0.0000

> <Gold.PLP.part.buried>
-8.9058

> <Gold.PLP.part.nonpolar>
-37.2226

> <Gold.PLP.part.repulsive>
0.2782

> <Gold.PLP.ligand.clash>
0.0000

> <Gold.PLP.ligand.torsion>
0.8706

> <Gold.PLP.Chemscore.Hbond>
0.8775

> <Gold.PLP.Chemscore.CHOScore>
0.0000

> <Gold.PLP.Chemscore.Metal>
0.0000

> <Gold.Chemscore.Hbonds>
donor molecule, donor type, donor heavy atom, donor atom, acceptor molecule, acceptor atom, score
      P1  H  6896  6908       L1     1  0.91

> <Gold.PLP.Chemscore.Internal.Correction>
0.0952

> <Gold.Rescore>
     Score         DG    S(hbond)    S(metal)    S(lipo)     H(rot)  DE(clash)    DE(int)     intcor
     11.56     -15.18       0.93        0.00     101.04       2.04       0.00       3.62       ----

> <Gold.Chemscore.Fitness>
11.5594

> <Gold.Chemscore.DG>
-15.1804

> <Gold.Chemscore.ZeroCoef>
-5.4800

> <Gold.Chemscore.Hbond>
0.9267

> <Gold.Chemscore.Metal>
0.0000

> <Gold.Chemscore.Lipo>
101.0395

> <Gold.Chemscore.Internal_Hbond>
0.0000

> <Gold.Chemscore.DEClash>
0.0028

> <Gold.Chemscore.DEInternal>
3.6182

> <Gold.Chemscore.Rot>
2.0377

> <Gold.Chemscore.Internal.Correction>
   9.000000E+99

> <Gold.Chemscore.Hbonds>
donor molecule, donor type, donor heavy atom, donor atom, acceptor molecule, acceptor atom, score
      P1  H  6896  6908       L1     1  0.31

> <Gold.Chemscore.Hbond.Weighted>
-3.0953

> <Gold.Chemscore.Metal.Weighted>
-0.0000

> <Gold.Chemscore.Lipo.Weighted>
-11.8216

> <Gold.Chemscore.Internal_Hbond.Weighted>
0.0000

> <Gold.Chemscore.DEClash.Weighted>
0.0028

> <Gold.Chemscore.DEInternal.Weighted>
3.6182

> <Gold.Chemscore.Rot.Weighted>
5.2165

> <Gold.Chemscore.Internal.Correction.Weighted>
   9.000000E+99

> <Gold.Protein.RotatedTorsions>
[ 6907 6896 6895 6894 ] final -134.90 input  -60.11 | X-H torsion
[ 7974 7965 7964 7962 ] final  -28.66 input  175.53 | X-H torsion
[ 8008 7997 7996 7995 ] final  123.32 input   59.86 | X-H torsion
[ 10167 10162 10161 10158 ] final   20.86 input  -65.29 | X-H torsion
[ 10718 10713 10712 10709 ] final   40.81 input   66.30 | X-H torsion
[ 10763 10752 10751 10750 ] final   27.25 input  -60.55 | X-H torsion
[ 11005 11000 10999 10996 ] final    9.47 input  -57.11 | X-H torsion

> <Gold.Protein.ActiveResidues>
 VAL166  LYS551  ARG553  GLY616  TRP617  ASP618  TYR619  PRO620  LYS621  CYS622 
 ASP623  PHE694  ASN695  SER759  ASP760  ASP761  ALA762  ILE779  LEU786  VAL792 
 PHE793  MET794  SER795  GLU796  ALA797  LYS798  CYS799  TRP800  GLU811  SER814 

> <Gold.Protein.RotatedAtoms>
  150.9914  133.6145  159.2707 H   0  0  0  0  0  0  0  0  0  0  0  0  # atno 6907 bound_to 6896
  151.3365  135.0853  159.9366 H   0  0  0  0  0  0  0  0  0  0  0  0  # atno 6908 bound_to 6896
  152.5247  133.9534  159.7737 H   0  0  0  0  0  0  0  0  0  0  0  0  # atno 6909 bound_to 6896
  146.1273  140.5311  142.8709 H   0  0  0  0  0  0  0  0  0  0  0  0  # atno 7974 bound_to 7965
  156.2761  140.2765  156.1609 H   0  0  0  0  0  0  0  0  0  0  0  0  # atno 8008 bound_to 7997
  155.0755  140.0387  157.2640 H   0  0  0  0  0  0  0  0  0  0  0  0  # atno 8009 bound_to 7997
  154.7006  140.2648  155.6729 H   0  0  0  0  0  0  0  0  0  0  0  0  # atno 8010 bound_to 7997
  140.5471  143.9574  150.6555 H   0  0  0  0  0  0  0  0  0  0  0  0  # atno 10167 bound_to 10162
  157.3864  130.7782  149.7234 H   0  0  0  0  0  0  0  0  0  0  0  0  # atno 10718 bound_to 10713
  153.0568  135.6541  154.0558 H   0  0  0  0  0  0  0  0  0  0  0  0  # atno 10763 bound_to 10752
  154.0234  135.2918  155.3379 H   0  0  0  0  0  0  0  0  0  0  0  0  # atno 10764 bound_to 10752
  154.6887  135.5291  153.8430 H   0  0  0  0  0  0  0  0  0  0  0  0  # atno 10765 bound_to 10752
  140.5254  134.0518  155.7857 H   0  0  0  0  0  0  0  0  0  0  0  0  # atno 11005 bound_to 11000
  144.7654  140.5519  143.6706 LP  0  0  0  0  0  0  0  0  0  0  0  0  # atno 17320 bound_to 7965
  145.5338  139.1475  143.3485 LP  0  0  0  0  0  0  0  0  0  0  0  0  # atno 17321 bound_to 7965
  140.2990  143.3273  152.0990 LP  0  0  0  0  0  0  0  0  0  0  0  0  # atno 17342 bound_to 10162
  139.5012  144.6708  151.6247 LP  0  0  0  0  0  0  0  0  0  0  0  0  # atno 17343 bound_to 10162
  155.9788  130.4047  150.3628 LP  0  0  0  0  0  0  0  0  0  0  0  0  # atno 17370 bound_to 10713
  157.1738  131.0375  151.2782 LP  0  0  0  0  0  0  0  0  0  0  0  0  # atno 17371 bound_to 10713
  141.1311  133.9300  157.2533 LP  0  0  0  0  0  0  0  0  0  0  0  0  # atno 17394 bound_to 11000
  139.9583  135.0160  156.9190 LP  0  0  0  0  0  0  0  0  0  0  0  0  # atno 17395 bound_to 11000

$$$$
