AV-unprocessed.smi:199|AV-procd|sdf|1566|dock6
  -GOLD-   2262019443D 1   1.00000     0.00000
 Structure written by MMmdl.
 51 55  0  0  0  0  0  0  0  0  1 V2000
  148.1654  136.4722  156.8738 C   0  0  0  0  0  0  0  0  0  0  0  0
  148.4263  137.7681  156.0888 C   0  0  2  0  0  0  0  0  0  0  0  0
  147.2105  138.4870  155.8829 O   0  0  0  0  0  0  0  0  0  0  0  0
  146.9940  138.6940  154.4945 C   0  0  0  0  0  0  0  0  0  0  0  0
  148.3922  138.6918  153.8916 C   0  0  0  0  0  0  0  0  0  0  0  0
  149.1002  137.6163  154.7044 C   0  0  2  0  0  0  0  0  0  0  0  0
  148.7992  136.3544  154.1291 O   0  0  0  0  0  0  0  0  0  0  0  0
  150.6382  137.7765  154.7572 C   0  0  0  0  0  0  0  0  0  0  0  0
  151.1043  138.4717  155.9472 N   0  0  0  0  0  0  0  0  0  0  0  0
  151.7892  137.9225  157.0058 C   0  0  0  0  0  0  0  0  0  0  0  0
  152.0871  138.7553  157.9640 N   0  0  0  0  0  0  0  0  0  0  0  0
  151.5852  139.9789  157.5331 C   0  0  0  0  0  0  0  0  0  0  0  0
  151.5588  141.3013  158.0707 C   0  0  0  0  0  0  0  0  0  0  0  0
  152.0800  141.6726  159.2735 N   0  0  0  0  0  0  0  0  0  0  0  0
  153.3304  142.4093  159.3848 C   0  0  2  0  0  0  0  0  0  0  0  0
  153.5747  142.4140  160.9041 C   0  0  0  0  0  0  0  0  0  0  0  0
  152.1389  142.5012  161.4407 C   0  0  0  0  0  0  0  0  0  0  0  0
  151.3320  142.5824  160.1317 C   0  0  1  0  0  0  0  0  0  0  0  0
  151.5125  143.9543  159.4275 C   0  0  1  0  0  0  0  0  0  0  0  0
  151.2106  145.2196  160.2522 C   0  0  0  0  0  0  0  0  0  0  0  0
  149.8829  145.1885  160.7299 O   0  0  0  0  0  0  0  0  0  0  0  0
  152.9674  143.8397  158.9355 C   0  0  0  0  0  0  0  0  0  0  0  0
  150.9403  142.2583  157.3296 N   0  0  0  0  0  0  0  0  0  0  0  0
  150.4002  141.9611  156.1451 C   0  0  0  0  0  0  0  0  0  0  0  0
  150.3575  140.7837  155.5215 N   0  0  0  0  0  0  0  0  0  0  0  0
  150.9647  139.8123  156.2602 C   0  0  0  0  0  0  0  0  0  0  0  0
  149.0894  135.9136  157.0260 H   0  0  0  0  0  0  0  0  0  0  0  0
  147.4584  135.8229  156.3563 H   0  0  0  0  0  0  0  0  0  0  0  0
  147.7465  136.6938  157.8554 H   0  0  0  0  0  0  0  0  0  0  0  0
  149.0428  138.4189  156.7101 H   0  0  0  0  0  0  0  0  0  0  0  0
  146.4018  137.8680  154.0983 H   0  0  0  0  0  0  0  0  0  0  0  0
  146.4547  139.6226  154.3062 H   0  0  0  0  0  0  0  0  0  0  0  0
  148.3945  138.5060  152.8166 H   0  0  0  0  0  0  0  0  0  0  0  0
  148.8574  139.6633  154.0654 H   0  0  0  0  0  0  0  0  0  0  0  0
  148.6966  136.4662  153.1962 H   0  0  0  0  0  0  0  0  0  0  0  0
  151.1204  136.7983  154.7324 H   0  0  0  0  0  0  0  0  0  0  0  0
  150.9935  138.3137  153.8766 H   0  0  0  0  0  0  0  0  0  0  0  0
  152.0555  136.8765  157.0498 H   0  0  0  0  0  0  0  0  0  0  0  0
  154.1780  141.9845  158.8500 H   0  0  0  0  0  0  0  0  0  0  0  0
  154.0485  141.4863  161.2279 H   0  0  0  0  0  0  0  0  0  0  0  0
  154.2010  143.2458  161.2283 H   0  0  0  0  0  0  0  0  0  0  0  0
  151.8852  141.5894  161.9831 H   0  0  0  0  0  0  0  0  0  0  0  0
  151.9763  143.3377  162.1184 H   0  0  0  0  0  0  0  0  0  0  0  0
  150.2857  142.3128  160.2788 H   0  0  0  0  0  0  0  0  0  0  0  0
  150.8618  143.9730  158.5511 H   0  0  0  0  0  0  0  0  0  0  0  0
  151.8993  145.3401  161.0877 H   0  0  0  0  0  0  0  0  0  0  0  0
  151.3277  146.1042  159.6256 H   0  0  0  0  0  0  0  0  0  0  0  0
  149.5194  146.0584  160.6635 H   0  0  0  0  0  0  0  0  0  0  0  0
  153.6317  144.5898  159.3664 H   0  0  0  0  0  0  0  0  0  0  0  0
  153.0135  143.9373  157.8502 H   0  0  0  0  0  0  0  0  0  0  0  0
  149.9336  142.7842  155.6242 H   0  0  0  0  0  0  0  0  0  0  0  0
  1  2  1  0  0  0  0
  1 27  1  0  0  0  0
  1 28  1  0  0  0  0
  1 29  1  0  0  0  0
  2  6  1  0  0  0  0
  2  3  1  0  0  0  0
  2 30  1  0  0  0  0
  3  4  1  0  0  0  0
  4  5  1  0  0  0  0
  4 31  1  0  0  0  0
  4 32  1  0  0  0  0
  5  6  1  0  0  0  0
  5 33  1  0  0  0  0
  5 34  1  0  0  0  0
  6  7  1  0  0  0  0
  6  8  1  0  0  0  0
  7 35  1  0  0  0  0
  8  9  1  0  0  0  0
  8 36  1  0  0  0  0
  8 37  1  0  0  0  0
  9 26  1  0  0  0  0
  9 10  1  0  0  0  0
 10 11  2  0  0  0  0
 10 38  1  0  0  0  0
 11 12  1  0  0  0  0
 12 26  2  0  0  0  0
 12 13  1  0  0  0  0
 13 14  1  0  0  0  0
 13 23  2  0  0  0  0
 14 18  1  0  0  0  0
 14 15  1  0  0  0  0
 15 22  1  0  0  0  0
 15 16  1  0  0  0  0
 15 39  1  0  0  0  0
 16 17  1  0  0  0  0
 16 40  1  0  0  0  0
 16 41  1  0  0  0  0
 17 18  1  0  0  0  0
 17 42  1  0  0  0  0
 17 43  1  0  0  0  0
 18 19  1  0  0  0  0
 18 44  1  0  0  0  0
 19 20  1  0  0  0  0
 19 22  1  0  0  0  0
 19 45  1  0  0  0  0
 20 21  1  0  0  0  0
 20 46  1  0  0  0  0
 20 47  1  0  0  0  0
 21 48  1  0  0  0  0
 22 49  1  0  0  0  0
 22 50  1  0  0  0  0
 23 24  1  0  0  0  0
 24 25  2  0  0  0  0
 24 51  1  0  0  0  0
 25 26  1  0  0  0  0
M  END
> <s_m_source_file>
AV-unprocessed.smi

> <i_m_source_file_index>
199

> <i_lp_mmshare_version>
43012

> <i_f3d_flags>
0

> <s_epik_input>
W0NIMl0xW0NIMl1PW0NAQEhdKFtDSDNdKVtDQEBdMShbT0hdKVtDSDJdbihbY0hdbjIpYyhjMjMpbltjSF1uYzNOKFtDQEBIXTQ1KVtDQEhdKFtDSDJdW0NIMl00KVtDQEhdKFtDSDJdNSlbQ0gyXVtPSF0=

> <s_epik_cmdline>
J2VwaWtfcHl0aG9uJywgJy1waCcsICc3LjAnLCAnLXRuJywgJzgnLCAnLW1hJywgJzIwMCcsICctbWV0YWxfYmluZGluZycsICctaW1hZScsICc8aW5maWxlLm1hZT4nLCAnLW9tYWUnLCAnPG91dGZpbGUubWFlPic=

> <r_lp_tautomer_probability>
1

> <r_epik_Ionization_Penalty>
0.00583903

> <r_epik_Ionization_Penalty_Charging>
0

> <r_epik_Ionization_Penalty_Neutral>
0.00583903

> <r_epik_State_Penalty>
-0

> <r_epik_Charging_Adjusted_Penalty>
0

> <i_epik_Tot_Q>
0

> <i_epik_Tot_abs_Q>
0

> <r_epik_Metal_State_Penalty>
-0

> <b_epik_Metal_Only>
0

> <s_lp_Force_Field>
OPLS_2005

> <r_lp_Energy>
84.6661

> <b_lp_Chiralities_Consistent>
1

> <s_lp_Variant>
AV-unprocessed.smi:199-7

> <Gold.Version>
5.8.1

> <Gold.Id.Protein>
6NUR|6NUR_protein|mol2

> <Gold.PLP.Fitness>
43.2617

> <Gold.PLP.PLP>
-38.6476

> <Gold.PLP.part.hbond>
-3.4182

> <Gold.PLP.part.metal>
0.0000

> <Gold.PLP.part.buried>
-4.0665

> <Gold.PLP.part.nonpolar>
-30.7990

> <Gold.PLP.part.repulsive>
0.1314

> <Gold.PLP.ligand.clash>
0.0000

> <Gold.PLP.ligand.torsion>
1.3551

> <Gold.PLP.Chemscore.Hbond>
1.4333

> <Gold.PLP.Chemscore.CHOScore>
1.0000

> <Gold.PLP.Chemscore.Metal>
0.0000

> <Gold.Chemscore.Hbonds>
donor molecule, donor type, donor heavy atom, donor atom, acceptor molecule, acceptor atom, score
      L1  H     7    35       P1  7948  0.60
      P1  H  7989  7998       L1    25  0.09
      L1  C    24    51       P1  8028  1.00

> <Gold.PLP.Chemscore.Internal.Correction>
0.0245

> <Gold.Rescore>
     Score         DG    S(hbond)    S(metal)    S(lipo)     H(rot)  DE(clash)    DE(int)     intcor
      8.61     -14.95       1.45        0.00     106.75       3.07       2.33       4.01       ----

> <Gold.Chemscore.Fitness>
8.6051

> <Gold.Chemscore.DG>
-14.9455

> <Gold.Chemscore.ZeroCoef>
-5.4800

> <Gold.Chemscore.Hbond>
1.4498

> <Gold.Chemscore.Metal>
0.0000

> <Gold.Chemscore.Lipo>
106.7509

> <Gold.Chemscore.Internal_Hbond>
0.0000

> <Gold.Chemscore.DEClash>
2.3340

> <Gold.Chemscore.DEInternal>
4.0063

> <Gold.Chemscore.Rot>
3.0729

> <Gold.Chemscore.Internal.Correction>
   9.000000E+99

> <Gold.Chemscore.Hbonds>
donor molecule, donor type, donor heavy atom, donor atom, acceptor molecule, acceptor atom, score
      L1  H     7    35       P1  7948  0.59
      P1  H  7989  7998       L1    25  0.04

> <Gold.Chemscore.Hbond.Weighted>
-4.8423

> <Gold.Chemscore.Metal.Weighted>
-0.0000

> <Gold.Chemscore.Lipo.Weighted>
-12.4899

> <Gold.Chemscore.Internal_Hbond.Weighted>
0.0000

> <Gold.Chemscore.DEClash.Weighted>
2.3340

> <Gold.Chemscore.DEInternal.Weighted>
4.0063

> <Gold.Chemscore.Rot.Weighted>
7.8667

> <Gold.Chemscore.Internal.Correction.Weighted>
   9.000000E+99

> <Gold.Protein.RotatedTorsions>
[ 6907 6896 6895 6894 ] final   10.93 input  -60.11 | X-H torsion
[ 7974 7965 7964 7962 ] final -160.71 input  175.53 | X-H torsion
[ 8008 7997 7996 7995 ] final  141.56 input   59.86 | X-H torsion
[ 10167 10162 10161 10158 ] final  153.64 input  -65.29 | X-H torsion
[ 10718 10713 10712 10709 ] final  153.48 input   66.30 | X-H torsion
[ 10763 10752 10751 10750 ] final  -91.32 input  -60.55 | X-H torsion
[ 11005 11000 10999 10996 ] final -121.65 input  -57.11 | X-H torsion

> <Gold.Protein.ActiveResidues>
 VAL166  LYS551  ARG553  GLY616  TRP617  ASP618  TYR619  PRO620  LYS621  CYS622 
 ASP623  PHE694  ASN695  SER759  ASP760  ASP761  ALA762  ILE779  LEU786  VAL792 
 PHE793  MET794  SER795  GLU796  ALA797  LYS798  CYS799  TRP800  GLU811  SER814 

> <Gold.Protein.RotatedAtoms>
  151.7461  135.0843  160.0323 H   0  0  0  0  0  0  0  0  0  0  0  0  # atno 6907 bound_to 6896
  152.3447  133.6104  159.5910 H   0  0  0  0  0  0  0  0  0  0  0  0  # atno 6908 bound_to 6896
  150.7501  133.9583  159.3549 H   0  0  0  0  0  0  0  0  0  0  0  0  # atno 6909 bound_to 6896
  144.7417  140.3503  143.6117 H   0  0  0  0  0  0  0  0  0  0  0  0  # atno 7974 bound_to 7965
  156.2964  140.2312  156.4585 H   0  0  0  0  0  0  0  0  0  0  0  0  # atno 8008 bound_to 7997
  154.8039  140.0447  157.1314 H   0  0  0  0  0  0  0  0  0  0  0  0  # atno 8009 bound_to 7997
  154.9501  140.3041  155.5082 H   0  0  0  0  0  0  0  0  0  0  0  0  # atno 8010 bound_to 7997
  139.4826  144.5255  151.7807 H   0  0  0  0  0  0  0  0  0  0  0  0  # atno 10167 bound_to 10162
  157.2442  131.0765  151.1772 H   0  0  0  0  0  0  0  0  0  0  0  0  # atno 10718 bound_to 10713
  154.6748  135.5272  153.8185 H   0  0  0  0  0  0  0  0  0  0  0  0  # atno 10763 bound_to 10752
  153.0525  135.6538  154.0668 H   0  0  0  0  0  0  0  0  0  0  0  0  # atno 10764 bound_to 10752
  154.0563  135.2965  155.3312 H   0  0  0  0  0  0  0  0  0  0  0  0  # atno 10765 bound_to 10752
  141.0054  134.0342  157.3484 H   0  0  0  0  0  0  0  0  0  0  0  0  # atno 11005 bound_to 11000
  145.7283  139.1729  143.2445 LP  0  0  0  0  0  0  0  0  0  0  0  0  # atno 17320 bound_to 7965
  146.1225  140.7290  142.9450 LP  0  0  0  0  0  0  0  0  0  0  0  0  # atno 17321 bound_to 7965
  140.4775  144.1498  150.5927 LP  0  0  0  0  0  0  0  0  0  0  0  0  # atno 17342 bound_to 10162
  140.4315  143.2566  151.9590 LP  0  0  0  0  0  0  0  0  0  0  0  0  # atno 17343 bound_to 10162
  157.3346  130.7002  149.6345 LP  0  0  0  0  0  0  0  0  0  0  0  0  # atno 17370 bound_to 10713
  155.9668  130.4297  150.4846 LP  0  0  0  0  0  0  0  0  0  0  0  0  # atno 17371 bound_to 10713
  139.9060  135.0179  156.7489 LP  0  0  0  0  0  0  0  0  0  0  0  0  # atno 17394 bound_to 11000
  140.6821  133.9465  155.7917 LP  0  0  0  0  0  0  0  0  0  0  0  0  # atno 17395 bound_to 11000

$$$$
