AV-unprocessed.smi:2966|AV-procd|sdf|11325|dock1
  -GOLD-   2272016233D 1   1.00000     0.00000
 Structure written by MMmdl.
 41 43  0  0  0  0  0  0  0  0  2 V2000
  153.1972  143.2193  163.2077 C   0  0  0  0  0  0  0  0  0  0  0  0
  153.3475  142.6062  161.9397 O   0  0  0  0  0  0  0  0  0  0  0  0
  154.0084  141.3536  162.0161 C   0  0  0  0  0  0  0  0  0  0  0  0
  154.4295  140.8977  160.6125 C   0  0  0  0  0  0  0  0  0  0  0  0
  153.3153  140.9409  159.6543 N   0  0  0  0  0  0  0  0  0  0  0  0
  152.5553  139.9330  159.1448 C   0  0  0  0  0  0  0  0  0  0  0  0
  152.7194  138.2157  159.5047 S   0  0  0  0  0  0  0  0  0  0  0  0
  151.2911  137.4498  158.6885 C   0  0  0  0  0  0  0  0  0  0  0  0
  151.5154  137.2473  157.1909 C   0  0  0  0  0  0  0  0  0  0  0  0
  152.4916  136.6091  156.7977 O   0  0  0  0  0  0  0  0  0  0  0  0
  150.5911  137.7736  156.3740 N   0  0  0  0  0  0  0  0  0  0  0  0
  150.5800  137.6594  154.9522 C   0  0  0  0  0  0  0  0  0  0  0  0
  151.7898  138.1656  154.1976 C   0  0  0  0  0  0  0  0  0  0  0  0
  150.5006  138.9382  154.1468 C   0  0  0  0  0  0  0  0  0  0  0  0
  151.6602  140.4814  158.2792 N   0  3  0  0  0  0  0  0  0  0  0  0
  151.8403  141.8651  158.2416 C   0  0  0  0  0  0  0  0  0  0  0  0
  151.1724  142.8503  157.5207 C   0  0  0  0  0  0  0  0  0  0  0  0
  151.6053  144.1786  157.7135 C   0  0  0  0  0  0  0  0  0  0  0  0
  152.6623  144.4862  158.5945 C   0  0  0  0  0  0  0  0  0  0  0  0
  153.3333  143.4791  159.3190 C   0  0  0  0  0  0  0  0  0  0  0  0
  152.9006  142.1679  159.1228 C   0  0  0  0  0  0  0  0  0  0  0  0
  152.6820  144.1731  163.0944 H   0  0  0  0  0  0  0  0  0  0  0  0
  154.1662  143.4120  163.6699 H   0  0  0  0  0  0  0  0  0  0  0  0
  152.6061  142.5957  163.8796 H   0  0  0  0  0  0  0  0  0  0  0  0
  154.8882  141.4335  162.6563 H   0  0  0  0  0  0  0  0  0  0  0  0
  153.3464  140.6099  162.4628 H   0  0  0  0  0  0  0  0  0  0  0  0
  155.2548  141.5004  160.2337 H   0  0  0  0  0  0  0  0  0  0  0  0
  154.7946  139.8715  160.6495 H   0  0  0  0  0  0  0  0  0  0  0  0
  151.0812  136.4897  159.1606 H   0  0  0  0  0  0  0  0  0  0  0  0
  150.4159  138.0814  158.8453 H   0  0  0  0  0  0  0  0  0  0  0  0
  149.8249  138.2800  156.7938 H   0  0  0  0  0  0  0  0  0  0  0  0
  150.0801  136.7918  154.5233 H   0  0  0  0  0  0  0  0  0  0  0  0
  152.6082  138.5930  154.7741 H   0  0  0  0  0  0  0  0  0  0  0  0
  152.0857  137.6233  153.3017 H   0  0  0  0  0  0  0  0  0  0  0  0
  149.9337  138.9110  153.2185 H   0  0  0  0  0  0  0  0  0  0  0  0
  150.4608  139.8816  154.6885 H   0  0  0  0  0  0  0  0  0  0  0  0
  150.3614  142.6177  156.8461 H   0  0  0  0  0  0  0  0  0  0  0  0
  151.1159  144.9779  157.1759 H   0  0  0  0  0  0  0  0  0  0  0  0
  152.9649  145.5159  158.7184 H   0  0  0  0  0  0  0  0  0  0  0  0
  154.1381  143.7272  159.9949 H   0  0  0  0  0  0  0  0  0  0  0  0
  150.9785  139.9477  157.7559 H   0  0  0  0  0  0  0  0  0  0  0  0
  1  2  1  0  0  0  0
  1 22  1  0  0  0  0
  1 23  1  0  0  0  0
  1 24  1  0  0  0  0
  2  3  1  0  0  0  0
  3  4  1  0  0  0  0
  3 25  1  0  0  0  0
  3 26  1  0  0  0  0
  4  5  1  0  0  0  0
  4 27  1  0  0  0  0
  4 28  1  0  0  0  0
  5 21  1  0  0  0  0
  5  6  1  0  0  0  0
  6  7  1  0  0  0  0
  6 15  2  0  0  0  0
  7  8  1  0  0  0  0
  8  9  1  0  0  0  0
  8 29  1  0  0  0  0
  8 30  1  0  0  0  0
  9 10  2  0  0  0  0
  9 11  1  0  0  0  0
 11 12  1  0  0  0  0
 11 31  1  0  0  0  0
 12 14  1  0  0  0  0
 12 13  1  0  0  0  0
 12 32  1  0  0  0  0
 13 14  1  0  0  0  0
 13 33  1  0  0  0  0
 13 34  1  0  0  0  0
 14 35  1  0  0  0  0
 14 36  1  0  0  0  0
 15 16  1  0  0  0  0
 15 41  1  0  0  0  0
 16 21  2  0  0  0  0
 16 17  1  0  0  0  0
 17 18  2  0  0  0  0
 17 37  1  0  0  0  0
 18 19  1  0  0  0  0
 18 38  1  0  0  0  0
 19 20  2  0  0  0  0
 19 39  1  0  0  0  0
 20 21  1  0  0  0  0
 20 40  1  0  0  0  0
M  CHG  1  15   1
M  END
> <s_m_source_file>
AV-unprocessed.smi

> <i_m_source_file_index>
2966

> <i_lp_mmshare_version>
43012

> <i_f3d_flags>
0

> <s_epik_input>
W2NIXTFbY0hdW2NIXVtjSF1jKGMxMiluKFtDSDJdW0NIMl1PW0NIM10pYyhuMilTW0NIMl1DKD1PKVtOSF1bQ0hdM1tDSDJdW0NIMl0z

> <s_epik_cmdline>
J2VwaWtfcHl0aG9uJywgJy1waCcsICc3LjAnLCAnLXRuJywgJzgnLCAnLW1hJywgJzIwMCcsICctbWV0YWxfYmluZGluZycsICctaW1hZScsICc8aW5maWxlLm1hZT4nLCAnLW9tYWUnLCAnPG91dGZpbGUubWFlPic=

> <r_epik_Ionization_Penalty>
1.66257

> <r_epik_Ionization_Penalty_Charging>
1.66257

> <r_epik_Ionization_Penalty_Neutral>
8.69326e-08

> <r_epik_State_Penalty>
1.76557

> <r_epik_Charging_Adjusted_Penalty>
3.42813

> <i_epik_Tot_Q>
1

> <i_epik_Tot_abs_Q>
1

> <r_epik_Metal_State_Penalty>
1.80073

> <b_epik_Metal_Only>
0

> <s_lp_Force_Field>
OPLS_2005

> <r_lp_Energy>
20.3811

> <b_lp_Chiralities_Consistent>
1

> <s_lp_Variant>
AV-unprocessed.smi:2966-2

> <Gold.Version>
5.8.1

> <Gold.Id.Protein>
6NUR|6NUR_protein|mol2

> <Gold.PLP.Fitness>
49.6925

> <Gold.PLP.PLP>
-47.4886

> <Gold.PLP.part.hbond>
-1.0000

> <Gold.PLP.part.metal>
0.0000

> <Gold.PLP.part.buried>
-4.5622

> <Gold.PLP.part.nonpolar>
-41.1593

> <Gold.PLP.part.repulsive>
0.1771

> <Gold.PLP.ligand.clash>
0.0000

> <Gold.PLP.ligand.torsion>
0.4877

> <Gold.PLP.Chemscore.Hbond>
0.9913

> <Gold.PLP.Chemscore.CHOScore>
0.0000

> <Gold.PLP.Chemscore.Metal>
0.0000

> <Gold.Chemscore.Hbonds>
donor molecule, donor type, donor heavy atom, donor atom, acceptor molecule, acceptor atom, score
      P1  H 10752 10764       L1    10  0.71

> <Gold.PLP.Chemscore.Internal.Correction>
0.2056

> <Gold.Rescore>
     Score         DG    S(hbond)    S(metal)    S(lipo)     H(rot)  DE(clash)    DE(int)     intcor
     17.57     -18.55       0.99        0.00     131.98       2.21       0.31       0.68       ----

> <Gold.Chemscore.Fitness>
17.5696

> <Gold.Chemscore.DG>
-18.5518

> <Gold.Chemscore.ZeroCoef>
-5.4800

> <Gold.Chemscore.Hbond>
0.9881

> <Gold.Chemscore.Metal>
0.0000

> <Gold.Chemscore.Lipo>
131.9804

> <Gold.Chemscore.Internal_Hbond>
0.0000

> <Gold.Chemscore.DEClash>
0.3060

> <Gold.Chemscore.DEInternal>
0.6762

> <Gold.Chemscore.Rot>
2.2149

> <Gold.Chemscore.Internal.Correction>
   9.000000E+99

> <Gold.Chemscore.Hbonds>
donor molecule, donor type, donor heavy atom, donor atom, acceptor molecule, acceptor atom, score
      P1  H 10752 10764       L1    10  0.70

> <Gold.Chemscore.Hbond.Weighted>
-3.3001

> <Gold.Chemscore.Metal.Weighted>
-0.0000

> <Gold.Chemscore.Lipo.Weighted>
-15.4417

> <Gold.Chemscore.Internal_Hbond.Weighted>
0.0000

> <Gold.Chemscore.DEClash.Weighted>
0.3060

> <Gold.Chemscore.DEInternal.Weighted>
0.6762

> <Gold.Chemscore.Rot.Weighted>
5.6700

> <Gold.Chemscore.Internal.Correction.Weighted>
   9.000000E+99

> <Gold.Protein.RotatedTorsions>
[ 6907 6896 6895 6894 ] final  -48.92 input  -60.11 | X-H torsion
[ 7974 7965 7964 7962 ] final  115.73 input  175.53 | X-H torsion
[ 8008 7997 7996 7995 ] final -109.76 input   59.86 | X-H torsion
[ 10167 10162 10161 10158 ] final   90.01 input  -65.29 | X-H torsion
[ 10718 10713 10712 10709 ] final -131.94 input   66.30 | X-H torsion
[ 10763 10752 10751 10750 ] final   -9.78 input  -60.55 | X-H torsion
[ 11005 11000 10999 10996 ] final   49.10 input  -57.11 | X-H torsion

> <Gold.Protein.ActiveResidues>
 VAL166  LYS551  ARG553  GLY616  TRP617  ASP618  TYR619  PRO620  LYS621  CYS622 
 ASP623  PHE694  ASN695  SER759  ASP760  ASP761  ALA762  ILE779  LEU786  VAL792 
 PHE793  MET794  SER795  GLU796  ALA797  LYS798  CYS799  TRP800  GLU811  SER814 

> <Gold.Protein.RotatedAtoms>
  150.8857  134.8254  159.7256 H   0  0  0  0  0  0  0  0  0  0  0  0  # atno 6907 bound_to 6896
  152.4806  134.4727  159.9650 H   0  0  0  0  0  0  0  0  0  0  0  0  # atno 6908 bound_to 6896
  151.4796  133.3511  159.2871 H   0  0  0  0  0  0  0  0  0  0  0  0  # atno 6909 bound_to 6896
  145.1884  139.3013  143.4381 H   0  0  0  0  0  0  0  0  0  0  0  0  # atno 7974 bound_to 7965
  154.9642  140.0398  157.2204 H   0  0  0  0  0  0  0  0  0  0  0  0  # atno 8008 bound_to 7997
  154.7860  140.2827  155.6005 H   0  0  0  0  0  0  0  0  0  0  0  0  # atno 8009 bound_to 7997
  156.2943  140.2582  156.2697 H   0  0  0  0  0  0  0  0  0  0  0  0  # atno 8010 bound_to 7997
  139.8516  144.6590  150.9163 H   0  0  0  0  0  0  0  0  0  0  0  0  # atno 10167 bound_to 10162
  156.2295  130.7029  151.0843 H   0  0  0  0  0  0  0  0  0  0  0  0  # atno 10718 bound_to 10713
  153.4597  135.7016  153.6058 H   0  0  0  0  0  0  0  0  0  0  0  0  # atno 10763 bound_to 10752
  153.4357  135.3792  155.2198 H   0  0  0  0  0  0  0  0  0  0  0  0  # atno 10764 bound_to 10752
  154.8727  135.3961  154.4021 H   0  0  0  0  0  0  0  0  0  0  0  0  # atno 10765 bound_to 10752
  140.1132  134.4927  155.8659 H   0  0  0  0  0  0  0  0  0  0  0  0  # atno 11005 bound_to 11000
  146.3441  140.2087  142.8590 LP  0  0  0  0  0  0  0  0  0  0  0  0  # atno 17320 bound_to 7965
  145.0066  140.8678  143.5249 LP  0  0  0  0  0  0  0  0  0  0  0  0  # atno 17321 bound_to 7965
  140.7787  143.3822  151.1456 LP  0  0  0  0  0  0  0  0  0  0  0  0  # atno 17342 bound_to 10162
  139.7460  143.8851  152.3063 LP  0  0  0  0  0  0  0  0  0  0  0  0  # atno 17343 bound_to 10162
  157.7126  131.0726  150.6444 LP  0  0  0  0  0  0  0  0  0  0  0  0  # atno 17370 bound_to 10713
  156.6511  130.4485  149.5719 LP  0  0  0  0  0  0  0  0  0  0  0  0  # atno 17371 bound_to 10713
  141.2135  133.6734  156.6746 LP  0  0  0  0  0  0  0  0  0  0  0  0  # atno 17394 bound_to 11000
  140.3063  134.8123  157.4139 LP  0  0  0  0  0  0  0  0  0  0  0  0  # atno 17395 bound_to 11000

$$$$
