AV-unprocessed.smi:164|AV-procd|sdf|1383|dock2
  -GOLD-   2262019113D 1   1.00000     0.00000
 Structure written by MMmdl.
 53 55  0  0  0  0  0  0  0  0  1 V2000
  154.2405  130.2043  166.5698 C   0  0  0  0  0  0  0  0  0  0  0  0
  154.8236  131.5747  166.2701 C   0  0  0  0  0  0  0  0  0  0  0  0
  156.1227  131.8781  166.7263 C   0  0  0  0  0  0  0  0  0  0  0  0
  156.6912  133.1384  166.4711 C   0  0  0  0  0  0  0  0  0  0  0  0
  155.9691  134.1072  165.7479 C   0  0  0  0  0  0  0  0  0  0  0  0
  156.5918  135.4657  165.4831 C   0  0  0  0  0  0  0  0  0  0  0  0
  154.6717  133.8073  165.2725 C   0  0  0  0  0  0  0  0  0  0  0  0
  153.9825  134.7580  164.5644 O   0  0  0  0  0  0  0  0  0  0  0  0
  154.5649  135.0632  163.3053 C   0  0  0  0  0  0  0  0  0  0  0  0
  153.8715  136.3064  162.7258 C   0  0  1  0  0  0  0  0  0  0  0  0
  153.6386  137.1913  163.8038 O   0  0  0  0  0  0  0  0  0  0  0  0
  154.7632  137.0288  161.6904 C   0  0  0  0  0  0  0  0  0  0  0  0
  154.0308  137.9659  160.8535 N   0  0  0  0  0  0  0  0  0  0  0  0
  153.0836  137.4313  159.9455 C   0  0  0  0  0  0  0  0  0  0  0  0
  152.8915  136.2184  159.8389 O   0  0  0  0  0  0  0  0  0  0  0  0
  152.3543  138.4303  159.1724 C   0  0  0  0  0  0  0  0  0  0  0  0
  151.4211  138.0363  158.2894 F   0  0  0  0  0  0  0  0  0  0  0  0
  152.5956  139.7490  159.3344 C   0  0  0  0  0  0  0  0  0  0  0  0
  153.5385  140.2435  160.2171 N   0  0  0  0  0  0  0  0  0  0  0  0
  153.6953  141.7392  160.3663 C   0  0  2  0  0  0  0  0  0  0  0  0
  153.3203  142.2632  161.7655 C   0  0  0  0  0  0  0  0  0  0  0  0
  152.2173  143.2660  161.4689 C   0  0  0  0  0  0  0  0  0  0  0  0
  152.4514  143.6044  160.0007 C   0  0  0  0  0  0  0  0  0  0  0  0
  152.8632  142.3675  159.4407 O   0  0  0  0  0  0  0  0  0  0  0  0
  154.2688  139.3495  161.0348 C   0  0  0  0  0  0  0  0  0  0  0  0
  155.0698  139.7651  161.8743 O   0  0  0  0  0  0  0  0  0  0  0  0
  154.0860  132.5458  165.5475 C   0  0  0  0  0  0  0  0  0  0  0  0
  152.6739  132.2354  165.0689 C   0  0  0  0  0  0  0  0  0  0  0  0
  154.9893  129.5398  167.0021 H   0  0  0  0  0  0  0  0  0  0  0  0
  153.8672  129.7355  165.6590 H   0  0  0  0  0  0  0  0  0  0  0  0
  153.4179  130.2893  167.2801 H   0  0  0  0  0  0  0  0  0  0  0  0
  156.6900  131.1445  167.2805 H   0  0  0  0  0  0  0  0  0  0  0  0
  157.6846  133.3576  166.8338 H   0  0  0  0  0  0  0  0  0  0  0  0
  155.8812  136.2635  165.7005 H   0  0  0  0  0  0  0  0  0  0  0  0
  156.8911  135.5475  164.4381 H   0  0  0  0  0  0  0  0  0  0  0  0
  157.4741  135.6253  166.1033 H   0  0  0  0  0  0  0  0  0  0  0  0
  155.6447  135.2093  163.3758 H   0  0  0  0  0  0  0  0  0  0  0  0
  154.4047  134.2086  162.6467 H   0  0  0  0  0  0  0  0  0  0  0  0
  152.9226  136.0141  162.2742 H   0  0  0  0  0  0  0  0  0  0  0  0
  154.4723  137.4920  164.1316 H   0  0  0  0  0  0  0  0  0  0  0  0
  155.6076  137.5446  162.1510 H   0  0  0  0  0  0  0  0  0  0  0  0
  155.2292  136.3177  161.0060 H   0  0  0  0  0  0  0  0  0  0  0  0
  152.0205  140.4443  158.7406 H   0  0  0  0  0  0  0  0  0  0  0  0
  154.7350  141.9594  160.1197 H   0  0  0  0  0  0  0  0  0  0  0  0
  153.0034  141.4679  162.4409 H   0  0  0  0  0  0  0  0  0  0  0  0
  154.1926  142.7553  162.1970 H   0  0  0  0  0  0  0  0  0  0  0  0
  151.2405  142.7974  161.5907 H   0  0  0  0  0  0  0  0  0  0  0  0
  152.2532  144.1422  162.1165 H   0  0  0  0  0  0  0  0  0  0  0  0
  151.5586  143.9912  159.5093 H   0  0  0  0  0  0  0  0  0  0  0  0
  153.2516  144.3383  159.8928 H   0  0  0  0  0  0  0  0  0  0  0  0
  152.1322  133.1331  164.7715 H   0  0  0  0  0  0  0  0  0  0  0  0
  152.0910  131.7605  165.8578 H   0  0  0  0  0  0  0  0  0  0  0  0
  152.7079  131.5618  164.2124 H   0  0  0  0  0  0  0  0  0  0  0  0
  1  2  1  0  0  0  0
  1 29  1  0  0  0  0
  1 30  1  0  0  0  0
  1 31  1  0  0  0  0
  2 27  1  0  0  0  0
  2  3  2  0  0  0  0
  3  4  1  0  0  0  0
  3 32  1  0  0  0  0
  4  5  2  0  0  0  0
  4 33  1  0  0  0  0
  5  6  1  0  0  0  0
  5  7  1  0  0  0  0
  6 34  1  0  0  0  0
  6 35  1  0  0  0  0
  6 36  1  0  0  0  0
  7  8  1  0  0  0  0
  7 27  2  0  0  0  0
  8  9  1  0  0  0  0
  9 10  1  0  0  0  0
  9 37  1  0  0  0  0
  9 38  1  0  0  0  0
 10 11  1  0  0  0  0
 10 12  1  0  0  0  0
 10 39  1  0  0  0  0
 11 40  1  0  0  0  0
 12 13  1  0  0  0  0
 12 41  1  0  0  0  0
 12 42  1  0  0  0  0
 13 25  1  0  0  0  0
 13 14  1  0  0  0  0
 14 15  2  0  0  0  0
 14 16  1  0  0  0  0
 16 17  1  0  0  0  0
 16 18  2  0  0  0  0
 18 19  1  0  0  0  0
 18 43  1  0  0  0  0
 19 20  1  0  0  0  0
 19 25  1  0  0  0  0
 20 24  1  0  0  0  0
 20 21  1  0  0  0  0
 20 44  1  0  0  0  0
 21 22  1  0  0  0  0
 21 45  1  0  0  0  0
 21 46  1  0  0  0  0
 22 23  1  0  0  0  0
 22 47  1  0  0  0  0
 22 48  1  0  0  0  0
 23 24  1  0  0  0  0
 23 49  1  0  0  0  0
 23 50  1  0  0  0  0
 25 26  2  0  0  0  0
 27 28  1  0  0  0  0
 28 51  1  0  0  0  0
 28 52  1  0  0  0  0
 28 53  1  0  0  0  0
M  END
> <s_m_source_file>
AV-unprocessed.smi

> <i_m_source_file_index>
164

> <i_lp_mmshare_version>
43012

> <i_f3d_flags>
0

> <s_epik_input>
W0NIM11jMVtjSF1bY0hdYyhbQ0gzXSljKGMxW0NIM10pT1tDSDJdW0NASF0oW09IXSlbQ0gyXW4yYyg9TyljKEYpW2NIXW4oYzI9TylbQ0BASF0zW0NIMl1bQ0gyXVtDSDJdTzM=

> <s_epik_cmdline>
J2VwaWtfcHl0aG9uJywgJy1waCcsICc3LjAnLCAnLXRuJywgJzgnLCAnLW1hJywgJzIwMCcsICctbWV0YWxfYmluZGluZycsICctaW1hZScsICc8aW5maWxlLm1hZT4nLCAnLW9tYWUnLCAnPG91dGZpbGUubWFlPic=

> <r_lp_tautomer_probability>
1

> <r_epik_Ionization_Penalty>
1.45842e-07

> <r_epik_Ionization_Penalty_Charging>
2.86622e-08

> <r_epik_Ionization_Penalty_Neutral>
1.1718e-07

> <r_epik_State_Penalty>
-0

> <r_epik_Charging_Adjusted_Penalty>
2.86622e-08

> <i_epik_Tot_Q>
0

> <i_epik_Tot_abs_Q>
0

> <r_epik_Metal_State_Penalty>
-0

> <b_epik_Metal_Only>
0

> <s_epik_Chemistry_Notes>
This compound contains an acetal/aminal-like group ( X-CH(R)-Y where X, Y are N, S, or O) that may be acid/base labile, releasing an aldehyde.

> <s_lp_Force_Field>
OPLS_2005

> <r_lp_Energy>
41.2459

> <b_lp_Chiralities_Consistent>
1

> <s_lp_Variant>
AV-unprocessed.smi:164-2

> <Gold.Version>
5.8.1

> <Gold.Id.Protein>
6NUR|6NUR_protein|mol2

> <Gold.PLP.Fitness>
52.8041

> <Gold.PLP.PLP>
-50.5333

> <Gold.PLP.part.hbond>
-1.0000

> <Gold.PLP.part.metal>
0.0000

> <Gold.PLP.part.buried>
-7.6184

> <Gold.PLP.part.nonpolar>
-42.0393

> <Gold.PLP.part.repulsive>
0.0826

> <Gold.PLP.ligand.clash>
0.0000

> <Gold.PLP.ligand.torsion>
0.5236

> <Gold.PLP.Chemscore.Hbond>
1.0000

> <Gold.PLP.Chemscore.CHOScore>
0.0000

> <Gold.PLP.Chemscore.Metal>
0.0000

> <Gold.Chemscore.Hbonds>
donor molecule, donor type, donor heavy atom, donor atom, acceptor molecule, acceptor atom, score
      P1  H  6896  6909       L1    15  0.83

> <Gold.PLP.Chemscore.Internal.Correction>
0.3180

> <Gold.Rescore>
     Score         DG    S(hbond)    S(metal)    S(lipo)     H(rot)  DE(clash)    DE(int)     intcor
     13.78     -15.14       1.00        0.00     113.78       2.73       0.02       1.33       ----

> <Gold.Chemscore.Fitness>
13.7848

> <Gold.Chemscore.DG>
-15.1399

> <Gold.Chemscore.ZeroCoef>
-5.4800

> <Gold.Chemscore.Hbond>
0.9999

> <Gold.Chemscore.Metal>
0.0000

> <Gold.Chemscore.Lipo>
113.7831

> <Gold.Chemscore.Internal_Hbond>
0.0000

> <Gold.Chemscore.DEClash>
0.0222

> <Gold.Chemscore.DEInternal>
1.3329

> <Gold.Chemscore.Rot>
2.7315

> <Gold.Chemscore.Internal.Correction>
   9.000000E+99

> <Gold.Chemscore.Hbonds>
donor molecule, donor type, donor heavy atom, donor atom, acceptor molecule, acceptor atom, score
      P1  H  6896  6909       L1    15  0.82

> <Gold.Chemscore.Hbond.Weighted>
-3.3398

> <Gold.Chemscore.Metal.Weighted>
-0.0000

> <Gold.Chemscore.Lipo.Weighted>
-13.3126

> <Gold.Chemscore.Internal_Hbond.Weighted>
0.0000

> <Gold.Chemscore.DEClash.Weighted>
0.0222

> <Gold.Chemscore.DEInternal.Weighted>
1.3329

> <Gold.Chemscore.Rot.Weighted>
6.9925

> <Gold.Chemscore.Internal.Correction.Weighted>
   9.000000E+99

> <Gold.Protein.RotatedTorsions>
[ 6907 6896 6895 6894 ] final  147.21 input  -60.11 | X-H torsion
[ 7974 7965 7964 7962 ] final   64.05 input  175.53 | X-H torsion
[ 8008 7997 7996 7995 ] final -144.07 input   59.86 | X-H torsion
[ 10167 10162 10161 10158 ] final  115.93 input  -65.29 | X-H torsion
[ 10718 10713 10712 10709 ] final   31.99 input   66.30 | X-H torsion
[ 10763 10752 10751 10750 ] final  -35.91 input  -60.55 | X-H torsion
[ 11005 11000 10999 10996 ] final  -68.89 input  -57.11 | X-H torsion

> <Gold.Protein.ActiveResidues>
 VAL166  LYS551  ARG553  GLY616  TRP617  ASP618  TYR619  PRO620  LYS621  CYS622 
 ASP623  PHE694  ASN695  SER759  ASP760  ASP761  ALA762  ILE779  LEU786  VAL792 
 PHE793  MET794  SER795  GLU796  ALA797  LYS798  CYS799  TRP800  GLU811  SER814 

> <Gold.Protein.RotatedAtoms>
  152.1578  133.4562  159.4845 H   0  0  0  0  0  0  0  0  0  0  0  0  # atno 6907 bound_to 6896
  150.6903  134.2109  159.4368 H   0  0  0  0  0  0  0  0  0  0  0  0  # atno 6908 bound_to 6896
  152.0010  134.9928  160.0615 H   0  0  0  0  0  0  0  0  0  0  0  0  # atno 6909 bound_to 6896
  145.8547  139.3276  143.0854 H   0  0  0  0  0  0  0  0  0  0  0  0  # atno 7974 bound_to 7965
  155.5209  140.0591  157.2907 H   0  0  0  0  0  0  0  0  0  0  0  0  # atno 8008 bound_to 7997
  154.4518  140.1953  156.0443 H   0  0  0  0  0  0  0  0  0  0  0  0  # atno 8009 bound_to 7997
  156.0719  140.3259  155.7591 H   0  0  0  0  0  0  0  0  0  0  0  0  # atno 8010 bound_to 7997
  139.6282  144.7111  151.2487 H   0  0  0  0  0  0  0  0  0  0  0  0  # atno 10167 bound_to 10162
  157.2796  130.7248  149.6549 H   0  0  0  0  0  0  0  0  0  0  0  0  # atno 10718 bound_to 10713
  153.8710  135.6831  153.4774 H   0  0  0  0  0  0  0  0  0  0  0  0  # atno 10763 bound_to 10752
  153.1287  135.4707  154.9312 H   0  0  0  0  0  0  0  0  0  0  0  0  # atno 10764 bound_to 10752
  154.7714  135.3240  154.8132 H   0  0  0  0  0  0  0  0  0  0  0  0  # atno 10765 bound_to 10752
  141.1542  133.6751  156.6515 H   0  0  0  0  0  0  0  0  0  0  0  0  # atno 11005 bound_to 11000
  145.9317  140.9044  143.0353 LP  0  0  0  0  0  0  0  0  0  0  0  0  # atno 17320 bound_to 7965
  144.6728  140.1427  143.7436 LP  0  0  0  0  0  0  0  0  0  0  0  0  # atno 17321 bound_to 7965
  140.7424  143.6528  150.8233 LP  0  0  0  0  0  0  0  0  0  0  0  0  # atno 17342 bound_to 10162
  140.0149  143.5603  152.2824 LP  0  0  0  0  0  0  0  0  0  0  0  0  # atno 17343 bound_to 10162
  155.9664  130.4342  150.5040 LP  0  0  0  0  0  0  0  0  0  0  0  0  # atno 17370 bound_to 10713
  157.2981  131.0639  151.2087 LP  0  0  0  0  0  0  0  0  0  0  0  0  # atno 17371 bound_to 10713
  140.3317  134.7923  157.4331 LP  0  0  0  0  0  0  0  0  0  0  0  0  # atno 17394 bound_to 11000
  140.1011  134.5471  155.8352 LP  0  0  0  0  0  0  0  0  0  0  0  0  # atno 17395 bound_to 11000

$$$$
