AV-unprocessed.smi:1484|AV-procd|sdf|6000|dock4
  -GOLD-   22720 6 93D 1   1.00000     0.00000
 Structure written by MMmdl.
 38 39  0  0  0  0  0  0  0  0  1 V2000
  154.3635  142.1703  160.5416 C   0  0  0  0  0  0  0  0  0  0  0  0
  153.0301  142.7456  160.0449 C   0  0  1  0  0  0  0  0  0  0  0  0
  152.5107  143.8550  160.9795 C   0  0  0  0  0  0  0  0  0  0  0  0
  151.1786  144.4395  160.4821 C   0  0  0  0  0  0  0  0  0  0  0  0
  151.2900  144.9443  159.0319 C   0  0  0  0  0  0  0  0  0  0  0  0
  151.8118  143.8536  158.0766 C   0  0  2  0  0  0  0  0  0  0  0  0
  150.8038  142.8081  157.9170 N   0  0  0  0  0  0  0  0  0  0  0  0
  150.8805  141.7656  157.0766 C   0  0  0  0  0  0  0  0  0  0  0  0
  151.7921  141.6101  156.2646 O   0  0  0  0  0  0  0  0  0  0  0  0
  149.7563  140.7319  157.1851 C   0  0  0  0  0  0  0  0  0  0  0  0
  148.8472  140.8268  156.0357 N   0  0  0  0  0  0  0  0  0  0  0  0
  147.5233  141.0467  156.3881 N   0  0  0  0  0  0  0  0  0  0  0  0
  146.6132  141.1040  155.4759 C   0  0  0  0  0  0  0  0  0  0  0  0
  145.3156  141.3159  155.8716 O   0  0  0  0  0  0  0  0  0  0  0  0
  146.9456  140.9497  154.0771 C   0  0  0  0  0  0  0  0  0  0  0  0
  148.2376  140.7402  153.7427 C   0  0  0  0  0  0  0  0  0  0  0  0
  149.2948  140.6631  154.7527 C   0  0  0  0  0  0  0  0  0  0  0  0
  150.4767  140.4630  154.4749 O   0  0  0  0  0  0  0  0  0  0  0  0
  153.1461  143.2731  158.5993 C   0  0  0  0  0  0  0  0  0  0  0  0
  144.8190  141.3933  155.0715 H   0  0  0  0  0  0  0  0  0  0  0  0
  155.1421  142.9335  160.5647 H   0  0  0  0  0  0  0  0  0  0  0  0
  154.7070  141.3629  159.8941 H   0  0  0  0  0  0  0  0  0  0  0  0
  154.2643  141.7642  161.5486 H   0  0  0  0  0  0  0  0  0  0  0  0
  152.3055  141.9299  160.0537 H   0  0  0  0  0  0  0  0  0  0  0  0
  152.3821  143.4628  161.9889 H   0  0  0  0  0  0  0  0  0  0  0  0
  153.2513  144.6527  161.0510 H   0  0  0  0  0  0  0  0  0  0  0  0
  150.3986  143.6804  160.5515 H   0  0  0  0  0  0  0  0  0  0  0  0
  150.8683  145.2564  161.1342 H   0  0  0  0  0  0  0  0  0  0  0  0
  150.3232  145.3160  158.6898 H   0  0  0  0  0  0  0  0  0  0  0  0
  151.9690  145.7974  159.0043 H   0  0  0  0  0  0  0  0  0  0  0  0
  151.9826  144.3090  157.0994 H   0  0  0  0  0  0  0  0  0  0  0  0
  150.0102  142.8494  158.5398 H   0  0  0  0  0  0  0  0  0  0  0  0
  150.1818  139.7283  157.2474 H   0  0  0  0  0  0  0  0  0  0  0  0
  149.2217  140.8786  158.1251 H   0  0  0  0  0  0  0  0  0  0  0  0
  146.1723  141.0028  153.3249 H   0  0  0  0  0  0  0  0  0  0  0  0
  148.4998  140.6238  152.7014 H   0  0  0  0  0  0  0  0  0  0  0  0
  153.9094  144.0515  158.5604 H   0  0  0  0  0  0  0  0  0  0  0  0
  153.4991  142.4799  157.9395 H   0  0  0  0  0  0  0  0  0  0  0  0
  1  2  1  0  0  0  0
  1 21  1  0  0  0  0
  1 22  1  0  0  0  0
  1 23  1  0  0  0  0
  2 19  1  0  0  0  0
  2  3  1  0  0  0  0
  2 24  1  0  0  0  0
  3  4  1  0  0  0  0
  3 25  1  0  0  0  0
  3 26  1  0  0  0  0
  4  5  1  0  0  0  0
  4 27  1  0  0  0  0
  4 28  1  0  0  0  0
  5  6  1  0  0  0  0
  5 29  1  0  0  0  0
  5 30  1  0  0  0  0
  6  7  1  0  0  0  0
  6 19  1  0  0  0  0
  6 31  1  0  0  0  0
  7  8  1  0  0  0  0
  7 32  1  0  0  0  0
  8  9  2  0  0  0  0
  8 10  1  0  0  0  0
 10 33  1  0  0  0  0
 10 34  1  0  0  0  0
 10 11  1  0  0  0  0
 11 12  1  0  0  0  0
 11 17  1  0  0  0  0
 12 13  2  0  0  0  0
 13 14  1  0  0  0  0
 13 15  1  0  0  0  0
 14 20  1  0  0  0  0
 15 35  1  0  0  0  0
 15 16  2  0  0  0  0
 16 36  1  0  0  0  0
 16 17  1  0  0  0  0
 17 18  2  0  0  0  0
 19 37  1  0  0  0  0
 19 38  1  0  0  0  0
M  END
> <s_m_source_file>
AV-unprocessed.smi

> <i_m_source_file_index>
1484

> <i_lp_mmshare_version>
43012

> <i_f3d_flags>
0

> <s_epik_input>
W0NIM11bQ0BASF0xW0NIMl1bQ0gyXVtDSDJdW0NASF0oW0NIMl0xKVtOSF1DKD1PKVtDSDJdbjJbbkhdYyg9TylbY0hdW2NIXWMyPU8=

> <s_epik_cmdline>
J2VwaWtfcHl0aG9uJywgJy1waCcsICc3LjAnLCAnLXRuJywgJzgnLCAnLW1hJywgJzIwMCcsICctbWV0YWxfYmluZGluZycsICctaW1hZScsICc8aW5maWxlLm1hZT4nLCAnLW9tYWUnLCAnPG91dGZpbGUubWFlPic=

> <r_lp_tautomer_probability>
0.9996

> <r_epik_Ionization_Penalty>
2.10343

> <r_epik_Ionization_Penalty_Charging>
3.97871e-08

> <r_epik_Ionization_Penalty_Neutral>
2.10343

> <r_epik_State_Penalty>
1.67966

> <r_epik_Charging_Adjusted_Penalty>
1.67966

> <i_epik_Tot_Q>
0

> <i_epik_Tot_abs_Q>
0

> <r_epik_Metal_State_Penalty>
1.67966

> <b_epik_Metal_Only>
0

> <s_lp_Force_Field>
OPLS_2005

> <r_lp_Energy>
21.1153

> <b_lp_Chiralities_Consistent>
1

> <s_lp_Variant>
AV-unprocessed.smi:1484-8

> <Gold.Version>
5.8.1

> <Gold.Id.Protein>
6NUR|6NUR_protein|mol2

> <Gold.PLP.Fitness>
46.4079

> <Gold.PLP.PLP>
-44.2899

> <Gold.PLP.part.hbond>
-1.5196

> <Gold.PLP.part.metal>
0.0000

> <Gold.PLP.part.buried>
-4.0003

> <Gold.PLP.part.nonpolar>
-38.3374

> <Gold.PLP.part.repulsive>
0.8120

> <Gold.PLP.ligand.clash>
0.0080

> <Gold.PLP.ligand.torsion>
0.1793

> <Gold.PLP.Chemscore.Hbond>
0.8247

> <Gold.PLP.Chemscore.CHOScore>
0.0000

> <Gold.PLP.Chemscore.Metal>
0.0000

> <Gold.Chemscore.Hbonds>
donor molecule, donor type, donor heavy atom, donor atom, acceptor molecule, acceptor atom, score
      P1  H  7989  7998       L1    18  1.00

> <Gold.PLP.Chemscore.Internal.Correction>
0.0103

> <Gold.Rescore>
     Score         DG    S(hbond)    S(metal)    S(lipo)     H(rot)  DE(clash)    DE(int)     intcor
     12.03     -13.85       0.86        0.00      96.11       2.24       0.22       1.60       ----

> <Gold.Chemscore.Fitness>
12.0334

> <Gold.Chemscore.DG>
-13.8532

> <Gold.Chemscore.ZeroCoef>
-5.4800

> <Gold.Chemscore.Hbond>
0.8587

> <Gold.Chemscore.Metal>
0.0000

> <Gold.Chemscore.Lipo>
96.1114

> <Gold.Chemscore.Internal_Hbond>
0.0000

> <Gold.Chemscore.DEClash>
0.2187

> <Gold.Chemscore.DEInternal>
1.6011

> <Gold.Chemscore.Rot>
2.2421

> <Gold.Chemscore.Internal.Correction>
   9.000000E+99

> <Gold.Chemscore.Hbonds>
donor molecule, donor type, donor heavy atom, donor atom, acceptor molecule, acceptor atom, score
      P1  H  7989  7998       L1    18  0.92

> <Gold.Chemscore.Hbond.Weighted>
-2.8680

> <Gold.Chemscore.Metal.Weighted>
-0.0000

> <Gold.Chemscore.Lipo.Weighted>
-11.2450

> <Gold.Chemscore.Internal_Hbond.Weighted>
0.0000

> <Gold.Chemscore.DEClash.Weighted>
0.2187

> <Gold.Chemscore.DEInternal.Weighted>
1.6011

> <Gold.Chemscore.Rot.Weighted>
5.7398

> <Gold.Chemscore.Internal.Correction.Weighted>
   9.000000E+99

> <Gold.Protein.RotatedTorsions>
[ 6907 6896 6895 6894 ] final -130.97 input  -60.11 | X-H torsion
[ 7974 7965 7964 7962 ] final   41.27 input  175.53 | X-H torsion
[ 8008 7997 7996 7995 ] final  -48.67 input   59.86 | X-H torsion
[ 10167 10162 10161 10158 ] final   90.06 input  -65.29 | X-H torsion
[ 10718 10713 10712 10709 ] final -148.28 input   66.30 | X-H torsion
[ 10763 10752 10751 10750 ] final  168.76 input  -60.55 | X-H torsion
[ 11005 11000 10999 10996 ] final   10.82 input  -57.11 | X-H torsion

> <Gold.Protein.ActiveResidues>
 VAL166  LYS551  ARG553  GLY616  TRP617  ASP618  TYR619  PRO620  LYS621  CYS622 
 ASP623  PHE694  ASN695  SER759  ASP760  ASP761  ALA762  ILE779  LEU786  VAL792 
 PHE793  MET794  SER795  GLU796  ALA797  LYS798  CYS799  TRP800  GLU811  SER814 

> <Gold.Protein.RotatedAtoms>
  150.9457  133.6606  159.2781 H   0  0  0  0  0  0  0  0  0  0  0  0  # atno 6907 bound_to 6896
  151.3980  135.0965  159.9556 H   0  0  0  0  0  0  0  0  0  0  0  0  # atno 6908 bound_to 6896
  152.5088  133.8957  159.7471 H   0  0  0  0  0  0  0  0  0  0  0  0  # atno 6909 bound_to 6896
  146.0837  139.5436  142.9520 H   0  0  0  0  0  0  0  0  0  0  0  0  # atno 7974 bound_to 7965
  154.4032  140.1316  156.4377 H   0  0  0  0  0  0  0  0  0  0  0  0  # atno 8008 bound_to 7997
  155.7489  140.3488  155.5121 H   0  0  0  0  0  0  0  0  0  0  0  0  # atno 8009 bound_to 7997
  155.8968  140.1012  157.1369 H   0  0  0  0  0  0  0  0  0  0  0  0  # atno 8010 bound_to 7997
  139.8510  144.6593  150.9169 H   0  0  0  0  0  0  0  0  0  0  0  0  # atno 10167 bound_to 10162
  156.4183  130.8016  151.2237 H   0  0  0  0  0  0  0  0  0  0  0  0  # atno 10718 bound_to 10713
  154.3732  135.2753  155.2254 H   0  0  0  0  0  0  0  0  0  0  0  0  # atno 10763 bound_to 10752
  154.4392  135.5958  153.6122 H   0  0  0  0  0  0  0  0  0  0  0  0  # atno 10764 bound_to 10752
  152.9837  135.6014  154.3966 H   0  0  0  0  0  0  0  0  0  0  0  0  # atno 10765 bound_to 10752
  140.5102  134.0659  155.7816 H   0  0  0  0  0  0  0  0  0  0  0  0  # atno 11005 bound_to 11000
  145.6169  141.0329  143.1936 LP  0  0  0  0  0  0  0  0  0  0  0  0  # atno 17320 bound_to 7965
  144.7311  139.7723  143.7347 LP  0  0  0  0  0  0  0  0  0  0  0  0  # atno 17321 bound_to 7965
  140.7787  143.3827  151.1448 LP  0  0  0  0  0  0  0  0  0  0  0  0  # atno 17342 bound_to 10162
  139.7465  143.8844  152.3065 LP  0  0  0  0  0  0  0  0  0  0  0  0  # atno 17343 bound_to 10162
  157.7508  131.0236  150.3841 LP  0  0  0  0  0  0  0  0  0  0  0  0  # atno 17370 bound_to 10713
  156.4153  130.3942  149.6862 LP  0  0  0  0  0  0  0  0  0  0  0  0  # atno 17371 bound_to 10713
  141.1389  133.9172  157.2370 LP  0  0  0  0  0  0  0  0  0  0  0  0  # atno 17394 bound_to 11000
  139.9663  135.0141  156.9395 LP  0  0  0  0  0  0  0  0  0  0  0  0  # atno 17395 bound_to 11000

$$$$
