AV-unprocessed.smi:1118|AV-procd|sdf|4814|dock7
  -GOLD-   22720 3363D 1   1.00000     0.00000
 Structure written by MMmdl.
 45 46  0  0  0  0  0  0  0  0  2 V2000
  145.6153  136.6731  151.7767 C   0  0  0  0  0  0  0  0  0  0  0  0
  145.8191  135.5491  150.9385 O   0  0  0  0  0  0  0  0  0  0  0  0
  145.1422  134.3931  151.4040 C   0  0  0  0  0  0  0  0  0  0  0  0
  146.1829  133.3391  151.8121 C   0  0  0  0  0  0  0  0  0  0  0  0
  147.2589  133.9046  152.6652 N   0  3  2  0  0  0  0  0  0  0  0  0
  148.3291  132.9154  152.9495 C   0  0  0  0  0  0  0  0  0  0  0  0
  149.4989  133.5652  153.7067 C   0  0  0  0  0  0  0  0  0  0  0  0
  149.0295  134.2221  155.0164 C   0  0  1  0  0  0  0  0  0  0  0  0
  150.2117  134.8771  155.7610 C   0  0  0  0  0  0  0  0  0  0  0  0
  150.6265  136.1247  155.1284 N   0  0  0  0  0  0  0  0  0  0  0  0
  151.1118  137.2007  155.7675 C   0  0  0  0  0  0  0  0  0  0  0  0
  151.2011  137.2850  156.9922 O   0  0  0  0  0  0  0  0  0  0  0  0
  151.6103  138.3433  154.8839 C   0  0  0  0  0  0  0  0  0  0  0  0
  151.2581  139.6260  155.4660 N   0  0  0  0  0  0  0  0  0  0  0  0
  151.6023  140.1273  156.7042 C   0  0  0  0  0  0  0  0  0  0  0  0
  151.0606  141.3768  156.8015 C   0  0  0  0  0  0  0  0  0  0  0  0
  150.3945  141.5549  155.5567 C   0  0  0  0  0  0  0  0  0  0  0  0
  150.5161  140.5067  154.7584 N   0  0  0  0  0  0  0  0  0  0  0  0
  147.8878  135.2095  154.6975 C   0  0  0  0  0  0  0  0  0  0  0  0
  146.7526  134.5285  153.9159 C   0  0  0  0  0  0  0  0  0  0  0  0
  146.1563  137.5310  151.3773 H   0  0  0  0  0  0  0  0  0  0  0  0
  145.9827  136.4841  152.7864 H   0  0  0  0  0  0  0  0  0  0  0  0
  144.5586  136.9378  151.8322 H   0  0  0  0  0  0  0  0  0  0  0  0
  144.4762  134.6423  152.2304 H   0  0  0  0  0  0  0  0  0  0  0  0
  144.5189  133.9922  150.6032 H   0  0  0  0  0  0  0  0  0  0  0  0
  145.7022  132.5090  152.3316 H   0  0  0  0  0  0  0  0  0  0  0  0
  146.6131  132.9212  150.9007 H   0  0  0  0  0  0  0  0  0  0  0  0
  147.9177  132.0865  153.5279 H   0  0  0  0  0  0  0  0  0  0  0  0
  148.7015  132.4960  152.0142 H   0  0  0  0  0  0  0  0  0  0  0  0
  150.2584  132.8115  153.9187 H   0  0  0  0  0  0  0  0  0  0  0  0
  149.9751  134.3112  153.0685 H   0  0  0  0  0  0  0  0  0  0  0  0
  148.6259  133.4371  155.6582 H   0  0  0  0  0  0  0  0  0  0  0  0
  149.9162  135.1123  156.7838 H   0  0  0  0  0  0  0  0  0  0  0  0
  151.0464  134.1785  155.8412 H   0  0  0  0  0  0  0  0  0  0  0  0
  150.5955  136.1537  154.1192 H   0  0  0  0  0  0  0  0  0  0  0  0
  152.6925  138.2847  154.7558 H   0  0  0  0  0  0  0  0  0  0  0  0
  151.1631  138.2701  153.8915 H   0  0  0  0  0  0  0  0  0  0  0  0
  152.1997  139.5598  157.4028 H   0  0  0  0  0  0  0  0  0  0  0  0
  151.1298  142.0601  157.6350 H   0  0  0  0  0  0  0  0  0  0  0  0
  149.8314  142.4092  155.2112 H   0  0  0  0  0  0  0  0  0  0  0  0
  147.4763  135.6278  155.6164 H   0  0  0  0  0  0  0  0  0  0  0  0
  148.2761  136.0512  154.1221 H   0  0  0  0  0  0  0  0  0  0  0  0
  145.9893  135.2718  153.6889 H   0  0  0  0  0  0  0  0  0  0  0  0
  146.2765  133.7679  154.5367 H   0  0  0  0  0  0  0  0  0  0  0  0
  147.6930  134.6382  152.1225 H   0  0  0  0  0  0  0  0  0  0  0  0
  1  2  1  0  0  0  0
  1 21  1  0  0  0  0
  1 22  1  0  0  0  0
  1 23  1  0  0  0  0
  2  3  1  0  0  0  0
  3  4  1  0  0  0  0
  3 24  1  0  0  0  0
  3 25  1  0  0  0  0
  4  5  1  0  0  0  0
  4 26  1  0  0  0  0
  4 27  1  0  0  0  0
  5 20  1  0  0  0  0
  5  6  1  0  0  0  0
  5 45  1  0  0  0  0
  6  7  1  0  0  0  0
  6 28  1  0  0  0  0
  6 29  1  0  0  0  0
  7  8  1  0  0  0  0
  7 30  1  0  0  0  0
  7 31  1  0  0  0  0
  8  9  1  0  0  0  0
  8 19  1  0  0  0  0
  8 32  1  0  0  0  0
  9 10  1  0  0  0  0
  9 33  1  0  0  0  0
  9 34  1  0  0  0  0
 10 11  1  0  0  0  0
 10 35  1  0  0  0  0
 11 12  2  0  0  0  0
 11 13  1  0  0  0  0
 13 14  1  0  0  0  0
 13 36  1  0  0  0  0
 13 37  1  0  0  0  0
 14 18  1  0  0  0  0
 14 15  1  0  0  0  0
 15 16  2  0  0  0  0
 15 38  1  0  0  0  0
 16 17  1  0  0  0  0
 16 39  1  0  0  0  0
 17 18  2  0  0  0  0
 17 40  1  0  0  0  0
 19 20  1  0  0  0  0
 19 41  1  0  0  0  0
 19 42  1  0  0  0  0
 20 43  1  0  0  0  0
 20 44  1  0  0  0  0
M  CHG  1   5   1
M  END
> <s_m_source_file>
AV-unprocessed.smi

> <i_m_source_file_index>
1118

> <i_lp_mmshare_version>
43012

> <i_f3d_flags>
0

> <s_epik_input>
W0NIM11PW0NIMl1bQ0gyXU4xW0NIMl1bQ0gyXVtDSF0oW0NIMl1bQ0gyXTEpW0NIMl1bTkhdQyg9TylbQ0gyXW4yW2NIXVtjSF1bY0hdbjI=

> <s_epik_cmdline>
J2VwaWtfcHl0aG9uJywgJy1waCcsICc3LjAnLCAnLXRuJywgJzgnLCAnLW1hJywgJzIwMCcsICctbWV0YWxfYmluZGluZycsICctaW1hZScsICc8aW5maWxlLm1hZT4nLCAnLW9tYWUnLCAnPG91dGZpbGUubWFlPic=

> <r_lp_tautomer_probability>
1

> <r_epik_Ionization_Penalty>
0.00991549

> <r_epik_Ionization_Penalty_Charging>
0.00990284

> <r_epik_Ionization_Penalty_Neutral>
1.26554e-05

> <r_epik_State_Penalty>
0.00754525

> <r_epik_Charging_Adjusted_Penalty>
0.0174481

> <i_epik_Tot_Q>
1

> <i_epik_Tot_abs_Q>
1

> <r_epik_Metal_State_Penalty>
0.00754527

> <b_epik_Metal_Only>
0

> <s_lp_Force_Field>
OPLS_2005

> <r_lp_Energy>
19.0863

> <b_lp_Chiralities_Consistent>
1

> <s_lp_Variant>
AV-unprocessed.smi:1118-1

> <Gold.Version>
5.8.1

> <Gold.Id.Protein>
6NUR|6NUR_protein|mol2

> <Gold.PLP.Fitness>
43.6133

> <Gold.PLP.PLP>
-33.4500

> <Gold.PLP.part.hbond>
-2.0000

> <Gold.PLP.part.metal>
0.0000

> <Gold.PLP.part.buried>
-3.5108

> <Gold.PLP.part.nonpolar>
-27.0250

> <Gold.PLP.part.repulsive>
0.4159

> <Gold.PLP.ligand.clash>
0.0000

> <Gold.PLP.ligand.torsion>
0.9782

> <Gold.PLP.Chemscore.Hbond>
3.0000

> <Gold.PLP.Chemscore.CHOScore>
1.0000

> <Gold.PLP.Chemscore.Metal>
0.0000

> <Gold.Chemscore.Hbonds>
donor molecule, donor type, donor heavy atom, donor atom, acceptor molecule, acceptor atom, score
      L1  H     5    45       P1  7948  2.00
      P1  H  7989  7998       L1    18  1.00
      L1  C    17    40       P1  8028  1.00

> <Gold.PLP.Chemscore.Internal.Correction>
0.1196

> <Gold.Rescore>
     Score         DG    S(hbond)    S(metal)    S(lipo)     H(rot)  DE(clash)    DE(int)     intcor
     10.98     -13.27       1.76        0.00      64.74       2.22       0.02       2.26       ----

> <Gold.Chemscore.Fitness>
10.9813

> <Gold.Chemscore.DG>
-13.2665

> <Gold.Chemscore.ZeroCoef>
-5.4800

> <Gold.Chemscore.Hbond>
1.7624

> <Gold.Chemscore.Metal>
0.0000

> <Gold.Chemscore.Lipo>
64.7402

> <Gold.Chemscore.Internal_Hbond>
0.0000

> <Gold.Chemscore.DEClash>
0.0241

> <Gold.Chemscore.DEInternal>
2.2610

> <Gold.Chemscore.Rot>
2.2166

> <Gold.Chemscore.Internal.Correction>
   9.000000E+99

> <Gold.Chemscore.Hbonds>
donor molecule, donor type, donor heavy atom, donor atom, acceptor molecule, acceptor atom, score
      L1  H     5    45       P1  7948  0.57
      P1  H  7989  7998       L1    18  0.17

> <Gold.Chemscore.Hbond.Weighted>
-5.8864

> <Gold.Chemscore.Metal.Weighted>
-0.0000

> <Gold.Chemscore.Lipo.Weighted>
-7.5746

> <Gold.Chemscore.Internal_Hbond.Weighted>
0.0000

> <Gold.Chemscore.DEClash.Weighted>
0.0241

> <Gold.Chemscore.DEInternal.Weighted>
2.2610

> <Gold.Chemscore.Rot.Weighted>
5.6745

> <Gold.Chemscore.Internal.Correction.Weighted>
   9.000000E+99

> <Gold.Protein.RotatedTorsions>
[ 6907 6896 6895 6894 ] final  -74.89 input  -60.11 | X-H torsion
[ 7974 7965 7964 7962 ] final   20.91 input  175.53 | X-H torsion
[ 8008 7997 7996 7995 ] final  160.45 input   59.86 | X-H torsion
[ 10167 10162 10161 10158 ] final  164.31 input  -65.29 | X-H torsion
[ 10718 10713 10712 10709 ] final -126.51 input   66.30 | X-H torsion
[ 10763 10752 10751 10750 ] final -134.87 input  -60.55 | X-H torsion
[ 11005 11000 10999 10996 ] final   59.25 input  -57.11 | X-H torsion

> <Gold.Protein.ActiveResidues>
 VAL166  LYS551  ARG553  GLY616  TRP617  ASP618  TYR619  PRO620  LYS621  CYS622 
 ASP623  PHE694  ASN695  SER759  ASP760  ASP761  ALA762  ILE779  LEU786  VAL792 
 PHE793  MET794  SER795  GLU796  ALA797  LYS798  CYS799  TRP800  GLU811  SER814 

> <Gold.Protein.RotatedAtoms>
  150.7077  134.4803  159.5466 H   0  0  0  0  0  0  0  0  0  0  0  0  # atno 6907 bound_to 6896
  152.2441  134.8196  160.0465 H   0  0  0  0  0  0  0  0  0  0  0  0  # atno 6908 bound_to 6896
  151.8967  133.3493  159.3853 H   0  0  0  0  0  0  0  0  0  0  0  0  # atno 6909 bound_to 6896
  146.2093  139.8103  142.8701 H   0  0  0  0  0  0  0  0  0  0  0  0  # atno 7974 bound_to 7965
  156.2171  140.1804  156.7563 H   0  0  0  0  0  0  0  0  0  0  0  0  # atno 8008 bound_to 7997
  154.5809  140.0666  156.9131 H   0  0  0  0  0  0  0  0  0  0  0  0  # atno 8009 bound_to 7997
  155.2505  140.3328  155.4285 H   0  0  0  0  0  0  0  0  0  0  0  0  # atno 8010 bound_to 7997
  139.4887  144.4248  151.9142 H   0  0  0  0  0  0  0  0  0  0  0  0  # atno 10167 bound_to 10162
  156.1772  130.6707  151.0257 H   0  0  0  0  0  0  0  0  0  0  0  0  # atno 10718 bound_to 10713
  154.8712  135.3721  154.4806 H   0  0  0  0  0  0  0  0  0  0  0  0  # atno 10763 bound_to 10752
  153.5459  135.7025  153.5619 H   0  0  0  0  0  0  0  0  0  0  0  0  # atno 10764 bound_to 10752
  153.3759  135.4009  155.1787 H   0  0  0  0  0  0  0  0  0  0  0  0  # atno 10765 bound_to 10752
  140.0317  134.6002  155.9498 H   0  0  0  0  0  0  0  0  0  0  0  0  # atno 11005 bound_to 11000
  145.3203  141.0242  143.3504 LP  0  0  0  0  0  0  0  0  0  0  0  0  # atno 17320 bound_to 7965
  144.8871  139.4824  143.6695 LP  0  0  0  0  0  0  0  0  0  0  0  0  # atno 17321 bound_to 7965
  140.3694  144.2874  150.5922 LP  0  0  0  0  0  0  0  0  0  0  0  0  # atno 17342 bound_to 10162
  140.5332  143.2239  151.8204 LP  0  0  0  0  0  0  0  0  0  0  0  0  # atno 17343 bound_to 10162
  157.6843  131.0829  150.7284 LP  0  0  0  0  0  0  0  0  0  0  0  0  # atno 17370 bound_to 10713
  156.7342  130.4719  149.5492 LP  0  0  0  0  0  0  0  0  0  0  0  0  # atno 17371 bound_to 10713
  141.1835  133.6551  156.5118 LP  0  0  0  0  0  0  0  0  0  0  0  0  # atno 17394 bound_to 11000
  140.4214  134.7184  157.4892 LP  0  0  0  0  0  0  0  0  0  0  0  0  # atno 17395 bound_to 11000

$$$$
