AV-unprocessed.smi:1980|AV-procd|sdf|8017|dock3
  -GOLD-   2272010213D 1   1.00000     0.00000
 Structure written by MMmdl.
 44 45  0  0  0  0  0  0  0  0  1 V2000
  153.7375  141.6599  161.9913 C   0  0  0  0  0  0  0  0  0  0  0  0
  153.4016  141.7434  160.4945 C   0  0  2  0  0  0  0  0  0  0  0  0
  152.0987  142.3096  160.3763 O   0  0  0  0  0  0  0  0  0  0  0  0
  152.0147  143.7135  160.6019 C   0  0  0  0  0  0  0  0  0  0  0  0
  151.9138  144.4408  159.2559 C   0  0  0  0  0  0  0  0  0  0  0  0
  152.8284  143.9475  158.4221 F   0  0  0  0  0  0  0  0  0  0  0  0
  150.7063  144.2585  158.7226 F   0  0  0  0  0  0  0  0  0  0  0  0
  152.1409  145.7441  159.4179 F   0  0  0  0  0  0  0  0  0  0  0  0
  153.4494  140.3583  159.8288 C   0  0  0  0  0  0  0  0  0  0  0  0
  153.3974  140.2555  158.6030 O   0  0  0  0  0  0  0  0  0  0  0  0
  153.5602  139.3053  160.6539 N   0  0  0  0  0  0  0  0  0  0  0  0
  153.6200  137.9065  160.2447 C   0  0  0  0  0  0  0  0  0  0  0  0
  153.9466  136.9740  161.3974 C   0  0  0  0  0  0  0  0  0  0  0  0
  153.6661  137.3429  162.7272 C   0  0  0  0  0  0  0  0  0  0  0  0
  153.9832  136.4470  163.7658 C   0  0  0  0  0  0  0  0  0  0  0  0
  154.5793  135.2027  163.4485 C   0  0  0  0  0  0  0  0  0  0  0  0
  154.9094  134.2890  164.4741 N   0  0  0  0  0  0  0  0  0  0  0  0
  155.9501  134.6732  165.4264 C   0  0  0  0  0  0  0  0  0  0  0  0
  156.3759  133.4626  166.2743 C   0  0  0  0  0  0  0  0  0  0  0  0
  155.2344  132.8938  166.9069 O   0  0  0  0  0  0  0  0  0  0  0  0
  154.2840  132.4235  165.9573 C   0  0  0  0  0  0  0  0  0  0  0  0
  153.7835  133.5963  165.0965 C   0  0  0  0  0  0  0  0  0  0  0  0
  154.8417  134.8508  162.1649 N   0  0  0  0  0  0  0  0  0  0  0  0
  154.5357  135.7132  161.1728 C   0  0  0  0  0  0  0  0  0  0  0  0
  154.7189  141.2124  162.1539 H   0  0  0  0  0  0  0  0  0  0  0  0
  153.0029  141.0646  162.5352 H   0  0  0  0  0  0  0  0  0  0  0  0
  153.7507  142.6533  162.4400 H   0  0  0  0  0  0  0  0  0  0  0  0
  154.1291  142.4051  160.0200 H   0  0  0  0  0  0  0  0  0  0  0  0
  151.1379  143.9416  161.2096 H   0  0  0  0  0  0  0  0  0  0  0  0
  152.8896  144.0747  161.1434 H   0  0  0  0  0  0  0  0  0  0  0  0
  153.6006  139.4880  161.6462 H   0  0  0  0  0  0  0  0  0  0  0  0
  152.6837  137.5878  159.7835 H   0  0  0  0  0  0  0  0  0  0  0  0
  154.3833  137.8147  159.4716 H   0  0  0  0  0  0  0  0  0  0  0  0
  153.2095  138.2955  162.9524 H   0  0  0  0  0  0  0  0  0  0  0  0
  153.7528  136.7183  164.7851 H   0  0  0  0  0  0  0  0  0  0  0  0
  156.8201  135.0667  164.8991 H   0  0  0  0  0  0  0  0  0  0  0  0
  155.5726  135.4671  166.0725 H   0  0  0  0  0  0  0  0  0  0  0  0
  156.8757  132.7126  165.6589 H   0  0  0  0  0  0  0  0  0  0  0  0
  157.0878  133.7725  167.0391 H   0  0  0  0  0  0  0  0  0  0  0  0
  154.7298  131.6460  165.3344 H   0  0  0  0  0  0  0  0  0  0  0  0
  153.4495  131.9654  166.4881 H   0  0  0  0  0  0  0  0  0  0  0  0
  153.2348  134.3061  165.7169 H   0  0  0  0  0  0  0  0  0  0  0  0
  153.0816  133.2145  164.3569 H   0  0  0  0  0  0  0  0  0  0  0  0
  154.7695  135.3849  160.1709 H   0  0  0  0  0  0  0  0  0  0  0  0
  1  2  1  0  0  0  0
  1 25  1  0  0  0  0
  1 26  1  0  0  0  0
  1 27  1  0  0  0  0
  2  3  1  0  0  0  0
  2  9  1  0  0  0  0
  2 28  1  0  0  0  0
  3  4  1  0  0  0  0
  4  5  1  0  0  0  0
  4 29  1  0  0  0  0
  4 30  1  0  0  0  0
  5  6  1  0  0  0  0
  5  7  1  0  0  0  0
  5  8  1  0  0  0  0
  9 10  2  0  0  0  0
  9 11  1  0  0  0  0
 11 12  1  0  0  0  0
 11 31  1  0  0  0  0
 12 13  1  0  0  0  0
 12 32  1  0  0  0  0
 12 33  1  0  0  0  0
 13 24  1  0  0  0  0
 13 14  2  0  0  0  0
 14 15  1  0  0  0  0
 14 34  1  0  0  0  0
 15 16  2  0  0  0  0
 15 35  1  0  0  0  0
 16 17  1  0  0  0  0
 16 23  1  0  0  0  0
 17 22  1  0  0  0  0
 17 18  1  0  0  0  0
 18 19  1  0  0  0  0
 18 36  1  0  0  0  0
 18 37  1  0  0  0  0
 19 20  1  0  0  0  0
 19 38  1  0  0  0  0
 19 39  1  0  0  0  0
 20 21  1  0  0  0  0
 21 22  1  0  0  0  0
 21 40  1  0  0  0  0
 21 41  1  0  0  0  0
 22 42  1  0  0  0  0
 22 43  1  0  0  0  0
 23 24  2  0  0  0  0
 24 44  1  0  0  0  0
M  END
> <s_m_source_file>
AV-unprocessed.smi

> <i_m_source_file_index>
1980

> <i_lp_mmshare_version>
43012

> <i_f3d_flags>
0

> <s_epik_input>
RkMoRikoRilbQ0gyXU9bQ0BASF0oW0NIM10pQyg9TylbTkhdW0NIMl1jMVtjSF1bY0hdYyhuW2NIXTEpTjJbQ0gyXVtDSDJdT1tDSDJdW0NIMl0y

> <s_epik_cmdline>
J2VwaWtfcHl0aG9uJywgJy1waCcsICc3LjAnLCAnLXRuJywgJzgnLCAnLW1hJywgJzIwMCcsICctbWV0YWxfYmluZGluZycsICctaW1hZScsICc8aW5maWxlLm1hZT4nLCAnLW9tYWUnLCAnPG91dGZpbGUubWFlPic=

> <r_lp_tautomer_probability>
1

> <r_epik_Ionization_Penalty>
0.00436425

> <r_epik_Ionization_Penalty_Charging>
0

> <r_epik_Ionization_Penalty_Neutral>
0.00436425

> <r_epik_State_Penalty>
0.00314317

> <r_epik_Charging_Adjusted_Penalty>
0.00314317

> <i_epik_Tot_Q>
0

> <i_epik_Tot_abs_Q>
0

> <r_epik_Metal_State_Penalty>
-0

> <b_epik_Metal_Only>
0

> <s_lp_Force_Field>
OPLS_2005

> <r_lp_Energy>
19.3234

> <b_lp_Chiralities_Consistent>
1

> <s_lp_Variant>
AV-unprocessed.smi:1980-1

> <Gold.Version>
5.8.1

> <Gold.Id.Protein>
6NUR|6NUR_protein|mol2

> <Gold.PLP.Fitness>
48.9146

> <Gold.PLP.PLP>
-49.6842

> <Gold.PLP.part.hbond>
-1.4283

> <Gold.PLP.part.metal>
0.0000

> <Gold.PLP.part.buried>
-4.9201

> <Gold.PLP.part.nonpolar>
-43.4046

> <Gold.PLP.part.repulsive>
0.2074

> <Gold.PLP.ligand.clash>
1.3122

> <Gold.PLP.ligand.torsion>
1.3253

> <Gold.PLP.Chemscore.Hbond>
0.9120

> <Gold.PLP.Chemscore.CHOScore>
0.0000

> <Gold.PLP.Chemscore.Metal>
0.0000

> <Gold.Chemscore.Hbonds>
donor molecule, donor type, donor heavy atom, donor atom, acceptor molecule, acceptor atom, score
      P1  H  7997  8009       L1    10  0.90

> <Gold.PLP.Chemscore.Internal.Correction>
0.4571

> <Gold.Rescore>
     Score         DG    S(hbond)    S(metal)    S(lipo)     H(rot)  DE(clash)    DE(int)     intcor
     13.00     -14.51       0.92        0.00     105.54       2.49       0.11       1.41       ----

> <Gold.Chemscore.Fitness>
13.0034

> <Gold.Chemscore.DG>
-14.5148

> <Gold.Chemscore.ZeroCoef>
-5.4800

> <Gold.Chemscore.Hbond>
0.9163

> <Gold.Chemscore.Metal>
0.0000

> <Gold.Chemscore.Lipo>
105.5427

> <Gold.Chemscore.Internal_Hbond>
0.0000

> <Gold.Chemscore.DEClash>
0.1050

> <Gold.Chemscore.DEInternal>
1.4063

> <Gold.Chemscore.Rot>
2.4899

> <Gold.Chemscore.Internal.Correction>
   9.000000E+99

> <Gold.Chemscore.Hbonds>
donor molecule, donor type, donor heavy atom, donor atom, acceptor molecule, acceptor atom, score
      P1  H  7997  8009       L1    10  0.86

> <Gold.Chemscore.Hbond.Weighted>
-3.0604

> <Gold.Chemscore.Metal.Weighted>
-0.0000

> <Gold.Chemscore.Lipo.Weighted>
-12.3485

> <Gold.Chemscore.Internal_Hbond.Weighted>
0.0000

> <Gold.Chemscore.DEClash.Weighted>
0.1050

> <Gold.Chemscore.DEInternal.Weighted>
1.4063

> <Gold.Chemscore.Rot.Weighted>
6.3741

> <Gold.Chemscore.Internal.Correction.Weighted>
   9.000000E+99

> <Gold.Protein.RotatedTorsions>
[ 6907 6896 6895 6894 ] final   33.91 input  -60.11 | X-H torsion
[ 7974 7965 7964 7962 ] final  -93.87 input  175.53 | X-H torsion
[ 8008 7997 7996 7995 ] final  154.69 input   59.86 | X-H torsion
[ 10167 10162 10161 10158 ] final   48.26 input  -65.29 | X-H torsion
[ 10718 10713 10712 10709 ] final   12.24 input   66.30 | X-H torsion
[ 10763 10752 10751 10750 ] final  -64.52 input  -60.55 | X-H torsion
[ 11005 11000 10999 10996 ] final  122.18 input  -57.11 | X-H torsion

> <Gold.Protein.ActiveResidues>
 VAL166  LYS551  ARG553  GLY616  TRP617  ASP618  TYR619  PRO620  LYS621  CYS622 
 ASP623  PHE694  ASN695  SER759  ASP760  ASP761  ALA762  ILE779  LEU786  VAL792 
 PHE793  MET794  SER795  GLU796  ALA797  LYS798  CYS799  TRP800  GLU811  SER814 

> <Gold.Protein.RotatedAtoms>
  152.0951  134.9380  160.0570 H   0  0  0  0  0  0  0  0  0  0  0  0  # atno 6907 bound_to 6896
  152.0616  133.4060  159.4428 H   0  0  0  0  0  0  0  0  0  0  0  0  # atno 6908 bound_to 6896
  150.6838  134.3114  159.4791 H   0  0  0  0  0  0  0  0  0  0  0  0  # atno 6909 bound_to 6896
  145.3807  140.9517  143.2395 H   0  0  0  0  0  0  0  0  0  0  0  0  # atno 7974 bound_to 7965
  156.2518  140.1960  156.6685 H   0  0  0  0  0  0  0  0  0  0  0  0  # atno 8008 bound_to 7997
  154.6411  140.0583  156.9872 H   0  0  0  0  0  0  0  0  0  0  0  0  # atno 8009 bound_to 7997
  155.1562  140.3256  155.4423 H   0  0  0  0  0  0  0  0  0  0  0  0  # atno 8010 bound_to 7997
  140.2952  144.3000  150.6231 H   0  0  0  0  0  0  0  0  0  0  0  0  # atno 10167 bound_to 10162
  157.0072  130.6103  149.5703 H   0  0  0  0  0  0  0  0  0  0  0  0  # atno 10718 bound_to 10713
  154.3313  135.6176  153.5553 H   0  0  0  0  0  0  0  0  0  0  0  0  # atno 10763 bound_to 10752
  152.9811  135.5747  154.4958 H   0  0  0  0  0  0  0  0  0  0  0  0  # atno 10764 bound_to 10752
  154.4645  135.2857  155.1665 H   0  0  0  0  0  0  0  0  0  0  0  0  # atno 10765 bound_to 10752
  139.9257  134.9640  156.8070 H   0  0  0  0  0  0  0  0  0  0  0  0  # atno 11005 bound_to 11000
  144.8509  139.5323  143.6857 LP  0  0  0  0  0  0  0  0  0  0  0  0  # atno 17320 bound_to 7965
  146.2843  139.6961  142.9207 LP  0  0  0  0  0  0  0  0  0  0  0  0  # atno 17321 bound_to 7965
  140.5699  143.2182  151.7618 LP  0  0  0  0  0  0  0  0  0  0  0  0  # atno 17342 bound_to 10162
  139.4928  144.4232  151.9955 LP  0  0  0  0  0  0  0  0  0  0  0  0  # atno 17343 bound_to 10162
  156.0149  130.5243  150.8104 LP  0  0  0  0  0  0  0  0  0  0  0  0  # atno 17370 bound_to 10713
  157.5347  131.0938  150.9909 LP  0  0  0  0  0  0  0  0  0  0  0  0  # atno 17371 bound_to 10713
  140.6343  133.9877  155.7677 LP  0  0  0  0  0  0  0  0  0  0  0  0  # atno 17394 bound_to 11000
  141.0813  134.0058  157.3382 LP  0  0  0  0  0  0  0  0  0  0  0  0  # atno 17395 bound_to 11000

$$$$
