AV-unprocessed.smi:1976|AV-procd|sdf|7986|dock3
  -GOLD-   2272010163D 1   1.00000     0.00000
 Structure written by MMmdl.
 45 47  0  0  0  0  0  0  0  0  2 V2000
  149.4360  134.5961  157.8851 O   0  0  0  0  0  0  0  0  0  0  0  0
  148.6735  135.5594  157.9743 C   0  0  0  0  0  0  0  0  0  0  0  0
  148.4245  136.2535  159.3214 C   0  0  0  0  0  0  0  0  0  0  0  0
  147.8963  135.3504  160.3577 N   0  0  0  0  0  0  0  0  0  0  0  0
  147.7982  133.9845  160.0269 C   0  0  0  0  0  0  0  0  0  0  0  0
  147.3353  133.0542  160.8837 C   0  0  0  0  0  0  0  0  0  0  0  0
  147.1823  131.5971  160.4760 C   0  0  0  0  0  0  0  0  0  0  0  0
  146.3895  131.5065  159.4092 F   0  0  0  0  0  0  0  0  0  0  0  0
  148.3618  131.0596  160.1642 F   0  0  0  0  0  0  0  0  0  0  0  0
  146.6401  130.8762  161.4584 F   0  0  0  0  0  0  0  0  0  0  0  0
  146.9008  133.5321  162.1817 C   0  0  0  0  0  0  0  0  0  0  0  0
  146.9758  134.8369  162.5095 C   0  0  0  0  0  0  0  0  0  0  0  0
  147.4996  135.8337  161.5731 C   0  0  0  0  0  0  0  0  0  0  0  0
  147.5739  137.0287  161.8606 O   0  0  0  0  0  0  0  0  0  0  0  0
  148.0303  136.0793  156.9182 N   0  0  0  0  0  0  0  0  0  0  0  0
  148.1239  135.5660  155.5543 C   0  0  1  0  0  0  0  0  0  0  0  0
  147.7366  134.0982  155.4308 C   0  0  0  0  0  0  0  0  0  0  0  0
  147.4654  133.9397  153.9311 C   0  0  0  0  0  0  0  0  0  0  0  0
  147.0521  135.2721  153.4253 N   0  3  1  0  0  0  0  0  0  0  0  0
  145.7334  135.2752  152.7369 C   0  0  0  0  0  0  0  0  0  0  0  0
  145.1908  136.7050  152.5942 C   0  0  0  0  0  0  0  0  0  0  0  0
  144.9637  137.3635  153.9685 C   0  0  0  0  0  0  0  0  0  0  0  0
  145.8270  136.7294  155.0762 C   0  0  0  0  0  0  0  0  0  0  0  0
  147.1988  136.2580  154.5340 C   0  0  1  0  0  0  0  0  0  0  0  0
  149.3618  136.7035  159.6520 H   0  0  0  0  0  0  0  0  0  0  0  0
  147.7441  137.0939  159.1704 H   0  0  0  0  0  0  0  0  0  0  0  0
  148.1143  133.7420  159.0226 H   0  0  0  0  0  0  0  0  0  0  0  0
  146.5103  132.8316  162.9052 H   0  0  0  0  0  0  0  0  0  0  0  0
  146.6422  135.1573  163.4856 H   0  0  0  0  0  0  0  0  0  0  0  0
  147.4257  136.8737  157.0718 H   0  0  0  0  0  0  0  0  0  0  0  0
  149.1571  135.6649  155.2139 H   0  0  0  0  0  0  0  0  0  0  0  0
  148.5114  133.4214  155.7925 H   0  0  0  0  0  0  0  0  0  0  0  0
  146.8244  133.8987  155.9950 H   0  0  0  0  0  0  0  0  0  0  0  0
  148.3830  133.6571  153.4139 H   0  0  0  0  0  0  0  0  0  0  0  0
  146.7298  133.1578  153.7370 H   0  0  0  0  0  0  0  0  0  0  0  0
  145.8425  134.8059  151.7585 H   0  0  0  0  0  0  0  0  0  0  0  0
  145.0143  134.6744  153.2967 H   0  0  0  0  0  0  0  0  0  0  0  0
  145.9038  137.2977  152.0192 H   0  0  0  0  0  0  0  0  0  0  0  0
  144.2626  136.7073  152.0219 H   0  0  0  0  0  0  0  0  0  0  0  0
  145.1810  138.4295  153.8901 H   0  0  0  0  0  0  0  0  0  0  0  0
  143.9133  137.2888  154.2525 H   0  0  0  0  0  0  0  0  0  0  0  0
  145.9469  137.4494  155.8857 H   0  0  0  0  0  0  0  0  0  0  0  0
  145.2965  135.8779  155.5052 H   0  0  0  0  0  0  0  0  0  0  0  0
  147.7115  137.1352  154.1364 H   0  0  0  0  0  0  0  0  0  0  0  0
  147.7387  135.5361  152.7329 H   0  0  0  0  0  0  0  0  0  0  0  0
  1  2  2  0  0  0  0
  2  3  1  0  0  0  0
  2 15  1  0  0  0  0
  3  4  1  0  0  0  0
  3 25  1  0  0  0  0
  3 26  1  0  0  0  0
  4 13  1  0  0  0  0
  4  5  1  0  0  0  0
  5  6  2  0  0  0  0
  5 27  1  0  0  0  0
  6  7  1  0  0  0  0
  6 11  1  0  0  0  0
  7  8  1  0  0  0  0
  7  9  1  0  0  0  0
  7 10  1  0  0  0  0
 11 12  2  0  0  0  0
 11 28  1  0  0  0  0
 12 13  1  0  0  0  0
 12 29  1  0  0  0  0
 13 14  2  0  0  0  0
 15 16  1  0  0  0  0
 15 30  1  0  0  0  0
 16 24  1  0  0  0  0
 16 17  1  0  0  0  0
 16 31  1  0  0  0  0
 17 18  1  0  0  0  0
 17 32  1  0  0  0  0
 17 33  1  0  0  0  0
 18 19  1  0  0  0  0
 18 34  1  0  0  0  0
 18 35  1  0  0  0  0
 19 24  1  0  0  0  0
 19 20  1  0  0  0  0
 19 45  1  0  0  0  0
 20 21  1  0  0  0  0
 20 36  1  0  0  0  0
 20 37  1  0  0  0  0
 21 22  1  0  0  0  0
 21 38  1  0  0  0  0
 21 39  1  0  0  0  0
 22 23  1  0  0  0  0
 22 40  1  0  0  0  0
 22 41  1  0  0  0  0
 23 24  1  0  0  0  0
 23 42  1  0  0  0  0
 23 43  1  0  0  0  0
 24 44  1  0  0  0  0
M  CHG  1  19   1
M  END
> <s_m_source_file>
AV-unprocessed.smi

> <i_m_source_file_index>
1976

> <i_lp_mmshare_version>
43012

> <i_f3d_flags>
0

> <s_epik_input>
W0NIMl0xW0NIMl1bQ0gyXVtDSDJdW0NASF0oTjEyKVtDQEBIXShbQ0gyXVtDSDJdMilbTkhdQyg9TylbQ0gyXW4zW2NIXWMoQyhGKShGKUYpW2NIXVtjSF1jMz1P

> <s_epik_cmdline>
J2VwaWtfcHl0aG9uJywgJy1waCcsICc3LjAnLCAnLXRuJywgJzgnLCAnLW1hJywgJzIwMCcsICctbWV0YWxfYmluZGluZycsICctaW1hZScsICc8aW5maWxlLm1hZT4nLCAnLW9tYWUnLCAnPG91dGZpbGUubWFlPic=

> <r_lp_tautomer_probability>
1

> <r_epik_Ionization_Penalty>
0.00171506

> <r_epik_Ionization_Penalty_Charging>
0.00171498

> <r_epik_Ionization_Penalty_Neutral>
7.81737e-08

> <r_epik_State_Penalty>
0.00115937

> <r_epik_Charging_Adjusted_Penalty>
0.00287436

> <i_epik_Tot_Q>
1

> <i_epik_Tot_abs_Q>
1

> <r_epik_Metal_State_Penalty>
-0

> <b_epik_Metal_Only>
0

> <s_lp_Force_Field>
OPLS_2005

> <r_lp_Energy>
52.608

> <b_lp_Chiralities_Consistent>
1

> <s_lp_Variant>
AV-unprocessed.smi:1976-4

> <Gold.Version>
5.8.1

> <Gold.Id.Protein>
6NUR|6NUR_protein|mol2

> <Gold.PLP.Fitness>
44.6590

> <Gold.PLP.PLP>
-31.6383

> <Gold.PLP.part.hbond>
-4.0000

> <Gold.PLP.part.metal>
0.0000

> <Gold.PLP.part.buried>
-2.9585

> <Gold.PLP.part.nonpolar>
-24.6020

> <Gold.PLP.part.repulsive>
0.0000

> <Gold.PLP.ligand.clash>
0.6820

> <Gold.PLP.ligand.torsion>
0.0731

> <Gold.PLP.Chemscore.Hbond>
4.6000

> <Gold.PLP.Chemscore.CHOScore>
0.0000

> <Gold.PLP.Chemscore.Metal>
0.0000

> <Gold.Chemscore.Hbonds>
donor molecule, donor type, donor heavy atom, donor atom, acceptor molecule, acceptor atom, score
      L1  H    19    45       P1  7948  2.00
      P1  H  6896  6909       L1     1  1.00
      P1  H  6931  6943       L1    14  1.00
      P1  H  6934  6947       L1    14  0.38

> <Gold.PLP.Chemscore.Internal.Correction>
0.0490

> <Gold.Rescore>
     Score         DG    S(hbond)    S(metal)    S(lipo)     H(rot)  DE(clash)    DE(int)     intcor
     18.48     -20.09       3.54        0.00      58.43       1.58       0.06       1.56       ----

> <Gold.Chemscore.Fitness>
18.4782

> <Gold.Chemscore.DG>
-20.0932

> <Gold.Chemscore.ZeroCoef>
-5.4800

> <Gold.Chemscore.Hbond>
3.5416

> <Gold.Chemscore.Metal>
0.0000

> <Gold.Chemscore.Lipo>
58.4335

> <Gold.Chemscore.Internal_Hbond>
0.0000

> <Gold.Chemscore.DEClash>
0.0598

> <Gold.Chemscore.DEInternal>
1.5552

> <Gold.Chemscore.Rot>
1.5830

> <Gold.Chemscore.Internal.Correction>
   9.000000E+99

> <Gold.Chemscore.Hbonds>
donor molecule, donor type, donor heavy atom, donor atom, acceptor molecule, acceptor atom, score
      L1  H    19    45       P1  7948  1.00
      P1  H  6896  6909       L1     1  0.88
      P1  H  6931  6943       L1    14  0.96
      P1  H  6934  6947       L1    14  0.38

> <Gold.Chemscore.Hbond.Weighted>
-11.8289

> <Gold.Chemscore.Metal.Weighted>
-0.0000

> <Gold.Chemscore.Lipo.Weighted>
-6.8367

> <Gold.Chemscore.Internal_Hbond.Weighted>
0.0000

> <Gold.Chemscore.DEClash.Weighted>
0.0598

> <Gold.Chemscore.DEInternal.Weighted>
1.5552

> <Gold.Chemscore.Rot.Weighted>
4.0524

> <Gold.Chemscore.Internal.Correction.Weighted>
   9.000000E+99

> <Gold.Protein.RotatedTorsions>
[ 6907 6896 6895 6894 ] final   35.23 input  -60.11 | X-H torsion
[ 7974 7965 7964 7962 ] final -160.80 input  175.53 | X-H torsion
[ 8008 7997 7996 7995 ] final -149.59 input   59.86 | X-H torsion
[ 10167 10162 10161 10158 ] final  120.33 input  -65.29 | X-H torsion
[ 10718 10713 10712 10709 ] final   -8.75 input   66.30 | X-H torsion
[ 10763 10752 10751 10750 ] final   75.03 input  -60.55 | X-H torsion
[ 11005 11000 10999 10996 ] final -127.22 input  -57.11 | X-H torsion

> <Gold.Protein.ActiveResidues>
 VAL166  LYS551  ARG553  GLY616  TRP617  ASP618  TYR619  PRO620  LYS621  CYS622 
 ASP623  PHE694  ASN695  SER759  ASP760  ASP761  ALA762  ILE779  LEU786  VAL792 
 PHE793  MET794  SER795  GLU796  ALA797  LYS798  CYS799  TRP800  GLU811  SER814 

> <Gold.Protein.RotatedAtoms>
  152.1132  134.9259  160.0565 H   0  0  0  0  0  0  0  0  0  0  0  0  # atno 6907 bound_to 6896
  152.0429  133.3980  159.4352 H   0  0  0  0  0  0  0  0  0  0  0  0  # atno 6908 bound_to 6896
  150.6844  134.3316  159.4873 H   0  0  0  0  0  0  0  0  0  0  0  0  # atno 6909 bound_to 6896
  144.7414  140.3489  143.6120 H   0  0  0  0  0  0  0  0  0  0  0  0  # atno 7974 bound_to 7965
  155.6100  140.0670  157.2709 H   0  0  0  0  0  0  0  0  0  0  0  0  # atno 8008 bound_to 7997
  154.4256  140.1803  156.1310 H   0  0  0  0  0  0  0  0  0  0  0  0  # atno 8009 bound_to 7997
  156.0092  140.3328  155.6927 H   0  0  0  0  0  0  0  0  0  0  0  0  # atno 8010 bound_to 7997
  139.5989  144.7050  151.3111 H   0  0  0  0  0  0  0  0  0  0  0  0  # atno 10167 bound_to 10162
  156.6981  130.5085  149.5925 H   0  0  0  0  0  0  0  0  0  0  0  0  # atno 10718 bound_to 10713
  153.0627  135.5004  154.8129 H   0  0  0  0  0  0  0  0  0  0  0  0  # atno 10763 bound_to 10752
  154.6906  135.2984  154.9486 H   0  0  0  0  0  0  0  0  0  0  0  0  # atno 10764 bound_to 10752
  154.0242  135.6738  153.4828 H   0  0  0  0  0  0  0  0  0  0  0  0  # atno 10765 bound_to 10752
  140.9617  134.0927  157.3961 H   0  0  0  0  0  0  0  0  0  0  0  0  # atno 11005 bound_to 11000
  145.7297  139.1733  143.2437 LP  0  0  0  0  0  0  0  0  0  0  0  0  # atno 17320 bound_to 7965
  146.1215  140.7302  142.9455 LP  0  0  0  0  0  0  0  0  0  0  0  0  # atno 17321 bound_to 7965
  140.7234  143.7073  150.7797 LP  0  0  0  0  0  0  0  0  0  0  0  0  # atno 17342 bound_to 10162
  140.0645  143.5122  152.2611 LP  0  0  0  0  0  0  0  0  0  0  0  0  # atno 17343 bound_to 10162
  156.1749  130.6461  151.0882 LP  0  0  0  0  0  0  0  0  0  0  0  0  # atno 17370 bound_to 10713
  157.6983  131.0785  150.6899 LP  0  0  0  0  0  0  0  0  0  0  0  0  # atno 17371 bound_to 10713
  139.8880  135.0094  156.6596 LP  0  0  0  0  0  0  0  0  0  0  0  0  # atno 17394 bound_to 11000
  140.7458  133.8939  155.8311 LP  0  0  0  0  0  0  0  0  0  0  0  0  # atno 17395 bound_to 11000

$$$$
