AV-unprocessed.smi:1452|AV-procd|sdf|5903|dock4
  -GOLD-   22720 5593D 1   1.00000     0.00000
 Structure written by MMmdl.
 40 42  0  0  0  0  0  0  0  0  2 V2000
  150.9745  140.2772  155.9432 O   0  0  0  0  0  0  0  0  0  0  0  0
  150.2298  141.2354  155.7445 C   0  0  0  0  0  0  0  0  0  0  0  0
  150.3705  142.3838  156.4407 N   0  0  0  0  0  0  0  0  0  0  0  0
  151.2912  142.7654  157.4615 C   0  0  0  0  0  0  0  0  0  0  0  0
  151.5832  144.1478  157.4978 C   0  0  0  0  0  0  0  0  0  0  0  0
  152.4826  144.6451  158.4605 C   0  0  0  0  0  0  0  0  0  0  0  0
  153.0710  143.7454  159.3666 C   0  0  0  0  0  0  0  0  0  0  0  0
  152.7293  142.3850  159.2647 C   0  0  0  0  0  0  0  0  0  0  0  0
  151.8679  141.9068  158.3416 N   0  0  0  0  0  0  0  0  0  0  0  0
  149.2406  141.2071  154.8368 N   0  0  0  0  0  0  0  0  0  0  0  0
  148.9000  140.0741  153.9832 C   0  0  2  0  0  0  0  0  0  0  0  0
  147.7207  140.3718  153.0399 C   0  0  0  0  0  0  0  0  0  0  0  0
  146.8984  139.0690  152.9888 C   0  0  0  0  0  0  0  0  0  0  0  0
  147.6690  138.0896  153.7783 N   0  3  2  0  0  0  0  0  0  0  0  0
  146.9201  136.9546  154.3601 C   0  0  0  0  0  0  0  0  0  0  0  0
  147.9062  136.0057  155.0700 C   0  0  0  0  0  0  0  0  0  0  0  0
  148.7837  136.7545  156.0937 C   0  0  0  0  0  0  0  0  0  0  0  0
  149.4632  137.9802  155.4533 C   0  0  0  0  0  0  0  0  0  0  0  0
  148.4004  138.8707  154.7872 C   0  0  1  0  0  0  0  0  0  0  0  0
  149.7177  143.1091  156.1807 H   0  0  0  0  0  0  0  0  0  0  0  0
  151.1229  144.8275  156.7949 H   0  0  0  0  0  0  0  0  0  0  0  0
  152.7159  145.6988  158.5024 H   0  0  0  0  0  0  0  0  0  0  0  0
  153.7650  144.0893  160.1194 H   0  0  0  0  0  0  0  0  0  0  0  0
  153.1575  141.6607  159.9418 H   0  0  0  0  0  0  0  0  0  0  0  0
  148.6778  142.0408  154.7366 H   0  0  0  0  0  0  0  0  0  0  0  0
  149.7584  139.7780  153.3766 H   0  0  0  0  0  0  0  0  0  0  0  0
  147.0994  141.1845  153.4199 H   0  0  0  0  0  0  0  0  0  0  0  0
  148.0748  140.6668  152.0515 H   0  0  0  0  0  0  0  0  0  0  0  0
  145.9184  139.2282  153.4415 H   0  0  0  0  0  0  0  0  0  0  0  0
  146.7473  138.7111  151.9702 H   0  0  0  0  0  0  0  0  0  0  0  0
  146.1714  137.3235  155.0628 H   0  0  0  0  0  0  0  0  0  0  0  0
  146.3881  136.4230  153.5702 H   0  0  0  0  0  0  0  0  0  0  0  0
  147.3615  135.2003  155.5631 H   0  0  0  0  0  0  0  0  0  0  0  0
  148.5483  135.5317  154.3266 H   0  0  0  0  0  0  0  0  0  0  0  0
  148.1652  137.0795  156.9311 H   0  0  0  0  0  0  0  0  0  0  0  0
  149.5351  136.0816  156.5079 H   0  0  0  0  0  0  0  0  0  0  0  0
  150.0069  138.5407  156.2138 H   0  0  0  0  0  0  0  0  0  0  0  0
  150.1988  137.6556  154.7162 H   0  0  0  0  0  0  0  0  0  0  0  0
  147.6899  139.2148  155.5426 H   0  0  0  0  0  0  0  0  0  0  0  0
  148.3662  137.7048  153.1570 H   0  0  0  0  0  0  0  0  0  0  0  0
  1  2  2  0  0  0  0
  2  3  1  0  0  0  0
  2 10  1  0  0  0  0
  3  4  1  0  0  0  0
  3 20  1  0  0  0  0
  4  9  1  0  0  0  0
  4  5  2  0  0  0  0
  5  6  1  0  0  0  0
  5 21  1  0  0  0  0
  6  7  2  0  0  0  0
  6 22  1  0  0  0  0
  7  8  1  0  0  0  0
  7 23  1  0  0  0  0
  8  9  2  0  0  0  0
  8 24  1  0  0  0  0
 10 11  1  0  0  0  0
 10 25  1  0  0  0  0
 11 19  1  0  0  0  0
 11 12  1  0  0  0  0
 11 26  1  0  0  0  0
 12 13  1  0  0  0  0
 12 27  1  0  0  0  0
 12 28  1  0  0  0  0
 13 14  1  0  0  0  0
 13 29  1  0  0  0  0
 13 30  1  0  0  0  0
 14 19  1  0  0  0  0
 14 15  1  0  0  0  0
 14 40  1  0  0  0  0
 15 16  1  0  0  0  0
 15 31  1  0  0  0  0
 15 32  1  0  0  0  0
 16 17  1  0  0  0  0
 16 33  1  0  0  0  0
 16 34  1  0  0  0  0
 17 18  1  0  0  0  0
 17 35  1  0  0  0  0
 17 36  1  0  0  0  0
 18 19  1  0  0  0  0
 18 37  1  0  0  0  0
 18 38  1  0  0  0  0
 19 39  1  0  0  0  0
M  CHG  1  14   1
M  END
> <s_m_source_file>
AV-unprocessed.smi

> <i_m_source_file_index>
1452

> <i_lp_mmshare_version>
43012

> <i_f3d_flags>
0

> <s_epik_input>
W0NIMl0xW0NIMl1bQ0gyXVtDSDJdW0NASF0oTjEyKVtDQEBIXShbQ0gyXVtDSDJdMilbTkhdQyg9TylbTkhdYzNbY0hdW2NIXVtjSF1bY0hdbjM=

> <s_epik_cmdline>
J2VwaWtfcHl0aG9uJywgJy1waCcsICc3LjAnLCAnLXRuJywgJzgnLCAnLW1hJywgJzIwMCcsICctbWV0YWxfYmluZGluZycsICctaW1hZScsICc8aW5maWxlLm1hZT4nLCAnLW9tYWUnLCAnPG91dGZpbGUubWFlPic=

> <r_epik_Ionization_Penalty>
0.00100813

> <r_epik_Ionization_Penalty_Charging>
0.000974069

> <r_epik_Ionization_Penalty_Neutral>
3.40643e-05

> <r_epik_State_Penalty>
0.000633842

> <r_epik_Charging_Adjusted_Penalty>
0.00160791

> <i_epik_Tot_Q>
1

> <i_epik_Tot_abs_Q>
1

> <r_epik_Metal_State_Penalty>
-0

> <b_epik_Metal_Only>
0

> <s_lp_Force_Field>
OPLS_2005

> <r_lp_Energy>
38.1413

> <b_lp_Chiralities_Consistent>
1

> <s_lp_Variant>
AV-unprocessed.smi:1452-1

> <Gold.Version>
5.8.1

> <Gold.Id.Protein>
6NUR|6NUR_protein|mol2

> <Gold.PLP.Fitness>
41.1733

> <Gold.PLP.PLP>
-32.5513

> <Gold.PLP.part.hbond>
-2.0000

> <Gold.PLP.part.metal>
0.0000

> <Gold.PLP.part.buried>
0.2709

> <Gold.PLP.part.nonpolar>
-30.9875

> <Gold.PLP.part.repulsive>
0.2554

> <Gold.PLP.ligand.clash>
0.0000

> <Gold.PLP.ligand.torsion>
0.1936

> <Gold.PLP.Chemscore.Hbond>
3.0000

> <Gold.PLP.Chemscore.CHOScore>
0.0000

> <Gold.PLP.Chemscore.Metal>
0.0000

> <Gold.Chemscore.Hbonds>
donor molecule, donor type, donor heavy atom, donor atom, acceptor molecule, acceptor atom, score
      L1  H     3    20       P1  8028  1.00
      L1  H    14    40       P1  7948  1.98

> <Gold.PLP.Chemscore.Internal.Correction>
0.0093

> <Gold.Rescore>
     Score         DG    S(hbond)    S(metal)    S(lipo)     H(rot)  DE(clash)    DE(int)     intcor
     15.82     -18.95       1.86        0.00      83.81       1.00       0.92       2.21       ----

> <Gold.Chemscore.Fitness>
15.8222

> <Gold.Chemscore.DG>
-18.9465

> <Gold.Chemscore.ZeroCoef>
-5.4800

> <Gold.Chemscore.Hbond>
1.8624

> <Gold.Chemscore.Metal>
0.0000

> <Gold.Chemscore.Lipo>
83.8122

> <Gold.Chemscore.Internal_Hbond>
0.0000

> <Gold.Chemscore.DEClash>
0.9183

> <Gold.Chemscore.DEInternal>
2.2060

> <Gold.Chemscore.Rot>
1.0000

> <Gold.Chemscore.Internal.Correction>
   9.000000E+99

> <Gold.Chemscore.Hbonds>
donor molecule, donor type, donor heavy atom, donor atom, acceptor molecule, acceptor atom, score
      L1  H     3    20       P1  8028  1.00
      L1  H    14    40       P1  7948  0.87

> <Gold.Chemscore.Hbond.Weighted>
-6.2204

> <Gold.Chemscore.Metal.Weighted>
-0.0000

> <Gold.Chemscore.Lipo.Weighted>
-9.8060

> <Gold.Chemscore.Internal_Hbond.Weighted>
0.0000

> <Gold.Chemscore.DEClash.Weighted>
0.9183

> <Gold.Chemscore.DEInternal.Weighted>
2.2060

> <Gold.Chemscore.Rot.Weighted>
2.5600

> <Gold.Chemscore.Internal.Correction.Weighted>
   9.000000E+99

> <Gold.Protein.RotatedTorsions>
[ 6907 6896 6895 6894 ] final   25.98 input  -60.11 | X-H torsion
[ 7974 7965 7964 7962 ] final -130.27 input  175.53 | X-H torsion
[ 8008 7997 7996 7995 ] final -123.73 input   59.86 | X-H torsion
[ 10167 10162 10161 10158 ] final   85.75 input  -65.29 | X-H torsion
[ 10718 10713 10712 10709 ] final   58.33 input   66.30 | X-H torsion
[ 10763 10752 10751 10750 ] final  126.84 input  -60.55 | X-H torsion
[ 11005 11000 10999 10996 ] final  -17.28 input  -57.11 | X-H torsion

> <Gold.Protein.ActiveResidues>
 VAL166  LYS551  ARG553  GLY616  TRP617  ASP618  TYR619  PRO620  LYS621  CYS622 
 ASP623  PHE694  ASN695  SER759  ASP760  ASP761  ALA762  ILE779  LEU786  VAL792 
 PHE793  MET794  SER795  GLU796  ALA797  LYS798  CYS799  TRP800  GLU811  SER814 

> <Gold.Protein.RotatedAtoms>
  151.9806  135.0030  160.0556 H   0  0  0  0  0  0  0  0  0  0  0  0  # atno 6907 bound_to 6896
  152.1700  133.4632  159.4912 H   0  0  0  0  0  0  0  0  0  0  0  0  # atno 6908 bound_to 6896
  150.6900  134.1883  159.4318 H   0  0  0  0  0  0  0  0  0  0  0  0  # atno 6909 bound_to 6896
  144.9491  140.7325  143.4799 H   0  0  0  0  0  0  0  0  0  0  0  0  # atno 7974 bound_to 7965
  155.1853  140.0411  157.2890 H   0  0  0  0  0  0  0  0  0  0  0  0  # atno 8008 bound_to 7997
  154.6176  140.2492  155.7562 H   0  0  0  0  0  0  0  0  0  0  0  0  # atno 8009 bound_to 7997
  156.2415  140.2902  156.0468 H   0  0  0  0  0  0  0  0  0  0  0  0  # atno 8010 bound_to 7997
  139.8945  144.6366  150.8703 H   0  0  0  0  0  0  0  0  0  0  0  0  # atno 10167 bound_to 10162
  157.5587  130.8819  149.9077 H   0  0  0  0  0  0  0  0  0  0  0  0  # atno 10718 bound_to 10713
  153.6999  135.3285  155.3222 H   0  0  0  0  0  0  0  0  0  0  0  0  # atno 10763 bound_to 10752
  154.8416  135.4451  154.1422 H   0  0  0  0  0  0  0  0  0  0  0  0  # atno 10764 bound_to 10752
  153.2486  135.6979  153.7782 H   0  0  0  0  0  0  0  0  0  0  0  0  # atno 10765 bound_to 10752
  140.8153  133.8110  155.9604 H   0  0  0  0  0  0  0  0  0  0  0  0  # atno 11005 bound_to 11000
  145.2871  139.1897  143.4760 LP  0  0  0  0  0  0  0  0  0  0  0  0  # atno 17320 bound_to 7965
  146.3314  140.2842  142.8612 LP  0  0  0  0  0  0  0  0  0  0  0  0  # atno 17321 bound_to 7965
  140.7720  143.3484  151.2064 LP  0  0  0  0  0  0  0  0  0  0  0  0  # atno 17342 bound_to 10162
  139.7080  143.9424  152.2935 LP  0  0  0  0  0  0  0  0  0  0  0  0  # atno 17343 bound_to 10162
  156.0643  130.3695  150.0914 LP  0  0  0  0  0  0  0  0  0  0  0  0  # atno 17370 bound_to 10713
  156.9080  130.9642  151.3567 LP  0  0  0  0  0  0  0  0  0  0  0  0  # atno 17371 bound_to 10713
  140.9156  134.2206  157.4959 LP  0  0  0  0  0  0  0  0  0  0  0  0  # atno 17394 bound_to 11000
  139.8711  134.9769  156.4940 LP  0  0  0  0  0  0  0  0  0  0  0  0  # atno 17395 bound_to 11000

$$$$
