AV-unprocessed.smi:227|AV-procd|sdf|1729|dock3
  -GOLD-   2262020213D 1   1.00000     0.00000
 Structure written by MMmdl.
 54 58  0  0  0  0  0  0  0  0  1 V2000
  147.4332  137.5914  162.2722 O   0  0  0  0  0  0  0  0  0  0  0  0
  146.4678  136.6343  161.8890 C   0  0  0  0  0  0  0  0  0  0  0  0
  147.0442  135.1950  161.9092 C   0  0  2  0  0  0  0  0  0  0  0  0
  147.8869  134.9078  160.6401 C   0  0  0  0  0  0  0  0  0  0  0  0
  147.8621  135.9867  159.6675 N   0  0  0  0  0  0  0  0  0  0  0  0
  146.7884  136.3878  158.9072 C   0  0  0  0  0  0  0  0  0  0  0  0
  147.0237  137.3855  158.1006 N   0  0  0  0  0  0  0  0  0  0  0  0
  148.3627  137.6968  158.3128 C   0  0  0  0  0  0  0  0  0  0  0  0
  149.2644  138.6650  157.7787 C   0  0  0  0  0  0  0  0  0  0  0  0
  148.9329  139.5950  156.8399 N   0  0  0  0  0  0  0  0  0  0  0  0
  148.9914  141.0173  157.1372 C   0  0  1  0  0  0  0  0  0  0  0  0
  150.4999  141.3335  157.1580 C   0  0  0  0  0  0  0  0  0  0  0  0
  151.0203  140.3824  156.0684 C   0  0  0  0  0  0  0  0  0  0  0  0
  149.7115  139.7018  155.6118 C   0  0  2  0  0  0  0  0  0  0  0  0
  148.8974  140.7062  154.7696 C   0  0  1  0  0  0  0  0  0  0  0  0
  147.7907  140.0295  153.9409 C   0  0  0  0  0  0  0  0  0  0  0  0
  148.3400  139.0073  153.1365 O   0  0  0  0  0  0  0  0  0  0  0  0
  148.3613  141.6356  155.8781 C   0  0  0  0  0  0  0  0  0  0  0  0
  150.5474  138.6298  158.2282 N   0  0  0  0  0  0  0  0  0  0  0  0
  150.9231  137.7382  159.1486 C   0  0  0  0  0  0  0  0  0  0  0  0
  150.1908  136.7965  159.7438 N   0  0  0  0  0  0  0  0  0  0  0  0
  148.9060  136.8115  159.2888 C   0  0  0  0  0  0  0  0  0  0  0  0
  145.9367  134.1170  162.0657 C   0  0  2  0  0  0  0  0  0  0  0  0
  146.3556  132.6857  161.7754 C   0  0  0  0  0  0  0  0  0  0  0  0
  145.0162  131.9896  161.5632 C   0  0  0  0  0  0  0  0  0  0  0  0
  144.1609  132.9712  160.9906 O   0  0  0  0  0  0  0  0  0  0  0  0
  144.7663  134.2565  161.0844 C   0  0  0  0  0  0  0  0  0  0  0  0
  147.4284  137.6636  163.2144 H   0  0  0  0  0  0  0  0  0  0  0  0
  145.5964  136.7115  162.5397 H   0  0  0  0  0  0  0  0  0  0  0  0
  146.1402  136.9232  160.8916 H   0  0  0  0  0  0  0  0  0  0  0  0
  147.7166  135.1184  162.7653 H   0  0  0  0  0  0  0  0  0  0  0  0
  148.9317  134.7363  160.8991 H   0  0  0  0  0  0  0  0  0  0  0  0
  147.5354  133.9960  160.1553 H   0  0  0  0  0  0  0  0  0  0  0  0
  145.8175  135.9190  158.9745 H   0  0  0  0  0  0  0  0  0  0  0  0
  148.4714  141.3365  158.0382 H   0  0  0  0  0  0  0  0  0  0  0  0
  150.7128  142.3816  156.9448 H   0  0  0  0  0  0  0  0  0  0  0  0
  150.9392  141.0875  158.1256 H   0  0  0  0  0  0  0  0  0  0  0  0
  151.5340  140.9024  155.2593 H   0  0  0  0  0  0  0  0  0  0  0  0
  151.7141  139.6561  156.4934 H   0  0  0  0  0  0  0  0  0  0  0  0
  149.8809  138.7599  155.0882 H   0  0  0  0  0  0  0  0  0  0  0  0
  149.5580  141.2494  154.0918 H   0  0  0  0  0  0  0  0  0  0  0  0
  147.0443  139.5847  154.5996 H   0  0  0  0  0  0  0  0  0  0  0  0
  147.2724  140.7510  153.3086 H   0  0  0  0  0  0  0  0  0  0  0  0
  148.6949  139.4002  152.3537 H   0  0  0  0  0  0  0  0  0  0  0  0
  147.2728  141.5954  155.9413 H   0  0  0  0  0  0  0  0  0  0  0  0
  148.6487  142.6772  155.7316 H   0  0  0  0  0  0  0  0  0  0  0  0
  151.9588  137.7864  159.4513 H   0  0  0  0  0  0  0  0  0  0  0  0
  145.5400  134.1559  163.0817 H   0  0  0  0  0  0  0  0  0  0  0  0
  146.9502  132.6401  160.8618 H   0  0  0  0  0  0  0  0  0  0  0  0
  146.9299  132.2317  162.5830 H   0  0  0  0  0  0  0  0  0  0  0  0
  145.0991  131.1093  160.9256 H   0  0  0  0  0  0  0  0  0  0  0  0
  144.5942  131.6779  162.5193 H   0  0  0  0  0  0  0  0  0  0  0  0
  144.0385  135.0028  161.4037 H   0  0  0  0  0  0  0  0  0  0  0  0
  145.1249  134.5369  160.0930 H   0  0  0  0  0  0  0  0  0  0  0  0
  1  2  1  0  0  0  0
  1 28  1  0  0  0  0
  2  3  1  0  0  0  0
  2 29  1  0  0  0  0
  2 30  1  0  0  0  0
  3  4  1  0  0  0  0
  3 23  1  0  0  0  0
  3 31  1  0  0  0  0
  4  5  1  0  0  0  0
  4 32  1  0  0  0  0
  4 33  1  0  0  0  0
  5 22  1  0  0  0  0
  5  6  1  0  0  0  0
  6  7  2  0  0  0  0
  6 34  1  0  0  0  0
  7  8  1  0  0  0  0
  8 22  2  0  0  0  0
  8  9  1  0  0  0  0
  9 10  1  0  0  0  0
  9 19  2  0  0  0  0
 10 14  1  0  0  0  0
 10 11  1  0  0  0  0
 11 18  1  0  0  0  0
 11 12  1  0  0  0  0
 11 35  1  0  0  0  0
 12 13  1  0  0  0  0
 12 36  1  0  0  0  0
 12 37  1  0  0  0  0
 13 14  1  0  0  0  0
 13 38  1  0  0  0  0
 13 39  1  0  0  0  0
 14 15  1  0  0  0  0
 14 40  1  0  0  0  0
 15 16  1  0  0  0  0
 15 18  1  0  0  0  0
 15 41  1  0  0  0  0
 16 17  1  0  0  0  0
 16 42  1  0  0  0  0
 16 43  1  0  0  0  0
 17 44  1  0  0  0  0
 18 45  1  0  0  0  0
 18 46  1  0  0  0  0
 19 20  1  0  0  0  0
 20 21  2  0  0  0  0
 20 47  1  0  0  0  0
 21 22  1  0  0  0  0
 23 27  1  0  0  0  0
 23 24  1  0  0  0  0
 23 48  1  0  0  0  0
 24 25  1  0  0  0  0
 24 49  1  0  0  0  0
 24 50  1  0  0  0  0
 25 26  1  0  0  0  0
 25 51  1  0  0  0  0
 25 52  1  0  0  0  0
 26 27  1  0  0  0  0
 27 53  1  0  0  0  0
 27 54  1  0  0  0  0
M  END
> <s_m_source_file>
AV-unprocessed.smi

> <i_m_source_file_index>
227

> <i_lp_mmshare_version>
43012

> <i_f3d_flags>
0

> <s_epik_input>
W0NIMl0xT1tDSDJdW0NIMl1bQ0BIXTFbQ0BIXShbQ0gyXVtPSF0pW0NIMl1uKFtjSF1uMiljKGMyMyluW2NIXW5jM04oW0NASF00NSlbQ0BASF0oW0NIMl1bQ0gyXTQpW0NASF0oW0NIMl01KVtDSDJdW09IXQ==

> <s_epik_cmdline>
J2VwaWtfcHl0aG9uJywgJy1waCcsICc3LjAnLCAnLXRuJywgJzgnLCAnLW1hJywgJzIwMCcsICctbWV0YWxfYmluZGluZycsICctaW1hZScsICc8aW5maWxlLm1hZT4nLCAnLW9tYWUnLCAnPG91dGZpbGUubWFlPic=

> <r_lp_tautomer_probability>
1

> <r_epik_Ionization_Penalty>
0.0055791

> <r_epik_Ionization_Penalty_Charging>
0

> <r_epik_Ionization_Penalty_Neutral>
0.0055791

> <r_epik_State_Penalty>
0.00401299

> <r_epik_Charging_Adjusted_Penalty>
0.00401299

> <i_epik_Tot_Q>
0

> <i_epik_Tot_abs_Q>
0

> <r_epik_Metal_State_Penalty>
-0

> <b_epik_Metal_Only>
0

> <s_lp_Force_Field>
OPLS_2005

> <r_lp_Energy>
88.7609

> <b_lp_Chiralities_Consistent>
1

> <s_lp_Variant>
AV-unprocessed.smi:227-3

> <Gold.Version>
5.8.1

> <Gold.Id.Protein>
6NUR|6NUR_protein|mol2

> <Gold.PLP.Fitness>
43.8209

> <Gold.PLP.PLP>
-36.7391

> <Gold.PLP.part.hbond>
-4.8439

> <Gold.PLP.part.metal>
0.0000

> <Gold.PLP.part.buried>
-4.6163

> <Gold.PLP.part.nonpolar>
-28.5292

> <Gold.PLP.part.repulsive>
0.0568

> <Gold.PLP.ligand.clash>
0.0000

> <Gold.PLP.ligand.torsion>
1.3119

> <Gold.PLP.Chemscore.Hbond>
3.1520

> <Gold.PLP.Chemscore.CHOScore>
0.0000

> <Gold.PLP.Chemscore.Metal>
0.0000

> <Gold.Chemscore.Hbonds>
donor molecule, donor type, donor heavy atom, donor atom, acceptor molecule, acceptor atom, score
      L1  H    17    44       P1  7957  1.00
      P1  H  6896  6909       L1    21  1.00
      P1  H  6931  6943       L1     1  0.62
      P1  H  6934  6947       L1     1  0.48

> <Gold.PLP.Chemscore.Internal.Correction>
0.2497

> <Gold.Rescore>
     Score         DG    S(hbond)    S(metal)    S(lipo)     H(rot)  DE(clash)    DE(int)     intcor
     11.43     -15.29       2.77        0.00      83.73       3.61       0.02       3.84       ----

> <Gold.Chemscore.Fitness>
11.4343

> <Gold.Chemscore.DG>
-15.2940

> <Gold.Chemscore.ZeroCoef>
-5.4800

> <Gold.Chemscore.Hbond>
2.7701

> <Gold.Chemscore.Metal>
0.0000

> <Gold.Chemscore.Lipo>
83.7287

> <Gold.Chemscore.Internal_Hbond>
0.0000

> <Gold.Chemscore.DEClash>
0.0239

> <Gold.Chemscore.DEInternal>
3.8359

> <Gold.Chemscore.Rot>
3.6071

> <Gold.Chemscore.Internal.Correction>
   9.000000E+99

> <Gold.Chemscore.Hbonds>
donor molecule, donor type, donor heavy atom, donor atom, acceptor molecule, acceptor atom, score
      L1  H    17    44       P1  7957  0.99
      P1  H  6896  6909       L1    21  0.67
      P1  H  6931  6943       L1     1  0.14
      P1  H  6934  6947       L1     1  0.21

> <Gold.Chemscore.Hbond.Weighted>
-9.2520

> <Gold.Chemscore.Metal.Weighted>
-0.0000

> <Gold.Chemscore.Lipo.Weighted>
-9.7963

> <Gold.Chemscore.Internal_Hbond.Weighted>
0.0000

> <Gold.Chemscore.DEClash.Weighted>
0.0239

> <Gold.Chemscore.DEInternal.Weighted>
3.8359

> <Gold.Chemscore.Rot.Weighted>
9.2342

> <Gold.Chemscore.Internal.Correction.Weighted>
   9.000000E+99

> <Gold.Protein.RotatedTorsions>
[ 6907 6896 6895 6894 ] final  103.93 input  -60.11 | X-H torsion
[ 7974 7965 7964 7962 ] final   -5.07 input  175.53 | X-H torsion
[ 8008 7997 7996 7995 ] final -161.26 input   59.86 | X-H torsion
[ 10167 10162 10161 10158 ] final  -78.42 input  -65.29 | X-H torsion
[ 10718 10713 10712 10709 ] final  -27.40 input   66.30 | X-H torsion
[ 10763 10752 10751 10750 ] final -122.33 input  -60.55 | X-H torsion
[ 11005 11000 10999 10996 ] final   35.59 input  -57.11 | X-H torsion

> <Gold.Protein.ActiveResidues>
 VAL166  LYS551  ARG553  GLY616  TRP617  ASP618  TYR619  PRO620  LYS621  CYS622 
 ASP623  PHE694  ASN695  SER759  ASP760  ASP761  ALA762  ILE779  LEU786  VAL792 
 PHE793  MET794  SER795  GLU796  ALA797  LYS798  CYS799  TRP800  GLU811  SER814 

> <Gold.Protein.RotatedAtoms>
  152.5280  133.9752  159.7780 H   0  0  0  0  0  0  0  0  0  0  0  0  # atno 6907 bound_to 6896
  151.0016  133.6043  159.2701 H   0  0  0  0  0  0  0  0  0  0  0  0  # atno 6908 bound_to 6896
  151.3150  135.0810  159.9339 H   0  0  0  0  0  0  0  0  0  0  0  0  # atno 6909 bound_to 6896
  146.2360  140.1966  142.8333 H   0  0  0  0  0  0  0  0  0  0  0  0  # atno 7974 bound_to 7965
  155.7895  140.0876  157.2016 H   0  0  0  0  0  0  0  0  0  0  0  0  # atno 8008 bound_to 7997
  154.3986  140.1492  156.3204 H   0  0  0  0  0  0  0  0  0  0  0  0  # atno 8009 bound_to 7997
  155.8573  140.3432  155.5735 H   0  0  0  0  0  0  0  0  0  0  0  0  # atno 8010 bound_to 7997
  140.4684  143.2433  151.8243 H   0  0  0  0  0  0  0  0  0  0  0  0  # atno 10167 bound_to 10162
  156.4386  130.4459  149.7068 H   0  0  0  0  0  0  0  0  0  0  0  0  # atno 10718 bound_to 10713
  154.8687  135.4137  154.2764 H   0  0  0  0  0  0  0  0  0  0  0  0  # atno 10763 bound_to 10752
  153.3665  135.7005  153.6677 H   0  0  0  0  0  0  0  0  0  0  0  0  # atno 10764 bound_to 10752
  153.5556  135.3620  155.2750 H   0  0  0  0  0  0  0  0  0  0  0  0  # atno 10765 bound_to 10752
  140.2411  134.3413  155.7925 H   0  0  0  0  0  0  0  0  0  0  0  0  # atno 11005 bound_to 11000
  144.9815  140.8463  143.5394 LP  0  0  0  0  0  0  0  0  0  0  0  0  # atno 17320 bound_to 7965
  145.1960  139.2276  143.5218 LP  0  0  0  0  0  0  0  0  0  0  0  0  # atno 17321 bound_to 7965
  139.4815  144.4922  151.9170 LP  0  0  0  0  0  0  0  0  0  0  0  0  # atno 17342 bound_to 10162
  140.4008  144.2496  150.5893 LP  0  0  0  0  0  0  0  0  0  0  0  0  # atno 17343 bound_to 10162
  156.3942  130.7642  151.2645 LP  0  0  0  0  0  0  0  0  0  0  0  0  # atno 17370 bound_to 10713
  157.7507  131.0259  150.3938 LP  0  0  0  0  0  0  0  0  0  0  0  0  # atno 17371 bound_to 10713
  141.2210  133.7299  156.8887 LP  0  0  0  0  0  0  0  0  0  0  0  0  # atno 17394 bound_to 11000
  140.1652  134.9138  157.2765 LP  0  0  0  0  0  0  0  0  0  0  0  0  # atno 17395 bound_to 11000

$$$$
