AV-unprocessed.smi:2320|AV-procd|sdf|9280|dock7
  -GOLD-   2272012503D 1   1.00000     0.00000
 Structure written by MMmdl.
 41 42  0  0  0  0  0  0  0  0  1 V2000
  154.0678  141.9247  161.1317 C   0  0  0  0  0  0  0  0  0  0  0  0
  153.0622  141.9251  159.9988 C   0  0  0  0  0  0  0  0  0  0  0  0
  152.3044  143.0786  159.7149 C   0  0  0  0  0  0  0  0  0  0  0  0
  151.3723  143.0685  158.6598 C   0  0  0  0  0  0  0  0  0  0  0  0
  151.1811  141.9128  157.8752 C   0  0  0  0  0  0  0  0  0  0  0  0
  150.2478  141.9919  156.8642 O   0  0  0  0  0  0  0  0  0  0  0  0
  150.4428  141.1961  155.7024 C   0  0  0  0  0  0  0  0  0  0  0  0
  149.2026  141.3207  154.8038 C   0  0  1  0  0  0  0  0  0  0  0  0
  149.5710  140.8536  153.5218 O   0  0  0  0  0  0  0  0  0  0  0  0
  148.0165  140.4788  155.3270 C   0  0  0  0  0  0  0  0  0  0  0  0
  146.7520  141.2332  155.3139 N   0  0  0  0  0  0  0  0  0  0  0  0
  146.3585  141.7678  154.0754 C   0  0  0  0  0  0  0  0  0  0  0  0
  145.2690  142.4515  153.9456 N   0  0  0  0  0  0  0  0  0  0  0  0
  144.4483  142.6716  155.0555 C   0  0  0  0  0  0  0  0  0  0  0  0
  143.1997  143.4951  154.7944 C   0  0  0  0  0  0  0  0  0  0  0  0
  144.7674  142.1728  156.2811 C   0  0  0  0  0  0  0  0  0  0  0  0
  143.9131  142.3835  157.5254 C   0  0  0  0  0  0  0  0  0  0  0  0
  146.0032  141.3896  156.4434 C   0  0  0  0  0  0  0  0  0  0  0  0
  146.3494  140.9059  157.5229 O   0  0  0  0  0  0  0  0  0  0  0  0
  151.9473  140.7558  158.1657 C   0  0  0  0  0  0  0  0  0  0  0  0
  152.8802  140.7650  159.2211 C   0  0  0  0  0  0  0  0  0  0  0  0
  154.1166  142.8978  161.6213 H   0  0  0  0  0  0  0  0  0  0  0  0
  155.0619  141.6834  160.7544 H   0  0  0  0  0  0  0  0  0  0  0  0
  153.7933  141.1807  161.8799 H   0  0  0  0  0  0  0  0  0  0  0  0
  152.4342  143.9752  160.3033 H   0  0  0  0  0  0  0  0  0  0  0  0
  150.7963  143.9579  158.4506 H   0  0  0  0  0  0  0  0  0  0  0  0
  151.3242  141.5532  155.1666 H   0  0  0  0  0  0  0  0  0  0  0  0
  150.6084  140.1511  155.9710 H   0  0  0  0  0  0  0  0  0  0  0  0
  148.9303  142.3738  154.7234 H   0  0  0  0  0  0  0  0  0  0  0  0
  149.3466  139.9377  153.4586 H   0  0  0  0  0  0  0  0  0  0  0  0
  147.9378  139.5397  154.7757 H   0  0  0  0  0  0  0  0  0  0  0  0
  148.2192  140.1623  156.3522 H   0  0  0  0  0  0  0  0  0  0  0  0
  147.0311  141.5617  153.2407 H   0  0  0  0  0  0  0  0  0  0  0  0
  143.2038  144.3980  155.4055 H   0  0  0  0  0  0  0  0  0  0  0  0
  142.3049  142.9181  155.0288 H   0  0  0  0  0  0  0  0  0  0  0  0
  143.1356  143.8000  153.7490 H   0  0  0  0  0  0  0  0  0  0  0  0
  143.6170  141.4222  157.9467 H   0  0  0  0  0  0  0  0  0  0  0  0
  143.0026  142.9481  157.3308 H   0  0  0  0  0  0  0  0  0  0  0  0
  144.4806  142.9250  158.2829 H   0  0  0  0  0  0  0  0  0  0  0  0
  151.8397  139.8475  157.5927 H   0  0  0  0  0  0  0  0  0  0  0  0
  153.4579  139.8768  159.4319 H   0  0  0  0  0  0  0  0  0  0  0  0
  1  2  1  0  0  0  0
  1 22  1  0  0  0  0
  1 23  1  0  0  0  0
  1 24  1  0  0  0  0
  2 21  1  0  0  0  0
  2  3  2  0  0  0  0
  3  4  1  0  0  0  0
  3 25  1  0  0  0  0
  4  5  2  0  0  0  0
  4 26  1  0  0  0  0
  5  6  1  0  0  0  0
  5 20  1  0  0  0  0
  6  7  1  0  0  0  0
  7  8  1  0  0  0  0
  7 27  1  0  0  0  0
  7 28  1  0  0  0  0
  8  9  1  0  0  0  0
  8 10  1  0  0  0  0
  8 29  1  0  0  0  0
  9 30  1  0  0  0  0
 10 11  1  0  0  0  0
 10 31  1  0  0  0  0
 10 32  1  0  0  0  0
 11 18  1  0  0  0  0
 11 12  1  0  0  0  0
 12 13  2  0  0  0  0
 12 33  1  0  0  0  0
 13 14  1  0  0  0  0
 14 15  1  0  0  0  0
 14 16  2  0  0  0  0
 15 34  1  0  0  0  0
 15 35  1  0  0  0  0
 15 36  1  0  0  0  0
 16 17  1  0  0  0  0
 16 18  1  0  0  0  0
 17 37  1  0  0  0  0
 17 38  1  0  0  0  0
 17 39  1  0  0  0  0
 18 19  2  0  0  0  0
 20 21  2  0  0  0  0
 20 40  1  0  0  0  0
 21 41  1  0  0  0  0
M  END
> <s_m_source_file>
AV-unprocessed.smi

> <i_m_source_file_index>
2320

> <i_lp_mmshare_version>
43012

> <i_f3d_flags>
0

> <s_epik_input>
W0NIM11jMVtjSF1bY0hdYyhbY0hdW2NIXTEpT1tDSDJdW0NASF0oW09IXSlbQ0gyXW4yW2NIXW5jKFtDSDNdKWMoW0NIM10pYzI9Tw==

> <s_epik_cmdline>
J2VwaWtfcHl0aG9uJywgJy1waCcsICc3LjAnLCAnLXRuJywgJzgnLCAnLW1hJywgJzIwMCcsICctbWV0YWxfYmluZGluZycsICctaW1hZScsICc8aW5maWxlLm1hZT4nLCAnLW9tYWUnLCAnPG91dGZpbGUubWFlPic=

> <r_lp_tautomer_probability>
1

> <r_epik_Ionization_Penalty>
3.74127e-05

> <r_epik_Ionization_Penalty_Charging>
8.43242e-08

> <r_epik_Ionization_Penalty_Neutral>
3.73284e-05

> <r_epik_State_Penalty>
-0

> <r_epik_Charging_Adjusted_Penalty>
8.43242e-08

> <i_epik_Tot_Q>
0

> <i_epik_Tot_abs_Q>
0

> <r_epik_Metal_State_Penalty>
-0

> <b_epik_Metal_Only>
0

> <s_lp_Force_Field>
OPLS_2005

> <r_lp_Energy>
22.1305

> <b_lp_Chiralities_Consistent>
1

> <s_lp_Variant>
AV-unprocessed.smi:2320-2

> <Gold.Version>
5.8.1

> <Gold.Id.Protein>
6NUR|6NUR_protein|mol2

> <Gold.PLP.Fitness>
47.3049

> <Gold.PLP.PLP>
-45.6783

> <Gold.PLP.part.hbond>
-2.9323

> <Gold.PLP.part.metal>
0.0000

> <Gold.PLP.part.buried>
-7.8251

> <Gold.PLP.part.nonpolar>
-36.1019

> <Gold.PLP.part.repulsive>
0.4378

> <Gold.PLP.ligand.clash>
0.0000

> <Gold.PLP.ligand.torsion>
1.1977

> <Gold.PLP.Chemscore.Hbond>
1.3331

> <Gold.PLP.Chemscore.CHOScore>
0.0000

> <Gold.PLP.Chemscore.Metal>
0.0000

> <Gold.Chemscore.Hbonds>
donor molecule, donor type, donor heavy atom, donor atom, acceptor molecule, acceptor atom, score
      P1  H  7989  7998       L1     9  0.34
      P1  H  8011  8017       L1     9  1.00

> <Gold.PLP.Chemscore.Internal.Correction>
0.0229

> <Gold.Rescore>
     Score         DG    S(hbond)    S(metal)    S(lipo)     H(rot)  DE(clash)    DE(int)     intcor
     13.31     -14.30       0.83        0.00     103.18       2.35       0.11       0.88       ----

> <Gold.Chemscore.Fitness>
13.3098

> <Gold.Chemscore.DG>
-14.2973

> <Gold.Chemscore.ZeroCoef>
-5.4800

> <Gold.Chemscore.Hbond>
0.8258

> <Gold.Chemscore.Metal>
0.0000

> <Gold.Chemscore.Lipo>
103.1843

> <Gold.Chemscore.Internal_Hbond>
0.0000

> <Gold.Chemscore.DEClash>
0.1090

> <Gold.Chemscore.DEInternal>
0.8786

> <Gold.Chemscore.Rot>
2.3490

> <Gold.Chemscore.Internal.Correction>
   9.000000E+99

> <Gold.Chemscore.Hbonds>
donor molecule, donor type, donor heavy atom, donor atom, acceptor molecule, acceptor atom, score
      P1  H  7989  7998       L1     9  0.09
      P1  H  8011  8017       L1     9  0.67

> <Gold.Chemscore.Hbond.Weighted>
-2.7583

> <Gold.Chemscore.Metal.Weighted>
-0.0000

> <Gold.Chemscore.Lipo.Weighted>
-12.0726

> <Gold.Chemscore.Internal_Hbond.Weighted>
0.0000

> <Gold.Chemscore.DEClash.Weighted>
0.1090

> <Gold.Chemscore.DEInternal.Weighted>
0.8786

> <Gold.Chemscore.Rot.Weighted>
6.0136

> <Gold.Chemscore.Internal.Correction.Weighted>
   9.000000E+99

> <Gold.Protein.RotatedTorsions>
[ 6907 6896 6895 6894 ] final -148.23 input  -60.11 | X-H torsion
[ 7974 7965 7964 7962 ] final  -82.65 input  175.53 | X-H torsion
[ 8008 7997 7996 7995 ] final -106.85 input   59.86 | X-H torsion
[ 10167 10162 10161 10158 ] final  -30.06 input  -65.29 | X-H torsion
[ 10718 10713 10712 10709 ] final -106.21 input   66.30 | X-H torsion
[ 10763 10752 10751 10750 ] final  133.56 input  -60.55 | X-H torsion
[ 11005 11000 10999 10996 ] final  -90.61 input  -57.11 | X-H torsion

> <Gold.Protein.ActiveResidues>
 VAL166  LYS551  ARG553  GLY616  TRP617  ASP618  TYR619  PRO620  LYS621  CYS622 
 ASP623  PHE694  ASN695  SER759  ASP760  ASP761  ALA762  ILE779  LEU786  VAL792 
 PHE793  MET794  SER795  GLU796  ALA797  LYS798  CYS799  TRP800  GLU811  SER814 

> <Gold.Protein.RotatedAtoms>
  151.1668  133.4809  159.2593 H   0  0  0  0  0  0  0  0  0  0  0  0  # atno 6907 bound_to 6896
  151.1397  135.0173  159.8630 H   0  0  0  0  0  0  0  0  0  0  0  0  # atno 6908 bound_to 6896
  152.5462  134.1563  159.8592 H   0  0  0  0  0  0  0  0  0  0  0  0  # atno 6909 bound_to 6896
  145.5305  140.9522  143.1605 H   0  0  0  0  0  0  0  0  0  0  0  0  # atno 7974 bound_to 7965
  154.9207  140.0407  157.1996 H   0  0  0  0  0  0  0  0  0  0  0  0  # atno 8008 bound_to 7997
  154.8257  140.2891  155.5735 H   0  0  0  0  0  0  0  0  0  0  0  0  # atno 8009 bound_to 7997
  156.2983  140.2510  156.3172 H   0  0  0  0  0  0  0  0  0  0  0  0  # atno 8010 bound_to 7997
  140.7254  143.3879  151.1482 H   0  0  0  0  0  0  0  0  0  0  0  0  # atno 10167 bound_to 10162
  156.0380  130.5602  150.7649 H   0  0  0  0  0  0  0  0  0  0  0  0  # atno 10718 bound_to 10713
  153.8091  135.3131  155.3399 H   0  0  0  0  0  0  0  0  0  0  0  0  # atno 10763 bound_to 10752
  154.8058  135.4698  154.0393 H   0  0  0  0  0  0  0  0  0  0  0  0  # atno 10764 bound_to 10752
  153.1765  135.6886  153.8624 H   0  0  0  0  0  0  0  0  0  0  0  0  # atno 10765 bound_to 10752
  141.1562  133.7703  156.9761 H   0  0  0  0  0  0  0  0  0  0  0  0  # atno 11005 bound_to 11000
  144.7628  139.6916  143.7227 LP  0  0  0  0  0  0  0  0  0  0  0  0  # atno 17320 bound_to 7965
  146.2047  139.5364  142.9720 LP  0  0  0  0  0  0  0  0  0  0  0  0  # atno 17321 bound_to 7965
  139.7479  143.8823  152.3069 LP  0  0  0  0  0  0  0  0  0  0  0  0  # atno 17342 bound_to 10162
  139.8667  144.7089  150.9035 LP  0  0  0  0  0  0  0  0  0  0  0  0  # atno 17343 bound_to 10162
  157.5158  131.0928  151.0141 LP  0  0  0  0  0  0  0  0  0  0  0  0  # atno 17370 bound_to 10713
  157.0484  130.5777  149.5366 LP  0  0  0  0  0  0  0  0  0  0  0  0  # atno 17371 bound_to 10713
  140.1097  134.9485  157.2046 LP  0  0  0  0  0  0  0  0  0  0  0  0  # atno 17394 bound_to 11000
  140.3210  134.2916  155.7246 LP  0  0  0  0  0  0  0  0  0  0  0  0  # atno 17395 bound_to 11000

$$$$
