AV-unprocessed.smi:244|AV-procd|sdf|1867|dock2
  -GOLD-   2262020503D 1   1.00000     0.00000
 Structure written by MMmdl.
 57 61  0  0  0  0  0  0  0  0  2 V2000
  145.8198  140.4811  157.8068 C   0  0  0  0  0  0  0  0  0  0  0  0
  147.0409  140.3248  156.9882 N   0  3  2  0  0  0  0  0  0  0  0  0
  148.0471  141.3801  157.2626 C   0  0  0  0  0  0  0  0  0  0  0  0
  149.3580  141.0886  156.5166 C   0  0  0  0  0  0  0  0  0  0  0  0
  149.1101  140.9214  155.0014 C   0  0  1  0  0  0  0  0  0  0  0  0
  150.3036  140.6125  154.2785 O   0  0  0  0  0  0  0  0  0  0  0  0
  150.8245  139.3060  154.5158 C   0  0  0  0  0  0  0  0  0  0  0  0
  149.7532  138.2481  154.2151 C   0  0  0  0  0  0  0  0  0  0  0  0
  148.5405  138.5264  154.9754 N   0  0  0  0  0  0  0  0  0  0  0  0
  147.6430  137.5200  154.9012 C   0  0  0  0  0  0  0  0  0  0  0  0
  147.6058  136.6545  155.9434 N   0  0  0  0  0  0  0  0  0  0  0  0
  146.7280  135.6467  155.9404 C   0  0  0  0  0  0  0  0  0  0  0  0
  145.8164  135.3365  155.0161 N   0  0  0  0  0  0  0  0  0  0  0  0
  145.8490  136.2118  153.9703 C   0  0  0  0  0  0  0  0  0  0  0  0
  146.7251  137.3239  153.8316 C   0  0  0  0  0  0  0  0  0  0  0  0
  146.4657  137.9880  152.6391 N   0  0  0  0  0  0  0  0  0  0  0  0
  145.4977  137.3001  152.0974 C   0  0  0  0  0  0  0  0  0  0  0  0
  145.0574  136.2243  152.8355 N   0  0  0  0  0  0  0  0  0  0  0  0
  143.9933  135.2982  152.4792 C   0  0  0  0  0  0  0  0  0  0  0  0
  144.3666  134.3153  151.3413 C   0  0  0  0  0  0  0  0  0  0  0  0
  143.8203  134.8183  150.1342 O   0  0  0  0  0  0  0  0  0  0  0  0
  145.8935  134.1689  151.1600 C   0  0  0  0  0  0  0  0  0  0  0  0
  146.2555  133.0358  150.1832 C   0  0  0  0  0  0  0  0  0  0  0  0
  145.6598  131.8153  150.6052 O   0  0  0  0  0  0  0  0  0  0  0  0
  144.2386  131.8692  150.6050 C   0  0  0  0  0  0  0  0  0  0  0  0
  143.7531  132.9267  151.6122 C   0  0  0  0  0  0  0  0  0  0  0  0
  148.0116  139.8696  154.7198 C   0  0  1  0  0  0  0  0  0  0  0  0
  146.7414  140.2148  155.5386 C   0  0  0  0  0  0  0  0  0  0  0  0
  145.3031  141.4110  157.5658 H   0  0  0  0  0  0  0  0  0  0  0  0
  146.0671  140.4911  158.8688 H   0  0  0  0  0  0  0  0  0  0  0  0
  145.1332  139.6515  157.6350 H   0  0  0  0  0  0  0  0  0  0  0  0
  147.6506  142.3527  156.9667 H   0  0  0  0  0  0  0  0  0  0  0  0
  148.2433  141.4304  158.3344 H   0  0  0  0  0  0  0  0  0  0  0  0
  150.0730  141.8931  156.6902 H   0  0  0  0  0  0  0  0  0  0  0  0
  149.7978  140.1878  156.9433 H   0  0  0  0  0  0  0  0  0  0  0  0
  148.7637  141.8823  154.6187 H   0  0  0  0  0  0  0  0  0  0  0  0
  151.6883  139.1528  153.8687 H   0  0  0  0  0  0  0  0  0  0  0  0
  151.1889  139.2123  155.5384 H   0  0  0  0  0  0  0  0  0  0  0  0
  149.5309  138.2507  153.1474 H   0  0  0  0  0  0  0  0  0  0  0  0
  150.1316  137.2551  154.4619 H   0  0  0  0  0  0  0  0  0  0  0  0
  146.7572  134.9968  156.8027 H   0  0  0  0  0  0  0  0  0  0  0  0
  145.0678  137.5662  151.1424 H   0  0  0  0  0  0  0  0  0  0  0  0
  143.7193  134.7425  153.3771 H   0  0  0  0  0  0  0  0  0  0  0  0
  143.1117  135.8791  152.2037 H   0  0  0  0  0  0  0  0  0  0  0  0
  142.9023  134.5956  150.1037 H   0  0  0  0  0  0  0  0  0  0  0  0
  146.3364  135.1030  150.8132 H   0  0  0  0  0  0  0  0  0  0  0  0
  146.3504  133.9531  152.1267 H   0  0  0  0  0  0  0  0  0  0  0  0
  145.9386  133.2761  149.1673 H   0  0  0  0  0  0  0  0  0  0  0  0
  147.3371  132.9045  150.1516 H   0  0  0  0  0  0  0  0  0  0  0  0
  143.8700  132.0819  149.6003 H   0  0  0  0  0  0  0  0  0  0  0  0
  143.8516  130.8881  150.8807 H   0  0  0  0  0  0  0  0  0  0  0  0
  144.0335  132.5991  152.6142 H   0  0  0  0  0  0  0  0  0  0  0  0
  142.6637  132.9806  151.6032 H   0  0  0  0  0  0  0  0  0  0  0  0
  147.7559  139.9220  153.6604 H   0  0  0  0  0  0  0  0  0  0  0  0
  145.9556  139.4768  155.3728 H   0  0  0  0  0  0  0  0  0  0  0  0
  146.3325  141.1650  155.1913 H   0  0  0  0  0  0  0  0  0  0  0  0
  147.4573  139.4460  157.2632 H   0  0  0  0  0  0  0  0  0  0  0  0
  1  2  1  0  0  0  0
  1 29  1  0  0  0  0
  1 30  1  0  0  0  0
  1 31  1  0  0  0  0
  2 28  1  0  0  0  0
  2  3  1  0  0  0  0
  2 57  1  0  0  0  0
  3  4  1  0  0  0  0
  3 32  1  0  0  0  0
  3 33  1  0  0  0  0
  4  5  1  0  0  0  0
  4 34  1  0  0  0  0
  4 35  1  0  0  0  0
  5 27  1  0  0  0  0
  5  6  1  0  0  0  0
  5 36  1  0  0  0  0
  6  7  1  0  0  0  0
  7  8  1  0  0  0  0
  7 37  1  0  0  0  0
  7 38  1  0  0  0  0
  8  9  1  0  0  0  0
  8 39  1  0  0  0  0
  8 40  1  0  0  0  0
  9 10  1  0  0  0  0
  9 27  1  0  0  0  0
 10 15  1  0  0  0  0
 10 11  2  0  0  0  0
 11 12  1  0  0  0  0
 12 13  2  0  0  0  0
 12 41  1  0  0  0  0
 13 14  1  0  0  0  0
 14 18  1  0  0  0  0
 14 15  2  0  0  0  0
 15 16  1  0  0  0  0
 16 17  2  0  0  0  0
 17 18  1  0  0  0  0
 17 42  1  0  0  0  0
 18 19  1  0  0  0  0
 19 20  1  0  0  0  0
 19 43  1  0  0  0  0
 19 44  1  0  0  0  0
 20 26  1  0  0  0  0
 20 21  1  0  0  0  0
 20 22  1  0  0  0  0
 21 45  1  0  0  0  0
 22 23  1  0  0  0  0
 22 46  1  0  0  0  0
 22 47  1  0  0  0  0
 23 24  1  0  0  0  0
 23 48  1  0  0  0  0
 23 49  1  0  0  0  0
 24 25  1  0  0  0  0
 25 26  1  0  0  0  0
 25 50  1  0  0  0  0
 25 51  1  0  0  0  0
 26 52  1  0  0  0  0
 26 53  1  0  0  0  0
 27 28  1  0  0  0  0
 27 54  1  0  0  0  0
 28 55  1  0  0  0  0
 28 56  1  0  0  0  0
M  CHG  1   2   1
M  END
> <s_m_source_file>
AV-unprocessed.smi

> <i_m_source_file_index>
244

> <i_lp_mmshare_version>
43012

> <i_f3d_flags>
0

> <s_epik_input>
W0NIMl0xW0NIMl1OKFtDSDNdKVtDSDJdW0NAQEhdKFtDQEhdMTIpTihbQ0gyXVtDSDJdTzIpYyhuW2NIXW4zKWMoYzM0KW5bY0hdbjRbQ0gyXUM1KFtPSF0pW0NIMl1bQ0gyXU9bQ0gyXVtDSDJdNQ==

> <s_epik_cmdline>
J2VwaWtfcHl0aG9uJywgJy1waCcsICc3LjAnLCAnLXRuJywgJzgnLCAnLW1hJywgJzIwMCcsICctbWV0YWxfYmluZGluZycsICctaW1hZScsICc8aW5maWxlLm1hZT4nLCAnLW9tYWUnLCAnPG91dGZpbGUubWFlPic=

> <r_lp_tautomer_probability>
1

> <r_epik_Ionization_Penalty>
0.0136215

> <r_epik_Ionization_Penalty_Charging>
0.0131385

> <r_epik_Ionization_Penalty_Neutral>
0.000483022

> <r_epik_State_Penalty>
0.0104001

> <r_epik_Charging_Adjusted_Penalty>
0.0235387

> <i_epik_Tot_Q>
1

> <i_epik_Tot_abs_Q>
1

> <r_epik_Metal_State_Penalty>
0.0104469

> <b_epik_Metal_Only>
0

> <s_lp_Force_Field>
OPLS_2005

> <r_lp_Energy>
48.7962

> <b_lp_Chiralities_Consistent>
1

> <s_lp_Variant>
AV-unprocessed.smi:244-4

> <Gold.Version>
5.8.1

> <Gold.Id.Protein>
6NUR|6NUR_protein|mol2

> <Gold.PLP.Fitness>
38.1549

> <Gold.PLP.PLP>
-31.8147

> <Gold.PLP.part.hbond>
-2.6333

> <Gold.PLP.part.metal>
0.0000

> <Gold.PLP.part.buried>
-4.6453

> <Gold.PLP.part.nonpolar>
-26.9137

> <Gold.PLP.part.repulsive>
1.3539

> <Gold.PLP.ligand.clash>
0.0000

> <Gold.PLP.ligand.torsion>
1.3647

> <Gold.PLP.Chemscore.Hbond>
1.9913

> <Gold.PLP.Chemscore.CHOScore>
0.9864

> <Gold.PLP.Chemscore.Metal>
0.0000

> <Gold.Chemscore.Hbonds>
donor molecule, donor type, donor heavy atom, donor atom, acceptor molecule, acceptor atom, score
      L1  H    21    45       P1 10186  1.00
      P1  H  7989  7998       L1     6  0.29
      L1  C    17    42       P1 10171  1.00

> <Gold.PLP.Chemscore.Internal.Correction>
0.1366

> <Gold.Rescore>
     Score         DG    S(hbond)    S(metal)    S(lipo)     H(rot)  DE(clash)    DE(int)     intcor
     12.54     -14.90       1.79        0.00      75.11       2.09       0.68       1.68       ----

> <Gold.Chemscore.Fitness>
12.5403

> <Gold.Chemscore.DG>
-14.8959

> <Gold.Chemscore.ZeroCoef>
-5.4800

> <Gold.Chemscore.Hbond>
1.7908

> <Gold.Chemscore.Metal>
0.0000

> <Gold.Chemscore.Lipo>
75.1082

> <Gold.Chemscore.Internal_Hbond>
0.0000

> <Gold.Chemscore.DEClash>
0.6770

> <Gold.Chemscore.DEInternal>
1.6787

> <Gold.Chemscore.Rot>
2.0911

> <Gold.Chemscore.Internal.Correction>
   9.000000E+99

> <Gold.Chemscore.Hbonds>
donor molecule, donor type, donor heavy atom, donor atom, acceptor molecule, acceptor atom, score
      L1  H    21    45       P1 10186  0.68
      P1  H  7989  7998       L1     6  0.01

> <Gold.Chemscore.Hbond.Weighted>
-5.9814

> <Gold.Chemscore.Metal.Weighted>
-0.0000

> <Gold.Chemscore.Lipo.Weighted>
-8.7877

> <Gold.Chemscore.Internal_Hbond.Weighted>
0.0000

> <Gold.Chemscore.DEClash.Weighted>
0.6770

> <Gold.Chemscore.DEInternal.Weighted>
1.6787

> <Gold.Chemscore.Rot.Weighted>
5.3531

> <Gold.Chemscore.Internal.Correction.Weighted>
   9.000000E+99

> <Gold.Protein.RotatedTorsions>
[ 6907 6896 6895 6894 ] final  127.45 input  -60.11 | X-H torsion
[ 7974 7965 7964 7962 ] final  -18.39 input  175.53 | X-H torsion
[ 8008 7997 7996 7995 ] final  -67.46 input   59.86 | X-H torsion
[ 10167 10162 10161 10158 ] final    5.17 input  -65.29 | X-H torsion
[ 10718 10713 10712 10709 ] final -113.01 input   66.30 | X-H torsion
[ 10763 10752 10751 10750 ] final  -79.59 input  -60.55 | X-H torsion
[ 11005 11000 10999 10996 ] final  126.19 input  -57.11 | X-H torsion

> <Gold.Protein.ActiveResidues>
 VAL166  LYS551  ARG553  GLY616  TRP617  ASP618  TYR619  PRO620  LYS621  CYS622 
 ASP623  PHE694  ASN695  SER759  ASP760  ASP761  ALA762  ILE779  LEU786  VAL792 
 PHE793  MET794  SER795  GLU796  ALA797  LYS798  CYS799  TRP800  GLU811  SER814 

> <Gold.Protein.RotatedAtoms>
  152.3811  133.6548  159.6161 H   0  0  0  0  0  0  0  0  0  0  0  0  # atno 6907 bound_to 6896
  150.7742  133.9112  159.3379 H   0  0  0  0  0  0  0  0  0  0  0  0  # atno 6908 bound_to 6896
  151.6917  135.0946  160.0286 H   0  0  0  0  0  0  0  0  0  0  0  0  # atno 6909 bound_to 6896
  146.1894  140.3914  142.8464 H   0  0  0  0  0  0  0  0  0  0  0  0  # atno 7974 bound_to 7965
  154.4802  140.0892  156.7358 H   0  0  0  0  0  0  0  0  0  0  0  0  # atno 8008 bound_to 7997
  155.4491  140.3457  155.4280 H   0  0  0  0  0  0  0  0  0  0  0  0  # atno 8009 bound_to 7997
  156.1179  140.1466  156.9235 H   0  0  0  0  0  0  0  0  0  0  0  0  # atno 8010 bound_to 7997
  140.6496  143.7577  150.7554 H   0  0  0  0  0  0  0  0  0  0  0  0  # atno 10167 bound_to 10162
  156.0740  130.5950  150.8585 H   0  0  0  0  0  0  0  0  0  0  0  0  # atno 10718 bound_to 10713
  154.5406  135.5690  153.6836 H   0  0  0  0  0  0  0  0  0  0  0  0  # atno 10763 bound_to 10752
  152.9962  135.6227  154.2507 H   0  0  0  0  0  0  0  0  0  0  0  0  # atno 10764 bound_to 10752
  154.2438  135.2861  155.2823 H   0  0  0  0  0  0  0  0  0  0  0  0  # atno 10765 bound_to 10752
  139.9444  134.9631  156.8670 H   0  0  0  0  0  0  0  0  0  0  0  0  # atno 11005 bound_to 11000
  144.8458  140.6927  143.6200 LP  0  0  0  0  0  0  0  0  0  0  0  0  # atno 17320 bound_to 7965
  145.3838  139.1631  143.4266 LP  0  0  0  0  0  0  0  0  0  0  0  0  # atno 17321 bound_to 7965
  140.1225  143.4599  152.2304 LP  0  0  0  0  0  0  0  0  0  0  0  0  # atno 17342 bound_to 10162
  139.5710  144.7462  151.3891 LP  0  0  0  0  0  0  0  0  0  0  0  0  # atno 17343 bound_to 10162
  157.5827  131.0946  150.9246 LP  0  0  0  0  0  0  0  0  0  0  0  0  # atno 17370 bound_to 10713
  156.9438  130.5394  149.5281 LP  0  0  0  0  0  0  0  0  0  0  0  0  # atno 17371 bound_to 10713
  140.5872  134.0296  155.7486 LP  0  0  0  0  0  0  0  0  0  0  0  0  # atno 17394 bound_to 11000
  141.1089  133.9649  157.2946 LP  0  0  0  0  0  0  0  0  0  0  0  0  # atno 17395 bound_to 11000

$$$$
