AV-unprocessed.smi:765|AV-procd|sdf|3645|dock1
  -GOLD-   22720 1 43D 1   1.00000     0.00000
 Structure written by MMmdl.
 39 40  0  0  0  0  0  0  0  0  1 V2000
  148.9995  144.9972  160.6063 C   0  0  0  0  0  0  0  0  0  0  0  0
  150.2383  144.4575  159.8776 C   0  0  2  0  0  0  0  0  0  0  0  0
  151.1534  145.6007  159.4033 C   0  0  0  0  0  0  0  0  0  0  0  0
  152.3847  145.0658  158.6588 C   0  0  0  0  0  0  0  0  0  0  0  0
  151.9695  144.1644  157.4849 C   0  0  0  0  0  0  0  0  0  0  0  0
  151.0752  142.9887  157.9366 C   0  0  2  0  0  0  0  0  0  0  0  0
  151.8546  142.0915  158.8137 C   0  0  0  0  0  0  0  0  0  0  0  0
  152.4656  141.3893  159.5015 N   0  0  0  0  0  0  0  0  0  0  0  0
  150.6424  142.2871  156.7263 N   0  0  0  0  0  0  0  0  0  0  0  0
  150.0395  141.0878  156.6578 C   0  0  0  0  0  0  0  0  0  0  0  0
  149.7430  140.4224  157.6503 O   0  0  0  0  0  0  0  0  0  0  0  0
  149.7379  140.5663  155.2442 C   0  0  2  0  0  0  0  0  0  0  0  0
  148.2660  140.1537  155.0572 C   0  0  0  0  0  0  0  0  0  0  0  0
  150.6334  139.4668  154.9079 N   0  0  0  0  0  0  0  0  0  0  0  0
  150.3282  138.1396  154.6740 C   0  0  0  0  0  0  0  0  0  0  0  0
  151.4973  137.4945  154.3901 C   0  0  0  0  0  0  0  0  0  0  0  0
  152.4777  138.5221  154.4709 C   0  0  0  0  0  0  0  0  0  0  0  0
  151.9585  139.6996  154.7787 N   0  0  0  0  0  0  0  0  0  0  0  0
  149.8450  143.5566  158.6888 C   0  0  0  0  0  0  0  0  0  0  0  0
  148.3887  145.6155  159.9477 H   0  0  0  0  0  0  0  0  0  0  0  0
  149.2836  145.6056  161.4653 H   0  0  0  0  0  0  0  0  0  0  0  0
  148.3740  144.1829  160.9730 H   0  0  0  0  0  0  0  0  0  0  0  0
  150.7970  143.8533  160.5935 H   0  0  0  0  0  0  0  0  0  0  0  0
  150.5964  146.2711  158.7473 H   0  0  0  0  0  0  0  0  0  0  0  0
  151.4748  146.2005  160.2555 H   0  0  0  0  0  0  0  0  0  0  0  0
  152.9857  145.8983  158.2918 H   0  0  0  0  0  0  0  0  0  0  0  0
  153.0201  144.5101  159.3491 H   0  0  0  0  0  0  0  0  0  0  0  0
  151.4419  144.7691  156.7454 H   0  0  0  0  0  0  0  0  0  0  0  0
  152.8621  143.7842  156.9858 H   0  0  0  0  0  0  0  0  0  0  0  0
  150.8444  142.7488  155.8513 H   0  0  0  0  0  0  0  0  0  0  0  0
  149.9351  141.3885  154.5532 H   0  0  0  0  0  0  0  0  0  0  0  0
  147.5906  140.9746  155.3006 H   0  0  0  0  0  0  0  0  0  0  0  0
  148.0000  139.3048  155.6884 H   0  0  0  0  0  0  0  0  0  0  0  0
  148.0723  139.8678  154.0230 H   0  0  0  0  0  0  0  0  0  0  0  0
  149.3149  137.7694  154.7299 H   0  0  0  0  0  0  0  0  0  0  0  0
  151.6316  136.4483  154.1583 H   0  0  0  0  0  0  0  0  0  0  0  0
  153.5438  138.4482  154.3150 H   0  0  0  0  0  0  0  0  0  0  0  0
  149.2191  142.7414  159.0534 H   0  0  0  0  0  0  0  0  0  0  0  0
  149.2245  144.1275  157.9959 H   0  0  0  0  0  0  0  0  0  0  0  0
  1  2  1  0  0  0  0
  1 20  1  0  0  0  0
  1 21  1  0  0  0  0
  1 22  1  0  0  0  0
  2 19  1  0  0  0  0
  2  3  1  0  0  0  0
  2 23  1  0  0  0  0
  3  4  1  0  0  0  0
  3 24  1  0  0  0  0
  3 25  1  0  0  0  0
  4  5  1  0  0  0  0
  4 26  1  0  0  0  0
  4 27  1  0  0  0  0
  5  6  1  0  0  0  0
  5 28  1  0  0  0  0
  5 29  1  0  0  0  0
  6  7  1  0  0  0  0
  6  9  1  0  0  0  0
  6 19  1  0  0  0  0
  7  8  3  0  0  0  0
  9 10  1  0  0  0  0
  9 30  1  0  0  0  0
 10 11  2  0  0  0  0
 10 12  1  0  0  0  0
 12 13  1  0  0  0  0
 12 14  1  0  0  0  0
 12 31  1  0  0  0  0
 13 32  1  0  0  0  0
 13 33  1  0  0  0  0
 13 34  1  0  0  0  0
 14 18  1  0  0  0  0
 14 15  1  0  0  0  0
 15 16  2  0  0  0  0
 15 35  1  0  0  0  0
 16 17  1  0  0  0  0
 16 36  1  0  0  0  0
 17 18  2  0  0  0  0
 17 37  1  0  0  0  0
 19 38  1  0  0  0  0
 19 39  1  0  0  0  0
M  END
> <s_m_source_file>
AV-unprocessed.smi

> <i_m_source_file_index>
765

> <i_lp_mmshare_version>
43012

> <i_f3d_flags>
0

> <s_epik_input>
W0NIM11bQ0BASF0oW0NIMl0xKVtDSDJdW0NIMl1bQ0gyXVtDQEBdMShDI04pW05IXUMoPU8pW0NASF0oW0NIM10pbjJbY0hdW2NIXVtjSF1uMg==

> <s_epik_cmdline>
J2VwaWtfcHl0aG9uJywgJy1waCcsICc3LjAnLCAnLXRuJywgJzgnLCAnLW1hJywgJzIwMCcsICctbWV0YWxfYmluZGluZycsICctaW1hZScsICc8aW5maWxlLm1hZT4nLCAnLW9tYWUnLCAnPG91dGZpbGUubWFlPic=

> <r_lp_tautomer_probability>
1

> <r_epik_Ionization_Penalty>
2.71142e-05

> <r_epik_Ionization_Penalty_Charging>
0

> <r_epik_Ionization_Penalty_Neutral>
2.71142e-05

> <r_epik_State_Penalty>
-0

> <r_epik_Charging_Adjusted_Penalty>
0

> <i_epik_Tot_Q>
0

> <i_epik_Tot_abs_Q>
0

> <r_epik_Metal_State_Penalty>
-0

> <b_epik_Metal_Only>
0

> <s_lp_Force_Field>
OPLS_2005

> <r_lp_Energy>
10.9875

> <b_lp_Chiralities_Consistent>
1

> <s_lp_Variant>
AV-unprocessed.smi:765-3

> <Gold.Version>
5.8.1

> <Gold.Id.Protein>
6NUR|6NUR_protein|mol2

> <Gold.PLP.Fitness>
41.9889

> <Gold.PLP.PLP>
-40.4354

> <Gold.PLP.part.hbond>
-1.6659

> <Gold.PLP.part.metal>
0.0000

> <Gold.PLP.part.buried>
-6.7997

> <Gold.PLP.part.nonpolar>
-32.7111

> <Gold.PLP.part.repulsive>
0.1163

> <Gold.PLP.ligand.clash>
0.0000

> <Gold.PLP.ligand.torsion>
0.5318

> <Gold.PLP.Chemscore.Hbond>
0.8500

> <Gold.PLP.Chemscore.CHOScore>
0.0000

> <Gold.PLP.Chemscore.Metal>
0.0000

> <Gold.Chemscore.Hbonds>
donor molecule, donor type, donor heavy atom, donor atom, acceptor molecule, acceptor atom, score
      P1  H  7989  7998       L1    18  0.51

> <Gold.PLP.Chemscore.Internal.Correction>
0.0672

> <Gold.Rescore>
     Score         DG    S(hbond)    S(metal)    S(lipo)     H(rot)  DE(clash)    DE(int)     intcor
     12.60     -15.34       0.59        0.00      98.50       1.42       0.77       1.97       ----

> <Gold.Chemscore.Fitness>
12.6013

> <Gold.Chemscore.DG>
-15.3432

> <Gold.Chemscore.ZeroCoef>
-5.4800

> <Gold.Chemscore.Hbond>
0.5897

> <Gold.Chemscore.Metal>
0.0000

> <Gold.Chemscore.Lipo>
98.4988

> <Gold.Chemscore.Internal_Hbond>
0.0000

> <Gold.Chemscore.DEClash>
0.7746

> <Gold.Chemscore.DEInternal>
1.9672

> <Gold.Chemscore.Rot>
1.4183

> <Gold.Chemscore.Internal.Correction>
   9.000000E+99

> <Gold.Chemscore.Hbonds>
donor molecule, donor type, donor heavy atom, donor atom, acceptor molecule, acceptor atom, score
      P1  H  7989  7998       L1    18  0.03

> <Gold.Chemscore.Hbond.Weighted>
-1.9697

> <Gold.Chemscore.Metal.Weighted>
-0.0000

> <Gold.Chemscore.Lipo.Weighted>
-11.5244

> <Gold.Chemscore.Internal_Hbond.Weighted>
0.0000

> <Gold.Chemscore.DEClash.Weighted>
0.7746

> <Gold.Chemscore.DEInternal.Weighted>
1.9672

> <Gold.Chemscore.Rot.Weighted>
3.6309

> <Gold.Chemscore.Internal.Correction.Weighted>
   9.000000E+99

> <Gold.Protein.RotatedTorsions>
[ 6907 6896 6895 6894 ] final -151.99 input  -60.11 | X-H torsion
[ 7974 7965 7964 7962 ] final -133.37 input  175.53 | X-H torsion
[ 8008 7997 7996 7995 ] final  112.18 input   59.86 | X-H torsion
[ 10167 10162 10161 10158 ] final  -89.36 input  -65.29 | X-H torsion
[ 10718 10713 10712 10709 ] final  124.13 input   66.30 | X-H torsion
[ 10763 10752 10751 10750 ] final -139.25 input  -60.55 | X-H torsion
[ 11005 11000 10999 10996 ] final  170.34 input  -57.11 | X-H torsion

> <Gold.Protein.ActiveResidues>
 VAL166  LYS551  ARG553  GLY616  TRP617  ASP618  TYR619  PRO620  LYS621  CYS622 
 ASP623  PHE694  ASN695  SER759  ASP760  ASP761  ALA762  ILE779  LEU786  VAL792 
 PHE793  MET794  SER795  GLU796  ALA797  LYS798  CYS799  TRP800  GLU811  SER814 

> <Gold.Protein.RotatedAtoms>
  151.2212  133.4501  159.2600 H   0  0  0  0  0  0  0  0  0  0  0  0  # atno 6907 bound_to 6896
  151.0883  134.9901  159.8400 H   0  0  0  0  0  0  0  0  0  0  0  0  # atno 6908 bound_to 6896
  152.5432  134.2147  159.8817 H   0  0  0  0  0  0  0  0  0  0  0  0  # atno 6909 bound_to 6896
  144.9200  140.7002  143.4971 H   0  0  0  0  0  0  0  0  0  0  0  0  # atno 7974 bound_to 7965
  156.2175  140.3004  155.9873 H   0  0  0  0  0  0  0  0  0  0  0  0  # atno 8008 bound_to 7997
  155.2568  140.0428  157.3010 H   0  0  0  0  0  0  0  0  0  0  0  0  # atno 8009 bound_to 7997
  154.5789  140.2369  155.8090 H   0  0  0  0  0  0  0  0  0  0  0  0  # atno 8010 bound_to 7997
  140.3656  143.2820  151.9563 H   0  0  0  0  0  0  0  0  0  0  0  0  # atno 10167 bound_to 10162
  157.5609  131.1089  150.8539 H   0  0  0  0  0  0  0  0  0  0  0  0  # atno 10718 bound_to 10713
  154.8614  135.3588  154.5516 H   0  0  0  0  0  0  0  0  0  0  0  0  # atno 10763 bound_to 10752
  153.6134  135.7008  153.5343 H   0  0  0  0  0  0  0  0  0  0  0  0  # atno 10764 bound_to 10752
  153.3190  135.4156  155.1361 H   0  0  0  0  0  0  0  0  0  0  0  0  # atno 10765 bound_to 10752
  140.3073  134.7546  157.3964 H   0  0  0  0  0  0  0  0  0  0  0  0  # atno 11005 bound_to 11000
  145.3312  139.1759  143.4535 LP  0  0  0  0  0  0  0  0  0  0  0  0  # atno 17320 bound_to 7965
  146.3200  140.3342  142.8643 LP  0  0  0  0  0  0  0  0  0  0  0  0  # atno 17321 bound_to 7965
  139.4809  144.5954  151.7700 LP  0  0  0  0  0  0  0  0  0  0  0  0  # atno 17342 bound_to 10162
  140.5084  144.1062  150.5988 LP  0  0  0  0  0  0  0  0  0  0  0  0  # atno 17343 bound_to 10162
  156.9037  130.5256  149.5282 LP  0  0  0  0  0  0  0  0  0  0  0  0  # atno 17370 bound_to 10713
  156.0662  130.5705  150.9293 LP  0  0  0  0  0  0  0  0  0  0  0  0  # atno 17371 bound_to 10713
  140.1056  134.5414  155.8313 LP  0  0  0  0  0  0  0  0  0  0  0  0  # atno 17394 bound_to 11000
  141.2115  133.6708  156.6592 LP  0  0  0  0  0  0  0  0  0  0  0  0  # atno 17395 bound_to 11000

$$$$
