AV-unprocessed.smi:126|AV-procd|sdf|1152|dock1
  -GOLD-   2262018283D 1   1.00000     0.00000
 Structure written by MMmdl.
 40 42  0  0  0  0  0  0  0  0  1 V2000
  154.9784  139.9898  159.0391 O   0  0  0  0  0  0  0  0  0  0  0  0
  154.9967  139.7256  160.2421 C   0  0  0  0  0  0  0  0  0  0  0  0
  155.7196  138.4686  160.7509 C   0  0  0  0  0  0  0  0  0  0  0  0
  155.5545  138.2436  162.2039 N   0  0  0  0  0  0  0  0  0  0  0  0
  154.6795  137.2147  162.6325 C   0  0  0  0  0  0  0  0  0  0  0  0
  154.0738  136.5131  161.8207 O   0  0  0  0  0  0  0  0  0  0  0  0
  154.5503  137.0580  164.0769 C   0  0  0  0  0  0  0  0  0  0  0  0
  153.7478  136.1010  164.5731 F   0  0  0  0  0  0  0  0  0  0  0  0
  155.2262  137.8588  164.9262 C   0  0  0  0  0  0  0  0  0  0  0  0
  156.0693  138.8668  164.4935 N   0  0  0  0  0  0  0  0  0  0  0  0
  156.8186  139.7588  165.4603 C   0  0  1  0  0  0  0  0  0  0  0  0
  156.3913  141.2277  165.2845 C   0  0  0  0  0  0  0  0  0  0  0  0
  156.0757  141.6540  166.7042 C   0  0  0  0  0  0  0  0  0  0  0  0
  155.6098  140.3467  167.3273 C   0  0  0  0  0  0  0  0  0  0  0  0
  156.5127  139.3963  166.7771 O   0  0  0  0  0  0  0  0  0  0  0  0
  156.2495  139.0798  163.1096 C   0  0  0  0  0  0  0  0  0  0  0  0
  156.9904  139.9786  162.7052 O   0  0  0  0  0  0  0  0  0  0  0  0
  154.3785  140.4529  161.1903 N   0  0  0  0  0  0  0  0  0  0  0  0
  153.6624  141.6718  161.0455 C   0  0  0  0  0  0  0  0  0  0  0  0
  153.3374  142.3761  162.2241 C   0  0  0  0  0  0  0  0  0  0  0  0
  152.6481  143.6022  162.1566 C   0  0  0  0  0  0  0  0  0  0  0  0
  152.2890  144.1406  160.9067 C   0  0  0  0  0  0  0  0  0  0  0  0
  152.6245  143.4541  159.7247 C   0  0  0  0  0  0  0  0  0  0  0  0
  153.3125  142.2267  159.7902 C   0  0  0  0  0  0  0  0  0  0  0  0
  155.3635  137.6019  160.1909 H   0  0  0  0  0  0  0  0  0  0  0  0
  156.7721  138.5464  160.4745 H   0  0  0  0  0  0  0  0  0  0  0  0
  155.0884  137.6888  165.9828 H   0  0  0  0  0  0  0  0  0  0  0  0
  157.8781  139.5756  165.2741 H   0  0  0  0  0  0  0  0  0  0  0  0
  157.1858  141.8147  164.8230 H   0  0  0  0  0  0  0  0  0  0  0  0
  155.4972  141.2886  164.6617 H   0  0  0  0  0  0  0  0  0  0  0  0
  156.9810  142.0040  167.2020 H   0  0  0  0  0  0  0  0  0  0  0  0
  155.3263  142.4440  166.7573 H   0  0  0  0  0  0  0  0  0  0  0  0
  155.6533  140.3577  168.4165 H   0  0  0  0  0  0  0  0  0  0  0  0
  154.5876  140.1155  167.0247 H   0  0  0  0  0  0  0  0  0  0  0  0
  154.3810  140.0597  162.1202 H   0  0  0  0  0  0  0  0  0  0  0  0
  153.6115  141.9744  163.1888 H   0  0  0  0  0  0  0  0  0  0  0  0
  152.3968  144.1308  163.0642 H   0  0  0  0  0  0  0  0  0  0  0  0
  151.7622  145.0821  160.8546 H   0  0  0  0  0  0  0  0  0  0  0  0
  152.3592  143.8719  158.7646 H   0  0  0  0  0  0  0  0  0  0  0  0
  153.5750  141.7369  158.8653 H   0  0  0  0  0  0  0  0  0  0  0  0
  1  2  2  0  0  0  0
  2  3  1  0  0  0  0
  2 18  1  0  0  0  0
  3  4  1  0  0  0  0
  3 25  1  0  0  0  0
  3 26  1  0  0  0  0
  4 16  1  0  0  0  0
  4  5  1  0  0  0  0
  5  6  2  0  0  0  0
  5  7  1  0  0  0  0
  7  8  1  0  0  0  0
  7  9  2  0  0  0  0
  9 10  1  0  0  0  0
  9 27  1  0  0  0  0
 10 11  1  0  0  0  0
 10 16  1  0  0  0  0
 11 15  1  0  0  0  0
 11 12  1  0  0  0  0
 11 28  1  0  0  0  0
 12 13  1  0  0  0  0
 12 29  1  0  0  0  0
 12 30  1  0  0  0  0
 13 14  1  0  0  0  0
 13 31  1  0  0  0  0
 13 32  1  0  0  0  0
 14 15  1  0  0  0  0
 14 33  1  0  0  0  0
 14 34  1  0  0  0  0
 16 17  2  0  0  0  0
 18 19  1  0  0  0  0
 18 35  1  0  0  0  0
 19 24  1  0  0  0  0
 19 20  2  0  0  0  0
 20 21  1  0  0  0  0
 20 36  1  0  0  0  0
 21 22  2  0  0  0  0
 21 37  1  0  0  0  0
 22 23  1  0  0  0  0
 22 38  1  0  0  0  0
 23 24  2  0  0  0  0
 23 39  1  0  0  0  0
 24 40  1  0  0  0  0
M  END
> <s_m_source_file>
AV-unprocessed.smi

> <i_m_source_file_index>
126

> <i_lp_mmshare_version>
43012

> <i_f3d_flags>
0

> <s_epik_input>
W2NIXTFbY0hdW2NIXVtjSF1bY0hdYzFbTkhdQyg9TylbQ0gyXW4yYyg9TyljKEYpW2NIXW4oYzI9TylbQ0BASF0zW0NIMl1bQ0gyXVtDSDJdTzM=

> <s_epik_cmdline>
J2VwaWtfcHl0aG9uJywgJy1waCcsICc3LjAnLCAnLXRuJywgJzgnLCAnLW1hJywgJzIwMCcsICctbWV0YWxfYmluZGluZycsICctaW1hZScsICc8aW5maWxlLm1hZT4nLCAnLW9tYWUnLCAnPG91dGZpbGUubWFlPic=

> <r_lp_tautomer_probability>
1

> <r_epik_Ionization_Penalty>
1.86934e-06

> <r_epik_Ionization_Penalty_Charging>
3.88729e-08

> <r_epik_Ionization_Penalty_Neutral>
1.83046e-06

> <r_epik_State_Penalty>
-0

> <r_epik_Charging_Adjusted_Penalty>
3.88729e-08

> <i_epik_Tot_Q>
0

> <i_epik_Tot_abs_Q>
0

> <r_epik_Metal_State_Penalty>
-0

> <b_epik_Metal_Only>
0

> <s_epik_Chemistry_Notes>
This compound contains an acetal/aminal-like group ( X-CH(R)-Y where X, Y are N, S, or O) that may be acid/base labile, releasing an aldehyde.

> <s_lp_Force_Field>
OPLS_2005

> <r_lp_Energy>
33.9476

> <b_lp_Chiralities_Consistent>
1

> <s_lp_Variant>
AV-unprocessed.smi:126-2

> <Gold.Version>
5.8.1

> <Gold.Id.Protein>
6NUR|6NUR_protein|mol2

> <Gold.PLP.Fitness>
52.8762

> <Gold.PLP.PLP>
-50.2405

> <Gold.PLP.part.hbond>
-1.9614

> <Gold.PLP.part.metal>
0.0000

> <Gold.PLP.part.buried>
-4.9186

> <Gold.PLP.part.nonpolar>
-43.4073

> <Gold.PLP.part.repulsive>
0.0692

> <Gold.PLP.ligand.clash>
0.0000

> <Gold.PLP.ligand.torsion>
0.2109

> <Gold.PLP.Chemscore.Hbond>
1.0000

> <Gold.PLP.Chemscore.CHOScore>
0.0000

> <Gold.PLP.Chemscore.Metal>
0.0000

> <Gold.Chemscore.Hbonds>
donor molecule, donor type, donor heavy atom, donor atom, acceptor molecule, acceptor atom, score
      P1  H  7997  8008       L1     1  1.00

> <Gold.PLP.Chemscore.Internal.Correction>
0.0576

> <Gold.Rescore>
     Score         DG    S(hbond)    S(metal)    S(lipo)     H(rot)  DE(clash)    DE(int)     intcor
     13.73     -16.53       0.99        0.00     102.61       1.66       0.05       2.75       ----

> <Gold.Chemscore.Fitness>
13.7322

> <Gold.Chemscore.DG>
-16.5292

> <Gold.Chemscore.ZeroCoef>
-5.4800

> <Gold.Chemscore.Hbond>
0.9878

> <Gold.Chemscore.Metal>
0.0000

> <Gold.Chemscore.Lipo>
102.6050

> <Gold.Chemscore.Internal_Hbond>
0.0000

> <Gold.Chemscore.DEClash>
0.0460

> <Gold.Chemscore.DEInternal>
2.7510

> <Gold.Chemscore.Rot>
1.6621

> <Gold.Chemscore.Internal.Correction>
   9.000000E+99

> <Gold.Chemscore.Hbonds>
donor molecule, donor type, donor heavy atom, donor atom, acceptor molecule, acceptor atom, score
      P1  H  7997  8008       L1     1  0.95

> <Gold.Chemscore.Hbond.Weighted>
-3.2994

> <Gold.Chemscore.Metal.Weighted>
-0.0000

> <Gold.Chemscore.Lipo.Weighted>
-12.0048

> <Gold.Chemscore.Internal_Hbond.Weighted>
0.0000

> <Gold.Chemscore.DEClash.Weighted>
0.0460

> <Gold.Chemscore.DEInternal.Weighted>
2.7510

> <Gold.Chemscore.Rot.Weighted>
4.2550

> <Gold.Chemscore.Internal.Correction.Weighted>
   9.000000E+99

> <Gold.Protein.RotatedTorsions>
[ 6907 6896 6895 6894 ] final   93.05 input  -60.11 | X-H torsion
[ 7974 7965 7964 7962 ] final  113.50 input  175.53 | X-H torsion
[ 8008 7997 7996 7995 ] final -119.56 input   59.86 | X-H torsion
[ 10167 10162 10161 10158 ] final   48.97 input  -65.29 | X-H torsion
[ 10718 10713 10712 10709 ] final  -50.34 input   66.30 | X-H torsion
[ 10763 10752 10751 10750 ] final  113.51 input  -60.55 | X-H torsion
[ 11005 11000 10999 10996 ] final   77.86 input  -57.11 | X-H torsion

> <Gold.Protein.ActiveResidues>
 VAL166  LYS551  ARG553  GLY616  TRP617  ASP618  TYR619  PRO620  LYS621  CYS622 
 ASP623  PHE694  ASN695  SER759  ASP760  ASP761  ALA762  ILE779  LEU786  VAL792 
 PHE793  MET794  SER795  GLU796  ALA797  LYS798  CYS799  TRP800  GLU811  SER814 

> <Gold.Protein.RotatedAtoms>
  152.5453  134.1407  159.8477 H   0  0  0  0  0  0  0  0  0  0  0  0  # atno 6907 bound_to 6896
  151.1444  133.4942  159.2604 H   0  0  0  0  0  0  0  0  0  0  0  0  # atno 6908 bound_to 6896
  151.1539  135.0251  159.8735 H   0  0  0  0  0  0  0  0  0  0  0  0  # atno 6909 bound_to 6896
  145.2162  139.2883  143.4242 H   0  0  0  0  0  0  0  0  0  0  0  0  # atno 7974 bound_to 7965
  155.1177  140.0398  157.2741 H   0  0  0  0  0  0  0  0  0  0  0  0  # atno 8008 bound_to 7997
  154.6637  140.2596  155.7055 H   0  0  0  0  0  0  0  0  0  0  0  0  # atno 8009 bound_to 7997
  156.2630  140.2812  156.1119 H   0  0  0  0  0  0  0  0  0  0  0  0  # atno 8010 bound_to 7997
  140.2877  144.3082  150.6248 H   0  0  0  0  0  0  0  0  0  0  0  0  # atno 10167 bound_to 10162
  156.1810  130.4150  149.9507 H   0  0  0  0  0  0  0  0  0  0  0  0  # atno 10718 bound_to 10713
  153.4936  135.3653  155.2504 H   0  0  0  0  0  0  0  0  0  0  0  0  # atno 10763 bound_to 10752
  154.8751  135.3983  154.3561 H   0  0  0  0  0  0  0  0  0  0  0  0  # atno 10764 bound_to 10752
  153.4184  135.7079  153.6376 H   0  0  0  0  0  0  0  0  0  0  0  0  # atno 10765 bound_to 10752
  139.9237  134.7717  156.1576 H   0  0  0  0  0  0  0  0  0  0  0  0  # atno 11005 bound_to 11000
  146.3386  140.2453  142.8597 LP  0  0  0  0  0  0  0  0  0  0  0  0  # atno 17320 bound_to 7965
  144.9809  140.8458  143.5398 LP  0  0  0  0  0  0  0  0  0  0  0  0  # atno 17321 bound_to 7965
  140.5758  143.2176  151.7517 LP  0  0  0  0  0  0  0  0  0  0  0  0  # atno 17342 bound_to 10162
  139.4946  144.4151  152.0038 LP  0  0  0  0  0  0  0  0  0  0  0  0  # atno 17343 bound_to 10162
  156.7277  130.9031  151.3623 LP  0  0  0  0  0  0  0  0  0  0  0  0  # atno 17370 bound_to 10713
  157.6868  130.9193  150.0407 LP  0  0  0  0  0  0  0  0  0  0  0  0  # atno 17371 bound_to 10713
  141.0778  133.6768  156.2272 LP  0  0  0  0  0  0  0  0  0  0  0  0  # atno 17394 bound_to 11000
  140.6400  134.5176  157.5568 LP  0  0  0  0  0  0  0  0  0  0  0  0  # atno 17395 bound_to 11000

$$$$
