AV-unprocessed.smi:101|AV-procd|sdf|929|dock9
  -GOLD-   2262017443D 1   1.00000     0.00000
 Structure written by MMmdl.
 43 45  0  0  0  0  0  0  0  0  2 V2000
  148.2959  135.5817  157.2980 C   0  0  0  0  0  0  0  0  0  0  0  0
  149.3575  136.1753  156.3881 C   0  0  0  0  0  0  0  0  0  0  0  0
  149.1597  137.3206  155.6986 C   0  0  0  0  0  0  0  0  0  0  0  0
  150.1277  137.8664  154.8673 N   0  0  0  0  0  0  0  0  0  0  0  0
  149.9339  139.2079  154.1665 C   0  0  2  0  0  0  0  0  0  0  0  0
  150.9072  140.0814  154.6444 O   0  0  0  0  0  0  0  0  0  0  0  0
  150.3754  140.7850  155.7579 C   0  0  1  0  0  0  0  0  0  0  0  0
  151.2423  142.0073  156.0933 C   0  0  0  0  0  0  0  0  0  0  0  0
  151.3595  142.1078  157.5027 O   0  0  0  0  0  0  0  0  0  0  0  0
  152.2171  141.3138  158.1701 C   0  0  0  0  0  0  0  0  0  0  0  0
  152.6934  140.2776  157.7020 O   0  0  0  0  0  0  0  0  0  0  0  0
  152.5332  141.8230  159.5359 C   0  0  0  0  0  0  0  0  0  0  0  0
  153.4674  141.1260  160.3373 C   0  0  0  0  0  0  0  0  0  0  0  0
  153.7864  141.5846  161.6304 C   0  0  0  0  0  0  0  0  0  0  0  0
  153.1752  142.7458  162.1381 C   0  0  0  0  0  0  0  0  0  0  0  0
  152.2437  143.4478  161.3512 C   0  0  0  0  0  0  0  0  0  0  0  0
  151.9227  142.9905  160.0581 C   0  0  0  0  0  0  0  0  0  0  0  0
  148.9267  141.0715  155.3234 C   0  0  1  0  0  0  0  0  0  0  0  0
  148.8351  142.3196  154.6535 O   0  0  0  0  0  0  0  0  0  0  0  0
  148.5659  139.8779  154.4212 C   0  0  1  0  0  0  0  0  0  0  0  0
  147.9275  140.2652  153.2183 O   0  0  0  0  0  0  0  0  0  0  0  0
  151.4115  137.2549  154.8198 C   0  0  0  0  0  0  0  0  0  0  0  0
  152.2978  137.8048  154.1657 O   0  0  0  0  0  0  0  0  0  0  0  0
  151.6145  136.0885  155.4960 N   0  5  0  0  0  0  0  0  0  0  0  0
  150.6533  135.5016  156.2631 C   0  0  0  0  0  0  0  0  0  0  0  0
  150.8442  134.4384  156.8528 O   0  0  0  0  0  0  0  0  0  0  0  0
  147.3919  136.1909  157.3046 H   0  0  0  0  0  0  0  0  0  0  0  0
  148.6662  135.5144  158.3214 H   0  0  0  0  0  0  0  0  0  0  0  0
  148.0252  134.5799  156.9632 H   0  0  0  0  0  0  0  0  0  0  0  0
  148.2149  137.8232  155.8301 H   0  0  0  0  0  0  0  0  0  0  0  0
  150.0811  139.0114  153.1037 H   0  0  0  0  0  0  0  0  0  0  0  0
  150.3567  140.1211  156.6229 H   0  0  0  0  0  0  0  0  0  0  0  0
  152.2259  141.9233  155.6286 H   0  0  0  0  0  0  0  0  0  0  0  0
  150.7703  142.9149  155.7143 H   0  0  0  0  0  0  0  0  0  0  0  0
  153.9497  140.2320  159.9690 H   0  0  0  0  0  0  0  0  0  0  0  0
  154.5014  141.0439  162.2329 H   0  0  0  0  0  0  0  0  0  0  0  0
  153.4202  143.0976  163.1295 H   0  0  0  0  0  0  0  0  0  0  0  0
  151.7729  144.3392  161.7393 H   0  0  0  0  0  0  0  0  0  0  0  0
  151.2023  143.5527  159.4817 H   0  0  0  0  0  0  0  0  0  0  0  0
  148.2676  141.1169  156.1908 H   0  0  0  0  0  0  0  0  0  0  0  0
  148.8418  143.0092  155.2993 H   0  0  0  0  0  0  0  0  0  0  0  0
  147.8769  139.1931  154.9113 H   0  0  0  0  0  0  0  0  0  0  0  0
  148.5136  140.0774  152.5008 H   0  0  0  0  0  0  0  0  0  0  0  0
  1  2  1  0  0  0  0
  1 27  1  0  0  0  0
  1 28  1  0  0  0  0
  1 29  1  0  0  0  0
  2 25  1  0  0  0  0
  2  3  2  0  0  0  0
  3  4  1  0  0  0  0
  3 30  1  0  0  0  0
  4  5  1  0  0  0  0
  4 22  1  0  0  0  0
  5 20  1  0  0  0  0
  5  6  1  0  0  0  0
  5 31  1  0  0  0  0
  6  7  1  0  0  0  0
  7  8  1  0  0  0  0
  7 18  1  0  0  0  0
  7 32  1  0  0  0  0
  8  9  1  0  0  0  0
  8 33  1  0  0  0  0
  8 34  1  0  0  0  0
  9 10  1  0  0  0  0
 10 11  2  0  0  0  0
 10 12  1  0  0  0  0
 12 17  1  0  0  0  0
 12 13  2  0  0  0  0
 13 14  1  0  0  0  0
 13 35  1  0  0  0  0
 14 15  2  0  0  0  0
 14 36  1  0  0  0  0
 15 16  1  0  0  0  0
 15 37  1  0  0  0  0
 16 17  2  0  0  0  0
 16 38  1  0  0  0  0
 17 39  1  0  0  0  0
 18 19  1  0  0  0  0
 18 20  1  0  0  0  0
 18 40  1  0  0  0  0
 19 41  1  0  0  0  0
 20 21  1  0  0  0  0
 20 42  1  0  0  0  0
 21 43  1  0  0  0  0
 22 23  2  0  0  0  0
 22 24  1  0  0  0  0
 24 25  1  0  0  0  0
 25 26  2  0  0  0  0
M  CHG  1  24  -1
M  END
> <s_m_source_file>
AV-unprocessed.smi

> <i_m_source_file_index>
101

> <i_lp_mmshare_version>
43012

> <i_f3d_flags>
0

> <s_epik_input>
Tz1jMVtuSF1jKD1PKW4oW2NIXWMxW0NIM10pW0NAQEhdMk9bQ0BIXShbQ0BASF0oW09IXSlbQ0BIXTJbT0hdKVtDSDJdT0MoPU8pYzNbY0hdW2NIXVtjSF1bY0hdW2NIXTM=

> <s_epik_cmdline>
J2VwaWtfcHl0aG9uJywgJy1waCcsICc3LjAnLCAnLXRuJywgJzgnLCAnLW1hJywgJzIwMCcsICctbWV0YWxfYmluZGluZycsICctaW1hZScsICc8aW5maWxlLm1hZT4nLCAnLW9tYWUnLCAnPG91dGZpbGUubWFlPic=

> <r_lp_tautomer_probability>
0.999537

> <r_epik_Ionization_Penalty>
3.21006

> <r_epik_Ionization_Penalty_Charging>
5.75142e-08

> <r_epik_Ionization_Penalty_Neutral>
3.21006

> <r_epik_State_Penalty>
3.20925

> <r_epik_Charging_Adjusted_Penalty>
3.20925

> <i_epik_Tot_Q>
-1

> <i_epik_Tot_abs_Q>
1

> <r_epik_Metal_State_Penalty>
0.119957

> <b_epik_Metal_Only>
1

> <s_epik_Chemistry_Notes>
This compound has an ester and may undergo hydrolysis at high or low pH. This compound contains an acetal/aminal-like group ( X-CH(R)-Y where X, Y are N, S, or O) that may be acid/base labile, releasing an aldehyde.

> <s_lp_Force_Field>
OPLS_2005

> <r_lp_Energy>
45.1107

> <b_lp_Chiralities_Consistent>
1

> <s_lp_Variant>
AV-unprocessed.smi:101-17

> <Gold.Version>
5.8.1

> <Gold.Id.Protein>
6NUR|6NUR_protein|mol2

> <Gold.PLP.Fitness>
63.9531

> <Gold.PLP.PLP>
-47.8531

> <Gold.PLP.part.hbond>
-7.7406

> <Gold.PLP.part.metal>
0.0000

> <Gold.PLP.part.buried>
-8.6400

> <Gold.PLP.part.nonpolar>
-32.1581

> <Gold.PLP.part.repulsive>
0.3417

> <Gold.PLP.ligand.clash>
0.0000

> <Gold.PLP.ligand.torsion>
0.9835

> <Gold.PLP.Chemscore.Hbond>
5.9753

> <Gold.PLP.Chemscore.CHOScore>
0.0000

> <Gold.PLP.Chemscore.Metal>
0.0000

> <Gold.Chemscore.Hbonds>
donor molecule, donor type, donor heavy atom, donor atom, acceptor molecule, acceptor atom, score
      L1  H    19    41       P1  8028  0.96
      L1  H    21    43       P1  7957  1.00
      P1  H  7989  7998       L1     6  1.00
      P1  H  7997  8009       L1    11  0.96
      P1  H 10752 10764       L1    24  2.00

> <Gold.PLP.Chemscore.Internal.Correction>
0.1412

> <Gold.Rescore>
     Score         DG    S(hbond)    S(metal)    S(lipo)     H(rot)  DE(clash)    DE(int)     intcor
     20.44     -23.24       4.52        0.00      94.11       3.27       0.17       2.63       ----

> <Gold.Chemscore.Fitness>
20.4416

> <Gold.Chemscore.DG>
-23.2429

> <Gold.Chemscore.ZeroCoef>
-5.4800

> <Gold.Chemscore.Hbond>
4.5243

> <Gold.Chemscore.Metal>
0.0000

> <Gold.Chemscore.Lipo>
94.1148

> <Gold.Chemscore.Internal_Hbond>
0.0000

> <Gold.Chemscore.DEClash>
0.1738

> <Gold.Chemscore.DEInternal>
2.6275

> <Gold.Chemscore.Rot>
3.2656

> <Gold.Chemscore.Internal.Correction>
   9.000000E+99

> <Gold.Chemscore.Hbonds>
donor molecule, donor type, donor heavy atom, donor atom, acceptor molecule, acceptor atom, score
      L1  H    19    41       P1  8028  0.92
      L1  H    21    43       P1  7957  1.00
      P1  H  7989  7998       L1     6  0.81
      P1  H  7997  8009       L1    11  0.90
      P1  H 10752 10764       L1    24  0.50

> <Gold.Chemscore.Hbond.Weighted>
-15.1113

> <Gold.Chemscore.Metal.Weighted>
-0.0000

> <Gold.Chemscore.Lipo.Weighted>
-11.0114

> <Gold.Chemscore.Internal_Hbond.Weighted>
0.0000

> <Gold.Chemscore.DEClash.Weighted>
0.1738

> <Gold.Chemscore.DEInternal.Weighted>
2.6275

> <Gold.Chemscore.Rot.Weighted>
8.3598

> <Gold.Chemscore.Internal.Correction.Weighted>
   9.000000E+99

> <Gold.Protein.RotatedTorsions>
[ 6907 6896 6895 6894 ] final   32.18 input  -60.11 | X-H torsion
[ 7974 7965 7964 7962 ] final -105.41 input  175.53 | X-H torsion
[ 8008 7997 7996 7995 ] final  169.19 input   59.86 | X-H torsion
[ 10167 10162 10161 10158 ] final   92.33 input  -65.29 | X-H torsion
[ 10718 10713 10712 10709 ] final   98.31 input   66.30 | X-H torsion
[ 10763 10752 10751 10750 ] final  -37.45 input  -60.55 | X-H torsion
[ 11005 11000 10999 10996 ] final   67.33 input  -57.11 | X-H torsion

> <Gold.Protein.ActiveResidues>
 VAL166  LYS551  ARG553  GLY616  TRP617  ASP618  TYR619  PRO620  LYS621  CYS622 
 ASP623  PHE694  ASN695  SER759  ASP760  ASP761  ALA762  ILE779  LEU786  VAL792 
 PHE793  MET794  SER795  GLU796  ALA797  LYS798  CYS799  TRP800  GLU811  SER814 

> <Gold.Protein.RotatedAtoms>
  152.0708  134.9534  160.0574 H   0  0  0  0  0  0  0  0  0  0  0  0  # atno 6907 bound_to 6896
  152.0861  133.4172  159.4531 H   0  0  0  0  0  0  0  0  0  0  0  0  # atno 6908 bound_to 6896
  150.6836  134.2845  159.4684 H   0  0  0  0  0  0  0  0  0  0  0  0  # atno 6909 bound_to 6896
  145.2308  140.9170  143.3206 H   0  0  0  0  0  0  0  0  0  0  0  0  # atno 7974 bound_to 7965
  156.1480  140.1571  156.8816 H   0  0  0  0  0  0  0  0  0  0  0  0  # atno 8008 bound_to 7997
  154.5045  140.0816  156.7904 H   0  0  0  0  0  0  0  0  0  0  0  0  # atno 8009 bound_to 7997
  155.3951  140.3412  155.4256 H   0  0  0  0  0  0  0  0  0  0  0  0  # atno 8010 bound_to 7997
  139.8288  144.6697  150.9426 H   0  0  0  0  0  0  0  0  0  0  0  0  # atno 10167 bound_to 10162
  157.6898  131.0636  150.4777 H   0  0  0  0  0  0  0  0  0  0  0  0  # atno 10718 bound_to 10713
  153.8965  135.6807  153.4757 H   0  0  0  0  0  0  0  0  0  0  0  0  # atno 10763 bound_to 10752
  153.1152  135.4764  154.9101 H   0  0  0  0  0  0  0  0  0  0  0  0  # atno 10764 bound_to 10752
  154.7596  135.3207  154.8357 H   0  0  0  0  0  0  0  0  0  0  0  0  # atno 10765 bound_to 10752
  139.9777  134.6794  156.0321 H   0  0  0  0  0  0  0  0  0  0  0  0  # atno 11005 bound_to 11000
  144.9678  139.3911  143.6324 LP  0  0  0  0  0  0  0  0  0  0  0  0  # atno 17320 bound_to 7965
  146.3353  139.8762  142.8832 LP  0  0  0  0  0  0  0  0  0  0  0  0  # atno 17321 bound_to 7965
  140.7808  143.4021  151.1132 LP  0  0  0  0  0  0  0  0  0  0  0  0  # atno 17342 bound_to 10162
  139.7676  143.8542  152.3114 LP  0  0  0  0  0  0  0  0  0  0  0  0  # atno 17343 bound_to 10162
  156.5111  130.4139  149.6301 LP  0  0  0  0  0  0  0  0  0  0  0  0  # atno 17370 bound_to 10713
  156.3240  130.7296  151.2213 LP  0  0  0  0  0  0  0  0  0  0  0  0  # atno 17371 bound_to 10713
  141.1453  133.6557  156.3849 LP  0  0  0  0  0  0  0  0  0  0  0  0  # atno 17394 bound_to 11000
  140.5160  134.6350  157.5301 LP  0  0  0  0  0  0  0  0  0  0  0  0  # atno 17395 bound_to 11000

$$$$
