AV-unprocessed.smi:1525|AV-procd|sdf|6143|dock8
  -GOLD-   22720 6293D 1   1.00000     0.00000
 Structure written by MMmdl.
 49 51  0  0  0  0  0  0  0  0  2 V2000
  149.6577  133.4853  155.5012 O   0  0  0  0  0  0  0  0  0  0  0  0
  149.4373  134.2268  154.5437 C   0  0  0  0  0  0  0  0  0  0  0  0
  149.9010  135.4811  154.4543 N   0  0  0  0  0  0  0  0  0  0  0  0
  150.7081  136.1469  155.4694 C   0  0  0  0  0  0  0  0  0  0  0  0
  150.9162  137.6333  155.1246 C   0  0  0  0  0  0  0  0  0  0  0  0
  151.0406  138.5225  156.2777 N   0  0  0  0  0  0  0  0  0  0  0  0
  152.0702  138.0444  157.1948 C   0  0  0  0  0  0  0  0  0  0  0  0
  152.2256  138.9642  158.4183 C   0  0  0  0  0  0  0  0  0  0  0  0
  152.5163  140.2883  157.9836 O   0  0  0  0  0  0  0  0  0  0  0  0
  151.5133  140.8141  157.1208 C   0  0  0  0  0  0  0  0  0  0  0  0
  151.3509  139.8984  155.8944 C   0  0  0  0  0  0  0  0  0  0  0  0
  148.6913  133.9049  153.4737 N   0  0  0  0  0  0  0  0  0  0  0  0
  148.0190  132.6770  153.2125 C   0  0  0  0  0  0  0  0  0  0  0  0
  148.5691  131.4256  153.5911 C   0  0  0  0  0  0  0  0  0  0  0  0
  147.8698  130.2374  153.3040 C   0  0  0  0  0  0  0  0  0  0  0  0
  146.6359  130.3168  152.6344 C   0  0  0  0  0  0  0  0  0  0  0  0
  146.1477  131.5214  152.2727 N   0  3  0  0  0  0  0  0  0  0  0  0
  146.7752  132.6972  152.5235 C   0  0  0  0  0  0  0  0  0  0  0  0
  146.1816  133.8963  152.0745 N   0  0  0  0  0  0  0  0  0  0  0  0
  146.1459  134.0342  150.6206 C   0  0  0  0  0  0  0  0  0  0  0  0
  144.8078  134.6936  150.2770 C   0  0  0  0  0  0  0  0  0  0  0  0
  143.9151  134.3028  151.4484 C   0  0  0  0  0  0  0  0  0  0  0  0
  144.8917  134.3132  152.6221 C   0  0  0  0  0  0  0  0  0  0  0  0
  149.6712  136.0204  153.6327 H   0  0  0  0  0  0  0  0  0  0  0  0
  150.2371  136.0247  156.4455 H   0  0  0  0  0  0  0  0  0  0  0  0
  151.6715  135.6396  155.5224 H   0  0  0  0  0  0  0  0  0  0  0  0
  151.8256  137.7085  154.5266 H   0  0  0  0  0  0  0  0  0  0  0  0
  150.1061  137.9801  154.4810 H   0  0  0  0  0  0  0  0  0  0  0  0
  151.8265  137.0365  157.5324 H   0  0  0  0  0  0  0  0  0  0  0  0
  153.0264  137.9759  156.6737 H   0  0  0  0  0  0  0  0  0  0  0  0
  151.3167  138.9624  159.0220 H   0  0  0  0  0  0  0  0  0  0  0  0
  153.0358  138.6127  159.0571 H   0  0  0  0  0  0  0  0  0  0  0  0
  150.5703  140.9046  157.6621 H   0  0  0  0  0  0  0  0  0  0  0  0
  151.8012  141.8180  156.8091 H   0  0  0  0  0  0  0  0  0  0  0  0
  152.2683  139.9203  155.3041 H   0  0  0  0  0  0  0  0  0  0  0  0
  150.5619  140.3038  155.2619 H   0  0  0  0  0  0  0  0  0  0  0  0
  148.5104  134.6503  152.8177 H   0  0  0  0  0  0  0  0  0  0  0  0
  149.5250  131.3563  154.0874 H   0  0  0  0  0  0  0  0  0  0  0  0
  148.2779  129.2788  153.5896 H   0  0  0  0  0  0  0  0  0  0  0  0
  146.0329  129.4600  152.3707 H   0  0  0  0  0  0  0  0  0  0  0  0
  146.9833  134.6332  150.2621 H   0  0  0  0  0  0  0  0  0  0  0  0
  146.2091  133.0532  150.1467 H   0  0  0  0  0  0  0  0  0  0  0  0
  144.9249  135.7779  150.2502 H   0  0  0  0  0  0  0  0  0  0  0  0
  144.4127  134.3734  149.3125 H   0  0  0  0  0  0  0  0  0  0  0  0
  143.0724  134.9803  151.5901 H   0  0  0  0  0  0  0  0  0  0  0  0
  143.5218  133.2966  151.2979 H   0  0  0  0  0  0  0  0  0  0  0  0
  144.5322  133.7070  153.4536 H   0  0  0  0  0  0  0  0  0  0  0  0
  145.0055  135.3294  153.0005 H   0  0  0  0  0  0  0  0  0  0  0  0
  145.2564  131.5476  151.7772 H   0  0  0  0  0  0  0  0  0  0  0  0
  1  2  2  0  0  0  0
  2  3  1  0  0  0  0
  2 12  1  0  0  0  0
  3  4  1  0  0  0  0
  3 24  1  0  0  0  0
  4  5  1  0  0  0  0
  4 25  1  0  0  0  0
  4 26  1  0  0  0  0
  5  6  1  0  0  0  0
  5 27  1  0  0  0  0
  5 28  1  0  0  0  0
  6 11  1  0  0  0  0
  6  7  1  0  0  0  0
  7  8  1  0  0  0  0
  7 29  1  0  0  0  0
  7 30  1  0  0  0  0
  8  9  1  0  0  0  0
  8 31  1  0  0  0  0
  8 32  1  0  0  0  0
  9 10  1  0  0  0  0
 10 11  1  0  0  0  0
 10 33  1  0  0  0  0
 10 34  1  0  0  0  0
 11 35  1  0  0  0  0
 11 36  1  0  0  0  0
 12 13  1  0  0  0  0
 12 37  1  0  0  0  0
 13 18  1  0  0  0  0
 13 14  2  0  0  0  0
 14 15  1  0  0  0  0
 14 38  1  0  0  0  0
 15 16  2  0  0  0  0
 15 39  1  0  0  0  0
 16 17  1  0  0  0  0
 16 40  1  0  0  0  0
 17 18  2  0  0  0  0
 17 49  1  0  0  0  0
 18 19  1  0  0  0  0
 19 23  1  0  0  0  0
 19 20  1  0  0  0  0
 20 21  1  0  0  0  0
 20 41  1  0  0  0  0
 20 42  1  0  0  0  0
 21 22  1  0  0  0  0
 21 43  1  0  0  0  0
 21 44  1  0  0  0  0
 22 23  1  0  0  0  0
 22 45  1  0  0  0  0
 22 46  1  0  0  0  0
 23 47  1  0  0  0  0
 23 48  1  0  0  0  0
M  CHG  1  17   1
M  END
> <s_m_source_file>
AV-unprocessed.smi

> <i_m_source_file_index>
1525

> <i_lp_mmshare_version>
43012

> <i_f3d_flags>
0

> <s_epik_input>
W0NIMl0xW0NIMl1PW0NIMl1bQ0gyXU4xW0NIMl1bQ0gyXVtOSF1DKD1PKVtOSF1jMltjSF1bY0hdW2NIXW5jMk4zW0NIMl1bQ0gyXVtDSDJdW0NIMl0z

> <s_epik_cmdline>
J2VwaWtfcHl0aG9uJywgJy1waCcsICc3LjAnLCAnLXRuJywgJzgnLCAnLW1hJywgJzIwMCcsICctbWV0YWxfYmluZGluZycsICctaW1hZScsICc8aW5maWxlLm1hZT4nLCAnLW9tYWUnLCAnPG91dGZpbGUubWFlPic=

> <r_epik_Ionization_Penalty>
1.38385

> <r_epik_Ionization_Penalty_Charging>
1.11784

> <r_epik_Ionization_Penalty_Neutral>
0.26601

> <r_epik_State_Penalty>
1.46794

> <r_epik_Charging_Adjusted_Penalty>
2.58578

> <i_epik_Tot_Q>
1

> <i_epik_Tot_abs_Q>
1

> <r_epik_Metal_State_Penalty>
1.54909

> <b_epik_Metal_Only>
0

> <s_lp_Force_Field>
OPLS_2005

> <r_lp_Energy>
56.1891

> <b_lp_Chiralities_Consistent>
1

> <s_lp_Variant>
AV-unprocessed.smi:1525-3

> <Gold.Version>
5.8.1

> <Gold.Id.Protein>
6NUR|6NUR_protein|mol2

> <Gold.PLP.Fitness>
43.0455

> <Gold.PLP.PLP>
-35.0420

> <Gold.PLP.part.hbond>
-3.4983

> <Gold.PLP.part.metal>
0.0000

> <Gold.PLP.part.buried>
-2.8130

> <Gold.PLP.part.nonpolar>
-27.3252

> <Gold.PLP.part.repulsive>
0.1935

> <Gold.PLP.ligand.clash>
0.0000

> <Gold.PLP.ligand.torsion>
0.5672

> <Gold.PLP.Chemscore.Hbond>
2.9920

> <Gold.PLP.Chemscore.CHOScore>
0.0000

> <Gold.PLP.Chemscore.Metal>
0.0000

> <Gold.Chemscore.Hbonds>
donor molecule, donor type, donor heavy atom, donor atom, acceptor molecule, acceptor atom, score
      L1  H     3    24       P1  7948  1.00
      L1  H    12    37       P1  7948  1.00
      P1  H  7997  8010       L1     9  0.41

> <Gold.PLP.Chemscore.Internal.Correction>
0.1620

> <Gold.Rescore>
     Score         DG    S(hbond)    S(metal)    S(lipo)     H(rot)  DE(clash)    DE(int)     intcor
     14.73     -16.52       1.90        0.00      75.78       1.63       0.08       1.72       ----

> <Gold.Chemscore.Fitness>
14.7278

> <Gold.Chemscore.DG>
-16.5228

> <Gold.Chemscore.ZeroCoef>
-5.4800

> <Gold.Chemscore.Hbond>
1.9027

> <Gold.Chemscore.Metal>
0.0000

> <Gold.Chemscore.Lipo>
75.7820

> <Gold.Chemscore.Internal_Hbond>
0.0000

> <Gold.Chemscore.DEClash>
0.0753

> <Gold.Chemscore.DEInternal>
1.7196

> <Gold.Chemscore.Rot>
1.6323

> <Gold.Chemscore.Internal.Correction>
   9.000000E+99

> <Gold.Chemscore.Hbonds>
donor molecule, donor type, donor heavy atom, donor atom, acceptor molecule, acceptor atom, score
      L1  H     3    24       P1  7948  0.25
      L1  H    12    37       P1  7948  0.25
      P1  H  7997  8010       L1     9  0.13

> <Gold.Chemscore.Hbond.Weighted>
-6.3549

> <Gold.Chemscore.Metal.Weighted>
-0.0000

> <Gold.Chemscore.Lipo.Weighted>
-8.8665

> <Gold.Chemscore.Internal_Hbond.Weighted>
0.0000

> <Gold.Chemscore.DEClash.Weighted>
0.0753

> <Gold.Chemscore.DEInternal.Weighted>
1.7196

> <Gold.Chemscore.Rot.Weighted>
4.1786

> <Gold.Chemscore.Internal.Correction.Weighted>
   9.000000E+99

> <Gold.Protein.RotatedTorsions>
[ 6907 6896 6895 6894 ] final -178.63 input  -60.11 | X-H torsion
[ 7974 7965 7964 7962 ] final -115.89 input  175.53 | X-H torsion
[ 8008 7997 7996 7995 ] final   44.93 input   59.86 | X-H torsion
[ 10167 10162 10161 10158 ] final   94.96 input  -65.29 | X-H torsion
[ 10718 10713 10712 10709 ] final   24.50 input   66.30 | X-H torsion
[ 10763 10752 10751 10750 ] final -123.77 input  -60.55 | X-H torsion
[ 11005 11000 10999 10996 ] final  -65.99 input  -57.11 | X-H torsion

> <Gold.Protein.ActiveResidues>
 VAL166  LYS551  ARG553  GLY616  TRP617  ASP618  TYR619  PRO620  LYS621  CYS622 
 ASP623  PHE694  ASN695  SER759  ASP760  ASP761  ALA762  ILE779  LEU786  VAL792 
 PHE793  MET794  SER795  GLU796  ALA797  LYS798  CYS799  TRP800  GLU811  SER814 

> <Gold.Protein.RotatedAtoms>
  151.6403  133.3326  159.3128 H   0  0  0  0  0  0  0  0  0  0  0  0  # atno 6907 bound_to 6896
  150.8011  134.7109  159.6613 H   0  0  0  0  0  0  0  0  0  0  0  0  # atno 6908 bound_to 6896
  152.4103  134.6139  160.0084 H   0  0  0  0  0  0  0  0  0  0  0  0  # atno 6909 bound_to 6896
  145.1031  140.8565  143.3914 H   0  0  0  0  0  0  0  0  0  0  0  0  # atno 7974 bound_to 7965
  155.3275  140.3400  155.4240 H   0  0  0  0  0  0  0  0  0  0  0  0  # atno 8008 bound_to 7997
  156.1878  140.1687  156.8188 H   0  0  0  0  0  0  0  0  0  0  0  0  # atno 8009 bound_to 7997
  154.5406  140.0725  156.8487 H   0  0  0  0  0  0  0  0  0  0  0  0  # atno 8010 bound_to 7997
  139.8034  144.6804  150.9735 H   0  0  0  0  0  0  0  0  0  0  0  0  # atno 10167 bound_to 10162
  157.1806  130.6801  149.6111 H   0  0  0  0  0  0  0  0  0  0  0  0  # atno 10718 bound_to 10713
  154.8713  135.4086  154.2998 H   0  0  0  0  0  0  0  0  0  0  0  0  # atno 10763 bound_to 10752
  153.3860  135.7013  153.6536 H   0  0  0  0  0  0  0  0  0  0  0  0  # atno 10764 bound_to 10752
  153.5338  135.3662  155.2659 H   0  0  0  0  0  0  0  0  0  0  0  0  # atno 10765 bound_to 10752
  141.1470  133.6691  156.6070 H   0  0  0  0  0  0  0  0  0  0  0  0  # atno 11005 bound_to 11000
  145.0932  139.2875  143.5724 LP  0  0  0  0  0  0  0  0  0  0  0  0  # atno 17320 bound_to 7965
  146.3529  140.0476  142.8638 LP  0  0  0  0  0  0  0  0  0  0  0  0  # atno 17321 bound_to 7965
  140.7820  143.4258  151.0770 LP  0  0  0  0  0  0  0  0  0  0  0  0  # atno 17342 bound_to 10162
  139.7929  143.8193  152.3154 LP  0  0  0  0  0  0  0  0  0  0  0  0  # atno 17343 bound_to 10162
  155.9725  130.4648  150.6231 LP  0  0  0  0  0  0  0  0  0  0  0  0  # atno 17370 bound_to 10713
  157.3956  131.0802  151.1354 LP  0  0  0  0  0  0  0  0  0  0  0  0  # atno 17371 bound_to 10713
  140.3644  134.7660  157.4556 LP  0  0  0  0  0  0  0  0  0  0  0  0  # atno 17394 bound_to 11000
  140.0760  134.5797  155.8591 LP  0  0  0  0  0  0  0  0  0  0  0  0  # atno 17395 bound_to 11000

$$$$
