AV-unprocessed.smi:1252|AV-procd|sdf|5264|dock4
  -GOLD-   22720 4373D 1   1.00000     0.00000
 Structure written by MMmdl.
 43 44  0  0  0  0  0  0  0  0  1 V2000
  152.0975  143.2945  158.2711 C   0  0  0  0  0  0  0  0  0  0  0  0
  153.1000  142.3788  158.9957 C   0  0  2  0  0  0  0  0  0  0  0  0
  152.8730  140.8954  158.6696 C   0  0  0  0  0  0  0  0  0  0  0  0
  153.7582  140.0661  158.8845 O   0  0  0  0  0  0  0  0  0  0  0  0
  151.6761  140.5791  158.1515 N   0  0  0  0  0  0  0  0  0  0  0  0
  151.2261  139.2366  157.7859 C   0  0  0  0  0  0  0  0  0  0  0  0
  151.2657  138.9755  156.2499 C   0  0  0  0  0  0  0  0  0  0  0  0
  152.6849  139.3534  155.7615 C   0  0  0  0  0  0  0  0  0  0  0  0
  151.1133  137.4458  156.0531 C   0  0  0  0  0  0  0  0  0  0  0  0
  150.1869  139.7162  155.5365 N   0  0  0  0  0  0  0  0  0  0  0  0
  150.3614  141.1729  155.4943 C   0  0  0  0  0  0  0  0  0  0  0  0
  149.1549  141.8816  154.8556 C   0  0  0  0  0  0  0  0  0  0  0  0
  148.9358  141.3687  153.5471 O   0  0  0  0  0  0  0  0  0  0  0  0
  148.7024  139.9656  153.5474 C   0  0  0  0  0  0  0  0  0  0  0  0
  149.9034  139.2397  154.1775 C   0  0  0  0  0  0  0  0  0  0  0  0
  153.0593  142.5969  160.4350 N   0  0  0  0  0  0  0  0  0  0  0  0
  153.6721  141.9609  161.4383 C   0  0  0  0  0  0  0  0  0  0  0  0
  153.3746  142.4380  162.6387 N   0  0  0  0  0  0  0  0  0  0  0  0
  152.5093  143.4322  162.2798 C   0  0  0  0  0  0  0  0  0  0  0  0
  152.2826  143.5674  160.9732 N   0  0  0  0  0  0  0  0  0  0  0  0
  152.1166  143.1262  157.1936 H   0  0  0  0  0  0  0  0  0  0  0  0
  152.3385  144.3439  158.4430 H   0  0  0  0  0  0  0  0  0  0  0  0
  151.0756  143.1308  158.6155 H   0  0  0  0  0  0  0  0  0  0  0  0
  154.0985  142.6455  158.6428 H   0  0  0  0  0  0  0  0  0  0  0  0
  151.0117  141.3273  158.0155 H   0  0  0  0  0  0  0  0  0  0  0  0
  151.8572  138.5238  158.3160 H   0  0  0  0  0  0  0  0  0  0  0  0
  150.2241  139.0521  158.1783 H   0  0  0  0  0  0  0  0  0  0  0  0
  153.4464  138.7847  156.2969 H   0  0  0  0  0  0  0  0  0  0  0  0
  152.9092  140.4075  155.9237 H   0  0  0  0  0  0  0  0  0  0  0  0
  152.8257  139.1438  154.7014 H   0  0  0  0  0  0  0  0  0  0  0  0
  151.7764  136.8887  156.7161 H   0  0  0  0  0  0  0  0  0  0  0  0
  151.3657  137.1323  155.0402 H   0  0  0  0  0  0  0  0  0  0  0  0
  150.0950  137.1123  156.2558 H   0  0  0  0  0  0  0  0  0  0  0  0
  150.4919  141.5794  156.4955 H   0  0  0  0  0  0  0  0  0  0  0  0
  151.2576  141.4291  154.9291 H   0  0  0  0  0  0  0  0  0  0  0  0
  148.2593  141.7439  155.4638 H   0  0  0  0  0  0  0  0  0  0  0  0
  149.3368  142.9544  154.7915 H   0  0  0  0  0  0  0  0  0  0  0  0
  147.7855  139.7416  154.0947 H   0  0  0  0  0  0  0  0  0  0  0  0
  148.5529  139.6290  152.5214 H   0  0  0  0  0  0  0  0  0  0  0  0
  150.7743  139.3827  153.5379 H   0  0  0  0  0  0  0  0  0  0  0  0
  149.6812  138.1742  154.1772 H   0  0  0  0  0  0  0  0  0  0  0  0
  154.3476  141.1315  161.2866 H   0  0  0  0  0  0  0  0  0  0  0  0
  152.0300  144.0745  163.0040 H   0  0  0  0  0  0  0  0  0  0  0  0
  1  2  1  0  0  0  0
  1 21  1  0  0  0  0
  1 22  1  0  0  0  0
  1 23  1  0  0  0  0
  2  3  1  0  0  0  0
  2 16  1  0  0  0  0
  2 24  1  0  0  0  0
  3  4  2  0  0  0  0
  3  5  1  0  0  0  0
  5  6  1  0  0  0  0
  5 25  1  0  0  0  0
  6  7  1  0  0  0  0
  6 26  1  0  0  0  0
  6 27  1  0  0  0  0
  7  8  1  0  0  0  0
  7  9  1  0  0  0  0
  7 10  1  0  0  0  0
  8 28  1  0  0  0  0
  8 29  1  0  0  0  0
  8 30  1  0  0  0  0
  9 31  1  0  0  0  0
  9 32  1  0  0  0  0
  9 33  1  0  0  0  0
 10 15  1  0  0  0  0
 10 11  1  0  0  0  0
 11 12  1  0  0  0  0
 11 34  1  0  0  0  0
 11 35  1  0  0  0  0
 12 13  1  0  0  0  0
 12 36  1  0  0  0  0
 12 37  1  0  0  0  0
 13 14  1  0  0  0  0
 14 15  1  0  0  0  0
 14 38  1  0  0  0  0
 14 39  1  0  0  0  0
 15 40  1  0  0  0  0
 15 41  1  0  0  0  0
 16 20  1  0  0  0  0
 16 17  1  0  0  0  0
 17 18  2  0  0  0  0
 17 42  1  0  0  0  0
 18 19  1  0  0  0  0
 19 20  2  0  0  0  0
 19 43  1  0  0  0  0
M  END
> <s_m_source_file>
AV-unprocessed.smi

> <i_m_source_file_index>
1252

> <i_lp_mmshare_version>
43012

> <i_f3d_flags>
0

> <s_epik_input>
bjFbY0hdbltjSF1uMVtDQEhdKFtDSDNdKUMoPU8pW05IXVtDSDJdQyhbQ0gzXSkoW0NIM10pTjJbQ0gyXVtDSDJdT1tDSDJdW0NIMl0y

> <s_epik_cmdline>
J2VwaWtfcHl0aG9uJywgJy1waCcsICc3LjAnLCAnLXRuJywgJzgnLCAnLW1hJywgJzIwMCcsICctbWV0YWxfYmluZGluZycsICctaW1hZScsICc8aW5maWxlLm1hZT4nLCAnLW9tYWUnLCAnPG91dGZpbGUubWFlPic=

> <r_lp_tautomer_probability>
1

> <r_epik_Ionization_Penalty>
0.211373

> <r_epik_Ionization_Penalty_Charging>
0

> <r_epik_Ionization_Penalty_Neutral>
0.211373

> <r_epik_State_Penalty>
0.201459

> <r_epik_Charging_Adjusted_Penalty>
0.201459

> <i_epik_Tot_Q>
0

> <i_epik_Tot_abs_Q>
0

> <r_epik_Metal_State_Penalty>
0.201458

> <b_epik_Metal_Only>
0

> <s_lp_Force_Field>
OPLS_2005

> <r_lp_Energy>
48.0219

> <b_lp_Chiralities_Consistent>
1

> <s_lp_Variant>
AV-unprocessed.smi:1252-1

> <Gold.Version>
5.8.1

> <Gold.Id.Protein>
6NUR|6NUR_protein|mol2

> <Gold.PLP.Fitness>
38.0118

> <Gold.PLP.PLP>
-34.4697

> <Gold.PLP.part.hbond>
-2.0000

> <Gold.PLP.part.metal>
0.0000

> <Gold.PLP.part.buried>
0.9232

> <Gold.PLP.part.nonpolar>
-33.3765

> <Gold.PLP.part.repulsive>
1.3274

> <Gold.PLP.ligand.clash>
0.0000

> <Gold.PLP.ligand.torsion>
0.9965

> <Gold.PLP.Chemscore.Hbond>
1.8000

> <Gold.PLP.Chemscore.CHOScore>
0.0000

> <Gold.PLP.Chemscore.Metal>
0.0000

> <Gold.Chemscore.Hbonds>
donor molecule, donor type, donor heavy atom, donor atom, acceptor molecule, acceptor atom, score
      P1  H  7997  8010       L1     4  1.00
      P1  H  8011  8017       L1    13  0.86

> <Gold.PLP.Chemscore.Internal.Correction>
0.1351

> <Gold.Rescore>
     Score         DG    S(hbond)    S(metal)    S(lipo)     H(rot)  DE(clash)    DE(int)     intcor
      7.75     -12.02       1.31        0.00      73.40       2.52       2.24       2.03       ----

> <Gold.Chemscore.Fitness>
7.7495

> <Gold.Chemscore.DG>
-12.0160

> <Gold.Chemscore.ZeroCoef>
-5.4800

> <Gold.Chemscore.Hbond>
1.3135

> <Gold.Chemscore.Metal>
0.0000

> <Gold.Chemscore.Lipo>
73.4010

> <Gold.Chemscore.Internal_Hbond>
0.0000

> <Gold.Chemscore.DEClash>
2.2366

> <Gold.Chemscore.DEInternal>
2.0299

> <Gold.Chemscore.Rot>
2.5153

> <Gold.Chemscore.Internal.Correction>
   9.000000E+99

> <Gold.Chemscore.Hbonds>
donor molecule, donor type, donor heavy atom, donor atom, acceptor molecule, acceptor atom, score
      P1  H  7997  8010       L1     4  0.42
      P1  H  8011  8017       L1    13  0.64

> <Gold.Chemscore.Hbond.Weighted>
-4.3872

> <Gold.Chemscore.Metal.Weighted>
-0.0000

> <Gold.Chemscore.Lipo.Weighted>
-8.5879

> <Gold.Chemscore.Internal_Hbond.Weighted>
0.0000

> <Gold.Chemscore.DEClash.Weighted>
2.2366

> <Gold.Chemscore.DEInternal.Weighted>
2.0299

> <Gold.Chemscore.Rot.Weighted>
6.4392

> <Gold.Chemscore.Internal.Correction.Weighted>
   9.000000E+99

> <Gold.Protein.RotatedTorsions>
[ 6907 6896 6895 6894 ] final  -54.27 input  -60.11 | X-H torsion
[ 7974 7965 7964 7962 ] final  -47.08 input  175.53 | X-H torsion
[ 8008 7997 7996 7995 ] final   19.84 input   59.86 | X-H torsion
[ 10167 10162 10161 10158 ] final -132.96 input  -65.29 | X-H torsion
[ 10718 10713 10712 10709 ] final  168.75 input   66.30 | X-H torsion
[ 10763 10752 10751 10750 ] final   48.07 input  -60.55 | X-H torsion
[ 11005 11000 10999 10996 ] final  -53.23 input  -57.11 | X-H torsion

> <Gold.Protein.ActiveResidues>
 VAL166  LYS551  ARG553  GLY616  TRP617  ASP618  TYR619  PRO620  LYS621  CYS622 
 ASP623  PHE694  ASN695  SER759  ASP760  ASP761  ALA762  ILE779  LEU786  VAL792 
 PHE793  MET794  SER795  GLU796  ALA797  LYS798  CYS799  TRP800  GLU811  SER814 

> <Gold.Protein.RotatedAtoms>
  150.8353  134.7624  159.6887 H   0  0  0  0  0  0  0  0  0  0  0  0  # atno 6907 bound_to 6896
  152.4451  134.5508  159.9876 H   0  0  0  0  0  0  0  0  0  0  0  0  # atno 6908 bound_to 6896
  151.5660  133.3359  159.3016 H   0  0  0  0  0  0  0  0  0  0  0  0  # atno 6909 bound_to 6896
  145.9653  140.7439  142.9437 H   0  0  0  0  0  0  0  0  0  0  0  0  # atno 7974 bound_to 7965
  154.9267  140.3034  155.5189 H   0  0  0  0  0  0  0  0  0  0  0  0  # atno 8008 bound_to 7997
  156.3006  140.2361  156.4259 H   0  0  0  0  0  0  0  0  0  0  0  0  # atno 8009 bound_to 7997
  154.8278  140.0420  157.1444 H   0  0  0  0  0  0  0  0  0  0  0  0  # atno 8010 bound_to 7997
  139.9032  143.6582  152.2591 H   0  0  0  0  0  0  0  0  0  0  0  0  # atno 10167 bound_to 10162
  157.0326  131.0264  151.2740 H   0  0  0  0  0  0  0  0  0  0  0  0  # atno 10718 bound_to 10713
  152.9794  135.5956  154.3866 H   0  0  0  0  0  0  0  0  0  0  0  0  # atno 10763 bound_to 10752
  154.3525  135.2767  155.2366 H   0  0  0  0  0  0  0  0  0  0  0  0  # atno 10764 bound_to 10752
  154.4399  135.6016  153.6177 H   0  0  0  0  0  0  0  0  0  0  0  0  # atno 10765 bound_to 10752
  141.0965  133.6624  156.4142 H   0  0  0  0  0  0  0  0  0  0  0  0  # atno 11005 bound_to 11000
  144.6824  140.2658  143.7313 LP  0  0  0  0  0  0  0  0  0  0  0  0  # atno 17320 bound_to 7965
  145.7983  139.1954  143.2063 LP  0  0  0  0  0  0  0  0  0  0  0  0  # atno 17321 bound_to 7965
  139.7007  144.7635  151.1279 LP  0  0  0  0  0  0  0  0  0  0  0  0  # atno 17342 bound_to 10162
  140.7702  143.5462  150.9256 LP  0  0  0  0  0  0  0  0  0  0  0  0  # atno 17343 bound_to 10162
  157.5166  130.7972  149.7763 LP  0  0  0  0  0  0  0  0  0  0  0  0  # atno 17370 bound_to 10713
  156.0064  130.3853  150.2415 LP  0  0  0  0  0  0  0  0  0  0  0  0  # atno 17371 bound_to 10713
  140.5126  134.6380  157.5290 LP  0  0  0  0  0  0  0  0  0  0  0  0  # atno 17394 bound_to 11000
  139.9804  134.7147  155.9871 LP  0  0  0  0  0  0  0  0  0  0  0  0  # atno 17395 bound_to 11000

$$$$
