AV-unprocessed.smi:290|AV-procd|sdf|2235|dock6
  -GOLD-   2262022103D 1   1.00000     0.00000
 Structure written by MMmdl.
 59 62  0  0  0  0  0  0  0  0  2 V2000
  150.5327  141.7015  156.1184 C   0  0  0  0  0  0  0  0  0  0  0  0
  150.5763  140.1802  155.9135 C   0  0  2  0  0  0  0  0  0  0  0  0
  151.2570  139.8530  154.7049 O   0  0  0  0  0  0  0  0  0  0  0  0
  150.6860  138.6861  154.1193 C   0  0  0  0  0  0  0  0  0  0  0  0
  149.6637  138.1740  155.1298 C   0  0  0  0  0  0  0  0  0  0  0  0
  149.2213  139.4515  155.8329 C   0  0  1  0  0  0  0  0  0  0  0  0
  148.7611  139.1231  157.1299 O   0  0  0  0  0  0  0  0  0  0  0  0
  148.1221  140.2436  155.0721 C   0  0  0  0  0  0  0  0  0  0  0  0
  147.1562  139.4051  154.3798 N   0  0  0  0  0  0  0  0  0  0  0  0
  147.0816  139.1848  153.0233 C   0  0  0  0  0  0  0  0  0  0  0  0
  146.1201  138.3901  152.6406 N   0  0  0  0  0  0  0  0  0  0  0  0
  145.4684  138.0512  153.8209 C   0  0  0  0  0  0  0  0  0  0  0  0
  144.3469  137.2342  154.1440 C   0  0  0  0  0  0  0  0  0  0  0  0
  143.6122  136.5248  153.2585 N   0  0  0  0  0  0  0  0  0  0  0  0
  143.9155  136.6867  151.8378 C   0  0  0  0  0  0  0  0  0  0  0  0
  144.0638  135.2754  151.2574 C   0  0  0  0  0  0  0  0  0  0  0  0
  144.3481  134.4065  152.4892 C   0  0  2  0  0  0  0  0  0  0  0  0
  144.0944  132.9444  152.3280 N   0  3  1  0  0  0  0  0  0  0  0  0
  143.1755  132.6419  151.2006 C   0  0  0  0  0  0  0  0  0  0  0  0
  145.3580  132.1604  152.2419 C   0  0  0  0  0  0  0  0  0  0  0  0
  146.4056  132.7947  151.3091 C   0  0  0  0  0  0  0  0  0  0  0  0
  146.3517  132.1952  150.0327 O   0  0  0  0  0  0  0  0  0  0  0  0
  143.4928  135.1044  153.5682 C   0  0  2  0  0  0  0  0  0  0  0  0
  142.0073  134.6955  153.5668 C   0  0  0  0  0  0  0  0  0  0  0  0
  144.0019  137.1166  155.4491 N   0  0  0  0  0  0  0  0  0  0  0  0
  144.6922  137.7739  156.3857 C   0  0  0  0  0  0  0  0  0  0  0  0
  145.7477  138.5770  156.2356 N   0  0  0  0  0  0  0  0  0  0  0  0
  146.1094  138.6821  154.9245 C   0  0  0  0  0  0  0  0  0  0  0  0
  145.4019  134.5287  152.7436 H   0  0  0  0  0  0  0  0  0  0  0  0
  143.9042  134.8976  154.5577 H   0  0  0  0  0  0  0  0  0  0  0  0
  149.9804  141.9600  157.0222 H   0  0  0  0  0  0  0  0  0  0  0  0
  150.0631  142.2100  155.2764 H   0  0  0  0  0  0  0  0  0  0  0  0
  151.5409  142.1039  156.2197 H   0  0  0  0  0  0  0  0  0  0  0  0
  151.1646  139.7397  156.7211 H   0  0  0  0  0  0  0  0  0  0  0  0
  150.1967  138.9673  153.1863 H   0  0  0  0  0  0  0  0  0  0  0  0
  151.4492  137.9420  153.8906 H   0  0  0  0  0  0  0  0  0  0  0  0
  148.8591  137.5982  154.6747 H   0  0  0  0  0  0  0  0  0  0  0  0
  150.1705  137.5133  155.8356 H   0  0  0  0  0  0  0  0  0  0  0  0
  149.1769  138.3186  157.4008 H   0  0  0  0  0  0  0  0  0  0  0  0
  147.5711  140.8857  155.7603 H   0  0  0  0  0  0  0  0  0  0  0  0
  148.5755  140.9091  154.3364 H   0  0  0  0  0  0  0  0  0  0  0  0
  147.7741  139.6292  152.3231 H   0  0  0  0  0  0  0  0  0  0  0  0
  143.1073  137.2266  151.3439 H   0  0  0  0  0  0  0  0  0  0  0  0
  144.8257  137.2650  151.6798 H   0  0  0  0  0  0  0  0  0  0  0  0
  143.1275  134.9755  150.7850 H   0  0  0  0  0  0  0  0  0  0  0  0
  144.8526  135.2231  150.5063 H   0  0  0  0  0  0  0  0  0  0  0  0
  143.5841  133.0080  150.2579 H   0  0  0  0  0  0  0  0  0  0  0  0
  142.1972  133.0983  151.3494 H   0  0  0  0  0  0  0  0  0  0  0  0
  142.9973  131.5730  151.0975 H   0  0  0  0  0  0  0  0  0  0  0  0
  145.7730  132.0403  153.2435 H   0  0  0  0  0  0  0  0  0  0  0  0
  145.1599  131.1516  151.8804 H   0  0  0  0  0  0  0  0  0  0  0  0
  146.2856  133.8728  151.2147 H   0  0  0  0  0  0  0  0  0  0  0  0
  147.4030  132.6289  151.7169 H   0  0  0  0  0  0  0  0  0  0  0  0
  147.0507  131.5620  149.9666 H   0  0  0  0  0  0  0  0  0  0  0  0
  141.8800  133.6459  153.8274 H   0  0  0  0  0  0  0  0  0  0  0  0
  141.5380  134.8587  152.5966 H   0  0  0  0  0  0  0  0  0  0  0  0
  141.4491  135.2764  154.3017 H   0  0  0  0  0  0  0  0  0  0  0  0
  144.3514  137.6344  157.4012 H   0  0  0  0  0  0  0  0  0  0  0  0
  143.6277  132.6452  153.1728 H   0  0  0  0  0  0  0  0  0  0  0  0
  1  2  1  0  0  0  0
  1 31  1  0  0  0  0
  1 32  1  0  0  0  0
  1 33  1  0  0  0  0
  2  6  1  0  0  0  0
  2  3  1  0  0  0  0
  2 34  1  0  0  0  0
  3  4  1  0  0  0  0
  4  5  1  0  0  0  0
  4 35  1  0  0  0  0
  4 36  1  0  0  0  0
  5  6  1  0  0  0  0
  5 37  1  0  0  0  0
  5 38  1  0  0  0  0
  6  7  1  0  0  0  0
  6  8  1  0  0  0  0
  7 39  1  0  0  0  0
  8  9  1  0  0  0  0
  8 40  1  0  0  0  0
  8 41  1  0  0  0  0
  9 28  1  0  0  0  0
  9 10  1  0  0  0  0
 10 11  2  0  0  0  0
 10 42  1  0  0  0  0
 11 12  1  0  0  0  0
 12 28  2  0  0  0  0
 12 13  1  0  0  0  0
 13 14  1  0  0  0  0
 13 25  2  0  0  0  0
 14 23  1  0  0  0  0
 14 15  1  0  0  0  0
 15 16  1  0  0  0  0
 15 43  1  0  0  0  0
 15 44  1  0  0  0  0
 16 17  1  0  0  0  0
 16 45  1  0  0  0  0
 16 46  1  0  0  0  0
 17 29  1  0  0  0  0
 17 18  1  0  0  0  0
 17 23  1  0  0  0  0
 18 19  1  0  0  0  0
 18 20  1  0  0  0  0
 18 59  1  0  0  0  0
 19 47  1  0  0  0  0
 19 48  1  0  0  0  0
 19 49  1  0  0  0  0
 20 21  1  0  0  0  0
 20 50  1  0  0  0  0
 20 51  1  0  0  0  0
 21 22  1  0  0  0  0
 21 52  1  0  0  0  0
 21 53  1  0  0  0  0
 22 54  1  0  0  0  0
 23 30  1  0  0  0  0
 23 24  1  0  0  0  0
 24 55  1  0  0  0  0
 24 56  1  0  0  0  0
 24 57  1  0  0  0  0
 25 26  1  0  0  0  0
 26 27  2  0  0  0  0
 26 58  1  0  0  0  0
 27 28  1  0  0  0  0
M  CHG  1  18   1
M  END
> <s_m_source_file>
AV-unprocessed.smi

> <i_m_source_file_index>
290

> <i_lp_mmshare_version>
43012

> <i_f3d_flags>
0

> <s_epik_input>
W0NIMl0xW0NIMl1PW0NAQEhdKFtDSDNdKVtDQEBdMShbT0hdKVtDSDJdbihbY0hdbjIpYyhjMjMpbltjSF1uYzNONFtDSDJdW0NIMl1bQ0BIXShbQ0BIXTRbQ0gzXSlOKFtDSDNdKVtDSDJdW0NIMl1bT0hd

> <s_epik_cmdline>
J2VwaWtfcHl0aG9uJywgJy1waCcsICc3LjAnLCAnLXRuJywgJzgnLCAnLW1hJywgJzIwMCcsICctbWV0YWxfYmluZGluZycsICctaW1hZScsICc8aW5maWxlLm1hZT4nLCAnLW9tYWUnLCAnPG91dGZpbGUubWFlPic=

> <r_lp_tautomer_probability>
1

> <r_epik_Ionization_Penalty>
0.0036983

> <r_epik_Ionization_Penalty_Charging>
0.0032725

> <r_epik_Ionization_Penalty_Neutral>
0.000425798

> <r_epik_State_Penalty>
-0

> <r_epik_Charging_Adjusted_Penalty>
0.0032725

> <i_epik_Tot_Q>
1

> <i_epik_Tot_abs_Q>
1

> <r_epik_Metal_State_Penalty>
-0

> <b_epik_Metal_Only>
0

> <s_lp_Force_Field>
OPLS_2005

> <r_lp_Energy>
64.7341

> <b_lp_Chiralities_Consistent>
1

> <s_lp_Variant>
AV-unprocessed.smi:290-21

> <Gold.Version>
5.8.1

> <Gold.Id.Protein>
6NUR|6NUR_protein|mol2

> <Gold.PLP.Fitness>
43.3886

> <Gold.PLP.PLP>
-33.1851

> <Gold.PLP.part.hbond>
-2.9407

> <Gold.PLP.part.metal>
0.0000

> <Gold.PLP.part.buried>
-4.0204

> <Gold.PLP.part.nonpolar>
-27.9625

> <Gold.PLP.part.repulsive>
0.5468

> <Gold.PLP.ligand.clash>
0.0000

> <Gold.PLP.ligand.torsion>
2.3635

> <Gold.PLP.Chemscore.Hbond>
3.8850

> <Gold.PLP.Chemscore.CHOScore>
1.0000

> <Gold.PLP.Chemscore.Metal>
0.0000

> <Gold.Chemscore.Hbonds>
donor molecule, donor type, donor heavy atom, donor atom, acceptor molecule, acceptor atom, score
      L1  H    18    59       P1 10957  1.85
      L1  H    22    54       P1 10747  0.93
      P1  H  7989  7998       L1     3  1.00
      L1  C    10    42       P1  7957  1.00

> <Gold.PLP.Chemscore.Internal.Correction>
0.2754

> <Gold.Rescore>
     Score         DG    S(hbond)    S(metal)    S(lipo)     H(rot)  DE(clash)    DE(int)     intcor
      8.82     -13.75       2.57        0.00      77.47       3.67       1.27       3.65       ----

> <Gold.Chemscore.Fitness>
8.8226

> <Gold.Chemscore.DG>
-13.7521

> <Gold.Chemscore.ZeroCoef>
-5.4800

> <Gold.Chemscore.Hbond>
2.5725

> <Gold.Chemscore.Metal>
0.0000

> <Gold.Chemscore.Lipo>
77.4747

> <Gold.Chemscore.Internal_Hbond>
0.0000

> <Gold.Chemscore.DEClash>
1.2750

> <Gold.Chemscore.DEInternal>
3.6546

> <Gold.Chemscore.Rot>
3.6658

> <Gold.Chemscore.Internal.Correction>
   9.000000E+99

> <Gold.Chemscore.Hbonds>
donor molecule, donor type, donor heavy atom, donor atom, acceptor molecule, acceptor atom, score
      L1  H    18    59       P1 10957  0.23
      L1  H    22    54       P1 10747  0.87
      P1  H  7989  7998       L1     3  0.60

> <Gold.Chemscore.Hbond.Weighted>
-8.5920

> <Gold.Chemscore.Metal.Weighted>
-0.0000

> <Gold.Chemscore.Lipo.Weighted>
-9.0645

> <Gold.Chemscore.Internal_Hbond.Weighted>
0.0000

> <Gold.Chemscore.DEClash.Weighted>
1.2750

> <Gold.Chemscore.DEInternal.Weighted>
3.6546

> <Gold.Chemscore.Rot.Weighted>
9.3844

> <Gold.Chemscore.Internal.Correction.Weighted>
   9.000000E+99

> <Gold.Protein.RotatedTorsions>
[ 6907 6896 6895 6894 ] final -133.87 input  -60.11 | X-H torsion
[ 7974 7965 7964 7962 ] final  -60.87 input  175.53 | X-H torsion
[ 8008 7997 7996 7995 ] final -164.07 input   59.86 | X-H torsion
[ 10167 10162 10161 10158 ] final   22.61 input  -65.29 | X-H torsion
[ 10718 10713 10712 10709 ] final   57.41 input   66.30 | X-H torsion
[ 10763 10752 10751 10750 ] final  104.49 input  -60.55 | X-H torsion
[ 11005 11000 10999 10996 ] final  174.61 input  -57.11 | X-H torsion

> <Gold.Protein.ActiveResidues>
 VAL166  LYS551  ARG553  GLY616  TRP617  ASP618  TYR619  PRO620  LYS621  CYS622 
 ASP623  PHE694  ASN695  SER759  ASP760  ASP761  ALA762  ILE779  LEU786  VAL792 
 PHE793  MET794  SER795  GLU796  ALA797  LYS798  CYS799  TRP800  GLU811  SER814 

> <Gold.Protein.RotatedAtoms>
  150.9791  133.6263  159.2725 H   0  0  0  0  0  0  0  0  0  0  0  0  # atno 6907 bound_to 6896
  151.3525  135.0886  159.9417 H   0  0  0  0  0  0  0  0  0  0  0  0  # atno 6908 bound_to 6896
  152.5209  133.9381  159.7668 H   0  0  0  0  0  0  0  0  0  0  0  0  # atno 6909 bound_to 6896
  145.8103  140.8602  143.0185 H   0  0  0  0  0  0  0  0  0  0  0  0  # atno 7974 bound_to 7965
  155.8304  140.0933  157.1796 H   0  0  0  0  0  0  0  0  0  0  0  0  # atno 8008 bound_to 7997
  154.3980  140.1420  156.3668 H   0  0  0  0  0  0  0  0  0  0  0  0  # atno 8009 bound_to 7997
  155.8172  140.3447  155.5495 H   0  0  0  0  0  0  0  0  0  0  0  0  # atno 8010 bound_to 7997
  140.5335  143.9801  150.6478 H   0  0  0  0  0  0  0  0  0  0  0  0  # atno 10167 bound_to 10162
  157.5512  130.8767  149.8966 H   0  0  0  0  0  0  0  0  0  0  0  0  # atno 10718 bound_to 10713
  153.3667  135.3941  155.1758 H   0  0  0  0  0  0  0  0  0  0  0  0  # atno 10763 bound_to 10752
  154.8688  135.3692  154.5030 H   0  0  0  0  0  0  0  0  0  0  0  0  # atno 10764 bound_to 10752
  153.5494  135.7083  153.5659 H   0  0  0  0  0  0  0  0  0  0  0  0  # atno 10765 bound_to 10752
  140.3532  134.7177  157.4282 H   0  0  0  0  0  0  0  0  0  0  0  0  # atno 11005 bound_to 11000
  144.6758  140.0386  143.7481 LP  0  0  0  0  0  0  0  0  0  0  0  0  # atno 17320 bound_to 7965
  145.9784  139.2922  143.1056 LP  0  0  0  0  0  0  0  0  0  0  0  0  # atno 17321 bound_to 7965
  140.3183  143.3154  152.0810 LP  0  0  0  0  0  0  0  0  0  0  0  0  # atno 17342 bound_to 10162
  139.4962  144.6591  151.6506 LP  0  0  0  0  0  0  0  0  0  0  0  0  # atno 17343 bound_to 10162
  156.0578  130.3705  150.1050 LP  0  0  0  0  0  0  0  0  0  0  0  0  # atno 17370 bound_to 10713
  156.9223  130.9687  151.3546 LP  0  0  0  0  0  0  0  0  0  0  0  0  # atno 17371 bound_to 10713
  140.0686  134.5894  155.8667 LP  0  0  0  0  0  0  0  0  0  0  0  0  # atno 17394 bound_to 11000
  141.2006  133.6613  156.5905 LP  0  0  0  0  0  0  0  0  0  0  0  0  # atno 17395 bound_to 11000

$$$$
