AV-unprocessed.smi:1604|AV-procd|sdf|6449|dock9
  -GOLD-   22720 7103D 1   1.00000     0.00000
 Structure written by MMmdl.
 47 49  0  0  0  0  0  0  0  0  2 V2000
  146.5397  135.7001  156.9438 O   0  0  0  0  0  0  0  0  0  0  0  0
  147.5960  136.2344  157.2818 C   0  0  0  0  0  0  0  0  0  0  0  0
  148.3537  137.0093  156.4895 N   0  0  0  0  0  0  0  0  0  0  0  0
  148.1553  137.2747  155.1070 C   0  0  0  0  0  0  0  0  0  0  0  0
  146.8526  137.2622  154.5474 C   0  0  0  0  0  0  0  0  0  0  0  0
  146.6675  137.6000  153.1937 C   0  0  0  0  0  0  0  0  0  0  0  0
  147.7870  137.9601  152.4239 C   0  0  0  0  0  0  0  0  0  0  0  0
  149.0122  137.9720  152.9888 N   0  3  0  0  0  0  0  0  0  0  0  0
  149.2574  137.6421  154.2819 C   0  0  0  0  0  0  0  0  0  0  0  0
  150.5968  137.6830  154.7328 N   0  0  0  0  0  0  0  0  0  0  0  0
  151.3041  138.9543  154.8307 C   0  0  0  0  0  0  0  0  0  0  0  0
  152.7736  138.5776  154.9978 C   0  0  0  0  0  0  0  0  0  0  0  0
  152.8901  137.3241  154.1359 C   0  0  0  0  0  0  0  0  0  0  0  0
  151.5255  136.6450  154.2940 C   0  0  0  0  0  0  0  0  0  0  0  0
  148.1525  136.0877  158.4934 N   0  0  0  0  0  0  0  0  0  0  0  0
  147.6424  135.2256  159.5619 C   0  0  2  0  0  0  0  0  0  0  0  0
  148.0726  135.8481  160.9100 C   0  0  0  0  0  0  0  0  0  0  0  0
  147.2093  135.4022  162.1029 C   0  0  0  0  0  0  0  0  0  0  0  0
  147.3010  133.9081  162.4486 C   0  0  0  0  0  0  0  0  0  0  0  0
  146.8094  132.9813  161.3236 C   0  0  0  0  0  0  0  0  0  0  0  0
  147.7948  132.8396  160.2597 N   0  0  0  0  0  0  0  0  0  0  0  0
  148.2433  133.8051  159.4432 C   0  0  0  0  0  0  0  0  0  0  0  0
  149.1232  133.5621  158.6165 O   0  0  0  0  0  0  0  0  0  0  0  0
  149.2403  137.3053  156.8710 H   0  0  0  0  0  0  0  0  0  0  0  0
  145.9883  137.0172  155.1471 H   0  0  0  0  0  0  0  0  0  0  0  0
  145.6795  137.5944  152.7570 H   0  0  0  0  0  0  0  0  0  0  0  0
  147.7407  138.2402  151.3815 H   0  0  0  0  0  0  0  0  0  0  0  0
  151.1769  139.5314  153.9140 H   0  0  0  0  0  0  0  0  0  0  0  0
  150.9413  139.5511  155.6681 H   0  0  0  0  0  0  0  0  0  0  0  0
  153.4541  139.3724  154.6916 H   0  0  0  0  0  0  0  0  0  0  0  0
  152.9820  138.3334  156.0405 H   0  0  0  0  0  0  0  0  0  0  0  0
  153.0391  137.6106  153.0938 H   0  0  0  0  0  0  0  0  0  0  0  0
  153.7203  136.6804  154.4286 H   0  0  0  0  0  0  0  0  0  0  0  0
  151.5811  135.8749  155.0639 H   0  0  0  0  0  0  0  0  0  0  0  0
  151.2076  136.1737  153.3628 H   0  0  0  0  0  0  0  0  0  0  0  0
  149.0235  136.5632  158.6777 H   0  0  0  0  0  0  0  0  0  0  0  0
  146.5537  135.1810  159.4973 H   0  0  0  0  0  0  0  0  0  0  0  0
  149.1271  135.6520  161.1135 H   0  0  0  0  0  0  0  0  0  0  0  0
  147.9869  136.9340  160.8438 H   0  0  0  0  0  0  0  0  0  0  0  0
  147.5068  135.9783  162.9797 H   0  0  0  0  0  0  0  0  0  0  0  0
  146.1681  135.6671  161.9148 H   0  0  0  0  0  0  0  0  0  0  0  0
  148.3217  133.6480  162.7323 H   0  0  0  0  0  0  0  0  0  0  0  0
  146.6906  133.7281  163.3344 H   0  0  0  0  0  0  0  0  0  0  0  0
  146.6325  131.9858  161.7311 H   0  0  0  0  0  0  0  0  0  0  0  0
  145.8549  133.3210  160.9193 H   0  0  0  0  0  0  0  0  0  0  0  0
  148.2000  131.9213  160.1491 H   0  0  0  0  0  0  0  0  0  0  0  0
  149.8043  138.2369  152.4033 H   0  0  0  0  0  0  0  0  0  0  0  0
  1  2  2  0  0  0  0
  2  3  1  0  0  0  0
  2 15  1  0  0  0  0
  3  4  1  0  0  0  0
  3 24  1  0  0  0  0
  4  9  1  0  0  0  0
  4  5  2  0  0  0  0
  5  6  1  0  0  0  0
  5 25  1  0  0  0  0
  6  7  2  0  0  0  0
  6 26  1  0  0  0  0
  7  8  1  0  0  0  0
  7 27  1  0  0  0  0
  8  9  2  0  0  0  0
  8 47  1  0  0  0  0
  9 10  1  0  0  0  0
 10 14  1  0  0  0  0
 10 11  1  0  0  0  0
 11 12  1  0  0  0  0
 11 28  1  0  0  0  0
 11 29  1  0  0  0  0
 12 13  1  0  0  0  0
 12 30  1  0  0  0  0
 12 31  1  0  0  0  0
 13 14  1  0  0  0  0
 13 32  1  0  0  0  0
 13 33  1  0  0  0  0
 14 34  1  0  0  0  0
 14 35  1  0  0  0  0
 15 16  1  0  0  0  0
 15 36  1  0  0  0  0
 16 22  1  0  0  0  0
 16 17  1  0  0  0  0
 16 37  1  0  0  0  0
 17 18  1  0  0  0  0
 17 38  1  0  0  0  0
 17 39  1  0  0  0  0
 18 19  1  0  0  0  0
 18 40  1  0  0  0  0
 18 41  1  0  0  0  0
 19 20  1  0  0  0  0
 19 42  1  0  0  0  0
 19 43  1  0  0  0  0
 20 21  1  0  0  0  0
 20 44  1  0  0  0  0
 20 45  1  0  0  0  0
 21 22  1  0  0  0  0
 21 46  1  0  0  0  0
 22 23  2  0  0  0  0
M  CHG  1   8   1
M  END
> <s_m_source_file>
AV-unprocessed.smi

> <i_m_source_file_index>
1604

> <i_lp_mmshare_version>
43012

> <i_f3d_flags>
0

> <s_epik_input>
Tz1DMVtOSF1bQ0gyXVtDSDJdW0NIMl1bQ0gyXVtDQEhdMVtOSF1DKD1PKVtOSF1jMltjSF1bY0hdW2NIXW5jMk4zW0NIMl1bQ0gyXVtDSDJdW0NIMl0z

> <s_epik_cmdline>
J2VwaWtfcHl0aG9uJywgJy1waCcsICc3LjAnLCAnLXRuJywgJzgnLCAnLW1hJywgJzIwMCcsICctbWV0YWxfYmluZGluZycsICctaW1hZScsICc8aW5maWxlLm1hZT4nLCAnLW9tYWUnLCAnPG91dGZpbGUubWFlPic=

> <r_lp_tautomer_probability>
0.999994

> <r_epik_Ionization_Penalty>
1.20452

> <r_epik_Ionization_Penalty_Charging>
1.2045

> <r_epik_Ionization_Penalty_Neutral>
1.88134e-05

> <r_epik_State_Penalty>
1.2704

> <r_epik_Charging_Adjusted_Penalty>
2.4749

> <i_epik_Tot_Q>
1

> <i_epik_Tot_abs_Q>
1

> <r_epik_Metal_State_Penalty>
1.34433

> <b_epik_Metal_Only>
0

> <s_lp_Force_Field>
OPLS_2005

> <r_lp_Energy>
45.117

> <b_lp_Chiralities_Consistent>
1

> <s_lp_Variant>
AV-unprocessed.smi:1604-3

> <Gold.Version>
5.8.1

> <Gold.Id.Protein>
6NUR|6NUR_protein|mol2

> <Gold.PLP.Fitness>
39.1618

> <Gold.PLP.PLP>
-34.3582

> <Gold.PLP.part.hbond>
-2.9539

> <Gold.PLP.part.metal>
0.0000

> <Gold.PLP.part.buried>
-3.4974

> <Gold.PLP.part.nonpolar>
-28.3406

> <Gold.PLP.part.repulsive>
0.3103

> <Gold.PLP.ligand.clash>
0.0000

> <Gold.PLP.ligand.torsion>
0.7272

> <Gold.PLP.Chemscore.Hbond>
1.9600

> <Gold.PLP.Chemscore.CHOScore>
0.0000

> <Gold.PLP.Chemscore.Metal>
0.0000

> <Gold.Chemscore.Hbonds>
donor molecule, donor type, donor heavy atom, donor atom, acceptor molecule, acceptor atom, score
      L1  H     8    47       P1  7957  0.20
      P1  H  6896  6908       L1    23  1.00

> <Gold.PLP.Chemscore.Internal.Correction>
0.3781

> <Gold.Rescore>
     Score         DG    S(hbond)    S(metal)    S(lipo)     H(rot)  DE(clash)    DE(int)     intcor
     15.91     -18.07       1.88        0.00      81.43       1.26       0.10       2.05       ----

> <Gold.Chemscore.Fitness>
15.9147

> <Gold.Chemscore.DG>
-18.0725

> <Gold.Chemscore.ZeroCoef>
-5.4800

> <Gold.Chemscore.Hbond>
1.8807

> <Gold.Chemscore.Metal>
0.0000

> <Gold.Chemscore.Lipo>
81.4332

> <Gold.Chemscore.Internal_Hbond>
0.0000

> <Gold.Chemscore.DEClash>
0.1038

> <Gold.Chemscore.DEInternal>
2.0540

> <Gold.Chemscore.Rot>
1.2566

> <Gold.Chemscore.Internal.Correction>
   9.000000E+99

> <Gold.Chemscore.Hbonds>
donor molecule, donor type, donor heavy atom, donor atom, acceptor molecule, acceptor atom, score
      L1  H     8    47       P1  7957  0.03
      P1  H  6896  6908       L1    23  0.82

> <Gold.Chemscore.Hbond.Weighted>
-6.2816

> <Gold.Chemscore.Metal.Weighted>
-0.0000

> <Gold.Chemscore.Lipo.Weighted>
-9.5277

> <Gold.Chemscore.Internal_Hbond.Weighted>
0.0000

> <Gold.Chemscore.DEClash.Weighted>
0.1038

> <Gold.Chemscore.DEInternal.Weighted>
2.0540

> <Gold.Chemscore.Rot.Weighted>
3.2168

> <Gold.Chemscore.Internal.Correction.Weighted>
   9.000000E+99

> <Gold.Protein.RotatedTorsions>
[ 6907 6896 6895 6894 ] final  122.20 input  -60.11 | X-H torsion
[ 7974 7965 7964 7962 ] final   12.73 input  175.53 | X-H torsion
[ 8008 7997 7996 7995 ] final   45.35 input   59.86 | X-H torsion
[ 10167 10162 10161 10158 ] final  178.76 input  -65.29 | X-H torsion
[ 10718 10713 10712 10709 ] final  -22.21 input   66.30 | X-H torsion
[ 10763 10752 10751 10750 ] final   95.36 input  -60.55 | X-H torsion
[ 11005 11000 10999 10996 ] final  178.33 input  -57.11 | X-H torsion

> <Gold.Protein.ActiveResidues>
 VAL166  LYS551  ARG553  GLY616  TRP617  ASP618  TYR619  PRO620  LYS621  CYS622 
 ASP623  PHE694  ASN695  SER759  ASP760  ASP761  ALA762  ILE779  LEU786  VAL792 
 PHE793  MET794  SER795  GLU796  ALA797  LYS798  CYS799  TRP800  GLU811  SER814 

> <Gold.Protein.RotatedAtoms>
  152.4262  133.7199  159.6526 H   0  0  0  0  0  0  0  0  0  0  0  0  # atno 6907 bound_to 6896
  150.8138  133.8362  159.3176 H   0  0  0  0  0  0  0  0  0  0  0  0  # atno 6908 bound_to 6896
  151.6065  135.1045  160.0123 H   0  0  0  0  0  0  0  0  0  0  0  0  # atno 6909 bound_to 6896
  146.2345  139.9294  142.8498 H   0  0  0  0  0  0  0  0  0  0  0  0  # atno 7974 bound_to 7965
  155.3344  140.3404  155.4239 H   0  0  0  0  0  0  0  0  0  0  0  0  # atno 8008 bound_to 7997
  156.1845  140.1676  156.8247 H   0  0  0  0  0  0  0  0  0  0  0  0  # atno 8009 bound_to 7997
  154.5371  140.0733  156.8429 H   0  0  0  0  0  0  0  0  0  0  0  0  # atno 8010 bound_to 7997
  139.5308  144.2641  152.0682 H   0  0  0  0  0  0  0  0  0  0  0  0  # atno 10167 bound_to 10162
  156.5077  130.4602  149.6665 H   0  0  0  0  0  0  0  0  0  0  0  0  # atno 10718 bound_to 10713
  153.2523  135.4256  155.0810 H   0  0  0  0  0  0  0  0  0  0  0  0  # atno 10763 bound_to 10752
  154.8387  135.3429  154.6495 H   0  0  0  0  0  0  0  0  0  0  0  0  # atno 10764 bound_to 10752
  153.6916  135.7033  153.5145 H   0  0  0  0  0  0  0  0  0  0  0  0  # atno 10765 bound_to 10752
  140.3940  134.6837  157.4524 H   0  0  0  0  0  0  0  0  0  0  0  0  # atno 11005 bound_to 11000
  145.2059  140.9875  143.4128 LP  0  0  0  0  0  0  0  0  0  0  0  0  # atno 17320 bound_to 7965
  144.9733  139.3858  143.6298 LP  0  0  0  0  0  0  0  0  0  0  0  0  # atno 17321 bound_to 7965
  140.2104  144.4568  150.6388 LP  0  0  0  0  0  0  0  0  0  0  0  0  # atno 17342 bound_to 10162
  140.6484  143.2219  151.6134 LP  0  0  0  0  0  0  0  0  0  0  0  0  # atno 17343 bound_to 10162
  156.3271  130.7311  151.2234 LP  0  0  0  0  0  0  0  0  0  0  0  0  # atno 17370 bound_to 10713
  157.7455  131.0440  150.4771 LP  0  0  0  0  0  0  0  0  0  0  0  0  # atno 17371 bound_to 10713
  140.0386  134.6301  155.9011 LP  0  0  0  0  0  0  0  0  0  0  0  0  # atno 17394 bound_to 11000
  141.1881  133.6561  156.5309 LP  0  0  0  0  0  0  0  0  0  0  0  0  # atno 17395 bound_to 11000

$$$$
