AV-unprocessed.smi:1856|AV-procd|sdf|7534|dock7
  -GOLD-   22720 9243D 1   1.00000     0.00000
 Structure written by MMmdl.
 44 45  0  0  0  0  0  0  0  0  1 V2000
  147.1002  134.5939  159.4269 C   0  0  0  0  0  0  0  0  0  0  0  0
  146.7313  136.0463  159.1055 C   0  0  0  0  0  0  0  0  0  0  0  0
  147.7291  137.0526  159.7062 C   0  0  0  0  0  0  0  0  0  0  0  0
  149.1058  137.0007  159.0373 C   0  0  0  0  0  0  0  0  0  0  0  0
  149.6687  135.9220  158.8498 O   0  0  0  0  0  0  0  0  0  0  0  0
  149.6438  138.1820  158.6943 N   0  0  0  0  0  0  0  0  0  0  0  0
  150.9532  138.3700  158.0710 C   0  0  1  0  0  0  0  0  0  0  0  0
  150.8918  137.9720  156.5908 C   0  0  0  0  0  0  0  0  0  0  0  0
  151.3816  139.8064  158.2480 C   0  0  0  0  0  0  0  0  0  0  0  0
  152.3732  140.1555  159.0729 N   0  0  0  0  0  0  0  0  0  0  0  0
  152.4171  141.5280  158.9398 C   0  0  0  0  0  0  0  0  0  0  0  0
  153.2611  142.4823  159.5515 C   0  0  0  0  0  0  0  0  0  0  0  0
  153.1174  143.8539  159.2584 C   0  0  0  0  0  0  0  0  0  0  0  0
  152.1294  144.2898  158.3521 C   0  0  0  0  0  0  0  0  0  0  0  0
  151.2772  143.3551  157.7332 C   0  0  0  0  0  0  0  0  0  0  0  0
  151.4249  141.9862  158.0287 C   0  0  0  0  0  0  0  0  0  0  0  0
  150.7684  140.8338  157.6043 N   0  0  0  0  0  0  0  0  0  0  0  0
  149.6510  140.7814  156.6697 C   0  0  0  0  0  0  0  0  0  0  0  0
  150.0148  141.2742  155.2533 C   0  0  2  0  0  0  0  0  0  0  0  0
  148.8043  141.5216  154.3399 C   0  0  0  0  0  0  0  0  0  0  0  0
  150.8464  140.3084  154.6469 O   0  0  0  0  0  0  0  0  0  0  0  0
  146.3753  133.9047  158.9935 H   0  0  0  0  0  0  0  0  0  0  0  0
  147.1212  134.4208  160.5032 H   0  0  0  0  0  0  0  0  0  0  0  0
  148.0817  134.3391  159.0261 H   0  0  0  0  0  0  0  0  0  0  0  0
  146.6846  136.1663  158.0222 H   0  0  0  0  0  0  0  0  0  0  0  0
  145.7287  136.2512  159.4830 H   0  0  0  0  0  0  0  0  0  0  0  0
  147.3233  138.0621  159.6232 H   0  0  0  0  0  0  0  0  0  0  0  0
  147.8606  136.8561  160.7709 H   0  0  0  0  0  0  0  0  0  0  0  0
  149.1162  139.0183  158.8983 H   0  0  0  0  0  0  0  0  0  0  0  0
  151.6582  137.7035  158.5660 H   0  0  0  0  0  0  0  0  0  0  0  0
  151.8663  138.0897  156.1162 H   0  0  0  0  0  0  0  0  0  0  0  0
  150.1784  138.5879  156.0419 H   0  0  0  0  0  0  0  0  0  0  0  0
  150.5918  136.9302  156.4759 H   0  0  0  0  0  0  0  0  0  0  0  0
  154.0206  142.1576  160.2471 H   0  0  0  0  0  0  0  0  0  0  0  0
  153.7685  144.5747  159.7310 H   0  0  0  0  0  0  0  0  0  0  0  0
  152.0264  145.3423  158.1318 H   0  0  0  0  0  0  0  0  0  0  0  0
  150.5214  143.6872  157.0376 H   0  0  0  0  0  0  0  0  0  0  0  0
  149.2645  139.7622  156.6361 H   0  0  0  0  0  0  0  0  0  0  0  0
  148.8416  141.3897  157.0750 H   0  0  0  0  0  0  0  0  0  0  0  0
  150.5902  142.1961  155.3238 H   0  0  0  0  0  0  0  0  0  0  0  0
  148.1710  142.3206  154.7264 H   0  0  0  0  0  0  0  0  0  0  0  0
  148.1913  140.6250  154.2428 H   0  0  0  0  0  0  0  0  0  0  0  0
  149.1221  141.8181  153.3400 H   0  0  0  0  0  0  0  0  0  0  0  0
  150.4265  139.4646  154.7177 H   0  0  0  0  0  0  0  0  0  0  0  0
  1  2  1  0  0  0  0
  1 22  1  0  0  0  0
  1 23  1  0  0  0  0
  1 24  1  0  0  0  0
  2  3  1  0  0  0  0
  2 25  1  0  0  0  0
  2 26  1  0  0  0  0
  3  4  1  0  0  0  0
  3 27  1  0  0  0  0
  3 28  1  0  0  0  0
  4  5  2  0  0  0  0
  4  6  1  0  0  0  0
  6  7  1  0  0  0  0
  6 29  1  0  0  0  0
  7  8  1  0  0  0  0
  7  9  1  0  0  0  0
  7 30  1  0  0  0  0
  8 31  1  0  0  0  0
  8 32  1  0  0  0  0
  8 33  1  0  0  0  0
  9 17  1  0  0  0  0
  9 10  2  0  0  0  0
 10 11  1  0  0  0  0
 11 16  2  0  0  0  0
 11 12  1  0  0  0  0
 12 13  2  0  0  0  0
 12 34  1  0  0  0  0
 13 14  1  0  0  0  0
 13 35  1  0  0  0  0
 14 15  2  0  0  0  0
 14 36  1  0  0  0  0
 15 16  1  0  0  0  0
 15 37  1  0  0  0  0
 16 17  1  0  0  0  0
 17 18  1  0  0  0  0
 18 19  1  0  0  0  0
 18 38  1  0  0  0  0
 18 39  1  0  0  0  0
 19 20  1  0  0  0  0
 19 21  1  0  0  0  0
 19 40  1  0  0  0  0
 20 41  1  0  0  0  0
 20 42  1  0  0  0  0
 20 43  1  0  0  0  0
 21 44  1  0  0  0  0
M  END
> <s_m_source_file>
AV-unprocessed.smi

> <i_m_source_file_index>
1856

> <i_lp_mmshare_version>
43012

> <i_f3d_flags>
0

> <s_epik_input>
W0NIM11bQ0gyXVtDSDJdQyg9TylbTkhdW0NASF0oW0NIM10pYyhuMSluKFtDSDJdW0NASF0oW0NIM10pW09IXSljKGMxMilbY0hdW2NIXVtjSF1bY0hdMg==

> <s_epik_cmdline>
J2VwaWtfcHl0aG9uJywgJy1waCcsICc3LjAnLCAnLXRuJywgJzgnLCAnLW1hJywgJzIwMCcsICctbWV0YWxfYmluZGluZycsICctaW1hZScsICc8aW5maWxlLm1hZT4nLCAnLW9tYWUnLCAnPG91dGZpbGUubWFlPic=

> <r_epik_Ionization_Penalty>
0.134222

> <r_epik_Ionization_Penalty_Charging>
0

> <r_epik_Ionization_Penalty_Neutral>
0.134222

> <r_epik_State_Penalty>
0.123585

> <r_epik_Charging_Adjusted_Penalty>
0.123585

> <i_epik_Tot_Q>
0

> <i_epik_Tot_abs_Q>
0

> <r_epik_Metal_State_Penalty>
0.100548

> <b_epik_Metal_Only>
0

> <s_lp_Force_Field>
OPLS_2005

> <r_lp_Energy>
2.96492

> <b_lp_Chiralities_Consistent>
1

> <s_lp_Variant>
AV-unprocessed.smi:1856-2

> <Gold.Version>
5.8.1

> <Gold.Id.Protein>
6NUR|6NUR_protein|mol2

> <Gold.PLP.Fitness>
43.2334

> <Gold.PLP.PLP>
-38.4431

> <Gold.PLP.part.hbond>
-2.0000

> <Gold.PLP.part.metal>
0.0000

> <Gold.PLP.part.buried>
-5.6474

> <Gold.PLP.part.nonpolar>
-30.8867

> <Gold.PLP.part.repulsive>
0.1975

> <Gold.PLP.ligand.clash>
0.0000

> <Gold.PLP.ligand.torsion>
0.6307

> <Gold.PLP.Chemscore.Hbond>
1.9920

> <Gold.PLP.Chemscore.CHOScore>
0.0000

> <Gold.PLP.Chemscore.Metal>
0.0000

> <Gold.Chemscore.Hbonds>
donor molecule, donor type, donor heavy atom, donor atom, acceptor molecule, acceptor atom, score
      P1  H  6896  6907       L1     5  1.00
      P1  H  7989  7998       L1    21  0.93

> <Gold.PLP.Chemscore.Internal.Correction>
0.0757

> <Gold.Rescore>
     Score         DG    S(hbond)    S(metal)    S(lipo)     H(rot)  DE(clash)    DE(int)     intcor
     16.81     -17.17       1.96        0.00      97.42       2.45       0.00       0.36       ----

> <Gold.Chemscore.Fitness>
16.8102

> <Gold.Chemscore.DG>
-17.1711

> <Gold.Chemscore.ZeroCoef>
-5.4800

> <Gold.Chemscore.Hbond>
1.9623

> <Gold.Chemscore.Metal>
0.0000

> <Gold.Chemscore.Lipo>
97.4233

> <Gold.Chemscore.Internal_Hbond>
0.0000

> <Gold.Chemscore.DEClash>
0.0000

> <Gold.Chemscore.DEInternal>
0.3610

> <Gold.Chemscore.Rot>
2.4459

> <Gold.Chemscore.Internal.Correction>
   9.000000E+99

> <Gold.Chemscore.Hbonds>
donor molecule, donor type, donor heavy atom, donor atom, acceptor molecule, acceptor atom, score
      P1  H  6896  6907       L1     5  0.95
      P1  H  7989  7998       L1    21  0.72

> <Gold.Chemscore.Hbond.Weighted>
-6.5540

> <Gold.Chemscore.Metal.Weighted>
-0.0000

> <Gold.Chemscore.Lipo.Weighted>
-11.3985

> <Gold.Chemscore.Internal_Hbond.Weighted>
0.0000

> <Gold.Chemscore.DEClash.Weighted>
0.0000

> <Gold.Chemscore.DEInternal.Weighted>
0.3610

> <Gold.Chemscore.Rot.Weighted>
6.2614

> <Gold.Chemscore.Internal.Correction.Weighted>
   9.000000E+99

> <Gold.Protein.RotatedTorsions>
[ 6907 6896 6895 6894 ] final  -76.39 input  -60.11 | X-H torsion
[ 7974 7965 7964 7962 ] final  -31.60 input  175.53 | X-H torsion
[ 8008 7997 7996 7995 ] final -178.09 input   59.86 | X-H torsion
[ 10167 10162 10161 10158 ] final  -58.89 input  -65.29 | X-H torsion
[ 10718 10713 10712 10709 ] final   11.34 input   66.30 | X-H torsion
[ 10763 10752 10751 10750 ] final   59.99 input  -60.55 | X-H torsion
[ 11005 11000 10999 10996 ] final -179.40 input  -57.11 | X-H torsion

> <Gold.Protein.ActiveResidues>
 VAL166  LYS551  ARG553  GLY616  TRP617  ASP618  TYR619  PRO620  LYS621  CYS622 
 ASP623  PHE694  ASN695  SER759  ASP760  ASP761  ALA762  ILE779  LEU786  VAL792 
 PHE793  MET794  SER795  GLU796  ALA797  LYS798  CYS799  TRP800  GLU811  SER814 

> <Gold.Protein.RotatedAtoms>
  150.7029  134.4579  159.5366 H   0  0  0  0  0  0  0  0  0  0  0  0  # atno 6907 bound_to 6896
  152.2260  134.8365  160.0489 H   0  0  0  0  0  0  0  0  0  0  0  0  # atno 6908 bound_to 6896
  151.9198  133.3547  159.3930 H   0  0  0  0  0  0  0  0  0  0  0  0  # atno 6909 bound_to 6896
  146.1055  140.5688  142.8802 H   0  0  0  0  0  0  0  0  0  0  0  0  # atno 7974 bound_to 7965
  156.0148  140.1248  157.0418 H   0  0  0  0  0  0  0  0  0  0  0  0  # atno 8008 bound_to 7997
  154.4289  140.1080  156.5949 H   0  0  0  0  0  0  0  0  0  0  0  0  # atno 8009 bound_to 7997
  155.6029  140.3470  155.4601 H   0  0  0  0  0  0  0  0  0  0  0  0  # atno 8010 bound_to 7997
  140.6169  143.2405  151.5574 H   0  0  0  0  0  0  0  0  0  0  0  0  # atno 10167 bound_to 10162
  156.9942  130.6054  149.5689 H   0  0  0  0  0  0  0  0  0  0  0  0  # atno 10718 bound_to 10713
  152.9909  135.5552  154.5802 H   0  0  0  0  0  0  0  0  0  0  0  0  # atno 10763 bound_to 10752
  154.5185  135.2806  155.1285 H   0  0  0  0  0  0  0  0  0  0  0  0  # atno 10764 bound_to 10752
  154.2647  135.6374  153.5340 H   0  0  0  0  0  0  0  0  0  0  0  0  # atno 10765 bound_to 10752
  140.4190  134.6623  157.4654 H   0  0  0  0  0  0  0  0  0  0  0  0  # atno 11005 bound_to 11000
  144.7467  140.5086  143.6831 LP  0  0  0  0  0  0  0  0  0  0  0  0  # atno 17320 bound_to 7965
  145.5770  139.1486  143.3257 LP  0  0  0  0  0  0  0  0  0  0  0  0  # atno 17321 bound_to 7965
  139.5406  144.2658  152.1343 LP  0  0  0  0  0  0  0  0  0  0  0  0  # atno 17342 bound_to 10162
  140.1869  144.4790  150.6499 LP  0  0  0  0  0  0  0  0  0  0  0  0  # atno 17343 bound_to 10162
  156.0195  130.5290  150.8235 LP  0  0  0  0  0  0  0  0  0  0  0  0  # atno 17370 bound_to 10713
  157.5437  131.0941  150.9792 LP  0  0  0  0  0  0  0  0  0  0  0  0  # atno 17371 bound_to 10713
  140.0213  134.6542  155.9235 LP  0  0  0  0  0  0  0  0  0  0  0  0  # atno 17394 bound_to 11000
  141.1791  133.6544  156.4948 LP  0  0  0  0  0  0  0  0  0  0  0  0  # atno 17395 bound_to 11000

$$$$
