AV-unprocessed.smi:276|AV-procd|sdf|2081|dock10
  -GOLD-   2262021353D 1   1.00000     0.00000
 Structure written by MMmdl.
 57 61  0  0  0  0  0  0  0  0  1 V2000
  153.1604  142.8329  163.0588 C   0  0  0  0  0  0  0  0  0  0  0  0
  153.6915  141.8174  162.2261 O   0  0  0  0  0  0  0  0  0  0  0  0
  152.8951  141.5856  161.0749 C   0  0  1  0  0  0  0  0  0  0  0  0
  153.0176  142.6612  159.9886 C   0  0  0  0  0  0  0  0  0  0  0  0
  153.0204  141.5357  158.9351 C   0  0  2  0  0  0  0  0  0  0  0  0
  151.6656  141.2628  158.4335 N   0  0  0  0  0  0  0  0  0  0  0  0
  150.9752  142.3846  157.8043 C   0  0  0  0  0  0  0  0  0  0  0  0
  151.5265  140.1534  157.6738 C   0  0  0  0  0  0  0  0  0  0  0  0
  152.5064  139.9013  156.7706 N   0  0  0  0  0  0  0  0  0  0  0  0
  152.4296  138.8240  155.9836 C   0  0  0  0  0  0  0  0  0  0  0  0
  151.4820  137.8849  155.9431 N   0  0  0  0  0  0  0  0  0  0  0  0
  150.5024  138.1296  156.8600 C   0  0  0  0  0  0  0  0  0  0  0  0
  150.4463  139.2286  157.7626 C   0  0  0  0  0  0  0  0  0  0  0  0
  149.3035  139.1352  158.5489 N   0  0  0  0  0  0  0  0  0  0  0  0
  148.7134  138.0500  158.1279 C   0  0  0  0  0  0  0  0  0  0  0  0
  149.3654  137.3848  157.1151 N   0  0  0  0  0  0  0  0  0  0  0  0
  148.9452  136.1570  156.4635 C   0  0  0  0  0  0  0  0  0  0  0  0
  150.0252  135.0587  156.5209 C   0  0  2  0  0  0  0  0  0  0  0  0
  151.1034  135.4251  155.6807 O   0  0  0  0  0  0  0  0  0  0  0  0
  149.4852  133.6876  156.0733 C   0  0  1  0  0  0  0  0  0  0  0  0
  149.1773  133.5850  154.5782 C   0  0  0  0  0  0  0  0  0  0  0  0
  149.2710  132.0943  154.3488 C   0  0  0  0  0  0  0  0  0  0  0  0
  150.4484  131.7177  155.2421 C   0  0  0  0  0  0  0  0  0  0  0  0
  150.4560  132.6682  156.3044 O   0  0  0  0  0  0  0  0  0  0  0  0
  153.5183  140.5998  160.0702 C   0  0  0  0  0  0  0  0  0  0  0  0
  155.0166  140.2564  160.1606 C   0  0  0  0  0  0  0  0  0  0  0  0
  154.6208  138.9445  160.8433 C   0  0  0  0  0  0  0  0  0  0  0  0
  153.2517  139.0857  160.1738 C   0  0  0  0  0  0  0  0  0  0  0  0
  153.8037  142.9662  163.9284 H   0  0  0  0  0  0  0  0  0  0  0  0
  152.1638  142.5679  163.4144 H   0  0  0  0  0  0  0  0  0  0  0  0
  153.1026  143.7877  162.5345 H   0  0  0  0  0  0  0  0  0  0  0  0
  151.8586  141.3286  161.3044 H   0  0  0  0  0  0  0  0  0  0  0  0
  152.1834  143.3614  159.9563 H   0  0  0  0  0  0  0  0  0  0  0  0
  153.9709  143.1909  160.0301 H   0  0  0  0  0  0  0  0  0  0  0  0
  153.7594  141.7089  158.1530 H   0  0  0  0  0  0  0  0  0  0  0  0
  150.1458  142.0614  157.1725 H   0  0  0  0  0  0  0  0  0  0  0  0
  151.6638  142.9612  157.1859 H   0  0  0  0  0  0  0  0  0  0  0  0
  150.5613  143.0476  158.5633 H   0  0  0  0  0  0  0  0  0  0  0  0
  153.2443  138.6964  155.2862 H   0  0  0  0  0  0  0  0  0  0  0  0
  147.7800  137.7039  158.5474 H   0  0  0  0  0  0  0  0  0  0  0  0
  148.0308  135.8159  156.9501 H   0  0  0  0  0  0  0  0  0  0  0  0
  148.6823  136.3814  155.4288 H   0  0  0  0  0  0  0  0  0  0  0  0
  150.4054  134.9787  157.5403 H   0  0  0  0  0  0  0  0  0  0  0  0
  150.8030  136.0893  155.0797 H   0  0  0  0  0  0  0  0  0  0  0  0
  148.5904  133.4276  156.6417 H   0  0  0  0  0  0  0  0  0  0  0  0
  148.2027  133.9966  154.3145 H   0  0  0  0  0  0  0  0  0  0  0  0
  149.9378  134.1014  153.9905 H   0  0  0  0  0  0  0  0  0  0  0  0
  148.3611  131.6043  154.6985 H   0  0  0  0  0  0  0  0  0  0  0  0
  149.4247  131.8275  153.3029 H   0  0  0  0  0  0  0  0  0  0  0  0
  150.3719  130.6981  155.6203 H   0  0  0  0  0  0  0  0  0  0  0  0
  151.3872  131.8058  154.6940 H   0  0  0  0  0  0  0  0  0  0  0  0
  155.4694  140.0965  159.1806 H   0  0  0  0  0  0  0  0  0  0  0  0
  155.6194  140.9290  160.7711 H   0  0  0  0  0  0  0  0  0  0  0  0
  155.1964  138.0733  160.5298 H   0  0  0  0  0  0  0  0  0  0  0  0
  154.5717  139.0309  161.9301 H   0  0  0  0  0  0  0  0  0  0  0  0
  152.4043  138.8094  160.8016 H   0  0  0  0  0  0  0  0  0  0  0  0
  153.2284  138.5695  159.2144 H   0  0  0  0  0  0  0  0  0  0  0  0
  1  2  1  0  0  0  0
  1 29  1  0  0  0  0
  1 30  1  0  0  0  0
  1 31  1  0  0  0  0
  2  3  1  0  0  0  0
  3 25  1  0  0  0  0
  3  4  1  0  0  0  0
  3 32  1  0  0  0  0
  4  5  1  0  0  0  0
  4 33  1  0  0  0  0
  4 34  1  0  0  0  0
  5  6  1  0  0  0  0
  5 25  1  0  0  0  0
  5 35  1  0  0  0  0
  6  7  1  0  0  0  0
  6  8  1  0  0  0  0
  7 36  1  0  0  0  0
  7 37  1  0  0  0  0
  7 38  1  0  0  0  0
  8 13  1  0  0  0  0
  8  9  2  0  0  0  0
  9 10  1  0  0  0  0
 10 11  2  0  0  0  0
 10 39  1  0  0  0  0
 11 12  1  0  0  0  0
 12 16  1  0  0  0  0
 12 13  2  0  0  0  0
 13 14  1  0  0  0  0
 14 15  2  0  0  0  0
 15 16  1  0  0  0  0
 15 40  1  0  0  0  0
 16 17  1  0  0  0  0
 17 18  1  0  0  0  0
 17 41  1  0  0  0  0
 17 42  1  0  0  0  0
 18 19  1  0  0  0  0
 18 20  1  0  0  0  0
 18 43  1  0  0  0  0
 19 44  1  0  0  0  0
 20 24  1  0  0  0  0
 20 21  1  0  0  0  0
 20 45  1  0  0  0  0
 21 22  1  0  0  0  0
 21 46  1  0  0  0  0
 21 47  1  0  0  0  0
 22 23  1  0  0  0  0
 22 48  1  0  0  0  0
 22 49  1  0  0  0  0
 23 24  1  0  0  0  0
 23 50  1  0  0  0  0
 23 51  1  0  0  0  0
 25 28  1  0  0  0  0
 25 26  1  0  0  0  0
 26 27  1  0  0  0  0
 26 52  1  0  0  0  0
 26 53  1  0  0  0  0
 27 28  1  0  0  0  0
 27 54  1  0  0  0  0
 27 55  1  0  0  0  0
 28 56  1  0  0  0  0
 28 57  1  0  0  0  0
M  END
> <s_m_source_file>
AV-unprocessed.smi

> <i_m_source_file_index>
276

> <i_lp_mmshare_version>
43012

> <i_f3d_flags>
0

> <s_epik_input>
W0NIMl0xW0NIMl1bQ0gyXUMxMltDQEhdKE9bQ0gzXSlbQ0gyXVtDQEhdMk4oW0NIM10pYyhuW2NIXW4zKWMoYzM0KW5bY0hdbjRbQ0gyXVtDQEhdKFtPSF0pW0NAQEhdNVtDSDJdW0NIMl1bQ0gyXU81

> <s_epik_cmdline>
J2VwaWtfcHl0aG9uJywgJy1waCcsICc3LjAnLCAnLXRuJywgJzgnLCAnLW1hJywgJzIwMCcsICctbWV0YWxfYmluZGluZycsICctaW1hZScsICc8aW5maWxlLm1hZT4nLCAnLW9tYWUnLCAnPG91dGZpbGUubWFlPic=

> <r_lp_tautomer_probability>
1

> <r_epik_Ionization_Penalty>
0.00204117

> <r_epik_Ionization_Penalty_Charging>
0

> <r_epik_Ionization_Penalty_Neutral>
0.00204117

> <r_epik_State_Penalty>
0.00127401

> <r_epik_Charging_Adjusted_Penalty>
0.00127401

> <i_epik_Tot_Q>
0

> <i_epik_Tot_abs_Q>
0

> <r_epik_Metal_State_Penalty>
-0

> <b_epik_Metal_Only>
0

> <s_lp_Force_Field>
OPLS_2005

> <r_lp_Energy>
57.2167

> <b_lp_Chiralities_Consistent>
1

> <s_lp_Variant>
AV-unprocessed.smi:276-12

> <Gold.Version>
5.8.1

> <Gold.Id.Protein>
6NUR|6NUR_protein|mol2

> <Gold.PLP.Fitness>
46.8924

> <Gold.PLP.PLP>
-42.8836

> <Gold.PLP.part.hbond>
-3.6212

> <Gold.PLP.part.metal>
0.0000

> <Gold.PLP.part.buried>
-6.0670

> <Gold.PLP.part.nonpolar>
-32.5698

> <Gold.PLP.part.repulsive>
0.0171

> <Gold.PLP.ligand.clash>
0.0000

> <Gold.PLP.ligand.torsion>
1.0340

> <Gold.PLP.Chemscore.Hbond>
1.7460

> <Gold.PLP.Chemscore.CHOScore>
0.0000

> <Gold.PLP.Chemscore.Metal>
0.0000

> <Gold.Chemscore.Hbonds>
donor molecule, donor type, donor heavy atom, donor atom, acceptor molecule, acceptor atom, score
      P1  H  7997  8008       L1     9  0.85
      P1  H 10752 10764       L1    19  0.50

> <Gold.PLP.Chemscore.Internal.Correction>
0.8387

> <Gold.Rescore>
     Score         DG    S(hbond)    S(metal)    S(lipo)     H(rot)  DE(clash)    DE(int)     intcor
     12.84     -14.03       0.73        0.00     111.72       2.72       0.09       1.10       ----

> <Gold.Chemscore.Fitness>
12.8432

> <Gold.Chemscore.DG>
-14.0284

> <Gold.Chemscore.ZeroCoef>
-5.4800

> <Gold.Chemscore.Hbond>
0.7286

> <Gold.Chemscore.Metal>
0.0000

> <Gold.Chemscore.Lipo>
111.7181

> <Gold.Chemscore.Internal_Hbond>
0.0000

> <Gold.Chemscore.DEClash>
0.0880

> <Gold.Chemscore.DEInternal>
1.0972

> <Gold.Chemscore.Rot>
2.7172

> <Gold.Chemscore.Internal.Correction>
   9.000000E+99

> <Gold.Chemscore.Hbonds>
donor molecule, donor type, donor heavy atom, donor atom, acceptor molecule, acceptor atom, score
      P1  H  7997  8008       L1     9  0.14
      P1  H 10752 10764       L1    19  0.10

> <Gold.Chemscore.Hbond.Weighted>
-2.4334

> <Gold.Chemscore.Metal.Weighted>
-0.0000

> <Gold.Chemscore.Lipo.Weighted>
-13.0710

> <Gold.Chemscore.Internal_Hbond.Weighted>
0.0000

> <Gold.Chemscore.DEClash.Weighted>
0.0880

> <Gold.Chemscore.DEInternal.Weighted>
1.0972

> <Gold.Chemscore.Rot.Weighted>
6.9560

> <Gold.Chemscore.Internal.Correction.Weighted>
   9.000000E+99

> <Gold.Protein.RotatedTorsions>
[ 6907 6896 6895 6894 ] final  -20.32 input  -60.11 | X-H torsion
[ 7974 7965 7964 7962 ] final -130.70 input  175.53 | X-H torsion
[ 8008 7997 7996 7995 ] final  -68.30 input   59.86 | X-H torsion
[ 10167 10162 10161 10158 ] final  -93.39 input  -65.29 | X-H torsion
[ 10718 10713 10712 10709 ] final  113.88 input   66.30 | X-H torsion
[ 10763 10752 10751 10750 ] final  -23.08 input  -60.55 | X-H torsion
[ 11005 11000 10999 10996 ] final  117.01 input  -57.11 | X-H torsion

> <Gold.Protein.ActiveResidues>
 VAL166  LYS551  ARG553  GLY616  TRP617  ASP618  TYR619  PRO620  LYS621  CYS622 
 ASP623  PHE694  ASN695  SER759  ASP760  ASP761  ALA762  ILE779  LEU786  VAL792 
 PHE793  MET794  SER795  GLU796  ALA797  LYS798  CYS799  TRP800  GLU811  SER814 

> <Gold.Protein.RotatedAtoms>
  151.2499  135.0618  159.9057 H   0  0  0  0  0  0  0  0  0  0  0  0  # atno 6907 bound_to 6896
  152.5381  134.0343  159.8049 H   0  0  0  0  0  0  0  0  0  0  0  0  # atno 6908 bound_to 6896
  151.0549  133.5543  159.2670 H   0  0  0  0  0  0  0  0  0  0  0  0  # atno 6909 bound_to 6896
  144.9449  140.7280  143.4823 H   0  0  0  0  0  0  0  0  0  0  0  0  # atno 7974 bound_to 7965
  154.4859  140.0875  156.7484 H   0  0  0  0  0  0  0  0  0  0  0  0  # atno 8008 bound_to 7997
  155.4353  140.3451  155.4266 H   0  0  0  0  0  0  0  0  0  0  0  0  # atno 8009 bound_to 7997
  156.1260  140.1487  156.9124 H   0  0  0  0  0  0  0  0  0  0  0  0  # atno 8010 bound_to 7997
  140.3252  143.3026  152.0003 H   0  0  0  0  0  0  0  0  0  0  0  0  # atno 10167 bound_to 10162
  157.6313  131.0990  150.7104 H   0  0  0  0  0  0  0  0  0  0  0  0  # atno 10718 bound_to 10713
  153.6621  135.6976  153.5174 H   0  0  0  0  0  0  0  0  0  0  0  0  # atno 10763 bound_to 10752
  153.2624  135.4240  155.0906 H   0  0  0  0  0  0  0  0  0  0  0  0  # atno 10764 bound_to 10752
  154.8449  135.3558  154.6165 H   0  0  0  0  0  0  0  0  0  0  0  0  # atno 10765 bound_to 10752
  139.9060  134.9605  156.7285 H   0  0  0  0  0  0  0  0  0  0  0  0  # atno 11005 bound_to 11000
  145.2933  139.1876  143.4728 LP  0  0  0  0  0  0  0  0  0  0  0  0  # atno 17320 bound_to 7965
  146.3300  140.2913  142.8615 LP  0  0  0  0  0  0  0  0  0  0  0  0  # atno 17321 bound_to 7965
  139.4866  144.6279  151.7127 LP  0  0  0  0  0  0  0  0  0  0  0  0  # atno 17342 bound_to 10162
  140.5447  144.0522  150.6102 LP  0  0  0  0  0  0  0  0  0  0  0  0  # atno 17343 bound_to 10162
  156.7443  130.4749  149.5470 LP  0  0  0  0  0  0  0  0  0  0  0  0  # atno 17370 bound_to 10713
  156.1519  130.6316  151.0607 LP  0  0  0  0  0  0  0  0  0  0  0  0  # atno 17371 bound_to 10713
  140.6944  133.9362  155.7986 LP  0  0  0  0  0  0  0  0  0  0  0  0  # atno 17394 bound_to 11000
  141.0418  134.0610  157.3893 LP  0  0  0  0  0  0  0  0  0  0  0  0  # atno 17395 bound_to 11000

$$$$
