AV-unprocessed.smi:1670|AV-procd|sdf|6693|dock9
  -GOLD-   22720 7423D 1   1.00000     0.00000
 Structure written by MMmdl.
 41 42  0  0  0  0  0  0  0  0  1 V2000
  148.2998  136.3803  156.3804 C   0  0  0  0  0  0  0  0  0  0  0  0
  148.8479  135.2071  155.5565 C   0  0  2  0  0  0  0  0  0  0  0  0
  150.3815  135.2967  155.4017 C   0  0  0  0  0  0  0  0  0  0  0  0
  150.8462  136.6597  155.2096 N   0  0  0  0  0  0  0  0  0  0  0  0
  150.2581  137.6684  154.4761 C   0  0  0  0  0  0  0  0  0  0  0  0
  151.0451  138.7768  154.6056 C   0  0  0  0  0  0  0  0  0  0  0  0
  152.1065  138.3413  155.4474 C   0  0  0  0  0  0  0  0  0  0  0  0
  151.9882  137.0722  155.8027 N   0  0  0  0  0  0  0  0  0  0  0  0
  148.1917  135.1954  154.2494 N   0  0  0  0  0  0  0  0  0  0  0  0
  147.0336  134.5823  153.9641 C   0  0  0  0  0  0  0  0  0  0  0  0
  146.3509  133.9806  154.7935 O   0  0  0  0  0  0  0  0  0  0  0  0
  146.7284  134.6872  152.6615 N   0  0  0  0  0  0  0  0  0  0  0  0
  145.5828  134.0957  151.9685 C   0  0  2  0  0  0  0  0  0  0  0  0
  145.6511  132.5544  151.9124 C   0  0  0  0  0  0  0  0  0  0  0  0
  144.3927  131.9737  151.2470 C   0  0  0  0  0  0  0  0  0  0  0  0
  144.1781  132.5763  149.8466 C   0  0  1  0  0  0  0  0  0  0  0  0
  142.9808  132.0701  149.2952 O   0  0  0  0  0  0  0  0  0  0  0  0
  144.1062  134.1132  149.9039 C   0  0  0  0  0  0  0  0  0  0  0  0
  145.3630  134.7019  150.5650 C   0  0  0  0  0  0  0  0  0  0  0  0
  148.7460  136.4021  157.3749 H   0  0  0  0  0  0  0  0  0  0  0  0
  147.2197  136.3005  156.5073 H   0  0  0  0  0  0  0  0  0  0  0  0
  148.5100  137.3368  155.9004 H   0  0  0  0  0  0  0  0  0  0  0  0
  148.6047  134.2922  156.0998 H   0  0  0  0  0  0  0  0  0  0  0  0
  150.8820  134.8641  156.2699 H   0  0  0  0  0  0  0  0  0  0  0  0
  150.7027  134.7139  154.5374 H   0  0  0  0  0  0  0  0  0  0  0  0
  149.3354  137.5162  153.9353 H   0  0  0  0  0  0  0  0  0  0  0  0
  150.8844  139.7511  154.1686 H   0  0  0  0  0  0  0  0  0  0  0  0
  152.9546  138.9053  155.8067 H   0  0  0  0  0  0  0  0  0  0  0  0
  148.6783  135.6589  153.4961 H   0  0  0  0  0  0  0  0  0  0  0  0
  147.3694  135.2087  152.0815 H   0  0  0  0  0  0  0  0  0  0  0  0
  144.7174  134.3613  152.5770 H   0  0  0  0  0  0  0  0  0  0  0  0
  146.5285  132.2294  151.3525 H   0  0  0  0  0  0  0  0  0  0  0  0
  145.7566  132.1465  152.9182 H   0  0  0  0  0  0  0  0  0  0  0  0
  144.4793  130.8885  151.1797 H   0  0  0  0  0  0  0  0  0  0  0  0
  143.5251  132.1775  151.8761 H   0  0  0  0  0  0  0  0  0  0  0  0
  145.0001  132.2771  149.1949 H   0  0  0  0  0  0  0  0  0  0  0  0
  142.3591  132.7783  149.2261 H   0  0  0  0  0  0  0  0  0  0  0  0
  143.9924  134.5215  148.8989 H   0  0  0  0  0  0  0  0  0  0  0  0
  143.2238  134.4227  150.4660 H   0  0  0  0  0  0  0  0  0  0  0  0
  145.2683  135.7861  150.6351 H   0  0  0  0  0  0  0  0  0  0  0  0
  146.2236  134.5083  149.9241 H   0  0  0  0  0  0  0  0  0  0  0  0
  1  2  1  0  0  0  0
  1 20  1  0  0  0  0
  1 21  1  0  0  0  0
  1 22  1  0  0  0  0
  2  3  1  0  0  0  0
  2  9  1  0  0  0  0
  2 23  1  0  0  0  0
  3  4  1  0  0  0  0
  3 24  1  0  0  0  0
  3 25  1  0  0  0  0
  4  8  1  0  0  0  0
  4  5  1  0  0  0  0
  5  6  2  0  0  0  0
  5 26  1  0  0  0  0
  6  7  1  0  0  0  0
  6 27  1  0  0  0  0
  7  8  2  0  0  0  0
  7 28  1  0  0  0  0
  9 10  1  0  0  0  0
  9 29  1  0  0  0  0
 10 11  2  0  0  0  0
 10 12  1  0  0  0  0
 12 13  1  0  0  0  0
 12 30  1  0  0  0  0
 13 19  1  0  0  0  0
 13 14  1  0  0  0  0
 13 31  1  0  0  0  0
 14 15  1  0  0  0  0
 14 32  1  0  0  0  0
 14 33  1  0  0  0  0
 15 16  1  0  0  0  0
 15 34  1  0  0  0  0
 15 35  1  0  0  0  0
 16 17  1  0  0  0  0
 16 18  1  0  0  0  0
 16 36  1  0  0  0  0
 17 37  1  0  0  0  0
 18 19  1  0  0  0  0
 18 38  1  0  0  0  0
 18 39  1  0  0  0  0
 19 40  1  0  0  0  0
 19 41  1  0  0  0  0
M  END
> <s_m_source_file>
AV-unprocessed.smi

> <i_m_source_file_index>
1670

> <i_lp_mmshare_version>
43012

> <i_f3d_flags>
0

> <s_epik_input>
bjFbY0hdW2NIXVtjSF1uMVtDSDJdW0NAQEhdKFtDSDNdKVtOSF1DKD1PKVtOSF1bQ0BASF0yW0NIMl1bQ0gyXVtDQEBIXShbT0hdKVtDSDJdW0NIMl0y

> <s_epik_cmdline>
J2VwaWtfcHl0aG9uJywgJy1waCcsICc3LjAnLCAnLXRuJywgJzgnLCAnLW1hJywgJzIwMCcsICctbWV0YWxfYmluZGluZycsICctaW1hZScsICc8aW5maWxlLm1hZT4nLCAnLW9tYWUnLCAnPG91dGZpbGUubWFlPic=

> <r_lp_tautomer_probability>
1

> <r_epik_Ionization_Penalty>
7.33369e-05

> <r_epik_Ionization_Penalty_Charging>
0

> <r_epik_Ionization_Penalty_Neutral>
7.33369e-05

> <r_epik_State_Penalty>
-0

> <r_epik_Charging_Adjusted_Penalty>
0

> <i_epik_Tot_Q>
0

> <i_epik_Tot_abs_Q>
0

> <r_epik_Metal_State_Penalty>
-0

> <b_epik_Metal_Only>
0

> <s_lp_Force_Field>
OPLS_2005

> <r_lp_Energy>
5.26958

> <b_lp_Chiralities_Consistent>
1

> <s_lp_Variant>
AV-unprocessed.smi:1670-1

> <Gold.Version>
5.8.1

> <Gold.Id.Protein>
6NUR|6NUR_protein|mol2

> <Gold.PLP.Fitness>
47.3264

> <Gold.PLP.PLP>
-32.7223

> <Gold.PLP.part.hbond>
-5.9359

> <Gold.PLP.part.metal>
0.0000

> <Gold.PLP.part.buried>
-2.5573

> <Gold.PLP.part.nonpolar>
-25.0961

> <Gold.PLP.part.repulsive>
0.0863

> <Gold.PLP.ligand.clash>
0.0000

> <Gold.PLP.ligand.torsion>
1.0068

> <Gold.PLP.Chemscore.Hbond>
4.5800

> <Gold.PLP.Chemscore.CHOScore>
0.9451

> <Gold.PLP.Chemscore.Metal>
0.0000

> <Gold.Chemscore.Hbonds>
donor molecule, donor type, donor heavy atom, donor atom, acceptor molecule, acceptor atom, score
      L1  H     9    29       P1  7948  1.00
      L1  H    12    30       P1  7948  1.00
      L1  H    17    37       P1 10186  0.71
      P1  H 10752 10765       L1     8  0.55
      P1  H 10785 10796       L1    17  1.00
      L1  C     5    26       P1  7948  0.95

> <Gold.PLP.Chemscore.Internal.Correction>
0.0426

> <Gold.Rescore>
     Score         DG    S(hbond)    S(metal)    S(lipo)     H(rot)  DE(clash)    DE(int)     intcor
     19.05     -20.31       3.53        0.00      74.65       2.22       0.31       0.96       ----

> <Gold.Chemscore.Fitness>
19.0507

> <Gold.Chemscore.DG>
-20.3120

> <Gold.Chemscore.ZeroCoef>
-5.4800

> <Gold.Chemscore.Hbond>
3.5290

> <Gold.Chemscore.Metal>
0.0000

> <Gold.Chemscore.Lipo>
74.6535

> <Gold.Chemscore.Internal_Hbond>
0.0000

> <Gold.Chemscore.DEClash>
0.3056

> <Gold.Chemscore.DEInternal>
0.9556

> <Gold.Chemscore.Rot>
2.2224

> <Gold.Chemscore.Internal.Correction>
   9.000000E+99

> <Gold.Chemscore.Hbonds>
donor molecule, donor type, donor heavy atom, donor atom, acceptor molecule, acceptor atom, score
      L1  H     9    29       P1  7948  0.98
      L1  H    12    30       P1  7948  0.95
      L1  H    17    37       P1 10186  0.71
      P1  H 10752 10765       L1     8  0.11
      P1  H 10785 10796       L1    17  0.74

> <Gold.Chemscore.Hbond.Weighted>
-11.7868

> <Gold.Chemscore.Metal.Weighted>
-0.0000

> <Gold.Chemscore.Lipo.Weighted>
-8.7345

> <Gold.Chemscore.Internal_Hbond.Weighted>
0.0000

> <Gold.Chemscore.DEClash.Weighted>
0.3056

> <Gold.Chemscore.DEInternal.Weighted>
0.9556

> <Gold.Chemscore.Rot.Weighted>
5.6893

> <Gold.Chemscore.Internal.Correction.Weighted>
   9.000000E+99

> <Gold.Protein.RotatedTorsions>
[ 6907 6896 6895 6894 ] final  -42.49 input  -60.11 | X-H torsion
[ 7974 7965 7964 7962 ] final  142.08 input  175.53 | X-H torsion
[ 8008 7997 7996 7995 ] final   -4.70 input   59.86 | X-H torsion
[ 10167 10162 10161 10158 ] final  -31.22 input  -65.29 | X-H torsion
[ 10718 10713 10712 10709 ] final  158.94 input   66.30 | X-H torsion
[ 10763 10752 10751 10750 ] final -141.77 input  -60.55 | X-H torsion
[ 11005 11000 10999 10996 ] final   61.04 input  -57.11 | X-H torsion

> <Gold.Protein.ActiveResidues>
 VAL166  LYS551  ARG553  GLY616  TRP617  ASP618  TYR619  PRO620  LYS621  CYS622 
 ASP623  PHE694  ASN695  SER759  ASP760  ASP761  ALA762  ILE779  LEU786  VAL792 
 PHE793  MET794  SER795  GLU796  ALA797  LYS798  CYS799  TRP800  GLU811  SER814 

> <Gold.Protein.RotatedAtoms>
  150.9546  134.8942  159.7692 H   0  0  0  0  0  0  0  0  0  0  0  0  # atno 6907 bound_to 6896
  152.5133  134.3758  159.9344 H   0  0  0  0  0  0  0  0  0  0  0  0  # atno 6908 bound_to 6896
  151.3773  133.3793  159.2741 H   0  0  0  0  0  0  0  0  0  0  0  0  # atno 6909 bound_to 6896
  144.9039  139.5385  143.5741 H   0  0  0  0  0  0  0  0  0  0  0  0  # atno 7974 bound_to 7965
  154.6116  140.2477  155.7662 H   0  0  0  0  0  0  0  0  0  0  0  0  # atno 8008 bound_to 7997
  156.2374  140.2945  156.0299 H   0  0  0  0  0  0  0  0  0  0  0  0  # atno 8009 bound_to 7997
  155.2043  140.0395  157.2913 H   0  0  0  0  0  0  0  0  0  0  0  0  # atno 8010 bound_to 7997
  140.7239  143.3788  151.1640 H   0  0  0  0  0  0  0  0  0  0  0  0  # atno 10167 bound_to 10162
  157.1711  131.0610  151.2182 H   0  0  0  0  0  0  0  0  0  0  0  0  # atno 10718 bound_to 10713
  154.8533  135.3515  154.5920 H   0  0  0  0  0  0  0  0  0  0  0  0  # atno 10763 bound_to 10752
  153.6530  135.6993  153.5207 H   0  0  0  0  0  0  0  0  0  0  0  0  # atno 10764 bound_to 10752
  153.2879  135.4244  155.1097 H   0  0  0  0  0  0  0  0  0  0  0  0  # atno 10765 bound_to 10752
  140.0189  134.6183  155.9669 H   0  0  0  0  0  0  0  0  0  0  0  0  # atno 11005 bound_to 11000
  146.3123  139.7791  142.9010 LP  0  0  0  0  0  0  0  0  0  0  0  0  # atno 17320 bound_to 7965
  145.3569  141.0318  143.3307 LP  0  0  0  0  0  0  0  0  0  0  0  0  # atno 17321 bound_to 7965
  139.7373  143.8979  152.3039 LP  0  0  0  0  0  0  0  0  0  0  0  0  # atno 17342 bound_to 10162
  139.8788  144.7029  150.8901 LP  0  0  0  0  0  0  0  0  0  0  0  0  # atno 17343 bound_to 10162
  157.4042  130.7350  149.6790 LP  0  0  0  0  0  0  0  0  0  0  0  0  # atno 17370 bound_to 10713
  155.9738  130.4112  150.3971 LP  0  0  0  0  0  0  0  0  0  0  0  0  # atno 17371 bound_to 10713
  141.1761  133.6540  156.4833 LP  0  0  0  0  0  0  0  0  0  0  0  0  # atno 17394 bound_to 11000
  140.4422  134.7005  157.4998 LP  0  0  0  0  0  0  0  0  0  0  0  0  # atno 17395 bound_to 11000

$$$$
