AV-unprocessed.smi:329|AV-procd|sdf|2348|dock6
  -GOLD-   2262022263D 1   1.00000     0.00000
 Structure written by MMmdl.
 18 18  0  0  0  0  0  0  0  0  1 V2000
  150.4145  138.2107  153.4711 N   0  0  0  0  0  0  0  0  0  0  0  0
  151.2278  137.7522  154.4254 C   0  0  0  0  0  0  0  0  0  0  0  0
  151.2078  136.5761  154.7865 O   0  0  0  0  0  0  0  0  0  0  0  0
  152.1859  138.7736  155.0526 C   0  0  0  0  0  0  0  0  0  0  0  0
  151.4991  139.9302  155.6052 N   0  0  0  0  0  0  0  0  0  0  0  0
  151.5668  140.4351  156.8877 C   0  0  0  0  0  0  0  0  0  0  0  0
  150.7547  141.5318  156.9350 C   0  0  0  0  0  0  0  0  0  0  0  0
  150.5244  142.3603  158.0492 N   0  0  0  0  0  0  0  0  0  0  0  0
  150.2235  141.6180  155.6175 C   0  0  0  0  0  0  0  0  0  0  0  0
  150.6694  140.6571  154.8243 N   0  0  0  0  0  0  0  0  0  0  0  0
  149.7649  137.5806  153.0233 H   0  0  0  0  0  0  0  0  0  0  0  0
  150.4516  139.1823  153.1987 H   0  0  0  0  0  0  0  0  0  0  0  0
  152.7700  138.2927  155.8390 H   0  0  0  0  0  0  0  0  0  0  0  0
  152.8903  139.1205  154.2954 H   0  0  0  0  0  0  0  0  0  0  0  0
  152.1843  139.9785  157.6472 H   0  0  0  0  0  0  0  0  0  0  0  0
  150.9691  142.1909  158.9399 H   0  0  0  0  0  0  0  0  0  0  0  0
  149.8568  143.1178  158.0218 H   0  0  0  0  0  0  0  0  0  0  0  0
  149.5320  142.3445  155.2168 H   0  0  0  0  0  0  0  0  0  0  0  0
  1  2  1  0  0  0  0
  1 11  1  0  0  0  0
  1 12  1  0  0  0  0
  2  3  2  0  0  0  0
  2  4  1  0  0  0  0
  4  5  1  0  0  0  0
  4 13  1  0  0  0  0
  4 14  1  0  0  0  0
  5 10  1  0  0  0  0
  5  6  1  0  0  0  0
  6  7  2  0  0  0  0
  6 15  1  0  0  0  0
  7  8  1  0  0  0  0
  7  9  1  0  0  0  0
  8 16  1  0  0  0  0
  8 17  1  0  0  0  0
  9 10  2  0  0  0  0
  9 18  1  0  0  0  0
M  END
> <s_m_source_file>
AV-unprocessed.smi

> <i_m_source_file_index>
329

> <i_lp_mmshare_version>
43012

> <i_f3d_flags>
0

> <s_epik_input>
W05IMl1DKD1PKVtDSDJdbjFbY0hdYyhbTkgyXSlbY0hdbjE=

> <s_epik_cmdline>
J2VwaWtfcHl0aG9uJywgJy1waCcsICc3LjAnLCAnLXRuJywgJzgnLCAnLW1hJywgJzIwMCcsICctbWV0YWxfYmluZGluZycsICctaW1hZScsICc8aW5maWxlLm1hZT4nLCAnLW9tYWUnLCAnPG91dGZpbGUubWFlPic=

> <r_lp_tautomer_probability>
1

> <r_epik_Ionization_Penalty>
9.33273e-05

> <r_epik_Ionization_Penalty_Charging>
0

> <r_epik_Ionization_Penalty_Neutral>
9.33273e-05

> <r_epik_State_Penalty>
-0

> <r_epik_Charging_Adjusted_Penalty>
0

> <i_epik_Tot_Q>
0

> <i_epik_Tot_abs_Q>
0

> <r_epik_Metal_State_Penalty>
-0

> <b_epik_Metal_Only>
0

> <s_lp_Force_Field>
OPLS_2005

> <r_lp_Energy>
3.96238

> <b_lp_Chiralities_Consistent>
1

> <s_lp_Variant>
AV-unprocessed.smi:329-1

> <Gold.Version>
5.8.1

> <Gold.Id.Protein>
6NUR|6NUR_protein|mol2

> <Gold.PLP.Fitness>
33.4193

> <Gold.PLP.PLP>
-21.3851

> <Gold.PLP.part.hbond>
-4.7806

> <Gold.PLP.part.metal>
0.0000

> <Gold.PLP.part.buried>
-0.4877

> <Gold.PLP.part.nonpolar>
-15.4484

> <Gold.PLP.part.repulsive>
0.3968

> <Gold.PLP.ligand.clash>
0.0000

> <Gold.PLP.ligand.torsion>
0.0388

> <Gold.PLP.Chemscore.Hbond>
3.0372

> <Gold.PLP.Chemscore.CHOScore>
1.0000

> <Gold.PLP.Chemscore.Metal>
0.0000

> <Gold.Chemscore.Hbonds>
donor molecule, donor type, donor heavy atom, donor atom, acceptor molecule, acceptor atom, score
      L1  H     1    11       P1  7948  1.00
      L1  H     1    12       P1  7957  0.09
      P1  H  7989  7998       L1    10  0.94
      P1  H 10752 10764       L1     3  1.00
      L1  C     9    18       P1  8028  1.00

> <Gold.PLP.Chemscore.Internal.Correction>
0.0002

> <Gold.Rescore>
     Score         DG    S(hbond)    S(metal)    S(lipo)     H(rot)  DE(clash)    DE(int)     intcor
     10.33     -11.91       2.18        0.00      28.33       1.63       0.26       1.32       ----

> <Gold.Chemscore.Fitness>
10.3299

> <Gold.Chemscore.DG>
-11.9097

> <Gold.Chemscore.ZeroCoef>
-5.4800

> <Gold.Chemscore.Hbond>
2.1801

> <Gold.Chemscore.Metal>
0.0000

> <Gold.Chemscore.Lipo>
28.3285

> <Gold.Chemscore.Internal_Hbond>
0.0000

> <Gold.Chemscore.DEClash>
0.2557

> <Gold.Chemscore.DEInternal>
1.3241

> <Gold.Chemscore.Rot>
1.6274

> <Gold.Chemscore.Internal.Correction>
   9.000000E+99

> <Gold.Chemscore.Hbonds>
donor molecule, donor type, donor heavy atom, donor atom, acceptor molecule, acceptor atom, score
      L1  H     1    11       P1  7948  0.55
      L1  H     1    12       P1  7957  0.08
      P1  H  7989  7998       L1    10  0.27
      P1  H 10752 10764       L1     3  0.89

> <Gold.Chemscore.Hbond.Weighted>
-7.2814

> <Gold.Chemscore.Metal.Weighted>
-0.0000

> <Gold.Chemscore.Lipo.Weighted>
-3.3144

> <Gold.Chemscore.Internal_Hbond.Weighted>
0.0000

> <Gold.Chemscore.DEClash.Weighted>
0.2557

> <Gold.Chemscore.DEInternal.Weighted>
1.3241

> <Gold.Chemscore.Rot.Weighted>
4.1662

> <Gold.Chemscore.Internal.Correction.Weighted>
   9.000000E+99

> <Gold.Protein.RotatedTorsions>
[ 6907 6896 6895 6894 ] final  -85.25 input  -60.11 | X-H torsion
[ 7974 7965 7964 7962 ] final  148.14 input  175.53 | X-H torsion
[ 8008 7997 7996 7995 ] final   29.86 input   59.86 | X-H torsion
[ 10167 10162 10161 10158 ] final -103.04 input  -65.29 | X-H torsion
[ 10718 10713 10712 10709 ] final  -74.23 input   66.30 | X-H torsion
[ 10763 10752 10751 10750 ] final  -53.28 input  -60.55 | X-H torsion
[ 11005 11000 10999 10996 ] final -128.19 input  -57.11 | X-H torsion

> <Gold.Protein.ActiveResidues>
 VAL166  LYS551  ARG553  GLY616  TRP617  ASP618  TYR619  PRO620  LYS621  CYS622 
 ASP623  PHE694  ASN695  SER759  ASP760  ASP761  ALA762  ILE779  LEU786  VAL792 
 PHE793  MET794  SER795  GLU796  ALA797  LYS798  CYS799  TRP800  GLU811  SER814 

> <Gold.Protein.RotatedAtoms>
  150.6871  134.3233  159.4795 H   0  0  0  0  0  0  0  0  0  0  0  0  # atno 6907 bound_to 6896
  152.1106  134.9274  160.0576 H   0  0  0  0  0  0  0  0  0  0  0  0  # atno 6908 bound_to 6896
  152.0518  133.3988  159.4417 H   0  0  0  0  0  0  0  0  0  0  0  0  # atno 6909 bound_to 6896
  144.8536  139.6117  143.5962 H   0  0  0  0  0  0  0  0  0  0  0  0  # atno 7974 bound_to 7965
  155.0812  140.3210  155.4601 H   0  0  0  0  0  0  0  0  0  0  0  0  # atno 8008 bound_to 7997
  156.2766  140.2094  156.5886 H   0  0  0  0  0  0  0  0  0  0  0  0  # atno 8009 bound_to 7997
  154.6977  140.0510  157.0414 H   0  0  0  0  0  0  0  0  0  0  0  0  # atno 8010 bound_to 7997
  140.2242  143.3653  152.0943 H   0  0  0  0  0  0  0  0  0  0  0  0  # atno 10167 bound_to 10162
  156.0250  130.4412  150.2861 H   0  0  0  0  0  0  0  0  0  0  0  0  # atno 10718 bound_to 10713
  154.1562  135.6482  153.4975 H   0  0  0  0  0  0  0  0  0  0  0  0  # atno 10763 bound_to 10752
  153.0123  135.5350  154.6757 H   0  0  0  0  0  0  0  0  0  0  0  0  # atno 10764 bound_to 10752
  154.6059  135.2948  155.0457 H   0  0  0  0  0  0  0  0  0  0  0  0  # atno 10765 bound_to 10752
  140.9537  134.1031  157.4037 H   0  0  0  0  0  0  0  0  0  0  0  0  # atno 11005 bound_to 11000
  146.2805  139.6865  142.9232 LP  0  0  0  0  0  0  0  0  0  0  0  0  # atno 17320 bound_to 7965
  145.4450  141.0425  143.2836 LP  0  0  0  0  0  0  0  0  0  0  0  0  # atno 17321 bound_to 7965
  139.5133  144.6930  151.5707 LP  0  0  0  0  0  0  0  0  0  0  0  0  # atno 17342 bound_to 10162
  140.6232  143.9218  150.6543 LP  0  0  0  0  0  0  0  0  0  0  0  0  # atno 17343 bound_to 10162
  157.0965  131.0184  151.3102 LP  0  0  0  0  0  0  0  0  0  0  0  0  # atno 17370 bound_to 10713
  157.4813  130.7767  149.7417 LP  0  0  0  0  0  0  0  0  0  0  0  0  # atno 17371 bound_to 10713
  139.8855  135.0073  156.6441 LP  0  0  0  0  0  0  0  0  0  0  0  0  # atno 17394 bound_to 11000
  140.7566  133.8852  155.8387 LP  0  0  0  0  0  0  0  0  0  0  0  0  # atno 17395 bound_to 11000

$$$$
