AV-unprocessed.smi:2148|AV-procd|sdf|8749|dock9
  -GOLD-   2272011523D 1   1.00000     0.00000
 Structure written by MMmdl.
 44 45  0  0  0  0  0  0  0  0  1 V2000
  155.1902  143.5721  167.5680 C   0  0  0  0  0  0  0  0  0  0  0  0
  154.8108  144.1881  165.9056 S   0  0  0  0  0  0  0  0  0  0  0  0
  155.1998  142.7214  164.9041 C   0  0  1  0  0  0  0  0  0  0  0  0
  155.2469  141.4512  165.7736 C   0  0  0  0  0  0  0  0  0  0  0  0
  154.2311  142.5895  163.7199 C   0  0  0  0  0  0  0  0  0  0  0  0
  153.1967  143.2564  163.6857 O   0  0  0  0  0  0  0  0  0  0  0  0
  154.5934  141.6977  162.7783 N   0  0  0  0  0  0  0  0  0  0  0  0
  153.9231  141.3449  161.5756 C   0  0  0  0  0  0  0  0  0  0  0  0
  154.1400  140.1437  160.8594 C   0  0  0  0  0  0  0  0  0  0  0  0
  153.3988  139.9073  159.6860 C   0  0  0  0  0  0  0  0  0  0  0  0
  152.4580  140.8759  159.2676 C   0  0  0  0  0  0  0  0  0  0  0  0
  151.6913  140.7030  158.1079 N   0  0  0  0  0  0  0  0  0  0  0  0
  152.2352  139.7039  157.2000 C   0  0  0  0  0  0  0  0  0  0  0  0
  151.2443  139.4426  156.0508 C   0  0  2  0  0  0  0  0  0  0  0  0
  151.8225  138.4847  155.0039 C   0  0  0  0  0  0  0  0  0  0  0  0
  150.9331  140.6755  155.3996 O   0  0  0  0  0  0  0  0  0  0  0  0
  150.3971  141.6896  156.2547 C   0  0  1  0  0  0  0  0  0  0  0  0
  148.9564  141.3753  156.6962 C   0  0  0  0  0  0  0  0  0  0  0  0
  151.3581  141.9497  157.4316 C   0  0  0  0  0  0  0  0  0  0  0  0
  152.2342  142.0154  159.9563 N   0  0  0  0  0  0  0  0  0  0  0  0
  152.9478  142.2352  161.0806 C   0  0  0  0  0  0  0  0  0  0  0  0
  155.0340  144.3620  168.3024 H   0  0  0  0  0  0  0  0  0  0  0  0
  156.2295  143.2483  167.6272 H   0  0  0  0  0  0  0  0  0  0  0  0
  154.5470  142.7316  167.8268 H   0  0  0  0  0  0  0  0  0  0  0  0
  156.1927  142.8732  164.4781 H   0  0  0  0  0  0  0  0  0  0  0  0
  155.4375  140.5624  165.1706 H   0  0  0  0  0  0  0  0  0  0  0  0
  154.3082  141.2983  166.3077 H   0  0  0  0  0  0  0  0  0  0  0  0
  156.0421  141.5100  166.5163 H   0  0  0  0  0  0  0  0  0  0  0  0
  155.4324  141.1712  162.9740 H   0  0  0  0  0  0  0  0  0  0  0  0
  154.8440  139.3956  161.1883 H   0  0  0  0  0  0  0  0  0  0  0  0
  153.5502  138.9964  159.1258 H   0  0  0  0  0  0  0  0  0  0  0  0
  153.1889  140.0519  156.8007 H   0  0  0  0  0  0  0  0  0  0  0  0
  152.4311  138.7791  157.7443 H   0  0  0  0  0  0  0  0  0  0  0  0
  150.3319  138.9975  156.4483 H   0  0  0  0  0  0  0  0  0  0  0  0
  152.0646  137.5189  155.4479 H   0  0  0  0  0  0  0  0  0  0  0  0
  152.7336  138.8874  154.5604 H   0  0  0  0  0  0  0  0  0  0  0  0
  151.1084  138.3105  154.1987 H   0  0  0  0  0  0  0  0  0  0  0  0
  150.3519  142.5999  155.6560 H   0  0  0  0  0  0  0  0  0  0  0  0
  148.5298  142.2154  157.2446 H   0  0  0  0  0  0  0  0  0  0  0  0
  148.9034  140.5044  157.3489 H   0  0  0  0  0  0  0  0  0  0  0  0
  148.3177  141.1867  155.8332 H   0  0  0  0  0  0  0  0  0  0  0  0
  150.9144  142.6529  158.1378 H   0  0  0  0  0  0  0  0  0  0  0  0
  152.2718  142.4109  157.0544 H   0  0  0  0  0  0  0  0  0  0  0  0
  152.7350  143.1583  161.5999 H   0  0  0  0  0  0  0  0  0  0  0  0
  1  2  1  0  0  0  0
  1 22  1  0  0  0  0
  1 23  1  0  0  0  0
  1 24  1  0  0  0  0
  2  3  1  0  0  0  0
  3  4  1  0  0  0  0
  3  5  1  0  0  0  0
  3 25  1  0  0  0  0
  4 26  1  0  0  0  0
  4 27  1  0  0  0  0
  4 28  1  0  0  0  0
  5  6  2  0  0  0  0
  5  7  1  0  0  0  0
  7  8  1  0  0  0  0
  7 29  1  0  0  0  0
  8 21  1  0  0  0  0
  8  9  2  0  0  0  0
  9 10  1  0  0  0  0
  9 30  1  0  0  0  0
 10 11  2  0  0  0  0
 10 31  1  0  0  0  0
 11 12  1  0  0  0  0
 11 20  1  0  0  0  0
 12 19  1  0  0  0  0
 12 13  1  0  0  0  0
 13 14  1  0  0  0  0
 13 32  1  0  0  0  0
 13 33  1  0  0  0  0
 14 15  1  0  0  0  0
 14 16  1  0  0  0  0
 14 34  1  0  0  0  0
 15 35  1  0  0  0  0
 15 36  1  0  0  0  0
 15 37  1  0  0  0  0
 16 17  1  0  0  0  0
 17 18  1  0  0  0  0
 17 19  1  0  0  0  0
 17 38  1  0  0  0  0
 18 39  1  0  0  0  0
 18 40  1  0  0  0  0
 18 41  1  0  0  0  0
 19 42  1  0  0  0  0
 19 43  1  0  0  0  0
 20 21  2  0  0  0  0
 21 44  1  0  0  0  0
M  END
> <s_m_source_file>
AV-unprocessed.smi

> <i_m_source_file_index>
2148

> <i_lp_mmshare_version>
43012

> <i_f3d_flags>
0

> <s_epik_input>
W0NIM11TW0NASF0oW0NIM10pQyg9TylbTkhdYzFbY0hdW2NIXWMobltjSF0xKU4yW0NIMl1bQ0BASF0oW0NIM10pT1tDQEBIXShbQ0gzXSlbQ0gyXTI=

> <s_epik_cmdline>
J2VwaWtfcHl0aG9uJywgJy1waCcsICc3LjAnLCAnLXRuJywgJzgnLCAnLW1hJywgJzIwMCcsICctbWV0YWxfYmluZGluZycsICctaW1hZScsICc8aW5maWxlLm1hZT4nLCAnLW9tYWUnLCAnPG91dGZpbGUubWFlPic=

> <r_lp_tautomer_probability>
1

> <r_epik_Ionization_Penalty>
0.000646494

> <r_epik_Ionization_Penalty_Charging>
0

> <r_epik_Ionization_Penalty_Neutral>
0.000646494

> <r_epik_State_Penalty>
0.000408447

> <r_epik_Charging_Adjusted_Penalty>
0.000408447

> <i_epik_Tot_Q>
0

> <i_epik_Tot_abs_Q>
0

> <r_epik_Metal_State_Penalty>
-0

> <b_epik_Metal_Only>
0

> <s_lp_Force_Field>
OPLS_2005

> <r_lp_Energy>
27.0114

> <b_lp_Chiralities_Consistent>
1

> <s_lp_Variant>
AV-unprocessed.smi:2148-4

> <Gold.Version>
5.8.1

> <Gold.Id.Protein>
6NUR|6NUR_protein|mol2

> <Gold.PLP.Fitness>
43.1600

> <Gold.PLP.PLP>
-43.2696

> <Gold.PLP.part.hbond>
-2.1161

> <Gold.PLP.part.metal>
0.0000

> <Gold.PLP.part.buried>
-4.9282

> <Gold.PLP.part.nonpolar>
-36.0347

> <Gold.PLP.part.repulsive>
0.1980

> <Gold.PLP.ligand.clash>
0.0000

> <Gold.PLP.ligand.torsion>
1.4503

> <Gold.PLP.Chemscore.Hbond>
0.8800

> <Gold.PLP.Chemscore.CHOScore>
0.0000

> <Gold.PLP.Chemscore.Metal>
0.0000

> <Gold.Chemscore.Hbonds>
donor molecule, donor type, donor heavy atom, donor atom, acceptor molecule, acceptor atom, score
      P1  H  7989  7998       L1    16  0.86

> <Gold.PLP.Chemscore.Internal.Correction>
0.1508

> <Gold.Rescore>
     Score         DG    S(hbond)    S(metal)    S(lipo)     H(rot)  DE(clash)    DE(int)     intcor
     13.53     -17.16       0.87        0.00     102.67       1.27       1.00       2.63       ----

> <Gold.Chemscore.Fitness>
13.5343

> <Gold.Chemscore.DG>
-17.1645

> <Gold.Chemscore.ZeroCoef>
-5.4800

> <Gold.Chemscore.Hbond>
0.8721

> <Gold.Chemscore.Metal>
0.0000

> <Gold.Chemscore.Lipo>
102.6684

> <Gold.Chemscore.Internal_Hbond>
0.0000

> <Gold.Chemscore.DEClash>
0.9988

> <Gold.Chemscore.DEInternal>
2.6314

> <Gold.Chemscore.Rot>
1.2659

> <Gold.Chemscore.Internal.Correction>
   9.000000E+99

> <Gold.Chemscore.Hbonds>
donor molecule, donor type, donor heavy atom, donor atom, acceptor molecule, acceptor atom, score
      P1  H  7989  7998       L1    16  0.73

> <Gold.Chemscore.Hbond.Weighted>
-2.9128

> <Gold.Chemscore.Metal.Weighted>
-0.0000

> <Gold.Chemscore.Lipo.Weighted>
-12.0122

> <Gold.Chemscore.Internal_Hbond.Weighted>
0.0000

> <Gold.Chemscore.DEClash.Weighted>
0.9988

> <Gold.Chemscore.DEInternal.Weighted>
2.6314

> <Gold.Chemscore.Rot.Weighted>
3.2406

> <Gold.Chemscore.Internal.Correction.Weighted>
   9.000000E+99

> <Gold.Protein.RotatedTorsions>
[ 6907 6896 6895 6894 ] final  106.76 input  -60.11 | X-H torsion
[ 7974 7965 7964 7962 ] final   41.01 input  175.53 | X-H torsion
[ 8008 7997 7996 7995 ] final  140.20 input   59.86 | X-H torsion
[ 10167 10162 10161 10158 ] final   32.01 input  -65.29 | X-H torsion
[ 10718 10713 10712 10709 ] final  179.95 input   66.30 | X-H torsion
[ 10763 10752 10751 10750 ] final  -48.15 input  -60.55 | X-H torsion
[ 11005 11000 10999 10996 ] final  140.94 input  -57.11 | X-H torsion

> <Gold.Protein.ActiveResidues>
 VAL166  LYS551  ARG553  GLY616  TRP617  ASP618  TYR619  PRO620  LYS621  CYS622 
 ASP623  PHE694  ASN695  SER759  ASP760  ASP761  ALA762  ILE779  LEU786  VAL792 
 PHE793  MET794  SER795  GLU796  ALA797  LYS798  CYS799  TRP800  GLU811  SER814 

> <Gold.Protein.RotatedAtoms>
  152.5181  133.9334  159.7591 H   0  0  0  0  0  0  0  0  0  0  0  0  # atno 6907 bound_to 6896
  150.9680  133.6366  159.2750 H   0  0  0  0  0  0  0  0  0  0  0  0  # atno 6908 bound_to 6896
  151.3587  135.0905  159.9480 H   0  0  0  0  0  0  0  0  0  0  0  0  # atno 6909 bound_to 6896
  146.0858  139.5465  142.9507 H   0  0  0  0  0  0  0  0  0  0  0  0  # atno 7974 bound_to 7965
  156.2982  140.2347  156.4362 H   0  0  0  0  0  0  0  0  0  0  0  0  # atno 8008 bound_to 7997
  154.8226  140.0437  157.1442 H   0  0  0  0  0  0  0  0  0  0  0  0  # atno 8009 bound_to 7997
  154.9298  140.3015  155.5177 H   0  0  0  0  0  0  0  0  0  0  0  0  # atno 8010 bound_to 7997
  140.4537  144.1010  150.6197 H   0  0  0  0  0  0  0  0  0  0  0  0  # atno 10167 bound_to 10162
  156.8682  130.9774  151.3076 H   0  0  0  0  0  0  0  0  0  0  0  0  # atno 10718 bound_to 10713
  154.0730  135.6602  153.4827 H   0  0  0  0  0  0  0  0  0  0  0  0  # atno 10763 bound_to 10752
  153.0384  135.5162  154.7548 H   0  0  0  0  0  0  0  0  0  0  0  0  # atno 10764 bound_to 10752
  154.6620  135.3016  154.9822 H   0  0  0  0  0  0  0  0  0  0  0  0  # atno 10765 bound_to 10752
  140.0365  134.9326  157.0762 H   0  0  0  0  0  0  0  0  0  0  0  0  # atno 11005 bound_to 11000
  145.6132  141.0336  143.1955 LP  0  0  0  0  0  0  0  0  0  0  0  0  # atno 17320 bound_to 7965
  144.7325  139.7684  143.7342 LP  0  0  0  0  0  0  0  0  0  0  0  0  # atno 17321 bound_to 7965
  140.4176  143.2627  151.9755 LP  0  0  0  0  0  0  0  0  0  0  0  0  # atno 17342 bound_to 10162
  139.4799  144.5859  151.7853 LP  0  0  0  0  0  0  0  0  0  0  0  0  # atno 17343 bound_to 10162
  157.6211  130.8656  149.9110 LP  0  0  0  0  0  0  0  0  0  0  0  0  # atno 17370 bound_to 10713
  156.0741  130.3681  150.0715 LP  0  0  0  0  0  0  0  0  0  0  0  0  # atno 17371 bound_to 10713
  140.4140  134.1951  155.7163 LP  0  0  0  0  0  0  0  0  0  0  0  0  # atno 17394 bound_to 11000
  141.1860  133.8312  157.1085 LP  0  0  0  0  0  0  0  0  0  0  0  0  # atno 17395 bound_to 11000

$$$$
