AV-unprocessed.smi:1592|AV-procd|sdf|6406|dock1
  -GOLD-   22720 7 43D 1   1.00000     0.00000
 Structure written by MMmdl.
 26 27  0  0  0  0  0  0  0  0  2 V2000
  149.5926  141.7504  156.2233 O   0  0  0  0  0  0  0  0  0  0  0  0
  150.6674  141.2507  156.5686 C   0  0  0  0  0  0  0  0  0  0  0  0
  151.4153  141.4759  157.7219 N   0  0  0  0  0  0  0  0  0  0  0  0
  151.4556  142.6223  158.3449 C   0  0  0  0  0  0  0  0  0  0  0  0
  150.7393  143.7563  157.9238 N   0  0  0  0  0  0  0  0  0  0  0  0
  150.7780  144.9618  158.5919 C   0  0  0  0  0  0  0  0  0  0  0  0
  151.5137  145.1261  159.6923 C   0  0  0  0  0  0  0  0  0  0  0  0
  152.2868  144.0072  160.1905 C   0  0  0  0  0  0  0  0  0  0  0  0
  152.2846  142.7592  159.5562 C   0  0  0  0  0  0  0  0  0  0  0  0
  152.9670  141.8184  160.0241 O   0  5  0  0  0  0  0  0  0  0  0  0
  151.3540  140.2313  155.6432 C   0  0  1  0  0  0  0  0  0  0  0  0
  151.3666  138.8024  156.2233 C   0  0  0  0  0  0  0  0  0  0  0  0
  150.6463  137.9655  155.1805 C   0  0  0  0  0  0  0  0  0  0  0  0
  149.7907  138.9941  154.4568 C   0  0  0  0  0  0  0  0  0  0  0  0
  150.6410  140.1297  154.4089 O   0  0  0  0  0  0  0  0  0  0  0  0
  150.1728  145.7423  158.1554 H   0  0  0  0  0  0  0  0  0  0  0  0
  151.5320  146.0769  160.2043 H   0  0  0  0  0  0  0  0  0  0  0  0
  152.8797  144.1523  161.0821 H   0  0  0  0  0  0  0  0  0  0  0  0
  150.1569  143.7209  157.1002 H   0  0  0  0  0  0  0  0  0  0  0  0
  152.3669  140.5725  155.4252 H   0  0  0  0  0  0  0  0  0  0  0  0
  152.3806  138.4406  156.3956 H   0  0  0  0  0  0  0  0  0  0  0  0
  150.8348  138.7452  157.1747 H   0  0  0  0  0  0  0  0  0  0  0  0
  151.3692  137.5332  154.4878 H   0  0  0  0  0  0  0  0  0  0  0  0
  150.0612  137.1539  155.6131 H   0  0  0  0  0  0  0  0  0  0  0  0
  149.4932  138.6704  153.4593 H   0  0  0  0  0  0  0  0  0  0  0  0
  148.8907  139.2271  155.0281 H   0  0  0  0  0  0  0  0  0  0  0  0
  1  2  2  0  0  0  0
  2  3  1  0  0  0  0
  2 11  1  0  0  0  0
  3  4  2  0  0  0  0
  4  9  1  0  0  0  0
  4  5  1  0  0  0  0
  5 19  1  0  0  0  0
  5  6  1  0  0  0  0
  6 16  1  0  0  0  0
  6  7  2  0  0  0  0
  7 17  1  0  0  0  0
  7  8  1  0  0  0  0
  8  9  2  0  0  0  0
  8 18  1  0  0  0  0
  9 10  1  0  0  0  0
 11 15  1  0  0  0  0
 11 12  1  0  0  0  0
 11 20  1  0  0  0  0
 12 13  1  0  0  0  0
 12 21  1  0  0  0  0
 12 22  1  0  0  0  0
 13 14  1  0  0  0  0
 13 23  1  0  0  0  0
 13 24  1  0  0  0  0
 14 15  1  0  0  0  0
 14 25  1  0  0  0  0
 14 26  1  0  0  0  0
M  CHG  1  10  -1
M  END
> <s_m_source_file>
AV-unprocessed.smi

> <i_m_source_file_index>
1592

> <i_lp_mmshare_version>
43012

> <i_f3d_flags>
0

> <s_epik_input>
TzFbQ0gyXVtDSDJdW0NIMl1bQ0BIXTFDKD1PKVtOSF1jMm5bY0hdW2NIXVtjSF1jMltPSF0=

> <s_epik_cmdline>
J2VwaWtfcHl0aG9uJywgJy1waCcsICc3LjAnLCAnLXRuJywgJzgnLCAnLW1hJywgJzIwMCcsICctbWV0YWxfYmluZGluZycsICctaW1hZScsICc8aW5maWxlLm1hZT4nLCAnLW9tYWUnLCAnPG91dGZpbGUubWFlPic=

> <r_epik_Ionization_Penalty>
0.780127

> <r_epik_Ionization_Penalty_Charging>
0.780127

> <r_epik_Ionization_Penalty_Neutral>
6.55423e-13

> <r_epik_State_Penalty>
1.4426

> <r_epik_Charging_Adjusted_Penalty>
2.22273

> <i_epik_Tot_Q>
-1

> <i_epik_Tot_abs_Q>
1

> <r_epik_Metal_State_Penalty>
1.40439

> <b_epik_Metal_Only>
0

> <s_lp_Force_Field>
OPLS_2005

> <r_lp_Energy>
49.5573

> <b_lp_Chiralities_Consistent>
1

> <s_lp_Variant>
AV-unprocessed.smi:1592-6

> <Gold.Version>
5.8.1

> <Gold.Id.Protein>
6NUR|6NUR_protein|mol2

> <Gold.PLP.Fitness>
37.9425

> <Gold.PLP.PLP>
-30.5357

> <Gold.PLP.part.hbond>
-1.8477

> <Gold.PLP.part.metal>
0.0000

> <Gold.PLP.part.buried>
-5.8802

> <Gold.PLP.part.nonpolar>
-25.1337

> <Gold.PLP.part.repulsive>
0.5342

> <Gold.PLP.ligand.clash>
0.0000

> <Gold.PLP.ligand.torsion>
0.3199

> <Gold.PLP.Chemscore.Hbond>
1.6891

> <Gold.PLP.Chemscore.CHOScore>
0.9905

> <Gold.PLP.Chemscore.Metal>
0.0000

> <Gold.Chemscore.Hbonds>
donor molecule, donor type, donor heavy atom, donor atom, acceptor molecule, acceptor atom, score
      L1  H     5    19       P1  8028  0.68
      P1  H  7989  7998       L1    15  1.00
      L1  C     6    16       P1  8029  1.00

> <Gold.PLP.Chemscore.Internal.Correction>
0.0078

> <Gold.Rescore>
     Score         DG    S(hbond)    S(metal)    S(lipo)     H(rot)  DE(clash)    DE(int)     intcor
     16.20     -16.74       1.73        0.00      68.65       1.00       0.20       0.33       ----

> <Gold.Chemscore.Fitness>
16.2036

> <Gold.Chemscore.DG>
-16.7363

> <Gold.Chemscore.ZeroCoef>
-5.4800

> <Gold.Chemscore.Hbond>
1.7318

> <Gold.Chemscore.Metal>
0.0000

> <Gold.Chemscore.Lipo>
68.6513

> <Gold.Chemscore.Internal_Hbond>
0.0000

> <Gold.Chemscore.DEClash>
0.2005

> <Gold.Chemscore.DEInternal>
0.3322

> <Gold.Chemscore.Rot>
1.0000

> <Gold.Chemscore.Internal.Correction>
   9.000000E+99

> <Gold.Chemscore.Hbonds>
donor molecule, donor type, donor heavy atom, donor atom, acceptor molecule, acceptor atom, score
      L1  H     5    19       P1  8028  0.63
      P1  H  7989  7998       L1    15  0.24

> <Gold.Chemscore.Hbond.Weighted>
-5.7841

> <Gold.Chemscore.Metal.Weighted>
-0.0000

> <Gold.Chemscore.Lipo.Weighted>
-8.0322

> <Gold.Chemscore.Internal_Hbond.Weighted>
0.0000

> <Gold.Chemscore.DEClash.Weighted>
0.2005

> <Gold.Chemscore.DEInternal.Weighted>
0.3322

> <Gold.Chemscore.Rot.Weighted>
2.5600

> <Gold.Chemscore.Internal.Correction.Weighted>
   9.000000E+99

> <Gold.Protein.RotatedTorsions>
[ 6907 6896 6895 6894 ] final -151.95 input  -60.11 | X-H torsion
[ 7974 7965 7964 7962 ] final  -43.47 input  175.53 | X-H torsion
[ 8008 7997 7996 7995 ] final  115.27 input   59.86 | X-H torsion
[ 10167 10162 10161 10158 ] final  126.73 input  -65.29 | X-H torsion
[ 10718 10713 10712 10709 ] final  -28.51 input   66.30 | X-H torsion
[ 10763 10752 10751 10750 ] final -175.79 input  -60.55 | X-H torsion
[ 11005 11000 10999 10996 ] final   80.39 input  -57.11 | X-H torsion

> <Gold.Protein.ActiveResidues>
 VAL166  LYS551  ARG553  GLY616  TRP617  ASP618  TYR619  PRO620  LYS621  CYS622 
 ASP623  PHE694  ASN695  SER759  ASP760  ASP761  ALA762  ILE779  LEU786  VAL792 
 PHE793  MET794  SER795  GLU796  ALA797  LYS798  CYS799  TRP800  GLU811  SER814 

> <Gold.Protein.RotatedAtoms>
  151.2207  133.4504  159.2600 H   0  0  0  0  0  0  0  0  0  0  0  0  # atno 6907 bound_to 6896
  151.0888  134.9903  159.8402 H   0  0  0  0  0  0  0  0  0  0  0  0  # atno 6908 bound_to 6896
  152.5432  134.2141  159.8814 H   0  0  0  0  0  0  0  0  0  0  0  0  # atno 6909 bound_to 6896
  146.0015  140.7068  142.9268 H   0  0  0  0  0  0  0  0  0  0  0  0  # atno 7974 bound_to 7965
  156.2372  140.2942  156.0344 H   0  0  0  0  0  0  0  0  0  0  0  0  # atno 8008 bound_to 7997
  155.2058  140.0411  157.2942 H   0  0  0  0  0  0  0  0  0  0  0  0  # atno 8009 bound_to 7997
  154.6100  140.2449  155.7689 H   0  0  0  0  0  0  0  0  0  0  0  0  # atno 8010 bound_to 7997
  139.5616  144.6885  151.4028 H   0  0  0  0  0  0  0  0  0  0  0  0  # atno 10167 bound_to 10162
  156.4243  130.4432  149.7161 H   0  0  0  0  0  0  0  0  0  0  0  0  # atno 10718 bound_to 10713
  154.5802  135.2835  155.0740 H   0  0  0  0  0  0  0  0  0  0  0  0  # atno 10763 bound_to 10752
  154.2080  135.6413  153.5110 H   0  0  0  0  0  0  0  0  0  0  0  0  # atno 10764 bound_to 10752
  153.0085  135.5485  154.6453 H   0  0  0  0  0  0  0  0  0  0  0  0  # atno 10765 bound_to 10752
  139.9136  134.7917  156.1903 H   0  0  0  0  0  0  0  0  0  0  0  0  # atno 11005 bound_to 11000
  144.6921  140.3242  143.7227 LP  0  0  0  0  0  0  0  0  0  0  0  0  # atno 17320 bound_to 7965
  145.7480  139.1784  143.2338 LP  0  0  0  0  0  0  0  0  0  0  0  0  # atno 17321 bound_to 7965
  140.6896  143.7893  150.7236 LP  0  0  0  0  0  0  0  0  0  0  0  0  # atno 17342 bound_to 10162
  140.1371  143.4474  152.2217 LP  0  0  0  0  0  0  0  0  0  0  0  0  # atno 17343 bound_to 10162
  156.4090  130.7712  151.2724 LP  0  0  0  0  0  0  0  0  0  0  0  0  # atno 17370 bound_to 10713
  157.7508  131.0217  150.3762 LP  0  0  0  0  0  0  0  0  0  0  0  0  # atno 17371 bound_to 10713
  141.0588  133.6852  156.1911 LP  0  0  0  0  0  0  0  0  0  0  0  0  # atno 17394 bound_to 11000
  140.6695  134.4883  157.5586 LP  0  0  0  0  0  0  0  0  0  0  0  0  # atno 17395 bound_to 11000

$$$$
