AV-unprocessed.smi:349|AV-procd|sdf|2397|dock8
  -GOLD-   2262022333D 1   1.00000     0.00000
 Structure written by MMmdl.
 43 44  0  0  0  0  0  0  0  0  1 V2000
  152.0111  144.3260  161.2028 C   0  0  0  0  0  0  0  0  0  0  0  0
  151.7467  143.1132  160.2966 C   0  0  0  0  0  0  0  0  0  0  0  0
  150.9154  143.4337  159.0346 C   0  0  1  0  0  0  0  0  0  0  0  0
  151.2873  144.8139  158.4664 C   0  0  0  0  0  0  0  0  0  0  0  0
  151.0800  142.3598  157.9489 C   0  0  0  0  0  0  0  0  0  0  0  0
  151.8388  141.4072  158.1304 O   0  0  0  0  0  0  0  0  0  0  0  0
  150.3689  142.5332  156.8234 N   0  0  0  0  0  0  0  0  0  0  0  0
  150.3910  141.6567  155.6554 C   0  0  0  0  0  0  0  0  0  0  0  0
  149.0010  141.1875  155.2226 C   0  0  0  0  0  0  0  0  0  0  0  0
  147.9871  142.1422  154.9785 C   0  0  0  0  0  0  0  0  0  0  0  0
  146.7178  141.7138  154.5525 C   0  0  0  0  0  0  0  0  0  0  0  0
  146.5059  140.3357  154.3771 C   0  0  0  0  0  0  0  0  0  0  0  0
  147.4614  139.4102  154.5964 N   0  0  0  0  0  0  0  0  0  0  0  0
  148.6881  139.8163  155.0075 C   0  0  0  0  0  0  0  0  0  0  0  0
  149.6463  138.8132  155.2406 N   0  0  0  0  0  0  0  0  0  0  0  0
  150.9042  138.9249  154.5093 C   0  0  0  0  0  0  0  0  0  0  0  0
  151.9021  137.8743  155.0250 C   0  0  0  0  0  0  0  0  0  0  0  0
  151.3257  136.5758  154.9130 O   0  0  0  0  0  0  0  0  0  0  0  0
  150.1334  136.4493  155.6832 C   0  0  0  0  0  0  0  0  0  0  0  0
  149.0884  137.4675  155.1947 C   0  0  0  0  0  0  0  0  0  0  0  0
  152.6527  144.0488  162.0393 H   0  0  0  0  0  0  0  0  0  0  0  0
  151.0874  144.7282  161.6193 H   0  0  0  0  0  0  0  0  0  0  0  0
  152.5091  145.1257  160.6541 H   0  0  0  0  0  0  0  0  0  0  0  0
  152.7087  142.7008  159.9901 H   0  0  0  0  0  0  0  0  0  0  0  0
  151.2598  142.3281  160.8771 H   0  0  0  0  0  0  0  0  0  0  0  0
  149.8639  143.4721  159.3247 H   0  0  0  0  0  0  0  0  0  0  0  0
  150.7066  145.0453  157.5725 H   0  0  0  0  0  0  0  0  0  0  0  0
  152.3437  144.8673  158.2004 H   0  0  0  0  0  0  0  0  0  0  0  0
  151.0910  145.6014  159.1945 H   0  0  0  0  0  0  0  0  0  0  0  0
  149.7713  143.3451  156.7670 H   0  0  0  0  0  0  0  0  0  0  0  0
  150.8639  142.1494  154.8047 H   0  0  0  0  0  0  0  0  0  0  0  0
  151.0423  140.8212  155.9045 H   0  0  0  0  0  0  0  0  0  0  0  0
  148.1752  143.1974  155.1069 H   0  0  0  0  0  0  0  0  0  0  0  0
  145.9282  142.4250  154.3603 H   0  0  0  0  0  0  0  0  0  0  0  0
  145.5452  139.9662  154.0503 H   0  0  0  0  0  0  0  0  0  0  0  0
  150.7296  138.7714  153.4434 H   0  0  0  0  0  0  0  0  0  0  0  0
  151.3158  139.9274  154.6320 H   0  0  0  0  0  0  0  0  0  0  0  0
  152.8206  137.9077  154.4388 H   0  0  0  0  0  0  0  0  0  0  0  0
  152.1772  138.0742  156.0618 H   0  0  0  0  0  0  0  0  0  0  0  0
  149.7487  135.4350  155.5772 H   0  0  0  0  0  0  0  0  0  0  0  0
  150.3551  136.5977  156.7414 H   0  0  0  0  0  0  0  0  0  0  0  0
  148.1893  137.4040  155.8084 H   0  0  0  0  0  0  0  0  0  0  0  0
  148.7925  137.2367  154.1704 H   0  0  0  0  0  0  0  0  0  0  0  0
  1  2  1  0  0  0  0
  1 21  1  0  0  0  0
  1 22  1  0  0  0  0
  1 23  1  0  0  0  0
  2  3  1  0  0  0  0
  2 24  1  0  0  0  0
  2 25  1  0  0  0  0
  3  4  1  0  0  0  0
  3  5  1  0  0  0  0
  3 26  1  0  0  0  0
  4 27  1  0  0  0  0
  4 28  1  0  0  0  0
  4 29  1  0  0  0  0
  5  6  2  0  0  0  0
  5  7  1  0  0  0  0
  7  8  1  0  0  0  0
  7 30  1  0  0  0  0
  8  9  1  0  0  0  0
  8 31  1  0  0  0  0
  8 32  1  0  0  0  0
  9 14  1  0  0  0  0
  9 10  2  0  0  0  0
 10 11  1  0  0  0  0
 10 33  1  0  0  0  0
 11 12  2  0  0  0  0
 11 34  1  0  0  0  0
 12 13  1  0  0  0  0
 12 35  1  0  0  0  0
 13 14  2  0  0  0  0
 14 15  1  0  0  0  0
 15 20  1  0  0  0  0
 15 16  1  0  0  0  0
 16 17  1  0  0  0  0
 16 36  1  0  0  0  0
 16 37  1  0  0  0  0
 17 18  1  0  0  0  0
 17 38  1  0  0  0  0
 17 39  1  0  0  0  0
 18 19  1  0  0  0  0
 19 20  1  0  0  0  0
 19 40  1  0  0  0  0
 19 41  1  0  0  0  0
 20 42  1  0  0  0  0
 20 43  1  0  0  0  0
M  END
> <s_m_source_file>
AV-unprocessed.smi

> <i_m_source_file_index>
349

> <i_lp_mmshare_version>
43012

> <i_f3d_flags>
0

> <s_epik_input>
W0NIM11bQ0gyXVtDQEhdKFtDSDNdKUMoPU8pW05IXVtDSDJdYzFbY0hdW2NIXVtjSF1uYzFOMltDSDJdW0NIMl1PW0NIMl1bQ0gyXTI=

> <s_epik_cmdline>
J2VwaWtfcHl0aG9uJywgJy1waCcsICc3LjAnLCAnLXRuJywgJzgnLCAnLW1hJywgJzIwMCcsICctbWV0YWxfYmluZGluZycsICctaW1hZScsICc8aW5maWxlLm1hZT4nLCAnLW9tYWUnLCAnPG91dGZpbGUubWFlPic=

> <r_lp_tautomer_probability>
1

> <r_epik_Ionization_Penalty>
0.00513869

> <r_epik_Ionization_Penalty_Charging>
0

> <r_epik_Ionization_Penalty_Neutral>
0.00513869

> <r_epik_State_Penalty>
0.00374265

> <r_epik_Charging_Adjusted_Penalty>
0.00374265

> <i_epik_Tot_Q>
0

> <i_epik_Tot_abs_Q>
0

> <r_epik_Metal_State_Penalty>
-0

> <b_epik_Metal_Only>
0

> <s_lp_Force_Field>
OPLS_2005

> <r_lp_Energy>
19.4622

> <b_lp_Chiralities_Consistent>
1

> <s_lp_Variant>
AV-unprocessed.smi:349-2

> <Gold.Version>
5.8.1

> <Gold.Id.Protein>
6NUR|6NUR_protein|mol2

> <Gold.PLP.Fitness>
43.1096

> <Gold.PLP.PLP>
-34.6933

> <Gold.PLP.part.hbond>
-2.0000

> <Gold.PLP.part.metal>
0.0000

> <Gold.PLP.part.buried>
-2.8927

> <Gold.PLP.part.nonpolar>
-29.4319

> <Gold.PLP.part.repulsive>
0.3807

> <Gold.PLP.ligand.clash>
0.0000

> <Gold.PLP.ligand.torsion>
0.3945

> <Gold.PLP.Chemscore.Hbond>
2.0000

> <Gold.PLP.Chemscore.CHOScore>
1.0000

> <Gold.PLP.Chemscore.Metal>
0.0000

> <Gold.Chemscore.Hbonds>
donor molecule, donor type, donor heavy atom, donor atom, acceptor molecule, acceptor atom, score
      L1  H     7    30       P1  8028  0.99
      P1  H 10752 10763       L1    18  0.90
      L1  C    12    35       P1 10175  1.00

> <Gold.PLP.Chemscore.Internal.Correction>
0.2053

> <Gold.Rescore>
     Score         DG    S(hbond)    S(metal)    S(lipo)     H(rot)  DE(clash)    DE(int)     intcor
     17.01     -18.68       1.87        0.00      95.38       1.64       0.08       1.59       ----

> <Gold.Chemscore.Fitness>
17.0055

> <Gold.Chemscore.DG>
-18.6764

> <Gold.Chemscore.ZeroCoef>
-5.4800

> <Gold.Chemscore.Hbond>
1.8674

> <Gold.Chemscore.Metal>
0.0000

> <Gold.Chemscore.Lipo>
95.3792

> <Gold.Chemscore.Internal_Hbond>
0.0000

> <Gold.Chemscore.DEClash>
0.0766

> <Gold.Chemscore.DEInternal>
1.5942

> <Gold.Chemscore.Rot>
1.6407

> <Gold.Chemscore.Internal.Correction>
   9.000000E+99

> <Gold.Chemscore.Hbonds>
donor molecule, donor type, donor heavy atom, donor atom, acceptor molecule, acceptor atom, score
      L1  H     7    30       P1  8028  0.93
      P1  H 10752 10763       L1    18  0.18

> <Gold.Chemscore.Hbond.Weighted>
-6.2371

> <Gold.Chemscore.Metal.Weighted>
-0.0000

> <Gold.Chemscore.Lipo.Weighted>
-11.1594

> <Gold.Chemscore.Internal_Hbond.Weighted>
0.0000

> <Gold.Chemscore.DEClash.Weighted>
0.0766

> <Gold.Chemscore.DEInternal.Weighted>
1.5942

> <Gold.Chemscore.Rot.Weighted>
4.2001

> <Gold.Chemscore.Internal.Correction.Weighted>
   9.000000E+99

> <Gold.Protein.RotatedTorsions>
[ 6907 6896 6895 6894 ] final -166.02 input  -60.11 | X-H torsion
[ 7974 7965 7964 7962 ] final  -97.86 input  175.53 | X-H torsion
[ 8008 7997 7996 7995 ] final -116.39 input   59.86 | X-H torsion
[ 10167 10162 10161 10158 ] final -129.03 input  -65.29 | X-H torsion
[ 10718 10713 10712 10709 ] final  -54.73 input   66.30 | X-H torsion
[ 10763 10752 10751 10750 ] final   50.65 input  -60.55 | X-H torsion
[ 11005 11000 10999 10996 ] final  148.23 input  -57.11 | X-H torsion

> <Gold.Protein.ActiveResidues>
 VAL166  LYS551  ARG553  GLY616  TRP617  ASP618  TYR619  PRO620  LYS621  CYS622 
 ASP623  PHE694  ASN695  SER759  ASP760  ASP761  ALA762  ILE779  LEU786  VAL792 
 PHE793  MET794  SER795  GLU796  ALA797  LYS798  CYS799  TRP800  GLU811  SER814 

> <Gold.Protein.RotatedAtoms>
  151.4369  133.3654  159.2776 H   0  0  0  0  0  0  0  0  0  0  0  0  # atno 6907 bound_to 6896
  150.9185  134.8604  159.7484 H   0  0  0  0  0  0  0  0  0  0  0  0  # atno 6908 bound_to 6896
  152.4970  134.4304  159.9562 H   0  0  0  0  0  0  0  0  0  0  0  0  # atno 6909 bound_to 6896
  145.3282  140.9436  143.2677 H   0  0  0  0  0  0  0  0  0  0  0  0  # atno 7974 bound_to 7965
  155.0670  140.0393  157.2596 H   0  0  0  0  0  0  0  0  0  0  0  0  # atno 8008 bound_to 7997
  154.7013  140.2674  155.6692 H   0  0  0  0  0  0  0  0  0  0  0  0  # atno 8009 bound_to 7997
  156.2761  140.2740  156.1624 H   0  0  0  0  0  0  0  0  0  0  0  0  # atno 8010 bound_to 7997
  139.9440  143.6130  152.2495 H   0  0  0  0  0  0  0  0  0  0  0  0  # atno 10167 bound_to 10162
  156.1427  130.4154  150.0076 H   0  0  0  0  0  0  0  0  0  0  0  0  # atno 10718 bound_to 10713
  152.9784  135.5872  154.4287 H   0  0  0  0  0  0  0  0  0  0  0  0  # atno 10763 bound_to 10752
  154.3903  135.2768  155.2161 H   0  0  0  0  0  0  0  0  0  0  0  0  # atno 10764 bound_to 10752
  154.4036  135.6098  153.5966 H   0  0  0  0  0  0  0  0  0  0  0  0  # atno 10765 bound_to 10752
  140.0942  134.9022  157.1698 H   0  0  0  0  0  0  0  0  0  0  0  0  # atno 11005 bound_to 11000
  144.8885  139.4806  143.6689 LP  0  0  0  0  0  0  0  0  0  0  0  0  # atno 17320 bound_to 7965
  146.3056  139.7569  142.9059 LP  0  0  0  0  0  0  0  0  0  0  0  0  # atno 17321 bound_to 7965
  139.6681  144.7661  151.1834 LP  0  0  0  0  0  0  0  0  0  0  0  0  # atno 17342 bound_to 10162
  140.7602  143.5906  150.8800 LP  0  0  0  0  0  0  0  0  0  0  0  0  # atno 17343 bound_to 10162
  156.7957  130.9272  151.3646 LP  0  0  0  0  0  0  0  0  0  0  0  0  # atno 17370 bound_to 10713
  157.6589  130.8949  149.9788 LP  0  0  0  0  0  0  0  0  0  0  0  0  # atno 17371 bound_to 10713
  140.3309  134.2811  155.7228 LP  0  0  0  0  0  0  0  0  0  0  0  0  # atno 17394 bound_to 11000
  141.2087  133.7770  157.0042 LP  0  0  0  0  0  0  0  0  0  0  0  0  # atno 17395 bound_to 11000

$$$$
