AV-unprocessed.smi:438|AV-procd|sdf|2569|dock8
  -GOLD-   2262022543D 1   1.00000     0.00000
 Structure written by MMmdl.
 48 49  0  0  0  0  0  0  0  0  1 V2000
  148.4289  132.6101  153.2726 C   0  0  0  0  0  0  0  0  0  0  0  0
  149.0350  133.0944  154.5783 C   0  0  0  0  0  0  0  0  0  0  0  0
  149.0193  134.4680  154.7421 N   0  0  0  0  0  0  0  0  0  0  0  0
  149.5614  135.0133  155.8958 C   0  0  0  0  0  0  0  0  0  0  0  0
  149.4306  136.8243  155.8512 S   0  0  0  0  0  0  0  0  0  0  0  0
  151.0929  137.2950  155.2929 C   0  0  0  0  0  0  0  0  0  0  0  0
  151.2409  138.8050  155.1410 C   0  0  0  0  0  0  0  0  0  0  0  0
  152.3382  139.2968  154.8795 O   0  0  0  0  0  0  0  0  0  0  0  0
  150.1231  139.5270  155.3105 N   0  0  0  0  0  0  0  0  0  0  0  0
  150.0196  140.9821  155.2075 C   0  0  2  0  0  0  0  0  0  0  0  0
  150.7426  141.6694  156.3859 C   0  0  0  0  0  0  0  0  0  0  0  0
  150.0128  141.4479  157.7218 C   0  0  0  0  0  0  0  0  0  0  0  0
  148.5474  141.9000  157.6347 C   0  0  0  0  0  0  0  0  0  0  0  0
  147.8146  141.2059  156.4752 C   0  0  0  0  0  0  0  0  0  0  0  0
  148.5383  141.4284  155.1305 C   0  0  2  0  0  0  0  0  0  0  0  0
  147.7769  140.7738  153.9646 C   0  0  0  0  0  0  0  0  0  0  0  0
  150.0796  134.3026  156.8534 N   0  0  0  0  0  0  0  0  0  0  0  0
  150.1106  132.9040  156.7525 C   0  0  0  0  0  0  0  0  0  0  0  0
  150.5816  132.2244  157.6636 O   0  0  0  0  0  0  0  0  0  0  0  0
  149.5648  132.2832  155.5264 C   0  0  0  0  0  0  0  0  0  0  0  0
  149.6033  130.7599  155.4032 C   0  0  0  0  0  0  0  0  0  0  0  0
  150.5673  130.2605  154.3128 C   0  0  0  0  0  0  0  0  0  0  0  0
  150.3332  128.8990  154.0202 O   0  0  0  0  0  0  0  0  0  0  0  0
  149.1546  132.0217  152.7107 H   0  0  0  0  0  0  0  0  0  0  0  0
  148.1127  133.4417  152.6416 H   0  0  0  0  0  0  0  0  0  0  0  0
  147.5549  131.9878  153.4666 H   0  0  0  0  0  0  0  0  0  0  0  0
  151.3037  136.8082  154.3399 H   0  0  0  0  0  0  0  0  0  0  0  0
  151.8326  136.9341  156.0089 H   0  0  0  0  0  0  0  0  0  0  0  0
  149.2710  139.0294  155.5246 H   0  0  0  0  0  0  0  0  0  0  0  0
  150.5079  141.2909  154.2812 H   0  0  0  0  0  0  0  0  0  0  0  0
  151.7722  141.3174  156.4605 H   0  0  0  0  0  0  0  0  0  0  0  0
  150.8058  142.7403  156.1891 H   0  0  0  0  0  0  0  0  0  0  0  0
  150.0560  140.3932  157.9968 H   0  0  0  0  0  0  0  0  0  0  0  0
  150.5222  141.9929  158.5169 H   0  0  0  0  0  0  0  0  0  0  0  0
  148.0373  141.6897  158.5750 H   0  0  0  0  0  0  0  0  0  0  0  0
  148.5069  142.9810  157.4968 H   0  0  0  0  0  0  0  0  0  0  0  0
  147.7327  140.1382  156.6829 H   0  0  0  0  0  0  0  0  0  0  0  0
  146.7934  141.5839  156.4150 H   0  0  0  0  0  0  0  0  0  0  0  0
  148.5383  142.5026  154.9395 H   0  0  0  0  0  0  0  0  0  0  0  0
  147.6809  139.6957  154.0969 H   0  0  0  0  0  0  0  0  0  0  0  0
  148.2860  140.9492  153.0166 H   0  0  0  0  0  0  0  0  0  0  0  0
  146.7706  141.1842  153.8771 H   0  0  0  0  0  0  0  0  0  0  0  0
  148.6197  135.0306  154.0047 H   0  0  0  0  0  0  0  0  0  0  0  0
  148.6072  130.3617  155.2135 H   0  0  0  0  0  0  0  0  0  0  0  0
  149.8962  130.3400  156.3664 H   0  0  0  0  0  0  0  0  0  0  0  0
  150.4668  130.8458  153.3987 H   0  0  0  0  0  0  0  0  0  0  0  0
  151.5985  130.3703  154.6487 H   0  0  0  0  0  0  0  0  0  0  0  0
  150.7340  128.6977  153.1883 H   0  0  0  0  0  0  0  0  0  0  0  0
  1 24  1  0  0  0  0
  1 25  1  0  0  0  0
  1 26  1  0  0  0  0
  1  2  1  0  0  0  0
  2 20  2  0  0  0  0
  2  3  1  0  0  0  0
  3  4  1  0  0  0  0
  3 43  1  0  0  0  0
  4  5  1  0  0  0  0
  4 17  2  0  0  0  0
  5  6  1  0  0  0  0
  6  7  1  0  0  0  0
  6 27  1  0  0  0  0
  6 28  1  0  0  0  0
  7  8  2  0  0  0  0
  7  9  1  0  0  0  0
  9 10  1  0  0  0  0
  9 29  1  0  0  0  0
 10 15  1  0  0  0  0
 10 11  1  0  0  0  0
 10 30  1  0  0  0  0
 11 12  1  0  0  0  0
 11 31  1  0  0  0  0
 11 32  1  0  0  0  0
 12 13  1  0  0  0  0
 12 33  1  0  0  0  0
 12 34  1  0  0  0  0
 13 14  1  0  0  0  0
 13 35  1  0  0  0  0
 13 36  1  0  0  0  0
 14 15  1  0  0  0  0
 14 37  1  0  0  0  0
 14 38  1  0  0  0  0
 15 16  1  0  0  0  0
 15 39  1  0  0  0  0
 16 40  1  0  0  0  0
 16 41  1  0  0  0  0
 16 42  1  0  0  0  0
 17 18  1  0  0  0  0
 18 19  2  0  0  0  0
 18 20  1  0  0  0  0
 20 21  1  0  0  0  0
 21 22  1  0  0  0  0
 21 44  1  0  0  0  0
 21 45  1  0  0  0  0
 22 23  1  0  0  0  0
 22 46  1  0  0  0  0
 22 47  1  0  0  0  0
 23 48  1  0  0  0  0
M  END
> <s_m_source_file>
AV-unprocessed.smi

> <i_m_source_file_index>
438

> <i_lp_mmshare_version>
43012

> <i_f3d_flags>
0

> <s_epik_input>
W09IXVtDSDJdW0NIMl1jMWMoW09IXSluYyhuYzFbQ0gzXSlTW0NIMl1DKD1PKVtOSF1bQ0BASF0yW0NIMl1bQ0gyXVtDSDJdW0NIMl1bQ0BIXTJbQ0gzXQ==

> <s_epik_cmdline>
J2VwaWtfcHl0aG9uJywgJy1waCcsICc3LjAnLCAnLXRuJywgJzgnLCAnLW1hJywgJzIwMCcsICctbWV0YWxfYmluZGluZycsICctaW1hZScsICc8aW5maWxlLm1hZT4nLCAnLW9tYWUnLCAnPG91dGZpbGUubWFlPic=

> <r_lp_tautomer_probability>
0.273662

> <r_epik_Ionization_Penalty>
0.0875285

> <r_epik_Ionization_Penalty_Charging>
0.0875254

> <r_epik_Ionization_Penalty_Neutral>
3.01536e-06

> <r_epik_State_Penalty>
0.985796

> <r_epik_Charging_Adjusted_Penalty>
1.07332

> <i_epik_Tot_Q>
0

> <i_epik_Tot_abs_Q>
0

> <r_epik_Metal_State_Penalty>
1.58101

> <b_epik_Metal_Only>
0

> <s_lp_Force_Field>
OPLS_2005

> <r_lp_Energy>
19.296

> <b_lp_Chiralities_Consistent>
1

> <s_lp_Variant>
AV-unprocessed.smi:438-7

> <Gold.Version>
5.8.1

> <Gold.Id.Protein>
6NUR|6NUR_protein|mol2

> <Gold.PLP.Fitness>
43.9391

> <Gold.PLP.PLP>
-36.8997

> <Gold.PLP.part.hbond>
-3.2599

> <Gold.PLP.part.metal>
0.0000

> <Gold.PLP.part.buried>
-5.6992

> <Gold.PLP.part.nonpolar>
-27.7939

> <Gold.PLP.part.repulsive>
0.1417

> <Gold.PLP.ligand.clash>
0.0000

> <Gold.PLP.ligand.torsion>
0.5863

> <Gold.PLP.Chemscore.Hbond>
2.7200

> <Gold.PLP.Chemscore.CHOScore>
0.0000

> <Gold.PLP.Chemscore.Metal>
0.0000

> <Gold.Chemscore.Hbonds>
donor molecule, donor type, donor heavy atom, donor atom, acceptor molecule, acceptor atom, score
      L1  H    23    48       P1 10737  0.60
      P1  H  6896  6909       L1    19  0.98
      P1  H  7989  7998       L1     8  0.45

> <Gold.PLP.Chemscore.Internal.Correction>
0.0520

> <Gold.Rescore>
     Score         DG    S(hbond)    S(metal)    S(lipo)     H(rot)  DE(clash)    DE(int)     intcor
     12.48     -14.58       2.44        0.00      70.82       2.86       1.20       0.90       ----

> <Gold.Chemscore.Fitness>
12.4818

> <Gold.Chemscore.DG>
-14.5780

> <Gold.Chemscore.ZeroCoef>
-5.4800

> <Gold.Chemscore.Hbond>
2.4386

> <Gold.Chemscore.Metal>
0.0000

> <Gold.Chemscore.Lipo>
70.8209

> <Gold.Chemscore.Internal_Hbond>
0.0000

> <Gold.Chemscore.DEClash>
1.1996

> <Gold.Chemscore.DEInternal>
0.8966

> <Gold.Chemscore.Rot>
2.8645

> <Gold.Chemscore.Internal.Correction>
   9.000000E+99

> <Gold.Chemscore.Hbonds>
donor molecule, donor type, donor heavy atom, donor atom, acceptor molecule, acceptor atom, score
      L1  H     3    43       P1  7948  0.04
      L1  H    23    48       P1 10737  0.58
      P1  H  6896  6909       L1    19  0.72
      P1  H  7989  7998       L1     8  0.10
      P1  H  7997  8008       L1     8  0.01

> <Gold.Chemscore.Hbond.Weighted>
-8.1450

> <Gold.Chemscore.Metal.Weighted>
-0.0000

> <Gold.Chemscore.Lipo.Weighted>
-8.2860

> <Gold.Chemscore.Internal_Hbond.Weighted>
0.0000

> <Gold.Chemscore.DEClash.Weighted>
1.1996

> <Gold.Chemscore.DEInternal.Weighted>
0.8966

> <Gold.Chemscore.Rot.Weighted>
7.3331

> <Gold.Chemscore.Internal.Correction.Weighted>
   9.000000E+99

> <Gold.Protein.RotatedTorsions>
[ 6907 6896 6895 6894 ] final  -32.85 input  -60.11 | X-H torsion
[ 7974 7965 7964 7962 ] final -110.93 input  175.53 | X-H torsion
[ 8008 7997 7996 7995 ] final  -12.38 input   59.86 | X-H torsion
[ 10167 10162 10161 10158 ] final  -26.57 input  -65.29 | X-H torsion
[ 10718 10713 10712 10709 ] final  -77.69 input   66.30 | X-H torsion
[ 10763 10752 10751 10750 ] final -161.92 input  -60.55 | X-H torsion
[ 11005 11000 10999 10996 ] final   33.89 input  -57.11 | X-H torsion

> <Gold.Protein.ActiveResidues>
 VAL166  LYS551  ARG553  GLY616  TRP617  ASP618  TYR619  PRO620  LYS621  CYS622 
 ASP623  PHE694  ASN695  SER759  ASP760  ASP761  ALA762  ILE779  LEU786  VAL792 
 PHE793  MET794  SER795  GLU796  ALA797  LYS798  CYS799  TRP800  GLU811  SER814 

> <Gold.Protein.RotatedAtoms>
  151.0734  134.9812  159.8319 H   0  0  0  0  0  0  0  0  0  0  0  0  # atno 6907 bound_to 6896
  152.5411  134.2271  159.8820 H   0  0  0  0  0  0  0  0  0  0  0  0  # atno 6908 bound_to 6896
  151.2297  133.4413  159.2637 H   0  0  0  0  0  0  0  0  0  0  0  0  # atno 6909 bound_to 6896
  145.1622  140.8884  143.3584 H   0  0  0  0  0  0  0  0  0  0  0  0  # atno 7974 bound_to 7965
  154.5382  140.2277  155.8686 H   0  0  0  0  0  0  0  0  0  0  0  0  # atno 8008 bound_to 7997
  156.1832  140.3095  155.9151 H   0  0  0  0  0  0  0  0  0  0  0  0  # atno 8009 bound_to 7997
  155.3311  140.0445  157.3033 H   0  0  0  0  0  0  0  0  0  0  0  0  # atno 8010 bound_to 7997
  140.7282  143.4167  151.1017 H   0  0  0  0  0  0  0  0  0  0  0  0  # atno 10167 bound_to 10162
  156.0138  130.4498  150.3383 H   0  0  0  0  0  0  0  0  0  0  0  0  # atno 10718 bound_to 10713
  154.7260  135.3036  154.8969 H   0  0  0  0  0  0  0  0  0  0  0  0  # atno 10763 bound_to 10752
  153.9826  135.6728  153.4755 H   0  0  0  0  0  0  0  0  0  0  0  0  # atno 10764 bound_to 10752
  153.0876  135.4976  154.8546 H   0  0  0  0  0  0  0  0  0  0  0  0  # atno 10765 bound_to 10752
  140.2585  134.3220  155.7866 H   0  0  0  0  0  0  0  0  0  0  0  0  # atno 11005 bound_to 11000
  145.0319  139.3333  143.6020 LP  0  0  0  0  0  0  0  0  0  0  0  0  # atno 17320 bound_to 7965
  146.3481  139.9660  142.8712 LP  0  0  0  0  0  0  0  0  0  0  0  0  # atno 17321 bound_to 7965
  139.7807  143.8359  152.3137 LP  0  0  0  0  0  0  0  0  0  0  0  0  # atno 17342 bound_to 10162
  139.8309  144.7254  150.9451 LP  0  0  0  0  0  0  0  0  0  0  0  0  # atno 17343 bound_to 10162
  157.1479  131.0313  151.2898 LP  0  0  0  0  0  0  0  0  0  0  0  0  # atno 17370 bound_to 10713
  157.4417  130.7547  149.7074 LP  0  0  0  0  0  0  0  0  0  0  0  0  # atno 17371 bound_to 10713
  141.2193  133.7395  156.9149 LP  0  0  0  0  0  0  0  0  0  0  0  0  # atno 17394 bound_to 11000
  140.1488  134.9244  157.2565 LP  0  0  0  0  0  0  0  0  0  0  0  0  # atno 17395 bound_to 11000

$$$$
