AV-unprocessed.smi:2875|AV-procd|sdf|11040|dock2
  -GOLD-   2272015503D 1   1.00000     0.00000
 Structure written by MMmdl.
 40 40  0  0  0  0  0  0  0  0  1 V2000
  146.6517  138.7917  151.9335 C   0  0  0  0  0  0  0  0  0  0  0  0
  147.1885  139.5398  153.1576 C   0  0  0  0  0  0  0  0  0  0  0  0
  148.6804  139.2604  153.4040 C   0  0  0  0  0  0  0  0  0  0  0  0
  149.1745  139.8900  154.6129 N   0  0  0  0  0  0  0  0  0  0  0  0
  149.7750  139.1871  155.6616 C   0  0  0  0  0  0  0  0  0  0  0  0
  149.9125  137.8130  155.5283 N   0  0  0  0  0  0  0  0  0  0  0  0
  150.2140  139.8188  156.7917 C   0  0  0  0  0  0  0  0  0  0  0  0
  150.8541  139.1144  157.8298 N   0  0  0  0  0  0  0  0  0  0  0  0
  152.3129  139.2733  157.9500 C   0  0  0  0  0  0  0  0  0  0  0  0
  152.7390  139.6658  159.3739 C   0  0  0  0  0  0  0  0  0  0  0  0
  154.1261  139.9578  159.3853 O   0  0  0  0  0  0  0  0  0  0  0  0
  154.5460  140.5540  160.5994 C   0  0  0  0  0  0  0  0  0  0  0  0
  150.1777  138.2690  158.6509 C   0  0  0  0  0  0  0  0  0  0  0  0
  148.6833  138.0205  158.4137 C   0  0  0  0  0  0  0  0  0  0  0  0
  150.7237  137.6652  159.5748 O   0  0  0  0  0  0  0  0  0  0  0  0
  150.1001  141.2789  156.9220 C   0  0  0  0  0  0  0  0  0  0  0  0
  150.4732  141.9464  157.8860 O   0  0  0  0  0  0  0  0  0  0  0  0
  149.5204  141.9214  155.8312 N   0  0  0  0  0  0  0  0  0  0  0  0
  149.0586  141.2993  154.6770 C   0  0  0  0  0  0  0  0  0  0  0  0
  148.5799  141.9848  153.7727 O   0  0  0  0  0  0  0  0  0  0  0  0
  149.4349  142.9262  155.8796 H   0  0  0  0  0  0  0  0  0  0  0  0
  145.5923  139.0005  151.7839 H   0  0  0  0  0  0  0  0  0  0  0  0
  146.7655  137.7137  152.0508 H   0  0  0  0  0  0  0  0  0  0  0  0
  147.1811  139.0889  151.0279 H   0  0  0  0  0  0  0  0  0  0  0  0
  147.0315  140.6105  153.0208 H   0  0  0  0  0  0  0  0  0  0  0  0
  146.6078  139.2531  154.0349 H   0  0  0  0  0  0  0  0  0  0  0  0
  148.8933  138.1917  153.4637 H   0  0  0  0  0  0  0  0  0  0  0  0
  149.2974  139.6223  152.5820 H   0  0  0  0  0  0  0  0  0  0  0  0
  149.5926  137.3241  154.7042 H   0  0  0  0  0  0  0  0  0  0  0  0
  150.2704  137.2390  156.2783 H   0  0  0  0  0  0  0  0  0  0  0  0
  152.8105  138.3464  157.6594 H   0  0  0  0  0  0  0  0  0  0  0  0
  152.6770  140.0280  157.2516 H   0  0  0  0  0  0  0  0  0  0  0  0
  152.1623  140.5201  159.7314 H   0  0  0  0  0  0  0  0  0  0  0  0
  152.5420  138.8363  160.0543 H   0  0  0  0  0  0  0  0  0  0  0  0
  155.6154  140.7592  160.5557 H   0  0  0  0  0  0  0  0  0  0  0  0
  154.3630  139.8925  161.4471 H   0  0  0  0  0  0  0  0  0  0  0  0
  154.0296  141.4991  160.7730 H   0  0  0  0  0  0  0  0  0  0  0  0
  148.0962  138.8930  158.6994 H   0  0  0  0  0  0  0  0  0  0  0  0
  148.3366  137.1776  159.0125 H   0  0  0  0  0  0  0  0  0  0  0  0
  148.4815  137.7867  157.3678 H   0  0  0  0  0  0  0  0  0  0  0  0
  1  2  1  0  0  0  0
  1 22  1  0  0  0  0
  1 23  1  0  0  0  0
  1 24  1  0  0  0  0
  2  3  1  0  0  0  0
  2 25  1  0  0  0  0
  2 26  1  0  0  0  0
  3  4  1  0  0  0  0
  3 27  1  0  0  0  0
  3 28  1  0  0  0  0
  4 19  1  0  0  0  0
  4  5  1  0  0  0  0
  5  6  1  0  0  0  0
  5  7  2  0  0  0  0
  6 29  1  0  0  0  0
  6 30  1  0  0  0  0
  7  8  1  0  0  0  0
  7 16  1  0  0  0  0
  8  9  1  0  0  0  0
  8 13  1  0  0  0  0
  9 10  1  0  0  0  0
  9 31  1  0  0  0  0
  9 32  1  0  0  0  0
 10 11  1  0  0  0  0
 10 33  1  0  0  0  0
 10 34  1  0  0  0  0
 11 12  1  0  0  0  0
 12 35  1  0  0  0  0
 12 36  1  0  0  0  0
 12 37  1  0  0  0  0
 13 14  1  0  0  0  0
 13 15  2  0  0  0  0
 14 38  1  0  0  0  0
 14 39  1  0  0  0  0
 14 40  1  0  0  0  0
 16 17  2  0  0  0  0
 16 18  1  0  0  0  0
 18 21  1  0  0  0  0
 18 19  1  0  0  0  0
 19 20  2  0  0  0  0
M  END
> <s_m_source_file>
AV-unprocessed.smi

> <i_m_source_file_index>
2875

> <i_lp_mmshare_version>
43012

> <i_f3d_flags>
0

> <s_epik_input>
W0NIM11bQ0gyXVtDSDJdbjFjKFtOSDJdKWMoYyg9TylbbkhdYzE9TylOKEMoPU8pW0NIM10pW0NIMl1bQ0gyXU9bQ0gzXQ==

> <s_epik_cmdline>
J2VwaWtfcHl0aG9uJywgJy1waCcsICc3LjAnLCAnLXRuJywgJzgnLCAnLW1hJywgJzIwMCcsICctbWV0YWxfYmluZGluZycsICctaW1hZScsICc8aW5maWxlLm1hZT4nLCAnLW9tYWUnLCAnPG91dGZpbGUubWFlPic=

> <r_lp_tautomer_probability>
1

> <r_epik_Ionization_Penalty>
1.36284e-05

> <r_epik_Ionization_Penalty_Charging>
6.32507e-06

> <r_epik_Ionization_Penalty_Neutral>
7.30329e-06

> <r_epik_State_Penalty>
-0

> <r_epik_Charging_Adjusted_Penalty>
6.32507e-06

> <i_epik_Tot_Q>
0

> <i_epik_Tot_abs_Q>
0

> <r_epik_Metal_State_Penalty>
0.00594323

> <b_epik_Metal_Only>
0

> <s_epik_Chemistry_Notes>
This compound has an imine and may undergo hydrolysis.

> <s_lp_Force_Field>
OPLS_2005

> <r_lp_Energy>
24.7155

> <b_lp_Chiralities_Consistent>
1

> <s_lp_Variant>
AV-unprocessed.smi:2875-1

> <Gold.Version>
5.8.1

> <Gold.Id.Protein>
6NUR|6NUR_protein|mol2

> <Gold.PLP.Fitness>
34.2561

> <Gold.PLP.PLP>
-27.3361

> <Gold.PLP.part.hbond>
-3.2867

> <Gold.PLP.part.metal>
0.0000

> <Gold.PLP.part.buried>
0.4296

> <Gold.PLP.part.nonpolar>
-24.9513

> <Gold.PLP.part.repulsive>
0.3932

> <Gold.PLP.ligand.clash>
0.0000

> <Gold.PLP.ligand.torsion>
1.4483

> <Gold.PLP.Chemscore.Hbond>
2.4400

> <Gold.PLP.Chemscore.CHOScore>
0.0000

> <Gold.PLP.Chemscore.Metal>
0.0000

> <Gold.Chemscore.Hbonds>
donor molecule, donor type, donor heavy atom, donor atom, acceptor molecule, acceptor atom, score
      L1  H    18    21       P1  8028  1.00
      P1  H  7997  8008       L1    11  0.41
      P1  H  8011  8017       L1    20  0.45

> <Gold.PLP.Chemscore.Internal.Correction>
2.4966

> <Gold.Rescore>
     Score         DG    S(hbond)    S(metal)    S(lipo)     H(rot)  DE(clash)    DE(int)     intcor
      8.59     -13.76       2.37        0.00      48.62       2.08       1.58       3.59       ----

> <Gold.Chemscore.Fitness>
8.5879

> <Gold.Chemscore.DG>
-13.7598

> <Gold.Chemscore.ZeroCoef>
-5.4800

> <Gold.Chemscore.Hbond>
2.3673

> <Gold.Chemscore.Metal>
0.0000

> <Gold.Chemscore.Lipo>
48.6177

> <Gold.Chemscore.Internal_Hbond>
0.0000

> <Gold.Chemscore.DEClash>
1.5787

> <Gold.Chemscore.DEInternal>
3.5932

> <Gold.Chemscore.Rot>
2.0763

> <Gold.Chemscore.Internal.Correction>
   9.000000E+99

> <Gold.Chemscore.Hbonds>
donor molecule, donor type, donor heavy atom, donor atom, acceptor molecule, acceptor atom, score
      L1  H    18    21       P1  8028  1.00
      P1  H  7997  8008       L1    11  0.36
      P1  H  8011  8017       L1    20  0.41

> <Gold.Chemscore.Hbond.Weighted>
-7.9068

> <Gold.Chemscore.Metal.Weighted>
-0.0000

> <Gold.Chemscore.Lipo.Weighted>
-5.6883

> <Gold.Chemscore.Internal_Hbond.Weighted>
0.0000

> <Gold.Chemscore.DEClash.Weighted>
1.5787

> <Gold.Chemscore.DEInternal.Weighted>
3.5932

> <Gold.Chemscore.Rot.Weighted>
5.3153

> <Gold.Chemscore.Internal.Correction.Weighted>
   9.000000E+99

> <Gold.Protein.RotatedTorsions>
[ 6907 6896 6895 6894 ] final  -11.56 input  -60.11 | X-H torsion
[ 7974 7965 7964 7962 ] final  -87.10 input  175.53 | X-H torsion
[ 8008 7997 7996 7995 ] final -119.86 input   59.86 | X-H torsion
[ 10167 10162 10161 10158 ] final  -83.24 input  -65.29 | X-H torsion
[ 10718 10713 10712 10709 ] final   18.37 input   66.30 | X-H torsion
[ 10763 10752 10751 10750 ] final   39.09 input  -60.55 | X-H torsion
[ 11005 11000 10999 10996 ] final    8.63 input  -57.11 | X-H torsion

> <Gold.Protein.ActiveResidues>
 VAL166  LYS551  ARG553  GLY616  TRP617  ASP618  TYR619  PRO620  LYS621  CYS622 
 ASP623  PHE694  ASN695  SER759  ASP760  ASP761  ALA762  ILE779  LEU786  VAL792 
 PHE793  MET794  SER795  GLU796  ALA797  LYS798  CYS799  TRP800  GLU811  SER814 

> <Gold.Protein.RotatedAtoms>
  151.3843  135.0945  159.9505 H   0  0  0  0  0  0  0  0  0  0  0  0  # atno 6907 bound_to 6896
  152.5099  133.9042  159.7466 H   0  0  0  0  0  0  0  0  0  0  0  0  # atno 6908 bound_to 6896
  150.9482  133.6524  159.2806 H   0  0  0  0  0  0  0  0  0  0  0  0  # atno 6909 bound_to 6896
  145.4710  140.9559  143.1917 H   0  0  0  0  0  0  0  0  0  0  0  0  # atno 7974 bound_to 7965
  155.1225  140.0399  157.2754 H   0  0  0  0  0  0  0  0  0  0  0  0  # atno 8008 bound_to 7997
  154.6602  140.2589  155.7091 H   0  0  0  0  0  0  0  0  0  0  0  0  # atno 8009 bound_to 7997
  156.2616  140.2818  156.1072 H   0  0  0  0  0  0  0  0  0  0  0  0  # atno 8010 bound_to 7997
  140.4245  143.2572  151.8845 H   0  0  0  0  0  0  0  0  0  0  0  0  # atno 10167 bound_to 10162
  157.0954  130.6445  149.5859 H   0  0  0  0  0  0  0  0  0  0  0  0  # atno 10718 bound_to 10713
  152.9979  135.6231  154.2409 H   0  0  0  0  0  0  0  0  0  0  0  0  # atno 10763 bound_to 10752
  154.2149  135.2798  155.2947 H   0  0  0  0  0  0  0  0  0  0  0  0  # atno 10764 bound_to 10752
  154.5576  135.5715  153.7037 H   0  0  0  0  0  0  0  0  0  0  0  0  # atno 10765 bound_to 10752
  140.5348  134.0431  155.7885 H   0  0  0  0  0  0  0  0  0  0  0  0  # atno 11005 bound_to 11000
  144.7945  139.6261  143.7098 LP  0  0  0  0  0  0  0  0  0  0  0  0  # atno 17320 bound_to 7965
  146.2397  139.5976  142.9500 LP  0  0  0  0  0  0  0  0  0  0  0  0  # atno 17321 bound_to 7965
  139.4783  144.5402  151.8539 LP  0  0  0  0  0  0  0  0  0  0  0  0  # atno 17342 bound_to 10162
  140.4497  144.1872  150.5896 LP  0  0  0  0  0  0  0  0  0  0  0  0  # atno 17343 bound_to 10162
  155.9887  130.4931  150.7182 LP  0  0  0  0  0  0  0  0  0  0  0  0  # atno 17370 bound_to 10713
  157.4686  131.0891  151.0668 LP  0  0  0  0  0  0  0  0  0  0  0  0  # atno 17371 bound_to 10713
  141.1261  133.9381  157.2633 LP  0  0  0  0  0  0  0  0  0  0  0  0  # atno 17394 bound_to 11000
  139.9535  135.0170  156.9061 LP  0  0  0  0  0  0  0  0  0  0  0  0  # atno 17395 bound_to 11000

$$$$
