AV-unprocessed.smi:190|AV-procd|sdf|1492|dock2
  -GOLD-   2262019313D 1   1.00000     0.00000
 Structure written by MMmdl.
 54 58  0  0  0  0  0  0  0  0  1 V2000
  148.8936  139.0371  153.3433 O   0  0  0  0  0  0  0  0  0  0  0  0
  148.6294  138.9304  154.7284 C   0  0  0  0  0  0  0  0  0  0  0  0
  149.9294  138.8376  155.5717 C   0  0  0  0  0  0  0  0  0  0  0  0
  149.6653  139.2399  157.0580 C   0  0  0  0  0  0  0  0  0  0  0  0
  149.2133  138.1562  157.9203 N   0  0  0  0  0  0  0  0  0  0  0  0
  149.9894  137.1584  158.4675 C   0  0  0  0  0  0  0  0  0  0  0  0
  149.3499  136.2951  159.2077 N   0  0  0  0  0  0  0  0  0  0  0  0
  148.0263  136.7102  159.1432 C   0  0  0  0  0  0  0  0  0  0  0  0
  146.8106  136.2263  159.6972 C   0  0  0  0  0  0  0  0  0  0  0  0
  146.7607  135.1166  160.4747 N   0  0  0  0  0  0  0  0  0  0  0  0
  147.6924  134.0383  160.1586 C   0  0  0  0  0  0  0  0  0  0  0  0
  147.7372  133.1354  161.3993 C   0  0  0  0  0  0  0  0  0  0  0  0
  146.7638  133.7810  162.3892 C   0  0  0  0  0  0  0  0  0  0  0  0
  146.6964  135.2445  161.9353 C   0  0  2  0  0  0  0  0  0  0  0  0
  145.4740  135.9871  162.4659 C   0  0  0  0  0  0  0  0  0  0  0  0
  145.9373  137.4386  162.6225 C   0  0  0  0  0  0  0  0  0  0  0  0
  147.3560  137.4299  162.4962 O   0  0  0  0  0  0  0  0  0  0  0  0
  147.8352  136.0922  162.5284 C   0  0  0  0  0  0  0  0  0  0  0  0
  145.6736  136.9197  159.4246 N   0  0  0  0  0  0  0  0  0  0  0  0
  145.7186  138.0010  158.6416 C   0  0  0  0  0  0  0  0  0  0  0  0
  146.7758  138.5569  158.0472 N   0  0  0  0  0  0  0  0  0  0  0  0
  147.9219  137.8767  158.3348 C   0  0  0  0  0  0  0  0  0  0  0  0
  150.4619  137.3870  155.4541 C   0  0  0  0  0  0  0  0  0  0  0  0
  151.9007  137.2339  155.9802 C   0  0  0  0  0  0  0  0  0  0  0  0
  152.7644  138.1275  155.2905 O   0  0  0  0  0  0  0  0  0  0  0  0
  152.4195  139.4911  155.4959 C   0  0  0  0  0  0  0  0  0  0  0  0
  151.0053  139.7643  154.9510 C   0  0  0  0  0  0  0  0  0  0  0  0
  148.6122  138.2392  152.9221 H   0  0  0  0  0  0  0  0  0  0  0  0
  148.0194  139.7794  155.0366 H   0  0  0  0  0  0  0  0  0  0  0  0
  148.0110  138.0450  154.8805 H   0  0  0  0  0  0  0  0  0  0  0  0
  150.5565  139.6704  157.5121 H   0  0  0  0  0  0  0  0  0  0  0  0
  148.9148  140.0300  157.1027 H   0  0  0  0  0  0  0  0  0  0  0  0
  151.0556  137.0944  158.3061 H   0  0  0  0  0  0  0  0  0  0  0  0
  147.3285  133.4883  159.2903 H   0  0  0  0  0  0  0  0  0  0  0  0
  148.6919  134.4071  159.9255 H   0  0  0  0  0  0  0  0  0  0  0  0
  147.4615  132.1053  161.1722 H   0  0  0  0  0  0  0  0  0  0  0  0
  148.7465  133.1271  161.8131 H   0  0  0  0  0  0  0  0  0  0  0  0
  145.7824  133.3165  162.2794 H   0  0  0  0  0  0  0  0  0  0  0  0
  147.0699  133.6572  163.4285 H   0  0  0  0  0  0  0  0  0  0  0  0
  144.5869  135.8774  161.8439 H   0  0  0  0  0  0  0  0  0  0  0  0
  145.2151  135.6015  163.4530 H   0  0  0  0  0  0  0  0  0  0  0  0
  145.5138  138.0788  161.8484 H   0  0  0  0  0  0  0  0  0  0  0  0
  145.6434  137.8445  163.5908 H   0  0  0  0  0  0  0  0  0  0  0  0
  148.0057  135.8289  163.5731 H   0  0  0  0  0  0  0  0  0  0  0  0
  148.7860  135.9876  162.0049 H   0  0  0  0  0  0  0  0  0  0  0  0
  144.7723  138.4909  158.4668 H   0  0  0  0  0  0  0  0  0  0  0  0
  149.8002  136.6837  155.9594 H   0  0  0  0  0  0  0  0  0  0  0  0
  150.4603  137.0853  154.4057 H   0  0  0  0  0  0  0  0  0  0  0  0
  151.9612  137.4109  157.0539 H   0  0  0  0  0  0  0  0  0  0  0  0
  152.2489  136.2146  155.8128 H   0  0  0  0  0  0  0  0  0  0  0  0
  152.5003  139.7464  156.5530 H   0  0  0  0  0  0  0  0  0  0  0  0
  153.1442  140.1138  154.9712 H   0  0  0  0  0  0  0  0  0  0  0  0
  151.0287  139.6230  153.8697 H   0  0  0  0  0  0  0  0  0  0  0  0
  150.7475  140.8117  155.1112 H   0  0  0  0  0  0  0  0  0  0  0  0
  1  2  1  0  0  0  0
  1 28  1  0  0  0  0
  2  3  1  0  0  0  0
  2 29  1  0  0  0  0
  2 30  1  0  0  0  0
  3 27  1  0  0  0  0
  3  4  1  0  0  0  0
  3 23  1  0  0  0  0
  4  5  1  0  0  0  0
  4 31  1  0  0  0  0
  4 32  1  0  0  0  0
  5 22  1  0  0  0  0
  5  6  1  0  0  0  0
  6  7  2  0  0  0  0
  6 33  1  0  0  0  0
  7  8  1  0  0  0  0
  8 22  2  0  0  0  0
  8  9  1  0  0  0  0
  9 10  1  0  0  0  0
  9 19  2  0  0  0  0
 10 14  1  0  0  0  0
 10 11  1  0  0  0  0
 11 12  1  0  0  0  0
 11 34  1  0  0  0  0
 11 35  1  0  0  0  0
 12 13  1  0  0  0  0
 12 36  1  0  0  0  0
 12 37  1  0  0  0  0
 13 14  1  0  0  0  0
 13 38  1  0  0  0  0
 13 39  1  0  0  0  0
 14 18  1  0  0  0  0
 14 15  1  0  0  0  0
 15 16  1  0  0  0  0
 15 40  1  0  0  0  0
 15 41  1  0  0  0  0
 16 17  1  0  0  0  0
 16 42  1  0  0  0  0
 16 43  1  0  0  0  0
 17 18  1  0  0  0  0
 18 44  1  0  0  0  0
 18 45  1  0  0  0  0
 19 20  1  0  0  0  0
 20 21  2  0  0  0  0
 20 46  1  0  0  0  0
 21 22  1  0  0  0  0
 23 24  1  0  0  0  0
 23 47  1  0  0  0  0
 23 48  1  0  0  0  0
 24 25  1  0  0  0  0
 24 49  1  0  0  0  0
 24 50  1  0  0  0  0
 25 26  1  0  0  0  0
 26 27  1  0  0  0  0
 26 51  1  0  0  0  0
 26 52  1  0  0  0  0
 27 53  1  0  0  0  0
 27 54  1  0  0  0  0
M  END
> <s_m_source_file>
AV-unprocessed.smi

> <i_m_source_file_index>
190

> <i_lp_mmshare_version>
43012

> <i_f3d_flags>
0

> <s_epik_input>
W0NIMl0xW0NIMl1PW0NIMl1bQ0gyXUMxKFtDSDJdW09IXSlbQ0gyXW4oW2NIXW4yKWMoYzIzKW5bY0hdbmMzTihbQ0gyXVtDSDJdW0NIMl00KVtDQF00NVtDSDJdW0NIMl1PW0NIMl01

> <s_epik_cmdline>
J2VwaWtfcHl0aG9uJywgJy1waCcsICc3LjAnLCAnLXRuJywgJzgnLCAnLW1hJywgJzIwMCcsICctbWV0YWxfYmluZGluZycsICctaW1hZScsICc8aW5maWxlLm1hZT4nLCAnLW9tYWUnLCAnPG91dGZpbGUubWFlPic=

> <r_lp_tautomer_probability>
1

> <r_epik_Ionization_Penalty>
0.00423054

> <r_epik_Ionization_Penalty_Charging>
0

> <r_epik_Ionization_Penalty_Neutral>
0.00423054

> <r_epik_State_Penalty>
0.00298851

> <r_epik_Charging_Adjusted_Penalty>
0.00298851

> <i_epik_Tot_Q>
0

> <i_epik_Tot_abs_Q>
0

> <r_epik_Metal_State_Penalty>
-0

> <b_epik_Metal_Only>
0

> <s_lp_Force_Field>
OPLS_2005

> <r_lp_Energy>
69.5451

> <b_lp_Chiralities_Consistent>
1

> <s_lp_Variant>
AV-unprocessed.smi:190-2

> <Gold.Version>
5.8.1

> <Gold.Id.Protein>
6NUR|6NUR_protein|mol2

> <Gold.PLP.Fitness>
46.5800

> <Gold.PLP.PLP>
-41.4562

> <Gold.PLP.part.hbond>
-5.9700

> <Gold.PLP.part.metal>
0.0000

> <Gold.PLP.part.buried>
-3.4653

> <Gold.PLP.part.nonpolar>
-31.4457

> <Gold.PLP.part.repulsive>
0.0209

> <Gold.PLP.ligand.clash>
0.0000

> <Gold.PLP.ligand.torsion>
1.6638

> <Gold.PLP.Chemscore.Hbond>
2.7374

> <Gold.PLP.Chemscore.CHOScore>
0.0000

> <Gold.PLP.Chemscore.Metal>
0.0000

> <Gold.Chemscore.Hbonds>
donor molecule, donor type, donor heavy atom, donor atom, acceptor molecule, acceptor atom, score
      L1  H     1    28       P1  7948  0.39
      P1  H  6896  6909       L1     7  0.78
      P1  H  6931  6943       L1    17  0.57
      P1  H  6934  6947       L1    17  0.12

> <Gold.PLP.Chemscore.Internal.Correction>
0.2392

> <Gold.Rescore>
     Score         DG    S(hbond)    S(metal)    S(lipo)     H(rot)  DE(clash)    DE(int)     intcor
     15.58     -17.11       2.25        0.00      86.96       2.37       0.54       0.98       ----

> <Gold.Chemscore.Fitness>
15.5794

> <Gold.Chemscore.DG>
-17.1059

> <Gold.Chemscore.ZeroCoef>
-5.4800

> <Gold.Chemscore.Hbond>
2.2485

> <Gold.Chemscore.Metal>
0.0000

> <Gold.Chemscore.Lipo>
86.9633

> <Gold.Chemscore.Internal_Hbond>
0.0000

> <Gold.Chemscore.DEClash>
0.5421

> <Gold.Chemscore.DEInternal>
0.9844

> <Gold.Chemscore.Rot>
2.3666

> <Gold.Chemscore.Internal.Correction>
   9.000000E+99

> <Gold.Chemscore.Hbonds>
donor molecule, donor type, donor heavy atom, donor atom, acceptor molecule, acceptor atom, score
      L1  H     1    28       P1  7948  0.38
      P1  H  6896  6909       L1     7  0.34
      P1  H  6931  6943       L1    17  0.10

> <Gold.Chemscore.Hbond.Weighted>
-7.5098

> <Gold.Chemscore.Metal.Weighted>
-0.0000

> <Gold.Chemscore.Lipo.Weighted>
-10.1747

> <Gold.Chemscore.Internal_Hbond.Weighted>
0.0000

> <Gold.Chemscore.DEClash.Weighted>
0.5421

> <Gold.Chemscore.DEInternal.Weighted>
0.9844

> <Gold.Chemscore.Rot.Weighted>
6.0586

> <Gold.Chemscore.Internal.Correction.Weighted>
   9.000000E+99

> <Gold.Protein.RotatedTorsions>
[ 6907 6896 6895 6894 ] final   67.60 input  -60.11 | X-H torsion
[ 7974 7965 7964 7962 ] final  127.88 input  175.53 | X-H torsion
[ 8008 7997 7996 7995 ] final   -8.11 input   59.86 | X-H torsion
[ 10167 10162 10161 10158 ] final -106.38 input  -65.29 | X-H torsion
[ 10718 10713 10712 10709 ] final   54.70 input   66.30 | X-H torsion
[ 10763 10752 10751 10750 ] final  129.20 input  -60.55 | X-H torsion
[ 11005 11000 10999 10996 ] final -121.72 input  -57.11 | X-H torsion

> <Gold.Protein.ActiveResidues>
 VAL166  LYS551  ARG553  GLY616  TRP617  ASP618  TYR619  PRO620  LYS621  CYS622 
 ASP623  PHE694  ASN695  SER759  ASP760  ASP761  ALA762  ILE779  LEU786  VAL792 
 PHE793  MET794  SER795  GLU796  ALA797  LYS798  CYS799  TRP800  GLU811  SER814 

> <Gold.Protein.RotatedAtoms>
  152.4563  134.5284  159.9803 H   0  0  0  0  0  0  0  0  0  0  0  0  # atno 6907 bound_to 6896
  151.5344  133.3438  159.2932 H   0  0  0  0  0  0  0  0  0  0  0  0  # atno 6908 bound_to 6896
  150.8509  134.7864  159.7070 H   0  0  0  0  0  0  0  0  0  0  0  0  # atno 6909 bound_to 6896
  145.0457  139.3925  143.5079 H   0  0  0  0  0  0  0  0  0  0  0  0  # atno 7974 bound_to 7965
  154.5773  140.2389  155.8105 H   0  0  0  0  0  0  0  0  0  0  0  0  # atno 8008 bound_to 7997
  156.2152  140.3014  155.9781 H   0  0  0  0  0  0  0  0  0  0  0  0  # atno 8009 bound_to 7997
  155.2604  140.0414  157.2987 H   0  0  0  0  0  0  0  0  0  0  0  0  # atno 8010 bound_to 7997
  140.1884  143.3911  152.1226 H   0  0  0  0  0  0  0  0  0  0  0  0  # atno 10167 bound_to 10162
  157.5280  130.8610  149.8648 H   0  0  0  0  0  0  0  0  0  0  0  0  # atno 10718 bound_to 10713
  153.7379  135.3228  155.3298 H   0  0  0  0  0  0  0  0  0  0  0  0  # atno 10763 bound_to 10752
  154.8305  135.4537  154.1056 H   0  0  0  0  0  0  0  0  0  0  0  0  # atno 10764 bound_to 10752
  153.2223  135.6949  153.8068 H   0  0  0  0  0  0  0  0  0  0  0  0  # atno 10765 bound_to 10752
  141.0049  134.0349  157.3490 H   0  0  0  0  0  0  0  0  0  0  0  0  # atno 11005 bound_to 11000
  146.3513  140.0081  142.8669 LP  0  0  0  0  0  0  0  0  0  0  0  0  # atno 17320 bound_to 7965
  145.1591  140.9663  143.4388 LP  0  0  0  0  0  0  0  0  0  0  0  0  # atno 17321 bound_to 7965
  139.5266  144.7110  151.5207 LP  0  0  0  0  0  0  0  0  0  0  0  0  # atno 17342 bound_to 10162
  140.6472  143.8770  150.6749 LP  0  0  0  0  0  0  0  0  0  0  0  0  # atno 17343 bound_to 10162
  156.0401  130.3741  150.1458 LP  0  0  0  0  0  0  0  0  0  0  0  0  # atno 17370 bound_to 10713
  156.9643  130.9815  151.3472 LP  0  0  0  0  0  0  0  0  0  0  0  0  # atno 17371 bound_to 10713
  139.9058  135.0179  156.7479 LP  0  0  0  0  0  0  0  0  0  0  0  0  # atno 17394 bound_to 11000
  140.6829  133.9459  155.7920 LP  0  0  0  0  0  0  0  0  0  0  0  0  # atno 17395 bound_to 11000

$$$$
