AV-unprocessed.smi:564|AV-procd|sdf|2950|dock10
  -GOLD-   2262023453D 1   1.00000     0.00000
 Structure written by MMmdl.
 50 51  0  0  0  0  0  0  0  0  2 V2000
  148.2298  137.6346  158.6232 C   0  0  0  0  0  0  0  0  0  0  0  0
  147.7920  136.7766  159.7760 C   0  0  0  0  0  0  0  0  0  0  0  0
  147.5620  137.3392  160.9502 N   0  0  0  0  0  0  0  0  0  0  0  0
  147.1936  136.3219  161.7542 N   0  0  0  0  0  0  0  0  0  0  0  0
  146.8674  136.5931  163.1407 C   0  0  0  0  0  0  0  0  0  0  0  0
  147.1810  135.1148  161.0838 C   0  0  0  0  0  0  0  0  0  0  0  0
  146.8004  133.8337  161.7534 C   0  0  0  0  0  0  0  0  0  0  0  0
  147.5588  135.3697  159.7923 C   0  0  0  0  0  0  0  0  0  0  0  0
  147.6865  134.4025  158.6419 C   0  0  0  0  0  0  0  0  0  0  0  0
  146.7925  134.8789  157.4988 C   0  0  0  0  0  0  0  0  0  0  0  0
  146.2413  135.9771  157.5601 O   0  0  0  0  0  0  0  0  0  0  0  0
  146.6997  134.0617  156.4385 N   0  0  0  0  0  0  0  0  0  0  0  0
  146.0531  134.3956  155.1737 C   0  0  0  0  0  0  0  0  0  0  0  0
  146.9384  135.2881  154.2737 C   0  0  0  0  0  0  0  0  0  0  0  0
  146.7175  135.0646  152.8140 N   0  3  1  0  0  0  0  0  0  0  0  0
  146.5998  133.6102  152.5084 C   0  0  0  0  0  0  0  0  0  0  0  0
  146.4955  133.3392  151.0021 C   0  0  0  0  0  0  0  0  0  0  0  0
  145.3043  134.0888  150.4079 C   0  0  0  0  0  0  0  0  0  0  0  0
  145.4450  135.5807  150.7149 C   0  0  0  0  0  0  0  0  0  0  0  0
  145.5895  135.8598  152.2280 C   0  0  2  0  0  0  0  0  0  0  0  0
  145.7614  137.3809  152.4231 C   0  0  0  0  0  0  0  0  0  0  0  0
  147.4357  137.7270  157.8826 H   0  0  0  0  0  0  0  0  0  0  0  0
  149.1007  137.2069  158.1262 H   0  0  0  0  0  0  0  0  0  0  0  0
  148.4976  138.6411  158.9473 H   0  0  0  0  0  0  0  0  0  0  0  0
  147.5146  136.0050  163.7917 H   0  0  0  0  0  0  0  0  0  0  0  0
  145.8286  136.3238  163.3323 H   0  0  0  0  0  0  0  0  0  0  0  0
  147.0043  137.6510  163.3695 H   0  0  0  0  0  0  0  0  0  0  0  0
  146.6276  133.0430  161.0233 H   0  0  0  0  0  0  0  0  0  0  0  0
  145.8856  133.9514  162.3347 H   0  0  0  0  0  0  0  0  0  0  0  0
  147.5898  133.5018  162.4277 H   0  0  0  0  0  0  0  0  0  0  0  0
  148.7154  134.3291  158.2880 H   0  0  0  0  0  0  0  0  0  0  0  0
  147.3933  133.3932  158.9331 H   0  0  0  0  0  0  0  0  0  0  0  0
  147.1700  133.1692  156.4892 H   0  0  0  0  0  0  0  0  0  0  0  0
  145.8178  133.4616  154.6639 H   0  0  0  0  0  0  0  0  0  0  0  0
  145.0950  134.8821  155.3626 H   0  0  0  0  0  0  0  0  0  0  0  0
  146.7942  136.3412  154.5186 H   0  0  0  0  0  0  0  0  0  0  0  0
  147.9654  135.0622  154.5469 H   0  0  0  0  0  0  0  0  0  0  0  0
  147.4661  133.0724  152.8918 H   0  0  0  0  0  0  0  0  0  0  0  0
  145.7259  133.2025  153.0190 H   0  0  0  0  0  0  0  0  0  0  0  0
  147.4143  133.6484  150.5036 H   0  0  0  0  0  0  0  0  0  0  0  0
  146.3897  132.2692  150.8214 H   0  0  0  0  0  0  0  0  0  0  0  0
  145.2560  133.9279  149.3303 H   0  0  0  0  0  0  0  0  0  0  0  0
  144.3729  133.7062  150.8271 H   0  0  0  0  0  0  0  0  0  0  0  0
  146.3129  135.9736  150.1856 H   0  0  0  0  0  0  0  0  0  0  0  0
  144.5799  136.1119  150.3166 H   0  0  0  0  0  0  0  0  0  0  0  0
  144.6669  135.5512  152.7223 H   0  0  0  0  0  0  0  0  0  0  0  0
  145.0394  137.9352  151.8228 H   0  0  0  0  0  0  0  0  0  0  0  0
  146.7566  137.7095  152.1233 H   0  0  0  0  0  0  0  0  0  0  0  0
  145.5947  137.6931  153.4533 H   0  0  0  0  0  0  0  0  0  0  0  0
  147.5527  135.3924  152.3494 H   0  0  0  0  0  0  0  0  0  0  0  0
  1  2  1  0  0  0  0
  1 22  1  0  0  0  0
  1 23  1  0  0  0  0
  1 24  1  0  0  0  0
  2  8  1  0  0  0  0
  2  3  2  0  0  0  0
  3  4  1  0  0  0  0
  4  5  1  0  0  0  0
  4  6  1  0  0  0  0
  5 25  1  0  0  0  0
  5 26  1  0  0  0  0
  5 27  1  0  0  0  0
  6  7  1  0  0  0  0
  6  8  2  0  0  0  0
  7 28  1  0  0  0  0
  7 29  1  0  0  0  0
  7 30  1  0  0  0  0
  8  9  1  0  0  0  0
  9 10  1  0  0  0  0
  9 31  1  0  0  0  0
  9 32  1  0  0  0  0
 10 11  2  0  0  0  0
 10 12  1  0  0  0  0
 12 13  1  0  0  0  0
 12 33  1  0  0  0  0
 13 14  1  0  0  0  0
 13 34  1  0  0  0  0
 13 35  1  0  0  0  0
 14 15  1  0  0  0  0
 14 36  1  0  0  0  0
 14 37  1  0  0  0  0
 15 20  1  0  0  0  0
 15 16  1  0  0  0  0
 15 50  1  0  0  0  0
 16 17  1  0  0  0  0
 16 38  1  0  0  0  0
 16 39  1  0  0  0  0
 17 18  1  0  0  0  0
 17 40  1  0  0  0  0
 17 41  1  0  0  0  0
 18 19  1  0  0  0  0
 18 42  1  0  0  0  0
 18 43  1  0  0  0  0
 19 20  1  0  0  0  0
 19 44  1  0  0  0  0
 19 45  1  0  0  0  0
 20 21  1  0  0  0  0
 20 46  1  0  0  0  0
 21 47  1  0  0  0  0
 21 48  1  0  0  0  0
 21 49  1  0  0  0  0
M  CHG  1  15   1
M  END
> <s_m_source_file>
AV-unprocessed.smi

> <i_m_source_file_index>
564

> <i_lp_mmshare_version>
43012

> <i_f3d_flags>
0

> <s_epik_input>
W0NIM11jMW5uKFtDSDNdKWMoW0NIM10pYzFbQ0gyXUMoPU8pW05IXVtDSDJdW0NIMl1OMltDSDJdW0NIMl1bQ0gyXVtDSDJdW0NASF0yW0NIM10=

> <s_epik_cmdline>
J2VwaWtfcHl0aG9uJywgJy1waCcsICc3LjAnLCAnLXRuJywgJzgnLCAnLW1hJywgJzIwMCcsICctbWV0YWxfYmluZGluZycsICctaW1hZScsICc8aW5maWxlLm1hZT4nLCAnLW9tYWUnLCAnPG91dGZpbGUubWFlPic=

> <r_lp_tautomer_probability>
1

> <r_epik_Ionization_Penalty>
0.00456826

> <r_epik_Ionization_Penalty_Charging>
0.00240401

> <r_epik_Ionization_Penalty_Neutral>
0.00216425

> <r_epik_State_Penalty>
-0

> <r_epik_Charging_Adjusted_Penalty>
0.00240401

> <i_epik_Tot_Q>
1

> <i_epik_Tot_abs_Q>
1

> <r_epik_Metal_State_Penalty>
-0

> <b_epik_Metal_Only>
0

> <s_lp_Force_Field>
OPLS_2005

> <r_lp_Energy>
16.3925

> <b_lp_Chiralities_Consistent>
1

> <s_lp_Variant>
AV-unprocessed.smi:564-4

> <Gold.Version>
5.8.1

> <Gold.Id.Protein>
6NUR|6NUR_protein|mol2

> <Gold.PLP.Fitness>
43.5125

> <Gold.PLP.PLP>
-33.7853

> <Gold.PLP.part.hbond>
-3.0000

> <Gold.PLP.part.metal>
0.0000

> <Gold.PLP.part.buried>
-3.0938

> <Gold.PLP.part.nonpolar>
-27.3294

> <Gold.PLP.part.repulsive>
0.0000

> <Gold.PLP.ligand.clash>
0.0000

> <Gold.PLP.ligand.torsion>
0.6034

> <Gold.PLP.Chemscore.Hbond>
3.6320

> <Gold.PLP.Chemscore.CHOScore>
0.0000

> <Gold.PLP.Chemscore.Metal>
0.0000

> <Gold.Chemscore.Hbonds>
donor molecule, donor type, donor heavy atom, donor atom, acceptor molecule, acceptor atom, score
      L1  H    15    50       P1  7948  2.00
      P1  H  6931  6943       L1     3  0.78
      P1  H  6934  6947       L1     3  0.96

> <Gold.PLP.Chemscore.Internal.Correction>
0.0381

> <Gold.Rescore>
     Score         DG    S(hbond)    S(metal)    S(lipo)     H(rot)  DE(clash)    DE(int)     intcor
     17.45     -18.45       2.48        0.00      75.29       1.61       0.07       0.93       ----

> <Gold.Chemscore.Fitness>
17.4540

> <Gold.Chemscore.DG>
-18.4520

> <Gold.Chemscore.ZeroCoef>
-5.4800

> <Gold.Chemscore.Hbond>
2.4838

> <Gold.Chemscore.Metal>
0.0000

> <Gold.Chemscore.Lipo>
75.2866

> <Gold.Chemscore.Internal_Hbond>
0.0000

> <Gold.Chemscore.DEClash>
0.0710

> <Gold.Chemscore.DEInternal>
0.9270

> <Gold.Chemscore.Rot>
1.6142

> <Gold.Chemscore.Internal.Correction>
   9.000000E+99

> <Gold.Chemscore.Hbonds>
donor molecule, donor type, donor heavy atom, donor atom, acceptor molecule, acceptor atom, score
      L1  H    15    50       P1  7948  1.00
      P1  H  6931  6943       L1     3  0.41
      P1  H  6934  6947       L1     3  0.85

> <Gold.Chemscore.Hbond.Weighted>
-8.2959

> <Gold.Chemscore.Metal.Weighted>
-0.0000

> <Gold.Chemscore.Lipo.Weighted>
-8.8085

> <Gold.Chemscore.Internal_Hbond.Weighted>
0.0000

> <Gold.Chemscore.DEClash.Weighted>
0.0710

> <Gold.Chemscore.DEInternal.Weighted>
0.9270

> <Gold.Chemscore.Rot.Weighted>
4.1324

> <Gold.Chemscore.Internal.Correction.Weighted>
   9.000000E+99

> <Gold.Protein.RotatedTorsions>
[ 6907 6896 6895 6894 ] final -101.27 input  -60.11 | X-H torsion
[ 7974 7965 7964 7962 ] final   18.29 input  175.53 | X-H torsion
[ 8008 7997 7996 7995 ] final   75.35 input   59.86 | X-H torsion
[ 10167 10162 10161 10158 ] final   44.20 input  -65.29 | X-H torsion
[ 10718 10713 10712 10709 ] final   71.96 input   66.30 | X-H torsion
[ 10763 10752 10751 10750 ] final   -5.99 input  -60.55 | X-H torsion
[ 11005 11000 10999 10996 ] final  -35.79 input  -57.11 | X-H torsion

> <Gold.Protein.ActiveResidues>
 VAL166  LYS551  ARG553  GLY616  TRP617  ASP618  TYR619  PRO620  LYS621  CYS622 
 ASP623  PHE694  ASN695  SER759  ASP760  ASP761  ALA762  ILE779  LEU786  VAL792 
 PHE793  MET794  SER795  GLU796  ALA797  LYS798  CYS799  TRP800  GLU811  SER814 

> <Gold.Protein.RotatedAtoms>
  150.7148  134.0760  159.3880 H   0  0  0  0  0  0  0  0  0  0  0  0  # atno 6907 bound_to 6896
  151.8743  135.0475  160.0492 H   0  0  0  0  0  0  0  0  0  0  0  0  # atno 6908 bound_to 6896
  152.2618  133.5269  159.5423 H   0  0  0  0  0  0  0  0  0  0  0  0  # atno 6909 bound_to 6896
  146.2190  139.8479  142.8628 H   0  0  0  0  0  0  0  0  0  0  0  0  # atno 7974 bound_to 7965
  155.8117  140.3473  155.5461 H   0  0  0  0  0  0  0  0  0  0  0  0  # atno 8008 bound_to 7997
  155.8434  140.0945  157.1740 H   0  0  0  0  0  0  0  0  0  0  0  0  # atno 8009 bound_to 7997
  154.4005  140.1390  156.3744 H   0  0  0  0  0  0  0  0  0  0  0  0  # atno 8010 bound_to 7997
  140.3366  144.2522  150.6161 H   0  0  0  0  0  0  0  0  0  0  0  0  # atno 10167 bound_to 10162
  157.6477  130.9554  150.0861 H   0  0  0  0  0  0  0  0  0  0  0  0  # atno 10718 bound_to 10713
  153.4061  135.7006  153.6392 H   0  0  0  0  0  0  0  0  0  0  0  0  # atno 10763 bound_to 10752
  153.4905  135.3674  155.2490 H   0  0  0  0  0  0  0  0  0  0  0  0  # atno 10764 bound_to 10752
  154.8714  135.4088  154.3404 H   0  0  0  0  0  0  0  0  0  0  0  0  # atno 10765 bound_to 10752
  140.9824  133.7049  156.1706 H   0  0  0  0  0  0  0  0  0  0  0  0  # atno 11005 bound_to 11000
  145.2832  141.0145  143.3705 LP  0  0  0  0  0  0  0  0  0  0  0  0  # atno 17320 bound_to 7965
  144.9134  139.4500  143.6576 LP  0  0  0  0  0  0  0  0  0  0  0  0  # atno 17321 bound_to 7965
  140.5347  143.2235  151.8181 LP  0  0  0  0  0  0  0  0  0  0  0  0  # atno 17342 bound_to 10162
  139.4847  144.4676  151.9465 LP  0  0  0  0  0  0  0  0  0  0  0  0  # atno 17343 bound_to 10162
  156.1824  130.3650  149.9018 LP  0  0  0  0  0  0  0  0  0  0  0  0  # atno 17370 bound_to 10713
  156.6967  130.8917  151.3594 LP  0  0  0  0  0  0  0  0  0  0  0  0  # atno 17371 bound_to 10713
  140.7166  134.4403  157.5578 LP  0  0  0  0  0  0  0  0  0  0  0  0  # atno 17394 bound_to 11000
  139.8956  134.8680  156.2126 LP  0  0  0  0  0  0  0  0  0  0  0  0  # atno 17395 bound_to 11000

$$$$
