AV-unprocessed.smi:255|AV-procd|sdf|1949|dock5
  -GOLD-   2262021 83D 1   1.00000     0.00000
 Structure written by MMmdl.
 44 47  0  0  0  0  0  0  0  0  1 V2000
  153.0836  139.2774  157.9926 O   0  0  0  0  0  0  0  0  0  0  0  0
  152.7861  140.1582  159.0554 C   0  0  0  0  0  0  0  0  0  0  0  0
  152.5087  141.5766  158.5220 C   0  0  2  0  0  0  0  0  0  0  0  0
  152.7061  142.6643  159.5786 C   0  0  0  0  0  0  0  0  0  0  0  0
  151.9359  143.8293  158.9691 C   0  0  2  0  0  0  0  0  0  0  0  0
  151.5622  144.7279  159.8794 F   0  0  0  0  0  0  0  0  0  0  0  0
  150.7452  143.1533  158.2839 C   0  0  0  0  0  0  0  0  0  0  0  0
  151.1259  141.7563  158.0830 N   0  0  0  0  0  0  0  0  0  0  0  0
  150.8458  141.2456  156.8635 C   0  0  0  0  0  0  0  0  0  0  0  0
  151.8042  140.5838  156.1628 N   0  0  0  0  0  0  0  0  0  0  0  0
  151.5148  140.0653  154.9653 C   0  0  0  0  0  0  0  0  0  0  0  0
  150.3569  140.0927  154.3008 N   0  0  0  0  0  0  0  0  0  0  0  0
  149.3952  140.7557  155.0059 C   0  0  0  0  0  0  0  0  0  0  0  0
  149.5546  141.3545  156.2862 C   0  0  0  0  0  0  0  0  0  0  0  0
  148.3596  141.9292  156.6986 N   0  0  0  0  0  0  0  0  0  0  0  0
  147.5388  141.6897  155.7121 C   0  0  0  0  0  0  0  0  0  0  0  0
  148.0792  140.9965  154.6515 N   0  0  0  0  0  0  0  0  0  0  0  0
  147.3943  140.6033  153.4298 C   0  0  0  0  0  0  0  0  0  0  0  0
  147.2716  139.0708  153.2626 C   0  0  1  0  0  0  0  0  0  0  0  0
  148.5718  138.5115  153.1860 O   0  0  0  0  0  0  0  0  0  0  0  0
  146.5105  138.3778  154.3895 C   0  0  0  0  0  0  0  0  0  0  0  0
  145.8502  137.2036  153.6811 C   0  0  0  0  0  0  0  0  0  0  0  0
  145.4576  137.7727  152.4439 O   0  0  0  0  0  0  0  0  0  0  0  0
  146.4867  138.6528  152.0029 C   0  0  0  0  0  0  0  0  0  0  0  0
  153.1895  141.7942  157.6964 H   0  0  0  0  0  0  0  0  0  0  0  0
  152.5539  144.3418  158.2306 H   0  0  0  0  0  0  0  0  0  0  0  0
  152.4189  138.6062  157.9644 H   0  0  0  0  0  0  0  0  0  0  0  0
  151.9510  139.7783  159.6454 H   0  0  0  0  0  0  0  0  0  0  0  0
  153.6588  140.1716  159.7089 H   0  0  0  0  0  0  0  0  0  0  0  0
  152.2504  142.3647  160.5240 H   0  0  0  0  0  0  0  0  0  0  0  0
  153.7553  142.8972  159.7626 H   0  0  0  0  0  0  0  0  0  0  0  0
  149.8756  143.1655  158.9415 H   0  0  0  0  0  0  0  0  0  0  0  0
  150.4657  143.6716  157.3659 H   0  0  0  0  0  0  0  0  0  0  0  0
  152.3265  139.5539  154.4689 H   0  0  0  0  0  0  0  0  0  0  0  0
  146.5099  142.0189  155.7276 H   0  0  0  0  0  0  0  0  0  0  0  0
  146.4040  141.0605  153.4316 H   0  0  0  0  0  0  0  0  0  0  0  0
  147.9278  141.0355  152.5821 H   0  0  0  0  0  0  0  0  0  0  0  0
  148.9572  138.7622  152.3601 H   0  0  0  0  0  0  0  0  0  0  0  0
  147.1386  138.0791  155.2301 H   0  0  0  0  0  0  0  0  0  0  0  0
  145.7284  139.0328  154.7753 H   0  0  0  0  0  0  0  0  0  0  0  0
  146.5631  136.3958  153.5083 H   0  0  0  0  0  0  0  0  0  0  0  0
  144.9974  136.8036  154.2298 H   0  0  0  0  0  0  0  0  0  0  0  0
  146.0315  139.5042  151.4956 H   0  0  0  0  0  0  0  0  0  0  0  0
  147.1185  138.1404  151.2754 H   0  0  0  0  0  0  0  0  0  0  0  0
  1  2  1  0  0  0  0
  1 27  1  0  0  0  0
  2  3  1  0  0  0  0
  2 28  1  0  0  0  0
  2 29  1  0  0  0  0
  3 25  1  0  0  0  0
  3  8  1  0  0  0  0
  3  4  1  0  0  0  0
  4  5  1  0  0  0  0
  4 30  1  0  0  0  0
  4 31  1  0  0  0  0
  5 26  1  0  0  0  0
  5  6  1  0  0  0  0
  5  7  1  0  0  0  0
  7  8  1  0  0  0  0
  7 32  1  0  0  0  0
  7 33  1  0  0  0  0
  8  9  1  0  0  0  0
  9 14  1  0  0  0  0
  9 10  2  0  0  0  0
 10 11  1  0  0  0  0
 11 12  2  0  0  0  0
 11 34  1  0  0  0  0
 12 13  1  0  0  0  0
 13 17  1  0  0  0  0
 13 14  2  0  0  0  0
 14 15  1  0  0  0  0
 15 16  2  0  0  0  0
 16 17  1  0  0  0  0
 16 35  1  0  0  0  0
 17 18  1  0  0  0  0
 18 19  1  0  0  0  0
 18 36  1  0  0  0  0
 18 37  1  0  0  0  0
 19 24  1  0  0  0  0
 19 20  1  0  0  0  0
 19 21  1  0  0  0  0
 20 38  1  0  0  0  0
 21 22  1  0  0  0  0
 21 39  1  0  0  0  0
 21 40  1  0  0  0  0
 22 23  1  0  0  0  0
 22 41  1  0  0  0  0
 22 42  1  0  0  0  0
 23 24  1  0  0  0  0
 24 43  1  0  0  0  0
 24 44  1  0  0  0  0
M  END
> <s_m_source_file>
AV-unprocessed.smi

> <i_m_source_file_index>
255

> <i_lp_mmshare_version>
43012

> <i_f3d_flags>
0

> <s_epik_input>
W09IXVtDSDJdW0NAQEhdMVtDSDJdW0NASF0oRilbQ0gyXU4xYyhuW2NIXW4yKWMoYzIzKW5bY0hdbjNbQ0gyXVtDQEBdNChbT0hdKVtDSDJdW0NIMl1PW0NIMl00

> <s_epik_cmdline>
J2VwaWtfcHl0aG9uJywgJy1waCcsICc3LjAnLCAnLXRuJywgJzgnLCAnLW1hJywgJzIwMCcsICctbWV0YWxfYmluZGluZycsICctaW1hZScsICc8aW5maWxlLm1hZT4nLCAnLW9tYWUnLCAnPG91dGZpbGUubWFlPic=

> <r_lp_tautomer_probability>
1

> <r_epik_Ionization_Penalty>
0.0058098

> <r_epik_Ionization_Penalty_Charging>
0

> <r_epik_Ionization_Penalty_Neutral>
0.0058098

> <r_epik_State_Penalty>
0.00411166

> <r_epik_Charging_Adjusted_Penalty>
0.00411166

> <i_epik_Tot_Q>
0

> <i_epik_Tot_abs_Q>
0

> <r_epik_Metal_State_Penalty>
-0

> <b_epik_Metal_Only>
0

> <s_lp_Force_Field>
OPLS_2005

> <r_lp_Energy>
52.3254

> <b_lp_Chiralities_Consistent>
1

> <s_lp_Variant>
AV-unprocessed.smi:255-1

> <Gold.Version>
5.8.1

> <Gold.Id.Protein>
6NUR|6NUR_protein|mol2

> <Gold.PLP.Fitness>
47.3003

> <Gold.PLP.PLP>
-41.9320

> <Gold.PLP.part.hbond>
-4.0000

> <Gold.PLP.part.metal>
0.0000

> <Gold.PLP.part.buried>
-1.0072

> <Gold.PLP.part.nonpolar>
-37.5786

> <Gold.PLP.part.repulsive>
1.6012

> <Gold.PLP.ligand.clash>
0.0000

> <Gold.PLP.ligand.torsion>
0.3577

> <Gold.PLP.Chemscore.Hbond>
2.0000

> <Gold.PLP.Chemscore.CHOScore>
0.0000

> <Gold.PLP.Chemscore.Metal>
0.0000

> <Gold.Chemscore.Hbonds>
donor molecule, donor type, donor heavy atom, donor atom, acceptor molecule, acceptor atom, score
      L1  H    20    38       P1  7957  1.00
      P1  H  7997  8010       L1     1  1.00

> <Gold.PLP.Chemscore.Internal.Correction>
0.0836

> <Gold.Rescore>
     Score         DG    S(hbond)    S(metal)    S(lipo)     H(rot)  DE(clash)    DE(int)     intcor
      8.23     -12.02       1.65        0.00      81.61       3.33       1.81       1.99       ----

> <Gold.Chemscore.Fitness>
8.2307

> <Gold.Chemscore.DG>
-12.0247

> <Gold.Chemscore.ZeroCoef>
-5.4800

> <Gold.Chemscore.Hbond>
1.6511

> <Gold.Chemscore.Metal>
0.0000

> <Gold.Chemscore.Lipo>
81.6070

> <Gold.Chemscore.Internal_Hbond>
0.0000

> <Gold.Chemscore.DEClash>
1.8061

> <Gold.Chemscore.DEInternal>
1.9880

> <Gold.Chemscore.Rot>
3.3273

> <Gold.Chemscore.Internal.Correction>
   9.000000E+99

> <Gold.Chemscore.Hbonds>
donor molecule, donor type, donor heavy atom, donor atom, acceptor molecule, acceptor atom, score
      L1  H    20    38       P1  7957  0.88
      P1  H  7997  8010       L1     1  0.78

> <Gold.Chemscore.Hbond.Weighted>
-5.5146

> <Gold.Chemscore.Metal.Weighted>
-0.0000

> <Gold.Chemscore.Lipo.Weighted>
-9.5480

> <Gold.Chemscore.Internal_Hbond.Weighted>
0.0000

> <Gold.Chemscore.DEClash.Weighted>
1.8061

> <Gold.Chemscore.DEInternal.Weighted>
1.9880

> <Gold.Chemscore.Rot.Weighted>
8.5179

> <Gold.Chemscore.Internal.Correction.Weighted>
   9.000000E+99

> <Gold.Protein.RotatedTorsions>
[ 6907 6896 6895 6894 ] final -122.56 input  -60.11 | X-H torsion
[ 7974 7965 7964 7962 ] final   50.38 input  175.53 | X-H torsion
[ 8008 7997 7996 7995 ] final   56.07 input   59.86 | X-H torsion
[ 10167 10162 10161 10158 ] final   77.53 input  -65.29 | X-H torsion
[ 10718 10713 10712 10709 ] final    0.27 input   66.30 | X-H torsion
[ 10763 10752 10751 10750 ] final  -19.95 input  -60.55 | X-H torsion
[ 11005 11000 10999 10996 ] final  162.78 input  -57.11 | X-H torsion

> <Gold.Protein.ActiveResidues>
 VAL166  LYS551  ARG553  GLY616  TRP617  ASP618  TYR619  PRO620  LYS621  CYS622 
 ASP623  PHE694  ASN695  SER759  ASP760  ASP761  ALA762  ILE779  LEU786  VAL792 
 PHE793  MET794  SER795  GLU796  ALA797  LYS798  CYS799  TRP800  GLU811  SER814 

> <Gold.Protein.RotatedAtoms>
  150.8587  133.7676  159.2999 H   0  0  0  0  0  0  0  0  0  0  0  0  # atno 6907 bound_to 6896
  151.5325  135.1067  159.9916 H   0  0  0  0  0  0  0  0  0  0  0  0  # atno 6908 bound_to 6896
  152.4610  133.7778  159.6890 H   0  0  0  0  0  0  0  0  0  0  0  0  # atno 6909 bound_to 6896
  146.0018  139.4447  143.0010 H   0  0  0  0  0  0  0  0  0  0  0  0  # atno 7974 bound_to 7965
  155.5114  140.3477  155.4389 H   0  0  0  0  0  0  0  0  0  0  0  0  # atno 8008 bound_to 7997
  156.0847  140.1395  156.9696 H   0  0  0  0  0  0  0  0  0  0  0  0  # atno 8009 bound_to 7997
  154.4599  140.0939  156.6841 H   0  0  0  0  0  0  0  0  0  0  0  0  # atno 8010 bound_to 7997
  139.9806  144.5829  150.7904 H   0  0  0  0  0  0  0  0  0  0  0  0  # atno 10167 bound_to 10162
  156.8310  130.5488  149.5687 H   0  0  0  0  0  0  0  0  0  0  0  0  # atno 10718 bound_to 10713
  153.6128  135.6995  153.5340 H   0  0  0  0  0  0  0  0  0  0  0  0  # atno 10763 bound_to 10752
  153.3002  135.4131  155.1245 H   0  0  0  0  0  0  0  0  0  0  0  0  # atno 10764 bound_to 10752
  154.8560  135.3647  154.5667 H   0  0  0  0  0  0  0  0  0  0  0  0  # atno 10765 bound_to 10752
  140.2292  134.8137  157.3299 H   0  0  0  0  0  0  0  0  0  0  0  0  # atno 11005 bound_to 11000
  145.7477  140.9984  143.1267 LP  0  0  0  0  0  0  0  0  0  0  0  0  # atno 17320 bound_to 7965
  144.6922  139.9175  143.7466 LP  0  0  0  0  0  0  0  0  0  0  0  0  # atno 17321 bound_to 7965
  140.7490  143.2932  151.3275 LP  0  0  0  0  0  0  0  0  0  0  0  0  # atno 17342 bound_to 10162
  139.6413  144.0535  152.2556 LP  0  0  0  0  0  0  0  0  0  0  0  0  # atno 17343 bound_to 10162
  156.0934  130.5914  150.9772 LP  0  0  0  0  0  0  0  0  0  0  0  0  # atno 17370 bound_to 10713
  157.6407  131.0910  150.8257 LP  0  0  0  0  0  0  0  0  0  0  0  0  # atno 17371 bound_to 10713
  140.1768  134.4539  155.7796 LP  0  0  0  0  0  0  0  0  0  0  0  0  # atno 17394 bound_to 11000
  141.2219  133.6966  156.7801 LP  0  0  0  0  0  0  0  0  0  0  0  0  # atno 17395 bound_to 11000

$$$$
