AV-unprocessed.smi:280|AV-procd|sdf|2098|dock5
  -GOLD-   2262021383D 1   1.00000     0.00000
 Structure written by MMmdl.
 59 62  0  0  0  0  0  0  0  0  2 V2000
  146.8483  134.0515  153.5557 C   0  0  0  0  0  0  0  0  0  0  0  0
  147.6571  133.2253  152.5311 C   0  0  1  0  0  0  0  0  0  0  0  0
  149.1371  133.0845  152.9477 C   0  0  0  0  0  0  0  0  0  0  0  0
  149.2846  132.1415  154.0571 N   0  0  0  0  0  0  0  0  0  0  0  0
  149.4202  132.6370  155.3184 C   0  0  0  0  0  0  0  0  0  0  0  0
  150.1966  133.7416  155.4713 N   0  0  0  0  0  0  0  0  0  0  0  0
  150.3793  134.2884  156.6752 C   0  0  0  0  0  0  0  0  0  0  0  0
  149.8844  133.8981  157.8490 N   0  0  0  0  0  0  0  0  0  0  0  0
  149.1040  132.7896  157.7139 C   0  0  0  0  0  0  0  0  0  0  0  0
  148.8172  132.1005  156.4984 C   0  0  0  0  0  0  0  0  0  0  0  0
  147.9646  131.0342  156.7665 N   0  0  0  0  0  0  0  0  0  0  0  0
  147.7689  131.0848  158.0548 C   0  0  0  0  0  0  0  0  0  0  0  0
  148.4251  132.1032  158.7060 N   0  0  0  0  0  0  0  0  0  0  0  0
  148.3799  132.3911  160.1324 C   0  0  0  0  0  0  0  0  0  0  0  0
  147.6673  133.7100  160.4919 C   0  0  0  0  0  0  0  0  0  0  0  0
  147.7355  133.9163  162.0192 C   0  0  0  0  0  0  0  0  0  0  0  0
  147.0577  135.0833  162.4405 O   0  0  0  0  0  0  0  0  0  0  0  0
  148.0244  134.9344  159.6363 C   0  0  0  0  0  0  0  0  0  0  0  0
  146.6346  135.2106  159.3565 O   0  0  0  0  0  0  0  0  0  0  0  0
  146.2877  133.8953  159.8426 C   0  0  0  0  0  0  0  0  0  0  0  0
  148.7080  130.8235  153.8141 C   0  0  0  0  0  0  0  0  0  0  0  0
  147.2286  130.9349  153.3996 C   0  0  0  0  0  0  0  0  0  0  0  0
  147.0689  131.8797  152.2606 N   0  3  1  0  0  0  0  0  0  0  0  0
  145.6962  131.9137  151.6850 C   0  0  0  0  0  0  0  0  0  0  0  0
  145.5953  132.7644  150.3953 C   0  0  0  0  0  0  0  0  0  0  0  0
  144.3688  132.3303  149.5746 C   0  0  0  0  0  0  0  0  0  0  0  0
  145.5275  134.2734  150.6951 C   0  0  0  0  0  0  0  0  0  0  0  0
  146.7227  132.5238  149.5783 O   0  0  0  0  0  0  0  0  0  0  0  0
  147.3095  135.0273  153.7095 H   0  0  0  0  0  0  0  0  0  0  0  0
  146.7940  133.5651  154.5291 H   0  0  0  0  0  0  0  0  0  0  0  0
  145.8267  134.2316  153.2221 H   0  0  0  0  0  0  0  0  0  0  0  0
  147.6441  133.7764  151.5898 H   0  0  0  0  0  0  0  0  0  0  0  0
  149.7141  132.6973  152.1071 H   0  0  0  0  0  0  0  0  0  0  0  0
  149.5570  134.0661  153.1671 H   0  0  0  0  0  0  0  0  0  0  0  0
  151.0118  135.1636  156.7017 H   0  0  0  0  0  0  0  0  0  0  0  0
  147.1402  130.3728  158.5698 H   0  0  0  0  0  0  0  0  0  0  0  0
  147.8980  131.5469  160.6274 H   0  0  0  0  0  0  0  0  0  0  0  0
  149.4043  132.4036  160.5067 H   0  0  0  0  0  0  0  0  0  0  0  0
  147.3018  133.0661  162.5467 H   0  0  0  0  0  0  0  0  0  0  0  0
  148.7679  134.0068  162.3570 H   0  0  0  0  0  0  0  0  0  0  0  0
  146.8565  134.9991  163.3602 H   0  0  0  0  0  0  0  0  0  0  0  0
  148.5137  135.7386  160.1869 H   0  0  0  0  0  0  0  0  0  0  0  0
  148.5717  134.6995  158.7232 H   0  0  0  0  0  0  0  0  0  0  0  0
  146.0881  133.2037  159.0224 H   0  0  0  0  0  0  0  0  0  0  0  0
  145.4536  133.9094  160.5450 H   0  0  0  0  0  0  0  0  0  0  0  0
  149.2718  130.3632  153.0020 H   0  0  0  0  0  0  0  0  0  0  0  0
  148.8366  130.1593  154.6677 H   0  0  0  0  0  0  0  0  0  0  0  0
  146.8631  129.9457  153.1290 H   0  0  0  0  0  0  0  0  0  0  0  0
  146.6168  131.2667  154.2380 H   0  0  0  0  0  0  0  0  0  0  0  0
  145.3356  130.8975  151.5166 H   0  0  0  0  0  0  0  0  0  0  0  0
  145.0108  132.3530  152.4112 H   0  0  0  0  0  0  0  0  0  0  0  0
  143.4440  132.4976  150.1279 H   0  0  0  0  0  0  0  0  0  0  0  0
  144.4124  131.2700  149.3224 H   0  0  0  0  0  0  0  0  0  0  0  0
  144.2951  132.8870  148.6393 H   0  0  0  0  0  0  0  0  0  0  0  0
  144.6733  134.5101  151.3306 H   0  0  0  0  0  0  0  0  0  0  0  0
  145.4242  134.8549  149.7781 H   0  0  0  0  0  0  0  0  0  0  0  0
  146.4244  134.6289  151.2030 H   0  0  0  0  0  0  0  0  0  0  0  0
  147.3599  132.0360  150.0786 H   0  0  0  0  0  0  0  0  0  0  0  0
  147.6438  131.4991  151.5225 H   0  0  0  0  0  0  0  0  0  0  0  0
  1  2  1  0  0  0  0
  1 29  1  0  0  0  0
  1 30  1  0  0  0  0
  1 31  1  0  0  0  0
  2 23  1  0  0  0  0
  2  3  1  0  0  0  0
  2 32  1  0  0  0  0
  3  4  1  0  0  0  0
  3 33  1  0  0  0  0
  3 34  1  0  0  0  0
  4  5  1  0  0  0  0
  4 21  1  0  0  0  0
  5 10  1  0  0  0  0
  5  6  2  0  0  0  0
  6  7  1  0  0  0  0
  7  8  2  0  0  0  0
  7 35  1  0  0  0  0
  8  9  1  0  0  0  0
  9 13  1  0  0  0  0
  9 10  2  0  0  0  0
 10 11  1  0  0  0  0
 11 12  2  0  0  0  0
 12 13  1  0  0  0  0
 12 36  1  0  0  0  0
 13 14  1  0  0  0  0
 14 15  1  0  0  0  0
 14 37  1  0  0  0  0
 14 38  1  0  0  0  0
 15 20  1  0  0  0  0
 15 16  1  0  0  0  0
 15 18  1  0  0  0  0
 16 17  1  0  0  0  0
 16 39  1  0  0  0  0
 16 40  1  0  0  0  0
 17 41  1  0  0  0  0
 18 19  1  0  0  0  0
 18 42  1  0  0  0  0
 18 43  1  0  0  0  0
 19 20  1  0  0  0  0
 20 44  1  0  0  0  0
 20 45  1  0  0  0  0
 21 22  1  0  0  0  0
 21 46  1  0  0  0  0
 21 47  1  0  0  0  0
 22 23  1  0  0  0  0
 22 48  1  0  0  0  0
 22 49  1  0  0  0  0
 23 24  1  0  0  0  0
 23 59  1  0  0  0  0
 24 25  1  0  0  0  0
 24 50  1  0  0  0  0
 24 51  1  0  0  0  0
 25 26  1  0  0  0  0
 25 27  1  0  0  0  0
 25 28  1  0  0  0  0
 26 52  1  0  0  0  0
 26 53  1  0  0  0  0
 26 54  1  0  0  0  0
 27 55  1  0  0  0  0
 27 56  1  0  0  0  0
 27 57  1  0  0  0  0
 28 58  1  0  0  0  0
M  CHG  1  23   1
M  END
> <s_m_source_file>
AV-unprocessed.smi

> <i_m_source_file_index>
280

> <i_lp_mmshare_version>
43012

> <i_f3d_flags>
0

> <s_epik_input>
W0NIM11DKFtDSDNdKShbT0hdKVtDSDJdTjFbQ0gyXVtDSDJdTihbQ0gyXVtDQEhdMVtDSDNdKWMobltjSF1uMiljKGMyMyluW2NIXW4zW0NIMl1DNChbQ0gyXVtPSF0pW0NIMl1PW0NIMl00

> <s_epik_cmdline>
J2VwaWtfcHl0aG9uJywgJy1waCcsICc3LjAnLCAnLXRuJywgJzgnLCAnLW1hJywgJzIwMCcsICctbWV0YWxfYmluZGluZycsICctaW1hZScsICc8aW5maWxlLm1hZT4nLCAnLW9tYWUnLCAnPG91dGZpbGUubWFlPic=

> <r_lp_tautomer_probability>
1

> <r_epik_Ionization_Penalty>
0.00179402

> <r_epik_Ionization_Penalty_Charging>
0.00173996

> <r_epik_Ionization_Penalty_Neutral>
5.40607e-05

> <r_epik_State_Penalty>
-0

> <r_epik_Charging_Adjusted_Penalty>
0.00173996

> <i_epik_Tot_Q>
1

> <i_epik_Tot_abs_Q>
1

> <r_epik_Metal_State_Penalty>
-0

> <b_epik_Metal_Only>
0

> <s_lp_Force_Field>
OPLS_2005

> <r_lp_Energy>
54.8934

> <b_lp_Chiralities_Consistent>
1

> <s_lp_Variant>
AV-unprocessed.smi:280-2

> <Gold.Version>
5.8.1

> <Gold.Id.Protein>
6NUR|6NUR_protein|mol2

> <Gold.PLP.Fitness>
47.2382

> <Gold.PLP.PLP>
-39.0357

> <Gold.PLP.part.hbond>
-4.9329

> <Gold.PLP.part.metal>
0.0000

> <Gold.PLP.part.buried>
-4.7193

> <Gold.PLP.part.nonpolar>
-29.8232

> <Gold.PLP.part.repulsive>
0.0198

> <Gold.PLP.ligand.clash>
0.0000

> <Gold.PLP.ligand.torsion>
0.8582

> <Gold.PLP.Chemscore.Hbond>
3.0000

> <Gold.PLP.Chemscore.CHOScore>
0.0000

> <Gold.PLP.Chemscore.Metal>
0.0000

> <Gold.Chemscore.Hbonds>
donor molecule, donor type, donor heavy atom, donor atom, acceptor molecule, acceptor atom, score
      L1  H    23    59       P1 10747  1.00
      L1  H    28    58       P1 10747  1.00
      P1  H  6896  6908       L1     8  0.86

> <Gold.PLP.Chemscore.Internal.Correction>
0.9188

> <Gold.Rescore>
     Score         DG    S(hbond)    S(metal)    S(lipo)     H(rot)  DE(clash)    DE(int)     intcor
     13.88     -16.82       2.88        0.00      86.87       3.30       0.05       2.89       ----

> <Gold.Chemscore.Fitness>
13.8793

> <Gold.Chemscore.DG>
-16.8208

> <Gold.Chemscore.ZeroCoef>
-5.4800

> <Gold.Chemscore.Hbond>
2.8811

> <Gold.Chemscore.Metal>
0.0000

> <Gold.Chemscore.Lipo>
86.8674

> <Gold.Chemscore.Internal_Hbond>
0.0000

> <Gold.Chemscore.DEClash>
0.0472

> <Gold.Chemscore.DEInternal>
2.8943

> <Gold.Chemscore.Rot>
3.2991

> <Gold.Chemscore.Internal.Correction>
   9.000000E+99

> <Gold.Chemscore.Hbonds>
donor molecule, donor type, donor heavy atom, donor atom, acceptor molecule, acceptor atom, score
      L1  H    23    59       P1 10747  0.99
      L1  H    28    58       P1 10747  0.92
      P1  H  6896  6908       L1     8  0.50

> <Gold.Chemscore.Hbond.Weighted>
-9.6229

> <Gold.Chemscore.Metal.Weighted>
-0.0000

> <Gold.Chemscore.Lipo.Weighted>
-10.1635

> <Gold.Chemscore.Internal_Hbond.Weighted>
0.0000

> <Gold.Chemscore.DEClash.Weighted>
0.0472

> <Gold.Chemscore.DEInternal.Weighted>
2.8943

> <Gold.Chemscore.Rot.Weighted>
8.4456

> <Gold.Chemscore.Internal.Correction.Weighted>
   9.000000E+99

> <Gold.Protein.RotatedTorsions>
[ 6907 6896 6895 6894 ] final  105.41 input  -60.11 | X-H torsion
[ 7974 7965 7964 7962 ] final   54.99 input  175.53 | X-H torsion
[ 8008 7997 7996 7995 ] final -162.19 input   59.86 | X-H torsion
[ 10167 10162 10161 10158 ] final   -6.68 input  -65.29 | X-H torsion
[ 10718 10713 10712 10709 ] final  106.53 input   66.30 | X-H torsion
[ 10763 10752 10751 10750 ] final -147.01 input  -60.55 | X-H torsion
[ 11005 11000 10999 10996 ] final   17.48 input  -57.11 | X-H torsion

> <Gold.Protein.ActiveResidues>
 VAL166  LYS551  ARG553  GLY616  TRP617  ASP618  TYR619  PRO620  LYS621  CYS622 
 ASP623  PHE694  ASN695  SER759  ASP760  ASP761  ALA762  ILE779  LEU786  VAL792 
 PHE793  MET794  SER795  GLU796  ALA797  LYS798  CYS799  TRP800  GLU811  SER814 

> <Gold.Protein.RotatedAtoms>
  152.5231  133.9532  159.7681 H   0  0  0  0  0  0  0  0  0  0  0  0  # atno 6907 bound_to 6896
  150.9838  133.6210  159.2725 H   0  0  0  0  0  0  0  0  0  0  0  0  # atno 6908 bound_to 6896
  151.3378  135.0862  159.9414 H   0  0  0  0  0  0  0  0  0  0  0  0  # atno 6909 bound_to 6896
  145.9551  139.4007  143.0282 H   0  0  0  0  0  0  0  0  0  0  0  0  # atno 7974 bound_to 7965
  155.8031  140.0895  157.1946 H   0  0  0  0  0  0  0  0  0  0  0  0  # atno 8008 bound_to 7997
  154.3981  140.1468  156.3357 H   0  0  0  0  0  0  0  0  0  0  0  0  # atno 8009 bound_to 7997
  155.8442  140.3437  155.5654 H   0  0  0  0  0  0  0  0  0  0  0  0  # atno 8010 bound_to 7997
  140.7005  143.6167  150.8652 H   0  0  0  0  0  0  0  0  0  0  0  0  # atno 10167 bound_to 10162
  157.6664  131.0853  150.6020 H   0  0  0  0  0  0  0  0  0  0  0  0  # atno 10718 bound_to 10713
  154.8307  135.3371  154.6752 H   0  0  0  0  0  0  0  0  0  0  0  0  # atno 10763 bound_to 10752
  153.7372  135.6948  153.4980 H   0  0  0  0  0  0  0  0  0  0  0  0  # atno 10764 bound_to 10752
  153.2270  135.4429  155.0504 H   0  0  0  0  0  0  0  0  0  0  0  0  # atno 10765 bound_to 10752
  140.4355  134.1376  155.7685 H   0  0  0  0  0  0  0  0  0  0  0  0  # atno 11005 bound_to 11000
  145.8118  140.9722  143.0945 LP  0  0  0  0  0  0  0  0  0  0  0  0  # atno 17320 bound_to 7965
  144.6803  139.9930  143.7484 LP  0  0  0  0  0  0  0  0  0  0  0  0  # atno 17321 bound_to 7965
  139.9888  143.5869  152.2917 LP  0  0  0  0  0  0  0  0  0  0  0  0  # atno 17342 bound_to 10162
  139.6517  144.7661  151.2135 LP  0  0  0  0  0  0  0  0  0  0  0  0  # atno 17343 bound_to 10162
  156.6321  130.4435  149.5783 LP  0  0  0  0  0  0  0  0  0  0  0  0  # atno 17370 bound_to 10713
  156.2274  130.6774  151.1429 LP  0  0  0  0  0  0  0  0  0  0  0  0  # atno 17371 bound_to 10713
  141.1728  133.8575  157.1518 LP  0  0  0  0  0  0  0  0  0  0  0  0  # atno 17394 bound_to 11000
  140.0105  134.9990  157.0385 LP  0  0  0  0  0  0  0  0  0  0  0  0  # atno 17395 bound_to 11000

$$$$
