AV-unprocessed.smi:829|AV-procd|sdf|3868|dock1
  -GOLD-   22720 1323D 1   1.00000     0.00000
 Structure written by MMmdl.
 50 52  0  0  0  0  0  0  0  0  3 V2000
  147.7977  137.9970  155.8125 O   0  0  0  0  0  0  0  0  0  0  0  0
  148.2583  137.5638  154.7566 C   0  0  0  0  0  0  0  0  0  0  0  0
  147.8508  136.4454  154.1317 N   0  0  0  0  0  0  0  0  0  0  0  0
  146.8375  135.5305  154.5285 C   0  0  0  0  0  0  0  0  0  0  0  0
  146.6274  134.3945  153.7154 C   0  0  0  0  0  0  0  0  0  0  0  0
  145.6252  133.4659  154.0630 C   0  0  0  0  0  0  0  0  0  0  0  0
  144.8680  133.6733  155.1615 N   0  3  0  0  0  0  0  0  0  0  0  0
  145.0209  134.7512  155.9603 C   0  0  0  0  0  0  0  0  0  0  0  0
  146.0071  135.7140  155.6636 C   0  0  0  0  0  0  0  0  0  0  0  0
  149.2611  138.1563  154.0919 N   0  0  0  0  0  0  0  0  0  0  0  0
  149.9559  139.3649  154.5265 C   0  0  2  0  0  0  0  0  0  0  0  0
  150.7686  139.1062  155.8083 C   0  0  0  0  0  0  0  0  0  0  0  0
  151.4218  140.4002  156.3238 C   0  0  0  0  0  0  0  0  0  0  0  0
  150.4076  141.4628  156.5478 N   0  3  1  0  0  0  0  0  0  0  0  0
  150.9752  142.6833  157.1775 C   0  0  0  0  0  0  0  0  0  0  0  0
  151.2419  142.4830  158.6815 C   0  0  0  0  0  0  0  0  0  0  0  0
  151.6810  143.7395  159.4397 C   0  0  0  0  0  0  0  0  0  0  0  0
  152.3465  143.2203  160.7180 C   0  0  0  0  0  0  0  0  0  0  0  0
  152.8180  141.7924  160.4060 C   0  0  0  0  0  0  0  0  0  0  0  0
  152.3840  141.5030  158.9648 C   0  0  0  0  0  0  0  0  0  0  0  0
  149.6392  141.7529  155.3089 C   0  0  0  0  0  0  0  0  0  0  0  0
  148.9401  140.4894  154.7819 C   0  0  0  0  0  0  0  0  0  0  0  0
  148.3787  136.1781  153.3137 H   0  0  0  0  0  0  0  0  0  0  0  0
  147.2319  134.2287  152.8352 H   0  0  0  0  0  0  0  0  0  0  0  0
  145.4071  132.5711  153.4982 H   0  0  0  0  0  0  0  0  0  0  0  0
  144.3501  134.8147  156.8047 H   0  0  0  0  0  0  0  0  0  0  0  0
  146.0981  136.5772  156.3050 H   0  0  0  0  0  0  0  0  0  0  0  0
  149.5799  137.7322  153.2328 H   0  0  0  0  0  0  0  0  0  0  0  0
  150.6336  139.6914  153.7350 H   0  0  0  0  0  0  0  0  0  0  0  0
  150.1194  138.6946  156.5829 H   0  0  0  0  0  0  0  0  0  0  0  0
  151.5400  138.3576  155.6225 H   0  0  0  0  0  0  0  0  0  0  0  0
  151.9430  140.1872  157.2580 H   0  0  0  0  0  0  0  0  0  0  0  0
  152.1712  140.7536  155.6135 H   0  0  0  0  0  0  0  0  0  0  0  0
  151.9270  142.9292  156.7040 H   0  0  0  0  0  0  0  0  0  0  0  0
  150.3309  143.5465  157.0030 H   0  0  0  0  0  0  0  0  0  0  0  0
  150.3399  142.0902  159.1544 H   0  0  0  0  0  0  0  0  0  0  0  0
  152.4140  144.2927  158.8508 H   0  0  0  0  0  0  0  0  0  0  0  0
  150.8504  144.4125  159.6547 H   0  0  0  0  0  0  0  0  0  0  0  0
  153.1687  143.8647  161.0310 H   0  0  0  0  0  0  0  0  0  0  0  0
  151.6228  143.1972  161.5335 H   0  0  0  0  0  0  0  0  0  0  0  0
  153.8968  141.6853  160.5234 H   0  0  0  0  0  0  0  0  0  0  0  0
  152.3444  141.0892  161.0922 H   0  0  0  0  0  0  0  0  0  0  0  0
  152.0876  140.4634  158.8218 H   0  0  0  0  0  0  0  0  0  0  0  0
  153.2187  141.7017  158.2906 H   0  0  0  0  0  0  0  0  0  0  0  0
  148.8918  142.5219  155.5007 H   0  0  0  0  0  0  0  0  0  0  0  0
  150.3115  142.1523  154.5476 H   0  0  0  0  0  0  0  0  0  0  0  0
  148.4016  140.7236  153.8626 H   0  0  0  0  0  0  0  0  0  0  0  0
  148.1916  140.1612  155.5049 H   0  0  0  0  0  0  0  0  0  0  0  0
  149.7527  141.0833  157.2166 H   0  0  0  0  0  0  0  0  0  0  0  0
  144.1471  132.9900  155.3951 H   0  0  0  0  0  0  0  0  0  0  0  0
  1  2  2  0  0  0  0
  2  3  1  0  0  0  0
  2 10  1  0  0  0  0
  3  4  1  0  0  0  0
  3 23  1  0  0  0  0
  4  9  1  0  0  0  0
  4  5  2  0  0  0  0
  5  6  1  0  0  0  0
  5 24  1  0  0  0  0
  6  7  2  0  0  0  0
  6 25  1  0  0  0  0
  7  8  1  0  0  0  0
  7 50  1  0  0  0  0
  8  9  2  0  0  0  0
  8 26  1  0  0  0  0
  9 27  1  0  0  0  0
 10 11  1  0  0  0  0
 10 28  1  0  0  0  0
 11 22  1  0  0  0  0
 11 12  1  0  0  0  0
 11 29  1  0  0  0  0
 12 13  1  0  0  0  0
 12 30  1  0  0  0  0
 12 31  1  0  0  0  0
 13 14  1  0  0  0  0
 13 32  1  0  0  0  0
 13 33  1  0  0  0  0
 14 15  1  0  0  0  0
 14 21  1  0  0  0  0
 14 49  1  0  0  0  0
 15 16  1  0  0  0  0
 15 34  1  0  0  0  0
 15 35  1  0  0  0  0
 16 20  1  0  0  0  0
 16 17  1  0  0  0  0
 16 36  1  0  0  0  0
 17 18  1  0  0  0  0
 17 37  1  0  0  0  0
 17 38  1  0  0  0  0
 18 19  1  0  0  0  0
 18 39  1  0  0  0  0
 18 40  1  0  0  0  0
 19 20  1  0  0  0  0
 19 41  1  0  0  0  0
 19 42  1  0  0  0  0
 20 43  1  0  0  0  0
 20 44  1  0  0  0  0
 21 22  1  0  0  0  0
 21 45  1  0  0  0  0
 21 46  1  0  0  0  0
 22 47  1  0  0  0  0
 22 48  1  0  0  0  0
M  CHG  1   7   1
M  CHG  1  14   1
M  END
> <s_m_source_file>
AV-unprocessed.smi

> <i_m_source_file_index>
829

> <i_lp_mmshare_version>
43012

> <i_f3d_flags>
0

> <s_epik_input>
W2NIXTFbY0hdbltjSF1bY0hdYzFbTkhdQyg9TylbTkhdW0NIXTJbQ0gyXVtDSDJdTihbQ0gyXVtDSDJdMilbQ0gyXVtDSF0zW0NIMl1bQ0gyXVtDSDJdW0NIMl0z

> <s_epik_cmdline>
J2VwaWtfcHl0aG9uJywgJy1waCcsICc3LjAnLCAnLXRuJywgJzgnLCAnLW1hJywgJzIwMCcsICctbWV0YWxfYmluZGluZycsICctaW1hZScsICc8aW5maWxlLm1hZT4nLCAnLW9tYWUnLCAnPG91dGZpbGUubWFlPic=

> <r_epik_Ionization_Penalty>
1.10644

> <r_epik_Ionization_Penalty_Charging>
1.10642

> <r_epik_Ionization_Penalty_Neutral>
1.84455e-05

> <r_epik_State_Penalty>
1.14949

> <r_epik_Charging_Adjusted_Penalty>
2.25592

> <i_epik_Tot_Q>
2

> <i_epik_Tot_abs_Q>
2

> <r_epik_Metal_State_Penalty>
1.23448

> <b_epik_Metal_Only>
0

> <s_lp_Force_Field>
OPLS_2005

> <r_lp_Energy>
49.76

> <b_lp_Chiralities_Consistent>
1

> <s_lp_Variant>
AV-unprocessed.smi:829-3

> <Gold.Version>
5.8.1

> <Gold.Id.Protein>
6NUR|6NUR_protein|mol2

> <Gold.PLP.Fitness>
46.0318

> <Gold.PLP.PLP>
-35.2209

> <Gold.PLP.part.hbond>
-2.8241

> <Gold.PLP.part.metal>
0.0000

> <Gold.PLP.part.buried>
-3.9549

> <Gold.PLP.part.nonpolar>
-29.0270

> <Gold.PLP.part.repulsive>
0.1238

> <Gold.PLP.ligand.clash>
0.0000

> <Gold.PLP.ligand.torsion>
0.2592

> <Gold.PLP.Chemscore.Hbond>
3.7355

> <Gold.PLP.Chemscore.CHOScore>
0.0000

> <Gold.PLP.Chemscore.Metal>
0.0000

> <Gold.Chemscore.Hbonds>
donor molecule, donor type, donor heavy atom, donor atom, acceptor molecule, acceptor atom, score
      L1  H     3    23       P1  7948  1.00
      L1  H     7    50       P1 10957  1.98
      L1  H    10    28       P1  7948  0.68

> <Gold.PLP.Chemscore.Internal.Correction>
0.1228

> <Gold.Rescore>
     Score         DG    S(hbond)    S(metal)    S(lipo)     H(rot)  DE(clash)    DE(int)     intcor
     19.80     -22.63       2.72        0.00      98.91       1.37       0.03       2.80       ----

> <Gold.Chemscore.Fitness>
19.8040

> <Gold.Chemscore.DG>
-22.6323

> <Gold.Chemscore.ZeroCoef>
-5.4800

> <Gold.Chemscore.Hbond>
2.7213

> <Gold.Chemscore.Metal>
0.0000

> <Gold.Chemscore.Lipo>
98.9068

> <Gold.Chemscore.Internal_Hbond>
0.0000

> <Gold.Chemscore.DEClash>
0.0263

> <Gold.Chemscore.DEInternal>
2.8020

> <Gold.Chemscore.Rot>
1.3707

> <Gold.Chemscore.Internal.Correction>
   9.000000E+99

> <Gold.Chemscore.Hbonds>
donor molecule, donor type, donor heavy atom, donor atom, acceptor molecule, acceptor atom, score
      L1  H     3    23       P1  7948  0.96
      L1  H     7    50       P1 10957  0.91
      L1  H    10    28       P1  7948  0.56

> <Gold.Chemscore.Hbond.Weighted>
-9.0891

> <Gold.Chemscore.Metal.Weighted>
-0.0000

> <Gold.Chemscore.Lipo.Weighted>
-11.5721

> <Gold.Chemscore.Internal_Hbond.Weighted>
0.0000

> <Gold.Chemscore.DEClash.Weighted>
0.0263

> <Gold.Chemscore.DEInternal.Weighted>
2.8020

> <Gold.Chemscore.Rot.Weighted>
3.5089

> <Gold.Chemscore.Internal.Correction.Weighted>
   9.000000E+99

> <Gold.Protein.RotatedTorsions>
[ 6907 6896 6895 6894 ] final  120.82 input  -60.11 | X-H torsion
[ 7974 7965 7964 7962 ] final -173.52 input  175.53 | X-H torsion
[ 8008 7997 7996 7995 ] final   63.66 input   59.86 | X-H torsion
[ 10167 10162 10161 10158 ] final -178.95 input  -65.29 | X-H torsion
[ 10718 10713 10712 10709 ] final  -41.86 input   66.30 | X-H torsion
[ 10763 10752 10751 10750 ] final   31.80 input  -60.55 | X-H torsion
[ 11005 11000 10999 10996 ] final  -35.15 input  -57.11 | X-H torsion

> <Gold.Protein.ActiveResidues>
 VAL166  LYS551  ARG553  GLY616  TRP617  ASP618  TYR619  PRO620  LYS621  CYS622 
 ASP623  PHE694  ASN695  SER759  ASP760  ASP761  ALA762  ILE779  LEU786  VAL792 
 PHE793  MET794  SER795  GLU796  ALA797  LYS798  CYS799  TRP800  GLU811  SER814 

> <Gold.Protein.RotatedAtoms>
  152.4369  133.7377  159.6622 H   0  0  0  0  0  0  0  0  0  0  0  0  # atno 6907 bound_to 6896
  150.8254  133.8170  159.3127 H   0  0  0  0  0  0  0  0  0  0  0  0  # atno 6908 bound_to 6896
  151.5840  135.1059  160.0075 H   0  0  0  0  0  0  0  0  0  0  0  0  # atno 6909 bound_to 6896
  144.7137  140.1610  143.6376 H   0  0  0  0  0  0  0  0  0  0  0  0  # atno 7974 bound_to 7965
  155.6338  140.3496  155.4692 H   0  0  0  0  0  0  0  0  0  0  0  0  # atno 8008 bound_to 7997
  155.9981  140.1207  157.0597 H   0  0  0  0  0  0  0  0  0  0  0  0  # atno 8009 bound_to 7997
  154.4240  140.1106  156.5645 H   0  0  0  0  0  0  0  0  0  0  0  0  # atno 8010 bound_to 7997
  139.5408  144.2367  152.0892 H   0  0  0  0  0  0  0  0  0  0  0  0  # atno 10167 bound_to 10162
  156.2658  130.4201  149.8492 H   0  0  0  0  0  0  0  0  0  0  0  0  # atno 10718 bound_to 10713
  153.0296  135.6429  154.1256 H   0  0  0  0  0  0  0  0  0  0  0  0  # atno 10763 bound_to 10752
  154.0980  135.2861  155.3259 H   0  0  0  0  0  0  0  0  0  0  0  0  # atno 10764 bound_to 10752
  154.6418  135.5457  153.7862 H   0  0  0  0  0  0  0  0  0  0  0  0  # atno 10765 bound_to 10752
  140.9773  133.7076  156.1624 H   0  0  0  0  0  0  0  0  0  0  0  0  # atno 11005 bound_to 11000
  145.9031  139.2442  143.1482 LP  0  0  0  0  0  0  0  0  0  0  0  0  # atno 17320 bound_to 7965
  145.9791  140.8697  143.0123 LP  0  0  0  0  0  0  0  0  0  0  0  0  # atno 17321 bound_to 7965
  140.1845  144.4812  150.6511 LP  0  0  0  0  0  0  0  0  0  0  0  0  # atno 17342 bound_to 10162
  140.6638  143.2261  151.5793 LP  0  0  0  0  0  0  0  0  0  0  0  0  # atno 17343 bound_to 10162
  156.5990  130.8539  151.3427 LP  0  0  0  0  0  0  0  0  0  0  0  0  # atno 17370 bound_to 10713
  157.7267  130.9633  150.1666 LP  0  0  0  0  0  0  0  0  0  0  0  0  # atno 17371 bound_to 10713
  140.7239  134.4328  157.5572 LP  0  0  0  0  0  0  0  0  0  0  0  0  # atno 17394 bound_to 11000
  139.8936  134.8727  156.2217 LP  0  0  0  0  0  0  0  0  0  0  0  0  # atno 17395 bound_to 11000

$$$$
