AV-unprocessed.smi:21|AV-procd|sdf|158|dock5
  -GOLD-   2262015393D 1   1.00000     0.00000
 Structure written by MMmdl.
 61 64  0  0  0  0  0  0  0  0  1 V2000
  151.6878  145.5913  159.9216 C   0  0  0  0  0  0  0  0  0  0  0  0
  152.0322  144.3359  160.4856 O   0  0  0  0  0  0  0  0  0  0  0  0
  152.7098  143.4771  159.5795 C   0  0  2  0  0  0  0  0  0  0  0  0
  151.7523  142.6072  158.7438 C   0  0  0  0  0  0  0  0  0  0  0  0
  152.1193  141.1605  159.1113 C   0  0  1  0  0  0  0  0  0  0  0  0
  151.8787  140.1532  157.9644 C   0  0  0  0  0  0  0  0  0  0  0  0
  151.3050  138.8874  158.4217 N   0  0  0  0  0  0  0  0  0  0  0  0
  152.1696  137.7081  158.4269 C   0  0  0  0  0  0  0  0  0  0  0  0
  149.9504  138.7111  158.4484 C   0  0  0  0  0  0  0  0  0  0  0  0
  149.1594  139.7204  157.9917 N   0  0  0  0  0  0  0  0  0  0  0  0
  147.8290  139.6136  158.0056 C   0  0  0  0  0  0  0  0  0  0  0  0
  147.0806  138.5941  158.4239 N   0  0  0  0  0  0  0  0  0  0  0  0
  147.8553  137.5678  158.8745 C   0  0  0  0  0  0  0  0  0  0  0  0
  149.2810  137.5390  158.9229 C   0  0  0  0  0  0  0  0  0  0  0  0
  149.6943  136.3143  159.4396 N   0  0  0  0  0  0  0  0  0  0  0  0
  148.5895  135.6676  159.6858 C   0  0  0  0  0  0  0  0  0  0  0  0
  147.4365  136.3438  159.3667 N   0  0  0  0  0  0  0  0  0  0  0  0
  146.0774  135.8558  159.5286 C   0  0  0  0  0  0  0  0  0  0  0  0
  145.2881  136.6112  160.6254 C   0  0  1  0  0  0  0  0  0  0  0  0
  143.7735  136.3195  160.5089 C   0  0  0  0  0  0  0  0  0  0  0  0
  143.5382  134.9271  160.4785 O   0  0  0  0  0  0  0  0  0  0  0  0
  145.8601  136.3647  162.0501 C   0  0  2  0  0  0  0  0  0  0  0  0
  147.3430  136.6781  162.2345 C   0  0  0  0  0  0  0  0  0  0  0  0
  147.7701  135.6679  163.2901 C   0  0  0  0  0  0  0  0  0  0  0  0
  147.0413  134.5107  162.9195 O   0  0  0  0  0  0  0  0  0  0  0  0
  145.7256  134.9214  162.5694 C   0  0  0  0  0  0  0  0  0  0  0  0
  153.4948  141.2304  159.5763 N   0  0  0  0  0  0  0  0  0  0  0  0
  153.9119  140.0680  160.3496 C   0  0  0  0  0  0  0  0  0  0  0  0
  153.5322  142.4491  160.3603 C   0  0  0  0  0  0  0  0  0  0  0  0
  153.3739  144.0449  158.9251 H   0  0  0  0  0  0  0  0  0  0  0  0
  151.4955  140.8791  159.9614 H   0  0  0  0  0  0  0  0  0  0  0  0
  151.1728  146.1967  160.6674 H   0  0  0  0  0  0  0  0  0  0  0  0
  151.0230  145.4807  159.0647 H   0  0  0  0  0  0  0  0  0  0  0  0
  152.5773  146.1367  159.6041 H   0  0  0  0  0  0  0  0  0  0  0  0
  150.7013  142.8069  158.9556 H   0  0  0  0  0  0  0  0  0  0  0  0
  151.9188  142.7984  157.6830 H   0  0  0  0  0  0  0  0  0  0  0  0
  151.2070  140.6047  157.2337 H   0  0  0  0  0  0  0  0  0  0  0  0
  152.7911  139.9560  157.4063 H   0  0  0  0  0  0  0  0  0  0  0  0
  151.9505  137.0717  159.2851 H   0  0  0  0  0  0  0  0  0  0  0  0
  153.2209  137.9893  158.4891 H   0  0  0  0  0  0  0  0  0  0  0  0
  152.0331  137.1235  157.5164 H   0  0  0  0  0  0  0  0  0  0  0  0
  147.2870  140.4681  157.6280 H   0  0  0  0  0  0  0  0  0  0  0  0
  148.5849  134.6705  160.1016 H   0  0  0  0  0  0  0  0  0  0  0  0
  145.5779  135.9521  158.5640 H   0  0  0  0  0  0  0  0  0  0  0  0
  146.1090  134.7886  159.7506 H   0  0  0  0  0  0  0  0  0  0  0  0
  145.4184  137.6779  160.4351 H   0  0  0  0  0  0  0  0  0  0  0  0
  143.2214  136.7482  161.3452 H   0  0  0  0  0  0  0  0  0  0  0  0
  143.3518  136.7449  159.5989 H   0  0  0  0  0  0  0  0  0  0  0  0
  143.9323  134.5724  159.6961 H   0  0  0  0  0  0  0  0  0  0  0  0
  145.3075  136.9828  162.7586 H   0  0  0  0  0  0  0  0  0  0  0  0
  147.9104  136.4982  161.3225 H   0  0  0  0  0  0  0  0  0  0  0  0
  147.5251  137.7076  162.5420 H   0  0  0  0  0  0  0  0  0  0  0  0
  148.8448  135.4856  163.2913 H   0  0  0  0  0  0  0  0  0  0  0  0
  147.4696  135.9906  164.2884 H   0  0  0  0  0  0  0  0  0  0  0  0
  145.0966  134.8971  163.4605 H   0  0  0  0  0  0  0  0  0  0  0  0
  145.2892  134.2326  161.8466 H   0  0  0  0  0  0  0  0  0  0  0  0
  154.9302  140.1984  160.7171 H   0  0  0  0  0  0  0  0  0  0  0  0
  153.8963  139.1652  159.7394 H   0  0  0  0  0  0  0  0  0  0  0  0
  153.2593  139.9081  161.2089 H   0  0  0  0  0  0  0  0  0  0  0  0
  154.5547  142.7839  160.5383 H   0  0  0  0  0  0  0  0  0  0  0  0
  153.0668  142.2766  161.3327 H   0  0  0  0  0  0  0  0  0  0  0  0
  1  2  1  0  0  0  0
  1 32  1  0  0  0  0
  1 33  1  0  0  0  0
  1 34  1  0  0  0  0
  2  3  1  0  0  0  0
  3 30  1  0  0  0  0
  3 29  1  0  0  0  0
  3  4  1  0  0  0  0
  4  5  1  0  0  0  0
  4 35  1  0  0  0  0
  4 36  1  0  0  0  0
  5 31  1  0  0  0  0
  5  6  1  0  0  0  0
  5 27  1  0  0  0  0
  6  7  1  0  0  0  0
  6 37  1  0  0  0  0
  6 38  1  0  0  0  0
  7  8  1  0  0  0  0
  7  9  1  0  0  0  0
  8 39  1  0  0  0  0
  8 40  1  0  0  0  0
  8 41  1  0  0  0  0
  9 14  1  0  0  0  0
  9 10  2  0  0  0  0
 10 11  1  0  0  0  0
 11 12  2  0  0  0  0
 11 42  1  0  0  0  0
 12 13  1  0  0  0  0
 13 17  1  0  0  0  0
 13 14  2  0  0  0  0
 14 15  1  0  0  0  0
 15 16  2  0  0  0  0
 16 17  1  0  0  0  0
 16 43  1  0  0  0  0
 17 18  1  0  0  0  0
 18 19  1  0  0  0  0
 18 44  1  0  0  0  0
 18 45  1  0  0  0  0
 19 20  1  0  0  0  0
 19 22  1  0  0  0  0
 19 46  1  0  0  0  0
 20 21  1  0  0  0  0
 20 47  1  0  0  0  0
 20 48  1  0  0  0  0
 21 49  1  0  0  0  0
 22 26  1  0  0  0  0
 22 23  1  0  0  0  0
 22 50  1  0  0  0  0
 23 24  1  0  0  0  0
 23 51  1  0  0  0  0
 23 52  1  0  0  0  0
 24 25  1  0  0  0  0
 24 53  1  0  0  0  0
 24 54  1  0  0  0  0
 25 26  1  0  0  0  0
 26 55  1  0  0  0  0
 26 56  1  0  0  0  0
 27 28  1  0  0  0  0
 27 29  1  0  0  0  0
 28 57  1  0  0  0  0
 28 58  1  0  0  0  0
 28 59  1  0  0  0  0
 29 60  1  0  0  0  0
 29 61  1  0  0  0  0
M  END
> <s_m_source_file>
AV-unprocessed.smi

> <i_m_source_file_index>
21

> <i_lp_mmshare_version>
43012

> <i_f3d_flags>
0

> <s_epik_input>
W0NIM11PW0NASF0xW0NIMl1bQ0BIXShOKFtDSDNdKVtDSDJdMSlbQ0gyXU4oW0NIM10pYyhuW2NIXW4yKWMoYzIzKW5bY0hdbjNbQ0gyXVtDQEhdKFtDSDJdW09IXSlbQ0BASF00W0NIMl1bQ0gyXU9bQ0gyXTQ=

> <s_epik_cmdline>
J2VwaWtfcHl0aG9uJywgJy1waCcsICc3LjAnLCAnLXRuJywgJzgnLCAnLW1hJywgJzIwMCcsICctbWV0YWxfYmluZGluZycsICctaW1hZScsICc8aW5maWxlLm1hZT4nLCAnLW9tYWUnLCAnPG91dGZpbGUubWFlPic=

> <r_lp_tautomer_probability>
1

> <r_epik_Ionization_Penalty>
2.17574

> <r_epik_Ionization_Penalty_Charging>
0

> <r_epik_Ionization_Penalty_Neutral>
2.17574

> <r_epik_State_Penalty>
2.31336

> <r_epik_Charging_Adjusted_Penalty>
2.31336

> <i_epik_Tot_Q>
0

> <i_epik_Tot_abs_Q>
0

> <r_epik_Metal_State_Penalty>
2.31025

> <b_epik_Metal_Only>
0

> <s_lp_Force_Field>
OPLS_2005

> <r_lp_Energy>
69.5253

> <b_lp_Chiralities_Consistent>
1

> <s_lp_Variant>
AV-unprocessed.smi:21-38

> <Gold.Version>
5.8.1

> <Gold.Id.Protein>
6NUR|6NUR_protein|mol2

> <Gold.PLP.Fitness>
45.1321

> <Gold.PLP.PLP>
-44.4711

> <Gold.PLP.part.hbond>
-1.3514

> <Gold.PLP.part.metal>
0.0000

> <Gold.PLP.part.buried>
-8.7057

> <Gold.PLP.part.nonpolar>
-34.9508

> <Gold.PLP.part.repulsive>
0.0966

> <Gold.PLP.ligand.clash>
0.0000

> <Gold.PLP.ligand.torsion>
1.4535

> <Gold.PLP.Chemscore.Hbond>
1.0000

> <Gold.PLP.Chemscore.CHOScore>
0.0000

> <Gold.PLP.Chemscore.Metal>
0.0000

> <Gold.Chemscore.Hbonds>
donor molecule, donor type, donor heavy atom, donor atom, acceptor molecule, acceptor atom, score
      P1  H  6896  6908       L1    15  0.95

> <Gold.PLP.Chemscore.Internal.Correction>
0.5680

> <Gold.Rescore>
     Score         DG    S(hbond)    S(metal)    S(lipo)     H(rot)  DE(clash)    DE(int)     intcor
      9.77     -13.66       0.90        0.00     109.91       3.00       0.12       3.76       ----

> <Gold.Chemscore.Fitness>
9.7742

> <Gold.Chemscore.DG>
-13.6611

> <Gold.Chemscore.ZeroCoef>
-5.4800

> <Gold.Chemscore.Hbond>
0.9011

> <Gold.Chemscore.Metal>
0.0000

> <Gold.Chemscore.Lipo>
109.9106

> <Gold.Chemscore.Internal_Hbond>
0.0000

> <Gold.Chemscore.DEClash>
0.1232

> <Gold.Chemscore.DEInternal>
3.7637

> <Gold.Chemscore.Rot>
3.0031

> <Gold.Chemscore.Internal.Correction>
   9.000000E+99

> <Gold.Chemscore.Hbonds>
donor molecule, donor type, donor heavy atom, donor atom, acceptor molecule, acceptor atom, score
      P1  H  6896  6908       L1    15  0.22

> <Gold.Chemscore.Hbond.Weighted>
-3.0095

> <Gold.Chemscore.Metal.Weighted>
-0.0000

> <Gold.Chemscore.Lipo.Weighted>
-12.8595

> <Gold.Chemscore.Internal_Hbond.Weighted>
0.0000

> <Gold.Chemscore.DEClash.Weighted>
0.1232

> <Gold.Chemscore.DEInternal.Weighted>
3.7637

> <Gold.Chemscore.Rot.Weighted>
7.6880

> <Gold.Chemscore.Internal.Correction.Weighted>
   9.000000E+99

> <Gold.Protein.RotatedTorsions>
[ 6907 6896 6895 6894 ] final -161.59 input  -60.11 | X-H torsion
[ 7974 7965 7964 7962 ] final -113.26 input  175.53 | X-H torsion
[ 8008 7997 7996 7995 ] final -173.50 input   59.86 | X-H torsion
[ 10167 10162 10161 10158 ] final -155.12 input  -65.29 | X-H torsion
[ 10718 10713 10712 10709 ] final   89.98 input   66.30 | X-H torsion
[ 10763 10752 10751 10750 ] final   98.96 input  -60.55 | X-H torsion
[ 11005 11000 10999 10996 ] final -119.86 input  -57.11 | X-H torsion

> <Gold.Protein.ActiveResidues>
 VAL166  LYS551  ARG553  GLY616  TRP617  ASP618  TYR619  PRO620  LYS621  CYS622 
 ASP623  PHE694  ASN695  SER759  ASP760  ASP761  ALA762  ILE779  LEU786  VAL792 
 PHE793  MET794  SER795  GLU796  ALA797  LYS798  CYS799  TRP800  GLU811  SER814 

> <Gold.Protein.RotatedAtoms>
  151.3670  133.3868  159.2695 H   0  0  0  0  0  0  0  0  0  0  0  0  # atno 6907 bound_to 6896
  150.9680  134.9059  159.7781 H   0  0  0  0  0  0  0  0  0  0  0  0  # atno 6908 bound_to 6896
  152.5174  134.3631  159.9344 H   0  0  0  0  0  0  0  0  0  0  0  0  # atno 6909 bound_to 6896
  145.1341  140.8741  143.3740 H   0  0  0  0  0  0  0  0  0  0  0  0  # atno 7974 bound_to 7965
  155.9582  140.1139  157.0919 H   0  0  0  0  0  0  0  0  0  0  0  0  # atno 8008 bound_to 7997
  154.4125  140.1187  156.5210 H   0  0  0  0  0  0  0  0  0  0  0  0  # atno 8009 bound_to 7997
  155.6755  140.3473  155.4837 H   0  0  0  0  0  0  0  0  0  0  0  0  # atno 8010 bound_to 7997
  139.6957  143.9346  152.2406 H   0  0  0  0  0  0  0  0  0  0  0  0  # atno 10167 bound_to 10162
  157.6957  131.0353  150.3508 H   0  0  0  0  0  0  0  0  0  0  0  0  # atno 10718 bound_to 10713
  153.2955  135.4130  155.1205 H   0  0  0  0  0  0  0  0  0  0  0  0  # atno 10763 bound_to 10752
  154.8533  135.3528  154.5923 H   0  0  0  0  0  0  0  0  0  0  0  0  # atno 10764 bound_to 10752
  153.6347  135.7059  153.5321 H   0  0  0  0  0  0  0  0  0  0  0  0  # atno 10765 bound_to 10752
  141.0185  134.0159  157.3316 H   0  0  0  0  0  0  0  0  0  0  0  0  # atno 11005 bound_to 11000
  145.0603  139.3111  143.5884 LP  0  0  0  0  0  0  0  0  0  0  0  0  # atno 17320 bound_to 7965
  146.3511  140.0042  142.8673 LP  0  0  0  0  0  0  0  0  0  0  0  0  # atno 17321 bound_to 7965
  139.9174  144.6820  150.8497 LP  0  0  0  0  0  0  0  0  0  0  0  0  # atno 17342 bound_to 10162
  140.7696  143.3399  151.2230 LP  0  0  0  0  0  0  0  0  0  0  0  0  # atno 17343 bound_to 10162
  156.3956  130.3906  149.6997 LP  0  0  0  0  0  0  0  0  0  0  0  0  # atno 17370 bound_to 10713
  156.4332  130.7825  151.2845 LP  0  0  0  0  0  0  0  0  0  0  0  0  # atno 17371 bound_to 10713
  139.9131  135.0193  156.7774 LP  0  0  0  0  0  0  0  0  0  0  0  0  # atno 17394 bound_to 11000
  140.6614  133.9642  155.7806 LP  0  0  0  0  0  0  0  0  0  0  0  0  # atno 17395 bound_to 11000

$$$$
