AV-unprocessed.smi:259|AV-procd|sdf|1974|dock5
  -GOLD-   2262021143D 1   1.00000     0.00000
 Structure written by MMmdl.
 54 57  0  0  0  0  0  0  0  0  1 V2000
  155.0811  135.1381  159.9685 C   0  0  0  0  0  0  0  0  0  0  0  0
  155.0274  136.4750  160.5399 N   0  0  0  0  0  0  0  0  0  0  0  0
  153.9310  137.2468  160.5517 C   0  0  0  0  0  0  0  0  0  0  0  0
  152.8545  136.8864  160.0747 O   0  0  0  0  0  0  0  0  0  0  0  0
  154.0746  138.6274  161.2142 C   0  0  0  0  0  0  0  0  0  0  0  0
  153.9928  139.8556  160.2654 C   0  0  2  0  0  0  0  0  0  0  0  0
  155.2458  139.9878  159.6148 O   0  0  0  0  0  0  0  0  0  0  0  0
  153.6393  141.1642  161.0186 C   0  0  0  0  0  0  0  0  0  0  0  0
  153.3555  142.3302  160.0591 C   0  0  0  0  0  0  0  0  0  0  0  0
  152.2871  141.9474  159.0277 C   0  0  0  0  0  0  0  0  0  0  0  0
  152.6819  140.7324  158.3189 N   0  0  0  0  0  0  0  0  0  0  0  0
  152.0797  140.4588  157.1341 C   0  0  0  0  0  0  0  0  0  0  0  0
  152.6306  139.5471  156.2883 N   0  0  0  0  0  0  0  0  0  0  0  0
  152.0537  139.2818  155.1127 C   0  0  0  0  0  0  0  0  0  0  0  0
  150.9403  139.8020  154.5929 N   0  0  0  0  0  0  0  0  0  0  0  0
  150.3768  140.7100  155.4401 C   0  0  0  0  0  0  0  0  0  0  0  0
  150.8748  141.0929  156.7174 C   0  0  0  0  0  0  0  0  0  0  0  0
  150.0262  142.0321  157.2916 N   0  0  0  0  0  0  0  0  0  0  0  0
  149.0888  142.2040  156.4006 C   0  0  0  0  0  0  0  0  0  0  0  0
  149.2163  141.4438  155.2601 N   0  0  0  0  0  0  0  0  0  0  0  0
  148.3228  141.4368  154.1117 C   0  0  0  0  0  0  0  0  0  0  0  0
  147.5394  140.1224  153.9371 C   0  0  0  0  0  0  0  0  0  0  0  0
  146.7537  140.1890  152.6118 C   0  0  0  0  0  0  0  0  0  0  0  0
  145.9820  139.0270  152.3805 O   0  0  0  0  0  0  0  0  0  0  0  0
  148.3238  138.8269  154.1911 C   0  0  0  0  0  0  0  0  0  0  0  0
  147.3697  138.3704  155.1751 O   0  0  0  0  0  0  0  0  0  0  0  0
  146.7492  139.6751  155.1754 C   0  0  0  0  0  0  0  0  0  0  0  0
  152.9506  139.5641  159.1592 C   0  0  0  0  0  0  0  0  0  0  0  0
  156.0833  134.7252  160.0824 H   0  0  0  0  0  0  0  0  0  0  0  0
  154.8399  135.1600  158.9050 H   0  0  0  0  0  0  0  0  0  0  0  0
  154.3787  134.4726  160.4720 H   0  0  0  0  0  0  0  0  0  0  0  0
  155.8748  136.8348  160.9550 H   0  0  0  0  0  0  0  0  0  0  0  0
  153.3109  138.7063  161.9892 H   0  0  0  0  0  0  0  0  0  0  0  0
  155.0311  138.6548  161.7389 H   0  0  0  0  0  0  0  0  0  0  0  0
  155.9044  140.1699  160.2684 H   0  0  0  0  0  0  0  0  0  0  0  0
  152.7545  140.9953  161.6338 H   0  0  0  0  0  0  0  0  0  0  0  0
  154.4375  141.4501  161.7042 H   0  0  0  0  0  0  0  0  0  0  0  0
  153.0335  143.2069  160.6212 H   0  0  0  0  0  0  0  0  0  0  0  0
  154.2742  142.6139  159.5442 H   0  0  0  0  0  0  0  0  0  0  0  0
  151.3277  141.7843  159.5209 H   0  0  0  0  0  0  0  0  0  0  0  0
  152.1549  142.7704  158.3239 H   0  0  0  0  0  0  0  0  0  0  0  0
  152.5569  138.5478  154.5005 H   0  0  0  0  0  0  0  0  0  0  0  0
  148.2735  142.8952  156.5554 H   0  0  0  0  0  0  0  0  0  0  0  0
  147.6372  142.2775  154.2251 H   0  0  0  0  0  0  0  0  0  0  0  0
  148.9071  141.6545  153.2170 H   0  0  0  0  0  0  0  0  0  0  0  0
  146.0820  141.0478  152.6024 H   0  0  0  0  0  0  0  0  0  0  0  0
  147.4254  140.3023  151.7608 H   0  0  0  0  0  0  0  0  0  0  0  0
  145.0983  139.2894  152.1714 H   0  0  0  0  0  0  0  0  0  0  0  0
  148.3855  138.1642  153.3271 H   0  0  0  0  0  0  0  0  0  0  0  0
  149.3090  138.9803  154.6324 H   0  0  0  0  0  0  0  0  0  0  0  0
  146.9899  140.2344  156.0807 H   0  0  0  0  0  0  0  0  0  0  0  0
  145.6695  139.6273  155.0297 H   0  0  0  0  0  0  0  0  0  0  0  0
  153.2723  138.7071  158.5684 H   0  0  0  0  0  0  0  0  0  0  0  0
  152.0049  139.2740  159.6192 H   0  0  0  0  0  0  0  0  0  0  0  0
  1  2  1  0  0  0  0
  1 29  1  0  0  0  0
  1 30  1  0  0  0  0
  1 31  1  0  0  0  0
  2  3  1  0  0  0  0
  2 32  1  0  0  0  0
  3  4  2  0  0  0  0
  3  5  1  0  0  0  0
  5  6  1  0  0  0  0
  5 33  1  0  0  0  0
  5 34  1  0  0  0  0
  6 28  1  0  0  0  0
  6  7  1  0  0  0  0
  6  8  1  0  0  0  0
  7 35  1  0  0  0  0
  8  9  1  0  0  0  0
  8 36  1  0  0  0  0
  8 37  1  0  0  0  0
  9 10  1  0  0  0  0
  9 38  1  0  0  0  0
  9 39  1  0  0  0  0
 10 11  1  0  0  0  0
 10 40  1  0  0  0  0
 10 41  1  0  0  0  0
 11 12  1  0  0  0  0
 11 28  1  0  0  0  0
 12 17  1  0  0  0  0
 12 13  2  0  0  0  0
 13 14  1  0  0  0  0
 14 15  2  0  0  0  0
 14 42  1  0  0  0  0
 15 16  1  0  0  0  0
 16 20  1  0  0  0  0
 16 17  2  0  0  0  0
 17 18  1  0  0  0  0
 18 19  2  0  0  0  0
 19 20  1  0  0  0  0
 19 43  1  0  0  0  0
 20 21  1  0  0  0  0
 21 22  1  0  0  0  0
 21 44  1  0  0  0  0
 21 45  1  0  0  0  0
 22 27  1  0  0  0  0
 22 23  1  0  0  0  0
 22 25  1  0  0  0  0
 23 24  1  0  0  0  0
 23 46  1  0  0  0  0
 23 47  1  0  0  0  0
 24 48  1  0  0  0  0
 25 26  1  0  0  0  0
 25 49  1  0  0  0  0
 25 50  1  0  0  0  0
 26 27  1  0  0  0  0
 27 51  1  0  0  0  0
 27 52  1  0  0  0  0
 28 53  1  0  0  0  0
 28 54  1  0  0  0  0
M  END
> <s_m_source_file>
AV-unprocessed.smi

> <i_m_source_file_index>
259

> <i_lp_mmshare_version>
43012

> <i_f3d_flags>
0

> <s_epik_input>
W0NIM11bTkhdQyg9TylbQ0gyXVtDQEBdMShbT0hdKVtDSDJdW0NIMl1bQ0gyXU4oW0NIMl0xKWMobltjSF1uMiljKGMyMyluW2NIXW4zW0NIMl1DNChbQ0gyXVtPSF0pW0NIMl1PW0NIMl00

> <s_epik_cmdline>
J2VwaWtfcHl0aG9uJywgJy1waCcsICc3LjAnLCAnLXRuJywgJzgnLCAnLW1hJywgJzIwMCcsICctbWV0YWxfYmluZGluZycsICctaW1hZScsICc8aW5maWxlLm1hZT4nLCAnLW9tYWUnLCAnPG91dGZpbGUubWFlPic=

> <r_lp_tautomer_probability>
1

> <r_epik_Ionization_Penalty>
0.00366363

> <r_epik_Ionization_Penalty_Charging>
0

> <r_epik_Ionization_Penalty_Neutral>
0.00366363

> <r_epik_State_Penalty>
0.00243014

> <r_epik_Charging_Adjusted_Penalty>
0.00243014

> <i_epik_Tot_Q>
0

> <i_epik_Tot_abs_Q>
0

> <r_epik_Metal_State_Penalty>
-0

> <b_epik_Metal_Only>
0

> <s_lp_Force_Field>
OPLS_2005

> <r_lp_Energy>
39.9433

> <b_lp_Chiralities_Consistent>
1

> <s_lp_Variant>
AV-unprocessed.smi:259-2

> <Gold.Version>
5.8.1

> <Gold.Id.Protein>
6NUR|6NUR_protein|mol2

> <Gold.PLP.Fitness>
56.4151

> <Gold.PLP.PLP>
-42.1895

> <Gold.PLP.part.hbond>
-5.2352

> <Gold.PLP.part.metal>
0.0000

> <Gold.PLP.part.buried>
1.0660

> <Gold.PLP.part.nonpolar>
-36.5503

> <Gold.PLP.part.repulsive>
0.2771

> <Gold.PLP.ligand.clash>
0.0000

> <Gold.PLP.ligand.torsion>
0.8703

> <Gold.PLP.Chemscore.Hbond>
4.4917

> <Gold.PLP.Chemscore.CHOScore>
0.5329

> <Gold.PLP.Chemscore.Metal>
0.0000

> <Gold.Chemscore.Hbonds>
donor molecule, donor type, donor heavy atom, donor atom, acceptor molecule, acceptor atom, score
      L1  H    24    48       P1 10175  0.98
      P1  H  6896  6907       L1     4  1.00
      P1  H  7989  7998       L1    15  0.90
      P1  H  7997  8008       L1     7  0.40
      P1  H  7997  8009       L1    13  1.00
      L1  C    19    43       P1  8028  0.54

> <Gold.PLP.Chemscore.Internal.Correction>
0.8924

> <Gold.Rescore>
     Score         DG    S(hbond)    S(metal)    S(lipo)     H(rot)  DE(clash)    DE(int)     intcor
      8.58     -15.01       3.01        0.00      85.07       4.09       1.55       4.88       ----

> <Gold.Chemscore.Fitness>
8.5801

> <Gold.Chemscore.DG>
-15.0124

> <Gold.Chemscore.ZeroCoef>
-5.4800

> <Gold.Chemscore.Hbond>
3.0095

> <Gold.Chemscore.Metal>
0.0000

> <Gold.Chemscore.Lipo>
85.0653

> <Gold.Chemscore.Internal_Hbond>
0.0000

> <Gold.Chemscore.DEClash>
1.5502

> <Gold.Chemscore.DEInternal>
4.8821

> <Gold.Chemscore.Rot>
4.0906

> <Gold.Chemscore.Internal.Correction>
   9.000000E+99

> <Gold.Chemscore.Hbonds>
donor molecule, donor type, donor heavy atom, donor atom, acceptor molecule, acceptor atom, score
      L1  H    24    48       P1 10175  0.93
      P1  H  6896  6907       L1     4  0.95
      P1  H  7989  7998       L1    15  0.05
      P1  H  7997  8008       L1     7  0.36
      P1  H  7997  8009       L1    13  0.33

> <Gold.Chemscore.Hbond.Weighted>
-10.0517

> <Gold.Chemscore.Metal.Weighted>
-0.0000

> <Gold.Chemscore.Lipo.Weighted>
-9.9526

> <Gold.Chemscore.Internal_Hbond.Weighted>
0.0000

> <Gold.Chemscore.DEClash.Weighted>
1.5502

> <Gold.Chemscore.DEInternal.Weighted>
4.8821

> <Gold.Chemscore.Rot.Weighted>
10.4719

> <Gold.Chemscore.Internal.Correction.Weighted>
   9.000000E+99

> <Gold.Protein.RotatedTorsions>
[ 6907 6896 6895 6894 ] final   29.01 input  -60.11 | X-H torsion
[ 7974 7965 7964 7962 ] final  -85.11 input  175.53 | X-H torsion
[ 8008 7997 7996 7995 ] final -143.64 input   59.86 | X-H torsion
[ 10167 10162 10161 10158 ] final  -53.56 input  -65.29 | X-H torsion
[ 10718 10713 10712 10709 ] final   65.28 input   66.30 | X-H torsion
[ 10763 10752 10751 10750 ] final   13.74 input  -60.55 | X-H torsion
[ 11005 11000 10999 10996 ] final  -14.75 input  -57.11 | X-H torsion

> <Gold.Protein.ActiveResidues>
 VAL166  LYS551  ARG553  GLY616  TRP617  ASP618  TYR619  PRO620  LYS621  CYS622 
 ASP623  PHE694  ASN695  SER759  ASP760  ASP761  ALA762  ILE779  LEU786  VAL792 
 PHE793  MET794  SER795  GLU796  ALA797  LYS798  CYS799  TRP800  GLU811  SER814 

> <Gold.Protein.RotatedAtoms>
  152.0252  134.9799  160.0571 H   0  0  0  0  0  0  0  0  0  0  0  0  # atno 6907 bound_to 6896
  152.1298  133.4396  159.4723 H   0  0  0  0  0  0  0  0  0  0  0  0  # atno 6908 bound_to 6896
  150.6855  134.2353  159.4494 H   0  0  0  0  0  0  0  0  0  0  0  0  # atno 6909 bound_to 6896
  145.4976  140.9549  143.1777 H   0  0  0  0  0  0  0  0  0  0  0  0  # atno 7974 bound_to 7965
  155.5139  140.0585  157.2918 H   0  0  0  0  0  0  0  0  0  0  0  0  # atno 8008 bound_to 7997
  154.4542  140.1964  156.0377 H   0  0  0  0  0  0  0  0  0  0  0  0  # atno 8009 bound_to 7997
  156.0765  140.3253  155.7645 H   0  0  0  0  0  0  0  0  0  0  0  0  # atno 8010 bound_to 7997
  140.6478  143.2546  151.4809 H   0  0  0  0  0  0  0  0  0  0  0  0  # atno 10167 bound_to 10162
  157.6095  130.9205  149.9956 H   0  0  0  0  0  0  0  0  0  0  0  0  # atno 10718 bound_to 10713
  153.1691  135.6809  153.8633 H   0  0  0  0  0  0  0  0  0  0  0  0  # atno 10763 bound_to 10752
  153.8003  135.3157  155.3390 H   0  0  0  0  0  0  0  0  0  0  0  0  # atno 10764 bound_to 10752
  154.7986  135.4792  154.0312 H   0  0  0  0  0  0  0  0  0  0  0  0  # atno 10765 bound_to 10752
  140.7896  133.8298  155.9367 H   0  0  0  0  0  0  0  0  0  0  0  0  # atno 11005 bound_to 11000
  144.7798  139.6551  143.7159 LP  0  0  0  0  0  0  0  0  0  0  0  0  # atno 17320 bound_to 7965
  146.2246  139.5698  142.9596 LP  0  0  0  0  0  0  0  0  0  0  0  0  # atno 17321 bound_to 7965
  139.5690  144.1973  152.1808 LP  0  0  0  0  0  0  0  0  0  0  0  0  # atno 17342 bound_to 10162
  140.1264  144.5328  150.6830 LP  0  0  0  0  0  0  0  0  0  0  0  0  # atno 17343 bound_to 10162
  156.1193  130.3646  149.9915 LP  0  0  0  0  0  0  0  0  0  0  0  0  # atno 17370 bound_to 10713
  156.7998  130.9286  151.3646 LP  0  0  0  0  0  0  0  0  0  0  0  0  # atno 17371 bound_to 10713
  140.9402  134.1910  157.4803 LP  0  0  0  0  0  0  0  0  0  0  0  0  # atno 17394 bound_to 11000
  139.8732  134.9869  156.5343 LP  0  0  0  0  0  0  0  0  0  0  0  0  # atno 17395 bound_to 11000

$$$$
