AV-unprocessed.smi:1700|AV-procd|sdf|6820|dock6
  -GOLD-   22720 7593D 1   1.00000     0.00000
 Structure written by MMmdl.
 34 35  0  0  0  0  0  0  0  0  1 V2000
  145.8669  134.3016  151.0403 C   0  0  0  0  0  0  0  0  0  0  0  0
  146.0034  132.9168  151.6523 C   0  0  0  0  0  0  0  0  0  0  0  0
  145.1143  131.8961  151.2536 C   0  0  0  0  0  0  0  0  0  0  0  0
  145.2415  130.6159  151.8192 C   0  0  0  0  0  0  0  0  0  0  0  0
  146.2595  130.4095  152.7657 C   0  0  0  0  0  0  0  0  0  0  0  0
  147.1129  131.3792  153.1530 N   0  0  0  0  0  0  0  0  0  0  0  0
  147.0035  132.6210  152.6173 C   0  0  0  0  0  0  0  0  0  0  0  0
  147.8675  133.6929  152.9807 N   0  0  0  0  0  0  0  0  0  0  0  0
  148.6422  133.8099  154.0737 C   0  0  0  0  0  0  0  0  0  0  0  0
  148.7437  132.9721  154.9705 O   0  0  0  0  0  0  0  0  0  0  0  0
  149.3072  134.9741  154.0738 N   0  0  0  0  0  0  0  0  0  0  0  0
  150.2182  135.4159  155.1235 C   0  0  0  0  0  0  0  0  0  0  0  0
  151.0622  136.6190  154.6720 C   0  0  1  0  0  0  0  0  0  0  0  0
  150.3388  137.9566  154.7949 C   0  0  0  0  0  0  0  0  0  0  0  0
  151.4995  138.9253  154.8268 C   0  0  0  0  0  0  0  0  0  0  0  0
  152.5528  138.1500  155.6172 C   0  0  0  0  0  0  0  0  0  0  0  0
  152.2096  136.7705  155.5018 O   0  0  0  0  0  0  0  0  0  0  0  0
  145.0448  134.3406  150.3251 H   0  0  0  0  0  0  0  0  0  0  0  0
  146.7815  134.5789  150.5154 H   0  0  0  0  0  0  0  0  0  0  0  0
  145.6721  135.0439  151.8149 H   0  0  0  0  0  0  0  0  0  0  0  0
  144.3427  132.0885  150.5227 H   0  0  0  0  0  0  0  0  0  0  0  0
  144.5767  129.8138  151.5349 H   0  0  0  0  0  0  0  0  0  0  0  0
  146.3930  129.4409  153.2245 H   0  0  0  0  0  0  0  0  0  0  0  0
  147.8940  134.4645  152.3313 H   0  0  0  0  0  0  0  0  0  0  0  0
  149.1638  135.6076  153.3011 H   0  0  0  0  0  0  0  0  0  0  0  0
  149.6519  135.6681  156.0217 H   0  0  0  0  0  0  0  0  0  0  0  0
  150.8669  134.5816  155.3911 H   0  0  0  0  0  0  0  0  0  0  0  0
  151.3982  136.4911  153.6415 H   0  0  0  0  0  0  0  0  0  0  0  0
  149.6484  138.1434  153.9720 H   0  0  0  0  0  0  0  0  0  0  0  0
  149.7813  138.0094  155.7312 H   0  0  0  0  0  0  0  0  0  0  0  0
  151.8548  139.1106  153.8122 H   0  0  0  0  0  0  0  0  0  0  0  0
  151.2461  139.8842  155.2799 H   0  0  0  0  0  0  0  0  0  0  0  0
  153.5594  138.3364  155.2423 H   0  0  0  0  0  0  0  0  0  0  0  0
  152.5279  138.4269  156.6715 H   0  0  0  0  0  0  0  0  0  0  0  0
  1  2  1  0  0  0  0
  1 18  1  0  0  0  0
  1 19  1  0  0  0  0
  1 20  1  0  0  0  0
  2  7  1  0  0  0  0
  2  3  2  0  0  0  0
  3  4  1  0  0  0  0
  3 21  1  0  0  0  0
  4  5  2  0  0  0  0
  4 22  1  0  0  0  0
  5  6  1  0  0  0  0
  5 23  1  0  0  0  0
  6  7  2  0  0  0  0
  7  8  1  0  0  0  0
  8  9  1  0  0  0  0
  8 24  1  0  0  0  0
  9 10  2  0  0  0  0
  9 11  1  0  0  0  0
 11 12  1  0  0  0  0
 11 25  1  0  0  0  0
 12 13  1  0  0  0  0
 12 26  1  0  0  0  0
 12 27  1  0  0  0  0
 13 17  1  0  0  0  0
 13 14  1  0  0  0  0
 13 28  1  0  0  0  0
 14 15  1  0  0  0  0
 14 29  1  0  0  0  0
 14 30  1  0  0  0  0
 15 16  1  0  0  0  0
 15 31  1  0  0  0  0
 15 32  1  0  0  0  0
 16 17  1  0  0  0  0
 16 33  1  0  0  0  0
 16 34  1  0  0  0  0
M  END
> <s_m_source_file>
AV-unprocessed.smi

> <i_m_source_file_index>
1700

> <i_lp_mmshare_version>
43012

> <i_f3d_flags>
0

> <s_epik_input>
W0NIM11jMVtjSF1bY0hdW2NIXW5jMVtOSF1DKD1PKVtOSF1bQ0gyXVtDQEBIXTJbQ0gyXVtDSDJdW0NIMl1PMg==

> <s_epik_cmdline>
J2VwaWtfcHl0aG9uJywgJy1waCcsICc3LjAnLCAnLXRuJywgJzgnLCAnLW1hJywgJzIwMCcsICctbWV0YWxfYmluZGluZycsICctaW1hZScsICc8aW5maWxlLm1hZT4nLCAnLW9tYWUnLCAnPG91dGZpbGUubWFlPic=

> <r_lp_tautomer_probability>
1

> <r_epik_Ionization_Penalty>
5.57253e-05

> <r_epik_Ionization_Penalty_Charging>
0

> <r_epik_Ionization_Penalty_Neutral>
5.57253e-05

> <r_epik_State_Penalty>
-0

> <r_epik_Charging_Adjusted_Penalty>
0

> <i_epik_Tot_Q>
0

> <i_epik_Tot_abs_Q>
0

> <r_epik_Metal_State_Penalty>
-0

> <b_epik_Metal_Only>
0

> <s_lp_Force_Field>
OPLS_2005

> <r_lp_Energy>
19.2835

> <b_lp_Chiralities_Consistent>
1

> <s_lp_Variant>
AV-unprocessed.smi:1700-2

> <Gold.Version>
5.8.1

> <Gold.Id.Protein>
6NUR|6NUR_protein|mol2

> <Gold.PLP.Fitness>
37.7774

> <Gold.PLP.PLP>
-30.0002

> <Gold.PLP.part.hbond>
-2.9939

> <Gold.PLP.part.metal>
0.0000

> <Gold.PLP.part.buried>
-2.6025

> <Gold.PLP.part.nonpolar>
-24.0423

> <Gold.PLP.part.repulsive>
0.1973

> <Gold.PLP.ligand.clash>
0.0000

> <Gold.PLP.ligand.torsion>
0.3495

> <Gold.PLP.Chemscore.Hbond>
2.8240

> <Gold.PLP.Chemscore.CHOScore>
0.0000

> <Gold.PLP.Chemscore.Metal>
0.0000

> <Gold.Chemscore.Hbonds>
donor molecule, donor type, donor heavy atom, donor atom, acceptor molecule, acceptor atom, score
      L1  H     8    24       P1  7948  0.79
      L1  H    11    25       P1  7948  1.00
      P1  H 10752 10765       L1    17  0.83

> <Gold.PLP.Chemscore.Internal.Correction>
0.0043

> <Gold.Rescore>
     Score         DG    S(hbond)    S(metal)    S(lipo)     H(rot)  DE(clash)    DE(int)     intcor
     15.82     -17.58       2.41        0.00      61.56       1.23       0.05       1.71       ----

> <Gold.Chemscore.Fitness>
15.8241

> <Gold.Chemscore.DG>
-17.5754

> <Gold.Chemscore.ZeroCoef>
-5.4800

> <Gold.Chemscore.Hbond>
2.4107

> <Gold.Chemscore.Metal>
0.0000

> <Gold.Chemscore.Lipo>
61.5554

> <Gold.Chemscore.Internal_Hbond>
0.0000

> <Gold.Chemscore.DEClash>
0.0452

> <Gold.Chemscore.DEInternal>
1.7062

> <Gold.Chemscore.Rot>
1.2337

> <Gold.Chemscore.Internal.Correction>
   9.000000E+99

> <Gold.Chemscore.Hbonds>
donor molecule, donor type, donor heavy atom, donor atom, acceptor molecule, acceptor atom, score
      L1  H     8    24       P1  7948  0.30
      L1  H    11    25       P1  7948  0.48
      P1  H 10752 10765       L1    17  0.36

> <Gold.Chemscore.Hbond.Weighted>
-8.0516

> <Gold.Chemscore.Metal.Weighted>
-0.0000

> <Gold.Chemscore.Lipo.Weighted>
-7.2020

> <Gold.Chemscore.Internal_Hbond.Weighted>
0.0000

> <Gold.Chemscore.DEClash.Weighted>
0.0452

> <Gold.Chemscore.DEInternal.Weighted>
1.7062

> <Gold.Chemscore.Rot.Weighted>
3.1582

> <Gold.Chemscore.Internal.Correction.Weighted>
   9.000000E+99

> <Gold.Protein.RotatedTorsions>
[ 6907 6896 6895 6894 ] final -141.07 input  -60.11 | X-H torsion
[ 7974 7965 7964 7962 ] final  111.89 input  175.53 | X-H torsion
[ 8008 7997 7996 7995 ] final  172.69 input   59.86 | X-H torsion
[ 10167 10162 10161 10158 ] final  -61.67 input  -65.29 | X-H torsion
[ 10718 10713 10712 10709 ] final   61.40 input   66.30 | X-H torsion
[ 10763 10752 10751 10750 ] final -146.95 input  -60.55 | X-H torsion
[ 11005 11000 10999 10996 ] final -125.77 input  -57.11 | X-H torsion

> <Gold.Protein.ActiveResidues>
 VAL166  LYS551  ARG553  GLY616  TRP617  ASP618  TYR619  PRO620  LYS621  CYS622 
 ASP623  PHE694  ASN695  SER759  ASP760  ASP761  ALA762  ILE779  LEU786  VAL792 
 PHE793  MET794  SER795  GLU796  ALA797  LYS798  CYS799  TRP800  GLU811  SER814 

> <Gold.Protein.RotatedAtoms>
  151.0689  133.5482  159.2628 H   0  0  0  0  0  0  0  0  0  0  0  0  # atno 6907 bound_to 6896
  151.2429  135.0594  159.9042 H   0  0  0  0  0  0  0  0  0  0  0  0  # atno 6908 bound_to 6896
  152.5408  134.0461  159.8143 H   0  0  0  0  0  0  0  0  0  0  0  0  # atno 6909 bound_to 6896
  145.2365  139.2797  143.4140 H   0  0  0  0  0  0  0  0  0  0  0  0  # atno 7974 bound_to 7965
  156.1150  140.1479  156.9286 H   0  0  0  0  0  0  0  0  0  0  0  0  # atno 8008 bound_to 7997
  154.4794  140.0884  156.7383 H   0  0  0  0  0  0  0  0  0  0  0  0  # atno 8009 bound_to 7997
  155.4530  140.3435  155.4305 H   0  0  0  0  0  0  0  0  0  0  0  0  # atno 8010 bound_to 7997
  140.5990  143.2357  151.5971 H   0  0  0  0  0  0  0  0  0  0  0  0  # atno 10167 bound_to 10162
  157.5825  130.8993  149.9457 H   0  0  0  0  0  0  0  0  0  0  0  0  # atno 10718 bound_to 10713
  154.8310  135.3373  154.6742 H   0  0  0  0  0  0  0  0  0  0  0  0  # atno 10763 bound_to 10752
  153.7362  135.6949  153.4982 H   0  0  0  0  0  0  0  0  0  0  0  0  # atno 10764 bound_to 10752
  153.2276  135.4427  155.0511 H   0  0  0  0  0  0  0  0  0  0  0  0  # atno 10765 bound_to 10752
  140.9735  134.0772  157.3843 H   0  0  0  0  0  0  0  0  0  0  0  0  # atno 11005 bound_to 11000
  146.3339  140.2716  142.8606 LP  0  0  0  0  0  0  0  0  0  0  0  0  # atno 17320 bound_to 7965
  144.9628  140.8292  143.5503 LP  0  0  0  0  0  0  0  0  0  0  0  0  # atno 17321 bound_to 7965
  139.5278  144.3007  152.1076 LP  0  0  0  0  0  0  0  0  0  0  0  0  # atno 17342 bound_to 10162
  140.2184  144.4491  150.6353 LP  0  0  0  0  0  0  0  0  0  0  0  0  # atno 17343 bound_to 10162
  156.0872  130.3667  150.0465 LP  0  0  0  0  0  0  0  0  0  0  0  0  # atno 17370 bound_to 10713
  156.8601  130.9489  151.3618 LP  0  0  0  0  0  0  0  0  0  0  0  0  # atno 17371 bound_to 10713
  139.8921  135.0123  156.6830 LP  0  0  0  0  0  0  0  0  0  0  0  0  # atno 17394 bound_to 11000
  140.7293  133.9073  155.8200 LP  0  0  0  0  0  0  0  0  0  0  0  0  # atno 17395 bound_to 11000

$$$$
