AV-unprocessed.smi:264|AV-procd|sdf|2012|dock5
  -GOLD-   2262021213D 1   1.00000     0.00000
 Structure written by MMmdl.
 52 56  0  0  0  0  0  0  0  0  1 V2000
  145.9218  131.9041  151.7510 C   0  0  0  0  0  0  0  0  0  0  0  0
  145.9947  133.4316  151.9089 C   0  0  1  0  0  0  0  0  0  0  0  0
  146.0084  134.0710  150.6327 O   0  0  0  0  0  0  0  0  0  0  0  0
  144.9527  135.0182  150.5469 C   0  0  0  0  0  0  0  0  0  0  0  0
  144.6787  135.4131  151.9919 C   0  0  0  0  0  0  0  0  0  0  0  0
  144.8694  134.0980  152.7339 C   0  0  1  0  0  0  0  0  0  0  0  0
  143.6648  133.3531  152.6403 O   0  0  0  0  0  0  0  0  0  0  0  0
  145.2279  134.2637  154.2299 C   0  0  0  0  0  0  0  0  0  0  0  0
  146.3871  135.1138  154.4548 N   0  0  0  0  0  0  0  0  0  0  0  0
  147.6707  134.6993  154.7305 C   0  0  0  0  0  0  0  0  0  0  0  0
  148.5396  135.6574  154.9030 N   0  0  0  0  0  0  0  0  0  0  0  0
  147.8038  136.8220  154.7172 C   0  0  0  0  0  0  0  0  0  0  0  0
  148.1075  138.2128  154.7581 C   0  0  0  0  0  0  0  0  0  0  0  0
  149.3229  138.7363  155.0231 N   0  0  0  0  0  0  0  0  0  0  0  0
  150.3435  138.3318  154.0694 C   0  0  0  0  0  0  0  0  0  0  0  0
  151.7257  138.7616  154.5818 C   0  0  0  0  0  0  0  0  0  0  0  0
  151.7373  140.1635  154.8525 O   0  0  0  0  0  0  0  0  0  0  0  0
  150.7516  140.5966  155.7967 C   0  0  2  0  0  0  0  0  0  0  0  0
  150.8527  142.1153  155.9076 C   0  0  0  0  0  0  0  0  0  0  0  0
  150.5722  142.3795  157.3790 C   0  0  0  0  0  0  0  0  0  0  0  0
  151.2626  141.3182  158.0110 O   0  0  0  0  0  0  0  0  0  0  0  0
  151.0573  140.1385  157.2427 C   0  0  0  0  0  0  0  0  0  0  0  0
  149.3492  140.1655  155.3057 C   0  0  0  0  0  0  0  0  0  0  0  0
  147.0984  139.0912  154.5412 N   0  0  0  0  0  0  0  0  0  0  0  0
  145.8663  138.6430  154.2824 C   0  0  0  0  0  0  0  0  0  0  0  0
  145.4358  137.3821  154.2035 N   0  0  0  0  0  0  0  0  0  0  0  0
  146.4470  136.4964  154.4347 C   0  0  0  0  0  0  0  0  0  0  0  0
  145.8992  131.4096  152.7224 H   0  0  0  0  0  0  0  0  0  0  0  0
  146.7916  131.5318  151.2095 H   0  0  0  0  0  0  0  0  0  0  0  0
  145.0358  131.5983  151.1938 H   0  0  0  0  0  0  0  0  0  0  0  0
  146.9547  133.6783  152.3643 H   0  0  0  0  0  0  0  0  0  0  0  0
  145.2265  135.8685  149.9222 H   0  0  0  0  0  0  0  0  0  0  0  0
  144.0776  134.5385  150.1063 H   0  0  0  0  0  0  0  0  0  0  0  0
  145.4299  136.1371  152.3097 H   0  0  0  0  0  0  0  0  0  0  0  0
  143.6960  135.8643  152.1364 H   0  0  0  0  0  0  0  0  0  0  0  0
  143.5615  132.8511  153.4341 H   0  0  0  0  0  0  0  0  0  0  0  0
  144.3821  134.6844  154.7754 H   0  0  0  0  0  0  0  0  0  0  0  0
  145.4276  133.2912  154.6817 H   0  0  0  0  0  0  0  0  0  0  0  0
  147.9415  133.6562  154.8085 H   0  0  0  0  0  0  0  0  0  0  0  0
  150.3180  137.2509  153.9244 H   0  0  0  0  0  0  0  0  0  0  0  0
  150.1420  138.7935  153.1017 H   0  0  0  0  0  0  0  0  0  0  0  0
  151.9954  138.1942  155.4726 H   0  0  0  0  0  0  0  0  0  0  0  0
  152.4860  138.5428  153.8321 H   0  0  0  0  0  0  0  0  0  0  0  0
  151.8684  142.4418  155.6786 H   0  0  0  0  0  0  0  0  0  0  0  0
  150.1763  142.6521  155.2415 H   0  0  0  0  0  0  0  0  0  0  0  0
  150.9357  143.3521  157.7113 H   0  0  0  0  0  0  0  0  0  0  0  0
  149.5052  142.3120  157.5966 H   0  0  0  0  0  0  0  0  0  0  0  0
  150.2232  139.5781  157.6669 H   0  0  0  0  0  0  0  0  0  0  0  0
  151.9460  139.5124  157.3146 H   0  0  0  0  0  0  0  0  0  0  0  0
  149.1047  140.7158  154.3974 H   0  0  0  0  0  0  0  0  0  0  0  0
  148.5875  140.4152  156.0460 H   0  0  0  0  0  0  0  0  0  0  0  0
  145.1176  139.4038  154.1170 H   0  0  0  0  0  0  0  0  0  0  0  0
  1  2  1  0  0  0  0
  1 28  1  0  0  0  0
  1 29  1  0  0  0  0
  1 30  1  0  0  0  0
  2  6  1  0  0  0  0
  2  3  1  0  0  0  0
  2 31  1  0  0  0  0
  3  4  1  0  0  0  0
  4  5  1  0  0  0  0
  4 32  1  0  0  0  0
  4 33  1  0  0  0  0
  5  6  1  0  0  0  0
  5 34  1  0  0  0  0
  5 35  1  0  0  0  0
  6  7  1  0  0  0  0
  6  8  1  0  0  0  0
  7 36  1  0  0  0  0
  8  9  1  0  0  0  0
  8 37  1  0  0  0  0
  8 38  1  0  0  0  0
  9 27  1  0  0  0  0
  9 10  1  0  0  0  0
 10 11  2  0  0  0  0
 10 39  1  0  0  0  0
 11 12  1  0  0  0  0
 12 27  2  0  0  0  0
 12 13  1  0  0  0  0
 13 14  1  0  0  0  0
 13 24  2  0  0  0  0
 14 23  1  0  0  0  0
 14 15  1  0  0  0  0
 15 16  1  0  0  0  0
 15 40  1  0  0  0  0
 15 41  1  0  0  0  0
 16 17  1  0  0  0  0
 16 42  1  0  0  0  0
 16 43  1  0  0  0  0
 17 18  1  0  0  0  0
 18 22  1  0  0  0  0
 18 19  1  0  0  0  0
 18 23  1  0  0  0  0
 19 20  1  0  0  0  0
 19 44  1  0  0  0  0
 19 45  1  0  0  0  0
 20 21  1  0  0  0  0
 20 46  1  0  0  0  0
 20 47  1  0  0  0  0
 21 22  1  0  0  0  0
 22 48  1  0  0  0  0
 22 49  1  0  0  0  0
 23 50  1  0  0  0  0
 23 51  1  0  0  0  0
 24 25  1  0  0  0  0
 25 26  2  0  0  0  0
 25 52  1  0  0  0  0
 26 27  1  0  0  0  0
M  END
> <s_m_source_file>
AV-unprocessed.smi

> <i_m_source_file_index>
264

> <i_lp_mmshare_version>
43012

> <i_f3d_flags>
0

> <s_epik_input>
W0NIMl0xW0NIMl1PW0NAQEhdKFtDSDNdKVtDQEBdMShbT0hdKVtDSDJdbihbY0hdbjIpYyhjMjMpbltjSF1uYzNOKFtDSDJdNClbQ0gyXVtDSDJdT1tDQF00NVtDSDJdW0NIMl1PW0NIMl01

> <s_epik_cmdline>
J2VwaWtfcHl0aG9uJywgJy1waCcsICc3LjAnLCAnLXRuJywgJzgnLCAnLW1hJywgJzIwMCcsICctbWV0YWxfYmluZGluZycsICctaW1hZScsICc8aW5maWxlLm1hZT4nLCAnLW9tYWUnLCAnPG91dGZpbGUubWFlPic=

> <r_lp_tautomer_probability>
1

> <r_epik_Ionization_Penalty>
0.00539389

> <r_epik_Ionization_Penalty_Charging>
0

> <r_epik_Ionization_Penalty_Neutral>
0.00539389

> <r_epik_State_Penalty>
0.00375441

> <r_epik_Charging_Adjusted_Penalty>
0.00375441

> <i_epik_Tot_Q>
0

> <i_epik_Tot_abs_Q>
0

> <r_epik_Metal_State_Penalty>
-0

> <b_epik_Metal_Only>
0

> <s_lp_Force_Field>
OPLS_2005

> <r_lp_Energy>
56.7772

> <b_lp_Chiralities_Consistent>
1

> <s_lp_Variant>
AV-unprocessed.smi:264-6

> <Gold.Version>
5.8.1

> <Gold.Id.Protein>
6NUR|6NUR_protein|mol2

> <Gold.PLP.Fitness>
39.8255

> <Gold.PLP.PLP>
-31.5147

> <Gold.PLP.part.hbond>
-2.0000

> <Gold.PLP.part.metal>
0.0000

> <Gold.PLP.part.buried>
-7.5960

> <Gold.PLP.part.nonpolar>
-24.4603

> <Gold.PLP.part.repulsive>
2.0036

> <Gold.PLP.ligand.clash>
0.0000

> <Gold.PLP.ligand.torsion>
0.4153

> <Gold.PLP.Chemscore.Hbond>
1.9913

> <Gold.PLP.Chemscore.CHOScore>
1.0000

> <Gold.PLP.Chemscore.Metal>
0.0000

> <Gold.Chemscore.Hbonds>
donor molecule, donor type, donor heavy atom, donor atom, acceptor molecule, acceptor atom, score
      L1  H     7    36       P1 10957  1.00
      P1  H  7989  7998       L1    17  0.94
      L1  C    25    52       P1 10175  1.00

> <Gold.PLP.Chemscore.Internal.Correction>
0.1677

> <Gold.Rescore>
     Score         DG    S(hbond)    S(metal)    S(lipo)     H(rot)  DE(clash)    DE(int)     intcor
     13.98     -14.53       1.76        0.00      73.14       2.11       0.12       0.43       ----

> <Gold.Chemscore.Fitness>
13.9833

> <Gold.Chemscore.DG>
-14.5301

> <Gold.Chemscore.ZeroCoef>
-5.4800

> <Gold.Chemscore.Hbond>
1.7621

> <Gold.Chemscore.Metal>
0.0000

> <Gold.Chemscore.Lipo>
73.1361

> <Gold.Chemscore.Internal_Hbond>
0.0000

> <Gold.Chemscore.DEClash>
0.1176

> <Gold.Chemscore.DEInternal>
0.4292

> <Gold.Chemscore.Rot>
2.1063

> <Gold.Chemscore.Internal.Correction>
   9.000000E+99

> <Gold.Chemscore.Hbonds>
donor molecule, donor type, donor heavy atom, donor atom, acceptor molecule, acceptor atom, score
      L1  H     7    36       P1 10957  0.69
      P1  H  7989  7998       L1    17  0.45

> <Gold.Chemscore.Hbond.Weighted>
-5.8853

> <Gold.Chemscore.Metal.Weighted>
-0.0000

> <Gold.Chemscore.Lipo.Weighted>
-8.5569

> <Gold.Chemscore.Internal_Hbond.Weighted>
0.0000

> <Gold.Chemscore.DEClash.Weighted>
0.1176

> <Gold.Chemscore.DEInternal.Weighted>
0.4292

> <Gold.Chemscore.Rot.Weighted>
5.3921

> <Gold.Chemscore.Internal.Correction.Weighted>
   9.000000E+99

> <Gold.Protein.RotatedTorsions>
[ 6907 6896 6895 6894 ] final   80.29 input  -60.11 | X-H torsion
[ 7974 7965 7964 7962 ] final -115.27 input  175.53 | X-H torsion
[ 8008 7997 7996 7995 ] final  171.86 input   59.86 | X-H torsion
[ 10167 10162 10161 10158 ] final  115.40 input  -65.29 | X-H torsion
[ 10718 10713 10712 10709 ] final   73.37 input   66.30 | X-H torsion
[ 10763 10752 10751 10750 ] final  -22.55 input  -60.55 | X-H torsion
[ 11005 11000 10999 10996 ] final -108.61 input  -57.11 | X-H torsion

> <Gold.Protein.ActiveResidues>
 VAL166  LYS551  ARG553  GLY616  TRP617  ASP618  TYR619  PRO620  LYS621  CYS622 
 ASP623  PHE694  ASN695  SER759  ASP760  ASP761  ALA762  ILE779  LEU786  VAL792 
 PHE793  MET794  SER795  GLU796  ALA797  LYS798  CYS799  TRP800  GLU811  SER814 

> <Gold.Protein.RotatedAtoms>
  152.5229  134.3380  159.9206 H   0  0  0  0  0  0  0  0  0  0  0  0  # atno 6907 bound_to 6896
  151.3329  133.3987  159.2672 H   0  0  0  0  0  0  0  0  0  0  0  0  # atno 6908 bound_to 6896
  150.9865  134.9227  159.7932 H   0  0  0  0  0  0  0  0  0  0  0  0  # atno 6909 bound_to 6896
  145.1104  140.8608  143.3873 H   0  0  0  0  0  0  0  0  0  0  0  0  # atno 7974 bound_to 7965
  156.1231  140.1501  156.9176 H   0  0  0  0  0  0  0  0  0  0  0  0  # atno 8008 bound_to 7997
  154.4851  140.0868  156.7508 H   0  0  0  0  0  0  0  0  0  0  0  0  # atno 8009 bound_to 7997
  155.4393  140.3430  155.4290 H   0  0  0  0  0  0  0  0  0  0  0  0  # atno 8010 bound_to 7997
  139.6320  144.7116  151.2413 H   0  0  0  0  0  0  0  0  0  0  0  0  # atno 10167 bound_to 10162
  157.6544  130.9625  150.1059 H   0  0  0  0  0  0  0  0  0  0  0  0  # atno 10718 bound_to 10713
  153.6536  135.6979  153.5200 H   0  0  0  0  0  0  0  0  0  0  0  0  # atno 10763 bound_to 10752
  153.2687  135.4222  155.0965 H   0  0  0  0  0  0  0  0  0  0  0  0  # atno 10764 bound_to 10752
  154.8470  135.3573  154.6081 H   0  0  0  0  0  0  0  0  0  0  0  0  # atno 10765 bound_to 10752
  141.0892  133.9084  157.2114 H   0  0  0  0  0  0  0  0  0  0  0  0  # atno 11005 bound_to 11000
  145.0853  139.2929  143.5762 LP  0  0  0  0  0  0  0  0  0  0  0  0  # atno 17320 bound_to 7965
  146.3526  140.0373  142.8645 LP  0  0  0  0  0  0  0  0  0  0  0  0  # atno 17321 bound_to 7965
  140.7444  143.6464  150.8288 LP  0  0  0  0  0  0  0  0  0  0  0  0  # atno 17342 bound_to 10162
  140.0090  143.5663  152.2846 LP  0  0  0  0  0  0  0  0  0  0  0  0  # atno 17343 bound_to 10162
  156.1969  130.3658  149.8838 LP  0  0  0  0  0  0  0  0  0  0  0  0  # atno 17370 bound_to 10713
  156.6752  130.8836  151.3568 LP  0  0  0  0  0  0  0  0  0  0  0  0  # atno 17371 bound_to 10713
  139.9715  135.0127  156.9524 LP  0  0  0  0  0  0  0  0  0  0  0  0  # atno 17394 bound_to 11000
  140.5291  134.0831  155.7311 LP  0  0  0  0  0  0  0  0  0  0  0  0  # atno 17395 bound_to 11000

$$$$
