AV-unprocessed.smi:2110|AV-procd|sdf|8611|dock5
  -GOLD-   2272011353D 1   1.00000     0.00000
 Structure written by MMmdl.
 46 47  0  0  0  0  0  0  0  0  3 V2000
  156.6379  137.6059  157.6737 C   0  0  0  0  0  0  0  0  0  0  0  0
  155.5474  136.6278  158.1361 C   0  0  0  0  0  0  0  0  0  0  0  0
  154.6032  137.2398  159.0924 N   0  0  0  0  0  0  0  0  0  0  0  0
  155.1678  137.7919  160.3411 C   0  0  0  0  0  0  0  0  0  0  0  0
  154.1141  138.4727  161.2290 C   0  0  0  0  0  0  0  0  0  0  0  0
  152.9394  137.5303  158.6461 S   0  0  0  0  0  0  0  0  0  0  0  0
  152.7356  136.7848  157.3944 O   0  0  0  0  0  0  0  0  0  0  0  0
  152.1229  137.1418  159.8098 O   0  0  0  0  0  0  0  0  0  0  0  0
  153.0418  139.1345  158.3811 N   0  5  0  0  0  0  0  0  0  0  0  0
  152.2826  140.0922  159.1690 C   0  0  0  0  0  0  0  0  0  0  0  0
  151.5548  141.0835  158.2738 C   0  0  0  0  0  0  0  0  0  0  0  0
  151.6298  142.4715  158.5298 C   0  0  0  0  0  0  0  0  0  0  0  0
  150.9376  143.3598  157.6867 C   0  0  0  0  0  0  0  0  0  0  0  0
  150.2148  142.8811  156.6524 N   0  3  0  0  0  0  0  0  0  0  0  0
  150.0970  141.5632  156.3556 C   0  0  0  0  0  0  0  0  0  0  0  0
  149.3069  141.1995  155.2404 N   0  0  0  0  0  0  0  0  0  0  0  0
  149.3223  139.8035  154.8088 C   0  0  0  0  0  0  0  0  0  0  0  0
  148.6667  139.6521  153.4255 C   0  0  0  0  0  0  0  0  0  0  0  0
  147.3629  140.2205  153.4440 O   0  0  0  0  0  0  0  0  0  0  0  0
  147.4041  141.6149  153.7216 C   0  0  0  0  0  0  0  0  0  0  0  0
  148.0012  141.8489  155.1191 C   0  0  0  0  0  0  0  0  0  0  0  0
  150.7804  140.6305  157.1780 C   0  0  0  0  0  0  0  0  0  0  0  0
  157.3566  137.1003  157.0289 H   0  0  0  0  0  0  0  0  0  0  0  0
  157.1882  138.0276  158.5143 H   0  0  0  0  0  0  0  0  0  0  0  0
  156.2155  138.4320  157.1019 H   0  0  0  0  0  0  0  0  0  0  0  0
  154.9895  136.2672  157.2720 H   0  0  0  0  0  0  0  0  0  0  0  0
  156.0040  135.7448  158.5837 H   0  0  0  0  0  0  0  0  0  0  0  0
  155.6547  136.9968  160.9049 H   0  0  0  0  0  0  0  0  0  0  0  0
  155.9511  138.5057  160.0852 H   0  0  0  0  0  0  0  0  0  0  0  0
  154.5579  138.7908  162.1721 H   0  0  0  0  0  0  0  0  0  0  0  0
  153.2928  137.7979  161.4641 H   0  0  0  0  0  0  0  0  0  0  0  0
  153.6949  139.3594  160.7541 H   0  0  0  0  0  0  0  0  0  0  0  0
  151.5460  139.5995  159.8045 H   0  0  0  0  0  0  0  0  0  0  0  0
  152.9232  140.6571  159.8469 H   0  0  0  0  0  0  0  0  0  0  0  0
  152.2018  142.8648  159.3598 H   0  0  0  0  0  0  0  0  0  0  0  0
  150.9388  144.4330  157.8087 H   0  0  0  0  0  0  0  0  0  0  0  0
  150.3458  139.4344  154.7435 H   0  0  0  0  0  0  0  0  0  0  0  0
  148.7964  139.1943  155.5451 H   0  0  0  0  0  0  0  0  0  0  0  0
  149.2724  140.1295  152.6534 H   0  0  0  0  0  0  0  0  0  0  0  0
  148.5903  138.5975  153.1612 H   0  0  0  0  0  0  0  0  0  0  0  0
  147.9861  142.1329  152.9575 H   0  0  0  0  0  0  0  0  0  0  0  0
  146.3916  142.0156  153.6748 H   0  0  0  0  0  0  0  0  0  0  0  0
  147.3359  141.4449  155.8833 H   0  0  0  0  0  0  0  0  0  0  0  0
  148.0694  142.9234  155.2881 H   0  0  0  0  0  0  0  0  0  0  0  0
  150.7055  139.5700  156.9866 H   0  0  0  0  0  0  0  0  0  0  0  0
  149.7263  143.5523  156.0601 H   0  0  0  0  0  0  0  0  0  0  0  0
  1  2  1  0  0  0  0
  1 23  1  0  0  0  0
  1 24  1  0  0  0  0
  1 25  1  0  0  0  0
  2  3  1  0  0  0  0
  2 26  1  0  0  0  0
  2 27  1  0  0  0  0
  3  4  1  0  0  0  0
  3  6  1  0  0  0  0
  4  5  1  0  0  0  0
  4 28  1  0  0  0  0
  4 29  1  0  0  0  0
  5 30  1  0  0  0  0
  5 31  1  0  0  0  0
  5 32  1  0  0  0  0
  6  7  2  0  0  0  0
  6  8  2  0  0  0  0
  6  9  1  0  0  0  0
  9 10  1  0  0  0  0
 10 11  1  0  0  0  0
 10 33  1  0  0  0  0
 10 34  1  0  0  0  0
 11 22  1  0  0  0  0
 11 12  2  0  0  0  0
 12 13  1  0  0  0  0
 12 35  1  0  0  0  0
 13 14  2  0  0  0  0
 13 36  1  0  0  0  0
 14 15  1  0  0  0  0
 14 46  1  0  0  0  0
 15 16  1  0  0  0  0
 15 22  2  0  0  0  0
 16 21  1  0  0  0  0
 16 17  1  0  0  0  0
 17 18  1  0  0  0  0
 17 37  1  0  0  0  0
 17 38  1  0  0  0  0
 18 19  1  0  0  0  0
 18 39  1  0  0  0  0
 18 40  1  0  0  0  0
 19 20  1  0  0  0  0
 20 21  1  0  0  0  0
 20 41  1  0  0  0  0
 20 42  1  0  0  0  0
 21 43  1  0  0  0  0
 21 44  1  0  0  0  0
 22 45  1  0  0  0  0
M  CHG  1   9  -1
M  CHG  1  14   1
M  END
> <s_m_source_file>
AV-unprocessed.smi

> <i_m_source_file_index>
2110

> <i_lp_mmshare_version>
43012

> <i_f3d_flags>
0

> <s_epik_input>
W0NIM11bQ0gyXU4oW0NIMl1bQ0gzXSlTKD1PKSg9TylbTkhdW0NIMl1jMVtjSF1bY0hdbmMoW2NIXTEpTjJbQ0gyXVtDSDJdT1tDSDJdW0NIMl0y

> <s_epik_cmdline>
J2VwaWtfcHl0aG9uJywgJy1waCcsICc3LjAnLCAnLXRuJywgJzgnLCAnLW1hJywgJzIwMCcsICctbWV0YWxfYmluZGluZycsICctaW1hZScsICc8aW5maWxlLm1hZT4nLCAnLW9tYWUnLCAnPG91dGZpbGUubWFlPic=

> <r_lp_tautomer_probability>
0.999994

> <r_epik_Ionization_Penalty>
2.03784

> <r_epik_Ionization_Penalty_Charging>
2.03784

> <r_epik_Ionization_Penalty_Neutral>
4.07977e-08

> <r_epik_State_Penalty>
3.04665

> <r_epik_Charging_Adjusted_Penalty>
5.08449

> <i_epik_Tot_Q>
0

> <i_epik_Tot_abs_Q>
2

> <r_epik_Metal_State_Penalty>
1.92951

> <b_epik_Metal_Only>
1

> <s_lp_Force_Field>
OPLS_2005

> <r_lp_Energy>
13.8127

> <b_lp_Chiralities_Consistent>
1

> <s_lp_Variant>
AV-unprocessed.smi:2110-4

> <Gold.Version>
5.8.1

> <Gold.Id.Protein>
6NUR|6NUR_protein|mol2

> <Gold.PLP.Fitness>
45.5144

> <Gold.PLP.PLP>
-27.9190

> <Gold.PLP.part.hbond>
-4.0000

> <Gold.PLP.part.metal>
0.0000

> <Gold.PLP.part.buried>
-0.5143

> <Gold.PLP.part.nonpolar>
-23.8562

> <Gold.PLP.part.repulsive>
0.3538

> <Gold.PLP.ligand.clash>
0.0000

> <Gold.PLP.ligand.torsion>
2.0621

> <Gold.PLP.Chemscore.Hbond>
6.0000

> <Gold.PLP.Chemscore.CHOScore>
0.0000

> <Gold.PLP.Chemscore.Metal>
0.0000

> <Gold.Chemscore.Hbonds>
donor molecule, donor type, donor heavy atom, donor atom, acceptor molecule, acceptor atom, score
      L1  H    14    46       P1  8028  1.82
      P1  H  6896  6907       L1     8  0.86
      P1  H  7997  8008       L1     9  0.78

> <Gold.PLP.Chemscore.Internal.Correction>
3.7197

> <Gold.Rescore>
     Score         DG    S(hbond)    S(metal)    S(lipo)     H(rot)  DE(clash)    DE(int)     intcor
     16.92     -22.03       3.63        0.00      75.33       1.72       1.58       3.53       ----

> <Gold.Chemscore.Fitness>
16.9162

> <Gold.Chemscore.DG>
-22.0275

> <Gold.Chemscore.ZeroCoef>
-5.4800

> <Gold.Chemscore.Hbond>
3.6306

> <Gold.Chemscore.Metal>
0.0000

> <Gold.Chemscore.Lipo>
75.3337

> <Gold.Chemscore.Internal_Hbond>
0.0000

> <Gold.Chemscore.DEClash>
1.5829

> <Gold.Chemscore.DEInternal>
3.5284

> <Gold.Chemscore.Rot>
1.7159

> <Gold.Chemscore.Internal.Correction>
   9.000000E+99

> <Gold.Chemscore.Hbonds>
donor molecule, donor type, donor heavy atom, donor atom, acceptor molecule, acceptor atom, score
      L1  H    14    46       P1  8028  0.87
      P1  H  6896  6907       L1     8  0.70
      P1  H  7997  8008       L1     9  0.35

> <Gold.Chemscore.Hbond.Weighted>
-12.1261

> <Gold.Chemscore.Metal.Weighted>
-0.0000

> <Gold.Chemscore.Lipo.Weighted>
-8.8140

> <Gold.Chemscore.Internal_Hbond.Weighted>
0.0000

> <Gold.Chemscore.DEClash.Weighted>
1.5829

> <Gold.Chemscore.DEInternal.Weighted>
3.5284

> <Gold.Chemscore.Rot.Weighted>
4.3926

> <Gold.Chemscore.Internal.Correction.Weighted>
   9.000000E+99

> <Gold.Protein.RotatedTorsions>
[ 6907 6896 6895 6894 ] final   26.15 input  -60.11 | X-H torsion
[ 7974 7965 7964 7962 ] final  138.95 input  175.53 | X-H torsion
[ 8008 7997 7996 7995 ] final  -74.91 input   59.86 | X-H torsion
[ 10167 10162 10161 10158 ] final  -50.07 input  -65.29 | X-H torsion
[ 10718 10713 10712 10709 ] final -136.74 input   66.30 | X-H torsion
[ 10763 10752 10751 10750 ] final  118.35 input  -60.55 | X-H torsion
[ 11005 11000 10999 10996 ] final   74.43 input  -57.11 | X-H torsion

> <Gold.Protein.ActiveResidues>
 VAL166  LYS551  ARG553  GLY616  TRP617  ASP618  TYR619  PRO620  LYS621  CYS622 
 ASP623  PHE694  ASN695  SER759  ASP760  ASP761  ALA762  ILE779  LEU786  VAL792 
 PHE793  MET794  SER795  GLU796  ALA797  LYS798  CYS799  TRP800  GLU811  SER814 

> <Gold.Protein.RotatedAtoms>
  151.9831  135.0018  160.0558 H   0  0  0  0  0  0  0  0  0  0  0  0  # atno 6907 bound_to 6896
  152.1678  133.4619  159.4902 H   0  0  0  0  0  0  0  0  0  0  0  0  # atno 6908 bound_to 6896
  150.6897  134.1909  159.4328 H   0  0  0  0  0  0  0  0  0  0  0  0  # atno 6909 bound_to 6896
  144.9325  139.5030  143.5611 H   0  0  0  0  0  0  0  0  0  0  0  0  # atno 7974 bound_to 7965
  154.5371  140.0753  156.8446 H   0  0  0  0  0  0  0  0  0  0  0  0  # atno 8008 bound_to 7997
  155.3256  140.3399  155.4222 H   0  0  0  0  0  0  0  0  0  0  0  0  # atno 8009 bound_to 7997
  156.1838  140.1661  156.8210 H   0  0  0  0  0  0  0  0  0  0  0  0  # atno 8010 bound_to 7997
  140.6655  143.2672  151.4306 H   0  0  0  0  0  0  0  0  0  0  0  0  # atno 10167 bound_to 10162
  156.2804  130.7317  151.1313 H   0  0  0  0  0  0  0  0  0  0  0  0  # atno 10718 bound_to 10713
  153.5662  135.3511  155.2819 H   0  0  0  0  0  0  0  0  0  0  0  0  # atno 10763 bound_to 10752
  154.8688  135.4148  154.2775 H   0  0  0  0  0  0  0  0  0  0  0  0  # atno 10764 bound_to 10752
  153.3532  135.7056  153.6841 H   0  0  0  0  0  0  0  0  0  0  0  0  # atno 10765 bound_to 10752
  139.9391  134.7432  156.1147 H   0  0  0  0  0  0  0  0  0  0  0  0  # atno 11005 bound_to 11000
  146.3253  139.8285  142.8913 LP  0  0  0  0  0  0  0  0  0  0  0  0  # atno 17320 bound_to 7965
  145.3120  141.0222  143.3549 LP  0  0  0  0  0  0  0  0  0  0  0  0  # atno 17321 bound_to 7965
  139.5902  144.1515  152.2079 LP  0  0  0  0  0  0  0  0  0  0  0  0  # atno 17342 bound_to 10162
  140.0867  144.5655  150.7083 LP  0  0  0  0  0  0  0  0  0  0  0  0  # atno 17343 bound_to 10162
  157.7312  131.0610  150.5687 LP  0  0  0  0  0  0  0  0  0  0  0  0  # atno 17370 bound_to 10713
  156.5792  130.4300  149.5985 LP  0  0  0  0  0  0  0  0  0  0  0  0  # atno 17371 bound_to 10713
  141.1018  133.6674  156.2772 LP  0  0  0  0  0  0  0  0  0  0  0  0  # atno 17394 bound_to 11000
  140.5998  134.5566  157.5515 LP  0  0  0  0  0  0  0  0  0  0  0  0  # atno 17395 bound_to 11000

$$$$
