AV-unprocessed.smi:1809|AV-procd|sdf|7323|dock3
  -GOLD-   22720 8583D 1   1.00000     0.00000
 Structure written by MMmdl.
 39 41  0  0  0  0  0  0  0  0  3 V2000
  135.8993  137.3640  155.7090 C   0  0  0  0  0  0  0  0  0  0  0  0
  137.3240  137.1850  155.3103 C   0  0  0  0  0  0  0  0  0  0  0  0
  138.2270  136.5993  156.1006 N   0  0  0  0  0  0  0  0  0  0  0  0
  139.4827  136.5503  155.5124 N   0  0  0  0  0  0  0  0  0  0  0  0
  139.5144  137.1070  154.2933 C   0  0  0  0  0  0  0  0  0  0  0  0
  140.6340  137.1595  153.5528 N   0  5  0  0  0  0  0  0  0  0  0  0
  141.7821  136.6252  154.0263 C   0  0  0  0  0  0  0  0  0  0  0  0
  141.9525  136.1214  155.1388 O   0  0  0  0  0  0  0  0  0  0  0  0
  142.7986  136.6804  153.1570 N   0  0  0  0  0  0  0  0  0  0  0  0
  144.1456  136.1870  153.4102 C   0  0  0  0  0  0  0  0  0  0  0  0
  144.4563  134.9793  152.5157 C   0  0  2  0  0  0  0  0  0  0  0  0
  145.1157  135.4058  151.1896 C   0  0  0  0  0  0  0  0  0  0  0  0
  145.2805  134.2650  150.2587 N   0  3  1  0  0  0  0  0  0  0  0  0
  146.4413  133.3801  150.4984 C   0  0  0  0  0  0  0  0  0  0  0  0
  146.0321  131.9871  149.9935 C   0  0  0  0  0  0  0  0  0  0  0  0
  144.6133  132.1515  149.4371 C   0  0  0  0  0  0  0  0  0  0  0  0
  144.0822  133.4125  150.1208 C   0  0  1  0  0  0  0  0  0  0  0  0
  143.4464  133.1104  151.4961 C   0  0  0  0  0  0  0  0  0  0  0  0
  143.2329  134.3179  152.2120 O   0  0  0  0  0  0  0  0  0  0  0  0
  137.9516  137.7294  153.7639 S   0  0  0  0  0  0  0  0  0  0  0  0
  135.8152  138.1694  156.4386 H   0  0  0  0  0  0  0  0  0  0  0  0
  135.5139  136.4452  156.1521 H   0  0  0  0  0  0  0  0  0  0  0  0
  135.2906  137.6135  154.8397 H   0  0  0  0  0  0  0  0  0  0  0  0
  142.6212  137.1026  152.2576 H   0  0  0  0  0  0  0  0  0  0  0  0
  144.8733  136.9815  153.2366 H   0  0  0  0  0  0  0  0  0  0  0  0
  144.2206  135.9041  154.4612 H   0  0  0  0  0  0  0  0  0  0  0  0
  145.1173  134.3019  153.0595 H   0  0  0  0  0  0  0  0  0  0  0  0
  144.4851  136.1463  150.6962 H   0  0  0  0  0  0  0  0  0  0  0  0
  146.0798  135.8846  151.3659 H   0  0  0  0  0  0  0  0  0  0  0  0
  147.3162  133.7638  149.9730 H   0  0  0  0  0  0  0  0  0  0  0  0
  146.6863  133.3336  151.5601 H   0  0  0  0  0  0  0  0  0  0  0  0
  146.7186  131.6060  149.2366 H   0  0  0  0  0  0  0  0  0  0  0  0
  146.0321  131.2781  150.8224 H   0  0  0  0  0  0  0  0  0  0  0  0
  144.6645  132.3169  148.3601 H   0  0  0  0  0  0  0  0  0  0  0  0
  143.9864  131.2749  149.6050 H   0  0  0  0  0  0  0  0  0  0  0  0
  143.3490  133.9196  149.4923 H   0  0  0  0  0  0  0  0  0  0  0  0
  142.4888  132.6070  151.3613 H   0  0  0  0  0  0  0  0  0  0  0  0
  144.0704  132.4391  152.0884 H   0  0  0  0  0  0  0  0  0  0  0  0
  145.4414  134.6609  149.3435 H   0  0  0  0  0  0  0  0  0  0  0  0
  1  2  1  0  0  0  0
  1 21  1  0  0  0  0
  1 22  1  0  0  0  0
  1 23  1  0  0  0  0
  2 20  1  0  0  0  0
  2  3  2  0  0  0  0
  3  4  1  0  0  0  0
  4  5  2  0  0  0  0
  5  6  1  0  0  0  0
  5 20  1  0  0  0  0
  6  7  1  0  0  0  0
  7  8  2  0  0  0  0
  7  9  1  0  0  0  0
  9 10  1  0  0  0  0
  9 24  1  0  0  0  0
 10 11  1  0  0  0  0
 10 25  1  0  0  0  0
 10 26  1  0  0  0  0
 11 19  1  0  0  0  0
 11 12  1  0  0  0  0
 11 27  1  0  0  0  0
 12 13  1  0  0  0  0
 12 28  1  0  0  0  0
 12 29  1  0  0  0  0
 13 17  1  0  0  0  0
 13 14  1  0  0  0  0
 13 39  1  0  0  0  0
 14 15  1  0  0  0  0
 14 30  1  0  0  0  0
 14 31  1  0  0  0  0
 15 16  1  0  0  0  0
 15 32  1  0  0  0  0
 15 33  1  0  0  0  0
 16 17  1  0  0  0  0
 16 34  1  0  0  0  0
 16 35  1  0  0  0  0
 17 18  1  0  0  0  0
 17 36  1  0  0  0  0
 18 19  1  0  0  0  0
 18 37  1  0  0  0  0
 18 38  1  0  0  0  0
M  CHG  1   6  -1
M  CHG  1  13   1
M  END
> <s_m_source_file>
AV-unprocessed.smi

> <i_m_source_file_index>
1809

> <i_lp_mmshare_version>
43012

> <i_f3d_flags>
0

> <s_epik_input>
W0NIM11jMW5uYyhzMSlbTkhdQyg9TylbTkhdW0NIMl1bQ0BIXShbQ0gyXTIpT1tDSDJdW0NAQEhdKE4yMylbQ0gyXVtDSDJdW0NIMl0z

> <s_epik_cmdline>
J2VwaWtfcHl0aG9uJywgJy1waCcsICc3LjAnLCAnLXRuJywgJzgnLCAnLW1hJywgJzIwMCcsICctbWV0YWxfYmluZGluZycsICctaW1hZScsICc8aW5maWxlLm1hZT4nLCAnLW9tYWUnLCAnPG91dGZpbGUubWFlPic=

> <r_lp_tautomer_probability>
1

> <r_epik_Ionization_Penalty>
3.2601

> <r_epik_Ionization_Penalty_Charging>
3.1406

> <r_epik_Ionization_Penalty_Neutral>
0.119497

> <r_epik_State_Penalty>
3.08894

> <r_epik_Charging_Adjusted_Penalty>
6.22954

> <i_epik_Tot_Q>
0

> <i_epik_Tot_abs_Q>
2

> <r_epik_Metal_State_Penalty>
0.510807

> <b_epik_Metal_Only>
1

> <s_lp_Force_Field>
OPLS_2005

> <r_lp_Energy>
30.6493

> <b_lp_Chiralities_Consistent>
1

> <s_lp_Variant>
AV-unprocessed.smi:1809-15

> <Gold.Version>
5.8.1

> <Gold.Id.Protein>
6NUR|6NUR_protein|mol2

> <Gold.PLP.Fitness>
39.6497

> <Gold.PLP.PLP>
-34.8089

> <Gold.PLP.part.hbond>
-3.3099

> <Gold.PLP.part.metal>
0.0000

> <Gold.PLP.part.buried>
-5.9599

> <Gold.PLP.part.nonpolar>
-25.9465

> <Gold.PLP.part.repulsive>
0.5526

> <Gold.PLP.ligand.clash>
0.0000

> <Gold.PLP.ligand.torsion>
0.4393

> <Gold.PLP.Chemscore.Hbond>
1.9000

> <Gold.PLP.Chemscore.CHOScore>
0.0000

> <Gold.PLP.Chemscore.Metal>
0.0000

> <Gold.Chemscore.Hbonds>
donor molecule, donor type, donor heavy atom, donor atom, acceptor molecule, acceptor atom, score
      L1  H    13    39       P1  7921  1.00
      P1  H 11000 11005       L1     4  0.90

> <Gold.PLP.Chemscore.Internal.Correction>
0.0195

> <Gold.Rescore>
     Score         DG    S(hbond)    S(metal)    S(lipo)     H(rot)  DE(clash)    DE(int)     intcor
     13.83     -16.10       1.50        0.00      76.79       1.32       0.11       2.16       ----

> <Gold.Chemscore.Fitness>
13.8268

> <Gold.Chemscore.DG>
-16.0969

> <Gold.Chemscore.ZeroCoef>
-5.4800

> <Gold.Chemscore.Hbond>
1.5039

> <Gold.Chemscore.Metal>
0.0000

> <Gold.Chemscore.Lipo>
76.7931

> <Gold.Chemscore.Internal_Hbond>
0.0000

> <Gold.Chemscore.DEClash>
0.1102

> <Gold.Chemscore.DEInternal>
2.1598

> <Gold.Chemscore.Rot>
1.3246

> <Gold.Chemscore.Internal.Correction>
   9.000000E+99

> <Gold.Chemscore.Hbonds>
donor molecule, donor type, donor heavy atom, donor atom, acceptor molecule, acceptor atom, score
      L1  H    13    39       P1  7921  0.98
      P1  H 11000 11005       L1     4  0.17

> <Gold.Chemscore.Hbond.Weighted>
-5.0231

> <Gold.Chemscore.Metal.Weighted>
-0.0000

> <Gold.Chemscore.Lipo.Weighted>
-8.9848

> <Gold.Chemscore.Internal_Hbond.Weighted>
0.0000

> <Gold.Chemscore.DEClash.Weighted>
0.1102

> <Gold.Chemscore.DEInternal.Weighted>
2.1598

> <Gold.Chemscore.Rot.Weighted>
3.3910

> <Gold.Chemscore.Internal.Correction.Weighted>
   9.000000E+99

> <Gold.Protein.RotatedTorsions>
[ 6907 6896 6895 6894 ] final  -22.41 input  -60.11 | X-H torsion
[ 7974 7965 7964 7962 ] final   46.13 input  175.53 | X-H torsion
[ 8008 7997 7996 7995 ] final  176.15 input   59.86 | X-H torsion
[ 10167 10162 10161 10158 ] final   88.86 input  -65.29 | X-H torsion
[ 10718 10713 10712 10709 ] final   52.13 input   66.30 | X-H torsion
[ 10763 10752 10751 10750 ] final -174.81 input  -60.55 | X-H torsion
[ 11005 11000 10999 10996 ] final   70.74 input  -57.11 | X-H torsion

> <Gold.Protein.ActiveResidues>
 VAL166  LYS551  ARG553  GLY616  TRP617  ASP618  TYR619  PRO620  LYS621  CYS622 
 ASP623  PHE694  ASN695  SER759  ASP760  ASP761  ALA762  ILE779  LEU786  VAL792 
 PHE793  MET794  SER795  GLU796  ALA797  LYS798  CYS799  TRP800  GLU811  SER814 

> <Gold.Protein.RotatedAtoms>
  151.2190  135.0511  159.8941 H   0  0  0  0  0  0  0  0  0  0  0  0  # atno 6907 bound_to 6896
  152.5417  134.0661  159.8184 H   0  0  0  0  0  0  0  0  0  0  0  0  # atno 6908 bound_to 6896
  151.0825  133.5331  159.2651 H   0  0  0  0  0  0  0  0  0  0  0  0  # atno 6909 bound_to 6896
  146.0417  139.4889  142.9774 H   0  0  0  0  0  0  0  0  0  0  0  0  # atno 7974 bound_to 7965
  156.0796  140.1391  156.9729 H   0  0  0  0  0  0  0  0  0  0  0  0  # atno 8008 bound_to 7997
  154.4577  140.0955  156.6854 H   0  0  0  0  0  0  0  0  0  0  0  0  # atno 8009 bound_to 7997
  155.5098  140.3453  155.4388 H   0  0  0  0  0  0  0  0  0  0  0  0  # atno 8010 bound_to 7997
  139.8631  144.6533  150.9036 H   0  0  0  0  0  0  0  0  0  0  0  0  # atno 10167 bound_to 10162
  157.5046  130.8460  149.8359 H   0  0  0  0  0  0  0  0  0  0  0  0  # atno 10718 bound_to 10713
  154.5918  135.2846  155.0627 H   0  0  0  0  0  0  0  0  0  0  0  0  # atno 10763 bound_to 10752
  154.1925  135.6438  153.5068 H   0  0  0  0  0  0  0  0  0  0  0  0  # atno 10764 bound_to 10752
  153.0124  135.5449  154.6607 H   0  0  0  0  0  0  0  0  0  0  0  0  # atno 10765 bound_to 10752
  139.9581  134.7108  156.0706 H   0  0  0  0  0  0  0  0  0  0  0  0  # atno 11005 bound_to 11000
  145.6873  141.0174  143.1574 LP  0  0  0  0  0  0  0  0  0  0  0  0  # atno 17320 bound_to 7965
  144.7078  139.8491  143.7424 LP  0  0  0  0  0  0  0  0  0  0  0  0  # atno 17321 bound_to 7965
  140.7772  143.3727  151.1619 LP  0  0  0  0  0  0  0  0  0  0  0  0  # atno 17342 bound_to 10162
  139.7355  143.9006  152.3033 LP  0  0  0  0  0  0  0  0  0  0  0  0  # atno 17343 bound_to 10162
  156.0250  130.3782  150.1849 LP  0  0  0  0  0  0  0  0  0  0  0  0  # atno 17370 bound_to 10713
  157.0039  130.9930  151.3384 LP  0  0  0  0  0  0  0  0  0  0  0  0  # atno 17371 bound_to 10713
  141.1255  133.6600  156.3326 LP  0  0  0  0  0  0  0  0  0  0  0  0  # atno 17394 bound_to 11000
  140.5562  134.5979  157.5421 LP  0  0  0  0  0  0  0  0  0  0  0  0  # atno 17395 bound_to 11000

$$$$
