AV-unprocessed.smi:890|AV-procd|sdf|4061|dock3
  -GOLD-   22720 1553D 1   1.00000     0.00000
 Structure written by MMmdl.
 53 56  0  0  0  0  0  0  0  0  3 V2000
  150.7754  134.1525  155.5767 O   0  0  0  0  0  0  0  0  0  0  0  0
  150.1699  134.7841  154.7124 C   0  0  0  0  0  0  0  0  0  0  0  0
  149.2747  134.2758  153.8478 N   0  0  0  0  0  0  0  0  0  0  0  0
  148.8105  132.9359  153.6828 C   0  0  0  0  0  0  0  0  0  0  0  0
  149.4701  131.7965  154.2152 C   0  0  0  0  0  0  0  0  0  0  0  0
  148.9358  130.5115  153.9951 C   0  0  0  0  0  0  0  0  0  0  0  0
  147.7525  130.3783  153.2472 C   0  0  0  0  0  0  0  0  0  0  0  0
  147.1484  131.4783  152.7532 N   0  3  0  0  0  0  0  0  0  0  0  0
  147.6194  132.7361  152.9368 C   0  0  0  0  0  0  0  0  0  0  0  0
  146.9125  133.8123  152.3718 N   0  0  0  0  0  0  0  0  0  0  0  0
  145.7052  134.2143  153.0745 C   0  0  0  0  0  0  0  0  0  0  0  0
  144.9388  135.1019  152.0903 C   0  0  0  0  0  0  0  0  0  0  0  0
  145.4794  134.7162  150.7075 C   0  0  0  0  0  0  0  0  0  0  0  0
  146.5279  133.6348  150.9818 C   0  0  0  0  0  0  0  0  0  0  0  0
  150.3310  136.1007  154.5163 N   0  0  0  0  0  0  0  0  0  0  0  0
  151.2319  136.9625  155.2766 C   0  0  2  0  0  0  0  0  0  0  0  0
  150.7191  137.1040  156.7201 C   0  0  0  0  0  0  0  0  0  0  0  0
  151.5826  138.0914  157.5283 C   0  0  0  0  0  0  0  0  0  0  0  0
  151.6790  139.4186  156.8685 N   0  3  2  0  0  0  0  0  0  0  0  0
  150.4374  140.2205  156.9791 C   0  0  0  0  0  0  0  0  0  0  0  0
  150.3011  141.2794  155.9101 C   0  0  0  0  0  0  0  0  0  0  0  0
  150.6829  141.6717  157.3199 C   0  0  0  0  0  0  0  0  0  0  0  0
  152.1892  139.3124  155.4777 C   0  0  0  0  0  0  0  0  0  0  0  0
  151.3423  138.3527  154.6206 C   0  0  0  0  0  0  0  0  0  0  0  0
  148.8640  134.9431  153.2114 H   0  0  0  0  0  0  0  0  0  0  0  0
  150.3793  131.8662  154.7891 H   0  0  0  0  0  0  0  0  0  0  0  0
  149.4308  129.6386  154.3955 H   0  0  0  0  0  0  0  0  0  0  0  0
  147.2755  129.4338  153.0294 H   0  0  0  0  0  0  0  0  0  0  0  0
  145.1040  133.3430  153.3376 H   0  0  0  0  0  0  0  0  0  0  0  0
  145.9457  134.7487  153.9942 H   0  0  0  0  0  0  0  0  0  0  0  0
  143.8615  134.9536  152.1714 H   0  0  0  0  0  0  0  0  0  0  0  0
  145.1447  136.1545  152.2886 H   0  0  0  0  0  0  0  0  0  0  0  0
  144.6955  134.3544  150.0416 H   0  0  0  0  0  0  0  0  0  0  0  0
  145.9420  135.5835  150.2346 H   0  0  0  0  0  0  0  0  0  0  0  0
  147.3885  133.7321  150.3193 H   0  0  0  0  0  0  0  0  0  0  0  0
  146.0952  132.6452  150.8292 H   0  0  0  0  0  0  0  0  0  0  0  0
  149.7904  136.5414  153.7863 H   0  0  0  0  0  0  0  0  0  0  0  0
  152.2223  136.5039  155.3099 H   0  0  0  0  0  0  0  0  0  0  0  0
  149.6814  137.4400  156.7167 H   0  0  0  0  0  0  0  0  0  0  0  0
  150.7214  136.1308  157.2123 H   0  0  0  0  0  0  0  0  0  0  0  0
  151.1867  138.2052  158.5381 H   0  0  0  0  0  0  0  0  0  0  0  0
  152.5902  137.6882  157.6384 H   0  0  0  0  0  0  0  0  0  0  0  0
  149.5542  139.7108  157.3592 H   0  0  0  0  0  0  0  0  0  0  0  0
  151.0725  141.3443  155.1449 H   0  0  0  0  0  0  0  0  0  0  0  0
  149.2953  141.5302  155.5787 H   0  0  0  0  0  0  0  0  0  0  0  0
  149.9294  142.1825  157.9161 H   0  0  0  0  0  0  0  0  0  0  0  0
  151.7082  141.9955  157.4903 H   0  0  0  0  0  0  0  0  0  0  0  0
  152.2266  140.3008  155.0182 H   0  0  0  0  0  0  0  0  0  0  0  0
  153.2184  138.9530  155.5156 H   0  0  0  0  0  0  0  0  0  0  0  0
  151.7880  138.2658  153.6290 H   0  0  0  0  0  0  0  0  0  0  0  0
  150.3475  138.7737  154.4700 H   0  0  0  0  0  0  0  0  0  0  0  0
  152.3766  139.9372  157.3831 H   0  0  0  0  0  0  0  0  0  0  0  0
  146.2921  131.3559  152.2120 H   0  0  0  0  0  0  0  0  0  0  0  0
  1  2  2  0  0  0  0
  2  3  1  0  0  0  0
  2 15  1  0  0  0  0
  3  4  1  0  0  0  0
  3 25  1  0  0  0  0
  4  9  1  0  0  0  0
  4  5  2  0  0  0  0
  5  6  1  0  0  0  0
  5 26  1  0  0  0  0
  6  7  2  0  0  0  0
  6 27  1  0  0  0  0
  7  8  1  0  0  0  0
  7 28  1  0  0  0  0
  8  9  2  0  0  0  0
  8 53  1  0  0  0  0
  9 10  1  0  0  0  0
 10 14  1  0  0  0  0
 10 11  1  0  0  0  0
 11 12  1  0  0  0  0
 11 29  1  0  0  0  0
 11 30  1  0  0  0  0
 12 13  1  0  0  0  0
 12 31  1  0  0  0  0
 12 32  1  0  0  0  0
 13 14  1  0  0  0  0
 13 33  1  0  0  0  0
 13 34  1  0  0  0  0
 14 35  1  0  0  0  0
 14 36  1  0  0  0  0
 15 16  1  0  0  0  0
 15 37  1  0  0  0  0
 16 24  1  0  0  0  0
 16 17  1  0  0  0  0
 16 38  1  0  0  0  0
 17 18  1  0  0  0  0
 17 39  1  0  0  0  0
 17 40  1  0  0  0  0
 18 19  1  0  0  0  0
 18 41  1  0  0  0  0
 18 42  1  0  0  0  0
 19 20  1  0  0  0  0
 19 23  1  0  0  0  0
 19 52  1  0  0  0  0
 20 22  1  0  0  0  0
 20 21  1  0  0  0  0
 20 43  1  0  0  0  0
 21 22  1  0  0  0  0
 21 44  1  0  0  0  0
 21 45  1  0  0  0  0
 22 46  1  0  0  0  0
 22 47  1  0  0  0  0
 23 24  1  0  0  0  0
 23 48  1  0  0  0  0
 23 49  1  0  0  0  0
 24 50  1  0  0  0  0
 24 51  1  0  0  0  0
M  CHG  1   8   1
M  CHG  1  19   1
M  END
> <s_m_source_file>
AV-unprocessed.smi

> <i_m_source_file_index>
890

> <i_lp_mmshare_version>
43012

> <i_f3d_flags>
0

> <s_epik_input>
W0NIMl0xW0NIMl1bQ0hdMU4oW0NIMl1bQ0gyXTIpW0NIMl1bQ0gyXVtDSF0yW05IXUMoPU8pW05IXWMzW2NIXVtjSF1bY0hdbmMzTjRbQ0gyXVtDSDJdW0NIMl1bQ0gyXTQ=

> <s_epik_cmdline>
J2VwaWtfcHl0aG9uJywgJy1waCcsICc3LjAnLCAnLXRuJywgJzgnLCAnLW1hJywgJzIwMCcsICctbWV0YWxfYmluZGluZycsICctaW1hZScsICc8aW5maWxlLm1hZT4nLCAnLW9tYWUnLCAnPG91dGZpbGUubWFlPic=

> <r_lp_tautomer_probability>
0.999994

> <r_epik_Ionization_Penalty>
1.36901

> <r_epik_Ionization_Penalty_Charging>
1.36899

> <r_epik_Ionization_Penalty_Neutral>
1.88098e-05

> <r_epik_State_Penalty>
1.38441

> <r_epik_Charging_Adjusted_Penalty>
2.7534

> <i_epik_Tot_Q>
2

> <i_epik_Tot_abs_Q>
2

> <r_epik_Metal_State_Penalty>
1.45718

> <b_epik_Metal_Only>
0

> <s_lp_Force_Field>
OPLS_2005

> <r_lp_Energy>
67.0325

> <b_lp_Chiralities_Consistent>
1

> <s_lp_Variant>
AV-unprocessed.smi:890-5

> <Gold.Version>
5.8.1

> <Gold.Id.Protein>
6NUR|6NUR_protein|mol2

> <Gold.PLP.Fitness>
43.3200

> <Gold.PLP.PLP>
-39.0302

> <Gold.PLP.part.hbond>
-3.3767

> <Gold.PLP.part.metal>
0.0000

> <Gold.PLP.part.buried>
-2.7503

> <Gold.PLP.part.nonpolar>
-32.9323

> <Gold.PLP.part.repulsive>
0.3913

> <Gold.PLP.ligand.clash>
0.0000

> <Gold.PLP.ligand.torsion>
1.3681

> <Gold.PLP.Chemscore.Hbond>
1.9120

> <Gold.PLP.Chemscore.CHOScore>
0.0000

> <Gold.PLP.Chemscore.Metal>
0.0000

> <Gold.Chemscore.Hbonds>
donor molecule, donor type, donor heavy atom, donor atom, acceptor molecule, acceptor atom, score
      L1  H     3    25       P1  7948  1.00
      L1  H    15    37       P1  7948  0.73

> <Gold.PLP.Chemscore.Internal.Correction>
1.2900

> <Gold.Rescore>
     Score         DG    S(hbond)    S(metal)    S(lipo)     H(rot)  DE(clash)    DE(int)     intcor
     13.91     -16.53       1.37        0.00      84.76       1.35       0.01       2.61       ----

> <Gold.Chemscore.Fitness>
13.9104

> <Gold.Chemscore.DG>
-16.5262

> <Gold.Chemscore.ZeroCoef>
-5.4800

> <Gold.Chemscore.Hbond>
1.3721

> <Gold.Chemscore.Metal>
0.0000

> <Gold.Chemscore.Lipo>
84.7576

> <Gold.Chemscore.Internal_Hbond>
0.0000

> <Gold.Chemscore.DEClash>
0.0060

> <Gold.Chemscore.DEInternal>
2.6098

> <Gold.Chemscore.Rot>
1.3489

> <Gold.Chemscore.Internal.Correction>
   9.000000E+99

> <Gold.Chemscore.Hbonds>
donor molecule, donor type, donor heavy atom, donor atom, acceptor molecule, acceptor atom, score
      L1  H     3    25       P1  7948  0.29
      L1  H    15    37       P1  7948  0.32

> <Gold.Chemscore.Hbond.Weighted>
-4.5827

> <Gold.Chemscore.Metal.Weighted>
-0.0000

> <Gold.Chemscore.Lipo.Weighted>
-9.9166

> <Gold.Chemscore.Internal_Hbond.Weighted>
0.0000

> <Gold.Chemscore.DEClash.Weighted>
0.0060

> <Gold.Chemscore.DEInternal.Weighted>
2.6098

> <Gold.Chemscore.Rot.Weighted>
3.4532

> <Gold.Chemscore.Internal.Correction.Weighted>
   9.000000E+99

> <Gold.Protein.RotatedTorsions>
[ 6907 6896 6895 6894 ] final -176.06 input  -60.11 | X-H torsion
[ 7974 7965 7964 7962 ] final -163.12 input  175.53 | X-H torsion
[ 8008 7997 7996 7995 ] final  134.11 input   59.86 | X-H torsion
[ 10167 10162 10161 10158 ] final  149.20 input  -65.29 | X-H torsion
[ 10718 10713 10712 10709 ] final  -88.50 input   66.30 | X-H torsion
[ 10763 10752 10751 10750 ] final -137.66 input  -60.55 | X-H torsion
[ 11005 11000 10999 10996 ] final  143.82 input  -57.11 | X-H torsion

> <Gold.Protein.ActiveResidues>
 VAL166  LYS551  ARG553  GLY616  TRP617  ASP618  TYR619  PRO620  LYS621  CYS622 
 ASP623  PHE694  ASN695  SER759  ASP760  ASP761  ALA762  ILE779  LEU786  VAL792 
 PHE793  MET794  SER795  GLU796  ALA797  LYS798  CYS799  TRP800  GLU811  SER814 

> <Gold.Protein.RotatedAtoms>
  151.5986  133.3359  159.3042 H   0  0  0  0  0  0  0  0  0  0  0  0  # atno 6907 bound_to 6896
  150.8220  134.7436  159.6792 H   0  0  0  0  0  0  0  0  0  0  0  0  # atno 6908 bound_to 6896
  152.4313  134.5778  159.9991 H   0  0  0  0  0  0  0  0  0  0  0  0  # atno 6909 bound_to 6896
  144.7336  140.3153  143.6180 H   0  0  0  0  0  0  0  0  0  0  0  0  # atno 7974 bound_to 7965
  156.2997  140.2504  156.3364 H   0  0  0  0  0  0  0  0  0  0  0  0  # atno 8008 bound_to 7997
  154.9096  140.0404  157.1958 H   0  0  0  0  0  0  0  0  0  0  0  0  # atno 8009 bound_to 7997
  154.8418  140.2892  155.5658 H   0  0  0  0  0  0  0  0  0  0  0  0  # atno 8010 bound_to 7997
  139.4864  144.5620  151.7214 H   0  0  0  0  0  0  0  0  0  0  0  0  # atno 10167 bound_to 10162
  155.9983  130.4838  150.5029 H   0  0  0  0  0  0  0  0  0  0  0  0  # atno 10718 bound_to 10713
  154.8656  135.3635  154.5259 H   0  0  0  0  0  0  0  0  0  0  0  0  # atno 10763 bound_to 10752
  153.5887  135.7016  153.5437 H   0  0  0  0  0  0  0  0  0  0  0  0  # atno 10764 bound_to 10752
  153.3392  135.4102  155.1520 H   0  0  0  0  0  0  0  0  0  0  0  0  # atno 10765 bound_to 10752
  140.0584  134.9218  157.1141 H   0  0  0  0  0  0  0  0  0  0  0  0  # atno 11005 bound_to 11000
  145.7623  139.1829  143.2260 LP  0  0  0  0  0  0  0  0  0  0  0  0  # atno 17320 bound_to 7965
  146.0976  140.7582  142.9565 LP  0  0  0  0  0  0  0  0  0  0  0  0  # atno 17321 bound_to 7965
  140.5191  144.0906  150.6017 LP  0  0  0  0  0  0  0  0  0  0  0  0  # atno 17342 bound_to 10162
  140.3858  143.2778  152.0117 LP  0  0  0  0  0  0  0  0  0  0  0  0  # atno 17343 bound_to 10162
  157.3011  131.0645  151.2067 LP  0  0  0  0  0  0  0  0  0  0  0  0  # atno 17370 bound_to 10713
  157.3046  130.6859  149.6182 LP  0  0  0  0  0  0  0  0  0  0  0  0  # atno 17371 bound_to 10713
  140.3808  134.2289  155.7171 LP  0  0  0  0  0  0  0  0  0  0  0  0  # atno 17394 bound_to 11000
  141.1962  133.8087  157.0681 LP  0  0  0  0  0  0  0  0  0  0  0  0  # atno 17395 bound_to 11000

$$$$
