AV-unprocessed.smi:910|AV-procd|sdf|4120|dock2
  -GOLD-   22720 2 23D 1   1.00000     0.00000
 Structure written by MMmdl.
 46 47  0  0  0  0  0  0  0  0  1 V2000
  148.7556  132.6035  152.9306 C   0  0  0  0  0  0  0  0  0  0  0  0
  149.5821  133.5794  153.7393 C   0  0  0  0  0  0  0  0  0  0  0  0
  149.3940  134.9323  153.6551 N   0  0  0  0  0  0  0  0  0  0  0  0
  150.2910  135.5491  154.5137 C   0  0  0  0  0  0  0  0  0  0  0  0
  150.4361  136.8204  154.7268 N   0  0  0  0  0  0  0  0  0  0  0  0
  151.3843  137.2567  155.6404 C   0  0  0  0  0  0  0  0  0  0  0  0
  152.3021  136.6148  156.1615 O   0  0  0  0  0  0  0  0  0  0  0  0
  151.2002  138.5582  155.9074 N   0  0  0  0  0  0  0  0  0  0  0  0
  152.0311  139.3706  156.7904 C   0  0  0  0  0  0  0  0  0  0  0  0
  151.2151  140.4772  157.4738 C   0  0  0  0  0  0  0  0  0  0  0  0
  152.0344  141.1150  158.4426 O   0  0  0  0  0  0  0  0  0  0  0  0
  151.3802  142.1253  159.1997 C   0  0  2  0  0  0  0  0  0  0  0  0
  151.0070  143.3055  158.2782 C   0  0  0  0  0  0  0  0  0  0  0  0
  150.4265  144.4823  159.0760 C   0  0  0  0  0  0  0  0  0  0  0  0
  151.3956  144.9327  160.1781 C   0  0  0  0  0  0  0  0  0  0  0  0
  151.7604  143.7625  161.1038 C   0  0  0  0  0  0  0  0  0  0  0  0
  152.3483  142.5731  160.3180 C   0  0  1  0  0  0  0  0  0  0  0  0
  152.6953  141.4134  161.2666 C   0  0  0  0  0  0  0  0  0  0  0  0
  151.0171  134.5410  155.1056 O   0  0  0  0  0  0  0  0  0  0  0  0
  150.5604  133.3563  154.6136 C   0  0  0  0  0  0  0  0  0  0  0  0
  151.1906  132.0746  155.1099 C   0  0  0  0  0  0  0  0  0  0  0  0
  148.2185  131.9248  153.5935 H   0  0  0  0  0  0  0  0  0  0  0  0
  149.3996  132.0123  152.2794 H   0  0  0  0  0  0  0  0  0  0  0  0
  148.0271  133.1270  152.3109 H   0  0  0  0  0  0  0  0  0  0  0  0
  148.7039  135.3633  153.0572 H   0  0  0  0  0  0  0  0  0  0  0  0
  150.4365  139.0296  155.4446 H   0  0  0  0  0  0  0  0  0  0  0  0
  152.4744  138.7181  157.5429 H   0  0  0  0  0  0  0  0  0  0  0  0
  152.8600  139.8033  156.2282 H   0  0  0  0  0  0  0  0  0  0  0  0
  150.8786  141.1986  156.7292 H   0  0  0  0  0  0  0  0  0  0  0  0
  150.3247  140.0539  157.9412 H   0  0  0  0  0  0  0  0  0  0  0  0
  150.4781  141.7256  159.6672 H   0  0  0  0  0  0  0  0  0  0  0  0
  151.8924  143.6380  157.7345 H   0  0  0  0  0  0  0  0  0  0  0  0
  150.2840  142.9907  157.5261 H   0  0  0  0  0  0  0  0  0  0  0  0
  150.2109  145.3154  158.4064 H   0  0  0  0  0  0  0  0  0  0  0  0
  149.4755  144.1883  159.5218 H   0  0  0  0  0  0  0  0  0  0  0  0
  152.3018  145.3392  159.7269 H   0  0  0  0  0  0  0  0  0  0  0  0
  150.9490  145.7407  160.7582 H   0  0  0  0  0  0  0  0  0  0  0  0
  152.4744  144.1025  161.8547 H   0  0  0  0  0  0  0  0  0  0  0  0
  150.8713  143.4412  161.6483 H   0  0  0  0  0  0  0  0  0  0  0  0
  153.2755  142.9080  159.8500 H   0  0  0  0  0  0  0  0  0  0  0  0
  151.8037  141.0229  161.7584 H   0  0  0  0  0  0  0  0  0  0  0  0
  153.3892  141.7365  162.0431 H   0  0  0  0  0  0  0  0  0  0  0  0
  153.1668  140.5882  160.7319 H   0  0  0  0  0  0  0  0  0  0  0  0
  150.9561  131.2443  154.4434 H   0  0  0  0  0  0  0  0  0  0  0  0
  150.8203  131.8349  156.1066 H   0  0  0  0  0  0  0  0  0  0  0  0
  152.2744  132.1811  155.1597 H   0  0  0  0  0  0  0  0  0  0  0  0
  1 22  1  0  0  0  0
  1 23  1  0  0  0  0
  1 24  1  0  0  0  0
  1  2  1  0  0  0  0
  2  3  1  0  0  0  0
  2 20  2  0  0  0  0
  3 25  1  0  0  0  0
  3  4  1  0  0  0  0
  4 19  1  0  0  0  0
  4  5  2  0  0  0  0
  5  6  1  0  0  0  0
  6  8  1  0  0  0  0
  6  7  2  0  0  0  0
  8  9  1  0  0  0  0
  8 26  1  0  0  0  0
  9 10  1  0  0  0  0
  9 27  1  0  0  0  0
  9 28  1  0  0  0  0
 10 11  1  0  0  0  0
 10 29  1  0  0  0  0
 10 30  1  0  0  0  0
 11 12  1  0  0  0  0
 12 17  1  0  0  0  0
 12 13  1  0  0  0  0
 12 31  1  0  0  0  0
 13 14  1  0  0  0  0
 13 32  1  0  0  0  0
 13 33  1  0  0  0  0
 14 15  1  0  0  0  0
 14 34  1  0  0  0  0
 14 35  1  0  0  0  0
 15 16  1  0  0  0  0
 15 36  1  0  0  0  0
 15 37  1  0  0  0  0
 16 17  1  0  0  0  0
 16 38  1  0  0  0  0
 16 39  1  0  0  0  0
 17 18  1  0  0  0  0
 17 40  1  0  0  0  0
 18 41  1  0  0  0  0
 18 42  1  0  0  0  0
 18 43  1  0  0  0  0
 19 20  1  0  0  0  0
 20 21  1  0  0  0  0
 21 44  1  0  0  0  0
 21 45  1  0  0  0  0
 21 46  1  0  0  0  0
M  END
> <s_m_source_file>
AV-unprocessed.smi

> <i_m_source_file_index>
910

> <i_lp_mmshare_version>
43012

> <i_f3d_flags>
0

> <s_epik_input>
W0NIM11jMW5jKG9jMVtDSDNdKVtOSF1DKD1PKVtOSF1bQ0gyXVtDSDJdT1tDQEBIXTJbQ0gyXVtDSDJdW0NIMl1bQ0gyXVtDQEhdMltDSDNd

> <s_epik_cmdline>
J2VwaWtfcHl0aG9uJywgJy1waCcsICc3LjAnLCAnLXRuJywgJzgnLCAnLW1hJywgJzIwMCcsICctbWV0YWxfYmluZGluZycsICctaW1hZScsICc8aW5maWxlLm1hZT4nLCAnLW9tYWUnLCAnPG91dGZpbGUubWFlPic=

> <r_lp_tautomer_probability>
0.107061

> <r_epik_Ionization_Penalty>
0.727192

> <r_epik_Ionization_Penalty_Charging>
0.726719

> <r_epik_Ionization_Penalty_Neutral>
0.000473387

> <r_epik_State_Penalty>
2.53712

> <r_epik_Charging_Adjusted_Penalty>
3.26383

> <i_epik_Tot_Q>
0

> <i_epik_Tot_abs_Q>
0

> <r_epik_Metal_State_Penalty>
3.71015

> <b_epik_Metal_Only>
0

> <s_lp_Force_Field>
OPLS_2005

> <r_lp_Energy>
30.8071

> <b_lp_Chiralities_Consistent>
1

> <s_lp_Variant>
AV-unprocessed.smi:910-5

> <Gold.Version>
5.8.1

> <Gold.Id.Protein>
6NUR|6NUR_protein|mol2

> <Gold.PLP.Fitness>
46.7186

> <Gold.PLP.PLP>
-42.2246

> <Gold.PLP.part.hbond>
-2.0685

> <Gold.PLP.part.metal>
0.0000

> <Gold.PLP.part.buried>
-3.9179

> <Gold.PLP.part.nonpolar>
-36.7482

> <Gold.PLP.part.repulsive>
0.3152

> <Gold.PLP.ligand.clash>
0.0000

> <Gold.PLP.ligand.torsion>
0.2634

> <Gold.PLP.Chemscore.Hbond>
1.6560

> <Gold.PLP.Chemscore.CHOScore>
0.0000

> <Gold.PLP.Chemscore.Metal>
0.0000

> <Gold.Chemscore.Hbonds>
donor molecule, donor type, donor heavy atom, donor atom, acceptor molecule, acceptor atom, score
      L1  H     3    25       P1  7948  0.43
      P1  H 10752 10765       L1     7  1.00

> <Gold.PLP.Chemscore.Internal.Correction>
0.0527

> <Gold.Rescore>
     Score         DG    S(hbond)    S(metal)    S(lipo)     H(rot)  DE(clash)    DE(int)     intcor
     15.14     -17.22       0.73        0.00     115.94       1.66       0.17       1.91       ----

> <Gold.Chemscore.Fitness>
15.1383

> <Gold.Chemscore.DG>
-17.2243

> <Gold.Chemscore.ZeroCoef>
-5.4800

> <Gold.Chemscore.Hbond>
0.7254

> <Gold.Chemscore.Metal>
0.0000

> <Gold.Chemscore.Lipo>
115.9415

> <Gold.Chemscore.Internal_Hbond>
0.0000

> <Gold.Chemscore.DEClash>
0.1716

> <Gold.Chemscore.DEInternal>
1.9144

> <Gold.Chemscore.Rot>
1.6576

> <Gold.Chemscore.Internal.Correction>
   9.000000E+99

> <Gold.Chemscore.Hbonds>
donor molecule, donor type, donor heavy atom, donor atom, acceptor molecule, acceptor atom, score
      L1  H     3    25       P1  7948  0.34
      P1  H 10752 10765       L1     7  0.81

> <Gold.Chemscore.Hbond.Weighted>
-2.4227

> <Gold.Chemscore.Metal.Weighted>
-0.0000

> <Gold.Chemscore.Lipo.Weighted>
-13.5652

> <Gold.Chemscore.Internal_Hbond.Weighted>
0.0000

> <Gold.Chemscore.DEClash.Weighted>
0.1716

> <Gold.Chemscore.DEInternal.Weighted>
1.9144

> <Gold.Chemscore.Rot.Weighted>
4.2436

> <Gold.Chemscore.Internal.Correction.Weighted>
   9.000000E+99

> <Gold.Protein.RotatedTorsions>
[ 6907 6896 6895 6894 ] final   39.11 input  -60.11 | X-H torsion
[ 7974 7965 7964 7962 ] final  142.86 input  175.53 | X-H torsion
[ 8008 7997 7996 7995 ] final   70.44 input   59.86 | X-H torsion
[ 10167 10162 10161 10158 ] final  114.38 input  -65.29 | X-H torsion
[ 10718 10713 10712 10709 ] final   38.64 input   66.30 | X-H torsion
[ 10763 10752 10751 10750 ] final -154.98 input  -60.55 | X-H torsion
[ 11005 11000 10999 10996 ] final  -76.97 input  -57.11 | X-H torsion

> <Gold.Protein.ActiveResidues>
 VAL166  LYS551  ARG553  GLY616  TRP617  ASP618  TYR619  PRO620  LYS621  CYS622 
 ASP623  PHE694  ASN695  SER759  ASP760  ASP761  ALA762  ILE779  LEU786  VAL792 
 PHE793  MET794  SER795  GLU796  ALA797  LYS798  CYS799  TRP800  GLU811  SER814 

> <Gold.Protein.RotatedAtoms>
  152.1652  134.8879  160.0538 H   0  0  0  0  0  0  0  0  0  0  0  0  # atno 6907 bound_to 6896
  151.9860  133.3769  159.4134 H   0  0  0  0  0  0  0  0  0  0  0  0  # atno 6908 bound_to 6896
  150.6893  134.3910  159.5120 H   0  0  0  0  0  0  0  0  0  0  0  0  # atno 6909 bound_to 6896
  144.8971  139.5476  143.5771 H   0  0  0  0  0  0  0  0  0  0  0  0  # atno 7974 bound_to 7965
  155.7388  140.3490  155.5094 H   0  0  0  0  0  0  0  0  0  0  0  0  # atno 8008 bound_to 7997
  155.9114  140.1051  157.1298 H   0  0  0  0  0  0  0  0  0  0  0  0  # atno 8009 bound_to 7997
  154.4056  140.1267  156.4548 H   0  0  0  0  0  0  0  0  0  0  0  0  # atno 8010 bound_to 7997
  139.6393  144.7122  151.2270 H   0  0  0  0  0  0  0  0  0  0  0  0  # atno 10167 bound_to 10162
  157.3612  130.7650  149.7049 H   0  0  0  0  0  0  0  0  0  0  0  0  # atno 10718 bound_to 10713
  154.7820  135.3178  154.7969 H   0  0  0  0  0  0  0  0  0  0  0  0  # atno 10763 bound_to 10752
  153.8679  135.6847  153.4781 H   0  0  0  0  0  0  0  0  0  0  0  0  # atno 10764 bound_to 10752
  153.1459  135.4719  154.9503 H   0  0  0  0  0  0  0  0  0  0  0  0  # atno 10765 bound_to 10752
  141.1657  133.7004  156.7749 H   0  0  0  0  0  0  0  0  0  0  0  0  # atno 11005 bound_to 11000
  146.3087  139.7670  142.9036 LP  0  0  0  0  0  0  0  0  0  0  0  0  # atno 17320 bound_to 7965
  145.3681  141.0338  143.3246 LP  0  0  0  0  0  0  0  0  0  0  0  0  # atno 17321 bound_to 7965
  140.7482  143.6341  150.8396 LP  0  0  0  0  0  0  0  0  0  0  0  0  # atno 17342 bound_to 10162
  139.9976  143.5779  152.2887 LP  0  0  0  0  0  0  0  0  0  0  0  0  # atno 17343 bound_to 10162
  155.9738  130.4113  150.3975 LP  0  0  0  0  0  0  0  0  0  0  0  0  # atno 17370 bound_to 10713
  157.2052  131.0447  151.2629 LP  0  0  0  0  0  0  0  0  0  0  0  0  # atno 17371 bound_to 10713
  140.2437  134.8594  157.3599 LP  0  0  0  0  0  0  0  0  0  0  0  0  # atno 17394 bound_to 11000
  140.1771  134.4536  155.7795 LP  0  0  0  0  0  0  0  0  0  0  0  0  # atno 17395 bound_to 11000

$$$$
