AV-unprocessed.smi:1334|AV-procd|sdf|5493|dock3
  -GOLD-   22720 5 73D 1   1.00000     0.00000
 Structure written by MMmdl.
 38 39  0  0  0  0  0  0  0  0  1 V2000
  150.1727  137.2534  159.1620 C   0  0  0  0  0  0  0  0  0  0  0  0
  150.3198  138.6698  158.5688 C   0  0  1  0  0  0  0  0  0  0  0  0
  151.7531  139.2106  158.6767 C   0  0  0  0  0  0  0  0  0  0  0  0
  152.4267  139.4044  157.6644 O   0  0  0  0  0  0  0  0  0  0  0  0
  152.1977  139.4612  159.9188 N   0  0  0  0  0  0  0  0  0  0  0  0
  153.4890  140.0509  160.2611 C   0  0  0  0  0  0  0  0  0  0  0  0
  153.8288  141.2379  159.3413 C   0  0  0  0  0  0  0  0  0  0  0  0
  153.0383  142.5018  159.6477 C   0  0  0  0  0  0  0  0  0  0  0  0
  152.2100  143.0615  158.7441 C   0  0  0  0  0  0  0  0  0  0  0  0
  151.4129  144.3292  158.9918 C   0  0  0  0  0  0  0  0  0  0  0  0
  151.9349  145.1133  160.2060 C   0  0  0  0  0  0  0  0  0  0  0  0
  152.1981  144.1751  161.3900 C   0  0  0  0  0  0  0  0  0  0  0  0
  153.2417  143.1003  161.0356 C   0  0  0  0  0  0  0  0  0  0  0  0
  149.8622  138.7414  157.1864 N   0  0  0  0  0  0  0  0  0  0  0  0
  149.8693  139.7688  156.3346 C   0  0  0  0  0  0  0  0  0  0  0  0
  149.4091  139.4718  155.1274 N   0  0  0  0  0  0  0  0  0  0  0  0
  149.1292  138.1473  155.3101 C   0  0  0  0  0  0  0  0  0  0  0  0
  149.3952  137.6559  156.5200 N   0  0  0  0  0  0  0  0  0  0  0  0
  150.4691  137.2355  160.2113 H   0  0  0  0  0  0  0  0  0  0  0  0
  150.7841  136.5200  158.6343 H   0  0  0  0  0  0  0  0  0  0  0  0
  149.1369  136.9170  159.1099 H   0  0  0  0  0  0  0  0  0  0  0  0
  149.6760  139.3301  159.1524 H   0  0  0  0  0  0  0  0  0  0  0  0
  151.5755  139.2630  160.6887 H   0  0  0  0  0  0  0  0  0  0  0  0
  153.4367  140.3968  161.2935 H   0  0  0  0  0  0  0  0  0  0  0  0
  154.2898  139.3104  160.2340 H   0  0  0  0  0  0  0  0  0  0  0  0
  154.8957  141.4536  159.4148 H   0  0  0  0  0  0  0  0  0  0  0  0
  153.6494  140.9606  158.3021 H   0  0  0  0  0  0  0  0  0  0  0  0
  152.0778  142.6008  157.7761 H   0  0  0  0  0  0  0  0  0  0  0  0
  151.4436  144.9567  158.1020 H   0  0  0  0  0  0  0  0  0  0  0  0
  150.3704  144.0480  159.1430 H   0  0  0  0  0  0  0  0  0  0  0  0
  152.8614  145.6244  159.9403 H   0  0  0  0  0  0  0  0  0  0  0  0
  151.2212  145.8891  160.4849 H   0  0  0  0  0  0  0  0  0  0  0  0
  152.5308  144.7435  162.2589 H   0  0  0  0  0  0  0  0  0  0  0  0
  151.2630  143.6924  161.6770 H   0  0  0  0  0  0  0  0  0  0  0  0
  153.2146  142.3068  161.7827 H   0  0  0  0  0  0  0  0  0  0  0  0
  154.2395  143.5356  161.0770 H   0  0  0  0  0  0  0  0  0  0  0  0
  150.2195  140.7547  156.6027 H   0  0  0  0  0  0  0  0  0  0  0  0
  148.7290  137.5240  154.5244 H   0  0  0  0  0  0  0  0  0  0  0  0
  1  2  1  0  0  0  0
  1 19  1  0  0  0  0
  1 20  1  0  0  0  0
  1 21  1  0  0  0  0
  2  3  1  0  0  0  0
  2 14  1  0  0  0  0
  2 22  1  0  0  0  0
  3  4  2  0  0  0  0
  3  5  1  0  0  0  0
  5  6  1  0  0  0  0
  5 23  1  0  0  0  0
  6  7  1  0  0  0  0
  6 24  1  0  0  0  0
  6 25  1  0  0  0  0
  7  8  1  0  0  0  0
  7 26  1  0  0  0  0
  7 27  1  0  0  0  0
  8 13  1  0  0  0  0
  8  9  2  0  0  0  0
  9 10  1  0  0  0  0
  9 28  1  0  0  0  0
 10 11  1  0  0  0  0
 10 29  1  0  0  0  0
 10 30  1  0  0  0  0
 11 12  1  0  0  0  0
 11 31  1  0  0  0  0
 11 32  1  0  0  0  0
 12 13  1  0  0  0  0
 12 33  1  0  0  0  0
 12 34  1  0  0  0  0
 13 35  1  0  0  0  0
 13 36  1  0  0  0  0
 14 18  1  0  0  0  0
 14 15  1  0  0  0  0
 15 16  2  0  0  0  0
 15 37  1  0  0  0  0
 16 17  1  0  0  0  0
 17 18  2  0  0  0  0
 17 38  1  0  0  0  0
M  END
> <s_m_source_file>
AV-unprocessed.smi

> <i_m_source_file_index>
1334

> <i_lp_mmshare_version>
43012

> <i_f3d_flags>
0

> <s_epik_input>
bjFbY0hdbltjSF1uMVtDQEhdKFtDSDNdKUMoPU8pW05IXVtDSDJdW0NIMl1DMj1bQ0hdW0NIMl1bQ0gyXVtDSDJdW0NIMl0y

> <s_epik_cmdline>
J2VwaWtfcHl0aG9uJywgJy1waCcsICc3LjAnLCAnLXRuJywgJzgnLCAnLW1hJywgJzIwMCcsICctbWV0YWxfYmluZGluZycsICctaW1hZScsICc8aW5maWxlLm1hZT4nLCAnLW9tYWUnLCAnPG91dGZpbGUubWFlPic=

> <r_lp_tautomer_probability>
1

> <r_epik_Ionization_Penalty>
1.26383e-05

> <r_epik_Ionization_Penalty_Charging>
0

> <r_epik_Ionization_Penalty_Neutral>
1.26383e-05

> <r_epik_State_Penalty>
-0

> <r_epik_Charging_Adjusted_Penalty>
0

> <i_epik_Tot_Q>
0

> <i_epik_Tot_abs_Q>
0

> <r_epik_Metal_State_Penalty>
-0

> <b_epik_Metal_Only>
0

> <s_lp_Force_Field>
OPLS_2005

> <r_lp_Energy>
11.5149

> <b_lp_Chiralities_Consistent>
1

> <s_lp_Variant>
AV-unprocessed.smi:1334-2

> <Gold.Version>
5.8.1

> <Gold.Id.Protein>
6NUR|6NUR_protein|mol2

> <Gold.PLP.Fitness>
47.9979

> <Gold.PLP.PLP>
-38.5975

> <Gold.PLP.part.hbond>
-1.9037

> <Gold.PLP.part.metal>
0.0000

> <Gold.PLP.part.buried>
-4.3440

> <Gold.PLP.part.nonpolar>
-32.8991

> <Gold.PLP.part.repulsive>
0.6658

> <Gold.PLP.ligand.clash>
0.0000

> <Gold.PLP.ligand.torsion>
0.4089

> <Gold.PLP.Chemscore.Hbond>
2.0000

> <Gold.PLP.Chemscore.CHOScore>
1.3486

> <Gold.PLP.Chemscore.Metal>
0.0000

> <Gold.Chemscore.Hbonds>
donor molecule, donor type, donor heavy atom, donor atom, acceptor molecule, acceptor atom, score
      P1  H  7997  8010       L1     4  0.28

> <Gold.PLP.Chemscore.Internal.Correction>
0.1726

> <Gold.Rescore>
     Score         DG    S(hbond)    S(metal)    S(lipo)     H(rot)  DE(clash)    DE(int)     intcor
     15.08     -17.17       1.90        0.00      98.20       2.40       0.04       2.05       ----

> <Gold.Chemscore.Fitness>
15.0825

> <Gold.Chemscore.DG>
-17.1659

> <Gold.Chemscore.ZeroCoef>
-5.4800

> <Gold.Chemscore.Hbond>
1.8993

> <Gold.Chemscore.Metal>
0.0000

> <Gold.Chemscore.Lipo>
98.1976

> <Gold.Chemscore.Internal_Hbond>
0.0000

> <Gold.Chemscore.DEClash>
0.0383

> <Gold.Chemscore.DEInternal>
2.0452

> <Gold.Chemscore.Rot>
2.4011

> <Gold.Chemscore.Internal.Correction>
   9.000000E+99

> <Gold.Chemscore.Hbonds>
donor molecule, donor type, donor heavy atom, donor atom, acceptor molecule, acceptor atom, score
      P1  H  7997  8010       L1     4  0.29

> <Gold.Chemscore.Hbond.Weighted>
-6.3437

> <Gold.Chemscore.Metal.Weighted>
-0.0000

> <Gold.Chemscore.Lipo.Weighted>
-11.4891

> <Gold.Chemscore.Internal_Hbond.Weighted>
0.0000

> <Gold.Chemscore.DEClash.Weighted>
0.0383

> <Gold.Chemscore.DEInternal.Weighted>
2.0452

> <Gold.Chemscore.Rot.Weighted>
6.1469

> <Gold.Chemscore.Internal.Correction.Weighted>
   9.000000E+99

> <Gold.Protein.RotatedTorsions>
[ 6907 6896 6895 6894 ] final   96.20 input  -60.11 | X-H torsion
[ 7974 7965 7964 7962 ] final  -99.70 input  175.53 | X-H torsion
[ 8008 7997 7996 7995 ] final   63.60 input   59.86 | X-H torsion
[ 10167 10162 10161 10158 ] final   64.37 input  -65.29 | X-H torsion
[ 10718 10713 10712 10709 ] final   67.70 input   66.30 | X-H torsion
[ 10763 10752 10751 10750 ] final    3.89 input  -60.55 | X-H torsion
[ 11005 11000 10999 10996 ] final   32.37 input  -57.11 | X-H torsion

> <Gold.Protein.ActiveResidues>
 VAL166  LYS551  ARG553  GLY616  TRP617  ASP618  TYR619  PRO620  LYS621  CYS622 
 ASP623  PHE694  ASN695  SER759  ASP760  ASP761  ALA762  ILE779  LEU786  VAL792 
 PHE793  MET794  SER795  GLU796  ALA797  LYS798  CYS799  TRP800  GLU811  SER814 

> <Gold.Protein.RotatedAtoms>
  152.5437  134.0923  159.8281 H   0  0  0  0  0  0  0  0  0  0  0  0  # atno 6907 bound_to 6896
  151.1011  133.5236  159.2617 H   0  0  0  0  0  0  0  0  0  0  0  0  # atno 6908 bound_to 6896
  151.1990  135.0444  159.8919 H   0  0  0  0  0  0  0  0  0  0  0  0  # atno 6909 bound_to 6896
  145.3042  140.9385  143.2806 H   0  0  0  0  0  0  0  0  0  0  0  0  # atno 7974 bound_to 7965
  155.6328  140.3496  155.4688 H   0  0  0  0  0  0  0  0  0  0  0  0  # atno 8008 bound_to 7997
  155.9989  140.1209  157.0590 H   0  0  0  0  0  0  0  0  0  0  0  0  # atno 8009 bound_to 7997
  154.4242  140.1104  156.5655 H   0  0  0  0  0  0  0  0  0  0  0  0  # atno 8010 bound_to 7997
  140.1229  144.4714  150.6910 H   0  0  0  0  0  0  0  0  0  0  0  0  # atno 10167 bound_to 10162
  157.6246  130.9335  150.0278 H   0  0  0  0  0  0  0  0  0  0  0  0  # atno 10718 bound_to 10713
  153.2778  135.6938  153.7416 H   0  0  0  0  0  0  0  0  0  0  0  0  # atno 10763 bound_to 10752
  153.6415  135.3392  155.3073 H   0  0  0  0  0  0  0  0  0  0  0  0  # atno 10764 bound_to 10752
  154.8485  135.4433  154.1821 H   0  0  0  0  0  0  0  0  0  0  0  0  # atno 10765 bound_to 10752
  140.2741  134.3048  155.7819 H   0  0  0  0  0  0  0  0  0  0  0  0  # atno 11005 bound_to 11000
  144.9069  139.4578  143.6606 LP  0  0  0  0  0  0  0  0  0  0  0  0  # atno 17320 bound_to 7965
  146.3141  139.7854  142.8997 LP  0  0  0  0  0  0  0  0  0  0  0  0  # atno 17321 bound_to 7965
  140.6862  143.2351  151.5255 LP  0  0  0  0  0  0  0  0  0  0  0  0  # atno 17342 bound_to 10162
  139.5559  144.2276  152.1611 LP  0  0  0  0  0  0  0  0  0  0  0  0  # atno 17343 bound_to 10162
  156.1410  130.3642  149.9582 LP  0  0  0  0  0  0  0  0  0  0  0  0  # atno 17370 bound_to 10713
  156.7623  130.9155  151.3642 LP  0  0  0  0  0  0  0  0  0  0  0  0  # atno 17371 bound_to 10713
  141.2173  133.7485  156.9380 LP  0  0  0  0  0  0  0  0  0  0  0  0  # atno 17394 bound_to 11000
  140.1345  134.9334  157.2383 LP  0  0  0  0  0  0  0  0  0  0  0  0  # atno 17395 bound_to 11000

$$$$
