AV-unprocessed.smi:72|AV-procd|sdf|694|dock4
  -GOLD-   2262017 13D 1   1.00000     0.00000
 Structure written by MMmdl.
 29 30  0  0  0  0  0  0  0  0  1 V2000
  152.4268  136.7257  159.6196 N   0  0  0  0  0  0  0  0  0  0  0  0
  152.0264  137.7283  158.9232 C   0  0  0  0  0  0  0  0  0  0  0  0
  150.9891  138.6029  159.2805 N   0  0  0  0  0  0  0  0  0  0  0  0
  150.6845  139.5690  158.4695 C   0  0  0  0  0  0  0  0  0  0  0  0
  151.3749  139.7654  157.2040 N   0  0  0  0  0  0  0  0  0  0  0  0
  151.0105  140.9046  156.2800 C   0  0  1  0  0  0  0  0  0  0  0  0
  150.4914  140.3812  155.0923 O   0  0  0  0  0  0  0  0  0  0  0  0
  149.3169  141.0956  154.7213 C   0  0  1  0  0  0  0  0  0  0  0  0
  148.4143  140.2005  153.8585 C   0  0  0  0  0  0  0  0  0  0  0  0
  149.1377  139.0775  153.4025 O   0  0  0  0  0  0  0  0  0  0  0  0
  148.7089  141.4514  156.0787 C   0  0  2  0  0  0  0  0  0  0  0  0
  147.7626  142.5013  156.0081 O   0  0  0  0  0  0  0  0  0  0  0  0
  149.9342  141.7963  156.9194 C   0  0  2  0  0  0  0  0  0  0  0  0
  150.2931  143.1628  156.8277 O   0  0  0  0  0  0  0  0  0  0  0  0
  152.4463  138.9123  156.8448 C   0  0  0  0  0  0  0  0  0  0  0  0
  153.0946  139.0640  155.8097 O   0  0  0  0  0  0  0  0  0  0  0  0
  152.7183  137.9205  157.7203 N   0  0  0  0  0  0  0  0  0  0  0  0
  151.9399  141.4292  156.0511 H   0  0  0  0  0  0  0  0  0  0  0  0
  149.5984  142.0084  154.1920 H   0  0  0  0  0  0  0  0  0  0  0  0
  148.2251  140.5702  156.5029 H   0  0  0  0  0  0  0  0  0  0  0  0
  149.7856  141.5474  157.9712 H   0  0  0  0  0  0  0  0  0  0  0  0
  153.1870  136.2575  159.1474 H   0  0  0  0  0  0  0  0  0  0  0  0
  149.8987  140.2937  158.6860 H   0  0  0  0  0  0  0  0  0  0  0  0
  147.5269  139.8844  154.4078 H   0  0  0  0  0  0  0  0  0  0  0  0
  148.0731  140.7477  152.9794 H   0  0  0  0  0  0  0  0  0  0  0  0
  149.6173  139.3233  152.6263 H   0  0  0  0  0  0  0  0  0  0  0  0
  148.1607  143.2344  155.5642 H   0  0  0  0  0  0  0  0  0  0  0  0
  149.6521  143.6063  156.2931 H   0  0  0  0  0  0  0  0  0  0  0  0
  153.4711  137.2877  157.4926 H   0  0  0  0  0  0  0  0  0  0  0  0
  1  2  2  0  0  0  0
  1 22  1  0  0  0  0
  2 17  1  0  0  0  0
  2  3  1  0  0  0  0
  3  4  2  0  0  0  0
  4  5  1  0  0  0  0
  4 23  1  0  0  0  0
  5  6  1  0  0  0  0
  5 15  1  0  0  0  0
  6 18  1  0  0  0  0
  6 13  1  0  0  0  0
  6  7  1  0  0  0  0
  7  8  1  0  0  0  0
  8 19  1  0  0  0  0
  8  9  1  0  0  0  0
  8 11  1  0  0  0  0
  9 10  1  0  0  0  0
  9 24  1  0  0  0  0
  9 25  1  0  0  0  0
 10 26  1  0  0  0  0
 11 20  1  0  0  0  0
 11 12  1  0  0  0  0
 11 13  1  0  0  0  0
 12 27  1  0  0  0  0
 13 21  1  0  0  0  0
 13 14  1  0  0  0  0
 14 28  1  0  0  0  0
 15 16  2  0  0  0  0
 15 17  1  0  0  0  0
 17 29  1  0  0  0  0
M  END
> <s_m_source_file>
AV-unprocessed.smi

> <i_m_source_file_index>
72

> <i_lp_mmshare_version>
43012

> <i_f3d_flags>
0

> <s_epik_input>
W05IMl1jMW5bY0hdbihjKD1PKW4xKVtDQEBIXTJPW0NASF0oW0NIMl1bT0hdKVtDQEBIXShbT0hdKVtDQEhdMltPSF0=

> <s_epik_cmdline>
J2VwaWtfcHl0aG9uJywgJy1waCcsICc3LjAnLCAnLXRuJywgJzgnLCAnLW1hJywgJzIwMCcsICctbWV0YWxfYmluZGluZycsICctaW1hZScsICc8aW5maWxlLm1hZT4nLCAnLW9tYWUnLCAnPG91dGZpbGUubWFlPic=

> <r_lp_tautomer_probability>
7.17554e-07

> <r_epik_Ionization_Penalty>
0.0066451

> <r_epik_Ionization_Penalty_Charging>
0.00663793

> <r_epik_Ionization_Penalty_Neutral>
7.17052e-06

> <r_epik_State_Penalty>
0.419231

> <r_epik_Charging_Adjusted_Penalty>
0.425868

> <i_epik_Tot_Q>
0

> <i_epik_Tot_abs_Q>
0

> <r_epik_Metal_State_Penalty>
1.44144

> <b_epik_Metal_Only>
0

> <s_epik_Chemistry_Notes>
This compound contains an acetal/aminal-like group ( X-CH(R)-Y where X, Y are N, S, or O) that may be acid/base labile, releasing an aldehyde.

> <s_lp_Force_Field>
OPLS_2005

> <r_lp_Energy>
41.633

> <b_lp_Chiralities_Consistent>
1

> <s_lp_Variant>
AV-unprocessed.smi:72-32

> <Gold.Version>
5.8.1

> <Gold.Id.Protein>
6NUR|6NUR_protein|mol2

> <Gold.PLP.Fitness>
41.2929

> <Gold.PLP.PLP>
-24.7621

> <Gold.PLP.part.hbond>
-6.8745

> <Gold.PLP.part.metal>
0.0000

> <Gold.PLP.part.buried>
-3.0346

> <Gold.PLP.part.nonpolar>
-15.4415

> <Gold.PLP.part.repulsive>
0.1995

> <Gold.PLP.ligand.clash>
0.0000

> <Gold.PLP.ligand.torsion>
0.7436

> <Gold.PLP.Chemscore.Hbond>
6.0000

> <Gold.PLP.Chemscore.CHOScore>
0.0000

> <Gold.PLP.Chemscore.Metal>
0.0000

> <Gold.Chemscore.Hbonds>
donor molecule, donor type, donor heavy atom, donor atom, acceptor molecule, acceptor atom, score
      L1  H    10    26       P1  7957  0.98
      L1  H    12    27       P1  8028  0.98
      L1  H    14    28       P1  8028  0.89
      P1  H  6896  6907       L1     1  0.15
      P1  H  7989  7998       L1     7  0.90
      P1  H  7997  8009       L1    16  0.93

> <Gold.PLP.Chemscore.Internal.Correction>
0.0180

> <Gold.Rescore>
     Score         DG    S(hbond)    S(metal)    S(lipo)     H(rot)  DE(clash)    DE(int)     intcor
      9.35     -11.16       3.98        0.00      23.88       4.06       0.02       1.79       ----

> <Gold.Chemscore.Fitness>
9.3518

> <Gold.Chemscore.DG>
-11.1631

> <Gold.Chemscore.ZeroCoef>
-5.4800

> <Gold.Chemscore.Hbond>
3.9767

> <Gold.Chemscore.Metal>
0.0000

> <Gold.Chemscore.Lipo>
23.8838

> <Gold.Chemscore.Internal_Hbond>
0.0000

> <Gold.Chemscore.DEClash>
0.0234

> <Gold.Chemscore.DEInternal>
1.7878

> <Gold.Chemscore.Rot>
4.0600

> <Gold.Chemscore.Internal.Correction>
   9.000000E+99

> <Gold.Chemscore.Hbonds>
donor molecule, donor type, donor heavy atom, donor atom, acceptor molecule, acceptor atom, score
      L1  H    10    26       P1  7957  0.92
      L1  H    12    27       P1  8028  0.79
      L1  H    14    28       P1  8028  0.87
      P1  H  7989  7998       L1     7  0.13
      P1  H  7997  8009       L1    16  0.86

> <Gold.Chemscore.Hbond.Weighted>
-13.2822

> <Gold.Chemscore.Metal.Weighted>
-0.0000

> <Gold.Chemscore.Lipo.Weighted>
-2.7944

> <Gold.Chemscore.Internal_Hbond.Weighted>
0.0000

> <Gold.Chemscore.DEClash.Weighted>
0.0234

> <Gold.Chemscore.DEInternal.Weighted>
1.7878

> <Gold.Chemscore.Rot.Weighted>
10.3936

> <Gold.Chemscore.Internal.Correction.Weighted>
   9.000000E+99

> <Gold.Protein.RotatedTorsions>
[ 6907 6896 6895 6894 ] final   23.47 input  -60.11 | X-H torsion
[ 7974 7965 7964 7962 ] final   36.97 input  175.53 | X-H torsion
[ 8008 7997 7996 7995 ] final -134.00 input   59.86 | X-H torsion
[ 10167 10162 10161 10158 ] final  -70.18 input  -65.29 | X-H torsion
[ 10718 10713 10712 10709 ] final  -64.58 input   66.30 | X-H torsion
[ 10763 10752 10751 10750 ] final   77.15 input  -60.55 | X-H torsion
[ 11005 11000 10999 10996 ] final -136.02 input  -57.11 | X-H torsion

> <Gold.Protein.ActiveResidues>
 VAL166  LYS551  ARG553  GLY616  TRP617  ASP618  TYR619  PRO620  LYS621  CYS622 
 ASP623  PHE694  ASN695  SER759  ASP760  ASP761  ALA762  ILE779  LEU786  VAL792 
 PHE793  MET794  SER795  GLU796  ALA797  LYS798  CYS799  TRP800  GLU811  SER814 

> <Gold.Protein.RotatedAtoms>
  151.9428  135.0205  160.0536 H   0  0  0  0  0  0  0  0  0  0  0  0  # atno 6907 bound_to 6896
  152.2021  133.4844  159.5073 H   0  0  0  0  0  0  0  0  0  0  0  0  # atno 6908 bound_to 6896
  150.6957  134.1493  159.4177 H   0  0  0  0  0  0  0  0  0  0  0  0  # atno 6909 bound_to 6896
  146.1172  139.5952  142.9313 H   0  0  0  0  0  0  0  0  0  0  0  0  # atno 7974 bound_to 7965
  155.3549  140.0479  157.3046 H   0  0  0  0  0  0  0  0  0  0  0  0  # atno 8008 bound_to 7997
  154.5208  140.2224  155.8943 H   0  0  0  0  0  0  0  0  0  0  0  0  # atno 8009 bound_to 7997
  156.1687  140.3100  155.8941 H   0  0  0  0  0  0  0  0  0  0  0  0  # atno 8010 bound_to 7997
  140.5373  143.2317  151.7154 H   0  0  0  0  0  0  0  0  0  0  0  0  # atno 10167 bound_to 10162
  156.0720  130.4235  150.1441 H   0  0  0  0  0  0  0  0  0  0  0  0  # atno 10718 bound_to 10713
  153.0777  135.4925  154.8439 H   0  0  0  0  0  0  0  0  0  0  0  0  # atno 10763 bound_to 10752
  154.7109  135.3020  154.9200 H   0  0  0  0  0  0  0  0  0  0  0  0  # atno 10764 bound_to 10752
  153.9894  135.6780  153.4806 H   0  0  0  0  0  0  0  0  0  0  0  0  # atno 10765 bound_to 10752
  140.8844  134.1891  157.4570 H   0  0  0  0  0  0  0  0  0  0  0  0  # atno 11005 bound_to 11000
  145.5542  141.0410  143.2262 LP  0  0  0  0  0  0  0  0  0  0  0  0  # atno 17320 bound_to 7965
  144.7564  139.7064  143.7252 LP  0  0  0  0  0  0  0  0  0  0  0  0  # atno 17321 bound_to 7965
  139.4975  144.4023  152.0168 LP  0  0  0  0  0  0  0  0  0  0  0  0  # atno 17342 bound_to 10162
  140.3129  144.3517  150.6029 LP  0  0  0  0  0  0  0  0  0  0  0  0  # atno 17343 bound_to 10162
  156.9489  130.9768  151.3502 LP  0  0  0  0  0  0  0  0  0  0  0  0  # atno 17370 bound_to 10713
  157.5796  130.8367  149.8504 LP  0  0  0  0  0  0  0  0  0  0  0  0  # atno 17371 bound_to 10713
  139.8723  134.9831  156.5185 LP  0  0  0  0  0  0  0  0  0  0  0  0  # atno 17394 bound_to 11000
  140.8422  133.8196  155.9086 LP  0  0  0  0  0  0  0  0  0  0  0  0  # atno 17395 bound_to 11000

$$$$
