AV-unprocessed.smi:1007|AV-procd|sdf|4398|dock10
  -GOLD-   22720 2333D 1   1.00000     0.00000
 Structure written by MMmdl.
 56 58  0  0  0  0  0  0  0  0  2 V2000
  149.0305  132.0075  159.2852 C   0  0  0  0  0  0  0  0  0  0  0  0
  150.1048  132.0111  158.3576 O   0  0  0  0  0  0  0  0  0  0  0  0
  149.7154  132.2891  157.0201 C   0  0  0  0  0  0  0  0  0  0  0  0
  149.4950  133.7974  156.7992 C   0  0  0  0  0  0  0  0  0  0  0  0
  148.9007  134.1495  155.5059 N   0  0  0  0  0  0  0  0  0  0  0  0
  148.1639  135.4123  155.5469 C   0  0  0  0  0  0  0  0  0  0  0  0
  149.0781  136.6499  155.6612 C   0  0  0  0  0  0  0  0  0  0  0  0
  150.0562  136.6784  154.5404 N   0  3  0  0  0  0  0  0  0  0  0  0
  150.9449  137.8676  154.5580 C   0  0  0  0  0  0  0  0  0  0  0  0
  150.1921  139.1692  154.9136 C   0  0  2  0  0  0  0  0  0  0  0  0
  149.4506  139.5904  153.7865 O   0  0  0  0  0  0  0  0  0  0  0  0
  151.1224  140.3274  155.3238 C   0  0  0  0  0  0  0  0  0  0  0  0
  151.7743  140.0903  156.5988 N   0  0  0  0  0  0  0  0  0  0  0  0
  152.4122  138.9685  156.9846 C   0  0  0  0  0  0  0  0  0  0  0  0
  152.9546  138.9640  158.1986 N   0  0  0  0  0  0  0  0  0  0  0  0
  152.6240  140.2273  158.6575 C   0  0  0  0  0  0  0  0  0  0  0  0
  152.9083  140.8595  159.8876 C   0  0  0  0  0  0  0  0  0  0  0  0
  152.4703  142.1786  160.1427 C   0  0  0  0  0  0  0  0  0  0  0  0
  152.8001  142.8199  161.4792 C   0  0  0  0  0  0  0  0  0  0  0  0
  151.7355  142.8864  159.1578 C   0  0  0  0  0  0  0  0  0  0  0  0
  151.2548  144.3047  159.4097 C   0  0  0  0  0  0  0  0  0  0  0  0
  151.4414  142.2693  157.9241 C   0  0  0  0  0  0  0  0  0  0  0  0
  151.8832  140.9565  157.6818 C   0  0  0  0  0  0  0  0  0  0  0  0
  150.8184  135.4046  154.4777 C   0  0  0  0  0  0  0  0  0  0  0  0
  149.8538  134.2045  154.3950 C   0  0  0  0  0  0  0  0  0  0  0  0
  149.4210  131.8451  160.2897 H   0  0  0  0  0  0  0  0  0  0  0  0
  148.3163  131.2111  159.0771 H   0  0  0  0  0  0  0  0  0  0  0  0
  148.5024  132.9617  159.2835 H   0  0  0  0  0  0  0  0  0  0  0  0
  150.4459  131.8763  156.3235 H   0  0  0  0  0  0  0  0  0  0  0  0
  148.7782  131.7617  156.8387 H   0  0  0  0  0  0  0  0  0  0  0  0
  148.8309  134.1470  157.5908 H   0  0  0  0  0  0  0  0  0  0  0  0
  150.4325  134.3316  156.9431 H   0  0  0  0  0  0  0  0  0  0  0  0
  147.5623  135.5013  154.6412 H   0  0  0  0  0  0  0  0  0  0  0  0
  147.4530  135.3993  156.3739 H   0  0  0  0  0  0  0  0  0  0  0  0
  148.4581  137.5450  155.6436 H   0  0  0  0  0  0  0  0  0  0  0  0
  149.6041  136.6557  156.6167 H   0  0  0  0  0  0  0  0  0  0  0  0
  151.7588  137.6776  155.2587 H   0  0  0  0  0  0  0  0  0  0  0  0
  151.4121  137.9947  153.5800 H   0  0  0  0  0  0  0  0  0  0  0  0
  149.4904  138.9921  155.7279 H   0  0  0  0  0  0  0  0  0  0  0  0
  150.0487  139.9338  153.1396 H   0  0  0  0  0  0  0  0  0  0  0  0
  151.8890  140.4913  154.5652 H   0  0  0  0  0  0  0  0  0  0  0  0
  150.5575  141.2577  155.3998 H   0  0  0  0  0  0  0  0  0  0  0  0
  152.4878  138.1087  156.3347 H   0  0  0  0  0  0  0  0  0  0  0  0
  153.4686  140.3207  160.6376 H   0  0  0  0  0  0  0  0  0  0  0  0
  151.8926  143.1649  161.9746 H   0  0  0  0  0  0  0  0  0  0  0  0
  153.4640  143.6730  161.3382 H   0  0  0  0  0  0  0  0  0  0  0  0
  153.2961  142.1155  162.1475 H   0  0  0  0  0  0  0  0  0  0  0  0
  150.7676  144.7224  158.5283 H   0  0  0  0  0  0  0  0  0  0  0  0
  152.0916  144.9538  159.6672 H   0  0  0  0  0  0  0  0  0  0  0  0
  150.5367  144.3232  160.2298 H   0  0  0  0  0  0  0  0  0  0  0  0
  150.8818  142.7980  157.1668 H   0  0  0  0  0  0  0  0  0  0  0  0
  151.4594  135.4083  153.5955 H   0  0  0  0  0  0  0  0  0  0  0  0
  151.4770  135.3194  155.3430 H   0  0  0  0  0  0  0  0  0  0  0  0
  150.4186  133.2754  154.3291 H   0  0  0  0  0  0  0  0  0  0  0  0
  149.2975  134.2695  153.4588 H   0  0  0  0  0  0  0  0  0  0  0  0
  149.5231  136.7301  153.6839 H   0  0  0  0  0  0  0  0  0  0  0  0
  1  2  1  0  0  0  0
  1 26  1  0  0  0  0
  1 27  1  0  0  0  0
  1 28  1  0  0  0  0
  2  3  1  0  0  0  0
  3  4  1  0  0  0  0
  3 29  1  0  0  0  0
  3 30  1  0  0  0  0
  4  5  1  0  0  0  0
  4 31  1  0  0  0  0
  4 32  1  0  0  0  0
  5 25  1  0  0  0  0
  5  6  1  0  0  0  0
  6  7  1  0  0  0  0
  6 33  1  0  0  0  0
  6 34  1  0  0  0  0
  7  8  1  0  0  0  0
  7 35  1  0  0  0  0
  7 36  1  0  0  0  0
  8  9  1  0  0  0  0
  8 24  1  0  0  0  0
  8 56  1  0  0  0  0
  9 10  1  0  0  0  0
  9 37  1  0  0  0  0
  9 38  1  0  0  0  0
 10 11  1  0  0  0  0
 10 12  1  0  0  0  0
 10 39  1  0  0  0  0
 11 40  1  0  0  0  0
 12 13  1  0  0  0  0
 12 41  1  0  0  0  0
 12 42  1  0  0  0  0
 13 23  1  0  0  0  0
 13 14  1  0  0  0  0
 14 15  2  0  0  0  0
 14 43  1  0  0  0  0
 15 16  1  0  0  0  0
 16 23  2  0  0  0  0
 16 17  1  0  0  0  0
 17 18  2  0  0  0  0
 17 44  1  0  0  0  0
 18 19  1  0  0  0  0
 18 20  1  0  0  0  0
 19 45  1  0  0  0  0
 19 46  1  0  0  0  0
 19 47  1  0  0  0  0
 20 21  1  0  0  0  0
 20 22  2  0  0  0  0
 21 48  1  0  0  0  0
 21 49  1  0  0  0  0
 21 50  1  0  0  0  0
 22 23  1  0  0  0  0
 22 51  1  0  0  0  0
 24 25  1  0  0  0  0
 24 52  1  0  0  0  0
 24 53  1  0  0  0  0
 25 54  1  0  0  0  0
 25 55  1  0  0  0  0
M  CHG  1   8   1
M  END
> <s_m_source_file>
AV-unprocessed.smi

> <i_m_source_file_index>
1007

> <i_lp_mmshare_version>
43012

> <i_f3d_flags>
0

> <s_epik_input>
W0NIM11PW0NIMl1bQ0gyXU4xW0NIMl1bQ0gyXU4oW0NIMl1bQ0gyXTEpW0NIMl1bQ0BIXShbT0hdKVtDSDJdbihbY0hdbjIpYyhjMjMpW2NIXWMoW0NIM10pYyhbY0hdMylbQ0gzXQ==

> <s_epik_cmdline>
J2VwaWtfcHl0aG9uJywgJy1waCcsICc3LjAnLCAnLXRuJywgJzgnLCAnLW1hJywgJzIwMCcsICctbWV0YWxfYmluZGluZycsICctaW1hZScsICc8aW5maWxlLm1hZT4nLCAnLW9tYWUnLCAnPG91dGZpbGUubWFlPic=

> <r_epik_Ionization_Penalty>
0.102698

> <r_epik_Ionization_Penalty_Charging>
0.00226046

> <r_epik_Ionization_Penalty_Neutral>
0.100438

> <r_epik_State_Penalty>
0.191223

> <r_epik_Charging_Adjusted_Penalty>
0.193484

> <i_epik_Tot_Q>
1

> <i_epik_Tot_abs_Q>
1

> <r_epik_Metal_State_Penalty>
0.102154

> <b_epik_Metal_Only>
0

> <s_lp_Force_Field>
OPLS_2005

> <r_lp_Energy>
34.1063

> <b_lp_Chiralities_Consistent>
1

> <s_lp_Variant>
AV-unprocessed.smi:1007-1

> <Gold.Version>
5.8.1

> <Gold.Id.Protein>
6NUR|6NUR_protein|mol2

> <Gold.PLP.Fitness>
51.1347

> <Gold.PLP.PLP>
-42.3397

> <Gold.PLP.part.hbond>
-3.2253

> <Gold.PLP.part.metal>
0.0000

> <Gold.PLP.part.buried>
-3.1390

> <Gold.PLP.part.nonpolar>
-35.9395

> <Gold.PLP.part.repulsive>
0.0684

> <Gold.PLP.ligand.clash>
0.0000

> <Gold.PLP.ligand.torsion>
0.7749

> <Gold.PLP.Chemscore.Hbond>
3.4160

> <Gold.PLP.Chemscore.CHOScore>
0.0000

> <Gold.PLP.Chemscore.Metal>
0.0000

> <Gold.Chemscore.Hbonds>
donor molecule, donor type, donor heavy atom, donor atom, acceptor molecule, acceptor atom, score
      L1  H     8    56       P1  7948  2.00
      L1  H    11    40       P1  7957  0.48
      P1  H  6896  6908       L1     2  0.37

> <Gold.PLP.Chemscore.Internal.Correction>
0.0967

> <Gold.Rescore>
     Score         DG    S(hbond)    S(metal)    S(lipo)     H(rot)  DE(clash)    DE(int)     intcor
     18.79     -21.53       2.49        0.00     122.06       2.56       1.45       1.30       ----

> <Gold.Chemscore.Fitness>
18.7861

> <Gold.Chemscore.DG>
-21.5294

> <Gold.Chemscore.ZeroCoef>
-5.4800

> <Gold.Chemscore.Hbond>
2.4913

> <Gold.Chemscore.Metal>
0.0000

> <Gold.Chemscore.Lipo>
122.0574

> <Gold.Chemscore.Internal_Hbond>
0.0000

> <Gold.Chemscore.DEClash>
1.4460

> <Gold.Chemscore.DEInternal>
1.2973

> <Gold.Chemscore.Rot>
2.5594

> <Gold.Chemscore.Internal.Correction>
   9.000000E+99

> <Gold.Chemscore.Hbonds>
donor molecule, donor type, donor heavy atom, donor atom, acceptor molecule, acceptor atom, score
      L1  H     8    56       P1  7948  0.80
      L1  H    11    40       P1  7957  0.45
      P1  H  6896  6908       L1     2  0.01

> <Gold.Chemscore.Hbond.Weighted>
-8.3209

> <Gold.Chemscore.Metal.Weighted>
-0.0000

> <Gold.Chemscore.Lipo.Weighted>
-14.2807

> <Gold.Chemscore.Internal_Hbond.Weighted>
0.0000

> <Gold.Chemscore.DEClash.Weighted>
1.4460

> <Gold.Chemscore.DEInternal.Weighted>
1.2973

> <Gold.Chemscore.Rot.Weighted>
6.5522

> <Gold.Chemscore.Internal.Correction.Weighted>
   9.000000E+99

> <Gold.Protein.RotatedTorsions>
[ 6907 6896 6895 6894 ] final  116.33 input  -60.11 | X-H torsion
[ 7974 7965 7964 7962 ] final -101.13 input  175.53 | X-H torsion
[ 8008 7997 7996 7995 ] final  -60.25 input   59.86 | X-H torsion
[ 10167 10162 10161 10158 ] final  125.84 input  -65.29 | X-H torsion
[ 10718 10713 10712 10709 ] final  173.74 input   66.30 | X-H torsion
[ 10763 10752 10751 10750 ] final  -90.67 input  -60.55 | X-H torsion
[ 11005 11000 10999 10996 ] final -145.52 input  -57.11 | X-H torsion

> <Gold.Protein.ActiveResidues>
 VAL166  LYS551  ARG553  GLY616  TRP617  ASP618  TYR619  PRO620  LYS621  CYS622 
 ASP623  PHE694  ASN695  SER759  ASP760  ASP761  ALA762  ILE779  LEU786  VAL792 
 PHE793  MET794  SER795  GLU796  ALA797  LYS798  CYS799  TRP800  GLU811  SER814 

> <Gold.Protein.RotatedAtoms>
  152.4684  133.7975  159.6934 H   0  0  0  0  0  0  0  0  0  0  0  0  # atno 6907 bound_to 6896
  150.8661  133.7563  159.2983 H   0  0  0  0  0  0  0  0  0  0  0  0  # atno 6908 bound_to 6896
  151.5113  135.1068  159.9906 H   0  0  0  0  0  0  0  0  0  0  0  0  # atno 6909 bound_to 6896
  145.2855  140.9338  143.2907 H   0  0  0  0  0  0  0  0  0  0  0  0  # atno 7974 bound_to 7965
  154.4390  140.1043  156.6244 H   0  0  0  0  0  0  0  0  0  0  0  0  # atno 8008 bound_to 7997
  155.5672  140.3488  155.4487 H   0  0  0  0  0  0  0  0  0  0  0  0  # atno 8009 bound_to 7997
  156.0416  140.1283  157.0138 H   0  0  0  0  0  0  0  0  0  0  0  0  # atno 8010 bound_to 7997
  139.5664  144.6913  151.3900 H   0  0  0  0  0  0  0  0  0  0  0  0  # atno 10167 bound_to 10162
  156.9598  131.0057  151.2930 H   0  0  0  0  0  0  0  0  0  0  0  0  # atno 10718 bound_to 10713
  154.6681  135.5296  153.8103 H   0  0  0  0  0  0  0  0  0  0  0  0  # atno 10763 bound_to 10752
  153.0484  135.6522  154.0767 H   0  0  0  0  0  0  0  0  0  0  0  0  # atno 10764 bound_to 10752
  154.0669  135.2957  155.3295 H   0  0  0  0  0  0  0  0  0  0  0  0  # atno 10765 bound_to 10752
  140.7914  134.2964  157.5012 H   0  0  0  0  0  0  0  0  0  0  0  0  # atno 11005 bound_to 11000
  144.9216  139.4404  143.6538 LP  0  0  0  0  0  0  0  0  0  0  0  0  # atno 17320 bound_to 7965
  146.3202  139.8080  142.8951 LP  0  0  0  0  0  0  0  0  0  0  0  0  # atno 17321 bound_to 7965
  140.6947  143.7777  150.7308 LP  0  0  0  0  0  0  0  0  0  0  0  0  # atno 17342 bound_to 10162
  140.1270  143.4560  152.2278 LP  0  0  0  0  0  0  0  0  0  0  0  0  # atno 17343 bound_to 10162
  157.5665  130.8281  149.8335 LP  0  0  0  0  0  0  0  0  0  0  0  0  # atno 17370 bound_to 10713
  156.0327  130.3760  150.1644 LP  0  0  0  0  0  0  0  0  0  0  0  0  # atno 17371 bound_to 10713
  139.8731  134.9376  156.3693 LP  0  0  0  0  0  0  0  0  0  0  0  0  # atno 17394 bound_to 11000
  140.9386  133.7530  156.0117 LP  0  0  0  0  0  0  0  0  0  0  0  0  # atno 17395 bound_to 11000

$$$$
