AV-unprocessed.smi:213|AV-procd|sdf|1640|dock7
  -GOLD-   2262020 03D 1   1.00000     0.00000
 Structure written by MMmdl.
 59 62  0  0  0  0  0  0  0  0  2 V2000
  145.6896  136.1104  154.4074 C   0  0  0  0  0  0  0  0  0  0  0  0
  146.2609  136.6488  153.0821 C   0  0  1  0  0  0  0  0  0  0  0  0
  145.2155  136.6244  151.9423 C   0  0  0  0  0  0  0  0  0  0  0  0
  145.0665  135.2811  151.3292 N   0  3  0  0  0  0  0  0  0  0  0  0
  146.3662  134.5875  151.1647 C   0  0  0  0  0  0  0  0  0  0  0  0
  146.1670  133.2214  150.4867 C   0  0  0  0  0  0  0  0  0  0  0  0
  145.2578  132.4382  151.2494 O   0  0  0  0  0  0  0  0  0  0  0  0
  143.9770  133.0494  151.3410 C   0  0  0  0  0  0  0  0  0  0  0  0
  144.1030  134.4095  152.0476 C   0  0  0  0  0  0  0  0  0  0  0  0
  146.8294  137.9927  153.2578 N   0  0  0  0  0  0  0  0  0  0  0  0
  146.6491  139.0002  152.2143 C   0  0  0  0  0  0  0  0  0  0  0  0
  147.8761  138.1780  154.1127 C   0  0  0  0  0  0  0  0  0  0  0  0
  148.4261  137.1011  154.7384 N   0  0  0  0  0  0  0  0  0  0  0  0
  149.4570  137.2476  155.5747 C   0  0  0  0  0  0  0  0  0  0  0  0
  150.0885  138.3663  155.9301 N   0  0  0  0  0  0  0  0  0  0  0  0
  149.5432  139.4546  155.3167 C   0  0  0  0  0  0  0  0  0  0  0  0
  148.4485  139.4532  154.4042 C   0  0  0  0  0  0  0  0  0  0  0  0
  148.1770  140.7580  154.0038 N   0  0  0  0  0  0  0  0  0  0  0  0
  149.0637  141.4819  154.6307 C   0  0  0  0  0  0  0  0  0  0  0  0
  149.9239  140.7780  155.4406 N   0  0  0  0  0  0  0  0  0  0  0  0
  150.9990  141.3213  156.2514 C   0  0  0  0  0  0  0  0  0  0  0  0
  150.5670  141.5660  157.7099 C   0  0  1  0  0  0  0  0  0  0  0  0
  150.2443  140.3430  158.3455 O   0  0  0  0  0  0  0  0  0  0  0  0
  151.6238  142.3401  158.5230 C   0  0  1  0  0  0  0  0  0  0  0  0
  151.9331  143.7725  158.0571 C   0  0  0  0  0  0  0  0  0  0  0  0
  151.9936  144.5742  159.3498 C   0  0  0  0  0  0  0  0  0  0  0  0
  152.0300  143.5077  160.4404 C   0  0  0  0  0  0  0  0  0  0  0  0
  151.2561  142.4547  159.8912 O   0  0  0  0  0  0  0  0  0  0  0  0
  145.3844  135.0685  154.3089 H   0  0  0  0  0  0  0  0  0  0  0  0
  144.8185  136.6749  154.7395 H   0  0  0  0  0  0  0  0  0  0  0  0
  146.4369  136.1538  155.2007 H   0  0  0  0  0  0  0  0  0  0  0  0
  147.0801  135.9764  152.8311 H   0  0  0  0  0  0  0  0  0  0  0  0
  144.2536  136.9468  152.3432 H   0  0  0  0  0  0  0  0  0  0  0  0
  145.4696  137.3424  151.1609 H   0  0  0  0  0  0  0  0  0  0  0  0
  147.0402  135.1988  150.5631 H   0  0  0  0  0  0  0  0  0  0  0  0
  146.8366  134.4560  152.1406 H   0  0  0  0  0  0  0  0  0  0  0  0
  145.7964  133.3417  149.4674 H   0  0  0  0  0  0  0  0  0  0  0  0
  147.1183  132.6932  150.4196 H   0  0  0  0  0  0  0  0  0  0  0  0
  143.5427  133.1649  150.3468 H   0  0  0  0  0  0  0  0  0  0  0  0
  143.3125  132.3938  151.9043 H   0  0  0  0  0  0  0  0  0  0  0  0
  144.4381  134.2628  153.0756 H   0  0  0  0  0  0  0  0  0  0  0  0
  143.1218  134.8799  152.0980 H   0  0  0  0  0  0  0  0  0  0  0  0
  147.6036  139.4298  151.9075 H   0  0  0  0  0  0  0  0  0  0  0  0
  146.0074  139.8045  152.5751 H   0  0  0  0  0  0  0  0  0  0  0  0
  146.1843  138.5805  151.3231 H   0  0  0  0  0  0  0  0  0  0  0  0
  149.8292  136.3383  156.0231 H   0  0  0  0  0  0  0  0  0  0  0  0
  149.1160  142.5551  154.5181 H   0  0  0  0  0  0  0  0  0  0  0  0
  151.8456  140.6347  156.2112 H   0  0  0  0  0  0  0  0  0  0  0  0
  151.3318  142.2539  155.7947 H   0  0  0  0  0  0  0  0  0  0  0  0
  149.6535  142.1615  157.7041 H   0  0  0  0  0  0  0  0  0  0  0  0
  151.0336  139.9837  158.7205 H   0  0  0  0  0  0  0  0  0  0  0  0
  152.5556  141.7719  158.5021 H   0  0  0  0  0  0  0  0  0  0  0  0
  152.8840  143.8021  157.5239 H   0  0  0  0  0  0  0  0  0  0  0  0
  151.1727  144.1820  157.3920 H   0  0  0  0  0  0  0  0  0  0  0  0
  152.8499  145.2481  159.3937 H   0  0  0  0  0  0  0  0  0  0  0  0
  151.0881  145.1736  159.4526 H   0  0  0  0  0  0  0  0  0  0  0  0
  153.0501  143.1605  160.6124 H   0  0  0  0  0  0  0  0  0  0  0  0
  151.6203  143.8586  161.3877 H   0  0  0  0  0  0  0  0  0  0  0  0
  144.7024  135.4266  150.3982 H   0  0  0  0  0  0  0  0  0  0  0  0
  1  2  1  0  0  0  0
  1 29  1  0  0  0  0
  1 30  1  0  0  0  0
  1 31  1  0  0  0  0
  2  3  1  0  0  0  0
  2 10  1  0  0  0  0
  2 32  1  0  0  0  0
  3  4  1  0  0  0  0
  3 33  1  0  0  0  0
  3 34  1  0  0  0  0
  4  9  1  0  0  0  0
  4  5  1  0  0  0  0
  4 59  1  0  0  0  0
  5  6  1  0  0  0  0
  5 35  1  0  0  0  0
  5 36  1  0  0  0  0
  6  7  1  0  0  0  0
  6 37  1  0  0  0  0
  6 38  1  0  0  0  0
  7  8  1  0  0  0  0
  8  9  1  0  0  0  0
  8 39  1  0  0  0  0
  8 40  1  0  0  0  0
  9 41  1  0  0  0  0
  9 42  1  0  0  0  0
 10 11  1  0  0  0  0
 10 12  1  0  0  0  0
 11 43  1  0  0  0  0
 11 44  1  0  0  0  0
 11 45  1  0  0  0  0
 12 17  1  0  0  0  0
 12 13  2  0  0  0  0
 13 14  1  0  0  0  0
 14 15  2  0  0  0  0
 14 46  1  0  0  0  0
 15 16  1  0  0  0  0
 16 20  1  0  0  0  0
 16 17  2  0  0  0  0
 17 18  1  0  0  0  0
 18 19  2  0  0  0  0
 19 20  1  0  0  0  0
 19 47  1  0  0  0  0
 20 21  1  0  0  0  0
 21 22  1  0  0  0  0
 21 48  1  0  0  0  0
 21 49  1  0  0  0  0
 22 23  1  0  0  0  0
 22 24  1  0  0  0  0
 22 50  1  0  0  0  0
 23 51  1  0  0  0  0
 24 28  1  0  0  0  0
 24 25  1  0  0  0  0
 24 52  1  0  0  0  0
 25 26  1  0  0  0  0
 25 53  1  0  0  0  0
 25 54  1  0  0  0  0
 26 27  1  0  0  0  0
 26 55  1  0  0  0  0
 26 56  1  0  0  0  0
 27 28  1  0  0  0  0
 27 57  1  0  0  0  0
 27 58  1  0  0  0  0
M  CHG  1   4   1
M  END
> <s_m_source_file>
AV-unprocessed.smi

> <i_m_source_file_index>
213

> <i_lp_mmshare_version>
43012

> <i_f3d_flags>
0

> <s_epik_input>
W0NIMl0xW0NIMl1PW0NIMl1bQ0gyXU4xW0NIMl1bQ0BASF0oW0NIM10pTihbQ0gzXSljKG5bY0hdbjIpYyhjMjMpbltjSF1uM1tDSDJdW0NASF0oW09IXSlbQ0BASF00W0NIMl1bQ0gyXVtDSDJdTzQ=

> <s_epik_cmdline>
J2VwaWtfcHl0aG9uJywgJy1waCcsICc3LjAnLCAnLXRuJywgJzgnLCAnLW1hJywgJzIwMCcsICctbWV0YWxfYmluZGluZycsICctaW1hZScsICc8aW5maWxlLm1hZT4nLCAnLW9tYWUnLCAnPG91dGZpbGUubWFlPic=

> <r_lp_tautomer_probability>
1

> <r_epik_Ionization_Penalty>
0.399679

> <r_epik_Ionization_Penalty_Charging>
0.399433

> <r_epik_Ionization_Penalty_Neutral>
0.000246213

> <r_epik_State_Penalty>
0.286032

> <r_epik_Charging_Adjusted_Penalty>
0.685465

> <i_epik_Tot_Q>
1

> <i_epik_Tot_abs_Q>
1

> <r_epik_Metal_State_Penalty>
0.286072

> <b_epik_Metal_Only>
0

> <s_lp_Force_Field>
OPLS_2005

> <r_lp_Energy>
46.5476

> <b_lp_Chiralities_Consistent>
1

> <s_lp_Variant>
AV-unprocessed.smi:213-8

> <Gold.Version>
5.8.1

> <Gold.Id.Protein>
6NUR|6NUR_protein|mol2

> <Gold.PLP.Fitness>
46.7749

> <Gold.PLP.PLP>
-45.6228

> <Gold.PLP.part.hbond>
-0.4665

> <Gold.PLP.part.metal>
0.0000

> <Gold.PLP.part.buried>
-3.8375

> <Gold.PLP.part.nonpolar>
-42.2999

> <Gold.PLP.part.repulsive>
0.5014

> <Gold.PLP.ligand.clash>
0.0000

> <Gold.PLP.ligand.torsion>
1.3107

> <Gold.PLP.Chemscore.Hbond>
0.0000

> <Gold.PLP.Chemscore.CHOScore>
1.0000

> <Gold.PLP.Chemscore.Metal>
0.0000

> <Gold.Chemscore.Hbonds>
donor molecule, donor type, donor heavy atom, donor atom, acceptor molecule, acceptor atom, score
      L1  C    19    47       P1  8028  1.00

> <Gold.PLP.Chemscore.Internal.Correction>
0.7734

> <Gold.Rescore>
     Score         DG    S(hbond)    S(metal)    S(lipo)     H(rot)  DE(clash)    DE(int)     intcor
      7.81     -10.72       0.00        0.00     106.58       2.83       0.51       2.39       ----

> <Gold.Chemscore.Fitness>
7.8121

> <Gold.Chemscore.DG>
-10.7167

> <Gold.Chemscore.ZeroCoef>
-5.4800

> <Gold.Chemscore.Hbond>
0.0000

> <Gold.Chemscore.Metal>
0.0000

> <Gold.Chemscore.Lipo>
106.5780

> <Gold.Chemscore.Internal_Hbond>
0.0000

> <Gold.Chemscore.DEClash>
0.5144

> <Gold.Chemscore.DEInternal>
2.3902

> <Gold.Chemscore.Rot>
2.8254

> <Gold.Chemscore.Internal.Correction>
   9.000000E+99

> <Gold.Chemscore.Hbond.Weighted>
-0.0000

> <Gold.Chemscore.Metal.Weighted>
-0.0000

> <Gold.Chemscore.Lipo.Weighted>
-12.4696

> <Gold.Chemscore.Internal_Hbond.Weighted>
0.0000

> <Gold.Chemscore.DEClash.Weighted>
0.5144

> <Gold.Chemscore.DEInternal.Weighted>
2.3902

> <Gold.Chemscore.Rot.Weighted>
7.2330

> <Gold.Chemscore.Internal.Correction.Weighted>
   9.000000E+99

> <Gold.Protein.RotatedTorsions>
[ 6907 6896 6895 6894 ] final   31.36 input  -60.11 | X-H torsion
[ 7974 7965 7964 7962 ] final -178.81 input  175.53 | X-H torsion
[ 8008 7997 7996 7995 ] final -102.79 input   59.86 | X-H torsion
[ 10167 10162 10161 10158 ] final  128.00 input  -65.29 | X-H torsion
[ 10718 10713 10712 10709 ] final -108.14 input   66.30 | X-H torsion
[ 10763 10752 10751 10750 ] final  -37.76 input  -60.55 | X-H torsion
[ 11005 11000 10999 10996 ] final  114.25 input  -57.11 | X-H torsion

> <Gold.Protein.ActiveResidues>
 VAL166  LYS551  ARG553  GLY616  TRP617  ASP618  TYR619  PRO620  LYS621  CYS622 
 ASP623  PHE694  ASN695  SER759  ASP760  ASP761  ALA762  ILE779  LEU786  VAL792 
 PHE793  MET794  SER795  GLU796  ALA797  LYS798  CYS799  TRP800  GLU811  SER814 

> <Gold.Protein.RotatedAtoms>
  152.0591  134.9605  160.0574 H   0  0  0  0  0  0  0  0  0  0  0  0  # atno 6907 bound_to 6896
  152.0976  133.4228  159.4580 H   0  0  0  0  0  0  0  0  0  0  0  0  # atno 6908 bound_to 6896
  150.6838  134.2718  159.4634 H   0  0  0  0  0  0  0  0  0  0  0  0  # atno 6909 bound_to 6896
  144.7133  140.0812  143.6425 H   0  0  0  0  0  0  0  0  0  0  0  0  # atno 7974 bound_to 7965
  154.8617  140.0426  157.1669 H   0  0  0  0  0  0  0  0  0  0  0  0  # atno 8008 bound_to 7997
  154.8833  140.2975  155.5392 H   0  0  0  0  0  0  0  0  0  0  0  0  # atno 8009 bound_to 7997
  156.2998  140.2407  156.3838 H   0  0  0  0  0  0  0  0  0  0  0  0  # atno 8010 bound_to 7997
  139.5549  144.6841  151.4212 H   0  0  0  0  0  0  0  0  0  0  0  0  # atno 10167 bound_to 10162
  156.0471  130.5698  150.7920 H   0  0  0  0  0  0  0  0  0  0  0  0  # atno 10718 bound_to 10713
  153.9016  135.6802  153.4755 H   0  0  0  0  0  0  0  0  0  0  0  0  # atno 10763 bound_to 10752
  153.1126  135.4776  154.9059 H   0  0  0  0  0  0  0  0  0  0  0  0  # atno 10764 bound_to 10752
  154.7572  135.3201  154.8401 H   0  0  0  0  0  0  0  0  0  0  0  0  # atno 10765 bound_to 10752
  139.8975  134.9564  156.6863 H   0  0  0  0  0  0  0  0  0  0  0  0  # atno 11005 bound_to 11000
  145.9700  139.2863  143.1104 LP  0  0  0  0  0  0  0  0  0  0  0  0  # atno 17320 bound_to 7965
  145.9126  140.9169  143.0446 LP  0  0  0  0  0  0  0  0  0  0  0  0  # atno 17321 bound_to 7965
  140.6820  143.8060  150.7134 LP  0  0  0  0  0  0  0  0  0  0  0  0  # atno 17342 bound_to 10162
  140.1516  143.4352  152.2127 LP  0  0  0  0  0  0  0  0  0  0  0  0  # atno 17343 bound_to 10162
  157.5358  131.0938  150.9894 LP  0  0  0  0  0  0  0  0  0  0  0  0  # atno 17370 bound_to 10713
  157.0189  130.5666  149.5329 LP  0  0  0  0  0  0  0  0  0  0  0  0  # atno 17371 bound_to 10713
  140.7259  133.9100  155.8178 LP  0  0  0  0  0  0  0  0  0  0  0  0  # atno 17394 bound_to 11000
  141.0191  134.0914  157.4140 LP  0  0  0  0  0  0  0  0  0  0  0  0  # atno 17395 bound_to 11000

$$$$
