AV-unprocessed.smi:1019|AV-procd|sdf|4448|dock10
  -GOLD-   22720 2413D 1   1.00000     0.00000
 Structure written by MMmdl.
 45 47  0  0  0  0  0  0  0  0  3 V2000
  147.9556  138.2336  154.3572 C   0  0  0  0  0  0  0  0  0  0  0  0
  147.9333  139.2268  153.2586 N   0  3  2  0  0  0  0  0  0  0  0  0
  148.1148  140.6107  153.7637 C   0  0  0  0  0  0  0  0  0  0  0  0
  149.1498  140.6824  154.8741 C   0  0  0  0  0  0  0  0  0  0  0  0
  148.8884  141.4412  156.0348 C   0  0  0  0  0  0  0  0  0  0  0  0
  149.8396  141.4985  157.0719 C   0  0  0  0  0  0  0  0  0  0  0  0
  151.0569  140.8010  156.9511 C   0  0  0  0  0  0  0  0  0  0  0  0
  151.3239  140.0474  155.7922 C   0  0  0  0  0  0  0  0  0  0  0  0
  150.3732  139.9887  154.7549 C   0  0  0  0  0  0  0  0  0  0  0  0
  146.7566  139.0660  152.3626 C   0  0  0  0  0  0  0  0  0  0  0  0
  146.5606  137.6017  151.9261 C   0  0  2  0  0  0  0  0  0  0  0  0
  146.3387  137.5716  150.5289 O   0  0  0  0  0  0  0  0  0  0  0  0
  145.3728  136.9403  152.6527 C   0  0  0  0  0  0  0  0  0  0  0  0
  144.7779  135.8367  151.8848 N   0  0  0  0  0  0  0  0  0  0  0  0
  143.6721  135.8319  151.0912 C   0  0  0  0  0  0  0  0  0  0  0  0
  143.5256  134.5725  150.5950 N   0  3  0  0  0  0  0  0  0  0  0  0
  144.5528  133.7590  151.0765 C   0  0  0  0  0  0  0  0  0  0  0  0
  144.8268  132.4129  150.8545 C   0  0  0  0  0  0  0  0  0  0  0  0
  145.9614  131.8828  151.5026 C   0  0  0  0  0  0  0  0  0  0  0  0
  146.7733  132.6827  152.3327 C   0  0  0  0  0  0  0  0  0  0  0  0
  146.4865  134.0466  152.5502 C   0  0  0  0  0  0  0  0  0  0  0  0
  145.3629  134.5642  151.9058 C   0  0  0  0  0  0  0  0  0  0  0  0
  147.1217  138.3913  155.0424 H   0  0  0  0  0  0  0  0  0  0  0  0
  148.8823  138.3109  154.9266 H   0  0  0  0  0  0  0  0  0  0  0  0
  147.8939  137.2154  153.9745 H   0  0  0  0  0  0  0  0  0  0  0  0
  148.3844  141.2750  152.9408 H   0  0  0  0  0  0  0  0  0  0  0  0
  147.1726  140.9824  154.1694 H   0  0  0  0  0  0  0  0  0  0  0  0
  147.9557  141.9768  156.1356 H   0  0  0  0  0  0  0  0  0  0  0  0
  149.6360  142.0774  157.9608 H   0  0  0  0  0  0  0  0  0  0  0  0
  151.7863  140.8458  157.7466 H   0  0  0  0  0  0  0  0  0  0  0  0
  152.2585  139.5141  155.6987 H   0  0  0  0  0  0  0  0  0  0  0  0
  150.5856  139.4063  153.8703 H   0  0  0  0  0  0  0  0  0  0  0  0
  145.8650  139.4393  152.8686 H   0  0  0  0  0  0  0  0  0  0  0  0
  146.8618  139.6762  151.4657 H   0  0  0  0  0  0  0  0  0  0  0  0
  147.4613  137.0250  152.1369 H   0  0  0  0  0  0  0  0  0  0  0  0
  145.5074  137.9819  150.3440 H   0  0  0  0  0  0  0  0  0  0  0  0
  145.7083  136.5203  153.6017 H   0  0  0  0  0  0  0  0  0  0  0  0
  144.5993  137.6681  152.8993 H   0  0  0  0  0  0  0  0  0  0  0  0
  143.0266  136.6749  150.8905 H   0  0  0  0  0  0  0  0  0  0  0  0
  144.2062  131.7976  150.2194 H   0  0  0  0  0  0  0  0  0  0  0  0
  146.2134  130.8418  151.3605 H   0  0  0  0  0  0  0  0  0  0  0  0
  147.6340  132.2406  152.8131 H   0  0  0  0  0  0  0  0  0  0  0  0
  147.1158  134.6462  153.1903 H   0  0  0  0  0  0  0  0  0  0  0  0
  148.7460  139.0406  152.6878 H   0  0  0  0  0  0  0  0  0  0  0  0
  142.7785  134.2916  149.9728 H   0  0  0  0  0  0  0  0  0  0  0  0
  1  2  1  0  0  0  0
  1 23  1  0  0  0  0
  1 24  1  0  0  0  0
  1 25  1  0  0  0  0
  2  3  1  0  0  0  0
  2 10  1  0  0  0  0
  2 44  1  0  0  0  0
  3  4  1  0  0  0  0
  3 26  1  0  0  0  0
  3 27  1  0  0  0  0
  4  9  1  0  0  0  0
  4  5  2  0  0  0  0
  5  6  1  0  0  0  0
  5 28  1  0  0  0  0
  6  7  2  0  0  0  0
  6 29  1  0  0  0  0
  7  8  1  0  0  0  0
  7 30  1  0  0  0  0
  8  9  2  0  0  0  0
  8 31  1  0  0  0  0
  9 32  1  0  0  0  0
 10 11  1  0  0  0  0
 10 33  1  0  0  0  0
 10 34  1  0  0  0  0
 11 12  1  0  0  0  0
 11 13  1  0  0  0  0
 11 35  1  0  0  0  0
 12 36  1  0  0  0  0
 13 14  1  0  0  0  0
 13 37  1  0  0  0  0
 13 38  1  0  0  0  0
 14 22  1  0  0  0  0
 14 15  1  0  0  0  0
 15 16  2  0  0  0  0
 15 39  1  0  0  0  0
 16 17  1  0  0  0  0
 16 45  1  0  0  0  0
 17 22  2  0  0  0  0
 17 18  1  0  0  0  0
 18 19  2  0  0  0  0
 18 40  1  0  0  0  0
 19 20  1  0  0  0  0
 19 41  1  0  0  0  0
 20 21  2  0  0  0  0
 20 42  1  0  0  0  0
 21 22  1  0  0  0  0
 21 43  1  0  0  0  0
M  CHG  1   2   1
M  CHG  1  16   1
M  END
> <s_m_source_file>
AV-unprocessed.smi

> <i_m_source_file_index>
1019

> <i_lp_mmshare_version>
43012

> <i_f3d_flags>
0

> <s_epik_input>
W2NIXTFbY0hdW2NIXVtjSF1bY0hdYzFbQ0gyXU4oW0NIM10pW0NIMl1bQ0BIXShbT0hdKVtDSDJdbihbY0hdbjIpYyhjMjMpW2NIXVtjSF1bY0hdW2NIXTM=

> <s_epik_cmdline>
J2VwaWtfcHl0aG9uJywgJy1waCcsICc3LjAnLCAnLXRuJywgJzgnLCAnLW1hJywgJzIwMCcsICctbWV0YWxfYmluZGluZycsICctaW1hZScsICc8aW5maWxlLm1hZT4nLCAnLW9tYWUnLCAnPG91dGZpbGUubWFlPic=

> <r_epik_Ionization_Penalty>
1.5198

> <r_epik_Ionization_Penalty_Charging>
1.5198

> <r_epik_Ionization_Penalty_Neutral>
3.13312e-06

> <r_epik_State_Penalty>
1.624

> <r_epik_Charging_Adjusted_Penalty>
3.1438

> <i_epik_Tot_Q>
2

> <i_epik_Tot_abs_Q>
2

> <r_epik_Metal_State_Penalty>
5.67392

> <b_epik_Metal_Only>
0

> <s_lp_Force_Field>
OPLS_2005

> <r_lp_Energy>
24.0682

> <b_lp_Chiralities_Consistent>
1

> <s_lp_Variant>
AV-unprocessed.smi:1019-6

> <Gold.Version>
5.8.1

> <Gold.Id.Protein>
6NUR|6NUR_protein|mol2

> <Gold.PLP.Fitness>
52.2273

> <Gold.PLP.PLP>
-39.0243

> <Gold.PLP.part.hbond>
-4.8348

> <Gold.PLP.part.metal>
0.0000

> <Gold.PLP.part.buried>
3.0433

> <Gold.PLP.part.nonpolar>
-37.1758

> <Gold.PLP.part.repulsive>
0.0601

> <Gold.PLP.ligand.clash>
0.0000

> <Gold.PLP.ligand.torsion>
1.6241

> <Gold.PLP.Chemscore.Hbond>
4.5680

> <Gold.PLP.Chemscore.CHOScore>
0.8468

> <Gold.PLP.Chemscore.Metal>
0.0000

> <Gold.Chemscore.Hbonds>
donor molecule, donor type, donor heavy atom, donor atom, acceptor molecule, acceptor atom, score
      L1  H     2    44       P1  7957  0.67
      L1  H    12    36       P1 10171  1.00
      L1  H    16    45       P1 10186  1.86
      P1  H  7954  7966       L1    12  0.93
      L1  C    15    39       P1 10171  0.83

> <Gold.PLP.Chemscore.Internal.Correction>
0.2067

> <Gold.Rescore>
     Score         DG    S(hbond)    S(metal)    S(lipo)     H(rot)  DE(clash)    DE(int)     intcor
     15.97     -19.13       2.52        0.00      98.44       2.46       1.61       1.54       ----

> <Gold.Chemscore.Fitness>
15.9737

> <Gold.Chemscore.DG>
-19.1261

> <Gold.Chemscore.ZeroCoef>
-5.4800

> <Gold.Chemscore.Hbond>
2.5193

> <Gold.Chemscore.Metal>
0.0000

> <Gold.Chemscore.Lipo>
98.4367

> <Gold.Chemscore.Internal_Hbond>
0.0000

> <Gold.Chemscore.DEClash>
1.6095

> <Gold.Chemscore.DEInternal>
1.5429

> <Gold.Chemscore.Rot>
2.4552

> <Gold.Chemscore.Internal.Correction>
   9.000000E+99

> <Gold.Chemscore.Hbonds>
donor molecule, donor type, donor heavy atom, donor atom, acceptor molecule, acceptor atom, score
      L1  H     2    44       P1  7957  0.63
      L1  H    12    36       P1 10171  1.00
      L1  H    16    45       P1 10186  0.87
      P1  H  7954  7966       L1    12  0.27

> <Gold.Chemscore.Hbond.Weighted>
-8.4144

> <Gold.Chemscore.Metal.Weighted>
-0.0000

> <Gold.Chemscore.Lipo.Weighted>
-11.5171

> <Gold.Chemscore.Internal_Hbond.Weighted>
0.0000

> <Gold.Chemscore.DEClash.Weighted>
1.6095

> <Gold.Chemscore.DEInternal.Weighted>
1.5429

> <Gold.Chemscore.Rot.Weighted>
6.2854

> <Gold.Chemscore.Internal.Correction.Weighted>
   9.000000E+99

> <Gold.Protein.RotatedTorsions>
[ 6907 6896 6895 6894 ] final -149.16 input  -60.11 | X-H torsion
[ 7974 7965 7964 7962 ] final   99.56 input  175.53 | X-H torsion
[ 8008 7997 7996 7995 ] final  159.72 input   59.86 | X-H torsion
[ 10167 10162 10161 10158 ] final   26.47 input  -65.29 | X-H torsion
[ 10718 10713 10712 10709 ] final   86.28 input   66.30 | X-H torsion
[ 10763 10752 10751 10750 ] final   19.03 input  -60.55 | X-H torsion
[ 11005 11000 10999 10996 ] final   74.87 input  -57.11 | X-H torsion

> <Gold.Protein.ActiveResidues>
 VAL166  LYS551  ARG553  GLY616  TRP617  ASP618  TYR619  PRO620  LYS621  CYS622 
 ASP623  PHE694  ASN695  SER759  ASP760  ASP761  ALA762  ILE779  LEU786  VAL792 
 PHE793  MET794  SER795  GLU796  ALA797  LYS798  CYS799  TRP800  GLU811  SER814 

> <Gold.Protein.RotatedAtoms>
  151.1801  133.4730  159.2593 H   0  0  0  0  0  0  0  0  0  0  0  0  # atno 6907 bound_to 6896
  151.1268  135.0108  159.8574 H   0  0  0  0  0  0  0  0  0  0  0  0  # atno 6908 bound_to 6896
  152.5458  134.1708  159.8649 H   0  0  0  0  0  0  0  0  0  0  0  0  # atno 6909 bound_to 6896
  145.3972  139.2353  143.3320 H   0  0  0  0  0  0  0  0  0  0  0  0  # atno 7974 bound_to 7965
  156.2220  140.1823  156.7454 H   0  0  0  0  0  0  0  0  0  0  0  0  # atno 8008 bound_to 7997
  154.5881  140.0655  156.9228 H   0  0  0  0  0  0  0  0  0  0  0  0  # atno 8009 bound_to 7997
  155.2385  140.3320  155.4297 H   0  0  0  0  0  0  0  0  0  0  0  0  # atno 8010 bound_to 7997
  140.5020  144.0300  150.6336 H   0  0  0  0  0  0  0  0  0  0  0  0  # atno 10167 bound_to 10162
  157.6926  131.0209  150.2950 H   0  0  0  0  0  0  0  0  0  0  0  0  # atno 10718 bound_to 10713
  153.1197  135.6716  153.9357 H   0  0  0  0  0  0  0  0  0  0  0  0  # atno 10763 bound_to 10752
  153.8876  135.3051  155.3448 H   0  0  0  0  0  0  0  0  0  0  0  0  # atno 10764 bound_to 10752
  154.7610  135.4988  153.9543 H   0  0  0  0  0  0  0  0  0  0  0  0  # atno 10765 bound_to 10752
  139.9370  134.7470  156.1201 H   0  0  0  0  0  0  0  0  0  0  0  0  # atno 11005 bound_to 11000
  146.2769  140.4664  142.8792 LP  0  0  0  0  0  0  0  0  0  0  0  0  # atno 17320 bound_to 7965
  144.8399  140.6840  143.6236 LP  0  0  0  0  0  0  0  0  0  0  0  0  # atno 17321 bound_to 7965
  140.3599  143.2914  152.0396 LP  0  0  0  0  0  0  0  0  0  0  0  0  # atno 17342 bound_to 10162
  139.4874  144.6311  151.7068 LP  0  0  0  0  0  0  0  0  0  0  0  0  # atno 17343 bound_to 10162
  156.3475  130.3825  149.7357 LP  0  0  0  0  0  0  0  0  0  0  0  0  # atno 17370 bound_to 10713
  156.4846  130.8057  151.3069 LP  0  0  0  0  0  0  0  0  0  0  0  0  # atno 17371 bound_to 10713
  141.0988  133.6685  156.2707 LP  0  0  0  0  0  0  0  0  0  0  0  0  # atno 17394 bound_to 11000
  140.6049  134.5517  157.5524 LP  0  0  0  0  0  0  0  0  0  0  0  0  # atno 17395 bound_to 11000

$$$$
