AV-unprocessed.smi:1130|AV-procd|sdf|4849|dock9
  -GOLD-   22720 3423D 1   1.00000     0.00000
 Structure written by MMmdl.
 36 37  0  0  0  0  0  0  0  0  1 V2000
  143.7815  144.4671  156.1995 C   0  0  0  0  0  0  0  0  0  0  0  0
  144.6764  143.7337  155.2595 C   0  0  0  0  0  0  0  0  0  0  0  0
  144.9320  144.1982  154.0425 N   0  0  0  0  0  0  0  0  0  0  0  0
  145.8023  143.2381  153.5064 O   0  0  0  0  0  0  0  0  0  0  0  0
  145.9493  142.2949  154.4678 C   0  0  0  0  0  0  0  0  0  0  0  0
  146.8696  141.1478  154.2186 C   0  0  0  0  0  0  0  0  0  0  0  0
  148.2883  141.6078  153.8454 C   0  0  0  0  0  0  0  0  0  0  0  0
  148.9771  142.2156  154.9783 N   0  0  0  0  0  0  0  0  0  0  0  0
  150.0722  141.7152  155.5671 C   0  0  0  0  0  0  0  0  0  0  0  0
  150.6330  140.6788  155.2106 O   0  0  0  0  0  0  0  0  0  0  0  0
  150.4823  142.4805  156.5880 N   0  0  0  0  0  0  0  0  0  0  0  0
  151.6601  142.2197  157.4080 C   0  0  0  0  0  0  0  0  0  0  0  0
  151.6814  143.1124  158.6592 C   0  0  1  0  0  0  0  0  0  0  0  0
  151.9915  144.5771  158.3599 C   0  0  0  0  0  0  0  0  0  0  0  0
  151.4019  145.2645  159.5702 C   0  0  0  0  0  0  0  0  0  0  0  0
  150.1413  144.4405  159.8194 C   0  0  0  0  0  0  0  0  0  0  0  0
  150.4055  143.1418  159.2940 O   0  0  0  0  0  0  0  0  0  0  0  0
  145.2832  142.5607  155.5889 N   0  0  0  0  0  0  0  0  0  0  0  0
  143.4488  145.4108  155.7662 H   0  0  0  0  0  0  0  0  0  0  0  0
  144.3078  144.6826  157.1295 H   0  0  0  0  0  0  0  0  0  0  0  0
  142.9028  143.8641  156.4294 H   0  0  0  0  0  0  0  0  0  0  0  0
  146.8931  140.5247  155.1134 H   0  0  0  0  0  0  0  0  0  0  0  0
  146.4508  140.5332  153.4207 H   0  0  0  0  0  0  0  0  0  0  0  0
  148.8783  140.7546  153.5096 H   0  0  0  0  0  0  0  0  0  0  0  0
  148.2542  142.3101  153.0106 H   0  0  0  0  0  0  0  0  0  0  0  0
  148.5889  143.0734  155.3425 H   0  0  0  0  0  0  0  0  0  0  0  0
  149.9527  143.3123  156.8036 H   0  0  0  0  0  0  0  0  0  0  0  0
  151.6272  141.1723  157.7080 H   0  0  0  0  0  0  0  0  0  0  0  0
  152.5767  142.3451  156.8289 H   0  0  0  0  0  0  0  0  0  0  0  0
  152.4087  142.7358  159.3805 H   0  0  0  0  0  0  0  0  0  0  0  0
  153.0571  144.7700  158.2340 H   0  0  0  0  0  0  0  0  0  0  0  0
  151.4747  144.9045  157.4565 H   0  0  0  0  0  0  0  0  0  0  0  0
  152.0833  145.1756  160.4174 H   0  0  0  0  0  0  0  0  0  0  0  0
  151.1945  146.3223  159.4069 H   0  0  0  0  0  0  0  0  0  0  0  0
  149.8813  144.3952  160.8772 H   0  0  0  0  0  0  0  0  0  0  0  0
  149.2929  144.8641  159.2810 H   0  0  0  0  0  0  0  0  0  0  0  0
  1  2  1  0  0  0  0
  1 19  1  0  0  0  0
  1 20  1  0  0  0  0
  1 21  1  0  0  0  0
  2 18  1  0  0  0  0
  2  3  2  0  0  0  0
  3  4  1  0  0  0  0
  4  5  1  0  0  0  0
  5  6  1  0  0  0  0
  5 18  2  0  0  0  0
  6  7  1  0  0  0  0
  6 22  1  0  0  0  0
  6 23  1  0  0  0  0
  7  8  1  0  0  0  0
  7 24  1  0  0  0  0
  7 25  1  0  0  0  0
  8  9  1  0  0  0  0
  8 26  1  0  0  0  0
  9 10  2  0  0  0  0
  9 11  1  0  0  0  0
 11 12  1  0  0  0  0
 11 27  1  0  0  0  0
 12 13  1  0  0  0  0
 12 28  1  0  0  0  0
 12 29  1  0  0  0  0
 13 17  1  0  0  0  0
 13 14  1  0  0  0  0
 13 30  1  0  0  0  0
 14 15  1  0  0  0  0
 14 31  1  0  0  0  0
 14 32  1  0  0  0  0
 15 16  1  0  0  0  0
 15 33  1  0  0  0  0
 15 34  1  0  0  0  0
 16 17  1  0  0  0  0
 16 35  1  0  0  0  0
 16 36  1  0  0  0  0
M  END
> <s_m_source_file>
AV-unprocessed.smi

> <i_m_source_file_index>
1130

> <i_lp_mmshare_version>
43012

> <i_f3d_flags>
0

> <s_epik_input>
W0NIM11jMW5vYyhuMSlbQ0gyXVtDSDJdW05IXUMoPU8pW05IXVtDSDJdW0NAQEhdMltDSDJdW0NIMl1bQ0gyXU8y

> <s_epik_cmdline>
J2VwaWtfcHl0aG9uJywgJy1waCcsICc3LjAnLCAnLXRuJywgJzgnLCAnLW1hJywgJzIwMCcsICctbWV0YWxfYmluZGluZycsICctaW1hZScsICc8aW5maWxlLm1hZT4nLCAnLW9tYWUnLCAnPG91dGZpbGUubWFlPic=

> <r_lp_tautomer_probability>
1

> <r_epik_Ionization_Penalty>
4.67036e-05

> <r_epik_Ionization_Penalty_Charging>
0

> <r_epik_Ionization_Penalty_Neutral>
4.67036e-05

> <r_epik_State_Penalty>
-0

> <r_epik_Charging_Adjusted_Penalty>
0

> <i_epik_Tot_Q>
0

> <i_epik_Tot_abs_Q>
0

> <r_epik_Metal_State_Penalty>
-0

> <b_epik_Metal_Only>
0

> <s_lp_Force_Field>
OPLS_2005

> <r_lp_Energy>
9.65739

> <b_lp_Chiralities_Consistent>
1

> <s_lp_Variant>
AV-unprocessed.smi:1130-2

> <Gold.Version>
5.8.1

> <Gold.Id.Protein>
6NUR|6NUR_protein|mol2

> <Gold.PLP.Fitness>
41.3287

> <Gold.PLP.PLP>
-34.0026

> <Gold.PLP.part.hbond>
-3.2334

> <Gold.PLP.part.metal>
0.0000

> <Gold.PLP.part.buried>
-5.4989

> <Gold.PLP.part.nonpolar>
-24.6751

> <Gold.PLP.part.repulsive>
0.9802

> <Gold.PLP.ligand.clash>
0.0000

> <Gold.PLP.ligand.torsion>
0.1982

> <Gold.PLP.Chemscore.Hbond>
2.5677

> <Gold.PLP.Chemscore.CHOScore>
0.0000

> <Gold.PLP.Chemscore.Metal>
0.0000

> <Gold.Chemscore.Hbonds>
donor molecule, donor type, donor heavy atom, donor atom, acceptor molecule, acceptor atom, score
      L1  H     8    26       P1  8028  0.91
      L1  H    11    27       P1  8028  0.58
      P1  H  7989  7998       L1    10  0.90

> <Gold.PLP.Chemscore.Internal.Correction>
0.0196

> <Gold.Rescore>
     Score         DG    S(hbond)    S(metal)    S(lipo)     H(rot)  DE(clash)    DE(int)     intcor
     14.50     -15.41       2.31        0.00      69.92       2.33       0.72       0.19       ----

> <Gold.Chemscore.Fitness>
14.5022

> <Gold.Chemscore.DG>
-15.4111

> <Gold.Chemscore.ZeroCoef>
-5.4800

> <Gold.Chemscore.Hbond>
2.3092

> <Gold.Chemscore.Metal>
0.0000

> <Gold.Chemscore.Lipo>
69.9154

> <Gold.Chemscore.Internal_Hbond>
0.0000

> <Gold.Chemscore.DEClash>
0.7222

> <Gold.Chemscore.DEInternal>
0.1866

> <Gold.Chemscore.Rot>
2.3288

> <Gold.Chemscore.Internal.Correction>
   9.000000E+99

> <Gold.Chemscore.Hbonds>
donor molecule, donor type, donor heavy atom, donor atom, acceptor molecule, acceptor atom, score
      L1  H     8    26       P1  8028  0.89
      L1  H    11    27       P1  8028  0.58
      P1  H  7989  7998       L1    10  0.73

> <Gold.Chemscore.Hbond.Weighted>
-7.7126

> <Gold.Chemscore.Metal.Weighted>
-0.0000

> <Gold.Chemscore.Lipo.Weighted>
-8.1801

> <Gold.Chemscore.Internal_Hbond.Weighted>
0.0000

> <Gold.Chemscore.DEClash.Weighted>
0.7222

> <Gold.Chemscore.DEInternal.Weighted>
0.1866

> <Gold.Chemscore.Rot.Weighted>
5.9617

> <Gold.Chemscore.Internal.Correction.Weighted>
   9.000000E+99

> <Gold.Protein.RotatedTorsions>
[ 6907 6896 6895 6894 ] final  -45.60 input  -60.11 | X-H torsion
[ 7974 7965 7964 7962 ] final   32.14 input  175.53 | X-H torsion
[ 8008 7997 7996 7995 ] final   34.17 input   59.86 | X-H torsion
[ 10167 10162 10161 10158 ] final  -87.20 input  -65.29 | X-H torsion
[ 10718 10713 10712 10709 ] final  -19.93 input   66.30 | X-H torsion
[ 10763 10752 10751 10750 ] final  -55.09 input  -60.55 | X-H torsion
[ 11005 11000 10999 10996 ] final  137.08 input  -57.11 | X-H torsion

> <Gold.Protein.ActiveResidues>
 VAL166  LYS551  ARG553  GLY616  TRP617  ASP618  TYR619  PRO620  LYS621  CYS622 
 ASP623  PHE694  ASN695  SER759  ASP760  ASP761  ALA762  ILE779  LEU786  VAL792 
 PHE793  MET794  SER795  GLU796  ALA797  LYS798  CYS799  TRP800  GLU811  SER814 

> <Gold.Protein.RotatedAtoms>
  150.9202  134.8619  159.7483 H   0  0  0  0  0  0  0  0  0  0  0  0  # atno 6907 bound_to 6896
  152.4988  134.4230  159.9497 H   0  0  0  0  0  0  0  0  0  0  0  0  # atno 6908 bound_to 6896
  151.4264  133.3643  159.2798 H   0  0  0  0  0  0  0  0  0  0  0  0  # atno 6909 bound_to 6896
  146.1505  139.6565  142.9101 H   0  0  0  0  0  0  0  0  0  0  0  0  # atno 7974 bound_to 7965
  155.1505  140.3274  155.4432 H   0  0  0  0  0  0  0  0  0  0  0  0  # atno 8008 bound_to 7997
  156.2575  140.1977  156.6567 H   0  0  0  0  0  0  0  0  0  0  0  0  # atno 8009 bound_to 7997
  154.6476  140.0562  156.9905 H   0  0  0  0  0  0  0  0  0  0  0  0  # atno 8010 bound_to 7997
  140.3867  143.2723  151.9315 H   0  0  0  0  0  0  0  0  0  0  0  0  # atno 10167 bound_to 10162
  156.5388  130.4673  149.6509 H   0  0  0  0  0  0  0  0  0  0  0  0  # atno 10718 bound_to 10713
  154.1852  135.6436  153.5045 H   0  0  0  0  0  0  0  0  0  0  0  0  # atno 10763 bound_to 10752
  153.0049  135.5415  154.6473 H   0  0  0  0  0  0  0  0  0  0  0  0  # atno 10764 bound_to 10752
  154.5847  135.2928  155.0669 H   0  0  0  0  0  0  0  0  0  0  0  0  # atno 10765 bound_to 10752
  140.0090  134.9447  157.0236 H   0  0  0  0  0  0  0  0  0  0  0  0  # atno 11005 bound_to 11000
  145.4833  141.0438  143.2633 LP  0  0  0  0  0  0  0  0  0  0  0  0  # atno 17320 bound_to 7965
  144.7899  139.6350  143.7118 LP  0  0  0  0  0  0  0  0  0  0  0  0  # atno 17321 bound_to 7965
  139.4791  144.5766  151.8001 LP  0  0  0  0  0  0  0  0  0  0  0  0  # atno 17342 bound_to 10162
  140.4881  144.1350  150.5945 LP  0  0  0  0  0  0  0  0  0  0  0  0  # atno 17343 bound_to 10162
  156.2991  130.7167  151.2034 LP  0  0  0  0  0  0  0  0  0  0  0  0  # atno 17370 bound_to 10713
  157.7409  131.0511  150.5135 LP  0  0  0  0  0  0  0  0  0  0  0  0  # atno 17371 bound_to 10713
  140.4590  134.1504  155.7189 LP  0  0  0  0  0  0  0  0  0  0  0  0  # atno 17394 bound_to 11000
  141.1697  133.8633  157.1608 LP  0  0  0  0  0  0  0  0  0  0  0  0  # atno 17395 bound_to 11000

$$$$
