AV-unprocessed.smi:76|AV-procd|sdf|768|dock9
  -GOLD-   2262017113D 1   1.00000     0.00000
 Structure written by MMmdl.
 55 58  0  0  0  0  0  0  0  0  1 V2000
  153.6058  139.9525  159.5488 C   0  0  0  0  0  0  0  0  0  0  0  0
  152.4005  140.8051  159.1008 C   0  0  1  0  0  0  0  0  0  0  0  0
  152.4969  142.2146  159.7218 C   0  0  0  0  0  0  0  0  0  0  0  0
  151.3283  143.1198  159.2847 C   0  0  1  0  0  0  0  0  0  0  0  0
  151.4160  144.5289  159.9043 C   0  0  0  0  0  0  0  0  0  0  0  0
  152.2235  145.3135  159.1900 F   0  0  0  0  0  0  0  0  0  0  0  0
  150.2042  145.0826  159.9474 F   0  0  0  0  0  0  0  0  0  0  0  0
  151.8822  144.4508  161.1506 F   0  0  0  0  0  0  0  0  0  0  0  0
  151.2785  143.1616  157.7462 C   0  0  0  0  0  0  0  0  0  0  0  0
  151.1876  141.7449  157.1620 C   0  0  0  0  0  0  0  0  0  0  0  0
  152.2851  140.9061  157.6388 N   0  0  0  0  0  0  0  0  0  0  0  0
  152.3261  139.7354  156.9644 C   0  0  0  0  0  0  0  0  0  0  0  0
  153.2072  139.6435  155.9387 N   0  0  0  0  0  0  0  0  0  0  0  0
  153.3038  138.5067  155.2428 C   0  0  0  0  0  0  0  0  0  0  0  0
  152.6221  137.3701  155.4021 N   0  0  0  0  0  0  0  0  0  0  0  0
  151.7241  137.4657  156.4245 C   0  0  0  0  0  0  0  0  0  0  0  0
  151.5149  138.6023  157.2547 C   0  0  0  0  0  0  0  0  0  0  0  0
  150.5299  138.3284  158.1952 N   0  0  0  0  0  0  0  0  0  0  0  0
  150.1800  137.0980  157.9382 C   0  0  0  0  0  0  0  0  0  0  0  0
  150.8329  136.5078  156.8784 N   0  0  0  0  0  0  0  0  0  0  0  0
  150.6416  135.1515  156.3827 C   0  0  0  0  0  0  0  0  0  0  0  0
  149.3551  134.9346  155.5233 C   0  0  0  0  0  0  0  0  0  0  0  0
  148.8424  136.2801  154.9445 C   0  0  0  0  0  0  0  0  0  0  0  0
  147.7897  136.1004  154.0184 O   0  0  0  0  0  0  0  0  0  0  0  0
  149.6493  133.9542  154.3601 C   0  0  0  0  0  0  0  0  0  0  0  0
  149.8425  132.5014  154.8346 C   0  0  0  0  0  0  0  0  0  0  0  0
  148.7073  132.0714  155.5754 O   0  0  0  0  0  0  0  0  0  0  0  0
  148.4810  132.8490  156.7441 C   0  0  0  0  0  0  0  0  0  0  0  0
  148.2019  134.3095  156.3484 C   0  0  0  0  0  0  0  0  0  0  0  0
  153.6918  139.9403  160.6355 H   0  0  0  0  0  0  0  0  0  0  0  0
  154.5400  140.3463  159.1468 H   0  0  0  0  0  0  0  0  0  0  0  0
  153.5150  138.9147  159.2277 H   0  0  0  0  0  0  0  0  0  0  0  0
  151.4921  140.3368  159.4812 H   0  0  0  0  0  0  0  0  0  0  0  0
  152.5138  142.1336  160.8092 H   0  0  0  0  0  0  0  0  0  0  0  0
  153.4424  142.6765  159.4339 H   0  0  0  0  0  0  0  0  0  0  0  0
  150.4023  142.6624  159.6369 H   0  0  0  0  0  0  0  0  0  0  0  0
  150.4237  143.7491  157.4104 H   0  0  0  0  0  0  0  0  0  0  0  0
  152.1687  143.6586  157.3584 H   0  0  0  0  0  0  0  0  0  0  0  0
  150.2345  141.2936  157.4417 H   0  0  0  0  0  0  0  0  0  0  0  0
  151.2064  141.7980  156.0721 H   0  0  0  0  0  0  0  0  0  0  0  0
  154.0316  138.5079  154.4446 H   0  0  0  0  0  0  0  0  0  0  0  0
  149.4246  136.5858  158.5161 H   0  0  0  0  0  0  0  0  0  0  0  0
  151.5262  134.8761  155.8076 H   0  0  0  0  0  0  0  0  0  0  0  0
  150.6508  134.4900  157.2477 H   0  0  0  0  0  0  0  0  0  0  0  0
  148.4719  136.9234  155.7435 H   0  0  0  0  0  0  0  0  0  0  0  0
  149.6469  136.8320  154.4582 H   0  0  0  0  0  0  0  0  0  0  0  0
  148.1487  136.1494  153.1449 H   0  0  0  0  0  0  0  0  0  0  0  0
  148.8194  133.9708  153.6520 H   0  0  0  0  0  0  0  0  0  0  0  0
  150.5279  134.2759  153.8001 H   0  0  0  0  0  0  0  0  0  0  0  0
  149.9606  131.8452  153.9720 H   0  0  0  0  0  0  0  0  0  0  0  0
  150.7467  132.3901  155.4334 H   0  0  0  0  0  0  0  0  0  0  0  0
  147.6206  132.4387  157.2727 H   0  0  0  0  0  0  0  0  0  0  0  0
  149.3305  132.7693  157.4226 H   0  0  0  0  0  0  0  0  0  0  0  0
  147.9789  134.9052  157.2327 H   0  0  0  0  0  0  0  0  0  0  0  0
  147.2860  134.3210  155.7555 H   0  0  0  0  0  0  0  0  0  0  0  0
  1  2  1  0  0  0  0
  1 30  1  0  0  0  0
  1 31  1  0  0  0  0
  1 32  1  0  0  0  0
  2 11  1  0  0  0  0
  2  3  1  0  0  0  0
  2 33  1  0  0  0  0
  3  4  1  0  0  0  0
  3 34  1  0  0  0  0
  3 35  1  0  0  0  0
  4  5  1  0  0  0  0
  4  9  1  0  0  0  0
  4 36  1  0  0  0  0
  5  6  1  0  0  0  0
  5  7  1  0  0  0  0
  5  8  1  0  0  0  0
  9 10  1  0  0  0  0
  9 37  1  0  0  0  0
  9 38  1  0  0  0  0
 10 11  1  0  0  0  0
 10 39  1  0  0  0  0
 10 40  1  0  0  0  0
 11 12  1  0  0  0  0
 12 17  1  0  0  0  0
 12 13  2  0  0  0  0
 13 14  1  0  0  0  0
 14 15  2  0  0  0  0
 14 41  1  0  0  0  0
 15 16  1  0  0  0  0
 16 20  1  0  0  0  0
 16 17  2  0  0  0  0
 17 18  1  0  0  0  0
 18 19  2  0  0  0  0
 19 20  1  0  0  0  0
 19 42  1  0  0  0  0
 20 21  1  0  0  0  0
 21 22  1  0  0  0  0
 21 43  1  0  0  0  0
 21 44  1  0  0  0  0
 22 29  1  0  0  0  0
 22 23  1  0  0  0  0
 22 25  1  0  0  0  0
 23 24  1  0  0  0  0
 23 45  1  0  0  0  0
 23 46  1  0  0  0  0
 24 47  1  0  0  0  0
 25 26  1  0  0  0  0
 25 48  1  0  0  0  0
 25 49  1  0  0  0  0
 26 27  1  0  0  0  0
 26 50  1  0  0  0  0
 26 51  1  0  0  0  0
 27 28  1  0  0  0  0
 28 29  1  0  0  0  0
 28 52  1  0  0  0  0
 28 53  1  0  0  0  0
 29 54  1  0  0  0  0
 29 55  1  0  0  0  0
M  END
> <s_m_source_file>
AV-unprocessed.smi

> <i_m_source_file_index>
76

> <i_lp_mmshare_version>
43012

> <i_f3d_flags>
0

> <s_epik_input>
W0NIM11bQ0BASF0xW0NIMl1bQ0BASF0oQyhGKShGKUYpW0NIMl1bQ0gyXU4xYyhuW2NIXW4yKWMoYzIzKW5bY0hdbjNbQ0gyXUM0KFtDSDJdW09IXSlbQ0gyXVtDSDJdT1tDSDJdW0NIMl00

> <s_epik_cmdline>
J2VwaWtfcHl0aG9uJywgJy1waCcsICc3LjAnLCAnLXRuJywgJzgnLCAnLW1hJywgJzIwMCcsICctbWV0YWxfYmluZGluZycsICctaW1hZScsICc8aW5maWxlLm1hZT4nLCAnLW9tYWUnLCAnPG91dGZpbGUubWFlPic=

> <r_lp_tautomer_probability>
1

> <r_epik_Ionization_Penalty>
0.00244097

> <r_epik_Ionization_Penalty_Charging>
0

> <r_epik_Ionization_Penalty_Neutral>
0.00244097

> <r_epik_State_Penalty>
0.00151846

> <r_epik_Charging_Adjusted_Penalty>
0.00151846

> <i_epik_Tot_Q>
0

> <i_epik_Tot_abs_Q>
0

> <r_epik_Metal_State_Penalty>
-0

> <b_epik_Metal_Only>
0

> <s_lp_Force_Field>
OPLS_2005

> <r_lp_Energy>
36.6064

> <b_lp_Chiralities_Consistent>
1

> <s_lp_Variant>
AV-unprocessed.smi:76-2

> <Gold.Version>
5.8.1

> <Gold.Id.Protein>
6NUR|6NUR_protein|mol2

> <Gold.PLP.Fitness>
50.5262

> <Gold.PLP.PLP>
-47.4058

> <Gold.PLP.part.hbond>
-3.1629

> <Gold.PLP.part.metal>
0.0000

> <Gold.PLP.part.buried>
-5.5512

> <Gold.PLP.part.nonpolar>
-39.0588

> <Gold.PLP.part.repulsive>
0.0400

> <Gold.PLP.ligand.clash>
0.9437

> <Gold.PLP.ligand.torsion>
2.1073

> <Gold.PLP.Chemscore.Hbond>
2.6880

> <Gold.PLP.Chemscore.CHOScore>
0.0000

> <Gold.PLP.Chemscore.Metal>
0.0000

> <Gold.Chemscore.Hbonds>
donor molecule, donor type, donor heavy atom, donor atom, acceptor molecule, acceptor atom, score
      L1  H    24    47       P1  7948  0.96
      P1  H  7997  8008       L1    13  0.46
      P1  H 10752 10763       L1    15  0.58

> <Gold.PLP.Chemscore.Internal.Correction>
0.2146

> <Gold.Rescore>
     Score         DG    S(hbond)    S(metal)    S(lipo)     H(rot)  DE(clash)    DE(int)     intcor
     15.65     -17.75       2.62        0.00      84.20       2.47       0.01       2.09       ----

> <Gold.Chemscore.Fitness>
15.6537

> <Gold.Chemscore.DG>
-17.7522

> <Gold.Chemscore.ZeroCoef>
-5.4800

> <Gold.Chemscore.Hbond>
2.6151

> <Gold.Chemscore.Metal>
0.0000

> <Gold.Chemscore.Lipo>
84.2042

> <Gold.Chemscore.Internal_Hbond>
0.0000

> <Gold.Chemscore.DEClash>
0.0110

> <Gold.Chemscore.DEInternal>
2.0875

> <Gold.Chemscore.Rot>
2.4665

> <Gold.Chemscore.Internal.Correction>
   9.000000E+99

> <Gold.Chemscore.Hbonds>
donor molecule, donor type, donor heavy atom, donor atom, acceptor molecule, acceptor atom, score
      L1  H    24    47       P1  7948  0.91
      P1  H  7997  8008       L1    13  0.23
      P1  H 10752 10763       L1    15  0.53

> <Gold.Chemscore.Hbond.Weighted>
-8.7345

> <Gold.Chemscore.Metal.Weighted>
-0.0000

> <Gold.Chemscore.Lipo.Weighted>
-9.8519

> <Gold.Chemscore.Internal_Hbond.Weighted>
0.0000

> <Gold.Chemscore.DEClash.Weighted>
0.0110

> <Gold.Chemscore.DEInternal.Weighted>
2.0875

> <Gold.Chemscore.Rot.Weighted>
6.3142

> <Gold.Chemscore.Internal.Correction.Weighted>
   9.000000E+99

> <Gold.Protein.RotatedTorsions>
[ 6907 6896 6895 6894 ] final   55.58 input  -60.11 | X-H torsion
[ 7974 7965 7964 7962 ] final   12.48 input  175.53 | X-H torsion
[ 8008 7997 7996 7995 ] final  -48.18 input   59.86 | X-H torsion
[ 10167 10162 10161 10158 ] final   41.37 input  -65.29 | X-H torsion
[ 10718 10713 10712 10709 ] final  -69.89 input   66.30 | X-H torsion
[ 10763 10752 10751 10750 ] final   70.72 input  -60.55 | X-H torsion
[ 11005 11000 10999 10996 ] final   32.03 input  -57.11 | X-H torsion

> <Gold.Protein.ActiveResidues>
 VAL166  LYS551  ARG553  GLY616  TRP617  ASP618  TYR619  PRO620  LYS621  CYS622 
 ASP623  PHE694  ASN695  SER759  ASP760  ASP761  ALA762  ILE779  LEU786  VAL792 
 PHE793  MET794  SER795  GLU796  ALA797  LYS798  CYS799  TRP800  GLU811  SER814 

> <Gold.Protein.RotatedAtoms>
  152.3553  134.6949  160.0223 H   0  0  0  0  0  0  0  0  0  0  0  0  # atno 6907 bound_to 6896
  151.7290  133.3311  159.3343 H   0  0  0  0  0  0  0  0  0  0  0  0  # atno 6908 bound_to 6896
  150.7567  134.6314  159.6233 H   0  0  0  0  0  0  0  0  0  0  0  0  # atno 6909 bound_to 6896
  146.2350  139.9331  142.8493 H   0  0  0  0  0  0  0  0  0  0  0  0  # atno 7974 bound_to 7965
  154.4025  140.1328  156.4296 H   0  0  0  0  0  0  0  0  0  0  0  0  # atno 8008 bound_to 7997
  155.7563  140.3487  155.5155 H   0  0  0  0  0  0  0  0  0  0  0  0  # atno 8009 bound_to 7997
  155.8901  140.1002  157.1415 H   0  0  0  0  0  0  0  0  0  0  0  0  # atno 8010 bound_to 7997
  140.3650  144.2179  150.6136 H   0  0  0  0  0  0  0  0  0  0  0  0  # atno 10167 bound_to 10162
  156.0433  130.4321  150.2215 H   0  0  0  0  0  0  0  0  0  0  0  0  # atno 10718 bound_to 10713
  153.0357  135.5163  154.7484 H   0  0  0  0  0  0  0  0  0  0  0  0  # atno 10763 bound_to 10752
  154.6462  135.2919  155.0046 H   0  0  0  0  0  0  0  0  0  0  0  0  # atno 10764 bound_to 10752
  154.0946  135.6645  153.4910 H   0  0  0  0  0  0  0  0  0  0  0  0  # atno 10765 bound_to 10752
  140.2777  134.3009  155.7809 H   0  0  0  0  0  0  0  0  0  0  0  0  # atno 11005 bound_to 11000
  145.2025  140.9861  143.4147 LP  0  0  0  0  0  0  0  0  0  0  0  0  # atno 17320 bound_to 7965
  144.9761  139.3830  143.6285 LP  0  0  0  0  0  0  0  0  0  0  0  0  # atno 17321 bound_to 7965
  140.5089  143.2296  151.8565 LP  0  0  0  0  0  0  0  0  0  0  0  0  # atno 17342 bound_to 10162
  139.4810  144.4972  151.9107 LP  0  0  0  0  0  0  0  0  0  0  0  0  # atno 17343 bound_to 10162
  157.0307  131.0006  151.3313 LP  0  0  0  0  0  0  0  0  0  0  0  0  # atno 17370 bound_to 10713
  157.5279  130.8040  149.7883 LP  0  0  0  0  0  0  0  0  0  0  0  0  # atno 17371 bound_to 10713
  141.2168  133.7506  156.9432 LP  0  0  0  0  0  0  0  0  0  0  0  0  # atno 17394 bound_to 11000
  140.1313  134.9354  157.2341 LP  0  0  0  0  0  0  0  0  0  0  0  0  # atno 17395 bound_to 11000

$$$$
