AV-unprocessed.smi:910|AV-procd|sdf|4117|dock7
  -GOLD-   22720 2 13D 1   1.00000     0.00000
 Structure written by MMmdl.
 46 47  0  0  0  0  0  0  0  0  1 V2000
  145.9049  129.3511  152.2438 C   0  0  0  0  0  0  0  0  0  0  0  0
  146.2498  130.7915  152.0296 C   0  0  0  0  0  0  0  0  0  0  0  0
  147.1338  131.4713  152.8555 N   0  0  0  0  0  0  0  0  0  0  0  0
  147.1801  132.7060  152.3524 C   0  0  0  0  0  0  0  0  0  0  0  0
  147.9432  133.7919  152.8487 N   0  0  0  0  0  0  0  0  0  0  0  0
  148.4039  133.9643  154.0986 C   0  0  0  0  0  0  0  0  0  0  0  0
  148.2719  133.1603  155.0218 O   0  0  0  0  0  0  0  0  0  0  0  0
  149.0264  135.1445  154.2270 N   0  0  0  0  0  0  0  0  0  0  0  0
  149.5625  135.6865  155.4717 C   0  0  0  0  0  0  0  0  0  0  0  0
  150.5374  136.8456  155.2137 C   0  0  0  0  0  0  0  0  0  0  0  0
  150.6155  137.6400  156.3878 O   0  0  0  0  0  0  0  0  0  0  0  0
  151.7329  138.5185  156.4383 C   0  0  1  0  0  0  0  0  0  0  0  0
  151.7699  139.4011  155.1744 C   0  0  0  0  0  0  0  0  0  0  0  0
  150.5609  140.3489  155.1062 C   0  0  0  0  0  0  0  0  0  0  0  0
  150.4504  141.2038  156.3779 C   0  0  0  0  0  0  0  0  0  0  0  0
  150.4006  140.3259  157.6387 C   0  0  0  0  0  0  0  0  0  0  0  0
  151.6143  139.3781  157.7161 C   0  0  1  0  0  0  0  0  0  0  0  0
  151.5860  138.5141  158.9877 C   0  0  0  0  0  0  0  0  0  0  0  0
  146.3922  132.8847  151.2591 O   0  0  0  0  0  0  0  0  0  0  0  0
  145.8061  131.6621  151.0666 C   0  0  0  0  0  0  0  0  0  0  0  0
  144.8609  131.5161  149.9229 C   0  0  0  0  0  0  0  0  0  0  0  0
  144.8648  129.2391  152.5498 H   0  0  0  0  0  0  0  0  0  0  0  0
  146.5278  128.9000  153.0169 H   0  0  0  0  0  0  0  0  0  0  0  0
  146.0451  128.7742  151.3297 H   0  0  0  0  0  0  0  0  0  0  0  0
  148.1322  134.5310  152.1883 H   0  0  0  0  0  0  0  0  0  0  0  0
  149.0909  135.7380  153.4130 H   0  0  0  0  0  0  0  0  0  0  0  0
  148.7474  136.0113  156.1200 H   0  0  0  0  0  0  0  0  0  0  0  0
  150.0786  134.8822  155.9964 H   0  0  0  0  0  0  0  0  0  0  0  0
  151.5211  136.4535  154.9518 H   0  0  0  0  0  0  0  0  0  0  0  0
  150.1924  137.4446  154.3708 H   0  0  0  0  0  0  0  0  0  0  0  0
  152.6588  137.9441  156.5035 H   0  0  0  0  0  0  0  0  0  0  0  0
  152.6865  139.9919  155.1770 H   0  0  0  0  0  0  0  0  0  0  0  0
  151.8113  138.7852  154.2763 H   0  0  0  0  0  0  0  0  0  0  0  0
  150.6446  140.9943  154.2315 H   0  0  0  0  0  0  0  0  0  0  0  0
  149.6469  139.7683  154.9752 H   0  0  0  0  0  0  0  0  0  0  0  0
  151.3034  141.8809  156.4380 H   0  0  0  0  0  0  0  0  0  0  0  0
  149.5607  141.8316  156.3271 H   0  0  0  0  0  0  0  0  0  0  0  0
  150.3679  140.9619  158.5238 H   0  0  0  0  0  0  0  0  0  0  0  0
  149.4765  139.7462  157.6431 H   0  0  0  0  0  0  0  0  0  0  0  0
  152.5094  139.9991  157.7747 H   0  0  0  0  0  0  0  0  0  0  0  0
  150.7009  137.8781  159.0203 H   0  0  0  0  0  0  0  0  0  0  0  0
  151.5799  139.1352  159.8834 H   0  0  0  0  0  0  0  0  0  0  0  0
  152.4611  137.8660  159.0423 H   0  0  0  0  0  0  0  0  0  0  0  0
  145.3395  130.9982  149.0918 H   0  0  0  0  0  0  0  0  0  0  0  0
  144.5240  132.4895  149.5662 H   0  0  0  0  0  0  0  0  0  0  0  0
  143.9820  130.9428  150.2182 H   0  0  0  0  0  0  0  0  0  0  0  0
  1  2  1  0  0  0  0
  1 22  1  0  0  0  0
  1 23  1  0  0  0  0
  1 24  1  0  0  0  0
  2 20  2  0  0  0  0
  2  3  1  0  0  0  0
  3  4  2  0  0  0  0
  4  5  1  0  0  0  0
  4 19  1  0  0  0  0
  5  6  1  0  0  0  0
  5 25  1  0  0  0  0
  6  7  2  0  0  0  0
  6  8  1  0  0  0  0
  8  9  1  0  0  0  0
  8 26  1  0  0  0  0
  9 10  1  0  0  0  0
  9 27  1  0  0  0  0
  9 28  1  0  0  0  0
 10 11  1  0  0  0  0
 10 29  1  0  0  0  0
 10 30  1  0  0  0  0
 11 12  1  0  0  0  0
 12 17  1  0  0  0  0
 12 13  1  0  0  0  0
 12 31  1  0  0  0  0
 13 14  1  0  0  0  0
 13 32  1  0  0  0  0
 13 33  1  0  0  0  0
 14 15  1  0  0  0  0
 14 34  1  0  0  0  0
 14 35  1  0  0  0  0
 15 16  1  0  0  0  0
 15 36  1  0  0  0  0
 15 37  1  0  0  0  0
 16 17  1  0  0  0  0
 16 38  1  0  0  0  0
 16 39  1  0  0  0  0
 17 18  1  0  0  0  0
 17 40  1  0  0  0  0
 18 41  1  0  0  0  0
 18 42  1  0  0  0  0
 18 43  1  0  0  0  0
 19 20  1  0  0  0  0
 20 21  1  0  0  0  0
 21 44  1  0  0  0  0
 21 45  1  0  0  0  0
 21 46  1  0  0  0  0
M  END
> <s_m_source_file>
AV-unprocessed.smi

> <i_m_source_file_index>
910

> <i_lp_mmshare_version>
43012

> <i_f3d_flags>
0

> <s_epik_input>
W0NIM11jMW5jKG9jMVtDSDNdKVtOSF1DKD1PKVtOSF1bQ0gyXVtDSDJdT1tDQEBIXTJbQ0gyXVtDSDJdW0NIMl1bQ0gyXVtDQEhdMltDSDNd

> <s_epik_cmdline>
J2VwaWtfcHl0aG9uJywgJy1waCcsICc3LjAnLCAnLXRuJywgJzgnLCAnLW1hJywgJzIwMCcsICctbWV0YWxfYmluZGluZycsICctaW1hZScsICc8aW5maWxlLm1hZT4nLCAnLW9tYWUnLCAnPG91dGZpbGUubWFlPic=

> <r_lp_tautomer_probability>
0.785861

> <r_epik_Ionization_Penalty>
4.15957e-05

> <r_epik_Ionization_Penalty_Charging>
0

> <r_epik_Ionization_Penalty_Neutral>
4.15957e-05

> <r_epik_State_Penalty>
0.0240523

> <r_epik_Charging_Adjusted_Penalty>
0.0240523

> <i_epik_Tot_Q>
0

> <i_epik_Tot_abs_Q>
0

> <r_epik_Metal_State_Penalty>
0.057053

> <b_epik_Metal_Only>
0

> <s_lp_Force_Field>
OPLS_2005

> <r_lp_Energy>
9.72379

> <b_lp_Chiralities_Consistent>
1

> <s_lp_Variant>
AV-unprocessed.smi:910-2

> <Gold.Version>
5.8.1

> <Gold.Id.Protein>
6NUR|6NUR_protein|mol2

> <Gold.PLP.Fitness>
40.4590

> <Gold.PLP.PLP>
-35.2624

> <Gold.PLP.part.hbond>
-2.0000

> <Gold.PLP.part.metal>
0.0000

> <Gold.PLP.part.buried>
-4.8159

> <Gold.PLP.part.nonpolar>
-28.4983

> <Gold.PLP.part.repulsive>
0.2939

> <Gold.PLP.ligand.clash>
0.0000

> <Gold.PLP.ligand.torsion>
0.4172

> <Gold.PLP.Chemscore.Hbond>
2.0000

> <Gold.PLP.Chemscore.CHOScore>
0.0000

> <Gold.PLP.Chemscore.Metal>
0.0000

> <Gold.Chemscore.Hbonds>
donor molecule, donor type, donor heavy atom, donor atom, acceptor molecule, acceptor atom, score
      L1  H     5    25       P1  7948  0.82
      L1  H     8    26       P1  7948  1.00

> <Gold.PLP.Chemscore.Internal.Correction>
0.0312

> <Gold.Rescore>
     Score         DG    S(hbond)    S(metal)    S(lipo)     H(rot)  DE(clash)    DE(int)     intcor
     14.94     -16.30       1.67        0.00      81.02       1.66       0.04       1.32       ----

> <Gold.Chemscore.Fitness>
14.9412

> <Gold.Chemscore.DG>
-16.3001

> <Gold.Chemscore.ZeroCoef>
-5.4800

> <Gold.Chemscore.Hbond>
1.6720

> <Gold.Chemscore.Metal>
0.0000

> <Gold.Chemscore.Lipo>
81.0182

> <Gold.Chemscore.Internal_Hbond>
0.0000

> <Gold.Chemscore.DEClash>
0.0404

> <Gold.Chemscore.DEInternal>
1.3185

> <Gold.Chemscore.Rot>
1.6576

> <Gold.Chemscore.Internal.Correction>
   9.000000E+99

> <Gold.Chemscore.Hbonds>
donor molecule, donor type, donor heavy atom, donor atom, acceptor molecule, acceptor atom, score
      L1  H     5    25       P1  7948  0.14
      L1  H     8    26       P1  7948  0.73

> <Gold.Chemscore.Hbond.Weighted>
-5.5846

> <Gold.Chemscore.Metal.Weighted>
-0.0000

> <Gold.Chemscore.Lipo.Weighted>
-9.4791

> <Gold.Chemscore.Internal_Hbond.Weighted>
0.0000

> <Gold.Chemscore.DEClash.Weighted>
0.0404

> <Gold.Chemscore.DEInternal.Weighted>
1.3185

> <Gold.Chemscore.Rot.Weighted>
4.2436

> <Gold.Chemscore.Internal.Correction.Weighted>
   9.000000E+99

> <Gold.Protein.RotatedTorsions>
[ 6907 6896 6895 6894 ] final  -97.19 input  -60.11 | X-H torsion
[ 7974 7965 7964 7962 ] final -173.63 input  175.53 | X-H torsion
[ 8008 7997 7996 7995 ] final   38.21 input   59.86 | X-H torsion
[ 10167 10162 10161 10158 ] final   19.30 input  -65.29 | X-H torsion
[ 10718 10713 10712 10709 ] final   82.59 input   66.30 | X-H torsion
[ 10763 10752 10751 10750 ] final -169.27 input  -60.55 | X-H torsion
[ 11005 11000 10999 10996 ] final   52.80 input  -57.11 | X-H torsion

> <Gold.Protein.ActiveResidues>
 VAL166  LYS551  ARG553  GLY616  TRP617  ASP618  TYR619  PRO620  LYS621  CYS622 
 ASP623  PHE694  ASN695  SER759  ASP760  ASP761  ALA762  ILE779  LEU786  VAL792 
 PHE793  MET794  SER795  GLU796  ALA797  LYS798  CYS799  TRP800  GLU811  SER814 

> <Gold.Protein.RotatedAtoms>
  150.7009  134.1386  159.4096 H   0  0  0  0  0  0  0  0  0  0  0  0  # atno 6907 bound_to 6896
  151.9371  135.0228  160.0542 H   0  0  0  0  0  0  0  0  0  0  0  0  # atno 6908 bound_to 6896
  152.2126  133.4887  159.5155 H   0  0  0  0  0  0  0  0  0  0  0  0  # atno 6909 bound_to 6896
  144.7136  140.1593  143.6377 H   0  0  0  0  0  0  0  0  0  0  0  0  # atno 7974 bound_to 7965
  155.2164  140.3327  155.4321 H   0  0  0  0  0  0  0  0  0  0  0  0  # atno 8008 bound_to 7997
  156.2350  140.1868  156.7190 H   0  0  0  0  0  0  0  0  0  0  0  0  # atno 8009 bound_to 7997
  154.6044  140.0618  156.9397 H   0  0  0  0  0  0  0  0  0  0  0  0  # atno 8010 bound_to 7997
  140.5589  143.9373  150.6629 H   0  0  0  0  0  0  0  0  0  0  0  0  # atno 10167 bound_to 10162
  157.6860  131.0054  150.2398 H   0  0  0  0  0  0  0  0  0  0  0  0  # atno 10718 bound_to 10713
  154.6541  135.2915  154.9950 H   0  0  0  0  0  0  0  0  0  0  0  0  # atno 10763 bound_to 10752
  154.1032  135.6573  153.4876 H   0  0  0  0  0  0  0  0  0  0  0  0  # atno 10764 bound_to 10752
  153.0392  135.5247  154.7462 H   0  0  0  0  0  0  0  0  0  0  0  0  # atno 10765 bound_to 10752
  140.0820  134.5326  155.8937 H   0  0  0  0  0  0  0  0  0  0  0  0  # atno 11005 bound_to 11000
  145.9045  139.2450  143.1474 LP  0  0  0  0  0  0  0  0  0  0  0  0  # atno 17320 bound_to 7965
  145.9777  140.8708  143.0130 LP  0  0  0  0  0  0  0  0  0  0  0  0  # atno 17321 bound_to 7965
  140.2818  143.3384  152.1144 LP  0  0  0  0  0  0  0  0  0  0  0  0  # atno 17342 bound_to 10162
  139.5061  144.6807  151.6015 LP  0  0  0  0  0  0  0  0  0  0  0  0  # atno 17343 bound_to 10162
  156.3014  130.3759  149.7747 LP  0  0  0  0  0  0  0  0  0  0  0  0  # atno 17370 bound_to 10713
  156.5375  130.8285  151.3258 LP  0  0  0  0  0  0  0  0  0  0  0  0  # atno 17371 bound_to 10713
  141.2050  133.6643  156.6152 LP  0  0  0  0  0  0  0  0  0  0  0  0  # atno 17394 bound_to 11000
  140.3475  134.7797  157.4442 LP  0  0  0  0  0  0  0  0  0  0  0  0  # atno 17395 bound_to 11000

$$$$
