AV-unprocessed.smi:1180|AV-procd|sdf|4964|dock10
  -GOLD-   22720 3553D 1   1.00000     0.00000
 Structure written by MMmdl.
 37 38  0  0  0  0  0  0  0  0  2 V2000
  153.7643  134.8914  158.3832 C   0  0  0  0  0  0  0  0  0  0  0  0
  152.7907  135.9679  157.9530 C   0  0  0  0  0  0  0  0  0  0  0  0
  152.8682  136.4414  156.7680 N   0  0  0  0  0  0  0  0  0  0  0  0
  151.9709  137.4443  156.3636 C   0  0  0  0  0  0  0  0  0  0  0  0
  152.1398  137.9508  154.9421 C   0  0  0  0  0  0  0  0  0  0  0  0
  151.0168  137.9217  157.2133 C   0  0  0  0  0  0  0  0  0  0  0  0
  150.0189  139.0142  156.8274 C   0  0  0  0  0  0  0  0  0  0  0  0
  150.6120  140.3580  156.3953 C   0  0  0  0  0  0  0  0  0  0  0  0
  151.0337  140.5249  155.2504 O   0  0  0  0  0  0  0  0  0  0  0  0
  150.6393  141.3148  157.3351 N   0  0  0  0  0  0  0  0  0  0  0  0
  151.1535  142.6663  157.1420 C   0  0  0  0  0  0  0  0  0  0  0  0
  151.1678  143.4751  158.4535 C   0  0  2  0  0  0  0  0  0  0  0  0
  151.7689  144.8694  158.3130 C   0  0  0  0  0  0  0  0  0  0  0  0
  152.5914  145.0627  159.5914 C   0  0  0  0  0  0  0  0  0  0  0  0
  152.2586  143.9613  160.4241 O   0  0  0  0  0  0  0  0  0  0  0  0
  152.0017  142.8564  159.5750 C   0  0  0  0  0  0  0  0  0  0  0  0
  150.9559  137.3441  158.5677 C   0  0  0  0  0  0  0  0  0  0  0  0
  150.1036  137.7282  159.3678 O   0  0  0  0  0  0  0  0  0  0  0  0
  151.8670  136.3809  158.8870 N   0  5  0  0  0  0  0  0  0  0  0  0
  154.2511  134.4359  157.5198 H   0  0  0  0  0  0  0  0  0  0  0  0
  153.2477  134.1050  158.9347 H   0  0  0  0  0  0  0  0  0  0  0  0
  154.5337  135.3179  159.0270 H   0  0  0  0  0  0  0  0  0  0  0  0
  152.4581  138.9934  154.9449 H   0  0  0  0  0  0  0  0  0  0  0  0
  151.2020  137.8745  154.3916 H   0  0  0  0  0  0  0  0  0  0  0  0
  152.8907  137.3718  154.4033 H   0  0  0  0  0  0  0  0  0  0  0  0
  149.3531  138.6542  156.0418 H   0  0  0  0  0  0  0  0  0  0  0  0
  149.3634  139.2043  157.6770 H   0  0  0  0  0  0  0  0  0  0  0  0
  150.2708  141.0915  158.2481 H   0  0  0  0  0  0  0  0  0  0  0  0
  152.1642  142.5869  156.7410 H   0  0  0  0  0  0  0  0  0  0  0  0
  150.5623  143.1842  156.3849 H   0  0  0  0  0  0  0  0  0  0  0  0
  150.1459  143.5885  158.8197 H   0  0  0  0  0  0  0  0  0  0  0  0
  152.4122  144.9530  157.4363 H   0  0  0  0  0  0  0  0  0  0  0  0
  150.9844  145.6213  158.2209 H   0  0  0  0  0  0  0  0  0  0  0  0
  153.6587  145.0323  159.3672 H   0  0  0  0  0  0  0  0  0  0  0  0
  152.3761  146.0086  160.0887 H   0  0  0  0  0  0  0  0  0  0  0  0
  151.4753  142.0598  160.1018 H   0  0  0  0  0  0  0  0  0  0  0  0
  152.9449  142.4575  159.1979 H   0  0  0  0  0  0  0  0  0  0  0  0
  1  2  1  0  0  0  0
  1 20  1  0  0  0  0
  1 21  1  0  0  0  0
  1 22  1  0  0  0  0
  2 19  1  0  0  0  0
  2  3  2  0  0  0  0
  3  4  1  0  0  0  0
  4  5  1  0  0  0  0
  4  6  2  0  0  0  0
  5 23  1  0  0  0  0
  5 24  1  0  0  0  0
  5 25  1  0  0  0  0
  6  7  1  0  0  0  0
  6 17  1  0  0  0  0
  7  8  1  0  0  0  0
  7 26  1  0  0  0  0
  7 27  1  0  0  0  0
  8  9  2  0  0  0  0
  8 10  1  0  0  0  0
 10 11  1  0  0  0  0
 10 28  1  0  0  0  0
 11 12  1  0  0  0  0
 11 29  1  0  0  0  0
 11 30  1  0  0  0  0
 12 16  1  0  0  0  0
 12 13  1  0  0  0  0
 12 31  1  0  0  0  0
 13 14  1  0  0  0  0
 13 32  1  0  0  0  0
 13 33  1  0  0  0  0
 14 15  1  0  0  0  0
 14 34  1  0  0  0  0
 14 35  1  0  0  0  0
 15 16  1  0  0  0  0
 16 36  1  0  0  0  0
 16 37  1  0  0  0  0
 17 18  2  0  0  0  0
 17 19  1  0  0  0  0
M  CHG  1  19  -1
M  END
> <s_m_source_file>
AV-unprocessed.smi

> <i_m_source_file_index>
1180

> <i_lp_mmshare_version>
43012

> <i_f3d_flags>
0

> <s_epik_input>
W0NIM11jMW5jKFtDSDNdKWMoYyg9TylbbkhdMSlbQ0gyXUMoPU8pW05IXVtDSDJdW0NAQEhdMltDSDJdW0NIMl1PW0NIMl0y

> <s_epik_cmdline>
J2VwaWtfcHl0aG9uJywgJy1waCcsICc3LjAnLCAnLXRuJywgJzgnLCAnLW1hJywgJzIwMCcsICctbWV0YWxfYmluZGluZycsICctaW1hZScsICc8aW5maWxlLm1hZT4nLCAnLW9tYWUnLCAnPG91dGZpbGUubWFlPic=

> <r_lp_tautomer_probability>
0.839158

> <r_epik_Ionization_Penalty>
6.60319

> <r_epik_Ionization_Penalty_Charging>
6.85407e-08

> <r_epik_Ionization_Penalty_Neutral>
6.60319

> <r_epik_State_Penalty>
4.42883

> <r_epik_Charging_Adjusted_Penalty>
4.42883

> <i_epik_Tot_Q>
-1

> <i_epik_Tot_abs_Q>
1

> <r_epik_Metal_State_Penalty>
0.797578

> <b_epik_Metal_Only>
1

> <s_lp_Force_Field>
OPLS_2005

> <r_lp_Energy>
24.7937

> <b_lp_Chiralities_Consistent>
1

> <s_lp_Variant>
AV-unprocessed.smi:1180-5

> <Gold.Version>
5.8.1

> <Gold.Id.Protein>
6NUR|6NUR_protein|mol2

> <Gold.PLP.Fitness>
40.0709

> <Gold.PLP.PLP>
-29.9965

> <Gold.PLP.part.hbond>
-3.6395

> <Gold.PLP.part.metal>
0.0000

> <Gold.PLP.part.buried>
-5.4800

> <Gold.PLP.part.nonpolar>
-20.4365

> <Gold.PLP.part.repulsive>
0.1538

> <Gold.PLP.ligand.clash>
0.0000

> <Gold.PLP.ligand.torsion>
0.3180

> <Gold.PLP.Chemscore.Hbond>
3.5680

> <Gold.PLP.Chemscore.CHOScore>
0.0000

> <Gold.PLP.Chemscore.Metal>
0.0000

> <Gold.Chemscore.Hbonds>
donor molecule, donor type, donor heavy atom, donor atom, acceptor molecule, acceptor atom, score
      P1  H  6896  6908       L1    19  1.22
      P1  H  7989  7998       L1     9  0.96
      P1  H 10752 10765       L1     3  1.00

> <Gold.PLP.Chemscore.Internal.Correction>
0.0063

> <Gold.Rescore>
     Score         DG    S(hbond)    S(metal)    S(lipo)     H(rot)  DE(clash)    DE(int)     intcor
     15.96     -17.69       2.27        0.00      78.13       1.76       0.04       1.69       ----

> <Gold.Chemscore.Fitness>
15.9581

> <Gold.Chemscore.DG>
-17.6869

> <Gold.Chemscore.ZeroCoef>
-5.4800

> <Gold.Chemscore.Hbond>
2.2651

> <Gold.Chemscore.Metal>
0.0000

> <Gold.Chemscore.Lipo>
78.1312

> <Gold.Chemscore.Internal_Hbond>
0.0000

> <Gold.Chemscore.DEClash>
0.0404

> <Gold.Chemscore.DEInternal>
1.6883

> <Gold.Chemscore.Rot>
1.7577

> <Gold.Chemscore.Internal.Correction>
   9.000000E+99

> <Gold.Chemscore.Hbonds>
donor molecule, donor type, donor heavy atom, donor atom, acceptor molecule, acceptor atom, score
      P1  H  6896  6908       L1    19  0.21
      P1  H  7989  7998       L1     9  0.92
      P1  H 10752 10765       L1     3  0.88

> <Gold.Chemscore.Hbond.Weighted>
-7.5653

> <Gold.Chemscore.Metal.Weighted>
-0.0000

> <Gold.Chemscore.Lipo.Weighted>
-9.1414

> <Gold.Chemscore.Internal_Hbond.Weighted>
0.0000

> <Gold.Chemscore.DEClash.Weighted>
0.0404

> <Gold.Chemscore.DEInternal.Weighted>
1.6883

> <Gold.Chemscore.Rot.Weighted>
4.4998

> <Gold.Chemscore.Internal.Correction.Weighted>
   9.000000E+99

> <Gold.Protein.RotatedTorsions>
[ 6907 6896 6895 6894 ] final -100.20 input  -60.11 | X-H torsion
[ 7974 7965 7964 7962 ] final   20.56 input  175.53 | X-H torsion
[ 8008 7997 7996 7995 ] final -173.37 input   59.86 | X-H torsion
[ 10167 10162 10161 10158 ] final  -43.64 input  -65.29 | X-H torsion
[ 10718 10713 10712 10709 ] final -164.08 input   66.30 | X-H torsion
[ 10763 10752 10751 10750 ] final -113.91 input  -60.55 | X-H torsion
[ 11005 11000 10999 10996 ] final -100.34 input  -57.11 | X-H torsion

> <Gold.Protein.ActiveResidues>
 VAL166  LYS551  ARG553  GLY616  TRP617  ASP618  TYR619  PRO620  LYS621  CYS622 
 ASP623  PHE694  ASN695  SER759  ASP760  ASP761  ALA762  ILE779  LEU786  VAL792 
 PHE793  MET794  SER795  GLU796  ALA797  LYS798  CYS799  TRP800  GLU811  SER814 

> <Gold.Protein.RotatedAtoms>
  150.7107  134.0923  159.3935 H   0  0  0  0  0  0  0  0  0  0  0  0  # atno 6907 bound_to 6896
  151.8908  135.0415  160.0507 H   0  0  0  0  0  0  0  0  0  0  0  0  # atno 6908 bound_to 6896
  152.2493  133.5165  159.5352 H   0  0  0  0  0  0  0  0  0  0  0  0  # atno 6909 bound_to 6896
  146.2107  139.8153  142.8691 H   0  0  0  0  0  0  0  0  0  0  0  0  # atno 7974 bound_to 7965
  155.9565  140.1136  157.0932 H   0  0  0  0  0  0  0  0  0  0  0  0  # atno 8008 bound_to 7997
  154.4122  140.1190  156.5188 H   0  0  0  0  0  0  0  0  0  0  0  0  # atno 8009 bound_to 7997
  155.6775  140.3473  155.4844 H   0  0  0  0  0  0  0  0  0  0  0  0  # atno 8010 bound_to 7997
  140.6926  143.2972  151.3382 H   0  0  0  0  0  0  0  0  0  0  0  0  # atno 10167 bound_to 10162
  156.6339  130.8941  151.2983 H   0  0  0  0  0  0  0  0  0  0  0  0  # atno 10718 bound_to 10713
  154.8417  135.4437  154.1423 H   0  0  0  0  0  0  0  0  0  0  0  0  # atno 10763 bound_to 10752
  153.2605  135.6935  153.7589 H   0  0  0  0  0  0  0  0  0  0  0  0  # atno 10764 bound_to 10752
  153.6868  135.3394  155.3167 H   0  0  0  0  0  0  0  0  0  0  0  0  # atno 10765 bound_to 10752
  141.1274  133.8391  157.1089 H   0  0  0  0  0  0  0  0  0  0  0  0  # atno 11005 bound_to 11000
  145.3153  141.0230  143.3531 LP  0  0  0  0  0  0  0  0  0  0  0  0  # atno 17320 bound_to 7965
  144.8906  139.4780  143.6680 LP  0  0  0  0  0  0  0  0  0  0  0  0  # atno 17321 bound_to 7965
  139.6345  144.0656  152.2504 LP  0  0  0  0  0  0  0  0  0  0  0  0  # atno 17342 bound_to 10162
  140.0142  144.6201  150.7621 LP  0  0  0  0  0  0  0  0  0  0  0  0  # atno 17343 bound_to 10162
  157.7192  130.9536  150.1371 LP  0  0  0  0  0  0  0  0  0  0  0  0  # atno 17370 bound_to 10713
  156.2213  130.3674  149.8553 LP  0  0  0  0  0  0  0  0  0  0  0  0  # atno 17371 bound_to 10713
  140.0287  134.9911  157.0738 LP  0  0  0  0  0  0  0  0  0  0  0  0  # atno 17394 bound_to 11000
  140.4320  134.1770  155.7168 LP  0  0  0  0  0  0  0  0  0  0  0  0  # atno 17395 bound_to 11000

$$$$
