AV-unprocessed.smi:1260|AV-procd|sdf|5293|dock10
  -GOLD-   22720 4413D 1   1.00000     0.00000
 Structure written by MMmdl.
 37 39  0  0  0  0  0  0  0  0  2 V2000
  144.4786  135.6944  152.2312 O   0  0  0  0  0  0  0  0  0  0  0  0
  145.6238  136.1442  152.2440 C   0  0  0  0  0  0  0  0  0  0  0  0
  145.8696  137.6162  151.9152 C   0  0  0  0  0  0  0  0  0  0  0  0
  146.4026  138.3149  153.0694 N   0  0  0  0  0  0  0  0  0  0  0  0
  147.6397  138.7305  153.3491 C   0  0  0  0  0  0  0  0  0  0  0  0
  147.6948  139.3522  154.5167 N   0  0  0  0  0  0  0  0  0  0  0  0
  146.3853  139.2973  154.9641 N   0  0  0  0  0  0  0  0  0  0  0  0
  145.6136  138.6843  154.1088 N   0  0  0  0  0  0  0  0  0  0  0  0
  146.7084  135.4017  152.5167 N   0  0  0  0  0  0  0  0  0  0  0  0
  146.6969  133.9700  152.8037 C   0  0  2  0  0  0  0  0  0  0  0  0
  147.8108  133.5422  153.7690 C   0  0  0  0  0  0  0  0  0  0  0  0
  148.2718  132.1569  153.2726 C   0  0  0  0  0  0  0  0  0  0  0  0
  147.4198  131.8133  152.1100 N   0  3  1  0  0  0  0  0  0  0  0  0
  146.3081  130.8955  152.4841 C   0  0  0  0  0  0  0  0  0  0  0  0
  145.2881  130.7260  151.3505 C   0  0  0  0  0  0  0  0  0  0  0  0
  144.7183  132.0872  150.9438 C   0  0  0  0  0  0  0  0  0  0  0  0
  145.8633  133.0040  150.5031 C   0  0  0  0  0  0  0  0  0  0  0  0
  146.9863  133.1204  151.5591 C   0  0  1  0  0  0  0  0  0  0  0  0
  146.5714  137.7005  151.0840 H   0  0  0  0  0  0  0  0  0  0  0  0
  144.9422  138.1005  151.6060 H   0  0  0  0  0  0  0  0  0  0  0  0
  148.4906  138.5850  152.7002 H   0  0  0  0  0  0  0  0  0  0  0  0
  147.6088  135.8591  152.5107 H   0  0  0  0  0  0  0  0  0  0  0  0
  145.7398  133.6762  153.2383 H   0  0  0  0  0  0  0  0  0  0  0  0
  148.6497  134.2392  153.7433 H   0  0  0  0  0  0  0  0  0  0  0  0
  147.4476  133.5052  154.7968 H   0  0  0  0  0  0  0  0  0  0  0  0
  149.3077  132.2140  152.9363 H   0  0  0  0  0  0  0  0  0  0  0  0
  148.2305  131.4005  154.0580 H   0  0  0  0  0  0  0  0  0  0  0  0
  146.7256  129.9246  152.7530 H   0  0  0  0  0  0  0  0  0  0  0  0
  145.7986  131.2710  153.3729 H   0  0  0  0  0  0  0  0  0  0  0  0
  145.7601  130.2465  150.4918 H   0  0  0  0  0  0  0  0  0  0  0  0
  144.4818  130.0659  151.6714 H   0  0  0  0  0  0  0  0  0  0  0  0
  143.9998  131.9679  150.1324 H   0  0  0  0  0  0  0  0  0  0  0  0
  144.1758  132.5340  151.7778 H   0  0  0  0  0  0  0  0  0  0  0  0
  146.2917  132.6015  149.5841 H   0  0  0  0  0  0  0  0  0  0  0  0
  145.4783  133.9895  150.2409 H   0  0  0  0  0  0  0  0  0  0  0  0
  147.8567  133.5515  151.0594 H   0  0  0  0  0  0  0  0  0  0  0  0
  147.9777  131.3382  151.4147 H   0  0  0  0  0  0  0  0  0  0  0  0
  1  2  2  0  0  0  0
  2  3  1  0  0  0  0
  2  9  1  0  0  0  0
  3  4  1  0  0  0  0
  3 19  1  0  0  0  0
  3 20  1  0  0  0  0
  4  8  1  0  0  0  0
  4  5  1  0  0  0  0
  5  6  2  0  0  0  0
  5 21  1  0  0  0  0
  6  7  1  0  0  0  0
  7  8  2  0  0  0  0
  9 10  1  0  0  0  0
  9 22  1  0  0  0  0
 10 18  1  0  0  0  0
 10 11  1  0  0  0  0
 10 23  1  0  0  0  0
 11 12  1  0  0  0  0
 11 24  1  0  0  0  0
 11 25  1  0  0  0  0
 12 13  1  0  0  0  0
 12 26  1  0  0  0  0
 12 27  1  0  0  0  0
 13 18  1  0  0  0  0
 13 14  1  0  0  0  0
 13 37  1  0  0  0  0
 14 15  1  0  0  0  0
 14 28  1  0  0  0  0
 14 29  1  0  0  0  0
 15 16  1  0  0  0  0
 15 30  1  0  0  0  0
 15 31  1  0  0  0  0
 16 17  1  0  0  0  0
 16 32  1  0  0  0  0
 16 33  1  0  0  0  0
 17 18  1  0  0  0  0
 17 34  1  0  0  0  0
 17 35  1  0  0  0  0
 18 36  1  0  0  0  0
M  CHG  1  13   1
M  END
> <s_m_source_file>
AV-unprocessed.smi

> <i_m_source_file_index>
1260

> <i_lp_mmshare_version>
43012

> <i_f3d_flags>
0

> <s_epik_input>
bjFubltjSF1uMVtDSDJdQyg9TylbTkhdW0NASF0oW0NIMl1bQ0gyXTIpW0NAQEhdKE4yMylbQ0gyXVtDSDJdW0NIMl1bQ0gyXTM=

> <s_epik_cmdline>
J2VwaWtfcHl0aG9uJywgJy1waCcsICc3LjAnLCAnLXRuJywgJzgnLCAnLW1hJywgJzIwMCcsICctbWV0YWxfYmluZGluZycsICctaW1hZScsICc8aW5maWxlLm1hZT4nLCAnLW9tYWUnLCAnPG91dGZpbGUubWFlPic=

> <r_lp_tautomer_probability>
1

> <r_epik_Ionization_Penalty>
0.00234324

> <r_epik_Ionization_Penalty_Charging>
0.00233897

> <r_epik_Ionization_Penalty_Neutral>
4.26861e-06

> <r_epik_State_Penalty>
0.00161477

> <r_epik_Charging_Adjusted_Penalty>
0.00395374

> <i_epik_Tot_Q>
1

> <i_epik_Tot_abs_Q>
1

> <r_epik_Metal_State_Penalty>
-0

> <b_epik_Metal_Only>
0

> <s_lp_Force_Field>
OPLS_2005

> <r_lp_Energy>
39.6077

> <b_lp_Chiralities_Consistent>
1

> <s_lp_Variant>
AV-unprocessed.smi:1260-1

> <Gold.Version>
5.8.1

> <Gold.Id.Protein>
6NUR|6NUR_protein|mol2

> <Gold.PLP.Fitness>
36.5878

> <Gold.PLP.PLP>
-26.3925

> <Gold.PLP.part.hbond>
-1.8164

> <Gold.PLP.part.metal>
0.0000

> <Gold.PLP.part.buried>
-2.6779

> <Gold.PLP.part.nonpolar>
-23.5707

> <Gold.PLP.part.repulsive>
0.4455

> <Gold.PLP.ligand.clash>
0.0000

> <Gold.PLP.ligand.torsion>
0.5955

> <Gold.PLP.Chemscore.Hbond>
2.0000

> <Gold.PLP.Chemscore.CHOScore>
1.7917

> <Gold.PLP.Chemscore.Metal>
0.0000

> <Gold.Chemscore.Hbonds>
donor molecule, donor type, donor heavy atom, donor atom, acceptor molecule, acceptor atom, score
      L1  H     9    22       P1  7948  0.99
      L1  H    13    37       P1 10747  1.00
      L1  C     5    21       P1  7948  0.78
      L1  C     5    21       P1  7957  1.00

> <Gold.PLP.Chemscore.Internal.Correction>
0.0112

> <Gold.Rescore>
     Score         DG    S(hbond)    S(metal)    S(lipo)     H(rot)  DE(clash)    DE(int)     intcor
     13.86     -14.27       1.97        0.00      62.22       1.98       0.05       0.36       ----

> <Gold.Chemscore.Fitness>
13.8608

> <Gold.Chemscore.DG>
-14.2673

> <Gold.Chemscore.ZeroCoef>
-5.4800

> <Gold.Chemscore.Hbond>
1.9655

> <Gold.Chemscore.Metal>
0.0000

> <Gold.Chemscore.Lipo>
62.2234

> <Gold.Chemscore.Internal_Hbond>
0.0000

> <Gold.Chemscore.DEClash>
0.0462

> <Gold.Chemscore.DEInternal>
0.3602

> <Gold.Chemscore.Rot>
1.9757

> <Gold.Chemscore.Internal.Correction>
   9.000000E+99

> <Gold.Chemscore.Hbonds>
donor molecule, donor type, donor heavy atom, donor atom, acceptor molecule, acceptor atom, score
      L1  H     9    22       P1  7948  0.89
      L1  H    13    37       P1 10747  0.98

> <Gold.Chemscore.Hbond.Weighted>
-6.5649

> <Gold.Chemscore.Metal.Weighted>
-0.0000

> <Gold.Chemscore.Lipo.Weighted>
-7.2801

> <Gold.Chemscore.Internal_Hbond.Weighted>
0.0000

> <Gold.Chemscore.DEClash.Weighted>
0.0462

> <Gold.Chemscore.DEInternal.Weighted>
0.3602

> <Gold.Chemscore.Rot.Weighted>
5.0578

> <Gold.Chemscore.Internal.Correction.Weighted>
   9.000000E+99

> <Gold.Protein.RotatedTorsions>
[ 6907 6896 6895 6894 ] final  -73.06 input  -60.11 | X-H torsion
[ 7974 7965 7964 7962 ] final   48.64 input  175.53 | X-H torsion
[ 8008 7997 7996 7995 ] final  166.87 input   59.86 | X-H torsion
[ 10167 10162 10161 10158 ] final   16.76 input  -65.29 | X-H torsion
[ 10718 10713 10712 10709 ] final  173.79 input   66.30 | X-H torsion
[ 10763 10752 10751 10750 ] final   55.21 input  -60.55 | X-H torsion
[ 11005 11000 10999 10996 ] final  112.44 input  -57.11 | X-H torsion

> <Gold.Protein.ActiveResidues>
 VAL166  LYS551  ARG553  GLY616  TRP617  ASP618  TYR619  PRO620  LYS621  CYS622 
 ASP623  PHE694  ASN695  SER759  ASP760  ASP761  ALA762  ILE779  LEU786  VAL792 
 PHE793  MET794  SER795  GLU796  ALA797  LYS798  CYS799  TRP800  GLU811  SER814 

> <Gold.Protein.RotatedAtoms>
  150.7145  134.5071  159.5589 H   0  0  0  0  0  0  0  0  0  0  0  0  # atno 6907 bound_to 6896
  152.2656  134.7985  160.0432 H   0  0  0  0  0  0  0  0  0  0  0  0  # atno 6908 bound_to 6896
  151.8683  133.3435  159.3763 H   0  0  0  0  0  0  0  0  0  0  0  0  # atno 6909 bound_to 6896
  146.0185  139.4624  142.9912 H   0  0  0  0  0  0  0  0  0  0  0  0  # atno 7974 bound_to 7965
  156.1682  140.1632  156.8494 H   0  0  0  0  0  0  0  0  0  0  0  0  # atno 8008 bound_to 7997
  154.5229  140.0774  156.8240 H   0  0  0  0  0  0  0  0  0  0  0  0  # atno 8009 bound_to 7997
  155.3568  140.3393  155.4242 H   0  0  0  0  0  0  0  0  0  0  0  0  # atno 8010 bound_to 7997
  140.5775  143.9045  150.6762 H   0  0  0  0  0  0  0  0  0  0  0  0  # atno 10167 bound_to 10162
  156.9592  131.0055  151.2931 H   0  0  0  0  0  0  0  0  0  0  0  0  # atno 10718 bound_to 10713
  152.9814  135.5718  154.5030 H   0  0  0  0  0  0  0  0  0  0  0  0  # atno 10763 bound_to 10752
  154.4546  135.2779  155.1758 H   0  0  0  0  0  0  0  0  0  0  0  0  # atno 10764 bound_to 10752
  154.3372  135.6237  153.5632 H   0  0  0  0  0  0  0  0  0  0  0  0  # atno 10765 bound_to 10752
  139.8927  134.9530  156.6586 H   0  0  0  0  0  0  0  0  0  0  0  0  # atno 11005 bound_to 11000
  145.7231  141.0068  143.1392 LP  0  0  0  0  0  0  0  0  0  0  0  0  # atno 17320 bound_to 7965
  144.6980  139.8894  143.7452 LP  0  0  0  0  0  0  0  0  0  0  0  0  # atno 17321 bound_to 7965
  140.2536  143.3575  152.1384 LP  0  0  0  0  0  0  0  0  0  0  0  0  # atno 17342 bound_to 10162
  139.5151  144.6957  151.5636 LP  0  0  0  0  0  0  0  0  0  0  0  0  # atno 17343 bound_to 10162
  157.5670  130.8284  149.8340 LP  0  0  0  0  0  0  0  0  0  0  0  0  # atno 17370 bound_to 10713
  156.0329  130.3759  150.1637 LP  0  0  0  0  0  0  0  0  0  0  0  0  # atno 17371 bound_to 10713
  140.7465  133.8933  155.8315 LP  0  0  0  0  0  0  0  0  0  0  0  0  # atno 17394 bound_to 11000
  141.0035  134.1117  157.4293 LP  0  0  0  0  0  0  0  0  0  0  0  0  # atno 17395 bound_to 11000

$$$$
