AV-unprocessed.smi:1605|AV-procd|sdf|6459|dock7
  -GOLD-   22720 7113D 1   1.00000     0.00000
 Structure written by MMmdl.
 50 52  0  0  0  0  0  0  0  0  1 V2000
  145.1733  144.5114  159.1672 C   0  0  0  0  0  0  0  0  0  0  0  0
  144.7893  143.5329  158.2137 O   0  0  0  0  0  0  0  0  0  0  0  0
  145.8529  143.0654  157.3937 C   0  0  0  0  0  0  0  0  0  0  0  0
  145.3679  142.0159  156.3746 C   0  0  0  0  0  0  0  0  0  0  0  0
  146.5615  141.3765  155.6435 C   0  0  0  0  0  0  0  0  0  0  0  0
  147.5201  140.7556  156.5600 N   0  0  0  0  0  0  0  0  0  0  0  0
  148.5947  140.0846  155.8195 C   0  0  0  0  0  0  0  0  0  0  0  0
  149.4227  140.9696  154.8607 C   0  0  2  0  0  0  0  0  0  0  0  0
  150.0981  140.1369  153.9389 O   0  0  0  0  0  0  0  0  0  0  0  0
  150.4063  141.9585  155.5157 C   0  0  0  0  0  0  0  0  0  0  0  0
  151.2397  141.3201  156.5185 N   0  0  0  0  0  0  0  0  0  0  0  0
  151.8376  140.1161  156.4327 C   0  0  0  0  0  0  0  0  0  0  0  0
  152.5613  139.7198  157.4759 N   0  0  0  0  0  0  0  0  0  0  0  0
  152.4171  140.7929  158.3386 C   0  0  0  0  0  0  0  0  0  0  0  0
  152.9421  141.0064  159.6319 C   0  0  0  0  0  0  0  0  0  0  0  0
  152.6610  142.1959  160.3410 C   0  0  0  0  0  0  0  0  0  0  0  0
  153.2464  142.3834  161.7294 C   0  0  0  0  0  0  0  0  0  0  0  0
  151.8427  143.1956  159.7559 C   0  0  0  0  0  0  0  0  0  0  0  0
  151.5292  144.4826  160.4981 C   0  0  0  0  0  0  0  0  0  0  0  0
  151.3089  142.9980  158.4651 C   0  0  0  0  0  0  0  0  0  0  0  0
  151.5961  141.8100  157.7698 C   0  0  0  0  0  0  0  0  0  0  0  0
  148.0300  141.7826  157.4758 C   0  0  0  0  0  0  0  0  0  0  0  0
  146.9128  142.4316  158.3090 C   0  0  0  0  0  0  0  0  0  0  0  0
  144.3125  144.7738  159.7822 H   0  0  0  0  0  0  0  0  0  0  0  0
  145.5284  145.4252  158.6910 H   0  0  0  0  0  0  0  0  0  0  0  0
  145.9531  144.1342  159.8300 H   0  0  0  0  0  0  0  0  0  0  0  0
  146.3122  143.9048  156.8680 H   0  0  0  0  0  0  0  0  0  0  0  0
  144.7973  141.2401  156.8869 H   0  0  0  0  0  0  0  0  0  0  0  0
  144.6964  142.4664  155.6442 H   0  0  0  0  0  0  0  0  0  0  0  0
  146.1775  140.6259  154.9516 H   0  0  0  0  0  0  0  0  0  0  0  0
  147.0640  142.1294  155.0341 H   0  0  0  0  0  0  0  0  0  0  0  0
  149.3051  139.6535  156.5268 H   0  0  0  0  0  0  0  0  0  0  0  0
  148.1891  139.2302  155.2756 H   0  0  0  0  0  0  0  0  0  0  0  0
  148.7084  141.5518  154.2770 H   0  0  0  0  0  0  0  0  0  0  0  0
  149.6014  140.1207  153.1348 H   0  0  0  0  0  0  0  0  0  0  0  0
  151.0604  142.3986  154.7620 H   0  0  0  0  0  0  0  0  0  0  0  0
  149.8684  142.7762  155.9960 H   0  0  0  0  0  0  0  0  0  0  0  0
  151.7375  139.4964  155.5536 H   0  0  0  0  0  0  0  0  0  0  0  0
  153.5663  140.2450  160.0764 H   0  0  0  0  0  0  0  0  0  0  0  0
  152.4522  142.5173  162.4643 H   0  0  0  0  0  0  0  0  0  0  0  0
  153.8951  143.2595  161.7554 H   0  0  0  0  0  0  0  0  0  0  0  0
  153.8390  141.5194  162.0319 H   0  0  0  0  0  0  0  0  0  0  0  0
  150.8874  145.1368  159.9074 H   0  0  0  0  0  0  0  0  0  0  0  0
  152.4466  145.0276  160.7223 H   0  0  0  0  0  0  0  0  0  0  0  0
  151.0150  144.2680  161.4353 H   0  0  0  0  0  0  0  0  0  0  0  0
  150.6843  143.7505  158.0072 H   0  0  0  0  0  0  0  0  0  0  0  0
  148.7661  141.3667  158.1581 H   0  0  0  0  0  0  0  0  0  0  0  0
  148.5517  142.5558  156.9095 H   0  0  0  0  0  0  0  0  0  0  0  0
  147.3328  143.1870  158.9738 H   0  0  0  0  0  0  0  0  0  0  0  0
  146.4508  141.6769  158.9472 H   0  0  0  0  0  0  0  0  0  0  0  0
  1  2  1  0  0  0  0
  1 24  1  0  0  0  0
  1 25  1  0  0  0  0
  1 26  1  0  0  0  0
  2  3  1  0  0  0  0
  3 23  1  0  0  0  0
  3  4  1  0  0  0  0
  3 27  1  0  0  0  0
  4  5  1  0  0  0  0
  4 28  1  0  0  0  0
  4 29  1  0  0  0  0
  5  6  1  0  0  0  0
  5 30  1  0  0  0  0
  5 31  1  0  0  0  0
  6  7  1  0  0  0  0
  6 22  1  0  0  0  0
  7  8  1  0  0  0  0
  7 32  1  0  0  0  0
  7 33  1  0  0  0  0
  8  9  1  0  0  0  0
  8 10  1  0  0  0  0
  8 34  1  0  0  0  0
  9 35  1  0  0  0  0
 10 11  1  0  0  0  0
 10 36  1  0  0  0  0
 10 37  1  0  0  0  0
 11 21  1  0  0  0  0
 11 12  1  0  0  0  0
 12 13  2  0  0  0  0
 12 38  1  0  0  0  0
 13 14  1  0  0  0  0
 14 21  2  0  0  0  0
 14 15  1  0  0  0  0
 15 16  2  0  0  0  0
 15 39  1  0  0  0  0
 16 17  1  0  0  0  0
 16 18  1  0  0  0  0
 17 40  1  0  0  0  0
 17 41  1  0  0  0  0
 17 42  1  0  0  0  0
 18 19  1  0  0  0  0
 18 20  2  0  0  0  0
 19 43  1  0  0  0  0
 19 44  1  0  0  0  0
 19 45  1  0  0  0  0
 20 21  1  0  0  0  0
 20 46  1  0  0  0  0
 22 23  1  0  0  0  0
 22 47  1  0  0  0  0
 22 48  1  0  0  0  0
 23 49  1  0  0  0  0
 23 50  1  0  0  0  0
M  END
> <s_m_source_file>
AV-unprocessed.smi

> <i_m_source_file_index>
1605

> <i_lp_mmshare_version>
43012

> <i_f3d_flags>
0

> <s_epik_input>
W0NIM11PW0NIXTFbQ0gyXVtDSDJdTihbQ0gyXVtDSDJdMSlbQ0gyXVtDQEhdKFtPSF0pW0NIMl1uKFtjSF1uMiljKGMyMylbY0hdYyhbQ0gzXSljKFtjSF0zKVtDSDNd

> <s_epik_cmdline>
J2VwaWtfcHl0aG9uJywgJy1waCcsICc3LjAnLCAnLXRuJywgJzgnLCAnLW1hJywgJzIwMCcsICctbWV0YWxfYmluZGluZycsICctaW1hZScsICc8aW5maWxlLm1hZT4nLCAnLW9tYWUnLCAnPG91dGZpbGUubWFlPic=

> <r_epik_Ionization_Penalty>
2.02119

> <r_epik_Ionization_Penalty_Charging>
0

> <r_epik_Ionization_Penalty_Neutral>
2.02119

> <r_epik_State_Penalty>
2.11303

> <r_epik_Charging_Adjusted_Penalty>
2.11303

> <i_epik_Tot_Q>
0

> <i_epik_Tot_abs_Q>
0

> <r_epik_Metal_State_Penalty>
2.04251

> <b_epik_Metal_Only>
0

> <s_lp_Force_Field>
OPLS_2005

> <r_lp_Energy>
37.9414

> <b_lp_Chiralities_Consistent>
1

> <s_lp_Variant>
AV-unprocessed.smi:1605-9

> <Gold.Version>
5.8.1

> <Gold.Id.Protein>
6NUR|6NUR_protein|mol2

> <Gold.PLP.Fitness>
48.7298

> <Gold.PLP.PLP>
-40.7513

> <Gold.PLP.part.hbond>
-3.0000

> <Gold.PLP.part.metal>
0.0000

> <Gold.PLP.part.buried>
-5.4615

> <Gold.PLP.part.nonpolar>
-31.9811

> <Gold.PLP.part.repulsive>
0.0976

> <Gold.PLP.ligand.clash>
0.0000

> <Gold.PLP.ligand.torsion>
0.4539

> <Gold.PLP.Chemscore.Hbond>
2.9440

> <Gold.PLP.Chemscore.CHOScore>
0.0000

> <Gold.PLP.Chemscore.Metal>
0.0000

> <Gold.Chemscore.Hbonds>
donor molecule, donor type, donor heavy atom, donor atom, acceptor molecule, acceptor atom, score
      L1  H     9    35       P1  7957  0.96
      P1  H  7989  7998       L1     9  0.86
      P1  H  7997  8010       L1    13  0.93

> <Gold.PLP.Chemscore.Internal.Correction>
0.0543

> <Gold.Rescore>
     Score         DG    S(hbond)    S(metal)    S(lipo)     H(rot)  DE(clash)    DE(int)     intcor
     17.50     -18.89       1.97        0.00     105.27       2.14       0.97       0.43       ----

> <Gold.Chemscore.Fitness>
17.4980

> <Gold.Chemscore.DG>
-18.8919

> <Gold.Chemscore.ZeroCoef>
-5.4800

> <Gold.Chemscore.Hbond>
1.9709

> <Gold.Chemscore.Metal>
0.0000

> <Gold.Chemscore.Lipo>
105.2741

> <Gold.Chemscore.Internal_Hbond>
0.0000

> <Gold.Chemscore.DEClash>
0.9670

> <Gold.Chemscore.DEInternal>
0.4268

> <Gold.Chemscore.Rot>
2.1438

> <Gold.Chemscore.Internal.Correction>
   9.000000E+99

> <Gold.Chemscore.Hbonds>
donor molecule, donor type, donor heavy atom, donor atom, acceptor molecule, acceptor atom, score
      L1  H     9    35       P1  7957  0.90
      P1  H  7989  7998       L1     9  0.25
      P1  H  7997  8010       L1    13  0.08

> <Gold.Chemscore.Hbond.Weighted>
-6.5829

> <Gold.Chemscore.Metal.Weighted>
-0.0000

> <Gold.Chemscore.Lipo.Weighted>
-12.3171

> <Gold.Chemscore.Internal_Hbond.Weighted>
0.0000

> <Gold.Chemscore.DEClash.Weighted>
0.9670

> <Gold.Chemscore.DEInternal.Weighted>
0.4268

> <Gold.Chemscore.Rot.Weighted>
5.4881

> <Gold.Chemscore.Internal.Correction.Weighted>
   9.000000E+99

> <Gold.Protein.RotatedTorsions>
[ 6907 6896 6895 6894 ] final -107.12 input  -60.11 | X-H torsion
[ 7974 7965 7964 7962 ] final  159.66 input  175.53 | X-H torsion
[ 8008 7997 7996 7995 ] final   44.61 input   59.86 | X-H torsion
[ 10167 10162 10161 10158 ] final -179.06 input  -65.29 | X-H torsion
[ 10718 10713 10712 10709 ] final  114.75 input   66.30 | X-H torsion
[ 10763 10752 10751 10750 ] final -122.55 input  -60.55 | X-H torsion
[ 11005 11000 10999 10996 ] final  122.84 input  -57.11 | X-H torsion

> <Gold.Protein.ActiveResidues>
 VAL166  LYS551  ARG553  GLY616  TRP617  ASP618  TYR619  PRO620  LYS621  CYS622 
 ASP623  PHE694  ASN695  SER759  ASP760  ASP761  ALA762  ILE779  LEU786  VAL792 
 PHE793  MET794  SER795  GLU796  ALA797  LYS798  CYS799  TRP800  GLU811  SER814 

> <Gold.Protein.RotatedAtoms>
  150.7426  133.9874  159.3595 H   0  0  0  0  0  0  0  0  0  0  0  0  # atno 6907 bound_to 6896
  151.7820  135.0757  160.0384 H   0  0  0  0  0  0  0  0  0  0  0  0  # atno 6908 bound_to 6896
  152.3267  133.5876  159.5818 H   0  0  0  0  0  0  0  0  0  0  0  0  # atno 6909 bound_to 6896
  144.7778  139.7648  143.6272 H   0  0  0  0  0  0  0  0  0  0  0  0  # atno 7974 bound_to 7965
  155.3221  140.3397  155.4241 H   0  0  0  0  0  0  0  0  0  0  0  0  # atno 8008 bound_to 7997
  156.1904  140.1695  156.8141 H   0  0  0  0  0  0  0  0  0  0  0  0  # atno 8009 bound_to 7997
  154.5435  140.0720  156.8533 H   0  0  0  0  0  0  0  0  0  0  0  0  # atno 8010 bound_to 7997
  139.5403  144.2381  152.0882 H   0  0  0  0  0  0  0  0  0  0  0  0  # atno 10167 bound_to 10162
  157.6263  131.1003  150.7231 H   0  0  0  0  0  0  0  0  0  0  0  0  # atno 10718 bound_to 10713
  154.8691  135.4129  154.2800 H   0  0  0  0  0  0  0  0  0  0  0  0  # atno 10763 bound_to 10752
  153.3694  135.7007  153.6655 H   0  0  0  0  0  0  0  0  0  0  0  0  # atno 10764 bound_to 10752
  153.5523  135.3626  155.2736 H   0  0  0  0  0  0  0  0  0  0  0  0  # atno 10765 bound_to 10752
  139.9286  134.9641  156.8170 H   0  0  0  0  0  0  0  0  0  0  0  0  # atno 11005 bound_to 11000
  146.1968  139.5240  142.9769 LP  0  0  0  0  0  0  0  0  0  0  0  0  # atno 17320 bound_to 7965
  145.6136  141.0335  143.1953 LP  0  0  0  0  0  0  0  0  0  0  0  0  # atno 17321 bound_to 7965
  140.1858  144.4800  150.6504 LP  0  0  0  0  0  0  0  0  0  0  0  0  # atno 17342 bound_to 10162
  140.6630  143.2258  151.5810 LP  0  0  0  0  0  0  0  0  0  0  0  0  # atno 17343 bound_to 10162
  156.7579  130.4789  149.5443 LP  0  0  0  0  0  0  0  0  0  0  0  0  # atno 17370 bound_to 10713
  156.1437  130.6262  151.0502 LP  0  0  0  0  0  0  0  0  0  0  0  0  # atno 17371 bound_to 10713
  140.6265  133.9945  155.7642 LP  0  0  0  0  0  0  0  0  0  0  0  0  # atno 17394 bound_to 11000
  141.0860  133.9989  157.3312 LP  0  0  0  0  0  0  0  0  0  0  0  0  # atno 17395 bound_to 11000

$$$$
