AV-unprocessed.smi:421|AV-procd|sdf|2535|dock7
  -GOLD-   2262022493D 1   1.00000     0.00000
 Structure written by MMmdl.
 43 45  0  0  0  0  0  0  0  0  1 V2000
  153.3142  143.5921  163.4904 C   0  0  0  0  0  0  0  0  0  0  0  0
  153.3345  142.8408  162.2411 N   0  0  0  0  0  0  0  0  0  0  0  0
  154.0287  141.7075  161.9857 C   0  0  0  0  0  0  0  0  0  0  0  0
  154.7624  141.1132  162.7755 O   0  0  0  0  0  0  0  0  0  0  0  0
  153.7718  141.3365  160.7090 N   0  0  0  0  0  0  0  0  0  0  0  0
  154.2976  140.1567  160.0242 C   0  0  0  0  0  0  0  0  0  0  0  0
  153.7757  138.8514  160.6584 C   0  0  1  0  0  0  0  0  0  0  0  0
  153.9521  137.7674  159.7693 O   0  0  0  0  0  0  0  0  0  0  0  0
  154.4806  138.4943  161.9772 C   0  0  0  0  0  0  0  0  0  0  0  0
  154.0003  137.2523  162.4682 O   0  0  0  0  0  0  0  0  0  0  0  0
  154.6098  136.8729  163.6900 C   0  0  0  0  0  0  0  0  0  0  0  0
  154.8092  135.3729  163.7624 C   0  0  0  0  0  0  0  0  0  0  0  0
  155.3115  134.6669  162.6489 C   0  0  0  0  0  0  0  0  0  0  0  0
  155.4967  133.2724  162.7209 C   0  0  0  0  0  0  0  0  0  0  0  0
  155.1814  132.5798  163.9060 C   0  0  0  0  0  0  0  0  0  0  0  0
  154.6820  133.2821  165.0199 C   0  0  0  0  0  0  0  0  0  0  0  0
  154.4966  134.6767  164.9486 C   0  0  0  0  0  0  0  0  0  0  0  0
  152.8850  142.2581  160.1327 C   0  0  0  0  0  0  0  0  0  0  0  0
  152.3107  142.3162  158.8506 C   0  0  0  0  0  0  0  0  0  0  0  0
  151.4369  143.3959  158.5819 C   0  0  0  0  0  0  0  0  0  0  0  0
  151.1602  144.3723  159.5740 C   0  0  0  0  0  0  0  0  0  0  0  0
  151.7504  144.2889  160.8569 C   0  0  0  0  0  0  0  0  0  0  0  0
  152.6130  143.2056  161.0972 C   0  0  0  0  0  0  0  0  0  0  0  0
  153.7031  143.0050  164.3234 H   0  0  0  0  0  0  0  0  0  0  0  0
  152.2957  143.8896  163.7415 H   0  0  0  0  0  0  0  0  0  0  0  0
  153.9209  144.4927  163.3957 H   0  0  0  0  0  0  0  0  0  0  0  0
  154.0759  140.1937  158.9572 H   0  0  0  0  0  0  0  0  0  0  0  0
  155.3860  140.1852  160.0982 H   0  0  0  0  0  0  0  0  0  0  0  0
  152.7078  138.9358  160.8638 H   0  0  0  0  0  0  0  0  0  0  0  0
  154.3621  138.0924  158.9821 H   0  0  0  0  0  0  0  0  0  0  0  0
  155.5534  138.4098  161.7965 H   0  0  0  0  0  0  0  0  0  0  0  0
  154.3422  139.2861  162.7155 H   0  0  0  0  0  0  0  0  0  0  0  0
  155.5791  137.3636  163.7928 H   0  0  0  0  0  0  0  0  0  0  0  0
  153.9953  137.1984  164.5312 H   0  0  0  0  0  0  0  0  0  0  0  0
  155.5572  135.1922  161.7375 H   0  0  0  0  0  0  0  0  0  0  0  0
  155.8809  132.7342  161.8669 H   0  0  0  0  0  0  0  0  0  0  0  0
  155.3232  131.5104  163.9607 H   0  0  0  0  0  0  0  0  0  0  0  0
  154.4408  132.7514  165.9290 H   0  0  0  0  0  0  0  0  0  0  0  0
  154.1147  135.2115  165.8059 H   0  0  0  0  0  0  0  0  0  0  0  0
  152.5219  141.5702  158.0991 H   0  0  0  0  0  0  0  0  0  0  0  0
  150.9743  143.4778  157.6094 H   0  0  0  0  0  0  0  0  0  0  0  0
  150.4899  145.1883  159.3475 H   0  0  0  0  0  0  0  0  0  0  0  0
  151.5435  145.0271  161.6175 H   0  0  0  0  0  0  0  0  0  0  0  0
  1  2  1  0  0  0  0
  1 24  1  0  0  0  0
  1 25  1  0  0  0  0
  1 26  1  0  0  0  0
  2 23  1  0  0  0  0
  2  3  1  0  0  0  0
  3  4  2  0  0  0  0
  3  5  1  0  0  0  0
  5  6  1  0  0  0  0
  5 18  1  0  0  0  0
  6  7  1  0  0  0  0
  6 27  1  0  0  0  0
  6 28  1  0  0  0  0
  7  8  1  0  0  0  0
  7  9  1  0  0  0  0
  7 29  1  0  0  0  0
  8 30  1  0  0  0  0
  9 10  1  0  0  0  0
  9 31  1  0  0  0  0
  9 32  1  0  0  0  0
 10 11  1  0  0  0  0
 11 12  1  0  0  0  0
 11 33  1  0  0  0  0
 11 34  1  0  0  0  0
 12 17  1  0  0  0  0
 12 13  2  0  0  0  0
 13 14  1  0  0  0  0
 13 35  1  0  0  0  0
 14 15  2  0  0  0  0
 14 36  1  0  0  0  0
 15 16  1  0  0  0  0
 15 37  1  0  0  0  0
 16 17  2  0  0  0  0
 16 38  1  0  0  0  0
 17 39  1  0  0  0  0
 18 23  2  0  0  0  0
 18 19  1  0  0  0  0
 19 20  2  0  0  0  0
 19 40  1  0  0  0  0
 20 21  1  0  0  0  0
 20 41  1  0  0  0  0
 21 22  2  0  0  0  0
 21 42  1  0  0  0  0
 22 23  1  0  0  0  0
 22 43  1  0  0  0  0
M  END
> <s_m_source_file>
AV-unprocessed.smi

> <i_m_source_file_index>
421

> <i_lp_mmshare_version>
43012

> <i_f3d_flags>
0

> <s_epik_input>
W2NIXTFbY0hdW2NIXVtjSF1jKGMxMiluKFtDSDNdKWMoPU8pbjJbQ0gyXVtDQEhdKFtPSF0pW0NIMl1PW0NIMl1jM1tjSF1bY0hdW2NIXVtjSF1bY0hdMw==

> <s_epik_cmdline>
J2VwaWtfcHl0aG9uJywgJy1waCcsICc3LjAnLCAnLXRuJywgJzgnLCAnLW1hJywgJzIwMCcsICctbWV0YWxfYmluZGluZycsICctaW1hZScsICc8aW5maWxlLm1hZT4nLCAnLW9tYWUnLCAnPG91dGZpbGUubWFlPic=

> <r_lp_tautomer_probability>
1

> <r_epik_Ionization_Penalty>
1.0795e-06

> <r_epik_Ionization_Penalty_Charging>
2.82452e-09

> <r_epik_Ionization_Penalty_Neutral>
1.07667e-06

> <r_epik_State_Penalty>
-0

> <r_epik_Charging_Adjusted_Penalty>
2.82452e-09

> <i_epik_Tot_Q>
0

> <i_epik_Tot_abs_Q>
0

> <r_epik_Metal_State_Penalty>
-0

> <b_epik_Metal_Only>
0

> <s_lp_Force_Field>
OPLS_2005

> <r_lp_Energy>
47.6123

> <b_lp_Chiralities_Consistent>
1

> <s_lp_Variant>
AV-unprocessed.smi:421-2

> <Gold.Version>
5.8.1

> <Gold.Id.Protein>
6NUR|6NUR_protein|mol2

> <Gold.PLP.Fitness>
54.8669

> <Gold.PLP.PLP>
-56.0242

> <Gold.PLP.part.hbond>
-0.9664

> <Gold.PLP.part.metal>
0.0000

> <Gold.PLP.part.buried>
-5.4303

> <Gold.PLP.part.nonpolar>
-49.9016

> <Gold.PLP.part.repulsive>
0.0000

> <Gold.PLP.ligand.clash>
0.0000

> <Gold.PLP.ligand.torsion>
0.6368

> <Gold.PLP.Chemscore.Hbond>
0.0000

> <Gold.PLP.Chemscore.CHOScore>
0.0000

> <Gold.PLP.Chemscore.Metal>
0.0000

> <Gold.PLP.Chemscore.Internal.Correction>
0.1163

> <Gold.Rescore>
     Score         DG    S(hbond)    S(metal)    S(lipo)     H(rot)  DE(clash)    DE(int)     intcor
     14.74     -17.26       0.00        0.00     149.05       2.21       0.45       2.07       ----

> <Gold.Chemscore.Fitness>
14.7363

> <Gold.Chemscore.DG>
-17.2565

> <Gold.Chemscore.ZeroCoef>
-5.4800

> <Gold.Chemscore.Hbond>
0.0000

> <Gold.Chemscore.Metal>
0.0000

> <Gold.Chemscore.Lipo>
149.0495

> <Gold.Chemscore.Internal_Hbond>
0.0000

> <Gold.Chemscore.DEClash>
0.4535

> <Gold.Chemscore.DEInternal>
2.0667

> <Gold.Chemscore.Rot>
2.2119

> <Gold.Chemscore.Internal.Correction>
   9.000000E+99

> <Gold.Chemscore.Hbond.Weighted>
-0.0000

> <Gold.Chemscore.Metal.Weighted>
-0.0000

> <Gold.Chemscore.Lipo.Weighted>
-17.4388

> <Gold.Chemscore.Internal_Hbond.Weighted>
0.0000

> <Gold.Chemscore.DEClash.Weighted>
0.4535

> <Gold.Chemscore.DEInternal.Weighted>
2.0667

> <Gold.Chemscore.Rot.Weighted>
5.6623

> <Gold.Chemscore.Internal.Correction.Weighted>
   9.000000E+99

> <Gold.Protein.RotatedTorsions>
[ 6907 6896 6895 6894 ] final  -79.77 input  -60.11 | X-H torsion
[ 7974 7965 7964 7962 ] final  110.82 input  175.53 | X-H torsion
[ 8008 7997 7996 7995 ] final  126.37 input   59.86 | X-H torsion
[ 10167 10162 10161 10158 ] final  140.61 input  -65.29 | X-H torsion
[ 10718 10713 10712 10709 ] final  -28.19 input   66.30 | X-H torsion
[ 10763 10752 10751 10750 ] final -133.40 input  -60.55 | X-H torsion
[ 11005 11000 10999 10996 ] final  -67.77 input  -57.11 | X-H torsion

> <Gold.Protein.ActiveResidues>
 VAL166  LYS551  ARG553  GLY616  TRP617  ASP618  TYR619  PRO620  LYS621  CYS622 
 ASP623  PHE694  ASN695  SER759  ASP760  ASP761  ALA762  ILE779  LEU786  VAL792 
 PHE793  MET794  SER795  GLU796  ALA797  LYS798  CYS799  TRP800  GLU811  SER814 

> <Gold.Protein.RotatedAtoms>
  150.6943  134.4070  159.5144 H   0  0  0  0  0  0  0  0  0  0  0  0  # atno 6907 bound_to 6896
  152.1835  134.8731  160.0533 H   0  0  0  0  0  0  0  0  0  0  0  0  # atno 6908 bound_to 6896
  151.9713  133.3692  159.4109 H   0  0  0  0  0  0  0  0  0  0  0  0  # atno 6909 bound_to 6896
  145.2501  139.2743  143.4072 H   0  0  0  0  0  0  0  0  0  0  0  0  # atno 7974 bound_to 7965
  156.2862  140.2694  156.2099 H   0  0  0  0  0  0  0  0  0  0  0  0  # atno 8008 bound_to 7997
  155.0275  140.0386  157.2479 H   0  0  0  0  0  0  0  0  0  0  0  0  # atno 8009 bound_to 7997
  154.7383  140.2720  155.6400 H   0  0  0  0  0  0  0  0  0  0  0  0  # atno 8010 bound_to 7997
  139.5044  144.6223  151.6021 H   0  0  0  0  0  0  0  0  0  0  0  0  # atno 10167 bound_to 10162
  156.4284  130.4440  149.7134 H   0  0  0  0  0  0  0  0  0  0  0  0  # atno 10718 bound_to 10713
  154.8733  135.3767  154.4566 H   0  0  0  0  0  0  0  0  0  0  0  0  # atno 10763 bound_to 10752
  153.5237  135.7028  153.5723 H   0  0  0  0  0  0  0  0  0  0  0  0  # atno 10764 bound_to 10752
  153.3959  135.3960  155.1920 H   0  0  0  0  0  0  0  0  0  0  0  0  # atno 10765 bound_to 10752
  141.1516  133.6726  156.6344 H   0  0  0  0  0  0  0  0  0  0  0  0  # atno 11005 bound_to 11000
  146.3305  140.2889  142.8614 LP  0  0  0  0  0  0  0  0  0  0  0  0  # atno 17320 bound_to 7965
  144.9511  140.8179  143.5571 LP  0  0  0  0  0  0  0  0  0  0  0  0  # atno 17321 bound_to 7965
  140.5929  143.9747  150.6336 LP  0  0  0  0  0  0  0  0  0  0  0  0  # atno 17342 bound_to 10162
  140.2934  143.3309  152.1041 LP  0  0  0  0  0  0  0  0  0  0  0  0  # atno 17343 bound_to 10162
  156.4047  130.7692  151.2702 LP  0  0  0  0  0  0  0  0  0  0  0  0  # atno 17370 bound_to 10713
  157.7508  131.0229  150.3813 LP  0  0  0  0  0  0  0  0  0  0  0  0  # atno 17371 bound_to 10713
  140.3442  134.7823  157.4420 LP  0  0  0  0  0  0  0  0  0  0  0  0  # atno 17394 bound_to 11000
  140.0913  134.5597  155.8441 LP  0  0  0  0  0  0  0  0  0  0  0  0  # atno 17395 bound_to 11000

$$$$
