AV-unprocessed.smi:1934|AV-procd|sdf|7825|dock6
  -GOLD-   22720 9573D 1   1.00000     0.00000
 Structure written by MMmdl.
 46 47  0  0  0  0  0  0  0  0  2 V2000
  150.3364  142.0250  156.1921 C   0  0  0  0  0  0  0  0  0  0  0  0
  150.1011  140.7717  155.4015 C   0  0  0  0  0  0  0  0  0  0  0  0
  148.8881  140.3283  154.7992 C   0  0  0  0  0  0  0  0  0  0  0  0
  149.2542  139.1447  154.2181 C   0  0  0  0  0  0  0  0  0  0  0  0
  148.4949  138.2805  153.4930 N   0  0  0  0  0  0  0  0  0  0  0  0
  147.1556  138.1750  153.4424 C   0  0  0  0  0  0  0  0  0  0  0  0
  146.3585  138.8409  154.1036 O   0  0  0  0  0  0  0  0  0  0  0  0
  146.7763  137.2300  152.5701 N   0  0  0  0  0  0  0  0  0  0  0  0
  145.3929  136.8782  152.2721 C   0  0  0  0  0  0  0  0  0  0  0  0
  145.2072  136.5339  150.7821 C   0  0  0  0  0  0  0  0  0  0  0  0
  145.2398  135.0705  150.5363 N   0  3  1  0  0  0  0  0  0  0  0  0
  146.4354  134.4234  151.1354 C   0  0  0  0  0  0  0  0  0  0  0  0
  146.5260  132.9439  150.7289 C   0  0  0  0  0  0  0  0  0  0  0  0
  145.2443  132.1888  151.1077 C   0  0  0  0  0  0  0  0  0  0  0  0
  143.9938  132.8911  150.5463 C   0  0  2  0  0  0  0  0  0  0  0  0
  143.8273  132.6920  149.0297 C   0  0  0  0  0  0  0  0  0  0  0  0
  143.9845  134.3820  150.9434 C   0  0  0  0  0  0  0  0  0  0  0  0
  150.5916  138.9222  154.4676 N   0  0  0  0  0  0  0  0  0  0  0  0
  151.4452  137.8178  154.0730 C   0  0  0  0  0  0  0  0  0  0  0  0
  151.1087  139.9298  155.2028 N   0  0  0  0  0  0  0  0  0  0  0  0
  149.4692  142.6846  156.1529 H   0  0  0  0  0  0  0  0  0  0  0  0
  151.1916  142.5798  155.8056 H   0  0  0  0  0  0  0  0  0  0  0  0
  150.5325  141.7961  157.2396 H   0  0  0  0  0  0  0  0  0  0  0  0
  147.9246  140.8149  154.8036 H   0  0  0  0  0  0  0  0  0  0  0  0
  149.0138  137.6448  152.9052 H   0  0  0  0  0  0  0  0  0  0  0  0
  147.4945  136.7271  152.0690 H   0  0  0  0  0  0  0  0  0  0  0  0
  145.0843  136.0544  152.9165 H   0  0  0  0  0  0  0  0  0  0  0  0
  144.7641  137.7286  152.5371 H   0  0  0  0  0  0  0  0  0  0  0  0
  144.2427  136.9335  150.4653 H   0  0  0  0  0  0  0  0  0  0  0  0
  145.9604  137.0259  150.1644 H   0  0  0  0  0  0  0  0  0  0  0  0
  147.3396  134.9367  150.8061 H   0  0  0  0  0  0  0  0  0  0  0  0
  146.3952  134.5164  152.2221 H   0  0  0  0  0  0  0  0  0  0  0  0
  146.7009  132.8667  149.6554 H   0  0  0  0  0  0  0  0  0  0  0  0
  147.3857  132.4785  151.2118 H   0  0  0  0  0  0  0  0  0  0  0  0
  145.2944  131.1568  150.7585 H   0  0  0  0  0  0  0  0  0  0  0  0
  145.1703  132.1393  152.1950 H   0  0  0  0  0  0  0  0  0  0  0  0
  143.1250  132.4246  151.0124 H   0  0  0  0  0  0  0  0  0  0  0  0
  144.6414  133.1474  148.4661 H   0  0  0  0  0  0  0  0  0  0  0  0
  142.8955  133.1358  148.6780 H   0  0  0  0  0  0  0  0  0  0  0  0
  143.7996  131.6323  148.7748 H   0  0  0  0  0  0  0  0  0  0  0  0
  143.8650  134.4730  152.0243 H   0  0  0  0  0  0  0  0  0  0  0  0
  143.1171  134.8675  150.4974 H   0  0  0  0  0  0  0  0  0  0  0  0
  150.9759  137.2341  153.2812 H   0  0  0  0  0  0  0  0  0  0  0  0
  151.6265  137.1709  154.9315 H   0  0  0  0  0  0  0  0  0  0  0  0
  152.3991  138.1985  153.7060 H   0  0  0  0  0  0  0  0  0  0  0  0
  145.3298  134.9525  149.5372 H   0  0  0  0  0  0  0  0  0  0  0  0
  1  2  1  0  0  0  0
  1 21  1  0  0  0  0
  1 22  1  0  0  0  0
  1 23  1  0  0  0  0
  2 20  2  0  0  0  0
  2  3  1  0  0  0  0
  3  4  2  0  0  0  0
  3 24  1  0  0  0  0
  4  5  1  0  0  0  0
  4 18  1  0  0  0  0
  5  6  1  0  0  0  0
  5 25  1  0  0  0  0
  6  7  2  0  0  0  0
  6  8  1  0  0  0  0
  8  9  1  0  0  0  0
  8 26  1  0  0  0  0
  9 10  1  0  0  0  0
  9 27  1  0  0  0  0
  9 28  1  0  0  0  0
 10 11  1  0  0  0  0
 10 29  1  0  0  0  0
 10 30  1  0  0  0  0
 11 17  1  0  0  0  0
 11 12  1  0  0  0  0
 11 46  1  0  0  0  0
 12 13  1  0  0  0  0
 12 31  1  0  0  0  0
 12 32  1  0  0  0  0
 13 14  1  0  0  0  0
 13 33  1  0  0  0  0
 13 34  1  0  0  0  0
 14 15  1  0  0  0  0
 14 35  1  0  0  0  0
 14 36  1  0  0  0  0
 15 16  1  0  0  0  0
 15 17  1  0  0  0  0
 15 37  1  0  0  0  0
 16 38  1  0  0  0  0
 16 39  1  0  0  0  0
 16 40  1  0  0  0  0
 17 41  1  0  0  0  0
 17 42  1  0  0  0  0
 18 19  1  0  0  0  0
 18 20  1  0  0  0  0
 19 43  1  0  0  0  0
 19 44  1  0  0  0  0
 19 45  1  0  0  0  0
M  CHG  1  11   1
M  END
> <s_m_source_file>
AV-unprocessed.smi

> <i_m_source_file_index>
1934

> <i_lp_mmshare_version>
43012

> <i_f3d_flags>
0

> <s_epik_input>
W0NIM11jMVtjSF1jKG4objEpW0NIM10pW05IXUMoPU8pW05IXVtDSDJdW0NIMl1OMltDSDJdW0NIMl1bQ0gyXVtDQEBIXShbQ0gzXSlbQ0gyXTI=

> <s_epik_cmdline>
J2VwaWtfcHl0aG9uJywgJy1waCcsICc3LjAnLCAnLXRuJywgJzgnLCAnLW1hJywgJzIwMCcsICctbWV0YWxfYmluZGluZycsICctaW1hZScsICc8aW5maWxlLm1hZT4nLCAnLW9tYWUnLCAnPG91dGZpbGUubWFlPic=

> <r_lp_tautomer_probability>
1

> <r_epik_Ionization_Penalty>
0.00202955

> <r_epik_Ionization_Penalty_Charging>
0.00195276

> <r_epik_Ionization_Penalty_Neutral>
7.67968e-05

> <r_epik_State_Penalty>
0.00133177

> <r_epik_Charging_Adjusted_Penalty>
0.00328452

> <i_epik_Tot_Q>
1

> <i_epik_Tot_abs_Q>
1

> <r_epik_Metal_State_Penalty>
-0

> <b_epik_Metal_Only>
0

> <s_lp_Force_Field>
OPLS_2005

> <r_lp_Energy>
20.4325

> <b_lp_Chiralities_Consistent>
1

> <s_lp_Variant>
AV-unprocessed.smi:1934-3

> <Gold.Version>
5.8.1

> <Gold.Id.Protein>
6NUR|6NUR_protein|mol2

> <Gold.PLP.Fitness>
45.3771

> <Gold.PLP.PLP>
-36.7869

> <Gold.PLP.part.hbond>
-4.7417

> <Gold.PLP.part.metal>
0.0000

> <Gold.PLP.part.buried>
3.1254

> <Gold.PLP.part.nonpolar>
-35.4750

> <Gold.PLP.part.repulsive>
0.3382

> <Gold.PLP.ligand.clash>
0.0000

> <Gold.PLP.ligand.torsion>
0.5779

> <Gold.PLP.Chemscore.Hbond>
3.2263

> <Gold.PLP.Chemscore.CHOScore>
0.0000

> <Gold.PLP.Chemscore.Metal>
0.0000

> <Gold.Chemscore.Hbonds>
donor molecule, donor type, donor heavy atom, donor atom, acceptor molecule, acceptor atom, score
      L1  H     5    25       P1  7948  0.96
      L1  H     8    26       P1  7948  1.00
      L1  H    11    46       P1  7921  0.91
      P1  H  7989  7998       L1    20  0.30

> <Gold.PLP.Chemscore.Internal.Correction>
0.0672

> <Gold.Rescore>
     Score         DG    S(hbond)    S(metal)    S(lipo)     H(rot)  DE(clash)    DE(int)     intcor
     18.88     -21.87       2.86        0.00      90.78       1.48       1.41       1.57       ----

> <Gold.Chemscore.Fitness>
18.8816

> <Gold.Chemscore.DG>
-21.8670

> <Gold.Chemscore.ZeroCoef>
-5.4800

> <Gold.Chemscore.Hbond>
2.8636

> <Gold.Chemscore.Metal>
0.0000

> <Gold.Chemscore.Lipo>
90.7779

> <Gold.Chemscore.Internal_Hbond>
0.0000

> <Gold.Chemscore.DEClash>
1.4124

> <Gold.Chemscore.DEInternal>
1.5730

> <Gold.Chemscore.Rot>
1.4838

> <Gold.Chemscore.Internal.Correction>
   9.000000E+99

> <Gold.Chemscore.Hbonds>
donor molecule, donor type, donor heavy atom, donor atom, acceptor molecule, acceptor atom, score
      L1  H     5    25       P1  7948  0.92
      L1  H     8    26       P1  7948  0.92
      L1  H    11    46       P1  7921  0.87

> <Gold.Chemscore.Hbond.Weighted>
-9.5644

> <Gold.Chemscore.Metal.Weighted>
-0.0000

> <Gold.Chemscore.Lipo.Weighted>
-10.6210

> <Gold.Chemscore.Internal_Hbond.Weighted>
0.0000

> <Gold.Chemscore.DEClash.Weighted>
1.4124

> <Gold.Chemscore.DEInternal.Weighted>
1.5730

> <Gold.Chemscore.Rot.Weighted>
3.7985

> <Gold.Chemscore.Internal.Correction.Weighted>
   9.000000E+99

> <Gold.Protein.RotatedTorsions>
[ 6907 6896 6895 6894 ] final    6.90 input  -60.11 | X-H torsion
[ 7974 7965 7964 7962 ] final  158.09 input  175.53 | X-H torsion
[ 8008 7997 7996 7995 ] final  -35.25 input   59.86 | X-H torsion
[ 10167 10162 10161 10158 ] final  161.95 input  -65.29 | X-H torsion
[ 10718 10713 10712 10709 ] final  -27.80 input   66.30 | X-H torsion
[ 10763 10752 10751 10750 ] final   75.22 input  -60.55 | X-H torsion
[ 11005 11000 10999 10996 ] final  -89.63 input  -57.11 | X-H torsion

> <Gold.Protein.ActiveResidues>
 VAL166  LYS551  ARG553  GLY616  TRP617  ASP618  TYR619  PRO620  LYS621  CYS622 
 ASP623  PHE694  ASN695  SER759  ASP760  ASP761  ALA762  ILE779  LEU786  VAL792 
 PHE793  MET794  SER795  GLU796  ALA797  LYS798  CYS799  TRP800  GLU811  SER814 

> <Gold.Protein.RotatedAtoms>
  151.6812  135.0961  160.0216 H   0  0  0  0  0  0  0  0  0  0  0  0  # atno 6907 bound_to 6896
  152.3834  133.6573  159.6188 H   0  0  0  0  0  0  0  0  0  0  0  0  # atno 6908 bound_to 6896
  150.7765  133.8992  159.3377 H   0  0  0  0  0  0  0  0  0  0  0  0  # atno 6909 bound_to 6896
  144.7865  139.7431  143.6238 H   0  0  0  0  0  0  0  0  0  0  0  0  # atno 7974 bound_to 7965
  154.4100  140.1662  156.2181 H   0  0  0  0  0  0  0  0  0  0  0  0  # atno 8008 bound_to 7997
  155.9387  140.3409  155.6286 H   0  0  0  0  0  0  0  0  0  0  0  0  # atno 8009 bound_to 7997
  155.7016  140.0746  157.2398 H   0  0  0  0  0  0  0  0  0  0  0  0  # atno 8010 bound_to 7997
  139.4855  144.4486  151.8859 H   0  0  0  0  0  0  0  0  0  0  0  0  # atno 10167 bound_to 10162
  156.4334  130.4450  149.7101 H   0  0  0  0  0  0  0  0  0  0  0  0  # atno 10718 bound_to 10713
  153.0640  135.4996  154.8158 H   0  0  0  0  0  0  0  0  0  0  0  0  # atno 10763 bound_to 10752
  154.6925  135.2987  154.9461 H   0  0  0  0  0  0  0  0  0  0  0  0  # atno 10764 bound_to 10752
  154.0210  135.6742  153.4825 H   0  0  0  0  0  0  0  0  0  0  0  0  # atno 10765 bound_to 10752
  141.1581  133.7642  156.9623 H   0  0  0  0  0  0  0  0  0  0  0  0  # atno 11005 bound_to 11000
  146.2099  139.5449  142.9688 LP  0  0  0  0  0  0  0  0  0  0  0  0  # atno 17320 bound_to 7965
  145.5907  141.0370  143.2072 LP  0  0  0  0  0  0  0  0  0  0  0  0  # atno 17321 bound_to 7965
  140.3942  144.2577  150.5897 LP  0  0  0  0  0  0  0  0  0  0  0  0  # atno 17342 bound_to 10162
  140.5118  143.2288  151.8524 LP  0  0  0  0  0  0  0  0  0  0  0  0  # atno 17343 bound_to 10162
  156.3995  130.7667  151.2674 LP  0  0  0  0  0  0  0  0  0  0  0  0  # atno 17370 bound_to 10713
  157.7508  131.0244  150.3875 LP  0  0  0  0  0  0  0  0  0  0  0  0  # atno 17371 bound_to 10713
  140.1185  134.9432  157.2169 LP  0  0  0  0  0  0  0  0  0  0  0  0  # atno 17394 bound_to 11000
  140.3103  134.3032  155.7268 LP  0  0  0  0  0  0  0  0  0  0  0  0  # atno 17395 bound_to 11000

$$$$
