AV-unprocessed.smi:400|AV-procd|sdf|2492|dock2
  -GOLD-   2262022433D 1   1.00000     0.00000
 Structure written by MMmdl.
 40 41  0  0  0  0  0  0  0  0  1 V2000
  154.7030  134.4498  164.2204 C   0  0  0  0  0  0  0  0  0  0  0  0
  154.2933  135.7223  163.4624 C   0  0  0  0  0  0  0  0  0  0  0  0
  154.6896  135.7271  161.9690 C   0  0  2  0  0  0  0  0  0  0  0  0
  156.2184  135.7822  161.8066 C   0  0  0  0  0  0  0  0  0  0  0  0
  154.0352  136.8893  161.2052 C   0  0  0  0  0  0  0  0  0  0  0  0
  153.2721  136.6488  160.2688 O   0  0  0  0  0  0  0  0  0  0  0  0
  154.3581  138.1261  161.6290 N   0  0  0  0  0  0  0  0  0  0  0  0
  153.9179  139.3755  161.1171 C   0  0  0  0  0  0  0  0  0  0  0  0
  154.3062  140.5026  161.8714 C   0  0  0  0  0  0  0  0  0  0  0  0
  153.9223  141.7888  161.4463 C   0  0  0  0  0  0  0  0  0  0  0  0
  153.1549  141.9336  160.2659 C   0  0  0  0  0  0  0  0  0  0  0  0
  152.7328  143.1895  159.7776 N   0  0  0  0  0  0  0  0  0  0  0  0
  152.1851  143.2589  158.4259 C   0  0  0  0  0  0  0  0  0  0  0  0
  152.0777  144.7230  157.9656 C   0  0  0  0  0  0  0  0  0  0  0  0
  151.3141  145.4676  158.9086 O   0  0  0  0  0  0  0  0  0  0  0  0
  151.9280  145.4805  160.1932 C   0  0  0  0  0  0  0  0  0  0  0  0
  152.0349  144.0443  160.7352 C   0  0  0  0  0  0  0  0  0  0  0  0
  152.8120  140.7430  159.5845 C   0  0  0  0  0  0  0  0  0  0  0  0
  153.1779  139.5096  159.9910 N   0  0  0  0  0  0  0  0  0  0  0  0
  154.4509  134.5335  165.2776 H   0  0  0  0  0  0  0  0  0  0  0  0
  155.7773  134.2783  164.1489 H   0  0  0  0  0  0  0  0  0  0  0  0
  154.1947  133.5668  163.8327 H   0  0  0  0  0  0  0  0  0  0  0  0
  153.2176  135.8725  163.5655 H   0  0  0  0  0  0  0  0  0  0  0  0
  154.7597  136.5768  163.9541 H   0  0  0  0  0  0  0  0  0  0  0  0
  154.3491  134.7887  161.5275 H   0  0  0  0  0  0  0  0  0  0  0  0
  156.5065  135.8040  160.7548 H   0  0  0  0  0  0  0  0  0  0  0  0
  156.6896  134.9067  162.2543 H   0  0  0  0  0  0  0  0  0  0  0  0
  156.6419  136.6655  162.2866 H   0  0  0  0  0  0  0  0  0  0  0  0
  154.9973  138.1766  162.4084 H   0  0  0  0  0  0  0  0  0  0  0  0
  154.8961  140.3890  162.7693 H   0  0  0  0  0  0  0  0  0  0  0  0
  154.2339  142.6411  162.0310 H   0  0  0  0  0  0  0  0  0  0  0  0
  152.8224  142.7103  157.7315 H   0  0  0  0  0  0  0  0  0  0  0  0
  151.1996  142.7914  158.4098 H   0  0  0  0  0  0  0  0  0  0  0  0
  153.0674  145.1680  157.8502 H   0  0  0  0  0  0  0  0  0  0  0  0
  151.5899  144.7757  156.9923 H   0  0  0  0  0  0  0  0  0  0  0  0
  152.9126  145.9473  160.1331 H   0  0  0  0  0  0  0  0  0  0  0  0
  151.3276  146.0918  160.8670 H   0  0  0  0  0  0  0  0  0  0  0  0
  151.0379  143.6371  160.9080 H   0  0  0  0  0  0  0  0  0  0  0  0
  152.5385  144.0675  161.7006 H   0  0  0  0  0  0  0  0  0  0  0  0
  152.2074  140.7667  158.6902 H   0  0  0  0  0  0  0  0  0  0  0  0
  1  2  1  0  0  0  0
  1 20  1  0  0  0  0
  1 21  1  0  0  0  0
  1 22  1  0  0  0  0
  2  3  1  0  0  0  0
  2 23  1  0  0  0  0
  2 24  1  0  0  0  0
  3  4  1  0  0  0  0
  3  5  1  0  0  0  0
  3 25  1  0  0  0  0
  4 26  1  0  0  0  0
  4 27  1  0  0  0  0
  4 28  1  0  0  0  0
  5  6  2  0  0  0  0
  5  7  1  0  0  0  0
  7  8  1  0  0  0  0
  7 29  1  0  0  0  0
  8 19  1  0  0  0  0
  8  9  2  0  0  0  0
  9 10  1  0  0  0  0
  9 30  1  0  0  0  0
 10 11  2  0  0  0  0
 10 31  1  0  0  0  0
 11 12  1  0  0  0  0
 11 18  1  0  0  0  0
 12 17  1  0  0  0  0
 12 13  1  0  0  0  0
 13 14  1  0  0  0  0
 13 32  1  0  0  0  0
 13 33  1  0  0  0  0
 14 15  1  0  0  0  0
 14 34  1  0  0  0  0
 14 35  1  0  0  0  0
 15 16  1  0  0  0  0
 16 17  1  0  0  0  0
 16 36  1  0  0  0  0
 16 37  1  0  0  0  0
 17 38  1  0  0  0  0
 17 39  1  0  0  0  0
 18 19  2  0  0  0  0
 18 40  1  0  0  0  0
M  END
> <s_m_source_file>
AV-unprocessed.smi

> <i_m_source_file_index>
400

> <i_lp_mmshare_version>
43012

> <i_f3d_flags>
0

> <s_epik_input>
W0NIM11bQ0gyXVtDQEhdKFtDSDNdKUMoPU8pW05IXWMxW2NIXVtjSF1jKFtjSF1uMSlOMltDSDJdW0NIMl1PW0NIMl1bQ0gyXTI=

> <s_epik_cmdline>
J2VwaWtfcHl0aG9uJywgJy1waCcsICc3LjAnLCAnLXRuJywgJzgnLCAnLW1hJywgJzIwMCcsICctbWV0YWxfYmluZGluZycsICctaW1hZScsICc8aW5maWxlLm1hZT4nLCAnLW9tYWUnLCAnPG91dGZpbGUubWFlPic=

> <r_lp_tautomer_probability>
1

> <r_epik_Ionization_Penalty>
0.00393323

> <r_epik_Ionization_Penalty_Charging>
0

> <r_epik_Ionization_Penalty_Neutral>
0.00393323

> <r_epik_State_Penalty>
0.00357844

> <r_epik_Charging_Adjusted_Penalty>
0.00357844

> <i_epik_Tot_Q>
0

> <i_epik_Tot_abs_Q>
0

> <r_epik_Metal_State_Penalty>
-0

> <b_epik_Metal_Only>
0

> <s_lp_Force_Field>
OPLS_2005

> <r_lp_Energy>
25.3319

> <b_lp_Chiralities_Consistent>
1

> <s_lp_Variant>
AV-unprocessed.smi:400-1

> <Gold.Version>
5.8.1

> <Gold.Id.Protein>
6NUR|6NUR_protein|mol2

> <Gold.PLP.Fitness>
43.9024

> <Gold.PLP.PLP>
-41.0377

> <Gold.PLP.part.hbond>
-1.7105

> <Gold.PLP.part.metal>
0.0000

> <Gold.PLP.part.buried>
-5.4095

> <Gold.PLP.part.nonpolar>
-34.0040

> <Gold.PLP.part.repulsive>
0.1422

> <Gold.PLP.ligand.clash>
0.0000

> <Gold.PLP.ligand.torsion>
0.2560

> <Gold.PLP.Chemscore.Hbond>
0.9913

> <Gold.PLP.Chemscore.CHOScore>
0.0000

> <Gold.PLP.Chemscore.Metal>
0.0000

> <Gold.Chemscore.Hbonds>
donor molecule, donor type, donor heavy atom, donor atom, acceptor molecule, acceptor atom, score
      P1  H  6896  6909       L1     6  1.00

> <Gold.PLP.Chemscore.Internal.Correction>
0.4029

> <Gold.Rescore>
     Score         DG    S(hbond)    S(metal)    S(lipo)     H(rot)  DE(clash)    DE(int)     intcor
     17.32     -18.96       1.00        0.00     115.26       1.30       0.10       1.55       ----

> <Gold.Chemscore.Fitness>
17.3153

> <Gold.Chemscore.DG>
-18.9641

> <Gold.Chemscore.ZeroCoef>
-5.4800

> <Gold.Chemscore.Hbond>
0.9992

> <Gold.Chemscore.Metal>
0.0000

> <Gold.Chemscore.Lipo>
115.2607

> <Gold.Chemscore.Internal_Hbond>
0.0000

> <Gold.Chemscore.DEClash>
0.0969

> <Gold.Chemscore.DEInternal>
1.5519

> <Gold.Chemscore.Rot>
1.3041

> <Gold.Chemscore.Internal.Correction>
   9.000000E+99

> <Gold.Chemscore.Hbonds>
donor molecule, donor type, donor heavy atom, donor atom, acceptor molecule, acceptor atom, score
      P1  H  6896  6909       L1     6  0.94

> <Gold.Chemscore.Hbond.Weighted>
-3.3372

> <Gold.Chemscore.Metal.Weighted>
-0.0000

> <Gold.Chemscore.Lipo.Weighted>
-13.4855

> <Gold.Chemscore.Internal_Hbond.Weighted>
0.0000

> <Gold.Chemscore.DEClash.Weighted>
0.0969

> <Gold.Chemscore.DEInternal.Weighted>
1.5519

> <Gold.Chemscore.Rot.Weighted>
3.3385

> <Gold.Chemscore.Internal.Correction.Weighted>
   9.000000E+99

> <Gold.Protein.RotatedTorsions>
[ 6907 6896 6895 6894 ] final  153.86 input  -60.11 | X-H torsion
[ 7974 7965 7964 7962 ] final   56.08 input  175.53 | X-H torsion
[ 8008 7997 7996 7995 ] final  -20.98 input   59.86 | X-H torsion
[ 10167 10162 10161 10158 ] final   59.74 input  -65.29 | X-H torsion
[ 10718 10713 10712 10709 ] final -104.60 input   66.30 | X-H torsion
[ 10763 10752 10751 10750 ] final  -42.66 input  -60.55 | X-H torsion
[ 11005 11000 10999 10996 ] final -134.73 input  -57.11 | X-H torsion

> <Gold.Protein.ActiveResidues>
 VAL166  LYS551  ARG553  GLY616  TRP617  ASP618  TYR619  PRO620  LYS621  CYS622 
 ASP623  PHE694  ASN695  SER759  ASP760  ASP761  ALA762  ILE779  LEU786  VAL792 
 PHE793  MET794  SER795  GLU796  ALA797  LYS798  CYS799  TRP800  GLU811  SER814 

> <Gold.Protein.RotatedAtoms>
  152.0666  133.4087  159.4440 H   0  0  0  0  0  0  0  0  0  0  0  0  # atno 6907 bound_to 6896
  150.6864  134.3139  159.4767 H   0  0  0  0  0  0  0  0  0  0  0  0  # atno 6908 bound_to 6896
  152.0966  134.9370  160.0621 H   0  0  0  0  0  0  0  0  0  0  0  0  # atno 6909 bound_to 6896
  145.9436  139.3910  143.0348 H   0  0  0  0  0  0  0  0  0  0  0  0  # atno 7974 bound_to 7965
  154.4735  140.2047  155.9937 H   0  0  0  0  0  0  0  0  0  0  0  0  # atno 8008 bound_to 7997
  156.1050  140.3238  155.7964 H   0  0  0  0  0  0  0  0  0  0  0  0  # atno 8009 bound_to 7997
  155.4733  140.0533  157.2967 H   0  0  0  0  0  0  0  0  0  0  0  0  # atno 8010 bound_to 7997
  140.1732  144.4256  150.6651 H   0  0  0  0  0  0  0  0  0  0  0  0  # atno 10167 bound_to 10162
  156.0311  130.5523  150.7420 H   0  0  0  0  0  0  0  0  0  0  0  0  # atno 10718 bound_to 10713
  153.9827  135.6715  153.4750 H   0  0  0  0  0  0  0  0  0  0  0  0  # atno 10763 bound_to 10752
  153.0741  135.4958  154.8363 H   0  0  0  0  0  0  0  0  0  0  0  0  # atno 10764 bound_to 10752
  154.7155  135.3106  154.9092 H   0  0  0  0  0  0  0  0  0  0  0  0  # atno 10765 bound_to 10752
  140.8963  134.1747  157.4492 H   0  0  0  0  0  0  0  0  0  0  0  0  # atno 11005 bound_to 11000
  145.8266  140.9652  143.0871 LP  0  0  0  0  0  0  0  0  0  0  0  0  # atno 17320 bound_to 7965
  144.6783  140.0109  143.7484 LP  0  0  0  0  0  0  0  0  0  0  0  0  # atno 17321 bound_to 7965
  140.6568  143.2240  151.5949 LP  0  0  0  0  0  0  0  0  0  0  0  0  # atno 17342 bound_to 10162
  139.5329  144.2865  152.1187 LP  0  0  0  0  0  0  0  0  0  0  0  0  # atno 17343 bound_to 10162
  157.4986  131.0917  151.0341 LP  0  0  0  0  0  0  0  0  0  0  0  0  # atno 17370 bound_to 10713
  157.0728  130.5871  149.5406 LP  0  0  0  0  0  0  0  0  0  0  0  0  # atno 17371 bound_to 10713
  139.8736  134.9879  156.5391 LP  0  0  0  0  0  0  0  0  0  0  0  0  # atno 17394 bound_to 11000
  140.8285  133.8297  155.8962 LP  0  0  0  0  0  0  0  0  0  0  0  0  # atno 17395 bound_to 11000

$$$$
