AV-unprocessed.smi:2821|AV-procd|sdf|10856|dock6
  -GOLD-   2272015303D 1   1.00000     0.00000
 Structure written by MMmdl.
 36 37  0  0  0  0  0  0  0  0  1 V2000
  153.7750  136.5885  158.0252 C   0  0  0  0  0  0  0  0  0  0  0  0
  154.6620  137.1578  156.9156 C   0  0  0  0  0  0  0  0  0  0  0  0
  153.8443  137.4762  155.7939 O   0  0  0  0  0  0  0  0  0  0  0  0
  152.9168  138.4888  155.9276 C   0  0  0  0  0  0  0  0  0  0  0  0
  152.0845  138.8186  154.8366 C   0  0  0  0  0  0  0  0  0  0  0  0
  151.1617  139.8026  154.9132 N   0  0  0  0  0  0  0  0  0  0  0  0
  151.0717  140.4581  156.0914 C   0  0  0  0  0  0  0  0  0  0  0  0
  151.8946  140.1366  157.1935 C   0  0  0  0  0  0  0  0  0  0  0  0
  151.7522  140.8535  158.3907 N   0  0  0  0  0  0  0  0  0  0  0  0
  152.6451  141.9565  158.7360 C   0  0  2  0  0  0  0  0  0  0  0  0
  153.3650  141.6693  160.0657 C   0  0  0  0  0  0  0  0  0  0  0  0
  151.8554  143.2774  158.8046 C   0  0  2  0  0  0  0  0  0  0  0  0
  152.7230  144.5375  158.7640 C   0  0  0  0  0  0  0  0  0  0  0  0
  151.8782  145.5829  159.4763 C   0  0  0  0  0  0  0  0  0  0  0  0
  150.7874  144.7675  160.1748 C   0  0  0  0  0  0  0  0  0  0  0  0
  151.2088  143.4163  160.0605 O   0  0  0  0  0  0  0  0  0  0  0  0
  152.8205  139.1513  157.1078 N   0  0  0  0  0  0  0  0  0  0  0  0
  154.3680  136.3261  158.9016 H   0  0  0  0  0  0  0  0  0  0  0  0
  153.2571  135.6896  157.6902 H   0  0  0  0  0  0  0  0  0  0  0  0
  153.0226  137.3141  158.3354 H   0  0  0  0  0  0  0  0  0  0  0  0
  155.1758  138.0494  157.2791 H   0  0  0  0  0  0  0  0  0  0  0  0
  155.4181  136.4213  156.6383 H   0  0  0  0  0  0  0  0  0  0  0  0
  152.1605  138.2904  153.8977 H   0  0  0  0  0  0  0  0  0  0  0  0
  150.3335  141.2444  156.1538 H   0  0  0  0  0  0  0  0  0  0  0  0
  151.1519  140.4834  159.1133 H   0  0  0  0  0  0  0  0  0  0  0  0
  153.3963  142.0622  157.9522 H   0  0  0  0  0  0  0  0  0  0  0  0
  154.0562  142.4727  160.3212 H   0  0  0  0  0  0  0  0  0  0  0  0
  153.9469  140.7486  160.0160 H   0  0  0  0  0  0  0  0  0  0  0  0
  152.6549  141.5693  160.8873 H   0  0  0  0  0  0  0  0  0  0  0  0
  151.1019  143.3160  158.0151 H   0  0  0  0  0  0  0  0  0  0  0  0
  153.6469  144.3767  159.3214 H   0  0  0  0  0  0  0  0  0  0  0  0
  152.9919  144.8306  157.7489 H   0  0  0  0  0  0  0  0  0  0  0  0
  152.4801  146.1452  160.1909 H   0  0  0  0  0  0  0  0  0  0  0  0
  151.4392  146.2924  158.7743 H   0  0  0  0  0  0  0  0  0  0  0  0
  150.6539  145.0512  161.2190 H   0  0  0  0  0  0  0  0  0  0  0  0
  149.8312  144.8885  159.6637 H   0  0  0  0  0  0  0  0  0  0  0  0
  1  2  1  0  0  0  0
  1 18  1  0  0  0  0
  1 19  1  0  0  0  0
  1 20  1  0  0  0  0
  2  3  1  0  0  0  0
  2 21  1  0  0  0  0
  2 22  1  0  0  0  0
  3  4  1  0  0  0  0
  4 17  1  0  0  0  0
  4  5  2  0  0  0  0
  5  6  1  0  0  0  0
  5 23  1  0  0  0  0
  6  7  2  0  0  0  0
  7  8  1  0  0  0  0
  7 24  1  0  0  0  0
  8  9  1  0  0  0  0
  8 17  2  0  0  0  0
  9 10  1  0  0  0  0
  9 25  1  0  0  0  0
 10 11  1  0  0  0  0
 10 12  1  0  0  0  0
 10 26  1  0  0  0  0
 11 27  1  0  0  0  0
 11 28  1  0  0  0  0
 11 29  1  0  0  0  0
 12 16  1  0  0  0  0
 12 13  1  0  0  0  0
 12 30  1  0  0  0  0
 13 14  1  0  0  0  0
 13 31  1  0  0  0  0
 13 32  1  0  0  0  0
 14 15  1  0  0  0  0
 14 33  1  0  0  0  0
 14 34  1  0  0  0  0
 15 16  1  0  0  0  0
 15 35  1  0  0  0  0
 15 36  1  0  0  0  0
M  END
> <s_m_source_file>
AV-unprocessed.smi

> <i_m_source_file_index>
2821

> <i_lp_mmshare_version>
43012

> <i_f3d_flags>
0

> <s_epik_input>
W0NIM11bQ0gyXU9jMVtjSF1uW2NIXWMobjEpW05IXVtDQEhdKFtDSDNdKVtDQEBIXTJbQ0gyXVtDSDJdW0NIMl1PMg==

> <s_epik_cmdline>
J2VwaWtfcHl0aG9uJywgJy1waCcsICc3LjAnLCAnLXRuJywgJzgnLCAnLW1hJywgJzIwMCcsICctbWV0YWxfYmluZGluZycsICctaW1hZScsICc8aW5maWxlLm1hZT4nLCAnLW9tYWUnLCAnPG91dGZpbGUubWFlPic=

> <r_lp_tautomer_probability>
1

> <r_epik_Ionization_Penalty>
4.69533e-05

> <r_epik_Ionization_Penalty_Charging>
0

> <r_epik_Ionization_Penalty_Neutral>
4.69533e-05

> <r_epik_State_Penalty>
-0

> <r_epik_Charging_Adjusted_Penalty>
0

> <i_epik_Tot_Q>
0

> <i_epik_Tot_abs_Q>
0

> <r_epik_Metal_State_Penalty>
-0

> <b_epik_Metal_Only>
0

> <s_lp_Force_Field>
OPLS_2005

> <r_lp_Energy>
27.5992

> <b_lp_Chiralities_Consistent>
1

> <s_lp_Variant>
AV-unprocessed.smi:2821-1

> <Gold.Version>
5.8.1

> <Gold.Id.Protein>
6NUR|6NUR_protein|mol2

> <Gold.PLP.Fitness>
39.7260

> <Gold.PLP.PLP>
-36.1367

> <Gold.PLP.part.hbond>
-3.3176

> <Gold.PLP.part.metal>
0.0000

> <Gold.PLP.part.buried>
-4.0144

> <Gold.PLP.part.nonpolar>
-29.1443

> <Gold.PLP.part.repulsive>
0.2087

> <Gold.PLP.ligand.clash>
0.0000

> <Gold.PLP.ligand.torsion>
1.0662

> <Gold.PLP.Chemscore.Hbond>
1.8976

> <Gold.PLP.Chemscore.CHOScore>
0.0000

> <Gold.PLP.Chemscore.Metal>
0.0000

> <Gold.Chemscore.Hbonds>
donor molecule, donor type, donor heavy atom, donor atom, acceptor molecule, acceptor atom, score
      P1  H  7989  7998       L1     6  1.00
      P1  H  7997  8010       L1    17  0.79
      P1  H 10752 10764       L1     3  0.10

> <Gold.PLP.Chemscore.Internal.Correction>
0.0289

> <Gold.Rescore>
     Score         DG    S(hbond)    S(metal)    S(lipo)     H(rot)  DE(clash)    DE(int)     intcor
     13.97     -15.21       0.92        0.00      90.82       1.55       0.13       1.11       ----

> <Gold.Chemscore.Fitness>
13.9698

> <Gold.Chemscore.DG>
-15.2132

> <Gold.Chemscore.ZeroCoef>
-5.4800

> <Gold.Chemscore.Hbond>
0.9217

> <Gold.Chemscore.Metal>
0.0000

> <Gold.Chemscore.Lipo>
90.8213

> <Gold.Chemscore.Internal_Hbond>
0.0000

> <Gold.Chemscore.DEClash>
0.1289

> <Gold.Chemscore.DEInternal>
1.1146

> <Gold.Chemscore.Rot>
1.5514

> <Gold.Chemscore.Internal.Correction>
   9.000000E+99

> <Gold.Chemscore.Hbonds>
donor molecule, donor type, donor heavy atom, donor atom, acceptor molecule, acceptor atom, score
      P1  H  7989  7998       L1     6  0.26
      P1  H  7997  8010       L1    17  0.07
      P1  H 10752 10764       L1     3  0.03

> <Gold.Chemscore.Hbond.Weighted>
-3.0786

> <Gold.Chemscore.Metal.Weighted>
-0.0000

> <Gold.Chemscore.Lipo.Weighted>
-10.6261

> <Gold.Chemscore.Internal_Hbond.Weighted>
0.0000

> <Gold.Chemscore.DEClash.Weighted>
0.1289

> <Gold.Chemscore.DEInternal.Weighted>
1.1146

> <Gold.Chemscore.Rot.Weighted>
3.9715

> <Gold.Chemscore.Internal.Correction.Weighted>
   9.000000E+99

> <Gold.Protein.RotatedTorsions>
[ 6907 6896 6895 6894 ] final   -6.82 input  -60.11 | X-H torsion
[ 7974 7965 7964 7962 ] final  179.87 input  175.53 | X-H torsion
[ 8008 7997 7996 7995 ] final   35.49 input   59.86 | X-H torsion
[ 10167 10162 10161 10158 ] final   12.46 input  -65.29 | X-H torsion
[ 10718 10713 10712 10709 ] final  -71.82 input   66.30 | X-H torsion
[ 10763 10752 10751 10750 ] final  -20.36 input  -60.55 | X-H torsion
[ 11005 11000 10999 10996 ] final   34.83 input  -57.11 | X-H torsion

> <Gold.Protein.ActiveResidues>
 VAL166  LYS551  ARG553  GLY616  TRP617  ASP618  TYR619  PRO620  LYS621  CYS622 
 ASP623  PHE694  ASN695  SER759  ASP760  ASP761  ALA762  ILE779  LEU786  VAL792 
 PHE793  MET794  SER795  GLU796  ALA797  LYS798  CYS799  TRP800  GLU811  SER814 

> <Gold.Protein.RotatedAtoms>
  151.4595  135.1037  159.9720 H   0  0  0  0  0  0  0  0  0  0  0  0  # atno 6907 bound_to 6896
  152.4858  133.8365  159.7141 H   0  0  0  0  0  0  0  0  0  0  0  0  # atno 6908 bound_to 6896
  150.8967  133.7112  159.2917 H   0  0  0  0  0  0  0  0  0  0  0  0  # atno 6909 bound_to 6896
  144.7142  140.0613  143.6432 H   0  0  0  0  0  0  0  0  0  0  0  0  # atno 7974 bound_to 7965
  155.1719  140.3292  155.4391 H   0  0  0  0  0  0  0  0  0  0  0  0  # atno 8008 bound_to 7997
  156.2507  140.1942  156.6772 H   0  0  0  0  0  0  0  0  0  0  0  0  # atno 8009 bound_to 7997
  154.6331  140.0580  156.9742 H   0  0  0  0  0  0  0  0  0  0  0  0  # atno 8010 bound_to 7997
  140.6066  143.8494  150.7021 H   0  0  0  0  0  0  0  0  0  0  0  0  # atno 10167 bound_to 10162
  156.0346  130.4359  150.2501 H   0  0  0  0  0  0  0  0  0  0  0  0  # atno 10718 bound_to 10713
  153.6191  135.6993  153.5317 H   0  0  0  0  0  0  0  0  0  0  0  0  # atno 10763 bound_to 10752
  153.2952  135.4145  155.1203 H   0  0  0  0  0  0  0  0  0  0  0  0  # atno 10764 bound_to 10752
  154.8547  135.3635  154.5732 H   0  0  0  0  0  0  0  0  0  0  0  0  # atno 10765 bound_to 10752
  140.2488  134.3327  155.7898 H   0  0  0  0  0  0  0  0  0  0  0  0  # atno 11005 bound_to 11000
  145.9861  139.2979  143.1013 LP  0  0  0  0  0  0  0  0  0  0  0  0  # atno 17320 bound_to 7965
  145.8956  140.9276  143.0530 LP  0  0  0  0  0  0  0  0  0  0  0  0  # atno 17321 bound_to 7965
  140.2053  143.3927  152.1760 LP  0  0  0  0  0  0  0  0  0  0  0  0  # atno 17342 bound_to 10162
  139.5330  144.7179  151.4991 LP  0  0  0  0  0  0  0  0  0  0  0  0  # atno 17343 bound_to 10162
  157.0601  131.0087  151.3225 LP  0  0  0  0  0  0  0  0  0  0  0  0  # atno 17370 bound_to 10713
  157.5077  130.7919  149.7671 LP  0  0  0  0  0  0  0  0  0  0  0  0  # atno 17371 bound_to 10713
  141.2203  133.7341  156.9004 LP  0  0  0  0  0  0  0  0  0  0  0  0  # atno 17394 bound_to 11000
  140.1579  134.9186  157.2677 LP  0  0  0  0  0  0  0  0  0  0  0  0  # atno 17395 bound_to 11000

$$$$
