AV-unprocessed.smi:1308|AV-procd|sdf|5442|dock5
  -GOLD-   22720 5 13D 1   1.00000     0.00000
 Structure written by MMmdl.
 44 44  0  0  0  0  0  0  0  0  2 V2000
  146.6937  136.2246  162.3760 C   0  0  0  0  0  0  0  0  0  0  0  0
  147.1329  136.6325  160.9858 C   0  0  0  0  0  0  0  0  0  0  0  0
  146.2502  136.9769  160.1275 N   0  0  0  0  0  0  0  0  0  0  0  0
  146.6521  137.3516  158.8343 C   0  0  0  0  0  0  0  0  0  0  0  0
  145.5370  137.7348  157.8771 C   0  0  0  0  0  0  0  0  0  0  0  0
  147.9685  137.3583  158.4789 C   0  0  0  0  0  0  0  0  0  0  0  0
  148.4560  137.7428  157.0806 C   0  0  0  0  0  0  0  0  0  0  0  0
  148.2725  139.2113  156.6893 C   0  0  0  0  0  0  0  0  0  0  0  0
  147.2154  139.5821  156.1796 O   0  0  0  0  0  0  0  0  0  0  0  0
  149.3031  140.0333  156.9452 N   0  0  0  0  0  0  0  0  0  0  0  0
  149.3688  141.4606  156.6434 C   0  0  2  0  0  0  0  0  0  0  0  0
  148.9367  141.6801  155.1871 C   0  0  0  0  0  0  0  0  0  0  0  0
  150.7863  142.0064  156.9043 C   0  0  0  0  0  0  0  0  0  0  0  0
  151.1718  142.0419  158.3958 C   0  0  0  0  0  0  0  0  0  0  0  0
  152.4404  142.8638  158.7003 C   0  0  0  0  0  0  0  0  0  0  0  0
  152.8647  142.7634  160.1753 C   0  0  0  0  0  0  0  0  0  0  0  0
  152.2419  144.3332  158.2987 C   0  0  0  0  0  0  0  0  0  0  0  0
  148.9542  136.9527  159.4969 C   0  0  0  0  0  0  0  0  0  0  0  0
  150.1531  136.9224  159.2219 O   0  0  0  0  0  0  0  0  0  0  0  0
  148.4852  136.6059  160.7290 N   0  5  0  0  0  0  0  0  0  0  0  0
  145.6079  136.1386  162.4358 H   0  0  0  0  0  0  0  0  0  0  0  0
  147.0201  136.9650  163.1068 H   0  0  0  0  0  0  0  0  0  0  0  0
  147.1264  135.2598  162.6431 H   0  0  0  0  0  0  0  0  0  0  0  0
  145.6272  138.7815  157.5869 H   0  0  0  0  0  0  0  0  0  0  0  0
  144.5574  137.5972  158.3363 H   0  0  0  0  0  0  0  0  0  0  0  0
  145.5732  137.1198  156.9777 H   0  0  0  0  0  0  0  0  0  0  0  0
  149.5164  137.5005  157.0058 H   0  0  0  0  0  0  0  0  0  0  0  0
  147.9790  137.1238  156.3205 H   0  0  0  0  0  0  0  0  0  0  0  0
  150.1220  139.6271  157.3759 H   0  0  0  0  0  0  0  0  0  0  0  0
  148.6696  142.0109  157.2752 H   0  0  0  0  0  0  0  0  0  0  0  0
  148.9486  142.7390  154.9287 H   0  0  0  0  0  0  0  0  0  0  0  0
  147.9239  141.3118  155.0199 H   0  0  0  0  0  0  0  0  0  0  0  0
  149.5984  141.1598  154.4935 H   0  0  0  0  0  0  0  0  0  0  0  0
  151.5075  141.4067  156.3486 H   0  0  0  0  0  0  0  0  0  0  0  0
  150.8537  143.0166  156.4991 H   0  0  0  0  0  0  0  0  0  0  0  0
  150.3360  142.4656  158.9542 H   0  0  0  0  0  0  0  0  0  0  0  0
  151.3009  141.0265  158.7723 H   0  0  0  0  0  0  0  0  0  0  0  0
  153.2540  142.4700  158.0898 H   0  0  0  0  0  0  0  0  0  0  0  0
  152.0689  143.1001  160.8404 H   0  0  0  0  0  0  0  0  0  0  0  0
  153.7430  143.3786  160.3722 H   0  0  0  0  0  0  0  0  0  0  0  0
  153.1219  141.7415  160.4524 H   0  0  0  0  0  0  0  0  0  0  0  0
  151.4354  144.7939  158.8702 H   0  0  0  0  0  0  0  0  0  0  0  0
  151.9932  144.4232  157.2409 H   0  0  0  0  0  0  0  0  0  0  0  0
  153.1476  144.9150  158.4719 H   0  0  0  0  0  0  0  0  0  0  0  0
  1  2  1  0  0  0  0
  1 21  1  0  0  0  0
  1 22  1  0  0  0  0
  1 23  1  0  0  0  0
  2 20  1  0  0  0  0
  2  3  2  0  0  0  0
  3  4  1  0  0  0  0
  4  5  1  0  0  0  0
  4  6  2  0  0  0  0
  5 24  1  0  0  0  0
  5 25  1  0  0  0  0
  5 26  1  0  0  0  0
  6  7  1  0  0  0  0
  6 18  1  0  0  0  0
  7  8  1  0  0  0  0
  7 27  1  0  0  0  0
  7 28  1  0  0  0  0
  8  9  2  0  0  0  0
  8 10  1  0  0  0  0
 10 11  1  0  0  0  0
 10 29  1  0  0  0  0
 11 12  1  0  0  0  0
 11 13  1  0  0  0  0
 11 30  1  0  0  0  0
 12 31  1  0  0  0  0
 12 32  1  0  0  0  0
 12 33  1  0  0  0  0
 13 14  1  0  0  0  0
 13 34  1  0  0  0  0
 13 35  1  0  0  0  0
 14 15  1  0  0  0  0
 14 36  1  0  0  0  0
 14 37  1  0  0  0  0
 15 16  1  0  0  0  0
 15 17  1  0  0  0  0
 15 38  1  0  0  0  0
 16 39  1  0  0  0  0
 16 40  1  0  0  0  0
 16 41  1  0  0  0  0
 17 42  1  0  0  0  0
 17 43  1  0  0  0  0
 17 44  1  0  0  0  0
 18 19  2  0  0  0  0
 18 20  1  0  0  0  0
M  CHG  1  20  -1
M  END
> <s_m_source_file>
AV-unprocessed.smi

> <i_m_source_file_index>
1308

> <i_lp_mmshare_version>
43012

> <i_f3d_flags>
0

> <s_epik_input>
W0NIM11jMW5jKFtDSDNdKWMoYyg9TylbbkhdMSlbQ0gyXUMoPU8pW05IXVtDQEhdKFtDSDNdKVtDSDJdW0NIMl1bQ0hdKFtDSDNdKVtDSDNd

> <s_epik_cmdline>
J2VwaWtfcHl0aG9uJywgJy1waCcsICc3LjAnLCAnLXRuJywgJzgnLCAnLW1hJywgJzIwMCcsICctbWV0YWxfYmluZGluZycsICctaW1hZScsICc8aW5maWxlLm1hZT4nLCAnLW9tYWUnLCAnPG91dGZpbGUubWFlPic=

> <r_lp_tautomer_probability>
0.839158

> <r_epik_Ionization_Penalty>
6.61719

> <r_epik_Ionization_Penalty_Charging>
7.20681e-08

> <r_epik_Ionization_Penalty_Neutral>
6.61719

> <r_epik_State_Penalty>
4.43758

> <r_epik_Charging_Adjusted_Penalty>
4.43758

> <i_epik_Tot_Q>
-1

> <i_epik_Tot_abs_Q>
1

> <r_epik_Metal_State_Penalty>
0.801586

> <b_epik_Metal_Only>
1

> <s_lp_Force_Field>
OPLS_2005

> <r_lp_Energy>
8.43775

> <b_lp_Chiralities_Consistent>
1

> <s_lp_Variant>
AV-unprocessed.smi:1308-5

> <Gold.Version>
5.8.1

> <Gold.Id.Protein>
6NUR|6NUR_protein|mol2

> <Gold.PLP.Fitness>
40.8210

> <Gold.PLP.PLP>
-32.9469

> <Gold.PLP.part.hbond>
-2.0000

> <Gold.PLP.part.metal>
0.0000

> <Gold.PLP.part.buried>
-4.9388

> <Gold.PLP.part.nonpolar>
-27.2943

> <Gold.PLP.part.repulsive>
0.0199

> <Gold.PLP.ligand.clash>
0.0000

> <Gold.PLP.ligand.torsion>
0.6073

> <Gold.PLP.Chemscore.Hbond>
3.0000

> <Gold.PLP.Chemscore.CHOScore>
0.0000

> <Gold.PLP.Chemscore.Metal>
0.0000

> <Gold.Chemscore.Hbonds>
donor molecule, donor type, donor heavy atom, donor atom, acceptor molecule, acceptor atom, score
      P1  H  6896  6908       L1    19  0.67
      P1  H  6931  6943       L1    20  1.64

> <Gold.PLP.Chemscore.Internal.Correction>
0.0887

> <Gold.Rescore>
     Score         DG    S(hbond)    S(metal)    S(lipo)     H(rot)  DE(clash)    DE(int)     intcor
     11.37     -13.18       1.01        0.00      78.77       1.91       0.02       1.78       ----

> <Gold.Chemscore.Fitness>
11.3742

> <Gold.Chemscore.DG>
-13.1797

> <Gold.Chemscore.ZeroCoef>
-5.4800

> <Gold.Chemscore.Hbond>
1.0114

> <Gold.Chemscore.Metal>
0.0000

> <Gold.Chemscore.Lipo>
78.7684

> <Gold.Chemscore.Internal_Hbond>
0.0000

> <Gold.Chemscore.DEClash>
0.0215

> <Gold.Chemscore.DEInternal>
1.7840

> <Gold.Chemscore.Rot>
1.9118

> <Gold.Chemscore.Internal.Correction>
   9.000000E+99

> <Gold.Chemscore.Hbonds>
donor molecule, donor type, donor heavy atom, donor atom, acceptor molecule, acceptor atom, score
      P1  H  6896  6908       L1    19  0.50
      P1  H  6931  6943       L1    20  0.06

> <Gold.Chemscore.Hbond.Weighted>
-3.3781

> <Gold.Chemscore.Metal.Weighted>
-0.0000

> <Gold.Chemscore.Lipo.Weighted>
-9.2159

> <Gold.Chemscore.Internal_Hbond.Weighted>
0.0000

> <Gold.Chemscore.DEClash.Weighted>
0.0215

> <Gold.Chemscore.DEInternal.Weighted>
1.7840

> <Gold.Chemscore.Rot.Weighted>
4.8943

> <Gold.Chemscore.Internal.Correction.Weighted>
   9.000000E+99

> <Gold.Protein.RotatedTorsions>
[ 6907 6896 6895 6894 ] final -156.71 input  -60.11 | X-H torsion
[ 7974 7965 7964 7962 ] final  107.14 input  175.53 | X-H torsion
[ 8008 7997 7996 7995 ] final  173.69 input   59.86 | X-H torsion
[ 10167 10162 10161 10158 ] final  164.39 input  -65.29 | X-H torsion
[ 10718 10713 10712 10709 ] final  -62.47 input   66.30 | X-H torsion
[ 10763 10752 10751 10750 ] final   62.58 input  -60.55 | X-H torsion
[ 11005 11000 10999 10996 ] final -165.30 input  -57.11 | X-H torsion

> <Gold.Protein.ActiveResidues>
 VAL166  LYS551  ARG553  GLY616  TRP617  ASP618  TYR619  PRO620  LYS621  CYS622 
 ASP623  PHE694  ASN695  SER759  ASP760  ASP761  ALA762  ILE779  LEU786  VAL792 
 PHE793  MET794  SER795  GLU796  ALA797  LYS798  CYS799  TRP800  GLU811  SER814 

> <Gold.Protein.RotatedAtoms>
  151.2917  133.4162  159.2633 H   0  0  0  0  0  0  0  0  0  0  0  0  # atno 6907 bound_to 6896
  151.0272  134.9513  159.8101 H   0  0  0  0  0  0  0  0  0  0  0  0  # atno 6908 bound_to 6896
  152.5337  134.2879  159.9084 H   0  0  0  0  0  0  0  0  0  0  0  0  # atno 6909 bound_to 6896
  145.2975  139.2580  143.3832 H   0  0  0  0  0  0  0  0  0  0  0  0  # atno 7974 bound_to 7965
  156.1050  140.1453  156.9416 H   0  0  0  0  0  0  0  0  0  0  0  0  # atno 8008 bound_to 7997
  154.4728  140.0904  156.7231 H   0  0  0  0  0  0  0  0  0  0  0  0  # atno 8009 bound_to 7997
  155.4695  140.3441  155.4326 H   0  0  0  0  0  0  0  0  0  0  0  0  # atno 8010 bound_to 7997
  139.4888  144.4240  151.9152 H   0  0  0  0  0  0  0  0  0  0  0  0  # atno 10167 bound_to 10162
  156.0853  130.4209  150.1139 H   0  0  0  0  0  0  0  0  0  0  0  0  # atno 10718 bound_to 10713
  152.9987  135.5460  154.6215 H   0  0  0  0  0  0  0  0  0  0  0  0  # atno 10763 bound_to 10752
  154.5513  135.2827  155.1008 H   0  0  0  0  0  0  0  0  0  0  0  0  # atno 10764 bound_to 10752
  154.2246  135.6444  153.5208 H   0  0  0  0  0  0  0  0  0  0  0  0  # atno 10765 bound_to 10752
  140.5773  134.5177  157.5172 H   0  0  0  0  0  0  0  0  0  0  0  0  # atno 11005 bound_to 11000
  146.3164  140.3481  142.8653 LP  0  0  0  0  0  0  0  0  0  0  0  0  # atno 17320 bound_to 7965
  144.9121  140.7770  143.5801 LP  0  0  0  0  0  0  0  0  0  0  0  0  # atno 17321 bound_to 7965
  140.3685  144.2885  150.5923 LP  0  0  0  0  0  0  0  0  0  0  0  0  # atno 17342 bound_to 10162
  140.5340  143.2237  151.8193 LP  0  0  0  0  0  0  0  0  0  0  0  0  # atno 17343 bound_to 10162
  156.9161  130.9668  151.3555 LP  0  0  0  0  0  0  0  0  0  0  0  0  # atno 17370 bound_to 10713
  157.5985  130.8495  149.8766 LP  0  0  0  0  0  0  0  0  0  0  0  0  # atno 17371 bound_to 10713
  139.9334  134.7921  156.0869 LP  0  0  0  0  0  0  0  0  0  0  0  0  # atno 17394 bound_to 11000
  141.1018  133.6674  156.2773 LP  0  0  0  0  0  0  0  0  0  0  0  0  # atno 17395 bound_to 11000

$$$$
