AV-unprocessed.smi:658|AV-procd|sdf|3231|dock9
  -GOLD-   22720 0173D 1   1.00000     0.00000
 Structure written by MMmdl.
 38 38  0  0  0  0  0  0  0  0  2 V2000
  144.3536  135.7301  152.3231 C   0  0  0  0  0  0  0  0  0  0  0  0
  145.8060  135.3600  151.9707 C   0  0  1  0  0  0  0  0  0  0  0  0
  146.7162  136.0988  152.8752 N   0  3  0  0  0  0  0  0  0  0  0  0
  146.7272  135.6216  154.2735 C   0  0  0  0  0  0  0  0  0  0  0  0
  147.6947  136.4483  155.1285 C   0  0  0  0  0  0  0  0  0  0  0  0
  149.1255  135.8958  155.0968 C   0  0  0  0  0  0  0  0  0  0  0  0
  150.3529  137.2679  155.1170 S   0  0  0  0  0  0  0  0  0  0  0  0
  150.0741  138.0478  153.6098 N   0  0  0  0  0  0  0  0  0  0  0  0
  149.9827  138.2092  156.1846 O   0  0  0  0  0  0  0  0  0  0  0  0
  151.7025  136.6853  155.0774 O   0  0  0  0  0  0  0  0  0  0  0  0
  146.0802  133.8341  152.0472 C   0  0  2  0  0  0  0  0  0  0  0  0
  147.5689  133.4757  151.8837 C   0  0  0  0  0  0  0  0  0  0  0  0
  145.2865  133.0942  151.0737 N   0  0  0  0  0  0  0  0  0  0  0  0
  145.7193  132.3122  150.0209 C   0  0  0  0  0  0  0  0  0  0  0  0
  144.6104  131.8355  149.3830 C   0  0  0  0  0  0  0  0  0  0  0  0
  143.5300  132.3900  150.1240 C   0  0  0  0  0  0  0  0  0  0  0  0
  143.9376  133.1440  151.1322 N   0  0  0  0  0  0  0  0  0  0  0  0
  143.6415  135.3003  151.6180 H   0  0  0  0  0  0  0  0  0  0  0  0
  144.2090  136.8108  152.3009 H   0  0  0  0  0  0  0  0  0  0  0  0
  144.0864  135.3799  153.3207 H   0  0  0  0  0  0  0  0  0  0  0  0
  145.9765  135.6918  150.9449 H   0  0  0  0  0  0  0  0  0  0  0  0
  147.6551  136.0129  152.5130 H   0  0  0  0  0  0  0  0  0  0  0  0
  145.7212  135.6814  154.6900 H   0  0  0  0  0  0  0  0  0  0  0  0
  147.0200  134.5711  154.2888 H   0  0  0  0  0  0  0  0  0  0  0  0
  147.6989  137.4819  154.7796 H   0  0  0  0  0  0  0  0  0  0  0  0
  147.3403  136.4714  156.1598 H   0  0  0  0  0  0  0  0  0  0  0  0
  149.3161  135.2576  155.9600 H   0  0  0  0  0  0  0  0  0  0  0  0
  149.2934  135.3024  154.1977 H   0  0  0  0  0  0  0  0  0  0  0  0
  149.3613  137.5859  153.0456 H   0  0  0  0  0  0  0  0  0  0  0  0
  150.9338  138.2703  153.1085 H   0  0  0  0  0  0  0  0  0  0  0  0
  145.7752  133.4917  153.0383 H   0  0  0  0  0  0  0  0  0  0  0  0
  148.1713  133.8895  152.6923 H   0  0  0  0  0  0  0  0  0  0  0  0
  147.9711  133.8514  150.9424 H   0  0  0  0  0  0  0  0  0  0  0  0
  147.7145  132.3949  151.8987 H   0  0  0  0  0  0  0  0  0  0  0  0
  146.7686  132.1607  149.8151 H   0  0  0  0  0  0  0  0  0  0  0  0
  144.5760  131.1898  148.5181 H   0  0  0  0  0  0  0  0  0  0  0  0
  142.4695  132.2689  149.9596 H   0  0  0  0  0  0  0  0  0  0  0  0
  146.4582  137.0753  152.8616 H   0  0  0  0  0  0  0  0  0  0  0  0
  1  2  1  0  0  0  0
  1 18  1  0  0  0  0
  1 19  1  0  0  0  0
  1 20  1  0  0  0  0
  2  3  1  0  0  0  0
  2 11  1  0  0  0  0
  2 21  1  0  0  0  0
  3  4  1  0  0  0  0
  3 22  1  0  0  0  0
  3 38  1  0  0  0  0
  4  5  1  0  0  0  0
  4 23  1  0  0  0  0
  4 24  1  0  0  0  0
  5  6  1  0  0  0  0
  5 25  1  0  0  0  0
  5 26  1  0  0  0  0
  6  7  1  0  0  0  0
  6 27  1  0  0  0  0
  6 28  1  0  0  0  0
  7  8  1  0  0  0  0
  7  9  2  0  0  0  0
  7 10  2  0  0  0  0
  8 29  1  0  0  0  0
  8 30  1  0  0  0  0
 11 12  1  0  0  0  0
 11 13  1  0  0  0  0
 11 31  1  0  0  0  0
 12 32  1  0  0  0  0
 12 33  1  0  0  0  0
 12 34  1  0  0  0  0
 13 17  1  0  0  0  0
 13 14  1  0  0  0  0
 14 15  2  0  0  0  0
 14 35  1  0  0  0  0
 15 16  1  0  0  0  0
 15 36  1  0  0  0  0
 16 17  2  0  0  0  0
 16 37  1  0  0  0  0
M  CHG  1   3   1
M  END
> <s_m_source_file>
AV-unprocessed.smi

> <i_m_source_file_index>
658

> <i_lp_mmshare_version>
43012

> <i_f3d_flags>
0

> <s_epik_input>
bjFbY0hdW2NIXVtjSF1uMVtDQEBIXShbQ0gzXSlbQ0BIXShbQ0gzXSlbTkhdW0NIMl1bQ0gyXVtDSDJdUyg9TykoPU8pW05IMl0=

> <s_epik_cmdline>
J2VwaWtfcHl0aG9uJywgJy1waCcsICc3LjAnLCAnLXRuJywgJzgnLCAnLW1hJywgJzIwMCcsICctbWV0YWxfYmluZGluZycsICctaW1hZScsICc8aW5maWxlLm1hZT4nLCAnLW9tYWUnLCAnPG91dGZpbGUubWFlPic=

> <r_lp_tautomer_probability>
1

> <r_epik_Ionization_Penalty>
0.00535781

> <r_epik_Ionization_Penalty_Charging>
0.00511015

> <r_epik_Ionization_Penalty_Neutral>
0.000247661

> <r_epik_State_Penalty>
-0

> <r_epik_Charging_Adjusted_Penalty>
0.00511015

> <i_epik_Tot_Q>
1

> <i_epik_Tot_abs_Q>
1

> <r_epik_Metal_State_Penalty>
0.149106

> <b_epik_Metal_Only>
0

> <s_lp_Force_Field>
OPLS_2005

> <r_lp_Energy>
8.89673

> <b_lp_Chiralities_Consistent>
1

> <s_lp_Variant>
AV-unprocessed.smi:658-2

> <Gold.Version>
5.8.1

> <Gold.Id.Protein>
6NUR|6NUR_protein|mol2

> <Gold.PLP.Fitness>
42.8596

> <Gold.PLP.PLP>
-23.7829

> <Gold.PLP.part.hbond>
-3.5526

> <Gold.PLP.part.metal>
0.0000

> <Gold.PLP.part.buried>
-1.8089

> <Gold.PLP.part.nonpolar>
-19.5579

> <Gold.PLP.part.repulsive>
0.2704

> <Gold.PLP.ligand.clash>
0.0000

> <Gold.PLP.ligand.torsion>
0.6571

> <Gold.PLP.Chemscore.Hbond>
4.0000

> <Gold.PLP.Chemscore.CHOScore>
2.7100

> <Gold.PLP.Chemscore.Metal>
0.0000

> <Gold.Chemscore.Hbonds>
donor molecule, donor type, donor heavy atom, donor atom, acceptor molecule, acceptor atom, score
      L1  H     3    22       P1  7948  1.62
      L1  H     8    29       P1  7948  0.93
      P1  H 10752 10765       L1    10  1.00
      L1  C    14    35       P1 10747  0.85
      L1  C    16    37       P1 10186  0.60
      L1  C    16    37       P1 10952  0.94

> <Gold.PLP.Chemscore.Internal.Correction>
0.2610

> <Gold.Rescore>
     Score         DG    S(hbond)    S(metal)    S(lipo)     H(rot)  DE(clash)    DE(int)     intcor
     11.46     -13.72       2.84        0.00      57.94       3.13       0.04       2.22       ----

> <Gold.Chemscore.Fitness>
11.4603

> <Gold.Chemscore.DG>
-13.7223

> <Gold.Chemscore.ZeroCoef>
-5.4800

> <Gold.Chemscore.Hbond>
2.8380

> <Gold.Chemscore.Metal>
0.0000

> <Gold.Chemscore.Lipo>
57.9415

> <Gold.Chemscore.Internal_Hbond>
0.0000

> <Gold.Chemscore.DEClash>
0.0419

> <Gold.Chemscore.DEInternal>
2.2201

> <Gold.Chemscore.Rot>
3.1312

> <Gold.Chemscore.Internal.Correction>
   9.000000E+99

> <Gold.Chemscore.Hbonds>
donor molecule, donor type, donor heavy atom, donor atom, acceptor molecule, acceptor atom, score
      L1  H     3    22       P1  7948  0.80
      L1  H     8    29       P1  7948  0.85
      P1  H 10752 10765       L1    10  1.00

> <Gold.Chemscore.Hbond.Weighted>
-9.4791

> <Gold.Chemscore.Metal.Weighted>
-0.0000

> <Gold.Chemscore.Lipo.Weighted>
-6.7792

> <Gold.Chemscore.Internal_Hbond.Weighted>
0.0000

> <Gold.Chemscore.DEClash.Weighted>
0.0419

> <Gold.Chemscore.DEInternal.Weighted>
2.2201

> <Gold.Chemscore.Rot.Weighted>
8.0160

> <Gold.Chemscore.Internal.Correction.Weighted>
   9.000000E+99

> <Gold.Protein.RotatedTorsions>
[ 6907 6896 6895 6894 ] final   12.39 input  -60.11 | X-H torsion
[ 7974 7965 7964 7962 ] final -174.88 input  175.53 | X-H torsion
[ 8008 7997 7996 7995 ] final    5.64 input   59.86 | X-H torsion
[ 10167 10162 10161 10158 ] final -176.20 input  -65.29 | X-H torsion
[ 10718 10713 10712 10709 ] final   38.75 input   66.30 | X-H torsion
[ 10763 10752 10751 10750 ] final  177.80 input  -60.55 | X-H torsion
[ 11005 11000 10999 10996 ] final -141.78 input  -57.11 | X-H torsion

> <Gold.Protein.ActiveResidues>
 VAL166  LYS551  ARG553  GLY616  TRP617  ASP618  TYR619  PRO620  LYS621  CYS622 
 ASP623  PHE694  ASN695  SER759  ASP760  ASP761  ALA762  ILE779  LEU786  VAL792 
 PHE793  MET794  SER795  GLU796  ALA797  LYS798  CYS799  TRP800  GLU811  SER814 

> <Gold.Protein.RotatedAtoms>
  151.7696  135.0790  160.0357 H   0  0  0  0  0  0  0  0  0  0  0  0  # atno 6907 bound_to 6896
  152.3298  133.5941  159.5810 H   0  0  0  0  0  0  0  0  0  0  0  0  # atno 6908 bound_to 6896
  150.7416  133.9802  159.3615 H   0  0  0  0  0  0  0  0  0  0  0  0  # atno 6909 bound_to 6896
  144.7130  140.1404  143.6392 H   0  0  0  0  0  0  0  0  0  0  0  0  # atno 7974 bound_to 7965
  154.7309  140.2730  155.6457 H   0  0  0  0  0  0  0  0  0  0  0  0  # atno 8008 bound_to 7997
  156.2849  140.2716  156.1934 H   0  0  0  0  0  0  0  0  0  0  0  0  # atno 8009 bound_to 7997
  155.0383  140.0371  157.2489 H   0  0  0  0  0  0  0  0  0  0  0  0  # atno 8010 bound_to 7997
  139.5541  144.2033  152.1129 H   0  0  0  0  0  0  0  0  0  0  0  0  # atno 10167 bound_to 10162
  157.3625  130.7657  149.7058 H   0  0  0  0  0  0  0  0  0  0  0  0  # atno 10718 bound_to 10713
  154.4992  135.2783  155.1434 H   0  0  0  0  0  0  0  0  0  0  0  0  # atno 10763 bound_to 10752
  154.3074  135.6236  153.5454 H   0  0  0  0  0  0  0  0  0  0  0  0  # atno 10764 bound_to 10752
  152.9900  135.5711  154.5431 H   0  0  0  0  0  0  0  0  0  0  0  0  # atno 10765 bound_to 10752
  140.8290  134.2539  157.4865 H   0  0  0  0  0  0  0  0  0  0  0  0  # atno 11005 bound_to 11000
  145.9207  139.2543  143.1383 LP  0  0  0  0  0  0  0  0  0  0  0  0  # atno 17320 bound_to 7965
  145.9623  140.8825  143.0204 LP  0  0  0  0  0  0  0  0  0  0  0  0  # atno 17321 bound_to 7965
  140.1534  144.5094  150.6674 LP  0  0  0  0  0  0  0  0  0  0  0  0  # atno 17342 bound_to 10162
  140.6811  143.2327  151.5382 LP  0  0  0  0  0  0  0  0  0  0  0  0  # atno 17343 bound_to 10162
  155.9740  130.4110  150.3958 LP  0  0  0  0  0  0  0  0  0  0  0  0  # atno 17370 bound_to 10713
  157.2037  131.0444  151.2636 LP  0  0  0  0  0  0  0  0  0  0  0  0  # atno 17371 bound_to 10713
  139.8705  134.9576  156.4274 LP  0  0  0  0  0  0  0  0  0  0  0  0  # atno 17394 bound_to 11000
  140.9018  133.7774  155.9689 LP  0  0  0  0  0  0  0  0  0  0  0  0  # atno 17395 bound_to 11000

$$$$
