AV-unprocessed.smi:2688|AV-procd|sdf|10386|dock6
  -GOLD-   2272014423D 1   1.00000     0.00000
 Structure written by MMmdl.
 51 54  0  0  0  0  0  0  0  0  1 V2000
  147.7978  141.3192  153.9338 C   0  0  0  0  0  0  0  0  0  0  0  0
  148.9989  141.0141  154.7787 C   0  0  0  0  0  0  0  0  0  0  0  0
  149.5649  141.9657  155.7157 C   0  0  0  0  0  0  0  0  0  0  0  0
  150.6453  141.6135  156.4450 C   0  0  0  0  0  0  0  0  0  0  0  0
  151.2617  140.2947  156.3170 C   0  0  0  0  0  0  0  0  0  0  0  0
  152.2431  139.9416  156.9707 O   0  0  0  0  0  0  0  0  0  0  0  0
  150.6447  139.4857  155.4048 N   0  0  0  0  0  0  0  0  0  0  0  0
  151.1186  138.1157  155.1611 C   0  0  0  0  0  0  0  0  0  0  0  0
  150.9426  137.1960  156.3778 C   0  0  0  0  0  0  0  0  0  0  0  0
  151.9033  136.5801  156.8422 O   0  0  0  0  0  0  0  0  0  0  0  0
  149.7062  137.1243  156.8946 N   0  0  0  0  0  0  0  0  0  0  0  0
  149.3271  136.2935  158.0316 C   0  0  0  0  0  0  0  0  0  0  0  0
  147.8101  136.3798  158.3012 C   0  0  0  0  0  0  0  0  0  0  0  0
  147.3129  135.7712  159.6368 C   0  0  0  0  0  0  0  0  0  0  0  0
  147.5101  134.2306  159.6691 C   0  0  0  0  0  0  0  0  0  0  0  0
  146.9522  133.6434  160.9835 C   0  0  1  0  0  0  0  0  0  0  0  0
  147.6924  134.2707  162.1839 C   0  0  0  0  0  0  0  0  0  0  0  0
  147.4762  135.7991  162.1743 C   0  0  2  0  0  0  0  0  0  0  0  0
  145.9689  136.1077  162.2835 C   0  0  0  0  0  0  0  0  0  0  0  0
  145.2355  135.4758  161.0829 C   0  0  2  0  0  0  0  0  0  0  0  0
  145.4440  133.9476  161.0891 C   0  0  0  0  0  0  0  0  0  0  0  0
  145.7941  136.0653  159.7713 C   0  0  0  0  0  0  0  0  0  0  0  0
  148.0356  136.3931  160.8625 C   0  0  0  0  0  0  0  0  0  0  0  0
  149.5387  139.8464  154.6525 N   0  0  0  0  0  0  0  0  0  0  0  0
  147.4210  142.3229  154.1320 H   0  0  0  0  0  0  0  0  0  0  0  0
  146.9912  140.6140  154.1369 H   0  0  0  0  0  0  0  0  0  0  0  0
  148.0432  141.2575  152.8732 H   0  0  0  0  0  0  0  0  0  0  0  0
  149.1199  142.9441  155.8227 H   0  0  0  0  0  0  0  0  0  0  0  0
  151.0656  142.3228  157.1430 H   0  0  0  0  0  0  0  0  0  0  0  0
  150.5795  137.6721  154.3220 H   0  0  0  0  0  0  0  0  0  0  0  0
  152.1674  138.1337  154.8585 H   0  0  0  0  0  0  0  0  0  0  0  0
  148.9747  137.6669  156.4589 H   0  0  0  0  0  0  0  0  0  0  0  0
  149.6436  135.2667  157.8481 H   0  0  0  0  0  0  0  0  0  0  0  0
  149.8890  136.6434  158.8970 H   0  0  0  0  0  0  0  0  0  0  0  0
  147.5148  137.4292  158.2569 H   0  0  0  0  0  0  0  0  0  0  0  0
  147.2779  135.8922  157.4828 H   0  0  0  0  0  0  0  0  0  0  0  0
  147.0159  133.7669  158.8141 H   0  0  0  0  0  0  0  0  0  0  0  0
  148.5657  133.9720  159.5889 H   0  0  0  0  0  0  0  0  0  0  0  0
  147.1037  132.5635  160.9893 H   0  0  0  0  0  0  0  0  0  0  0  0
  147.3269  133.8428  163.1182 H   0  0  0  0  0  0  0  0  0  0  0  0
  148.7569  134.0387  162.1349 H   0  0  0  0  0  0  0  0  0  0  0  0
  147.9970  136.2428  163.0234 H   0  0  0  0  0  0  0  0  0  0  0  0
  145.5685  135.7167  163.2198 H   0  0  0  0  0  0  0  0  0  0  0  0
  145.8035  137.1858  162.3035 H   0  0  0  0  0  0  0  0  0  0  0  0
  144.1697  135.6955  161.1536 H   0  0  0  0  0  0  0  0  0  0  0  0
  144.9061  133.4887  160.2586 H   0  0  0  0  0  0  0  0  0  0  0  0
  145.0332  133.5130  162.0012 H   0  0  0  0  0  0  0  0  0  0  0  0
  145.6137  137.1411  159.7473 H   0  0  0  0  0  0  0  0  0  0  0  0
  145.2517  135.6486  158.9214 H   0  0  0  0  0  0  0  0  0  0  0  0
  149.1080  136.2029  160.8159 H   0  0  0  0  0  0  0  0  0  0  0  0
  147.9159  137.4773  160.8636 H   0  0  0  0  0  0  0  0  0  0  0  0
  1  2  1  0  0  0  0
  1 25  1  0  0  0  0
  1 26  1  0  0  0  0
  1 27  1  0  0  0  0
  2 24  2  0  0  0  0
  2  3  1  0  0  0  0
  3  4  2  0  0  0  0
  3 28  1  0  0  0  0
  4  5  1  0  0  0  0
  4 29  1  0  0  0  0
  5  6  2  0  0  0  0
  5  7  1  0  0  0  0
  7  8  1  0  0  0  0
  7 24  1  0  0  0  0
  8  9  1  0  0  0  0
  8 30  1  0  0  0  0
  8 31  1  0  0  0  0
  9 10  2  0  0  0  0
  9 11  1  0  0  0  0
 11 12  1  0  0  0  0
 11 32  1  0  0  0  0
 12 13  1  0  0  0  0
 12 33  1  0  0  0  0
 12 34  1  0  0  0  0
 13 14  1  0  0  0  0
 13 35  1  0  0  0  0
 13 36  1  0  0  0  0
 14 22  1  0  0  0  0
 14 23  1  0  0  0  0
 14 15  1  0  0  0  0
 15 16  1  0  0  0  0
 15 37  1  0  0  0  0
 15 38  1  0  0  0  0
 16 21  1  0  0  0  0
 16 17  1  0  0  0  0
 16 39  1  0  0  0  0
 17 18  1  0  0  0  0
 17 40  1  0  0  0  0
 17 41  1  0  0  0  0
 18 19  1  0  0  0  0
 18 23  1  0  0  0  0
 18 42  1  0  0  0  0
 19 20  1  0  0  0  0
 19 43  1  0  0  0  0
 19 44  1  0  0  0  0
 20 21  1  0  0  0  0
 20 22  1  0  0  0  0
 20 45  1  0  0  0  0
 21 46  1  0  0  0  0
 21 47  1  0  0  0  0
 22 48  1  0  0  0  0
 22 49  1  0  0  0  0
 23 50  1  0  0  0  0
 23 51  1  0  0  0  0
M  END
> <s_m_source_file>
AV-unprocessed.smi

> <i_m_source_file_index>
2688

> <i_lp_mmshare_version>
43012

> <i_f3d_flags>
0

> <s_epik_input>
W0NIM11jMVtjSF1bY0hdYyg9TyluKG4xKVtDSDJdQyg9TylbTkhdW0NIMl1bQ0gyXUMyM1tDSDJdW0NASF00W0NIMl1bQ0BASF0oW0NIMl0zKVtDSDJdW0NASF0oW0NIMl00KVtDSDJdMg==

> <s_epik_cmdline>
J2VwaWtfcHl0aG9uJywgJy1waCcsICc3LjAnLCAnLXRuJywgJzgnLCAnLW1hJywgJzIwMCcsICctbWV0YWxfYmluZGluZycsICctaW1hZScsICc8aW5maWxlLm1hZT4nLCAnLW9tYWUnLCAnPG91dGZpbGUubWFlPic=

> <r_lp_tautomer_probability>
1

> <r_epik_Ionization_Penalty>
8.74812e-07

> <r_epik_Ionization_Penalty_Charging>
8.53005e-07

> <r_epik_Ionization_Penalty_Neutral>
2.18061e-08

> <r_epik_State_Penalty>
-0

> <r_epik_Charging_Adjusted_Penalty>
8.53005e-07

> <i_epik_Tot_Q>
0

> <i_epik_Tot_abs_Q>
0

> <r_epik_Metal_State_Penalty>
-0

> <b_epik_Metal_Only>
0

> <s_lp_Force_Field>
OPLS_2005

> <r_lp_Energy>
47.4944

> <b_lp_Chiralities_Consistent>
1

> <s_lp_Variant>
AV-unprocessed.smi:2688-1

> <Gold.Version>
5.8.1

> <Gold.Id.Protein>
6NUR|6NUR_protein|mol2

> <Gold.PLP.Fitness>
46.0220

> <Gold.PLP.PLP>
-40.2730

> <Gold.PLP.part.hbond>
-1.9699

> <Gold.PLP.part.metal>
0.0000

> <Gold.PLP.part.buried>
-5.1532

> <Gold.PLP.part.nonpolar>
-32.3713

> <Gold.PLP.part.repulsive>
0.1416

> <Gold.PLP.ligand.clash>
0.0000

> <Gold.PLP.ligand.torsion>
0.1260

> <Gold.PLP.Chemscore.Hbond>
1.9913

> <Gold.PLP.Chemscore.CHOScore>
0.0000

> <Gold.PLP.Chemscore.Metal>
0.0000

> <Gold.Chemscore.Hbonds>
donor molecule, donor type, donor heavy atom, donor atom, acceptor molecule, acceptor atom, score
      P1  H  7997  8009       L1     6  0.52

> <Gold.PLP.Chemscore.Internal.Correction>
0.0272

> <Gold.Rescore>
     Score         DG    S(hbond)    S(metal)    S(lipo)     H(rot)  DE(clash)    DE(int)     intcor
     18.48     -18.66       1.82        0.00      98.65       1.73       0.02       0.15       ----

> <Gold.Chemscore.Fitness>
18.4793

> <Gold.Chemscore.DG>
-18.6588

> <Gold.Chemscore.ZeroCoef>
-5.4800

> <Gold.Chemscore.Hbond>
1.8184

> <Gold.Chemscore.Metal>
0.0000

> <Gold.Chemscore.Lipo>
98.6508

> <Gold.Chemscore.Internal_Hbond>
0.0000

> <Gold.Chemscore.DEClash>
0.0246

> <Gold.Chemscore.DEInternal>
0.1549

> <Gold.Chemscore.Rot>
1.7331

> <Gold.Chemscore.Internal.Correction>
   9.000000E+99

> <Gold.Chemscore.Hbonds>
donor molecule, donor type, donor heavy atom, donor atom, acceptor molecule, acceptor atom, score
      P1  H  7997  8009       L1     6  0.51
      P1  H 10752 10765       L1    10  0.06

> <Gold.Chemscore.Hbond.Weighted>
-6.0734

> <Gold.Chemscore.Metal.Weighted>
-0.0000

> <Gold.Chemscore.Lipo.Weighted>
-11.5421

> <Gold.Chemscore.Internal_Hbond.Weighted>
0.0000

> <Gold.Chemscore.DEClash.Weighted>
0.0246

> <Gold.Chemscore.DEInternal.Weighted>
0.1549

> <Gold.Chemscore.Rot.Weighted>
4.4367

> <Gold.Chemscore.Internal.Correction.Weighted>
   9.000000E+99

> <Gold.Protein.RotatedTorsions>
[ 6907 6896 6895 6894 ] final -133.32 input  -60.11 | X-H torsion
[ 7974 7965 7964 7962 ] final  -70.70 input  175.53 | X-H torsion
[ 8008 7997 7996 7995 ] final  167.70 input   59.86 | X-H torsion
[ 10167 10162 10161 10158 ] final  120.49 input  -65.29 | X-H torsion
[ 10718 10713 10712 10709 ] final    9.43 input   66.30 | X-H torsion
[ 10763 10752 10751 10750 ] final -144.59 input  -60.55 | X-H torsion
[ 11005 11000 10999 10996 ] final  -74.45 input  -57.11 | X-H torsion

> <Gold.Protein.ActiveResidues>
 VAL166  LYS551  ARG553  GLY616  TRP617  ASP618  TYR619  PRO620  LYS621  CYS622 
 ASP623  PHE694  ASN695  SER759  ASP760  ASP761  ALA762  ILE779  LEU786  VAL792 
 PHE793  MET794  SER795  GLU796  ALA797  LYS798  CYS799  TRP800  GLU811  SER814 

> <Gold.Protein.RotatedAtoms>
  150.9726  133.6328  159.2735 H   0  0  0  0  0  0  0  0  0  0  0  0  # atno 6907 bound_to 6896
  151.3611  135.0903  159.9444 H   0  0  0  0  0  0  0  0  0  0  0  0  # atno 6908 bound_to 6896
  152.5188  133.9300  159.7630 H   0  0  0  0  0  0  0  0  0  0  0  0  # atno 6909 bound_to 6896
  145.6876  140.9165  143.0799 H   0  0  0  0  0  0  0  0  0  0  0  0  # atno 7974 bound_to 7965
  156.1611  140.1610  156.8611 H   0  0  0  0  0  0  0  0  0  0  0  0  # atno 8008 bound_to 7997
  154.5161  140.0789  156.8120 H   0  0  0  0  0  0  0  0  0  0  0  0  # atno 8009 bound_to 7997
  155.3706  140.3400  155.4245 H   0  0  0  0  0  0  0  0  0  0  0  0  # atno 8010 bound_to 7997
  139.5978  144.7047  151.3133 H   0  0  0  0  0  0  0  0  0  0  0  0  # atno 10167 bound_to 10162
  156.9662  130.5951  149.5665 H   0  0  0  0  0  0  0  0  0  0  0  0  # atno 10718 bound_to 10713
  154.8421  135.3436  154.6369 H   0  0  0  0  0  0  0  0  0  0  0  0  # atno 10763 bound_to 10752
  153.6980  135.6971  153.5075 H   0  0  0  0  0  0  0  0  0  0  0  0  # atno 10764 bound_to 10752
  153.2544  135.4343  155.0785 H   0  0  0  0  0  0  0  0  0  0  0  0  # atno 10765 bound_to 10752
  141.1635  133.6912  156.7367 H   0  0  0  0  0  0  0  0  0  0  0  0  # atno 11005 bound_to 11000
  144.7006  139.8779  143.7445 LP  0  0  0  0  0  0  0  0  0  0  0  0  # atno 17320 bound_to 7965
  146.0910  139.3899  143.0406 LP  0  0  0  0  0  0  0  0  0  0  0  0  # atno 17321 bound_to 7965
  140.7226  143.7093  150.7782 LP  0  0  0  0  0  0  0  0  0  0  0  0  # atno 17342 bound_to 10162
  140.0663  143.5105  152.2602 LP  0  0  0  0  0  0  0  0  0  0  0  0  # atno 17343 bound_to 10162
  156.0302  130.5393  150.8513 LP  0  0  0  0  0  0  0  0  0  0  0  0  # atno 17370 bound_to 10713
  157.5624  131.0946  150.9539 LP  0  0  0  0  0  0  0  0  0  0  0  0  # atno 17371 bound_to 10713
  140.2705  134.8396  157.3843 LP  0  0  0  0  0  0  0  0  0  0  0  0  # atno 17394 bound_to 11000
  140.1526  134.4830  155.7950 LP  0  0  0  0  0  0  0  0  0  0  0  0  # atno 17395 bound_to 11000

$$$$
