AV-unprocessed.smi:1100|AV-procd|sdf|4760|dock4
  -GOLD-   22720 3293D 1   1.00000     0.00000
 Structure written by MMmdl.
 43 44  0  0  0  0  0  0  0  0  1 V2000
  148.3030  140.5485  154.1260 C   0  0  0  0  0  0  0  0  0  0  0  0
  148.2253  139.1483  154.7866 C   0  0  1  0  0  0  0  0  0  0  0  0
  146.8524  138.5007  154.4385 C   0  0  0  0  0  0  0  0  0  0  0  0
  146.9480  137.4265  153.4532 N   0  0  0  0  0  0  0  0  0  0  0  0
  145.9128  136.7172  152.9812 C   0  0  0  0  0  0  0  0  0  0  0  0
  144.7547  136.8821  153.3630 O   0  0  0  0  0  0  0  0  0  0  0  0
  146.3200  135.8427  152.0432 N   0  0  0  0  0  0  0  0  0  0  0  0
  145.5639  134.9222  151.3040 C   0  0  0  0  0  0  0  0  0  0  0  0
  144.4442  135.2548  150.4349 C   0  0  0  0  0  0  0  0  0  0  0  0
  143.7807  134.2919  149.7645 C   0  0  0  0  0  0  0  0  0  0  0  0
  144.1506  132.8790  149.8778 C   0  0  0  0  0  0  0  0  0  0  0  0
  143.5535  131.9917  149.2676 O   0  0  0  0  0  0  0  0  0  0  0  0
  145.1995  132.6099  150.7074 N   0  0  0  0  0  0  0  0  0  0  0  0
  145.6451  131.2268  150.8932 C   0  0  0  0  0  0  0  0  0  0  0  0
  145.8859  133.6197  151.4072 C   0  0  0  0  0  0  0  0  0  0  0  0
  149.3826  138.2888  154.4439 N   0  0  0  0  0  0  0  0  0  0  0  0
  150.6649  138.9857  154.6007 C   0  0  0  0  0  0  0  0  0  0  0  0
  151.8762  138.0935  154.2794 C   0  0  0  0  0  0  0  0  0  0  0  0
  151.8484  136.9351  155.1010 O   0  0  0  0  0  0  0  0  0  0  0  0
  150.6559  136.1840  154.9210 C   0  0  0  0  0  0  0  0  0  0  0  0
  149.4345  137.0614  155.2471 C   0  0  0  0  0  0  0  0  0  0  0  0
  147.4291  141.1612  154.3432 H   0  0  0  0  0  0  0  0  0  0  0  0
  148.3863  140.4695  153.0417 H   0  0  0  0  0  0  0  0  0  0  0  0
  149.1498  141.1294  154.4885 H   0  0  0  0  0  0  0  0  0  0  0  0
  148.2397  139.3080  155.8658 H   0  0  0  0  0  0  0  0  0  0  0  0
  146.3968  138.0918  155.3409 H   0  0  0  0  0  0  0  0  0  0  0  0
  146.1469  139.2285  154.0399 H   0  0  0  0  0  0  0  0  0  0  0  0
  147.8674  137.2278  153.0867 H   0  0  0  0  0  0  0  0  0  0  0  0
  147.3049  135.8532  151.8222 H   0  0  0  0  0  0  0  0  0  0  0  0
  144.1040  136.2698  150.3113 H   0  0  0  0  0  0  0  0  0  0  0  0
  142.9502  134.5669  149.1311 H   0  0  0  0  0  0  0  0  0  0  0  0
  146.5315  131.1503  151.5237 H   0  0  0  0  0  0  0  0  0  0  0  0
  145.8918  130.7687  149.9342 H   0  0  0  0  0  0  0  0  0  0  0  0
  144.8580  130.6333  151.3607 H   0  0  0  0  0  0  0  0  0  0  0  0
  146.6966  133.2682  152.0295 H   0  0  0  0  0  0  0  0  0  0  0  0
  150.7187  139.8453  153.9349 H   0  0  0  0  0  0  0  0  0  0  0  0
  150.7565  139.3663  155.6191 H   0  0  0  0  0  0  0  0  0  0  0  0
  151.8762  137.8044  153.2273 H   0  0  0  0  0  0  0  0  0  0  0  0
  152.8040  138.6360  154.4620 H   0  0  0  0  0  0  0  0  0  0  0  0
  150.6020  135.8114  153.8968 H   0  0  0  0  0  0  0  0  0  0  0  0
  150.6821  135.3137  155.5769 H   0  0  0  0  0  0  0  0  0  0  0  0
  149.4427  137.3133  156.3087 H   0  0  0  0  0  0  0  0  0  0  0  0
  148.5525  136.4489  155.0728 H   0  0  0  0  0  0  0  0  0  0  0  0
  1  2  1  0  0  0  0
  1 22  1  0  0  0  0
  1 23  1  0  0  0  0
  1 24  1  0  0  0  0
  2  3  1  0  0  0  0
  2 16  1  0  0  0  0
  2 25  1  0  0  0  0
  3  4  1  0  0  0  0
  3 26  1  0  0  0  0
  3 27  1  0  0  0  0
  4  5  1  0  0  0  0
  4 28  1  0  0  0  0
  5  6  2  0  0  0  0
  5  7  1  0  0  0  0
  7  8  1  0  0  0  0
  7 29  1  0  0  0  0
  8 15  2  0  0  0  0
  8  9  1  0  0  0  0
  9 10  2  0  0  0  0
  9 30  1  0  0  0  0
 10 11  1  0  0  0  0
 10 31  1  0  0  0  0
 11 12  2  0  0  0  0
 11 13  1  0  0  0  0
 13 14  1  0  0  0  0
 13 15  1  0  0  0  0
 14 32  1  0  0  0  0
 14 33  1  0  0  0  0
 14 34  1  0  0  0  0
 15 35  1  0  0  0  0
 16 21  1  0  0  0  0
 16 17  1  0  0  0  0
 17 18  1  0  0  0  0
 17 36  1  0  0  0  0
 17 37  1  0  0  0  0
 18 19  1  0  0  0  0
 18 38  1  0  0  0  0
 18 39  1  0  0  0  0
 19 20  1  0  0  0  0
 20 21  1  0  0  0  0
 20 40  1  0  0  0  0
 20 41  1  0  0  0  0
 21 42  1  0  0  0  0
 21 43  1  0  0  0  0
M  END
> <s_m_source_file>
AV-unprocessed.smi

> <i_m_source_file_index>
1100

> <i_lp_mmshare_version>
43012

> <i_f3d_flags>
0

> <s_epik_input>
W0NIMl0xW0NIMl1PW0NIMl1bQ0gyXU4xW0NASF0oW0NIM10pW0NIMl1bTkhdQyg9TylbTkhdYzJbY0hdW2NIXWMoPU8pbihbQ0gzXSlbY0hdMg==

> <s_epik_cmdline>
J2VwaWtfcHl0aG9uJywgJy1waCcsICc3LjAnLCAnLXRuJywgJzgnLCAnLW1hJywgJzIwMCcsICctbWV0YWxfYmluZGluZycsICctaW1hZScsICc8aW5maWxlLm1hZT4nLCAnLW9tYWUnLCAnPG91dGZpbGUubWFlPic=

> <r_lp_tautomer_probability>
1

> <r_epik_Ionization_Penalty>
0.266016

> <r_epik_Ionization_Penalty_Charging>
5.79683e-06

> <r_epik_Ionization_Penalty_Neutral>
0.26601

> <r_epik_State_Penalty>
0.257924

> <r_epik_Charging_Adjusted_Penalty>
0.25793

> <i_epik_Tot_Q>
0

> <i_epik_Tot_abs_Q>
0

> <r_epik_Metal_State_Penalty>
0.260326

> <b_epik_Metal_Only>
0

> <s_lp_Force_Field>
OPLS_2005

> <r_lp_Energy>
41.8839

> <b_lp_Chiralities_Consistent>
1

> <s_lp_Variant>
AV-unprocessed.smi:1100-2

> <Gold.Version>
5.8.1

> <Gold.Id.Protein>
6NUR|6NUR_protein|mol2

> <Gold.PLP.Fitness>
42.6135

> <Gold.PLP.PLP>
-33.3640

> <Gold.PLP.part.hbond>
-4.0000

> <Gold.PLP.part.metal>
0.0000

> <Gold.PLP.part.buried>
-2.8951

> <Gold.PLP.part.nonpolar>
-27.6538

> <Gold.PLP.part.repulsive>
0.7724

> <Gold.PLP.ligand.clash>
0.0000

> <Gold.PLP.ligand.torsion>
1.2481

> <Gold.PLP.Chemscore.Hbond>
3.9040

> <Gold.PLP.Chemscore.CHOScore>
0.0000

> <Gold.PLP.Chemscore.Metal>
0.0000

> <Gold.Chemscore.Hbonds>
donor molecule, donor type, donor heavy atom, donor atom, acceptor molecule, acceptor atom, score
      L1  H     4    28       P1  7948  0.98
      L1  H     7    29       P1  7948  1.00
      P1  H 10752 10764       L1    19  0.83
      P1  H 10785 10796       L1    12  0.94

> <Gold.PLP.Chemscore.Internal.Correction>
0.0338

> <Gold.Rescore>
     Score         DG    S(hbond)    S(metal)    S(lipo)     H(rot)  DE(clash)    DE(int)     intcor
     19.63     -22.61       3.51        0.00      78.82       1.49       1.72       1.26       ----

> <Gold.Chemscore.Fitness>
19.6302

> <Gold.Chemscore.DG>
-22.6074

> <Gold.Chemscore.ZeroCoef>
-5.4800

> <Gold.Chemscore.Hbond>
3.5119

> <Gold.Chemscore.Metal>
0.0000

> <Gold.Chemscore.Lipo>
78.8181

> <Gold.Chemscore.Internal_Hbond>
0.0000

> <Gold.Chemscore.DEClash>
1.7204

> <Gold.Chemscore.DEInternal>
1.2568

> <Gold.Chemscore.Rot>
1.4938

> <Gold.Chemscore.Internal.Correction>
   9.000000E+99

> <Gold.Chemscore.Hbonds>
donor molecule, donor type, donor heavy atom, donor atom, acceptor molecule, acceptor atom, score
      L1  H     4    28       P1  7948  0.93
      L1  H     7    29       P1  7948  1.00
      P1  H 10752 10764       L1    19  0.13
      P1  H 10785 10796       L1    12  0.90

> <Gold.Chemscore.Hbond.Weighted>
-11.7298

> <Gold.Chemscore.Metal.Weighted>
-0.0000

> <Gold.Chemscore.Lipo.Weighted>
-9.2217

> <Gold.Chemscore.Internal_Hbond.Weighted>
0.0000

> <Gold.Chemscore.DEClash.Weighted>
1.7204

> <Gold.Chemscore.DEInternal.Weighted>
1.2568

> <Gold.Chemscore.Rot.Weighted>
3.8242

> <Gold.Chemscore.Internal.Correction.Weighted>
   9.000000E+99

> <Gold.Protein.RotatedTorsions>
[ 6907 6896 6895 6894 ] final  -80.10 input  -60.11 | X-H torsion
[ 7974 7965 7964 7962 ] final  105.96 input  175.53 | X-H torsion
[ 8008 7997 7996 7995 ] final  100.87 input   59.86 | X-H torsion
[ 10167 10162 10161 10158 ] final   80.76 input  -65.29 | X-H torsion
[ 10718 10713 10712 10709 ] final   -6.42 input   66.30 | X-H torsion
[ 10763 10752 10751 10750 ] final  -46.02 input  -60.55 | X-H torsion
[ 11005 11000 10999 10996 ] final   49.27 input  -57.11 | X-H torsion

> <Gold.Protein.ActiveResidues>
 VAL166  LYS551  ARG553  GLY616  TRP617  ASP618  TYR619  PRO620  LYS621  CYS622 
 ASP623  PHE694  ASN695  SER759  ASP760  ASP761  ALA762  ILE779  LEU786  VAL792 
 PHE793  MET794  SER795  GLU796  ALA797  LYS798  CYS799  TRP800  GLU811  SER814 

> <Gold.Protein.RotatedAtoms>
  150.6936  134.4021  159.5123 H   0  0  0  0  0  0  0  0  0  0  0  0  # atno 6907 bound_to 6896
  152.1793  134.8765  160.0537 H   0  0  0  0  0  0  0  0  0  0  0  0  # atno 6908 bound_to 6896
  151.9762  133.3707  159.4127 H   0  0  0  0  0  0  0  0  0  0  0  0  # atno 6909 bound_to 6896
  145.3128  139.2535  143.3754 H   0  0  0  0  0  0  0  0  0  0  0  0  # atno 7974 bound_to 7965
  156.1245  140.3206  155.8257 H   0  0  0  0  0  0  0  0  0  0  0  0  # atno 8008 bound_to 7997
  155.4444  140.0528  157.3024 H   0  0  0  0  0  0  0  0  0  0  0  0  # atno 8009 bound_to 7997
  154.4852  140.2070  155.9685 H   0  0  0  0  0  0  0  0  0  0  0  0  # atno 8010 bound_to 7997
  139.9464  144.6056  150.8203 H   0  0  0  0  0  0  0  0  0  0  0  0  # atno 10167 bound_to 10162
  156.7321  130.5183  149.5843 H   0  0  0  0  0  0  0  0  0  0  0  0  # atno 10718 bound_to 10713
  154.0381  135.6647  153.4787 H   0  0  0  0  0  0  0  0  0  0  0  0  # atno 10763 bound_to 10752
  153.0513  135.5083  154.7868 H   0  0  0  0  0  0  0  0  0  0  0  0  # atno 10764 bound_to 10752
  154.6836  135.3049  154.9545 H   0  0  0  0  0  0  0  0  0  0  0  0  # atno 10765 bound_to 10752
  140.1118  134.4945  155.8671 H   0  0  0  0  0  0  0  0  0  0  0  0  # atno 11005 bound_to 11000
  146.3111  140.3668  142.8670 LP  0  0  0  0  0  0  0  0  0  0  0  0  # atno 17320 bound_to 7965
  144.9002  140.7633  143.5872 LP  0  0  0  0  0  0  0  0  0  0  0  0  # atno 17321 bound_to 7965
  140.7596  143.3132  151.2794 LP  0  0  0  0  0  0  0  0  0  0  0  0  # atno 17342 bound_to 10162
  139.6664  144.0098  152.2725 LP  0  0  0  0  0  0  0  0  0  0  0  0  # atno 17343 bound_to 10162
  156.1522  130.6317  151.0610 LP  0  0  0  0  0  0  0  0  0  0  0  0  # atno 17370 bound_to 10713
  157.6854  131.0826  150.7256 LP  0  0  0  0  0  0  0  0  0  0  0  0  # atno 17371 bound_to 10713
  141.2132  133.6730  156.6719 LP  0  0  0  0  0  0  0  0  0  0  0  0  # atno 17394 bound_to 11000
  140.3081  134.8109  157.4153 LP  0  0  0  0  0  0  0  0  0  0  0  0  # atno 17395 bound_to 11000

$$$$
