AV-unprocessed.smi:379|AV-procd|sdf|2458|dock5
  -GOLD-   2262022403D 1   1.00000     0.00000
 Structure written by MMmdl.
 39 40  0  0  0  0  0  0  0  0  1 V2000
  154.6257  137.8615  164.9336 C   0  0  0  0  0  0  0  0  0  0  0  0
  154.7036  136.4306  164.3809 C   0  0  0  0  0  0  0  0  0  0  0  0
  153.9869  136.2414  163.0291 C   0  0  2  0  0  0  0  0  0  0  0  0
  154.2508  134.8497  162.4386 C   0  0  0  0  0  0  0  0  0  0  0  0
  154.4196  137.2573  162.0710 N   0  0  0  0  0  0  0  0  0  0  0  0
  154.0011  137.3766  160.8014 C   0  0  0  0  0  0  0  0  0  0  0  0
  153.1950  136.6069  160.2768 O   0  0  0  0  0  0  0  0  0  0  0  0
  154.5942  138.5551  160.0150 C   0  0  0  0  0  0  0  0  0  0  0  0
  153.6191  139.6366  159.7533 N   0  0  0  0  0  0  0  0  0  0  0  0
  152.5042  139.3517  158.9238 C   0  0  0  0  0  0  0  0  0  0  0  0
  152.3518  138.2337  158.4278 O   0  0  0  0  0  0  0  0  0  0  0  0
  151.5768  140.4606  158.7136 C   0  0  0  0  0  0  0  0  0  0  0  0
  150.4227  140.2025  157.9178 C   0  0  0  0  0  0  0  0  0  0  0  0
  149.4734  139.9855  157.2922 N   0  0  0  0  0  0  0  0  0  0  0  0
  151.8078  141.6725  159.2589 C   0  0  0  0  0  0  0  0  0  0  0  0
  152.9244  141.9426  160.0196 N   0  0  0  0  0  0  0  0  0  0  0  0
  153.0703  143.1876  160.7198 C   0  0  0  0  0  0  0  0  0  0  0  0
  152.7807  143.2349  162.2043 C   0  0  0  0  0  0  0  0  0  0  0  0
  151.8486  143.9222  161.2366 C   0  0  0  0  0  0  0  0  0  0  0  0
  153.8439  140.9142  160.3216 C   0  0  0  0  0  0  0  0  0  0  0  0
  154.8093  141.1200  161.0611 O   0  0  0  0  0  0  0  0  0  0  0  0
  155.1015  137.9245  165.9125 H   0  0  0  0  0  0  0  0  0  0  0  0
  153.5901  138.1828  165.0465 H   0  0  0  0  0  0  0  0  0  0  0  0
  155.1281  138.5742  164.2792 H   0  0  0  0  0  0  0  0  0  0  0  0
  155.7501  136.1373  164.2887 H   0  0  0  0  0  0  0  0  0  0  0  0
  154.2645  135.7537  165.1144 H   0  0  0  0  0  0  0  0  0  0  0  0
  152.9122  136.3201  163.2018 H   0  0  0  0  0  0  0  0  0  0  0  0
  153.9181  134.0653  163.1190 H   0  0  0  0  0  0  0  0  0  0  0  0
  155.3125  134.6935  162.2443 H   0  0  0  0  0  0  0  0  0  0  0  0
  153.7162  134.7153  161.4977 H   0  0  0  0  0  0  0  0  0  0  0  0
  155.0856  137.9372  162.4080 H   0  0  0  0  0  0  0  0  0  0  0  0
  155.4550  138.9466  160.5601 H   0  0  0  0  0  0  0  0  0  0  0  0
  155.0234  138.1649  159.0912 H   0  0  0  0  0  0  0  0  0  0  0  0
  151.0947  142.4662  159.0880 H   0  0  0  0  0  0  0  0  0  0  0  0
  153.8907  143.8167  160.3790 H   0  0  0  0  0  0  0  0  0  0  0  0
  152.4171  142.3294  162.6863 H   0  0  0  0  0  0  0  0  0  0  0  0
  153.4216  143.8639  162.8186 H   0  0  0  0  0  0  0  0  0  0  0  0
  151.8678  145.0097  161.2043 H   0  0  0  0  0  0  0  0  0  0  0  0
  150.8711  143.4692  161.0821 H   0  0  0  0  0  0  0  0  0  0  0  0
  1  2  1  0  0  0  0
  1 22  1  0  0  0  0
  1 23  1  0  0  0  0
  1 24  1  0  0  0  0
  2  3  1  0  0  0  0
  2 25  1  0  0  0  0
  2 26  1  0  0  0  0
  3  4  1  0  0  0  0
  3  5  1  0  0  0  0
  3 27  1  0  0  0  0
  4 28  1  0  0  0  0
  4 29  1  0  0  0  0
  4 30  1  0  0  0  0
  5  6  1  0  0  0  0
  5 31  1  0  0  0  0
  6  7  2  0  0  0  0
  6  8  1  0  0  0  0
  8  9  1  0  0  0  0
  8 32  1  0  0  0  0
  8 33  1  0  0  0  0
  9 20  1  0  0  0  0
  9 10  1  0  0  0  0
 10 11  2  0  0  0  0
 10 12  1  0  0  0  0
 12 13  1  0  0  0  0
 12 15  2  0  0  0  0
 13 14  3  0  0  0  0
 15 16  1  0  0  0  0
 15 34  1  0  0  0  0
 16 17  1  0  0  0  0
 16 20  1  0  0  0  0
 17 19  1  0  0  0  0
 17 18  1  0  0  0  0
 17 35  1  0  0  0  0
 18 19  1  0  0  0  0
 18 36  1  0  0  0  0
 18 37  1  0  0  0  0
 19 38  1  0  0  0  0
 19 39  1  0  0  0  0
 20 21  2  0  0  0  0
M  END
> <s_m_source_file>
AV-unprocessed.smi

> <i_m_source_file_index>
379

> <i_lp_mmshare_version>
43012

> <i_f3d_flags>
0

> <s_epik_input>
W0NIM11bQ0gyXVtDQEhdKFtDSDNdKVtOSF1DKD1PKVtDSDJdbjFjKD1PKWMoQyNOKVtjSF1uKGMxPU8pW0NIXTJbQ0gyXVtDSDJdMg==

> <s_epik_cmdline>
J2VwaWtfcHl0aG9uJywgJy1waCcsICc3LjAnLCAnLXRuJywgJzgnLCAnLW1hJywgJzIwMCcsICctbWV0YWxfYmluZGluZycsICctaW1hZScsICc8aW5maWxlLm1hZT4nLCAnLW9tYWUnLCAnPG91dGZpbGUubWFlPic=

> <r_lp_tautomer_probability>
1

> <r_epik_Ionization_Penalty>
1.93863e-08

> <r_epik_Ionization_Penalty_Charging>
8.45512e-11

> <r_epik_Ionization_Penalty_Neutral>
1.93017e-08

> <r_epik_State_Penalty>
-0

> <r_epik_Charging_Adjusted_Penalty>
8.45512e-11

> <i_epik_Tot_Q>
0

> <i_epik_Tot_abs_Q>
0

> <r_epik_Metal_State_Penalty>
-0

> <b_epik_Metal_Only>
0

> <s_lp_Force_Field>
OPLS_2005

> <r_lp_Energy>
29.5524

> <b_lp_Chiralities_Consistent>
1

> <s_lp_Variant>
AV-unprocessed.smi:379-1

> <Gold.Version>
5.8.1

> <Gold.Id.Protein>
6NUR|6NUR_protein|mol2

> <Gold.PLP.Fitness>
43.9247

> <Gold.PLP.PLP>
-42.0043

> <Gold.PLP.part.hbond>
-1.9950

> <Gold.PLP.part.metal>
0.0000

> <Gold.PLP.part.buried>
-5.9175

> <Gold.PLP.part.nonpolar>
-32.7799

> <Gold.PLP.part.repulsive>
0.0075

> <Gold.PLP.ligand.clash>
0.0000

> <Gold.PLP.ligand.torsion>
0.6564

> <Gold.PLP.Chemscore.Hbond>
1.0000

> <Gold.PLP.Chemscore.CHOScore>
0.0000

> <Gold.PLP.Chemscore.Metal>
0.0000

> <Gold.Chemscore.Hbonds>
donor molecule, donor type, donor heavy atom, donor atom, acceptor molecule, acceptor atom, score
      P1  H  6896  6909       L1     7  1.00

> <Gold.PLP.Chemscore.Internal.Correction>
0.2331

> <Gold.Rescore>
     Score         DG    S(hbond)    S(metal)    S(lipo)     H(rot)  DE(clash)    DE(int)     intcor
     10.11     -13.36       0.99        0.00      82.44       1.98       0.01       3.24       ----

> <Gold.Chemscore.Fitness>
10.1075

> <Gold.Chemscore.DG>
-13.3572

> <Gold.Chemscore.ZeroCoef>
-5.4800

> <Gold.Chemscore.Hbond>
0.9863

> <Gold.Chemscore.Metal>
0.0000

> <Gold.Chemscore.Lipo>
82.4367

> <Gold.Chemscore.Internal_Hbond>
0.0000

> <Gold.Chemscore.DEClash>
0.0108

> <Gold.Chemscore.DEInternal>
3.2389

> <Gold.Chemscore.Rot>
1.9774

> <Gold.Chemscore.Internal.Correction>
   9.000000E+99

> <Gold.Chemscore.Hbonds>
donor molecule, donor type, donor heavy atom, donor atom, acceptor molecule, acceptor atom, score
      P1  H  6896  6909       L1     7  0.99

> <Gold.Chemscore.Hbond.Weighted>
-3.2944

> <Gold.Chemscore.Metal.Weighted>
-0.0000

> <Gold.Chemscore.Lipo.Weighted>
-9.6451

> <Gold.Chemscore.Internal_Hbond.Weighted>
0.0000

> <Gold.Chemscore.DEClash.Weighted>
0.0108

> <Gold.Chemscore.DEInternal.Weighted>
3.2389

> <Gold.Chemscore.Rot.Weighted>
5.0623

> <Gold.Chemscore.Internal.Correction.Weighted>
   9.000000E+99

> <Gold.Protein.RotatedTorsions>
[ 6907 6896 6895 6894 ] final  158.61 input  -60.11 | X-H torsion
[ 7974 7965 7964 7962 ] final -109.93 input  175.53 | X-H torsion
[ 8008 7997 7996 7995 ] final  172.32 input   59.86 | X-H torsion
[ 10167 10162 10161 10158 ] final  170.10 input  -65.29 | X-H torsion
[ 10718 10713 10712 10709 ] final  169.50 input   66.30 | X-H torsion
[ 10763 10752 10751 10750 ] final  164.59 input  -60.55 | X-H torsion
[ 11005 11000 10999 10996 ] final  141.61 input  -57.11 | X-H torsion

> <Gold.Protein.ActiveResidues>
 VAL166  LYS551  ARG553  GLY616  TRP617  ASP618  TYR619  PRO620  LYS621  CYS622 
 ASP623  PHE694  ASN695  SER759  ASP760  ASP761  ALA762  ILE779  LEU786  VAL792 
 PHE793  MET794  SER795  GLU796  ALA797  LYS798  CYS799  TRP800  GLU811  SER814 

> <Gold.Protein.RotatedAtoms>
  151.9979  133.3814  159.4169 H   0  0  0  0  0  0  0  0  0  0  0  0  # atno 6907 bound_to 6896
  150.6913  134.3866  159.5067 H   0  0  0  0  0  0  0  0  0  0  0  0  # atno 6908 bound_to 6896
  152.1609  134.8912  160.0592 H   0  0  0  0  0  0  0  0  0  0  0  0  # atno 6909 bound_to 6896
  145.1745  140.8942  143.3516 H   0  0  0  0  0  0  0  0  0  0  0  0  # atno 7974 bound_to 7965
  156.1186  140.1489  156.9237 H   0  0  0  0  0  0  0  0  0  0  0  0  # atno 8008 bound_to 7997
  154.4819  140.0877  156.7438 H   0  0  0  0  0  0  0  0  0  0  0  0  # atno 8009 bound_to 7997
  155.4469  140.3433  155.4298 H   0  0  0  0  0  0  0  0  0  0  0  0  # atno 8010 bound_to 7997
  139.5009  144.3634  151.9801 H   0  0  0  0  0  0  0  0  0  0  0  0  # atno 10167 bound_to 10162
  157.0217  131.0234  151.2772 H   0  0  0  0  0  0  0  0  0  0  0  0  # atno 10718 bound_to 10713
  154.3112  135.2757  155.2565 H   0  0  0  0  0  0  0  0  0  0  0  0  # atno 10763 bound_to 10752
  154.4959  135.5821  153.6497 H   0  0  0  0  0  0  0  0  0  0  0  0  # atno 10764 bound_to 10752
  152.9888  135.6146  154.3290 H   0  0  0  0  0  0  0  0  0  0  0  0  # atno 10765 bound_to 10752
  140.0415  134.9302  157.0851 H   0  0  0  0  0  0  0  0  0  0  0  0  # atno 11005 bound_to 11000
  145.0199  139.3434  143.6078 LP  0  0  0  0  0  0  0  0  0  0  0  0  # atno 17320 bound_to 7965
  146.3463  139.9495  142.8730 LP  0  0  0  0  0  0  0  0  0  0  0  0  # atno 17321 bound_to 7965
  140.3070  144.3582  150.6044 LP  0  0  0  0  0  0  0  0  0  0  0  0  # atno 17342 bound_to 10162
  140.5829  143.2171  151.7396 LP  0  0  0  0  0  0  0  0  0  0  0  0  # atno 17343 bound_to 10162
  157.5245  130.8019  149.7846 LP  0  0  0  0  0  0  0  0  0  0  0  0  # atno 17370 bound_to 10713
  156.0100  130.3837  150.2297 LP  0  0  0  0  0  0  0  0  0  0  0  0  # atno 17371 bound_to 10713
  140.4062  134.2029  155.7163 LP  0  0  0  0  0  0  0  0  0  0  0  0  # atno 17394 bound_to 11000
  141.1885  133.8258  157.0992 LP  0  0  0  0  0  0  0  0  0  0  0  0  # atno 17395 bound_to 11000

$$$$
