AV-unprocessed.smi:2988|AV-procd|sdf|11388|dock1
  -GOLD-   2272016313D 1   1.00000     0.00000
 Structure written by MMmdl.
 37 38  0  0  0  0  0  0  0  0  1 V2000
  148.3815  140.7206  154.0258 C   0  0  0  0  0  0  0  0  0  0  0  0
  149.7651  140.6542  154.6957 C   0  0  1  0  0  0  0  0  0  0  0  0
  149.6642  140.8802  156.2199 C   0  0  0  0  0  0  0  0  0  0  0  0
  151.0482  140.8613  156.8887 C   0  0  0  0  0  0  0  0  0  0  0  0
  151.8066  139.5631  156.5742 C   0  0  0  0  0  0  0  0  0  0  0  0
  151.9097  139.3324  155.0561 C   0  0  0  0  0  0  0  0  0  0  0  0
  150.5249  139.3435  154.3729 C   0  0  1  0  0  0  0  0  0  0  0  0
  149.7399  138.1850  154.7885 N   0  0  0  0  0  0  0  0  0  0  0  0
  150.1873  136.9327  154.9757 C   0  0  0  0  0  0  0  0  0  0  0  0
  151.3533  136.5997  154.7685 O   0  0  0  0  0  0  0  0  0  0  0  0
  149.1800  135.8862  155.4861 C   0  0  0  0  0  0  0  0  0  0  0  0
  149.5752  134.4882  155.2384 N   0  0  0  0  0  0  0  0  0  0  0  0
  149.0448  133.9502  154.0787 N   0  0  0  0  0  0  0  0  0  0  0  0
  149.2718  132.7151  153.7906 C   0  0  0  0  0  0  0  0  0  0  0  0
  150.0708  131.8602  154.6405 C   0  0  0  0  0  0  0  0  0  0  0  0
  150.3331  130.2079  154.2070 Cl  0  0  0  0  0  0  0  0  0  0  0  0
  150.5965  132.4004  155.7686 C   0  0  0  0  0  0  0  0  0  0  0  0
  151.5578  131.4391  156.8389 Cl  0  0  0  0  0  0  0  0  0  0  0  0
  150.3631  133.8060  156.1265 C   0  0  0  0  0  0  0  0  0  0  0  0
  150.8144  134.3306  157.1452 O   0  0  0  0  0  0  0  0  0  0  0  0
  147.7051  139.9594  154.4162 H   0  0  0  0  0  0  0  0  0  0  0  0
  148.4608  140.5756  152.9481 H   0  0  0  0  0  0  0  0  0  0  0  0
  147.9140  141.6913  154.1929 H   0  0  0  0  0  0  0  0  0  0  0  0
  150.3531  141.4761  154.2845 H   0  0  0  0  0  0  0  0  0  0  0  0
  149.1776  141.8347  156.4228 H   0  0  0  0  0  0  0  0  0  0  0  0
  149.0316  140.1143  156.6711 H   0  0  0  0  0  0  0  0  0  0  0  0
  151.6312  141.7162  156.5434 H   0  0  0  0  0  0  0  0  0  0  0  0
  150.9408  140.9764  157.9676 H   0  0  0  0  0  0  0  0  0  0  0  0
  152.8046  139.6016  157.0117 H   0  0  0  0  0  0  0  0  0  0  0  0
  151.2997  138.7194  157.0441 H   0  0  0  0  0  0  0  0  0  0  0  0
  152.5310  140.1142  154.6177 H   0  0  0  0  0  0  0  0  0  0  0  0
  152.4260  138.3924  154.8576 H   0  0  0  0  0  0  0  0  0  0  0  0
  150.6705  139.2900  153.2923 H   0  0  0  0  0  0  0  0  0  0  0  0
  148.7640  138.3581  154.9810 H   0  0  0  0  0  0  0  0  0  0  0  0
  149.0403  136.0500  156.5561 H   0  0  0  0  0  0  0  0  0  0  0  0
  148.2069  136.0869  155.0347 H   0  0  0  0  0  0  0  0  0  0  0  0
  148.8714  132.2471  152.8909 H   0  0  0  0  0  0  0  0  0  0  0  0
  1  2  1  0  0  0  0
  1 21  1  0  0  0  0
  1 22  1  0  0  0  0
  1 23  1  0  0  0  0
  2  7  1  0  0  0  0
  2  3  1  0  0  0  0
  2 24  1  0  0  0  0
  3  4  1  0  0  0  0
  3 25  1  0  0  0  0
  3 26  1  0  0  0  0
  4  5  1  0  0  0  0
  4 27  1  0  0  0  0
  4 28  1  0  0  0  0
  5  6  1  0  0  0  0
  5 29  1  0  0  0  0
  5 30  1  0  0  0  0
  6  7  1  0  0  0  0
  6 31  1  0  0  0  0
  6 32  1  0  0  0  0
  7  8  1  0  0  0  0
  7 33  1  0  0  0  0
  8  9  1  0  0  0  0
  8 34  1  0  0  0  0
  9 10  2  0  0  0  0
  9 11  1  0  0  0  0
 11 12  1  0  0  0  0
 11 35  1  0  0  0  0
 11 36  1  0  0  0  0
 12 19  1  0  0  0  0
 12 13  1  0  0  0  0
 13 14  2  0  0  0  0
 14 15  1  0  0  0  0
 14 37  1  0  0  0  0
 15 16  1  0  0  0  0
 15 17  2  0  0  0  0
 17 18  1  0  0  0  0
 17 19  1  0  0  0  0
 19 20  2  0  0  0  0
M  END
> <s_m_source_file>
AV-unprocessed.smi

> <i_m_source_file_index>
2988

> <i_lp_mmshare_version>
43012

> <i_f3d_flags>
0

> <s_epik_input>
W0NIM11bQ0BASF0xW0NIMl1bQ0gyXVtDSDJdW0NIMl1bQ0BIXTFbTkhdQyg9TylbQ0gyXW4ybltjSF1jKENsKWMoQ2wpYzI9Tw==

> <s_epik_cmdline>
J2VwaWtfcHl0aG9uJywgJy1waCcsICc3LjAnLCAnLXRuJywgJzgnLCAnLW1hJywgJzIwMCcsICctbWV0YWxfYmluZGluZycsICctaW1hZScsICc8aW5maWxlLm1hZT4nLCAnLW9tYWUnLCAnPG91dGZpbGUubWFlPic=

> <r_lp_tautomer_probability>
1

> <r_epik_Ionization_Penalty>
1.90782e-08

> <r_epik_Ionization_Penalty_Charging>
3.13143e-11

> <r_epik_Ionization_Penalty_Neutral>
1.90469e-08

> <r_epik_State_Penalty>
-0

> <r_epik_Charging_Adjusted_Penalty>
3.13143e-11

> <i_epik_Tot_Q>
0

> <i_epik_Tot_abs_Q>
0

> <r_epik_Metal_State_Penalty>
-0

> <b_epik_Metal_Only>
0

> <s_lp_Force_Field>
OPLS_2005

> <r_lp_Energy>
22.2561

> <b_lp_Chiralities_Consistent>
1

> <s_lp_Variant>
AV-unprocessed.smi:2988-2

> <Gold.Version>
5.8.1

> <Gold.Id.Protein>
6NUR|6NUR_protein|mol2

> <Gold.PLP.Fitness>
37.9777

> <Gold.PLP.PLP>
-35.2940

> <Gold.PLP.part.hbond>
-2.0000

> <Gold.PLP.part.metal>
0.0000

> <Gold.PLP.part.buried>
-2.2148

> <Gold.PLP.part.nonpolar>
-31.1905

> <Gold.PLP.part.repulsive>
0.3100

> <Gold.PLP.ligand.clash>
0.0000

> <Gold.PLP.ligand.torsion>
0.9090

> <Gold.PLP.Chemscore.Hbond>
1.4960

> <Gold.PLP.Chemscore.CHOScore>
0.0000

> <Gold.PLP.Chemscore.Metal>
0.0000

> <Gold.Chemscore.Hbonds>
donor molecule, donor type, donor heavy atom, donor atom, acceptor molecule, acceptor atom, score
      P1  H  6896  6909       L1    20  0.32
      P1  H 10752 10765       L1    10  1.00

> <Gold.PLP.Chemscore.Internal.Correction>
0.0137

> <Gold.Rescore>
     Score         DG    S(hbond)    S(metal)    S(lipo)     H(rot)  DE(clash)    DE(int)     intcor
     15.49     -17.12       1.96        0.00      76.20       1.50       0.08       1.55       ----

> <Gold.Chemscore.Fitness>
15.4879

> <Gold.Chemscore.DG>
-17.1223

> <Gold.Chemscore.ZeroCoef>
-5.4800

> <Gold.Chemscore.Hbond>
1.9645

> <Gold.Chemscore.Metal>
0.0000

> <Gold.Chemscore.Lipo>
76.1952

> <Gold.Chemscore.Internal_Hbond>
0.0000

> <Gold.Chemscore.DEClash>
0.0825

> <Gold.Chemscore.DEInternal>
1.5519

> <Gold.Chemscore.Rot>
1.4977

> <Gold.Chemscore.Internal.Correction>
   9.000000E+99

> <Gold.Chemscore.Hbonds>
donor molecule, donor type, donor heavy atom, donor atom, acceptor molecule, acceptor atom, score
      P1  H  6896  6909       L1    20  0.32
      P1  H 10752 10765       L1    10  1.00

> <Gold.Chemscore.Hbond.Weighted>
-6.5615

> <Gold.Chemscore.Metal.Weighted>
-0.0000

> <Gold.Chemscore.Lipo.Weighted>
-8.9148

> <Gold.Chemscore.Internal_Hbond.Weighted>
0.0000

> <Gold.Chemscore.DEClash.Weighted>
0.0825

> <Gold.Chemscore.DEInternal.Weighted>
1.5519

> <Gold.Chemscore.Rot.Weighted>
3.8341

> <Gold.Chemscore.Internal.Correction.Weighted>
   9.000000E+99

> <Gold.Protein.RotatedTorsions>
[ 6907 6896 6895 6894 ] final   -1.61 input  -60.11 | X-H torsion
[ 7974 7965 7964 7962 ] final   12.95 input  175.53 | X-H torsion
[ 8008 7997 7996 7995 ] final   -6.43 input   59.86 | X-H torsion
[ 10167 10162 10161 10158 ] final  176.73 input  -65.29 | X-H torsion
[ 10718 10713 10712 10709 ] final  -12.27 input   66.30 | X-H torsion
[ 10763 10752 10751 10750 ] final  169.93 input  -60.55 | X-H torsion
[ 11005 11000 10999 10996 ] final -105.18 input  -57.11 | X-H torsion

> <Gold.Protein.ActiveResidues>
 VAL166  LYS551  ARG553  GLY616  TRP617  ASP618  TYR619  PRO620  LYS621  CYS622 
 ASP623  PHE694  ASN695  SER759  ASP760  ASP761  ALA762  ILE779  LEU786  VAL792 
 PHE793  MET794  SER795  GLU796  ALA797  LYS798  CYS799  TRP800  GLU811  SER814 

> <Gold.Protein.RotatedAtoms>
  151.5432  135.1068  159.9931 H   0  0  0  0  0  0  0  0  0  0  0  0  # atno 6907 bound_to 6896
  152.4525  133.7654  159.6780 H   0  0  0  0  0  0  0  0  0  0  0  0  # atno 6908 bound_to 6896
  150.8458  133.7797  159.3068 H   0  0  0  0  0  0  0  0  0  0  0  0  # atno 6909 bound_to 6896
  146.2340  139.9261  142.8503 H   0  0  0  0  0  0  0  0  0  0  0  0  # atno 7974 bound_to 7965
  154.5938  140.2433  155.7884 H   0  0  0  0  0  0  0  0  0  0  0  0  # atno 8008 bound_to 7997
  156.2265  140.2980  156.0035 H   0  0  0  0  0  0  0  0  0  0  0  0  # atno 8009 bound_to 7997
  155.2327  140.0404  157.2955 H   0  0  0  0  0  0  0  0  0  0  0  0  # atno 8010 bound_to 7997
  139.5225  144.2881  152.0488 H   0  0  0  0  0  0  0  0  0  0  0  0  # atno 10167 bound_to 10162
  156.6470  130.4944  149.6075 H   0  0  0  0  0  0  0  0  0  0  0  0  # atno 10718 bound_to 10713
  154.3902  135.2754  155.2159 H   0  0  0  0  0  0  0  0  0  0  0  0  # atno 10763 bound_to 10752
  154.4229  135.5996  153.6024 H   0  0  0  0  0  0  0  0  0  0  0  0  # atno 10764 bound_to 10752
  152.9832  135.5977  154.4156 H   0  0  0  0  0  0  0  0  0  0  0  0  # atno 10765 bound_to 10752
  141.1065  133.8786  157.1703 H   0  0  0  0  0  0  0  0  0  0  0  0  # atno 11005 bound_to 11000
  145.2090  140.9887  143.4112 LP  0  0  0  0  0  0  0  0  0  0  0  0  # atno 17320 bound_to 7965
  144.9708  139.3882  143.6310 LP  0  0  0  0  0  0  0  0  0  0  0  0  # atno 17321 bound_to 7965
  140.2333  144.4345  150.6290 LP  0  0  0  0  0  0  0  0  0  0  0  0  # atno 17342 bound_to 10162
  140.6340  143.2192  151.6434 LP  0  0  0  0  0  0  0  0  0  0  0  0  # atno 17343 bound_to 10162
  156.2114  130.6681  151.1273 LP  0  0  0  0  0  0  0  0  0  0  0  0  # atno 17370 bound_to 10713
  157.7153  131.0713  150.6350 LP  0  0  0  0  0  0  0  0  0  0  0  0  # atno 17371 bound_to 10713
  139.9938  135.0054  157.0036 LP  0  0  0  0  0  0  0  0  0  0  0  0  # atno 17394 bound_to 11000
  140.4887  134.1215  155.7229 LP  0  0  0  0  0  0  0  0  0  0  0  0  # atno 17395 bound_to 11000

$$$$
