AV-unprocessed.smi:438|AV-procd|sdf|2575|dock2
  -GOLD-   2262022553D 1   1.00000     0.00000
 Structure written by MMmdl.
 48 49  0  0  0  0  0  0  0  0  1 V2000
  147.4121  137.6569  154.5380 C   0  0  0  0  0  0  0  0  0  0  0  0
  148.4596  138.7532  154.6005 C   0  0  0  0  0  0  0  0  0  0  0  0
  149.7018  138.3547  154.9522 N   0  0  0  0  0  0  0  0  0  0  0  0
  150.6436  139.2959  154.9894 C   0  0  0  0  0  0  0  0  0  0  0  0
  152.2771  138.7304  155.4215 S   0  0  0  0  0  0  0  0  0  0  0  0
  152.0942  138.3841  157.1991 C   0  0  0  0  0  0  0  0  0  0  0  0
  151.5364  139.5673  157.9899 C   0  0  0  0  0  0  0  0  0  0  0  0
  150.4932  139.4362  158.6292 O   0  0  0  0  0  0  0  0  0  0  0  0
  152.2396  140.7114  157.9288 N   0  0  0  0  0  0  0  0  0  0  0  0
  151.9127  141.9934  158.5606 C   0  0  2  0  0  0  0  0  0  0  0  0
  151.4523  143.0430  157.5241 C   0  0  0  0  0  0  0  0  0  0  0  0
  151.0276  144.3507  158.2073 C   0  0  0  0  0  0  0  0  0  0  0  0
  152.1599  144.9026  159.0857 C   0  0  0  0  0  0  0  0  0  0  0  0
  152.6113  143.8658  160.1268 C   0  0  0  0  0  0  0  0  0  0  0  0
  153.0475  142.5399  159.4699 C   0  0  1  0  0  0  0  0  0  0  0  0
  153.4866  141.5288  160.5438 C   0  0  0  0  0  0  0  0  0  0  0  0
  150.4951  140.5976  154.7382 N   0  0  0  0  0  0  0  0  0  0  0  0
  149.2598  141.0128  154.3864 C   0  0  0  0  0  0  0  0  0  0  0  0
  149.0871  142.3388  154.1133 O   0  0  0  0  0  0  0  0  0  0  0  0
  148.1712  140.1093  154.2977 C   0  0  0  0  0  0  0  0  0  0  0  0
  146.7774  140.5842  153.8994 C   0  0  0  0  0  0  0  0  0  0  0  0
  146.2210  141.6658  154.8395 C   0  0  0  0  0  0  0  0  0  0  0  0
  144.8495  141.8866  154.5898 O   0  0  0  0  0  0  0  0  0  0  0  0
  146.5661  137.8941  155.1821 H   0  0  0  0  0  0  0  0  0  0  0  0
  147.8196  136.6985  154.8618 H   0  0  0  0  0  0  0  0  0  0  0  0
  147.0494  137.5379  153.5170 H   0  0  0  0  0  0  0  0  0  0  0  0
  151.4564  137.5103  157.3362 H   0  0  0  0  0  0  0  0  0  0  0  0
  153.0722  138.1195  157.6017 H   0  0  0  0  0  0  0  0  0  0  0  0
  153.0810  140.6992  157.3703 H   0  0  0  0  0  0  0  0  0  0  0  0
  151.0568  141.7795  159.2023 H   0  0  0  0  0  0  0  0  0  0  0  0
  152.2532  143.2605  156.8172 H   0  0  0  0  0  0  0  0  0  0  0  0
  150.6212  142.6501  156.9370 H   0  0  0  0  0  0  0  0  0  0  0  0
  150.7466  145.0888  157.4556 H   0  0  0  0  0  0  0  0  0  0  0  0
  150.1405  144.1760  158.8174 H   0  0  0  0  0  0  0  0  0  0  0  0
  153.0068  145.1837  158.4584 H   0  0  0  0  0  0  0  0  0  0  0  0
  151.8305  145.8133  159.5870 H   0  0  0  0  0  0  0  0  0  0  0  0
  153.4326  144.2772  160.7146 H   0  0  0  0  0  0  0  0  0  0  0  0
  151.7962  143.6794  160.8275 H   0  0  0  0  0  0  0  0  0  0  0  0
  153.9178  142.7574  158.8498 H   0  0  0  0  0  0  0  0  0  0  0  0
  152.6577  141.2622  161.2000 H   0  0  0  0  0  0  0  0  0  0  0  0
  154.2852  141.9369  161.1637 H   0  0  0  0  0  0  0  0  0  0  0  0
  153.8643  140.6101  160.0982 H   0  0  0  0  0  0  0  0  0  0  0  0
  148.8718  142.8417  154.8837 H   0  0  0  0  0  0  0  0  0  0  0  0
  146.8357  140.9886  152.8884 H   0  0  0  0  0  0  0  0  0  0  0  0
  146.0812  139.7489  153.8308 H   0  0  0  0  0  0  0  0  0  0  0  0
  146.3695  141.3986  155.8862 H   0  0  0  0  0  0  0  0  0  0  0  0
  146.7466  142.6061  154.6717 H   0  0  0  0  0  0  0  0  0  0  0  0
  144.5312  141.1966  154.0278 H   0  0  0  0  0  0  0  0  0  0  0  0
  1  2  1  0  0  0  0
  1 24  1  0  0  0  0
  1 25  1  0  0  0  0
  1 26  1  0  0  0  0
  2 20  1  0  0  0  0
  2  3  2  0  0  0  0
  3  4  1  0  0  0  0
  4  5  1  0  0  0  0
  4 17  2  0  0  0  0
  5  6  1  0  0  0  0
  6  7  1  0  0  0  0
  6 27  1  0  0  0  0
  6 28  1  0  0  0  0
  7  8  2  0  0  0  0
  7  9  1  0  0  0  0
  9 10  1  0  0  0  0
  9 29  1  0  0  0  0
 10 15  1  0  0  0  0
 10 11  1  0  0  0  0
 10 30  1  0  0  0  0
 11 12  1  0  0  0  0
 11 31  1  0  0  0  0
 11 32  1  0  0  0  0
 12 13  1  0  0  0  0
 12 33  1  0  0  0  0
 12 34  1  0  0  0  0
 13 14  1  0  0  0  0
 13 35  1  0  0  0  0
 13 36  1  0  0  0  0
 14 15  1  0  0  0  0
 14 37  1  0  0  0  0
 14 38  1  0  0  0  0
 15 16  1  0  0  0  0
 15 39  1  0  0  0  0
 16 40  1  0  0  0  0
 16 41  1  0  0  0  0
 16 42  1  0  0  0  0
 17 18  1  0  0  0  0
 18 19  1  0  0  0  0
 18 20  2  0  0  0  0
 19 43  1  0  0  0  0
 20 21  1  0  0  0  0
 21 22  1  0  0  0  0
 21 44  1  0  0  0  0
 21 45  1  0  0  0  0
 22 23  1  0  0  0  0
 22 46  1  0  0  0  0
 22 47  1  0  0  0  0
 23 48  1  0  0  0  0
M  END
> <s_m_source_file>
AV-unprocessed.smi

> <i_m_source_file_index>
438

> <i_lp_mmshare_version>
43012

> <i_f3d_flags>
0

> <s_epik_input>
W09IXVtDSDJdW0NIMl1jMWMoW09IXSluYyhuYzFbQ0gzXSlTW0NIMl1DKD1PKVtOSF1bQ0BASF0yW0NIMl1bQ0gyXVtDSDJdW0NIMl1bQ0BIXTJbQ0gzXQ==

> <s_epik_cmdline>
J2VwaWtfcHl0aG9uJywgJy1waCcsICc3LjAnLCAnLXRuJywgJzgnLCAnLW1hJywgJzIwMCcsICctbWV0YWxfYmluZGluZycsICctaW1hZScsICc8aW5maWxlLm1hZT4nLCAnLW9tYWUnLCAnPG91dGZpbGUubWFlPic=

> <r_lp_tautomer_probability>
0.0660145

> <r_epik_Ionization_Penalty>
2.91405

> <r_epik_Ionization_Penalty_Charging>
0

> <r_epik_Ionization_Penalty_Neutral>
2.91405

> <r_epik_State_Penalty>
2.44767

> <r_epik_Charging_Adjusted_Penalty>
2.44767

> <i_epik_Tot_Q>
0

> <i_epik_Tot_abs_Q>
0

> <r_epik_Metal_State_Penalty>
3.04288

> <b_epik_Metal_Only>
0

> <s_lp_Force_Field>
OPLS_2005

> <r_lp_Energy>
1.00415

> <b_lp_Chiralities_Consistent>
1

> <s_lp_Variant>
AV-unprocessed.smi:438-13

> <Gold.Version>
5.8.1

> <Gold.Id.Protein>
6NUR|6NUR_protein|mol2

> <Gold.PLP.Fitness>
53.6541

> <Gold.PLP.PLP>
-45.0180

> <Gold.PLP.part.hbond>
-3.9195

> <Gold.PLP.part.metal>
0.0000

> <Gold.PLP.part.buried>
-3.3417

> <Gold.PLP.part.nonpolar>
-37.9054

> <Gold.PLP.part.repulsive>
0.3196

> <Gold.PLP.ligand.clash>
0.0000

> <Gold.PLP.ligand.torsion>
0.2594

> <Gold.PLP.Chemscore.Hbond>
2.9840

> <Gold.PLP.Chemscore.CHOScore>
0.0000

> <Gold.PLP.Chemscore.Metal>
0.0000

> <Gold.Chemscore.Hbonds>
donor molecule, donor type, donor heavy atom, donor atom, acceptor molecule, acceptor atom, score
      L1  H    19    43       P1  8028  0.85
      L1  H    23    48       P1 10175  1.00
      P1  H  7989  7998       L1    17  0.96
      P1  H  8011  8017       L1    19  0.21

> <Gold.PLP.Chemscore.Internal.Correction>
0.2030

> <Gold.Rescore>
     Score         DG    S(hbond)    S(metal)    S(lipo)     H(rot)  DE(clash)    DE(int)     intcor
     17.03     -17.39       2.33        0.00     110.40       3.44       0.13       0.23       ----

> <Gold.Chemscore.Fitness>
17.0277

> <Gold.Chemscore.DG>
-17.3909

> <Gold.Chemscore.ZeroCoef>
-5.4800

> <Gold.Chemscore.Hbond>
2.3323

> <Gold.Chemscore.Metal>
0.0000

> <Gold.Chemscore.Lipo>
110.4027

> <Gold.Chemscore.Internal_Hbond>
0.0000

> <Gold.Chemscore.DEClash>
0.1288

> <Gold.Chemscore.DEInternal>
0.2345

> <Gold.Chemscore.Rot>
3.4359

> <Gold.Chemscore.Internal.Correction>
   9.000000E+99

> <Gold.Chemscore.Hbonds>
donor molecule, donor type, donor heavy atom, donor atom, acceptor molecule, acceptor atom, score
      L1  H    19    43       P1  8028  0.80
      L1  H    23    48       P1 10175  0.64
      P1  H  7989  7998       L1    17  0.29
      P1  H  8011  8017       L1    19  0.07

> <Gold.Chemscore.Hbond.Weighted>
-7.7898

> <Gold.Chemscore.Metal.Weighted>
-0.0000

> <Gold.Chemscore.Lipo.Weighted>
-12.9171

> <Gold.Chemscore.Internal_Hbond.Weighted>
0.0000

> <Gold.Chemscore.DEClash.Weighted>
0.1288

> <Gold.Chemscore.DEInternal.Weighted>
0.2345

> <Gold.Chemscore.Rot.Weighted>
8.7960

> <Gold.Chemscore.Internal.Correction.Weighted>
   9.000000E+99

> <Gold.Protein.RotatedTorsions>
[ 6907 6896 6895 6894 ] final  167.77 input  -60.11 | X-H torsion
[ 7974 7965 7964 7962 ] final  107.05 input  175.53 | X-H torsion
[ 8008 7997 7996 7995 ] final   32.22 input   59.86 | X-H torsion
[ 10167 10162 10161 10158 ] final -104.43 input  -65.29 | X-H torsion
[ 10718 10713 10712 10709 ] final   33.70 input   66.30 | X-H torsion
[ 10763 10752 10751 10750 ] final -137.63 input  -60.55 | X-H torsion
[ 11005 11000 10999 10996 ] final   51.65 input  -57.11 | X-H torsion

> <Gold.Protein.ActiveResidues>
 VAL166  LYS551  ARG553  GLY616  TRP617  ASP618  TYR619  PRO620  LYS621  CYS622 
 ASP623  PHE694  ASN695  SER759  ASP760  ASP761  ALA762  ILE779  LEU786  VAL792 
 PHE793  MET794  SER795  GLU796  ALA797  LYS798  CYS799  TRP800  GLU811  SER814 

> <Gold.Protein.RotatedAtoms>
  151.8581  133.3452  159.3694 H   0  0  0  0  0  0  0  0  0  0  0  0  # atno 6907 bound_to 6896
  150.7187  134.5233  159.5673 H   0  0  0  0  0  0  0  0  0  0  0  0  # atno 6908 bound_to 6896
  152.2741  134.7902  160.0460 H   0  0  0  0  0  0  0  0  0  0  0  0  # atno 6909 bound_to 6896
  145.2987  139.2576  143.3825 H   0  0  0  0  0  0  0  0  0  0  0  0  # atno 7974 bound_to 7965
  155.1191  140.3246  155.4502 H   0  0  0  0  0  0  0  0  0  0  0  0  # atno 8008 bound_to 7997
  156.2668  140.2030  156.6261 H   0  0  0  0  0  0  0  0  0  0  0  0  # atno 8009 bound_to 7997
  154.6698  140.0538  157.0140 H   0  0  0  0  0  0  0  0  0  0  0  0  # atno 8010 bound_to 7997
  140.2094  143.3758  152.1063 H   0  0  0  0  0  0  0  0  0  0  0  0  # atno 10167 bound_to 10162
  157.3011  130.7351  149.6667 H   0  0  0  0  0  0  0  0  0  0  0  0  # atno 10718 bound_to 10713
  154.8657  135.3636  154.5255 H   0  0  0  0  0  0  0  0  0  0  0  0  # atno 10763 bound_to 10752
  153.5883  135.7016  153.5439 H   0  0  0  0  0  0  0  0  0  0  0  0  # atno 10764 bound_to 10752
  153.3396  135.4101  155.1523 H   0  0  0  0  0  0  0  0  0  0  0  0  # atno 10765 bound_to 10752
  140.0915  134.5203  155.8847 H   0  0  0  0  0  0  0  0  0  0  0  0  # atno 11005 bound_to 11000
  146.3159  140.3496  142.8655 LP  0  0  0  0  0  0  0  0  0  0  0  0  # atno 17320 bound_to 7965
  144.9112  140.7759  143.5806 LP  0  0  0  0  0  0  0  0  0  0  0  0  # atno 17321 bound_to 7965
  139.5186  144.7008  151.5499 LP  0  0  0  0  0  0  0  0  0  0  0  0  # atno 17342 bound_to 10162
  140.6334  143.9031  150.6626 LP  0  0  0  0  0  0  0  0  0  0  0  0  # atno 17343 bound_to 10162
  155.9671  130.4279  150.4767 LP  0  0  0  0  0  0  0  0  0  0  0  0  # atno 17370 bound_to 10713
  157.2748  131.0594  151.2236 LP  0  0  0  0  0  0  0  0  0  0  0  0  # atno 17371 bound_to 10713
  141.2079  133.6669  156.6337 LP  0  0  0  0  0  0  0  0  0  0  0  0  # atno 17394 bound_to 11000
  140.3345  134.7900  157.4352 LP  0  0  0  0  0  0  0  0  0  0  0  0  # atno 17395 bound_to 11000

$$$$
