AV-unprocessed.smi:1181|AV-procd|sdf|4966|dock5
  -GOLD-   22720 3563D 1   1.00000     0.00000
 Structure written by MMmdl.
 44 45  0  0  0  0  0  0  0  0  1 V2000
  145.5000  135.9251  150.9128 C   0  0  0  0  0  0  0  0  0  0  0  0
  145.8948  136.9682  151.7863 O   0  0  0  0  0  0  0  0  0  0  0  0
  146.1662  138.1784  151.0989 C   0  0  0  0  0  0  0  0  0  0  0  0
  146.5580  139.2569  152.1135 C   0  0  0  0  0  0  0  0  0  0  0  0
  147.5536  138.7279  152.9839 O   0  0  0  0  0  0  0  0  0  0  0  0
  148.2742  139.6028  153.7703 C   0  0  0  0  0  0  0  0  0  0  0  0
  149.5303  139.1908  154.2573 C   0  0  0  0  0  0  0  0  0  0  0  0
  150.2698  140.0778  155.0616 C   0  0  0  0  0  0  0  0  0  0  0  0
  149.7393  141.3516  155.3472 C   0  0  0  0  0  0  0  0  0  0  0  0
  150.4961  142.2180  156.1801 N   0  0  0  0  0  0  0  0  0  0  0  0
  151.4313  141.9015  157.0974 C   0  0  0  0  0  0  0  0  0  0  0  0
  151.7443  140.7418  157.3684 O   0  0  0  0  0  0  0  0  0  0  0  0
  151.9810  142.9737  157.7245 N   0  0  0  0  0  0  0  0  0  0  0  0
  151.5454  144.3766  157.6077 C   0  0  0  0  0  0  0  0  0  0  0  0
  150.8537  144.7889  158.9191 C   0  0  0  0  0  0  0  0  0  0  0  0
  151.7924  144.5901  160.1287 C   0  0  0  0  0  0  0  0  0  0  0  0
  151.0831  144.9002  161.4538 C   0  0  0  0  0  0  0  0  0  0  0  0
  152.4049  143.1724  160.1261 C   0  0  0  0  0  0  0  0  0  0  0  0
  153.0175  142.8294  158.7554 C   0  0  0  0  0  0  0  0  0  0  0  0
  148.4629  141.6680  154.8217 C   0  0  0  0  0  0  0  0  0  0  0  0
  147.7478  140.8206  154.0515 N   0  0  0  0  0  0  0  0  0  0  0  0
  145.3044  135.0203  151.4879 H   0  0  0  0  0  0  0  0  0  0  0  0
  146.2828  135.7004  150.1873 H   0  0  0  0  0  0  0  0  0  0  0  0
  144.5877  136.1856  150.3746 H   0  0  0  0  0  0  0  0  0  0  0  0
  146.9912  138.0173  150.4034 H   0  0  0  0  0  0  0  0  0  0  0  0
  145.3025  138.5002  150.5149 H   0  0  0  0  0  0  0  0  0  0  0  0
  146.9147  140.1497  151.5969 H   0  0  0  0  0  0  0  0  0  0  0  0
  145.6778  139.5342  152.6960 H   0  0  0  0  0  0  0  0  0  0  0  0
  149.9184  138.2114  154.0194 H   0  0  0  0  0  0  0  0  0  0  0  0
  151.2339  139.7824  155.4495 H   0  0  0  0  0  0  0  0  0  0  0  0
  150.2573  143.1970  156.1179 H   0  0  0  0  0  0  0  0  0  0  0  0
  152.4180  145.0082  157.4348 H   0  0  0  0  0  0  0  0  0  0  0  0
  150.8847  144.5695  156.7626 H   0  0  0  0  0  0  0  0  0  0  0  0
  150.5370  145.8307  158.8596 H   0  0  0  0  0  0  0  0  0  0  0  0
  149.9471  144.1964  159.0513 H   0  0  0  0  0  0  0  0  0  0  0  0
  152.6142  145.3000  160.0237 H   0  0  0  0  0  0  0  0  0  0  0  0
  150.2425  144.2260  161.6207 H   0  0  0  0  0  0  0  0  0  0  0  0
  150.6989  145.9205  161.4638 H   0  0  0  0  0  0  0  0  0  0  0  0
  151.7658  144.7968  162.2977 H   0  0  0  0  0  0  0  0  0  0  0  0
  153.1668  143.0931  160.9021 H   0  0  0  0  0  0  0  0  0  0  0  0
  151.6371  142.4371  160.3714 H   0  0  0  0  0  0  0  0  0  0  0  0
  153.4517  141.8293  158.7849 H   0  0  0  0  0  0  0  0  0  0  0  0
  153.8466  143.5031  158.5346 H   0  0  0  0  0  0  0  0  0  0  0  0
  147.9761  142.6076  155.0320 H   0  0  0  0  0  0  0  0  0  0  0  0
  1  2  1  0  0  0  0
  1 22  1  0  0  0  0
  1 23  1  0  0  0  0
  1 24  1  0  0  0  0
  2  3  1  0  0  0  0
  3  4  1  0  0  0  0
  3 25  1  0  0  0  0
  3 26  1  0  0  0  0
  4  5  1  0  0  0  0
  4 27  1  0  0  0  0
  4 28  1  0  0  0  0
  5  6  1  0  0  0  0
  6 21  1  0  0  0  0
  6  7  2  0  0  0  0
  7  8  1  0  0  0  0
  7 29  1  0  0  0  0
  8  9  2  0  0  0  0
  8 30  1  0  0  0  0
  9 10  1  0  0  0  0
  9 20  1  0  0  0  0
 10 11  1  0  0  0  0
 10 31  1  0  0  0  0
 11 12  2  0  0  0  0
 11 13  1  0  0  0  0
 13 19  1  0  0  0  0
 13 14  1  0  0  0  0
 14 15  1  0  0  0  0
 14 32  1  0  0  0  0
 14 33  1  0  0  0  0
 15 16  1  0  0  0  0
 15 34  1  0  0  0  0
 15 35  1  0  0  0  0
 16 17  1  0  0  0  0
 16 18  1  0  0  0  0
 16 36  1  0  0  0  0
 17 37  1  0  0  0  0
 17 38  1  0  0  0  0
 17 39  1  0  0  0  0
 18 19  1  0  0  0  0
 18 40  1  0  0  0  0
 18 41  1  0  0  0  0
 19 42  1  0  0  0  0
 19 43  1  0  0  0  0
 20 21  2  0  0  0  0
 20 44  1  0  0  0  0
M  END
> <s_m_source_file>
AV-unprocessed.smi

> <i_m_source_file_index>
1181

> <i_lp_mmshare_version>
43012

> <i_f3d_flags>
0

> <s_epik_input>
W0NIM11PW0NIMl1bQ0gyXU9jMVtjSF1bY0hdYyhbY0hdbjEpW05IXUMoPU8pTjJbQ0gyXVtDSDJdW0NIXShbQ0gzXSlbQ0gyXVtDSDJdMg==

> <s_epik_cmdline>
J2VwaWtfcHl0aG9uJywgJy1waCcsICc3LjAnLCAnLXRuJywgJzgnLCAnLW1hJywgJzIwMCcsICctbWV0YWxfYmluZGluZycsICctaW1hZScsICc8aW5maWxlLm1hZT4nLCAnLW9tYWUnLCAnPG91dGZpbGUubWFlPic=

> <r_lp_tautomer_probability>
1

> <r_epik_Ionization_Penalty>
8.49399e-05

> <r_epik_Ionization_Penalty_Charging>
0

> <r_epik_Ionization_Penalty_Neutral>
8.49399e-05

> <r_epik_State_Penalty>
-0

> <r_epik_Charging_Adjusted_Penalty>
0

> <i_epik_Tot_Q>
0

> <i_epik_Tot_abs_Q>
0

> <r_epik_Metal_State_Penalty>
-0

> <b_epik_Metal_Only>
0

> <s_lp_Force_Field>
OPLS_2005

> <r_lp_Energy>
36.0421

> <b_lp_Chiralities_Consistent>
1

> <s_lp_Variant>
AV-unprocessed.smi:1181-1

> <Gold.Version>
5.8.1

> <Gold.Id.Protein>
6NUR|6NUR_protein|mol2

> <Gold.PLP.Fitness>
43.7311

> <Gold.PLP.PLP>
-39.1758

> <Gold.PLP.part.hbond>
-1.0000

> <Gold.PLP.part.metal>
0.0000

> <Gold.PLP.part.buried>
5.1641

> <Gold.PLP.part.nonpolar>
-45.2854

> <Gold.PLP.part.repulsive>
1.2370

> <Gold.PLP.ligand.clash>
0.0000

> <Gold.PLP.ligand.torsion>
0.5523

> <Gold.PLP.Chemscore.Hbond>
0.8723

> <Gold.PLP.Chemscore.CHOScore>
1.0000

> <Gold.PLP.Chemscore.Metal>
0.0000

> <Gold.Chemscore.Hbonds>
donor molecule, donor type, donor heavy atom, donor atom, acceptor molecule, acceptor atom, score
      L1  H    10    31       P1  8028  0.84
      L1  C    20    44       P1  8028  1.00

> <Gold.PLP.Chemscore.Internal.Correction>
0.0431

> <Gold.Rescore>
     Score         DG    S(hbond)    S(metal)    S(lipo)     H(rot)  DE(clash)    DE(int)     intcor
     14.20     -18.67       0.96        0.00     119.25       1.55       2.45       2.03       ----

> <Gold.Chemscore.Fitness>
14.1991

> <Gold.Chemscore.DG>
-18.6738

> <Gold.Chemscore.ZeroCoef>
-5.4800

> <Gold.Chemscore.Hbond>
0.9621

> <Gold.Chemscore.Metal>
0.0000

> <Gold.Chemscore.Lipo>
119.2522

> <Gold.Chemscore.Internal_Hbond>
0.0000

> <Gold.Chemscore.DEClash>
2.4454

> <Gold.Chemscore.DEInternal>
2.0294

> <Gold.Chemscore.Rot>
1.5517

> <Gold.Chemscore.Internal.Correction>
   9.000000E+99

> <Gold.Chemscore.Hbonds>
donor molecule, donor type, donor heavy atom, donor atom, acceptor molecule, acceptor atom, score
      L1  H    10    31       P1  8028  0.78

> <Gold.Chemscore.Hbond.Weighted>
-3.2136

> <Gold.Chemscore.Metal.Weighted>
-0.0000

> <Gold.Chemscore.Lipo.Weighted>
-13.9525

> <Gold.Chemscore.Internal_Hbond.Weighted>
0.0000

> <Gold.Chemscore.DEClash.Weighted>
2.4454

> <Gold.Chemscore.DEInternal.Weighted>
2.0294

> <Gold.Chemscore.Rot.Weighted>
3.9723

> <Gold.Chemscore.Internal.Correction.Weighted>
   9.000000E+99

> <Gold.Protein.RotatedTorsions>
[ 6907 6896 6895 6894 ] final    7.52 input  -60.11 | X-H torsion
[ 7974 7965 7964 7962 ] final  148.28 input  175.53 | X-H torsion
[ 8008 7997 7996 7995 ] final -133.09 input   59.86 | X-H torsion
[ 10167 10162 10161 10158 ] final -123.85 input  -65.29 | X-H torsion
[ 10718 10713 10712 10709 ] final -176.01 input   66.30 | X-H torsion
[ 10763 10752 10751 10750 ] final   84.67 input  -60.55 | X-H torsion
[ 11005 11000 10999 10996 ] final   31.96 input  -57.11 | X-H torsion

> <Gold.Protein.ActiveResidues>
 VAL166  LYS551  ARG553  GLY616  TRP617  ASP618  TYR619  PRO620  LYS621  CYS622 
 ASP623  PHE694  ASN695  SER759  ASP760  ASP761  ALA762  ILE779  LEU786  VAL792 
 PHE793  MET794  SER795  GLU796  ALA797  LYS798  CYS799  TRP800  GLU811  SER814 

> <Gold.Protein.RotatedAtoms>
  151.6912  135.0946  160.0233 H   0  0  0  0  0  0  0  0  0  0  0  0  # atno 6907 bound_to 6896
  152.3777  133.6500  159.6145 H   0  0  0  0  0  0  0  0  0  0  0  0  # atno 6908 bound_to 6896
  150.7722  133.9082  159.3403 H   0  0  0  0  0  0  0  0  0  0  0  0  # atno 6909 bound_to 6896
  144.8526  139.6134  143.5967 H   0  0  0  0  0  0  0  0  0  0  0  0  # atno 7974 bound_to 7965
  155.3398  140.0471  157.3044 H   0  0  0  0  0  0  0  0  0  0  0  0  # atno 8008 bound_to 7997
  154.5283  140.2248  155.8814 H   0  0  0  0  0  0  0  0  0  0  0  0  # atno 8009 bound_to 7997
  156.1763  140.3084  155.9071 H   0  0  0  0  0  0  0  0  0  0  0  0  # atno 8010 bound_to 7997
  139.9990  143.5560  152.2311 H   0  0  0  0  0  0  0  0  0  0  0  0  # atno 10167 bound_to 10162
  156.8084  130.9577  151.3116 H   0  0  0  0  0  0  0  0  0  0  0  0  # atno 10718 bound_to 10713
  153.1403  135.4645  154.9485 H   0  0  0  0  0  0  0  0  0  0  0  0  # atno 10763 bound_to 10752
  154.7741  135.3168  154.8131 H   0  0  0  0  0  0  0  0  0  0  0  0  # atno 10764 bound_to 10752
  153.8655  135.6908  153.4833 H   0  0  0  0  0  0  0  0  0  0  0  0  # atno 10765 bound_to 10752
  140.2784  134.3001  155.7807 H   0  0  0  0  0  0  0  0  0  0  0  0  # atno 11005 bound_to 11000
  146.2797  139.6845  142.9238 LP  0  0  0  0  0  0  0  0  0  0  0  0  # atno 17320 bound_to 7965
  145.4469  141.0426  143.2826 LP  0  0  0  0  0  0  0  0  0  0  0  0  # atno 17321 bound_to 7965
  139.6285  144.7641  151.2587 LP  0  0  0  0  0  0  0  0  0  0  0  0  # atno 17342 bound_to 10162
  140.7426  143.6521  150.8239 LP  0  0  0  0  0  0  0  0  0  0  0  0  # atno 17343 bound_to 10162
  157.6518  130.8891  149.9649 LP  0  0  0  0  0  0  0  0  0  0  0  0  # atno 17370 bound_to 10713
  156.1059  130.3653  150.0134 LP  0  0  0  0  0  0  0  0  0  0  0  0  # atno 17371 bound_to 10713
  141.2166  133.7510  156.9442 LP  0  0  0  0  0  0  0  0  0  0  0  0  # atno 17394 bound_to 11000
  140.1307  134.9358  157.2332 LP  0  0  0  0  0  0  0  0  0  0  0  0  # atno 17395 bound_to 11000

$$$$
