AV-unprocessed.smi:509|AV-procd|sdf|2760|dock10
  -GOLD-   2262023223D 1   1.00000     0.00000
 Structure written by MMmdl.
 46 48  0  0  0  0  0  0  0  0  2 V2000
  145.9450  143.2309  153.8196 C   0  0  0  0  0  0  0  0  0  0  0  0
  146.2921  142.0468  154.5147 O   0  0  0  0  0  0  0  0  0  0  0  0
  146.7466  142.3038  155.8334 C   0  0  0  0  0  0  0  0  0  0  0  0
  147.0829  140.9768  156.5269 C   0  0  0  0  0  0  0  0  0  0  0  0
  148.2705  140.3465  155.9514 N   0  0  0  0  0  0  0  0  0  0  0  0
  148.3978  139.6565  154.7833 C   0  0  0  0  0  0  0  0  0  0  0  0
  147.3369  139.4691  153.8945 N   0  0  0  0  0  0  0  0  0  0  0  0
  146.0934  138.7468  154.1610 C   0  0  0  0  0  0  0  0  0  0  0  0
  145.7595  137.7606  153.0265 C   0  0  0  0  0  0  0  0  0  0  0  0
  145.6832  138.4713  151.7334 N   0  3  0  0  0  0  0  0  0  0  0  0
  146.8857  139.2852  151.4601 C   0  0  0  0  0  0  0  0  0  0  0  0
  147.1952  140.2169  152.6464 C   0  0  0  0  0  0  0  0  0  0  0  0
  149.6079  139.1289  154.5828 N   0  0  0  0  0  0  0  0  0  0  0  0
  150.3196  139.5349  155.7003 C   0  0  0  0  0  0  0  0  0  0  0  0
  149.5374  140.2560  156.5364 C   0  0  0  0  0  0  0  0  0  0  0  0
  150.0225  140.7728  157.8229 C   0  0  0  0  0  0  0  0  0  0  0  0
  149.2844  141.3968  158.5864 O   0  0  0  0  0  0  0  0  0  0  0  0
  151.3365  140.4867  158.0827 N   0  0  0  0  0  0  0  0  0  0  0  0
  151.8721  140.9912  159.3615 C   0  0  0  0  0  0  0  0  0  0  0  0
  152.1675  139.7432  157.2619 C   0  0  0  0  0  0  0  0  0  0  0  0
  153.3315  139.4885  157.5827 O   0  0  0  0  0  0  0  0  0  0  0  0
  151.6649  139.2811  156.0717 N   0  0  0  0  0  0  0  0  0  0  0  0
  152.5160  138.4967  155.1722 C   0  0  0  0  0  0  0  0  0  0  0  0
  145.6102  142.9797  152.8132 H   0  0  0  0  0  0  0  0  0  0  0  0
  146.7999  143.9025  153.7326 H   0  0  0  0  0  0  0  0  0  0  0  0
  145.1335  143.7589  154.3223 H   0  0  0  0  0  0  0  0  0  0  0  0
  147.6325  142.9394  155.8038 H   0  0  0  0  0  0  0  0  0  0  0  0
  145.9802  142.8386  156.3967 H   0  0  0  0  0  0  0  0  0  0  0  0
  147.2165  141.1497  157.5890 H   0  0  0  0  0  0  0  0  0  0  0  0
  146.2430  140.2867  156.4617 H   0  0  0  0  0  0  0  0  0  0  0  0
  146.1419  138.2357  155.1217 H   0  0  0  0  0  0  0  0  0  0  0  0
  145.2866  139.4741  154.2618 H   0  0  0  0  0  0  0  0  0  0  0  0
  146.5213  136.9828  152.9596 H   0  0  0  0  0  0  0  0  0  0  0  0
  144.8092  137.2627  153.2195 H   0  0  0  0  0  0  0  0  0  0  0  0
  145.5527  137.8023  150.9882 H   0  0  0  0  0  0  0  0  0  0  0  0
  147.7295  138.6200  151.2744 H   0  0  0  0  0  0  0  0  0  0  0  0
  146.7301  139.8641  150.5497 H   0  0  0  0  0  0  0  0  0  0  0  0
  146.4055  140.9608  152.7613 H   0  0  0  0  0  0  0  0  0  0  0  0
  148.1138  140.7688  152.4428 H   0  0  0  0  0  0  0  0  0  0  0  0
  152.9611  141.0134  159.4153 H   0  0  0  0  0  0  0  0  0  0  0  0
  151.5171  140.3697  160.1847 H   0  0  0  0  0  0  0  0  0  0  0  0
  151.5531  142.0169  159.5550 H   0  0  0  0  0  0  0  0  0  0  0  0
  153.4374  139.0344  154.9435 H   0  0  0  0  0  0  0  0  0  0  0  0
  152.0326  138.2745  154.2210 H   0  0  0  0  0  0  0  0  0  0  0  0
  152.7822  137.5456  155.6349 H   0  0  0  0  0  0  0  0  0  0  0  0
  144.8858  139.0906  151.7614 H   0  0  0  0  0  0  0  0  0  0  0  0
  1  2  1  0  0  0  0
  1 24  1  0  0  0  0
  1 25  1  0  0  0  0
  1 26  1  0  0  0  0
  2  3  1  0  0  0  0
  3  4  1  0  0  0  0
  3 27  1  0  0  0  0
  3 28  1  0  0  0  0
  4  5  1  0  0  0  0
  4 29  1  0  0  0  0
  4 30  1  0  0  0  0
  5 15  1  0  0  0  0
  5  6  1  0  0  0  0
  6  7  1  0  0  0  0
  6 13  2  0  0  0  0
  7 12  1  0  0  0  0
  7  8  1  0  0  0  0
  8  9  1  0  0  0  0
  8 31  1  0  0  0  0
  8 32  1  0  0  0  0
  9 10  1  0  0  0  0
  9 33  1  0  0  0  0
  9 34  1  0  0  0  0
 10 11  1  0  0  0  0
 10 35  1  0  0  0  0
 10 46  1  0  0  0  0
 11 12  1  0  0  0  0
 11 36  1  0  0  0  0
 11 37  1  0  0  0  0
 12 38  1  0  0  0  0
 12 39  1  0  0  0  0
 13 14  1  0  0  0  0
 14 22  1  0  0  0  0
 14 15  2  0  0  0  0
 15 16  1  0  0  0  0
 16 17  2  0  0  0  0
 16 18  1  0  0  0  0
 18 19  1  0  0  0  0
 18 20  1  0  0  0  0
 19 40  1  0  0  0  0
 19 41  1  0  0  0  0
 19 42  1  0  0  0  0
 20 21  2  0  0  0  0
 20 22  1  0  0  0  0
 22 23  1  0  0  0  0
 23 43  1  0  0  0  0
 23 44  1  0  0  0  0
 23 45  1  0  0  0  0
M  CHG  1  10   1
M  END
> <s_m_source_file>
AV-unprocessed.smi

> <i_m_source_file_index>
509

> <i_lp_mmshare_version>
43012

> <i_f3d_flags>
0

> <s_epik_input>
W0NIM11uMWMoPU8pbihbQ0gzXSljKD1PKWMoYzEyKW4oW0NIMl1bQ0gyXU9bQ0gzXSljKG4yKU4zW0NIMl1bQ0gyXVtOSF1bQ0gyXVtDSDJdMw==

> <s_epik_cmdline>
J2VwaWtfcHl0aG9uJywgJy1waCcsICc3LjAnLCAnLXRuJywgJzgnLCAnLW1hJywgJzIwMCcsICctbWV0YWxfYmluZGluZycsICctaW1hZScsICc8aW5maWxlLm1hZT4nLCAnLW9tYWUnLCAnPG91dGZpbGUubWFlPic=

> <r_epik_Ionization_Penalty>
0.00857468

> <r_epik_Ionization_Penalty_Charging>
0.00857162

> <r_epik_Ionization_Penalty_Neutral>
3.06002e-06

> <r_epik_State_Penalty>
0.00646614

> <r_epik_Charging_Adjusted_Penalty>
0.0150378

> <i_epik_Tot_Q>
1

> <i_epik_Tot_abs_Q>
1

> <r_epik_Metal_State_Penalty>
0.00646904

> <b_epik_Metal_Only>
0

> <s_lp_Force_Field>
OPLS_2005

> <r_lp_Energy>
52.9694

> <b_lp_Chiralities_Consistent>
1

> <s_lp_Variant>
AV-unprocessed.smi:509-1

> <Gold.Version>
5.8.1

> <Gold.Id.Protein>
6NUR|6NUR_protein|mol2

> <Gold.PLP.Fitness>
38.9759

> <Gold.PLP.PLP>
-32.4464

> <Gold.PLP.part.hbond>
-3.2174

> <Gold.PLP.part.metal>
0.0000

> <Gold.PLP.part.buried>
-0.9971

> <Gold.PLP.part.nonpolar>
-28.4754

> <Gold.PLP.part.repulsive>
0.4109

> <Gold.PLP.ligand.clash>
0.0000

> <Gold.PLP.ligand.torsion>
1.5270

> <Gold.PLP.Chemscore.Hbond>
3.0796

> <Gold.PLP.Chemscore.CHOScore>
0.0000

> <Gold.PLP.Chemscore.Metal>
0.0000

> <Gold.Chemscore.Hbonds>
donor molecule, donor type, donor heavy atom, donor atom, acceptor molecule, acceptor atom, score
      L1  H    10    35       P1 10171  0.06
      L1  H    10    46       P1 10175  2.00
      P1  H  7997  8008       L1    21  0.98

> <Gold.PLP.Chemscore.Internal.Correction>
0.3448

> <Gold.Rescore>
     Score         DG    S(hbond)    S(metal)    S(lipo)     H(rot)  DE(clash)    DE(int)     intcor
     13.35     -15.32       2.15        0.00      55.71       1.51       0.33       1.64       ----

> <Gold.Chemscore.Fitness>
13.3481

> <Gold.Chemscore.DG>
-15.3171

> <Gold.Chemscore.ZeroCoef>
-5.4800

> <Gold.Chemscore.Hbond>
2.1501

> <Gold.Chemscore.Metal>
0.0000

> <Gold.Chemscore.Lipo>
55.7083

> <Gold.Chemscore.Internal_Hbond>
0.0000

> <Gold.Chemscore.DEClash>
0.3264

> <Gold.Chemscore.DEInternal>
1.6425

> <Gold.Chemscore.Rot>
1.5086

> <Gold.Chemscore.Internal.Correction>
   9.000000E+99

> <Gold.Chemscore.Hbonds>
donor molecule, donor type, donor heavy atom, donor atom, acceptor molecule, acceptor atom, score
      L1  H    10    35       P1 10171  0.07
      L1  H    10    46       P1 10175  0.96
      P1  H  7997  8008       L1    21  0.90

> <Gold.Chemscore.Hbond.Weighted>
-7.1813

> <Gold.Chemscore.Metal.Weighted>
-0.0000

> <Gold.Chemscore.Lipo.Weighted>
-6.5179

> <Gold.Chemscore.Internal_Hbond.Weighted>
0.0000

> <Gold.Chemscore.DEClash.Weighted>
0.3264

> <Gold.Chemscore.DEInternal.Weighted>
1.6425

> <Gold.Chemscore.Rot.Weighted>
3.8620

> <Gold.Chemscore.Internal.Correction.Weighted>
   9.000000E+99

> <Gold.Protein.RotatedTorsions>
[ 6907 6896 6895 6894 ] final -143.37 input  -60.11 | X-H torsion
[ 7974 7965 7964 7962 ] final  -42.77 input  175.53 | X-H torsion
[ 8008 7997 7996 7995 ] final  -93.09 input   59.86 | X-H torsion
[ 10167 10162 10161 10158 ] final   20.00 input  -65.29 | X-H torsion
[ 10718 10713 10712 10709 ] final -122.07 input   66.30 | X-H torsion
[ 10763 10752 10751 10750 ] final   33.11 input  -60.55 | X-H torsion
[ 11005 11000 10999 10996 ] final  109.06 input  -57.11 | X-H torsion

> <Gold.Protein.ActiveResidues>
 VAL166  LYS551  ARG553  GLY616  TRP617  ASP618  TYR619  PRO620  LYS621  CYS622 
 ASP623  PHE694  ASN695  SER759  ASP760  ASP761  ALA762  ILE779  LEU786  VAL792 
 PHE793  MET794  SER795  GLU796  ALA797  LYS798  CYS799  TRP800  GLU811  SER814 

> <Gold.Protein.RotatedAtoms>
  151.0996  133.5253  159.2610 H   0  0  0  0  0  0  0  0  0  0  0  0  # atno 6907 bound_to 6896
  151.2089  135.0473  159.8913 H   0  0  0  0  0  0  0  0  0  0  0  0  # atno 6908 bound_to 6896
  152.5442  134.0814  159.8291 H   0  0  0  0  0  0  0  0  0  0  0  0  # atno 6909 bound_to 6896
  146.0084  140.6993  142.9236 H   0  0  0  0  0  0  0  0  0  0  0  0  # atno 7974 bound_to 7965
  154.7313  140.0502  157.0729 H   0  0  0  0  0  0  0  0  0  0  0  0  # atno 8008 bound_to 7997
  155.0298  140.3156  155.4743 H   0  0  0  0  0  0  0  0  0  0  0  0  # atno 8009 bound_to 7997
  156.2842  140.2152  156.5419 H   0  0  0  0  0  0  0  0  0  0  0  0  # atno 8010 bound_to 7997
  140.5537  143.9464  150.6595 H   0  0  0  0  0  0  0  0  0  0  0  0  # atno 10167 bound_to 10162
  156.1388  130.6450  150.9738 H   0  0  0  0  0  0  0  0  0  0  0  0  # atno 10718 bound_to 10713
  153.0228  135.6395  154.1461 H   0  0  0  0  0  0  0  0  0  0  0  0  # atno 10763 bound_to 10752
  154.1193  135.2847  155.3214 H   0  0  0  0  0  0  0  0  0  0  0  0  # atno 10764 bound_to 10752
  154.6275  135.5504  153.7705 H   0  0  0  0  0  0  0  0  0  0  0  0  # atno 10765 bound_to 10752
  139.8855  134.9448  156.6067 H   0  0  0  0  0  0  0  0  0  0  0  0  # atno 11005 bound_to 11000
  144.6944  140.3355  143.7208 LP  0  0  0  0  0  0  0  0  0  0  0  0  # atno 17320 bound_to 7965
  145.7380  139.1756  143.2392 LP  0  0  0  0  0  0  0  0  0  0  0  0  # atno 17321 bound_to 7965
  140.2896  143.3333  152.1075 LP  0  0  0  0  0  0  0  0  0  0  0  0  # atno 17342 bound_to 10162
  139.5038  144.6763  151.6120 LP  0  0  0  0  0  0  0  0  0  0  0  0  # atno 17343 bound_to 10162
  157.6557  131.0890  150.7953 LP  0  0  0  0  0  0  0  0  0  0  0  0  # atno 17370 bound_to 10713
  156.8030  130.4927  149.5367 LP  0  0  0  0  0  0  0  0  0  0  0  0  # atno 17371 bound_to 10713
  140.7842  133.8635  155.8593 LP  0  0  0  0  0  0  0  0  0  0  0  0  # atno 17394 bound_to 11000
  140.9733  134.1502  157.4557 LP  0  0  0  0  0  0  0  0  0  0  0  0  # atno 17395 bound_to 11000

$$$$
