AV-unprocessed.smi:2566|AV-procd|sdf|10074|dock3
  -GOLD-   2272014103D 1   1.00000     0.00000
 Structure written by MMmdl.
 20 21  0  0  0  0  0  0  0  0  1 V2000
  151.7693  138.1395  154.9539 C   0  0  0  0  0  0  0  0  0  0  0  0
  151.4342  139.3355  154.4815 N   0  0  0  0  0  0  0  0  0  0  0  0
  150.0771  139.2158  154.4160 C   0  0  0  0  0  0  0  0  0  0  0  0
  149.1777  140.2953  153.8978 C   0  0  2  0  0  0  0  0  0  0  0  0
  149.3223  141.6059  154.6958 C   0  0  0  0  0  0  0  0  0  0  0  0
  148.3608  142.5980  154.2167 N   0  0  0  0  0  0  0  0  0  0  0  0
  146.9962  142.0747  154.2623 C   0  0  0  0  0  0  0  0  0  0  0  0
  146.9041  140.7487  153.4854 C   0  0  0  0  0  0  0  0  0  0  0  0
  147.8398  139.8161  154.0160 O   0  0  0  0  0  0  0  0  0  0  0  0
  149.5838  138.0367  154.7802 N   0  0  0  0  0  0  0  0  0  0  0  0
  150.7215  137.3081  155.1570 O   0  0  0  0  0  0  0  0  0  0  0  0
  152.7825  137.8270  155.1600 H   0  0  0  0  0  0  0  0  0  0  0  0
  149.4079  140.4675  152.8443 H   0  0  0  0  0  0  0  0  0  0  0  0
  149.1546  141.4125  155.7562 H   0  0  0  0  0  0  0  0  0  0  0  0
  150.3372  141.9935  154.6040 H   0  0  0  0  0  0  0  0  0  0  0  0
  148.4232  143.4355  154.7870 H   0  0  0  0  0  0  0  0  0  0  0  0
  146.6954  141.9129  155.2981 H   0  0  0  0  0  0  0  0  0  0  0  0
  146.3015  142.8034  153.8441 H   0  0  0  0  0  0  0  0  0  0  0  0
  145.9013  140.3313  153.5758 H   0  0  0  0  0  0  0  0  0  0  0  0
  147.0883  140.9047  152.4212 H   0  0  0  0  0  0  0  0  0  0  0  0
  1 11  1  0  0  0  0
  1  2  2  0  0  0  0
  1 12  1  0  0  0  0
  2  3  1  0  0  0  0
  3  4  1  0  0  0  0
  3 10  2  0  0  0  0
  4  9  1  0  0  0  0
  4  5  1  0  0  0  0
  4 13  1  0  0  0  0
  5  6  1  0  0  0  0
  5 14  1  0  0  0  0
  5 15  1  0  0  0  0
  6  7  1  0  0  0  0
  6 16  1  0  0  0  0
  7  8  1  0  0  0  0
  7 17  1  0  0  0  0
  7 18  1  0  0  0  0
  8  9  1  0  0  0  0
  8 19  1  0  0  0  0
  8 20  1  0  0  0  0
 10 11  1  0  0  0  0
M  END
> <s_m_source_file>
AV-unprocessed.smi

> <i_m_source_file_index>
2566

> <i_lp_mmshare_version>
43012

> <i_f3d_flags>
0

> <s_epik_input>
bjFvW2NIXW5jMVtDQEBIXTJbQ0gyXVtOSF1bQ0gyXVtDSDJdTzI=

> <s_epik_cmdline>
J2VwaWtfcHl0aG9uJywgJy1waCcsICc3LjAnLCAnLXRuJywgJzgnLCAnLW1hJywgJzIwMCcsICctbWV0YWxfYmluZGluZycsICctaW1hZScsICc8aW5maWxlLm1hZT4nLCAnLW9tYWUnLCAnPG91dGZpbGUubWFlPic=

> <r_lp_tautomer_probability>
1

> <r_epik_Ionization_Penalty>
0.861744

> <r_epik_Ionization_Penalty_Charging>
0

> <r_epik_Ionization_Penalty_Neutral>
0.861744

> <r_epik_State_Penalty>
0.898282

> <r_epik_Charging_Adjusted_Penalty>
0.898282

> <i_epik_Tot_Q>
0

> <i_epik_Tot_abs_Q>
0

> <r_epik_Metal_State_Penalty>
0.898282

> <b_epik_Metal_Only>
0

> <s_lp_Force_Field>
OPLS_2005

> <r_lp_Energy>
10.916

> <b_lp_Chiralities_Consistent>
1

> <s_lp_Variant>
AV-unprocessed.smi:2566-3

> <Gold.Version>
5.8.1

> <Gold.Id.Protein>
6NUR|6NUR_protein|mol2

> <Gold.PLP.Fitness>
25.1374

> <Gold.PLP.PLP>
-19.1769

> <Gold.PLP.part.hbond>
-3.4666

> <Gold.PLP.part.metal>
0.0000

> <Gold.PLP.part.buried>
0.7907

> <Gold.PLP.part.nonpolar>
-17.3328

> <Gold.PLP.part.repulsive>
0.5371

> <Gold.PLP.ligand.clash>
0.0000

> <Gold.PLP.ligand.torsion>
0.0264

> <Gold.PLP.Chemscore.Hbond>
2.0000

> <Gold.PLP.Chemscore.CHOScore>
0.0000

> <Gold.PLP.Chemscore.Metal>
0.0000

> <Gold.Chemscore.Hbonds>
donor molecule, donor type, donor heavy atom, donor atom, acceptor molecule, acceptor atom, score
      L1  H     6    16       P1  8028  1.00
      P1  H  7989  7998       L1     2  1.00

> <Gold.PLP.Chemscore.Internal.Correction>
0.0132

> <Gold.Rescore>
     Score         DG    S(hbond)    S(metal)    S(lipo)     H(rot)  DE(clash)    DE(int)     intcor
     11.38     -11.47       1.67        0.00      25.49       1.00       0.08       0.01       ----

> <Gold.Chemscore.Fitness>
11.3806

> <Gold.Chemscore.DG>
-11.4691

> <Gold.Chemscore.ZeroCoef>
-5.4800

> <Gold.Chemscore.Hbond>
1.6665

> <Gold.Chemscore.Metal>
0.0000

> <Gold.Chemscore.Lipo>
25.4939

> <Gold.Chemscore.Internal_Hbond>
0.0000

> <Gold.Chemscore.DEClash>
0.0804

> <Gold.Chemscore.DEInternal>
0.0080

> <Gold.Chemscore.Rot>
1.0000

> <Gold.Chemscore.Internal.Correction>
   9.000000E+99

> <Gold.Chemscore.Hbonds>
donor molecule, donor type, donor heavy atom, donor atom, acceptor molecule, acceptor atom, score
      L1  H     6    16       P1  8028  0.97
      P1  H  7989  7998       L1     2  0.25

> <Gold.Chemscore.Hbond.Weighted>
-5.5663

> <Gold.Chemscore.Metal.Weighted>
-0.0000

> <Gold.Chemscore.Lipo.Weighted>
-2.9828

> <Gold.Chemscore.Internal_Hbond.Weighted>
0.0000

> <Gold.Chemscore.DEClash.Weighted>
0.0804

> <Gold.Chemscore.DEInternal.Weighted>
0.0080

> <Gold.Chemscore.Rot.Weighted>
2.5600

> <Gold.Chemscore.Internal.Correction.Weighted>
   9.000000E+99

> <Gold.Protein.RotatedTorsions>
[ 6907 6896 6895 6894 ] final -156.49 input  -60.11 | X-H torsion
[ 7974 7965 7964 7962 ] final  -88.11 input  175.53 | X-H torsion
[ 8008 7997 7996 7995 ] final -165.17 input   59.86 | X-H torsion
[ 10167 10162 10161 10158 ] final -118.28 input  -65.29 | X-H torsion
[ 10718 10713 10712 10709 ] final  -44.82 input   66.30 | X-H torsion
[ 10763 10752 10751 10750 ] final  -84.66 input  -60.55 | X-H torsion
[ 11005 11000 10999 10996 ] final  166.40 input  -57.11 | X-H torsion

> <Gold.Protein.ActiveResidues>
 VAL166  LYS551  ARG553  GLY616  TRP617  ASP618  TYR619  PRO620  LYS621  CYS622 
 ASP623  PHE694  ASN695  SER759  ASP760  ASP761  ALA762  ILE779  LEU786  VAL792 
 PHE793  MET794  SER795  GLU796  ALA797  LYS798  CYS799  TRP800  GLU811  SER814 

> <Gold.Protein.RotatedAtoms>
  151.2884  133.4176  159.2631 H   0  0  0  0  0  0  0  0  0  0  0  0  # atno 6907 bound_to 6896
  151.0299  134.9531  159.8115 H   0  0  0  0  0  0  0  0  0  0  0  0  # atno 6908 bound_to 6896
  152.5343  134.2846  159.9072 H   0  0  0  0  0  0  0  0  0  0  0  0  # atno 6909 bound_to 6896
  145.4576  140.9561  143.1988 H   0  0  0  0  0  0  0  0  0  0  0  0  # atno 7974 bound_to 7965
  155.8461  140.0956  157.1704 H   0  0  0  0  0  0  0  0  0  0  0  0  # atno 8008 bound_to 7997
  154.3983  140.1392  156.3849 H   0  0  0  0  0  0  0  0  0  0  0  0  # atno 8009 bound_to 7997
  155.8012  140.3453  155.5406 H   0  0  0  0  0  0  0  0  0  0  0  0  # atno 8010 bound_to 7997
  140.0592  143.4985  152.2041 H   0  0  0  0  0  0  0  0  0  0  0  0  # atno 10167 bound_to 10162
  156.2347  130.4175  149.8833 H   0  0  0  0  0  0  0  0  0  0  0  0  # atno 10718 bound_to 10713
  154.6021  135.5513  153.7385 H   0  0  0  0  0  0  0  0  0  0  0  0  # atno 10763 bound_to 10752
  153.0159  135.6369  154.1700 H   0  0  0  0  0  0  0  0  0  0  0  0  # atno 10764 bound_to 10752
  154.1639  135.2896  155.3080 H   0  0  0  0  0  0  0  0  0  0  0  0  # atno 10765 bound_to 10752
  140.2660  134.7864  157.3633 H   0  0  0  0  0  0  0  0  0  0  0  0  # atno 11005 bound_to 11000
  144.8023  139.6118  143.7066 LP  0  0  0  0  0  0  0  0  0  0  0  0  # atno 17320 bound_to 7965
  146.2469  139.6118  142.9453 LP  0  0  0  0  0  0  0  0  0  0  0  0  # atno 17321 bound_to 7965
  139.5904  144.7548  151.3414 LP  0  0  0  0  0  0  0  0  0  0  0  0  # atno 17342 bound_to 10162
  140.7180  143.7213  150.7693 LP  0  0  0  0  0  0  0  0  0  0  0  0  # atno 17343 bound_to 10162
  156.6435  130.8714  151.3518 LP  0  0  0  0  0  0  0  0  0  0  0  0  # atno 17370 bound_to 10713
  157.7149  130.9484  150.1218 LP  0  0  0  0  0  0  0  0  0  0  0  0  # atno 17371 bound_to 10713
  140.1419  134.4961  155.8025 LP  0  0  0  0  0  0  0  0  0  0  0  0  # atno 17394 bound_to 11000
  141.2184  133.6828  156.7225 LP  0  0  0  0  0  0  0  0  0  0  0  0  # atno 17395 bound_to 11000

$$$$
