AV-unprocessed.smi:83|AV-procd|sdf|807|dock6
  -GOLD-   2262017203D 1   1.00000     0.00000
 Structure written by MMmdl.
 56 59  0  0  0  0  0  0  0  0  1 V2000
  143.3369  132.7487  151.0080 C   0  0  0  0  0  0  0  0  0  0  0  0
  143.2283  133.9037  152.0051 C   0  0  0  0  0  0  0  0  0  0  0  0
  142.2948  133.9146  152.8074 O   0  0  0  0  0  0  0  0  0  0  0  0
  144.1630  134.8747  151.9660 N   0  0  0  0  0  0  0  0  0  0  0  0
  145.3060  134.9247  151.0558 C   0  0  0  0  0  0  0  0  0  0  0  0
  146.1610  136.0986  151.5375 C   0  0  0  0  0  0  0  0  0  0  0  0
  145.1671  137.0194  152.2374 C   0  0  2  0  0  0  0  0  0  0  0  0
  145.8150  137.9944  153.2409 C   0  0  0  0  0  0  0  0  0  0  0  0
  146.7982  138.8808  152.6152 N   0  0  0  0  0  0  0  0  0  0  0  0
  146.7515  139.0484  151.1684 C   0  0  0  0  0  0  0  0  0  0  0  0
  147.4066  139.8279  153.3806 C   0  0  0  0  0  0  0  0  0  0  0  0
  146.7955  141.0365  153.5000 N   0  0  0  0  0  0  0  0  0  0  0  0
  147.3478  142.0132  154.2239 C   0  0  0  0  0  0  0  0  0  0  0  0
  148.4949  142.0001  154.9027 N   0  0  0  0  0  0  0  0  0  0  0  0
  149.1192  140.7938  154.7892 C   0  0  0  0  0  0  0  0  0  0  0  0
  148.6517  139.6609  154.0612 C   0  0  0  0  0  0  0  0  0  0  0  0
  149.5744  138.6253  154.1780 N   0  0  0  0  0  0  0  0  0  0  0  0
  150.5208  139.1130  154.9320 C   0  0  0  0  0  0  0  0  0  0  0  0
  150.3278  140.4111  155.3413 N   0  0  0  0  0  0  0  0  0  0  0  0
  151.2148  141.2047  156.1724 C   0  0  0  0  0  0  0  0  0  0  0  0
  150.5149  141.7345  157.4380 C   0  0  1  0  0  0  0  0  0  0  0  0
  150.0497  140.6613  158.2356 O   0  0  0  0  0  0  0  0  0  0  0  0
  151.4125  142.6777  158.2639 C   0  0  1  0  0  0  0  0  0  0  0  0
  151.7966  144.0116  157.6012 C   0  0  0  0  0  0  0  0  0  0  0  0
  151.5452  145.0455  158.6886 C   0  0  0  0  0  0  0  0  0  0  0  0
  151.4329  144.2100  159.9591 C   0  0  0  0  0  0  0  0  0  0  0  0
  150.8091  143.0209  159.5053 O   0  0  0  0  0  0  0  0  0  0  0  0
  144.1599  136.0379  152.8479 C   0  0  0  0  0  0  0  0  0  0  0  0
  143.3591  133.1219  149.9838 H   0  0  0  0  0  0  0  0  0  0  0  0
  142.4819  132.0781  151.1018 H   0  0  0  0  0  0  0  0  0  0  0  0
  144.2413  132.1676  151.1895 H   0  0  0  0  0  0  0  0  0  0  0  0
  145.8777  133.9957  151.0582 H   0  0  0  0  0  0  0  0  0  0  0  0
  144.9481  135.1049  150.0411 H   0  0  0  0  0  0  0  0  0  0  0  0
  146.9028  135.7393  152.2525 H   0  0  0  0  0  0  0  0  0  0  0  0
  146.6937  136.5922  150.7241 H   0  0  0  0  0  0  0  0  0  0  0  0
  144.6547  137.5920  151.4624 H   0  0  0  0  0  0  0  0  0  0  0  0
  145.0466  138.5573  153.7709 H   0  0  0  0  0  0  0  0  0  0  0  0
  146.3301  137.4187  154.0104 H   0  0  0  0  0  0  0  0  0  0  0  0
  147.7190  139.3683  150.7803 H   0  0  0  0  0  0  0  0  0  0  0  0
  145.9977  139.7844  150.8875 H   0  0  0  0  0  0  0  0  0  0  0  0
  146.4975  138.1057  150.6835 H   0  0  0  0  0  0  0  0  0  0  0  0
  146.7917  142.9382  154.2627 H   0  0  0  0  0  0  0  0  0  0  0  0
  151.3910  138.5366  155.2110 H   0  0  0  0  0  0  0  0  0  0  0  0
  152.0808  140.5964  156.4378 H   0  0  0  0  0  0  0  0  0  0  0  0
  151.5890  142.0351  155.5724 H   0  0  0  0  0  0  0  0  0  0  0  0
  149.6330  142.2996  157.1341 H   0  0  0  0  0  0  0  0  0  0  0  0
  150.3341  139.8507  157.8421 H   0  0  0  0  0  0  0  0  0  0  0  0
  152.3342  142.1463  158.5080 H   0  0  0  0  0  0  0  0  0  0  0  0
  152.8467  143.9975  157.3065 H   0  0  0  0  0  0  0  0  0  0  0  0
  151.2109  144.2378  156.7099 H   0  0  0  0  0  0  0  0  0  0  0  0
  152.3281  145.8021  158.7484 H   0  0  0  0  0  0  0  0  0  0  0  0
  150.5986  145.5536  158.5003 H   0  0  0  0  0  0  0  0  0  0  0  0
  152.4197  143.9757  160.3619 H   0  0  0  0  0  0  0  0  0  0  0  0
  150.8488  144.7008  160.7378 H   0  0  0  0  0  0  0  0  0  0  0  0
  143.1692  136.4883  152.9305 H   0  0  0  0  0  0  0  0  0  0  0  0
  144.4729  135.7202  153.8436 H   0  0  0  0  0  0  0  0  0  0  0  0
  1  2  1  0  0  0  0
  1 29  1  0  0  0  0
  1 30  1  0  0  0  0
  1 31  1  0  0  0  0
  2  3  2  0  0  0  0
  2  4  1  0  0  0  0
  4 28  1  0  0  0  0
  4  5  1  0  0  0  0
  5  6  1  0  0  0  0
  5 32  1  0  0  0  0
  5 33  1  0  0  0  0
  6  7  1  0  0  0  0
  6 34  1  0  0  0  0
  6 35  1  0  0  0  0
  7  8  1  0  0  0  0
  7 28  1  0  0  0  0
  7 36  1  0  0  0  0
  8  9  1  0  0  0  0
  8 37  1  0  0  0  0
  8 38  1  0  0  0  0
  9 10  1  0  0  0  0
  9 11  1  0  0  0  0
 10 39  1  0  0  0  0
 10 40  1  0  0  0  0
 10 41  1  0  0  0  0
 11 16  1  0  0  0  0
 11 12  2  0  0  0  0
 12 13  1  0  0  0  0
 13 14  2  0  0  0  0
 13 42  1  0  0  0  0
 14 15  1  0  0  0  0
 15 19  1  0  0  0  0
 15 16  2  0  0  0  0
 16 17  1  0  0  0  0
 17 18  2  0  0  0  0
 18 19  1  0  0  0  0
 18 43  1  0  0  0  0
 19 20  1  0  0  0  0
 20 21  1  0  0  0  0
 20 44  1  0  0  0  0
 20 45  1  0  0  0  0
 21 22  1  0  0  0  0
 21 23  1  0  0  0  0
 21 46  1  0  0  0  0
 22 47  1  0  0  0  0
 23 27  1  0  0  0  0
 23 24  1  0  0  0  0
 23 48  1  0  0  0  0
 24 25  1  0  0  0  0
 24 49  1  0  0  0  0
 24 50  1  0  0  0  0
 25 26  1  0  0  0  0
 25 51  1  0  0  0  0
 25 52  1  0  0  0  0
 26 27  1  0  0  0  0
 26 53  1  0  0  0  0
 26 54  1  0  0  0  0
 28 55  1  0  0  0  0
 28 56  1  0  0  0  0
M  END
> <s_m_source_file>
AV-unprocessed.smi

> <i_m_source_file_index>
83

> <i_lp_mmshare_version>
43012

> <i_f3d_flags>
0

> <s_epik_input>
W0NIM11DKD1PKU4xW0NIMl1bQ0gyXVtDQEhdKFtDSDJdMSlbQ0gyXU4oW0NIM10pYyhuW2NIXW4yKWMoYzIzKW5bY0hdbjNbQ0gyXVtDQEhdKFtPSF0pW0NAQEhdNFtDSDJdW0NIMl1bQ0gyXU80

> <s_epik_cmdline>
J2VwaWtfcHl0aG9uJywgJy1waCcsICc3LjAnLCAnLXRuJywgJzgnLCAnLW1hJywgJzIwMCcsICctbWV0YWxfYmluZGluZycsICctaW1hZScsICc8aW5maWxlLm1hZT4nLCAnLW9tYWUnLCAnPG91dGZpbGUubWFlPic=

> <r_lp_tautomer_probability>
1

> <r_epik_Ionization_Penalty>
0.00109752

> <r_epik_Ionization_Penalty_Charging>
0

> <r_epik_Ionization_Penalty_Neutral>
0.00109752

> <r_epik_State_Penalty>
0.000634803

> <r_epik_Charging_Adjusted_Penalty>
0.000634803

> <i_epik_Tot_Q>
0

> <i_epik_Tot_abs_Q>
0

> <r_epik_Metal_State_Penalty>
-0

> <b_epik_Metal_Only>
0

> <s_lp_Force_Field>
OPLS_2005

> <r_lp_Energy>
54.4429

> <b_lp_Chiralities_Consistent>
1

> <s_lp_Variant>
AV-unprocessed.smi:83-8

> <Gold.Version>
5.8.1

> <Gold.Id.Protein>
6NUR|6NUR_protein|mol2

> <Gold.PLP.Fitness>
47.5852

> <Gold.PLP.PLP>
-50.3773

> <Gold.PLP.part.hbond>
-0.7306

> <Gold.PLP.part.metal>
0.0000

> <Gold.PLP.part.buried>
0.3317

> <Gold.PLP.part.nonpolar>
-52.8321

> <Gold.PLP.part.repulsive>
3.7108

> <Gold.PLP.ligand.clash>
0.0000

> <Gold.PLP.ligand.torsion>
1.6467

> <Gold.PLP.Chemscore.Hbond>
0.0000

> <Gold.PLP.Chemscore.CHOScore>
0.0000

> <Gold.PLP.Chemscore.Metal>
0.0000

> <Gold.PLP.Chemscore.Internal.Correction>
0.5013

> <Gold.Rescore>
     Score         DG    S(hbond)    S(metal)    S(lipo)     H(rot)  DE(clash)    DE(int)     intcor
      6.01     -11.65       0.00        0.00     109.94       2.62       3.07       2.57       ----

> <Gold.Chemscore.Fitness>
6.0068

> <Gold.Chemscore.DG>
-11.6482

> <Gold.Chemscore.ZeroCoef>
-5.4800

> <Gold.Chemscore.Hbond>
0.0000

> <Gold.Chemscore.Metal>
0.0000

> <Gold.Chemscore.Lipo>
109.9406

> <Gold.Chemscore.Internal_Hbond>
0.0000

> <Gold.Chemscore.DEClash>
3.0695

> <Gold.Chemscore.DEInternal>
2.5719

> <Gold.Chemscore.Rot>
2.6152

> <Gold.Chemscore.Internal.Correction>
   9.000000E+99

> <Gold.Chemscore.Hbond.Weighted>
-0.0000

> <Gold.Chemscore.Metal.Weighted>
-0.0000

> <Gold.Chemscore.Lipo.Weighted>
-12.8630

> <Gold.Chemscore.Internal_Hbond.Weighted>
0.0000

> <Gold.Chemscore.DEClash.Weighted>
3.0695

> <Gold.Chemscore.DEInternal.Weighted>
2.5719

> <Gold.Chemscore.Rot.Weighted>
6.6949

> <Gold.Chemscore.Internal.Correction.Weighted>
   9.000000E+99

> <Gold.Protein.RotatedTorsions>
[ 6907 6896 6895 6894 ] final  -55.44 input  -60.11 | X-H torsion
[ 7974 7965 7964 7962 ] final  -80.07 input  175.53 | X-H torsion
[ 8008 7997 7996 7995 ] final  -92.53 input   59.86 | X-H torsion
[ 10167 10162 10161 10158 ] final   50.12 input  -65.29 | X-H torsion
[ 10718 10713 10712 10709 ] final  -90.33 input   66.30 | X-H torsion
[ 10763 10752 10751 10750 ] final  -92.32 input  -60.55 | X-H torsion
[ 11005 11000 10999 10996 ] final  -48.23 input  -57.11 | X-H torsion

> <Gold.Protein.ActiveResidues>
 VAL166  LYS551  ARG553  GLY616  TRP617  ASP618  TYR619  PRO620  LYS621  CYS622 
 ASP623  PHE694  ASN695  SER759  ASP760  ASP761  ALA762  ILE779  LEU786  VAL792 
 PHE793  MET794  SER795  GLU796  ALA797  LYS798  CYS799  TRP800  GLU811  SER814 

> <Gold.Protein.RotatedAtoms>
  150.8252  134.7479  159.6806 H   0  0  0  0  0  0  0  0  0  0  0  0  # atno 6907 bound_to 6896
  152.4363  134.5676  159.9922 H   0  0  0  0  0  0  0  0  0  0  0  0  # atno 6908 bound_to 6896
  151.5850  133.3335  159.3052 H   0  0  0  0  0  0  0  0  0  0  0  0  # atno 6909 bound_to 6896
  145.5648  140.9476  143.1428 H   0  0  0  0  0  0  0  0  0  0  0  0  # atno 7974 bound_to 7965
  154.7242  140.0508  157.0668 H   0  0  0  0  0  0  0  0  0  0  0  0  # atno 8008 bound_to 7997
  155.0387  140.3166  155.4713 H   0  0  0  0  0  0  0  0  0  0  0  0  # atno 8009 bound_to 7997
  156.2824  140.2137  156.5510 H   0  0  0  0  0  0  0  0  0  0  0  0  # atno 8010 bound_to 7997
  140.2757  144.3214  150.6277 H   0  0  0  0  0  0  0  0  0  0  0  0  # atno 10167 bound_to 10162
  155.9987  130.4905  150.5306 H   0  0  0  0  0  0  0  0  0  0  0  0  # atno 10718 bound_to 10713
  154.6849  135.5235  153.8313 H   0  0  0  0  0  0  0  0  0  0  0  0  # atno 10763 bound_to 10752
  153.0591  135.6561  154.0516 H   0  0  0  0  0  0  0  0  0  0  0  0  # atno 10764 bound_to 10752
  154.0398  135.2978  155.3336 H   0  0  0  0  0  0  0  0  0  0  0  0  # atno 10765 bound_to 10752
  141.0688  133.6685  156.3411 H   0  0  0  0  0  0  0  0  0  0  0  0  # atno 11005 bound_to 11000
  144.7466  139.7305  143.7290 LP  0  0  0  0  0  0  0  0  0  0  0  0  # atno 17320 bound_to 7965
  146.1826  139.5026  142.9857 LP  0  0  0  0  0  0  0  0  0  0  0  0  # atno 17321 bound_to 7965
  140.5853  143.2170  151.7354 LP  0  0  0  0  0  0  0  0  0  0  0  0  # atno 17342 bound_to 10162
  139.4976  144.4020  152.0171 LP  0  0  0  0  0  0  0  0  0  0  0  0  # atno 17343 bound_to 10162
  157.3255  131.0690  151.1900 LP  0  0  0  0  0  0  0  0  0  0  0  0  # atno 17370 bound_to 10713
  157.2798  130.6744  149.6060 LP  0  0  0  0  0  0  0  0  0  0  0  0  # atno 17371 bound_to 10713
  140.5716  134.5834  157.5459 LP  0  0  0  0  0  0  0  0  0  0  0  0  # atno 17394 bound_to 11000
  139.9503  134.7629  156.0464 LP  0  0  0  0  0  0  0  0  0  0  0  0  # atno 17395 bound_to 11000

$$$$
