AV-unprocessed.smi:2010|AV-procd|sdf|8151|dock8
  -GOLD-   2272010393D 1   1.00000     0.00000
 Structure written by MMmdl.
 40 41  0  0  0  0  0  0  0  0  2 V2000
  151.3913  145.2892  160.0351 C   0  0  0  0  0  0  0  0  0  0  0  0
  151.8661  144.1853  159.0797 C   0  0  0  0  0  0  0  0  0  0  0  0
  150.7751  143.7973  158.0723 C   0  0  0  0  0  0  0  0  0  0  0  0
  151.2566  142.6869  157.1249 C   0  0  0  0  0  0  0  0  0  0  0  0
  151.7335  141.5051  157.8746 N   0  0  0  0  0  0  0  0  0  0  0  0
  151.8541  139.9964  157.0117 S   0  0  0  0  0  0  0  0  0  0  0  0
  151.8092  140.3644  155.5881 O   0  0  0  0  0  0  0  0  0  0  0  0
  153.0694  139.3184  157.4958 O   0  0  0  0  0  0  0  0  0  0  0  0
  150.4647  139.3109  157.5226 N   0  5  0  0  0  0  0  0  0  0  0  0
  149.1656  139.6623  156.9475 C   0  0  2  0  0  0  0  0  0  0  0  0
  148.0781  138.8180  157.6305 C   0  0  0  0  0  0  0  0  0  0  0  0
  149.1842  139.5230  155.3997 C   0  0  0  0  0  0  0  0  0  0  0  0
  148.2570  140.3887  154.6747 N   0  0  0  0  0  0  0  0  0  0  0  0
  148.1259  141.7627  154.7477 C   0  0  0  0  0  0  0  0  0  0  0  0
  147.1505  142.1314  153.8665 C   0  0  0  0  0  0  0  0  0  0  0  0
  146.7470  140.9013  153.2772 C   0  0  0  0  0  0  0  0  0  0  0  0
  147.4179  139.8650  153.7507 N   0  0  0  0  0  0  0  0  0  0  0  0
  152.7688  141.8155  158.8789 C   0  0  0  0  0  0  0  0  0  0  0  0
  152.3017  142.9235  159.8379 C   0  0  0  0  0  0  0  0  0  0  0  0
  150.5268  144.9663  160.6160 H   0  0  0  0  0  0  0  0  0  0  0  0
  151.1070  146.1871  159.4857 H   0  0  0  0  0  0  0  0  0  0  0  0
  152.1791  145.5668  160.7359 H   0  0  0  0  0  0  0  0  0  0  0  0
  152.7253  144.5678  158.5268 H   0  0  0  0  0  0  0  0  0  0  0  0
  149.8821  143.4618  158.6013 H   0  0  0  0  0  0  0  0  0  0  0  0
  150.4771  144.6687  157.4886 H   0  0  0  0  0  0  0  0  0  0  0  0
  150.4474  142.4037  156.4531 H   0  0  0  0  0  0  0  0  0  0  0  0
  152.0671  143.0534  156.4942 H   0  0  0  0  0  0  0  0  0  0  0  0
  148.9204  140.7036  157.1569 H   0  0  0  0  0  0  0  0  0  0  0  0
  147.0956  139.0340  157.2103 H   0  0  0  0  0  0  0  0  0  0  0  0
  148.0313  139.0315  158.6988 H   0  0  0  0  0  0  0  0  0  0  0  0
  148.2627  137.7491  157.5177 H   0  0  0  0  0  0  0  0  0  0  0  0
  150.1867  139.7613  155.0428 H   0  0  0  0  0  0  0  0  0  0  0  0
  149.0121  138.4890  155.1012 H   0  0  0  0  0  0  0  0  0  0  0  0
  148.7292  142.3552  155.4196 H   0  0  0  0  0  0  0  0  0  0  0  0
  146.7833  143.1277  153.6707 H   0  0  0  0  0  0  0  0  0  0  0  0
  145.9957  140.7320  152.5201 H   0  0  0  0  0  0  0  0  0  0  0  0
  153.0027  140.9239  159.4597 H   0  0  0  0  0  0  0  0  0  0  0  0
  153.6845  142.1106  158.3652 H   0  0  0  0  0  0  0  0  0  0  0  0
  153.1054  143.1644  160.5345 H   0  0  0  0  0  0  0  0  0  0  0  0
  151.4722  142.5509  160.4410 H   0  0  0  0  0  0  0  0  0  0  0  0
  1  2  1  0  0  0  0
  1 20  1  0  0  0  0
  1 21  1  0  0  0  0
  1 22  1  0  0  0  0
  2 19  1  0  0  0  0
  2  3  1  0  0  0  0
  2 23  1  0  0  0  0
  3  4  1  0  0  0  0
  3 24  1  0  0  0  0
  3 25  1  0  0  0  0
  4  5  1  0  0  0  0
  4 26  1  0  0  0  0
  4 27  1  0  0  0  0
  5  6  1  0  0  0  0
  5 18  1  0  0  0  0
  6  7  2  0  0  0  0
  6  8  2  0  0  0  0
  6  9  1  0  0  0  0
  9 10  1  0  0  0  0
 10 11  1  0  0  0  0
 10 12  1  0  0  0  0
 10 28  1  0  0  0  0
 11 29  1  0  0  0  0
 11 30  1  0  0  0  0
 11 31  1  0  0  0  0
 12 13  1  0  0  0  0
 12 32  1  0  0  0  0
 12 33  1  0  0  0  0
 13 17  1  0  0  0  0
 13 14  1  0  0  0  0
 14 15  2  0  0  0  0
 14 34  1  0  0  0  0
 15 16  1  0  0  0  0
 15 35  1  0  0  0  0
 16 17  2  0  0  0  0
 16 36  1  0  0  0  0
 18 19  1  0  0  0  0
 18 37  1  0  0  0  0
 18 38  1  0  0  0  0
 19 39  1  0  0  0  0
 19 40  1  0  0  0  0
M  CHG  1   9  -1
M  END
> <s_m_source_file>
AV-unprocessed.smi

> <i_m_source_file_index>
2010

> <i_lp_mmshare_version>
43012

> <i_f3d_flags>
0

> <s_epik_input>
W0NIM11bQ0hdMVtDSDJdW0NIMl1OKFtDSDJdW0NIMl0xKVMoPU8pKD1PKVtOSF1bQ0BIXShbQ0gzXSlbQ0gyXW4yW2NIXVtjSF1bY0hdbjI=

> <s_epik_cmdline>
J2VwaWtfcHl0aG9uJywgJy1waCcsICc3LjAnLCAnLXRuJywgJzgnLCAnLW1hJywgJzIwMCcsICctbWV0YWxfYmluZGluZycsICctaW1hZScsICc8aW5maWxlLm1hZT4nLCAnLW9tYWUnLCAnPG91dGZpbGUubWFlPic=

> <r_lp_tautomer_probability>
1

> <r_epik_Ionization_Penalty>
1.75622

> <r_epik_Ionization_Penalty_Charging>
1.7562

> <r_epik_Ionization_Penalty_Neutral>
2.39925e-05

> <r_epik_State_Penalty>
1.86645

> <r_epik_Charging_Adjusted_Penalty>
3.62264

> <i_epik_Tot_Q>
-1

> <i_epik_Tot_abs_Q>
1

> <r_epik_Metal_State_Penalty>
0.460135

> <b_epik_Metal_Only>
0

> <s_lp_Force_Field>
OPLS_2005

> <r_lp_Energy>
7.98706

> <b_lp_Chiralities_Consistent>
1

> <s_lp_Variant>
AV-unprocessed.smi:2010-3

> <Gold.Version>
5.8.1

> <Gold.Id.Protein>
6NUR|6NUR_protein|mol2

> <Gold.PLP.Fitness>
43.8185

> <Gold.PLP.PLP>
-34.2418

> <Gold.PLP.part.hbond>
-2.0000

> <Gold.PLP.part.metal>
0.0000

> <Gold.PLP.part.buried>
-4.2020

> <Gold.PLP.part.nonpolar>
-28.0990

> <Gold.PLP.part.repulsive>
0.1816

> <Gold.PLP.ligand.clash>
0.0000

> <Gold.PLP.ligand.torsion>
1.2858

> <Gold.PLP.Chemscore.Hbond>
1.4914

> <Gold.PLP.Chemscore.CHOScore>
1.9843

> <Gold.PLP.Chemscore.Metal>
0.0000

> <Gold.Chemscore.Hbonds>
donor molecule, donor type, donor heavy atom, donor atom, acceptor molecule, acceptor atom, score
      P1  H  7989  7998       L1     7  0.55
      P1  H  7997  8008       L1     8  0.98
      L1  C    14    34       P1  8028  0.99
      L1  C    16    36       P1 10175  1.00

> <Gold.PLP.Chemscore.Internal.Correction>
1.7213

> <Gold.Rescore>
     Score         DG    S(hbond)    S(metal)    S(lipo)     H(rot)  DE(clash)    DE(int)     intcor
     14.42     -17.13       1.50        0.00      90.45       1.54       0.09       2.62       ----

> <Gold.Chemscore.Fitness>
14.4189

> <Gold.Chemscore.DG>
-17.1339

> <Gold.Chemscore.ZeroCoef>
-5.4800

> <Gold.Chemscore.Hbond>
1.4993

> <Gold.Chemscore.Metal>
0.0000

> <Gold.Chemscore.Lipo>
90.4499

> <Gold.Chemscore.Internal_Hbond>
0.0000

> <Gold.Chemscore.DEClash>
0.0902

> <Gold.Chemscore.DEInternal>
2.6248

> <Gold.Chemscore.Rot>
1.5377

> <Gold.Chemscore.Internal.Correction>
   9.000000E+99

> <Gold.Chemscore.Hbonds>
donor molecule, donor type, donor heavy atom, donor atom, acceptor molecule, acceptor atom, score
      P1  H  7989  7998       L1     7  0.54
      P1  H  7997  8008       L1     8  0.90

> <Gold.Chemscore.Hbond.Weighted>
-5.0078

> <Gold.Chemscore.Metal.Weighted>
-0.0000

> <Gold.Chemscore.Lipo.Weighted>
-10.5826

> <Gold.Chemscore.Internal_Hbond.Weighted>
0.0000

> <Gold.Chemscore.DEClash.Weighted>
0.0902

> <Gold.Chemscore.DEInternal.Weighted>
2.6248

> <Gold.Chemscore.Rot.Weighted>
3.9365

> <Gold.Chemscore.Internal.Correction.Weighted>
   9.000000E+99

> <Gold.Protein.RotatedTorsions>
[ 6907 6896 6895 6894 ] final   51.36 input  -60.11 | X-H torsion
[ 7974 7965 7964 7962 ] final -167.24 input  175.53 | X-H torsion
[ 8008 7997 7996 7995 ] final  -93.84 input   59.86 | X-H torsion
[ 10167 10162 10161 10158 ] final  118.83 input  -65.29 | X-H torsion
[ 10718 10713 10712 10709 ] final   -9.25 input   66.30 | X-H torsion
[ 10763 10752 10751 10750 ] final  -85.08 input  -60.55 | X-H torsion
[ 11005 11000 10999 10996 ] final -130.28 input  -57.11 | X-H torsion

> <Gold.Protein.ActiveResidues>
 VAL166  LYS551  ARG553  GLY616  TRP617  ASP618  TYR619  PRO620  LYS621  CYS622 
 ASP623  PHE694  ASN695  SER759  ASP760  ASP761  ALA762  ILE779  LEU786  VAL792 
 PHE793  MET794  SER795  GLU796  ALA797  LYS798  CYS799  TRP800  GLU811  SER814 

> <Gold.Protein.RotatedAtoms>
  152.3118  134.7488  160.0334 H   0  0  0  0  0  0  0  0  0  0  0  0  # atno 6907 bound_to 6896
  151.7966  133.3360  159.3523 H   0  0  0  0  0  0  0  0  0  0  0  0  # atno 6908 bound_to 6896
  150.7324  134.5723  159.5941 H   0  0  0  0  0  0  0  0  0  0  0  0  # atno 6909 bound_to 6896
  144.7227  140.2548  143.6273 H   0  0  0  0  0  0  0  0  0  0  0  0  # atno 7974 bound_to 7965
  154.7408  140.0495  157.0809 H   0  0  0  0  0  0  0  0  0  0  0  0  # atno 8008 bound_to 7997
  155.0181  140.3144  155.4784 H   0  0  0  0  0  0  0  0  0  0  0  0  # atno 8009 bound_to 7997
  156.2864  140.2172  156.5298 H   0  0  0  0  0  0  0  0  0  0  0  0  # atno 8010 bound_to 7997
  139.6086  144.7076  151.2896 H   0  0  0  0  0  0  0  0  0  0  0  0  # atno 10167 bound_to 10162
  156.6908  130.5064  149.5944 H   0  0  0  0  0  0  0  0  0  0  0  0  # atno 10718 bound_to 10713
  154.6070  135.5497  153.7433 H   0  0  0  0  0  0  0  0  0  0  0  0  # atno 10763 bound_to 10752
  153.0179  135.6380  154.1633 H   0  0  0  0  0  0  0  0  0  0  0  0  # atno 10764 bound_to 10752
  154.1571  135.2899  155.3099 H   0  0  0  0  0  0  0  0  0  0  0  0  # atno 10765 bound_to 10752
  140.9360  134.1257  157.4193 H   0  0  0  0  0  0  0  0  0  0  0  0  # atno 11005 bound_to 11000
  145.8193  139.2036  143.1947 LP  0  0  0  0  0  0  0  0  0  0  0  0  # atno 17320 bound_to 7965
  146.0528  140.8051  142.9773 LP  0  0  0  0  0  0  0  0  0  0  0  0  # atno 17321 bound_to 7965
  140.7303  143.6884  150.7942 LP  0  0  0  0  0  0  0  0  0  0  0  0  # atno 17342 bound_to 10162
  140.0475  143.5283  152.2689 LP  0  0  0  0  0  0  0  0  0  0  0  0  # atno 17343 bound_to 10162
  156.1799  130.6492  151.0939 LP  0  0  0  0  0  0  0  0  0  0  0  0  # atno 17370 bound_to 10713
  157.7010  131.0776  150.6821 LP  0  0  0  0  0  0  0  0  0  0  0  0  # atno 17371 bound_to 10713
  139.8808  135.0021  156.6105 LP  0  0  0  0  0  0  0  0  0  0  0  0  # atno 17394 bound_to 11000
  140.7799  133.8668  155.8559 LP  0  0  0  0  0  0  0  0  0  0  0  0  # atno 17395 bound_to 11000

$$$$
