AV-unprocessed.smi:2895|AV-procd|sdf|11129|dock6
  -GOLD-   2272016 03D 1   1.00000     0.00000
 Structure written by MMmdl.
 53 56  0  0  0  0  0  0  0  0  2 V2000
  150.5139  136.7708  158.9818 O   0  0  0  0  0  0  0  0  0  0  0  0
  149.7910  137.7383  158.7378 C   0  0  0  0  0  0  0  0  0  0  0  0
  148.4656  137.7057  158.9654 N   0  0  0  0  0  0  0  0  0  0  0  0
  147.7299  136.5687  159.5067 C   0  0  0  0  0  0  0  0  0  0  0  0
  148.1918  136.2256  160.9314 C   0  0  0  0  0  0  0  0  0  0  0  0
  147.2089  135.3195  161.6465 C   0  0  0  0  0  0  0  0  0  0  0  0
  147.4962  133.9524  161.8374 C   0  0  0  0  0  0  0  0  0  0  0  0
  146.5492  133.1552  162.5113 C   0  0  0  0  0  0  0  0  0  0  0  0
  145.3791  133.6344  162.9861 N   0  0  0  0  0  0  0  0  0  0  0  0
  145.1122  134.9451  162.8011 C   0  0  0  0  0  0  0  0  0  0  0  0
  145.9899  135.8281  162.1405 C   0  0  0  0  0  0  0  0  0  0  0  0
  150.2637  138.9163  158.2477 N   0  0  0  0  0  0  0  0  0  0  0  0
  149.3799  139.9965  157.7493 C   0  0  0  0  0  0  0  0  0  0  0  0
  150.0606  140.9838  156.7860 C   0  0  0  0  0  0  0  0  0  0  0  0
  151.3750  141.4456  157.2873 N   0  3  0  0  0  0  0  0  0  0  0  0
  151.3342  142.3077  158.5110 C   0  0  1  0  0  0  0  0  0  0  0  0
  152.7491  142.5851  159.0849 C   0  0  0  0  0  0  0  0  0  0  0  0
  152.8048  144.1181  159.1868 C   0  0  2  0  0  0  0  0  0  0  0  0
  151.8442  144.6020  160.2866 C   0  0  0  0  0  0  0  0  0  0  0  0
  150.4634  144.3768  159.6463 C   0  0  0  0  0  0  0  0  0  0  0  0
  150.8139  143.7542  158.2803 C   0  0  1  0  0  0  0  0  0  0  0  0
  152.0761  144.5269  157.9145 C   0  0  0  0  0  0  0  0  0  0  0  0
  152.2639  140.2667  157.4142 C   0  0  0  0  0  0  0  0  0  0  0  0
  151.7080  139.2051  158.3831 C   0  0  0  0  0  0  0  0  0  0  0  0
  147.9282  138.5339  158.7541 H   0  0  0  0  0  0  0  0  0  0  0  0
  146.6572  136.7695  159.4896 H   0  0  0  0  0  0  0  0  0  0  0  0
  147.8953  135.7165  158.8469 H   0  0  0  0  0  0  0  0  0  0  0  0
  149.1661  135.7360  160.9021 H   0  0  0  0  0  0  0  0  0  0  0  0
  148.3234  137.1368  161.5167 H   0  0  0  0  0  0  0  0  0  0  0  0
  148.4194  133.5218  161.4782 H   0  0  0  0  0  0  0  0  0  0  0  0
  146.7369  132.1041  162.6736 H   0  0  0  0  0  0  0  0  0  0  0  0
  144.1705  135.3019  163.1916 H   0  0  0  0  0  0  0  0  0  0  0  0
  145.7314  136.8697  162.0190 H   0  0  0  0  0  0  0  0  0  0  0  0
  148.5138  139.5953  157.2212 H   0  0  0  0  0  0  0  0  0  0  0  0
  148.9890  140.5372  158.6123 H   0  0  0  0  0  0  0  0  0  0  0  0
  150.2240  140.4824  155.8309 H   0  0  0  0  0  0  0  0  0  0  0  0
  149.3964  141.8114  156.5471 H   0  0  0  0  0  0  0  0  0  0  0  0
  150.7154  141.8185  159.2640 H   0  0  0  0  0  0  0  0  0  0  0  0
  152.9103  142.0971  160.0470 H   0  0  0  0  0  0  0  0  0  0  0  0
  153.5374  142.2508  158.4093 H   0  0  0  0  0  0  0  0  0  0  0  0
  153.8167  144.5124  159.2849 H   0  0  0  0  0  0  0  0  0  0  0  0
  151.9685  144.0475  161.2176 H   0  0  0  0  0  0  0  0  0  0  0  0
  151.9989  145.6601  160.5024 H   0  0  0  0  0  0  0  0  0  0  0  0
  149.8223  143.7334  160.2501 H   0  0  0  0  0  0  0  0  0  0  0  0
  149.9460  145.3280  159.5144 H   0  0  0  0  0  0  0  0  0  0  0  0
  149.9941  143.8640  157.5742 H   0  0  0  0  0  0  0  0  0  0  0  0
  151.9171  145.6037  157.8348 H   0  0  0  0  0  0  0  0  0  0  0  0
  152.5567  144.1673  157.0032 H   0  0  0  0  0  0  0  0  0  0  0  0
  152.3751  139.8193  156.4253 H   0  0  0  0  0  0  0  0  0  0  0  0
  153.2713  140.5530  157.7139 H   0  0  0  0  0  0  0  0  0  0  0  0
  151.8835  139.5273  159.4104 H   0  0  0  0  0  0  0  0  0  0  0  0
  152.3054  138.3016  158.2481 H   0  0  0  0  0  0  0  0  0  0  0  0
  151.7682  142.0243  156.5587 H   0  0  0  0  0  0  0  0  0  0  0  0
  1  2  2  0  0  0  0
  2  3  1  0  0  0  0
  2 12  1  0  0  0  0
  3  4  1  0  0  0  0
  3 25  1  0  0  0  0
  4  5  1  0  0  0  0
  4 26  1  0  0  0  0
  4 27  1  0  0  0  0
  5  6  1  0  0  0  0
  5 28  1  0  0  0  0
  5 29  1  0  0  0  0
  6 11  1  0  0  0  0
  6  7  2  0  0  0  0
  7  8  1  0  0  0  0
  7 30  1  0  0  0  0
  8  9  2  0  0  0  0
  8 31  1  0  0  0  0
  9 10  1  0  0  0  0
 10 11  2  0  0  0  0
 10 32  1  0  0  0  0
 11 33  1  0  0  0  0
 12 24  1  0  0  0  0
 12 13  1  0  0  0  0
 13 14  1  0  0  0  0
 13 34  1  0  0  0  0
 13 35  1  0  0  0  0
 14 15  1  0  0  0  0
 14 36  1  0  0  0  0
 14 37  1  0  0  0  0
 15 16  1  0  0  0  0
 15 23  1  0  0  0  0
 15 53  1  0  0  0  0
 16 21  1  0  0  0  0
 16 17  1  0  0  0  0
 16 38  1  0  0  0  0
 17 18  1  0  0  0  0
 17 39  1  0  0  0  0
 17 40  1  0  0  0  0
 18 22  1  0  0  0  0
 18 19  1  0  0  0  0
 18 41  1  0  0  0  0
 19 20  1  0  0  0  0
 19 42  1  0  0  0  0
 19 43  1  0  0  0  0
 20 21  1  0  0  0  0
 20 44  1  0  0  0  0
 20 45  1  0  0  0  0
 21 22  1  0  0  0  0
 21 46  1  0  0  0  0
 22 47  1  0  0  0  0
 22 48  1  0  0  0  0
 23 24  1  0  0  0  0
 23 49  1  0  0  0  0
 23 50  1  0  0  0  0
 24 51  1  0  0  0  0
 24 52  1  0  0  0  0
M  CHG  1  15   1
M  END
> <s_m_source_file>
AV-unprocessed.smi

> <i_m_source_file_index>
2895

> <i_lp_mmshare_version>
43012

> <i_f3d_flags>
0

> <s_epik_input>
W0NIMl0xW0NIMl1bQ0BASF0oW0NIMl0yKVtDQEBIXShbQ0gyXVtDQEhdMTIpTihbQ0gyXVtDSDJdMylbQ0gyXVtDSDJdTjNDKD1PKVtOSF1bQ0gyXVtDSDJdYzRbY0hdW2NIXW5bY0hdW2NIXTQ=

> <s_epik_cmdline>
J2VwaWtfcHl0aG9uJywgJy1waCcsICc3LjAnLCAnLXRuJywgJzgnLCAnLW1hJywgJzIwMCcsICctbWV0YWxfYmluZGluZycsICctaW1hZScsICc8aW5maWxlLm1hZT4nLCAnLW9tYWUnLCAnPG91dGZpbGUubWFlPic=

> <r_epik_Ionization_Penalty>
0.0566172

> <r_epik_Ionization_Penalty_Charging>
0.00262064

> <r_epik_Ionization_Penalty_Neutral>
0.0539965

> <r_epik_State_Penalty>
0.0463959

> <r_epik_Charging_Adjusted_Penalty>
0.0490165

> <i_epik_Tot_Q>
1

> <i_epik_Tot_abs_Q>
1

> <r_epik_Metal_State_Penalty>
0.0424856

> <b_epik_Metal_Only>
0

> <s_lp_Force_Field>
OPLS_2005

> <r_lp_Energy>
101.263

> <b_lp_Chiralities_Consistent>
1

> <s_lp_Variant>
AV-unprocessed.smi:2895-2

> <Gold.Version>
5.8.1

> <Gold.Id.Protein>
6NUR|6NUR_protein|mol2

> <Gold.PLP.Fitness>
50.8433

> <Gold.PLP.PLP>
-48.8093

> <Gold.PLP.part.hbond>
-1.9182

> <Gold.PLP.part.metal>
0.0000

> <Gold.PLP.part.buried>
-7.8174

> <Gold.PLP.part.nonpolar>
-40.3538

> <Gold.PLP.part.repulsive>
0.3302

> <Gold.PLP.ligand.clash>
0.0000

> <Gold.PLP.ligand.torsion>
0.5495

> <Gold.PLP.Chemscore.Hbond>
1.0000

> <Gold.PLP.Chemscore.CHOScore>
0.0000

> <Gold.PLP.Chemscore.Metal>
0.0000

> <Gold.Chemscore.Hbonds>
donor molecule, donor type, donor heavy atom, donor atom, acceptor molecule, acceptor atom, score
      P1  H  6896  6909       L1     1  1.00

> <Gold.PLP.Chemscore.Internal.Correction>
0.1330

> <Gold.Rescore>
     Score         DG    S(hbond)    S(metal)    S(lipo)     H(rot)  DE(clash)    DE(int)     intcor
     20.47     -22.12       0.99        0.00     144.12       1.37       0.08       1.56       ----

> <Gold.Chemscore.Fitness>
20.4710

> <Gold.Chemscore.DG>
-22.1183

> <Gold.Chemscore.ZeroCoef>
-5.4800

> <Gold.Chemscore.Hbond>
0.9855

> <Gold.Chemscore.Metal>
0.0000

> <Gold.Chemscore.Lipo>
144.1177

> <Gold.Chemscore.Internal_Hbond>
0.0000

> <Gold.Chemscore.DEClash>
0.0833

> <Gold.Chemscore.DEInternal>
1.5640

> <Gold.Chemscore.Rot>
1.3731

> <Gold.Chemscore.Internal.Correction>
   9.000000E+99

> <Gold.Chemscore.Hbonds>
donor molecule, donor type, donor heavy atom, donor atom, acceptor molecule, acceptor atom, score
      P1  H  6896  6909       L1     1  0.94

> <Gold.Chemscore.Hbond.Weighted>
-3.2917

> <Gold.Chemscore.Metal.Weighted>
-0.0000

> <Gold.Chemscore.Lipo.Weighted>
-16.8618

> <Gold.Chemscore.Internal_Hbond.Weighted>
0.0000

> <Gold.Chemscore.DEClash.Weighted>
0.0833

> <Gold.Chemscore.DEInternal.Weighted>
1.5640

> <Gold.Chemscore.Rot.Weighted>
3.5152

> <Gold.Chemscore.Internal.Correction.Weighted>
   9.000000E+99

> <Gold.Protein.RotatedTorsions>
[ 6907 6896 6895 6894 ] final   78.74 input  -60.11 | X-H torsion
[ 7974 7965 7964 7962 ] final   57.75 input  175.53 | X-H torsion
[ 8008 7997 7996 7995 ] final   92.30 input   59.86 | X-H torsion
[ 10167 10162 10161 10158 ] final  131.42 input  -65.29 | X-H torsion
[ 10718 10713 10712 10709 ] final  -58.27 input   66.30 | X-H torsion
[ 10763 10752 10751 10750 ] final   35.07 input  -60.55 | X-H torsion
[ 11005 11000 10999 10996 ] final  100.93 input  -57.11 | X-H torsion

> <Gold.Protein.ActiveResidues>
 VAL166  LYS551  ARG553  GLY616  TRP617  ASP618  TYR619  PRO620  LYS621  CYS622 
 ASP623  PHE694  ASN695  SER759  ASP760  ASP761  ALA762  ILE779  LEU786  VAL792 
 PHE793  MET794  SER795  GLU796  ALA797  LYS798  CYS799  TRP800  GLU811  SER814 

> <Gold.Protein.RotatedAtoms>
  152.5171  134.3618  159.9287 H   0  0  0  0  0  0  0  0  0  0  0  0  # atno 6907 bound_to 6896
  151.3570  133.3897  159.2693 H   0  0  0  0  0  0  0  0  0  0  0  0  # atno 6908 bound_to 6896
  150.9682  134.9078  159.7830 H   0  0  0  0  0  0  0  0  0  0  0  0  # atno 6909 bound_to 6896
  145.9256  139.3765  143.0452 H   0  0  0  0  0  0  0  0  0  0  0  0  # atno 7974 bound_to 7965
  156.0337  140.3327  155.7168 H   0  0  0  0  0  0  0  0  0  0  0  0  # atno 8008 bound_to 7997
  155.5847  140.0640  157.2792 H   0  0  0  0  0  0  0  0  0  0  0  0  # atno 8009 bound_to 7997
  154.4364  140.1838  156.1000 H   0  0  0  0  0  0  0  0  0  0  0  0  # atno 8010 bound_to 7997
  139.5385  144.6706  151.4705 H   0  0  0  0  0  0  0  0  0  0  0  0  # atno 10167 bound_to 10162
  156.1147  130.4171  150.0555 H   0  0  0  0  0  0  0  0  0  0  0  0  # atno 10718 bound_to 10713
  153.0135  135.6343  154.1768 H   0  0  0  0  0  0  0  0  0  0  0  0  # atno 10763 bound_to 10752
  154.1509  135.2829  155.3137 H   0  0  0  0  0  0  0  0  0  0  0  0  # atno 10764 bound_to 10752
  154.6054  135.5574  153.7478 H   0  0  0  0  0  0  0  0  0  0  0  0  # atno 10765 bound_to 10752
  139.8772  134.9161  156.4830 H   0  0  0  0  0  0  0  0  0  0  0  0  # atno 11005 bound_to 11000
  145.8492  140.9538  143.0758 LP  0  0  0  0  0  0  0  0  0  0  0  0  # atno 17320 bound_to 7965
  144.6758  140.0385  143.7481 LP  0  0  0  0  0  0  0  0  0  0  0  0  # atno 17321 bound_to 7965
  140.6603  143.8512  150.6880 LP  0  0  0  0  0  0  0  0  0  0  0  0  # atno 17342 bound_to 10162
  140.1905  143.4040  152.1867 LP  0  0  0  0  0  0  0  0  0  0  0  0  # atno 17343 bound_to 10162
  156.8509  130.9458  151.3625 LP  0  0  0  0  0  0  0  0  0  0  0  0  # atno 17370 bound_to 10713
  157.6330  130.8744  149.9308 LP  0  0  0  0  0  0  0  0  0  0  0  0  # atno 17371 bound_to 10713
  140.8714  133.7986  155.9368 LP  0  0  0  0  0  0  0  0  0  0  0  0  # atno 17394 bound_to 11000
  140.8949  134.2450  157.5074 LP  0  0  0  0  0  0  0  0  0  0  0  0  # atno 17395 bound_to 11000

$$$$
