AV-unprocessed.smi:1304|AV-procd|sdf|5431|dock8
  -GOLD-   22720 4593D 1   1.00000     0.00000
 Structure written by MMmdl.
 48 49  0  0  0  0  0  0  0  0  2 V2000
  146.6218  140.0034  154.6787 C   0  0  0  0  0  0  0  0  0  0  0  0
  147.9886  139.9503  153.9725 C   0  0  0  0  0  0  0  0  0  0  0  0
  149.0516  139.0221  154.6365 C   0  0  1  0  0  0  0  0  0  0  0  0
  150.4319  139.3854  154.0270 C   0  0  0  0  0  0  0  0  0  0  0  0
  149.0910  139.2978  156.1690 C   0  0  0  0  0  0  0  0  0  0  0  0
  149.9320  140.4384  156.5206 N   0  0  0  0  0  0  0  0  0  0  0  0
  151.0977  140.3475  157.1756 C   0  0  0  0  0  0  0  0  0  0  0  0
  151.5780  139.2740  157.5417 O   0  0  0  0  0  0  0  0  0  0  0  0
  151.8234  141.6750  157.4394 C   0  0  0  0  0  0  0  0  0  0  0  0
  152.5371  141.7102  158.7271 N   0  0  0  0  0  0  0  0  0  0  0  0
  152.1433  142.7000  159.6496 C   0  0  0  0  0  0  0  0  0  0  0  0
  152.7314  142.8268  160.8495 C   0  0  0  0  0  0  0  0  0  0  0  0
  153.7969  141.9128  161.1872 C   0  0  0  0  0  0  0  0  0  0  0  0
  154.1838  140.9644  160.3110 C   0  0  0  0  0  0  0  0  0  0  0  0
  153.5446  140.8234  158.9973 C   0  0  0  0  0  0  0  0  0  0  0  0
  153.8937  139.9625  158.1889 O   0  0  0  0  0  0  0  0  0  0  0  0
  148.7195  137.5758  154.3623 N   0  3  0  0  0  0  0  0  0  0  0  0
  149.7930  136.5868  154.6657 C   0  0  0  0  0  0  0  0  0  0  0  0
  149.3955  135.1871  154.1659 C   0  0  0  0  0  0  0  0  0  0  0  0
  148.1619  134.7960  154.7517 O   0  0  0  0  0  0  0  0  0  0  0  0
  147.1085  135.6805  154.3972 C   0  0  0  0  0  0  0  0  0  0  0  0
  147.4259  137.0900  154.9211 C   0  0  0  0  0  0  0  0  0  0  0  0
  145.9441  140.6697  154.1448 H   0  0  0  0  0  0  0  0  0  0  0  0
  146.7048  140.3779  155.6989 H   0  0  0  0  0  0  0  0  0  0  0  0
  146.1461  139.0236  154.7165 H   0  0  0  0  0  0  0  0  0  0  0  0
  147.8138  139.6302  152.9447 H   0  0  0  0  0  0  0  0  0  0  0  0
  148.3746  140.9647  153.8750 H   0  0  0  0  0  0  0  0  0  0  0  0
  150.5941  140.4637  154.0067 H   0  0  0  0  0  0  0  0  0  0  0  0
  150.5300  139.0275  153.0020 H   0  0  0  0  0  0  0  0  0  0  0  0
  151.2563  138.9649  154.6035 H   0  0  0  0  0  0  0  0  0  0  0  0
  148.0928  139.5055  156.5551 H   0  0  0  0  0  0  0  0  0  0  0  0
  149.4572  138.4197  156.7021 H   0  0  0  0  0  0  0  0  0  0  0  0
  149.6039  141.3550  156.2530 H   0  0  0  0  0  0  0  0  0  0  0  0
  152.5177  141.8542  156.6172 H   0  0  0  0  0  0  0  0  0  0  0  0
  151.1014  142.4920  157.3855 H   0  0  0  0  0  0  0  0  0  0  0  0
  151.3449  143.3475  159.3174 H   0  0  0  0  0  0  0  0  0  0  0  0
  152.4192  143.5948  161.5419 H   0  0  0  0  0  0  0  0  0  0  0  0
  154.2879  141.9917  162.1461 H   0  0  0  0  0  0  0  0  0  0  0  0
  154.9846  140.2914  160.5804 H   0  0  0  0  0  0  0  0  0  0  0  0
  150.7321  136.8502  154.1827 H   0  0  0  0  0  0  0  0  0  0  0  0
  149.9806  136.5510  155.7391 H   0  0  0  0  0  0  0  0  0  0  0  0
  149.3166  135.1707  153.0775 H   0  0  0  0  0  0  0  0  0  0  0  0
  150.1605  134.4602  154.4393 H   0  0  0  0  0  0  0  0  0  0  0  0
  146.9659  135.6875  153.3153 H   0  0  0  0  0  0  0  0  0  0  0  0
  146.1807  135.3165  154.8387 H   0  0  0  0  0  0  0  0  0  0  0  0
  147.4708  137.0605  156.0100 H   0  0  0  0  0  0  0  0  0  0  0  0
  146.6005  137.7454  154.6508 H   0  0  0  0  0  0  0  0  0  0  0  0
  148.6059  137.5326  153.3596 H   0  0  0  0  0  0  0  0  0  0  0  0
  1  2  1  0  0  0  0
  1 23  1  0  0  0  0
  1 24  1  0  0  0  0
  1 25  1  0  0  0  0
  2  3  1  0  0  0  0
  2 26  1  0  0  0  0
  2 27  1  0  0  0  0
  3  4  1  0  0  0  0
  3  5  1  0  0  0  0
  3 17  1  0  0  0  0
  4 28  1  0  0  0  0
  4 29  1  0  0  0  0
  4 30  1  0  0  0  0
  5  6  1  0  0  0  0
  5 31  1  0  0  0  0
  5 32  1  0  0  0  0
  6  7  1  0  0  0  0
  6 33  1  0  0  0  0
  7  8  2  0  0  0  0
  7  9  1  0  0  0  0
  9 10  1  0  0  0  0
  9 34  1  0  0  0  0
  9 35  1  0  0  0  0
 10 15  1  0  0  0  0
 10 11  1  0  0  0  0
 11 12  2  0  0  0  0
 11 36  1  0  0  0  0
 12 13  1  0  0  0  0
 12 37  1  0  0  0  0
 13 14  2  0  0  0  0
 13 38  1  0  0  0  0
 14 15  1  0  0  0  0
 14 39  1  0  0  0  0
 15 16  2  0  0  0  0
 17 22  1  0  0  0  0
 17 18  1  0  0  0  0
 17 48  1  0  0  0  0
 18 19  1  0  0  0  0
 18 40  1  0  0  0  0
 18 41  1  0  0  0  0
 19 20  1  0  0  0  0
 19 42  1  0  0  0  0
 19 43  1  0  0  0  0
 20 21  1  0  0  0  0
 21 22  1  0  0  0  0
 21 44  1  0  0  0  0
 21 45  1  0  0  0  0
 22 46  1  0  0  0  0
 22 47  1  0  0  0  0
M  CHG  1  17   1
M  END
> <s_m_source_file>
AV-unprocessed.smi

> <i_m_source_file_index>
1304

> <i_lp_mmshare_version>
43012

> <i_f3d_flags>
0

> <s_epik_input>
W0NIMl0xW0NIMl1PW0NIMl1bQ0gyXU4xW0NAQF0oW0NIM10pKFtDSDJdW0NIM10pW0NIMl1bTkhdQyg9TylbQ0gyXW4yW2NIXVtjSF1bY0hdW2NIXWMyPU8=

> <s_epik_cmdline>
J2VwaWtfcHl0aG9uJywgJy1waCcsICc3LjAnLCAnLXRuJywgJzgnLCAnLW1hJywgJzIwMCcsICctbWV0YWxfYmluZGluZycsICctaW1hZScsICc8aW5maWxlLm1hZT4nLCAnLW9tYWUnLCAnPG91dGZpbGUubWFlPic=

> <r_lp_tautomer_probability>
1

> <r_epik_Ionization_Penalty>
0.519658

> <r_epik_Ionization_Penalty_Charging>
0.519658

> <r_epik_Ionization_Penalty_Neutral>
8.70177e-08

> <r_epik_State_Penalty>
0.527569

> <r_epik_Charging_Adjusted_Penalty>
1.04723

> <i_epik_Tot_Q>
1

> <i_epik_Tot_abs_Q>
1

> <r_epik_Metal_State_Penalty>
0.527613

> <b_epik_Metal_Only>
0

> <s_lp_Force_Field>
OPLS_2005

> <r_lp_Energy>
38.623

> <b_lp_Chiralities_Consistent>
1

> <s_lp_Variant>
AV-unprocessed.smi:1304-3

> <Gold.Version>
5.8.1

> <Gold.Id.Protein>
6NUR|6NUR_protein|mol2

> <Gold.PLP.Fitness>
43.3205

> <Gold.PLP.PLP>
-36.2821

> <Gold.PLP.part.hbond>
-2.0000

> <Gold.PLP.part.metal>
0.0000

> <Gold.PLP.part.buried>
-2.1156

> <Gold.PLP.part.nonpolar>
-29.8736

> <Gold.PLP.part.repulsive>
0.0966

> <Gold.PLP.ligand.clash>
0.0000

> <Gold.PLP.ligand.torsion>
1.0621

> <Gold.PLP.Chemscore.Hbond>
3.0000

> <Gold.PLP.Chemscore.CHOScore>
0.0000

> <Gold.PLP.Chemscore.Metal>
0.0000

> <Gold.Chemscore.Hbonds>
donor molecule, donor type, donor heavy atom, donor atom, acceptor molecule, acceptor atom, score
      L1  H    17    48       P1  7948  1.54
      P1  H  7997  8008       L1    16  0.54

> <Gold.PLP.Chemscore.Internal.Correction>
0.1625

> <Gold.Rescore>
     Score         DG    S(hbond)    S(metal)    S(lipo)     H(rot)  DE(clash)    DE(int)     intcor
     12.63     -17.73       1.91        0.00      94.61       2.03       1.83       3.26       ----

> <Gold.Chemscore.Fitness>
12.6329

> <Gold.Chemscore.DG>
-17.7281

> <Gold.Chemscore.ZeroCoef>
-5.4800

> <Gold.Chemscore.Hbond>
1.9087

> <Gold.Chemscore.Metal>
0.0000

> <Gold.Chemscore.Lipo>
94.6099

> <Gold.Chemscore.Internal_Hbond>
0.0000

> <Gold.Chemscore.DEClash>
1.8311

> <Gold.Chemscore.DEInternal>
3.2641

> <Gold.Chemscore.Rot>
2.0298

> <Gold.Chemscore.Internal.Correction>
   9.000000E+99

> <Gold.Chemscore.Hbonds>
donor molecule, donor type, donor heavy atom, donor atom, acceptor molecule, acceptor atom, score
      L1  H    17    48       P1  7948  0.75
      P1  H  7997  8008       L1    16  0.52

> <Gold.Chemscore.Hbond.Weighted>
-6.3750

> <Gold.Chemscore.Metal.Weighted>
-0.0000

> <Gold.Chemscore.Lipo.Weighted>
-11.0694

> <Gold.Chemscore.Internal_Hbond.Weighted>
0.0000

> <Gold.Chemscore.DEClash.Weighted>
1.8311

> <Gold.Chemscore.DEInternal.Weighted>
3.2641

> <Gold.Chemscore.Rot.Weighted>
5.1962

> <Gold.Chemscore.Internal.Correction.Weighted>
   9.000000E+99

> <Gold.Protein.RotatedTorsions>
[ 6907 6896 6895 6894 ] final   89.66 input  -60.11 | X-H torsion
[ 7974 7965 7964 7962 ] final    3.31 input  175.53 | X-H torsion
[ 8008 7997 7996 7995 ] final -103.77 input   59.86 | X-H torsion
[ 10167 10162 10161 10158 ] final -172.89 input  -65.29 | X-H torsion
[ 10718 10713 10712 10709 ] final  127.31 input   66.30 | X-H torsion
[ 10763 10752 10751 10750 ] final   70.61 input  -60.55 | X-H torsion
[ 11005 11000 10999 10996 ] final -158.90 input  -57.11 | X-H torsion

> <Gold.Protein.ActiveResidues>
 VAL166  LYS551  ARG553  GLY616  TRP617  ASP618  TYR619  PRO620  LYS621  CYS622 
 ASP623  PHE694  ASN695  SER759  ASP760  ASP761  ALA762  ILE779  LEU786  VAL792 
 PHE793  MET794  SER795  GLU796  ALA797  LYS798  CYS799  TRP800  GLU811  SER814 

> <Gold.Protein.RotatedAtoms>
  152.5438  134.1931  159.8681 H   0  0  0  0  0  0  0  0  0  0  0  0  # atno 6907 bound_to 6896
  151.1925  133.4652  159.2602 H   0  0  0  0  0  0  0  0  0  0  0  0  # atno 6908 bound_to 6896
  151.1069  135.0016  159.8531 H   0  0  0  0  0  0  0  0  0  0  0  0  # atno 6909 bound_to 6896
  146.2445  140.0704  142.8363 H   0  0  0  0  0  0  0  0  0  0  0  0  # atno 7974 bound_to 7965
  154.8758  140.0421  157.1752 H   0  0  0  0  0  0  0  0  0  0  0  0  # atno 8008 bound_to 7997
  154.8691  140.2955  155.5471 H   0  0  0  0  0  0  0  0  0  0  0  0  # atno 8009 bound_to 7997
  156.2999  140.2432  156.3677 H   0  0  0  0  0  0  0  0  0  0  0  0  # atno 8010 bound_to 7997
  139.5719  144.1622  152.1396 H   0  0  0  0  0  0  0  0  0  0  0  0  # atno 10167 bound_to 10162
  157.5344  131.1098  150.8959 H   0  0  0  0  0  0  0  0  0  0  0  0  # atno 10718 bound_to 10713
  153.0351  135.5167  154.7467 H   0  0  0  0  0  0  0  0  0  0  0  0  # atno 10763 bound_to 10752
  154.6450  135.2917  155.0059 H   0  0  0  0  0  0  0  0  0  0  0  0  # atno 10764 bound_to 10752
  154.0964  135.6643  153.4913 H   0  0  0  0  0  0  0  0  0  0  0  0  # atno 10765 bound_to 10752
  140.6485  134.4476  157.5234 H   0  0  0  0  0  0  0  0  0  0  0  0  # atno 11005 bound_to 11000
  145.0821  140.9228  143.4819 LP  0  0  0  0  0  0  0  0  0  0  0  0  # atno 17320 bound_to 7965
  145.0859  139.2925  143.5760 LP  0  0  0  0  0  0  0  0  0  0  0  0  # atno 17321 bound_to 7965
  140.1157  144.5418  150.6896 LP  0  0  0  0  0  0  0  0  0  0  0  0  # atno 17342 bound_to 10162
  140.7003  143.2430  151.4884 LP  0  0  0  0  0  0  0  0  0  0  0  0  # atno 17343 bound_to 10162
  156.9530  130.5427  149.5283 LP  0  0  0  0  0  0  0  0  0  0  0  0  # atno 17370 bound_to 10713
  156.0447  130.5525  150.8853 LP  0  0  0  0  0  0  0  0  0  0  0  0  # atno 17371 bound_to 10713
  139.9054  134.8461  156.1727 LP  0  0  0  0  0  0  0  0  0  0  0  0  # atno 17394 bound_to 11000
  141.0554  133.6868  156.1851 LP  0  0  0  0  0  0  0  0  0  0  0  0  # atno 17395 bound_to 11000

$$$$
