AV-unprocessed.smi:2061|AV-procd|sdf|8384|dock2
  -GOLD-   2272011 63D 1   1.00000     0.00000
 Structure written by MMmdl.
 45 46  0  0  0  0  0  0  0  0  3 V2000
  151.0125  141.0746  156.1680 C   0  0  0  0  0  0  0  0  0  0  0  0
  151.4254  139.6950  155.7822 C   0  0  0  0  0  0  0  0  0  0  0  0
  150.7283  138.6090  155.3340 C   0  0  0  0  0  0  0  0  0  0  0  0
  151.7395  137.6263  155.1518 C   0  0  0  0  0  0  0  0  0  0  0  0
  151.5491  136.3662  154.7308 N   0  5  0  0  0  0  0  0  0  0  0  0
  150.5398  135.6223  155.2369 C   0  0  0  0  0  0  0  0  0  0  0  0
  150.5420  135.0170  156.3115 O   0  0  0  0  0  0  0  0  0  0  0  0
  149.4601  135.5702  154.4442 N   0  0  0  0  0  0  0  0  0  0  0  0
  148.2358  134.8257  154.7221 C   0  0  0  0  0  0  0  0  0  0  0  0
  148.0633  133.5818  153.8113 C   0  0  2  0  0  0  0  0  0  0  0  0
  149.4477  133.0050  153.4269 C   0  0  0  0  0  0  0  0  0  0  0  0
  147.2064  133.9283  152.6313 N   0  3  1  0  0  0  0  0  0  0  0  0
  146.9143  132.8153  151.6884 C   0  0  0  0  0  0  0  0  0  0  0  0
  146.1079  133.3159  150.4750 C   0  0  1  0  0  0  0  0  0  0  0  0
  145.7049  132.1677  149.5432 C   0  0  0  0  0  0  0  0  0  0  0  0
  144.9154  133.9571  150.9139 O   0  0  0  0  0  0  0  0  0  0  0  0
  145.1238  135.0497  151.8054 C   0  0  2  0  0  0  0  0  0  0  0  0
  145.7275  136.2792  151.1025 C   0  0  0  0  0  0  0  0  0  0  0  0
  145.9308  134.5816  153.0305 C   0  0  0  0  0  0  0  0  0  0  0  0
  152.9414  138.0712  155.4777 N   0  0  0  0  0  0  0  0  0  0  0  0
  152.7498  139.3995  155.8762 O   0  0  0  0  0  0  0  0  0  0  0  0
  150.1635  141.0465  156.8509 H   0  0  0  0  0  0  0  0  0  0  0  0
  150.7210  141.6488  155.2887 H   0  0  0  0  0  0  0  0  0  0  0  0
  151.8259  141.6050  156.6638 H   0  0  0  0  0  0  0  0  0  0  0  0
  149.6657  138.5302  155.1606 H   0  0  0  0  0  0  0  0  0  0  0  0
  149.4976  136.0849  153.5763 H   0  0  0  0  0  0  0  0  0  0  0  0
  148.2317  134.5649  155.7797 H   0  0  0  0  0  0  0  0  0  0  0  0
  147.3945  135.5043  154.5786 H   0  0  0  0  0  0  0  0  0  0  0  0
  147.5466  132.8009  154.3716 H   0  0  0  0  0  0  0  0  0  0  0  0
  150.0540  132.7912  154.3067 H   0  0  0  0  0  0  0  0  0  0  0  0
  150.0114  133.7015  152.8054 H   0  0  0  0  0  0  0  0  0  0  0  0
  149.3621  132.0584  152.8931 H   0  0  0  0  0  0  0  0  0  0  0  0
  147.8362  132.3796  151.3048 H   0  0  0  0  0  0  0  0  0  0  0  0
  146.3709  132.0267  152.2117 H   0  0  0  0  0  0  0  0  0  0  0  0
  146.7119  134.0180  149.8999 H   0  0  0  0  0  0  0  0  0  0  0  0
  146.5821  131.6482  149.1569 H   0  0  0  0  0  0  0  0  0  0  0  0
  145.1374  132.5397  148.6897 H   0  0  0  0  0  0  0  0  0  0  0  0
  145.0842  131.4366  150.0621 H   0  0  0  0  0  0  0  0  0  0  0  0
  144.1333  135.3432  152.1546 H   0  0  0  0  0  0  0  0  0  0  0  0
  145.7520  137.1351  151.7773 H   0  0  0  0  0  0  0  0  0  0  0  0
  145.1314  136.5625  150.2347 H   0  0  0  0  0  0  0  0  0  0  0  0
  146.7492  136.1059  150.7654 H   0  0  0  0  0  0  0  0  0  0  0  0
  145.3347  133.8696  153.6040 H   0  0  0  0  0  0  0  0  0  0  0  0
  146.1038  135.4328  153.6866 H   0  0  0  0  0  0  0  0  0  0  0  0
  147.7316  134.6072  152.0990 H   0  0  0  0  0  0  0  0  0  0  0  0
  1  2  1  0  0  0  0
  1 22  1  0  0  0  0
  1 23  1  0  0  0  0
  1 24  1  0  0  0  0
  2 21  1  0  0  0  0
  2  3  2  0  0  0  0
  3  4  1  0  0  0  0
  3 25  1  0  0  0  0
  4  5  1  0  0  0  0
  4 20  2  0  0  0  0
  5  6  1  0  0  0  0
  6  7  2  0  0  0  0
  6  8  1  0  0  0  0
  8  9  1  0  0  0  0
  8 26  1  0  0  0  0
  9 10  1  0  0  0  0
  9 27  1  0  0  0  0
  9 28  1  0  0  0  0
 10 11  1  0  0  0  0
 10 12  1  0  0  0  0
 10 29  1  0  0  0  0
 11 30  1  0  0  0  0
 11 31  1  0  0  0  0
 11 32  1  0  0  0  0
 12 19  1  0  0  0  0
 12 13  1  0  0  0  0
 12 45  1  0  0  0  0
 13 14  1  0  0  0  0
 13 33  1  0  0  0  0
 13 34  1  0  0  0  0
 14 15  1  0  0  0  0
 14 16  1  0  0  0  0
 14 35  1  0  0  0  0
 15 36  1  0  0  0  0
 15 37  1  0  0  0  0
 15 38  1  0  0  0  0
 16 17  1  0  0  0  0
 17 18  1  0  0  0  0
 17 19  1  0  0  0  0
 17 39  1  0  0  0  0
 18 40  1  0  0  0  0
 18 41  1  0  0  0  0
 18 42  1  0  0  0  0
 19 43  1  0  0  0  0
 19 44  1  0  0  0  0
 20 21  1  0  0  0  0
M  CHG  1   5  -1
M  CHG  1  12   1
M  END
> <s_m_source_file>
AV-unprocessed.smi

> <i_m_source_file_index>
2061

> <i_lp_mmshare_version>
43012

> <i_f3d_flags>
0

> <s_epik_input>
W0NIM11jMVtjSF1jKG5vMSlbTkhdQyg9TylbTkhdW0NIMl1bQ0BIXShbQ0gzXSlOMltDSDJdW0NAQEhdKFtDSDNdKU9bQ0BASF0oW0NIM10pW0NIMl0y

> <s_epik_cmdline>
J2VwaWtfcHl0aG9uJywgJy1waCcsICc3LjAnLCAnLXRuJywgJzgnLCAnLW1hJywgJzIwMCcsICctbWV0YWxfYmluZGluZycsICctaW1hZScsICc8aW5maWxlLm1hZT4nLCAnLW9tYWUnLCAnPG91dGZpbGUubWFlPic=

> <r_epik_Ionization_Penalty>
6.73511

> <r_epik_Ionization_Penalty_Charging>
6.73502

> <r_epik_Ionization_Penalty_Neutral>
9.50841e-05

> <r_epik_State_Penalty>
6.93549

> <r_epik_Charging_Adjusted_Penalty>
13.6705

> <i_epik_Tot_Q>
0

> <i_epik_Tot_abs_Q>
2

> <r_epik_Metal_State_Penalty>
2.87211

> <b_epik_Metal_Only>
1

> <s_lp_Force_Field>
OPLS_2005

> <r_lp_Energy>
11.3742

> <b_lp_Chiralities_Consistent>
1

> <s_lp_Variant>
AV-unprocessed.smi:2061-25

> <Gold.Version>
5.8.1

> <Gold.Id.Protein>
6NUR|6NUR_protein|mol2

> <Gold.PLP.Fitness>
52.1733

> <Gold.PLP.PLP>
-37.3770

> <Gold.PLP.part.hbond>
-4.0098

> <Gold.PLP.part.metal>
0.0000

> <Gold.PLP.part.buried>
-3.6636

> <Gold.PLP.part.nonpolar>
-28.5777

> <Gold.PLP.part.repulsive>
0.3391

> <Gold.PLP.ligand.clash>
0.0000

> <Gold.PLP.ligand.torsion>
1.6121

> <Gold.PLP.Chemscore.Hbond>
5.9600

> <Gold.PLP.Chemscore.CHOScore>
0.0000

> <Gold.PLP.Chemscore.Metal>
0.0000

> <Gold.Chemscore.Hbonds>
donor molecule, donor type, donor heavy atom, donor atom, acceptor molecule, acceptor atom, score
      L1  H     8    26       P1  7948  0.96
      L1  H    12    45       P1  7948  2.00
      P1  H  7997  8008       L1    21  1.00
      P1  H 10752 10764       L1     5  2.00

> <Gold.PLP.Chemscore.Internal.Correction>
0.1404

> <Gold.Rescore>
     Score         DG    S(hbond)    S(metal)    S(lipo)     H(rot)  DE(clash)    DE(int)     intcor
     18.57     -20.36       3.16        0.00      71.02       1.56       0.07       1.72       ----

> <Gold.Chemscore.Fitness>
18.5704

> <Gold.Chemscore.DG>
-20.3572

> <Gold.Chemscore.ZeroCoef>
-5.4800

> <Gold.Chemscore.Hbond>
3.1581

> <Gold.Chemscore.Metal>
0.0000

> <Gold.Chemscore.Lipo>
71.0248

> <Gold.Chemscore.Internal_Hbond>
0.0000

> <Gold.Chemscore.DEClash>
0.0678

> <Gold.Chemscore.DEInternal>
1.7191

> <Gold.Chemscore.Rot>
1.5550

> <Gold.Chemscore.Internal.Correction>
   9.000000E+99

> <Gold.Chemscore.Hbonds>
donor molecule, donor type, donor heavy atom, donor atom, acceptor molecule, acceptor atom, score
      L1  H     8    26       P1  7948  0.46
      L1  H    12    45       P1  7948  0.48
      P1  H  7997  8008       L1    21  0.65
      P1  H 10752 10764       L1     5  0.77

> <Gold.Chemscore.Hbond.Weighted>
-10.5482

> <Gold.Chemscore.Metal.Weighted>
-0.0000

> <Gold.Chemscore.Lipo.Weighted>
-8.3099

> <Gold.Chemscore.Internal_Hbond.Weighted>
0.0000

> <Gold.Chemscore.DEClash.Weighted>
0.0678

> <Gold.Chemscore.DEInternal.Weighted>
1.7191

> <Gold.Chemscore.Rot.Weighted>
3.9809

> <Gold.Chemscore.Internal.Correction.Weighted>
   9.000000E+99

> <Gold.Protein.RotatedTorsions>
[ 6907 6896 6895 6894 ] final  103.04 input  -60.11 | X-H torsion
[ 7974 7965 7964 7962 ] final   88.70 input  175.53 | X-H torsion
[ 8008 7997 7996 7995 ] final  -29.88 input   59.86 | X-H torsion
[ 10167 10162 10161 10158 ] final  -24.78 input  -65.29 | X-H torsion
[ 10718 10713 10712 10709 ] final -119.70 input   66.30 | X-H torsion
[ 10763 10752 10751 10750 ] final  -71.00 input  -60.55 | X-H torsion
[ 11005 11000 10999 10996 ] final   72.22 input  -57.11 | X-H torsion

> <Gold.Protein.ActiveResidues>
 VAL166  LYS551  ARG553  GLY616  TRP617  ASP618  TYR619  PRO620  LYS621  CYS622 
 ASP623  PHE694  ASN695  SER759  ASP760  ASP761  ALA762  ILE779  LEU786  VAL792 
 PHE793  MET794  SER795  GLU796  ALA797  LYS798  CYS799  TRP800  GLU811  SER814 

> <Gold.Protein.RotatedAtoms>
  152.5307  133.9885  159.7839 H   0  0  0  0  0  0  0  0  0  0  0  0  # atno 6907 bound_to 6896
  151.0125  133.5944  159.2688 H   0  0  0  0  0  0  0  0  0  0  0  0  # atno 6908 bound_to 6896
  151.3013  135.0776  159.9293 H   0  0  0  0  0  0  0  0  0  0  0  0  # atno 6909 bound_to 6896
  145.5421  139.2289  143.2560 H   0  0  0  0  0  0  0  0  0  0  0  0  # atno 7974 bound_to 7965
  154.4272  140.1806  156.1319 H   0  0  0  0  0  0  0  0  0  0  0  0  # atno 8008 bound_to 7997
  156.0061  140.3355  155.6869 H   0  0  0  0  0  0  0  0  0  0  0  0  # atno 8009 bound_to 7997
  155.6175  140.0656  157.2678 H   0  0  0  0  0  0  0  0  0  0  0  0  # atno 8010 bound_to 7997
  140.7288  143.4323  151.0783 H   0  0  0  0  0  0  0  0  0  0  0  0  # atno 10167 bound_to 10162
  156.1201  130.6317  150.9449 H   0  0  0  0  0  0  0  0  0  0  0  0  # atno 10718 bound_to 10713
  154.4255  135.5976  153.6036 H   0  0  0  0  0  0  0  0  0  0  0  0  # atno 10763 bound_to 10752
  152.9796  135.5962  154.3902 H   0  0  0  0  0  0  0  0  0  0  0  0  # atno 10764 bound_to 10752
  154.3733  135.2841  155.2232 H   0  0  0  0  0  0  0  0  0  0  0  0  # atno 10765 bound_to 10752
  139.9502  134.7240  156.0881 H   0  0  0  0  0  0  0  0  0  0  0  0  # atno 11005 bound_to 11000
  146.1974  140.6242  142.9118 LP  0  0  0  0  0  0  0  0  0  0  0  0  # atno 17320 bound_to 7965
  144.7571  140.5334  143.6761 LP  0  0  0  0  0  0  0  0  0  0  0  0  # atno 17321 bound_to 7965
  139.7981  143.8122  152.3160 LP  0  0  0  0  0  0  0  0  0  0  0  0  # atno 17342 bound_to 10162
  139.8129  144.7328  150.9673 LP  0  0  0  0  0  0  0  0  0  0  0  0  # atno 17343 bound_to 10162
  157.6385  131.0913  150.8300 LP  0  0  0  0  0  0  0  0  0  0  0  0  # atno 17370 bound_to 10713
  156.8398  130.5044  149.5322 LP  0  0  0  0  0  0  0  0  0  0  0  0  # atno 17371 bound_to 10713
  141.1163  133.6627  156.3102 LP  0  0  0  0  0  0  0  0  0  0  0  0  # atno 17394 bound_to 11000
  140.5737  134.5815  157.5463 LP  0  0  0  0  0  0  0  0  0  0  0  0  # atno 17395 bound_to 11000

$$$$
