AV-unprocessed.smi:3095|AV-procd|sdf|11793|dock6
  -GOLD-   2272017173D 1   1.00000     0.00000
 Structure written by MMmdl.
 25 26  0  0  0  0  0  0  0  0  2 V2000
  153.1013  143.0466  162.7864 C   0  0  0  0  0  0  0  0  0  0  0  0
  153.1144  142.2561  161.5158 C   0  0  0  0  0  0  0  0  0  0  0  0
  154.1202  141.4395  161.0633 C   0  0  0  0  0  0  0  0  0  0  0  0
  153.7224  140.7058  159.5343 S   0  0  0  0  0  0  0  0  0  0  0  0
  152.1851  141.5626  159.5556 C   0  0  0  0  0  0  0  0  0  0  0  0
  151.1579  141.4097  158.4793 C   0  0  1  0  0  0  0  0  0  0  0  0
  150.9032  142.7233  157.7163 C   0  0  0  0  0  0  0  0  0  0  0  0
  149.9435  142.4892  156.6195 N   0  3  0  0  0  0  0  0  0  0  0  0
  150.3931  141.4008  155.7290 C   0  0  0  0  0  0  0  0  0  0  0  0
  150.6806  140.1293  156.5472 C   0  0  0  0  0  0  0  0  0  0  0  0
  151.6286  140.4173  157.5699 O   0  0  0  0  0  0  0  0  0  0  0  0
  152.0157  142.3073  160.6532 N   0  0  0  0  0  0  0  0  0  0  0  0
  154.0078  142.8803  163.3691 H   0  0  0  0  0  0  0  0  0  0  0  0
  152.2527  142.7722  163.4133 H   0  0  0  0  0  0  0  0  0  0  0  0
  153.0322  144.1156  162.5844 H   0  0  0  0  0  0  0  0  0  0  0  0
  155.0670  141.2239  161.5367 H   0  0  0  0  0  0  0  0  0  0  0  0
  150.2336  141.0612  158.9437 H   0  0  0  0  0  0  0  0  0  0  0  0
  150.5064  143.4878  158.3848 H   0  0  0  0  0  0  0  0  0  0  0  0
  151.8344  143.1103  157.2994 H   0  0  0  0  0  0  0  0  0  0  0  0
  149.0525  142.2318  157.0197 H   0  0  0  0  0  0  0  0  0  0  0  0
  149.6272  141.2088  154.9771 H   0  0  0  0  0  0  0  0  0  0  0  0
  151.2922  141.7190  155.1995 H   0  0  0  0  0  0  0  0  0  0  0  0
  149.7638  139.7345  156.9884 H   0  0  0  0  0  0  0  0  0  0  0  0
  151.0839  139.3497  155.9008 H   0  0  0  0  0  0  0  0  0  0  0  0
  149.8307  143.3380  156.0836 H   0  0  0  0  0  0  0  0  0  0  0  0
  1  2  1  0  0  0  0
  1 13  1  0  0  0  0
  1 14  1  0  0  0  0
  1 15  1  0  0  0  0
  2 12  1  0  0  0  0
  2  3  2  0  0  0  0
  3  4  1  0  0  0  0
  3 16  1  0  0  0  0
  4  5  1  0  0  0  0
  5  6  1  0  0  0  0
  5 12  2  0  0  0  0
  6 11  1  0  0  0  0
  6  7  1  0  0  0  0
  6 17  1  0  0  0  0
  7  8  1  0  0  0  0
  7 18  1  0  0  0  0
  7 19  1  0  0  0  0
  8  9  1  0  0  0  0
  8 20  1  0  0  0  0
  8 25  1  0  0  0  0
  9 10  1  0  0  0  0
  9 21  1  0  0  0  0
  9 22  1  0  0  0  0
 10 11  1  0  0  0  0
 10 23  1  0  0  0  0
 10 24  1  0  0  0  0
M  CHG  1   8   1
M  END
> <s_m_source_file>
AV-unprocessed.smi

> <i_m_source_file_index>
3095

> <i_lp_mmshare_version>
43012

> <i_f3d_flags>
0

> <s_epik_input>
W0NIM11jMVtjSF1zYyhuMSlbQ0BASF0yW0NIMl1bTkhdW0NIMl1bQ0gyXU8y

> <s_epik_cmdline>
J2VwaWtfcHl0aG9uJywgJy1waCcsICc3LjAnLCAnLXRuJywgJzgnLCAnLW1hJywgJzIwMCcsICctbWV0YWxfYmluZGluZycsICctaW1hZScsICc8aW5maWxlLm1hZT4nLCAnLW9tYWUnLCAnPG91dGZpbGUubWFlPic=

> <r_epik_Ionization_Penalty>
0.125709

> <r_epik_Ionization_Penalty_Charging>
0.125708

> <r_epik_Ionization_Penalty_Neutral>
7.00244e-07

> <r_epik_State_Penalty>
0.0155371

> <r_epik_Charging_Adjusted_Penalty>
0.141245

> <i_epik_Tot_Q>
1

> <i_epik_Tot_abs_Q>
1

> <r_epik_Metal_State_Penalty>
0.0155948

> <b_epik_Metal_Only>
0

> <s_lp_Force_Field>
OPLS_2005

> <r_lp_Energy>
6.74863

> <b_lp_Chiralities_Consistent>
1

> <s_lp_Variant>
AV-unprocessed.smi:3095-2

> <Gold.Version>
5.8.1

> <Gold.Id.Protein>
6NUR|6NUR_protein|mol2

> <Gold.PLP.Fitness>
33.8863

> <Gold.PLP.PLP>
-28.0036

> <Gold.PLP.part.hbond>
-1.6054

> <Gold.PLP.part.metal>
0.0000

> <Gold.PLP.part.buried>
-4.1592

> <Gold.PLP.part.nonpolar>
-22.1142

> <Gold.PLP.part.repulsive>
0.0824

> <Gold.PLP.ligand.clash>
0.0000

> <Gold.PLP.ligand.torsion>
0.0636

> <Gold.PLP.Chemscore.Hbond>
2.0000

> <Gold.PLP.Chemscore.CHOScore>
0.0000

> <Gold.PLP.Chemscore.Metal>
0.0000

> <Gold.Chemscore.Hbonds>
donor molecule, donor type, donor heavy atom, donor atom, acceptor molecule, acceptor atom, score
      L1  H     8    25       P1  8028  2.00

> <Gold.PLP.Chemscore.Internal.Correction>
0.0100

> <Gold.Rescore>
     Score         DG    S(hbond)    S(metal)    S(lipo)     H(rot)  DE(clash)    DE(int)     intcor
     15.48     -15.51       0.99        0.00      79.23       1.00       0.02       0.01       ----

> <Gold.Chemscore.Fitness>
15.4818

> <Gold.Chemscore.DG>
-15.5124

> <Gold.Chemscore.ZeroCoef>
-5.4800

> <Gold.Chemscore.Hbond>
0.9948

> <Gold.Chemscore.Metal>
0.0000

> <Gold.Chemscore.Lipo>
79.2289

> <Gold.Chemscore.Internal_Hbond>
0.0000

> <Gold.Chemscore.DEClash>
0.0219

> <Gold.Chemscore.DEInternal>
0.0087

> <Gold.Chemscore.Rot>
1.0000

> <Gold.Chemscore.Internal.Correction>
   9.000000E+99

> <Gold.Chemscore.Hbonds>
donor molecule, donor type, donor heavy atom, donor atom, acceptor molecule, acceptor atom, score
      L1  H     8    25       P1  8028  0.94

> <Gold.Chemscore.Hbond.Weighted>
-3.3226

> <Gold.Chemscore.Metal.Weighted>
-0.0000

> <Gold.Chemscore.Lipo.Weighted>
-9.2698

> <Gold.Chemscore.Internal_Hbond.Weighted>
0.0000

> <Gold.Chemscore.DEClash.Weighted>
0.0219

> <Gold.Chemscore.DEInternal.Weighted>
0.0087

> <Gold.Chemscore.Rot.Weighted>
2.5600

> <Gold.Chemscore.Internal.Correction.Weighted>
   9.000000E+99

> <Gold.Protein.RotatedTorsions>
[ 6907 6896 6895 6894 ] final   -8.27 input  -60.11 | X-H torsion
[ 7974 7965 7964 7962 ] final  -76.92 input  175.53 | X-H torsion
[ 8008 7997 7996 7995 ] final  178.27 input   59.86 | X-H torsion
[ 10167 10162 10161 10158 ] final -130.91 input  -65.29 | X-H torsion
[ 10718 10713 10712 10709 ] final  -64.18 input   66.30 | X-H torsion
[ 10763 10752 10751 10750 ] final    7.82 input  -60.55 | X-H torsion
[ 11005 11000 10999 10996 ] final   48.82 input  -57.11 | X-H torsion

> <Gold.Protein.ActiveResidues>
 VAL166  LYS551  ARG553  GLY616  TRP617  ASP618  TYR619  PRO620  LYS621  CYS622 
 ASP623  PHE694  ASN695  SER759  ASP760  ASP761  ALA762  ILE779  LEU786  VAL792 
 PHE793  MET794  SER795  GLU796  ALA797  LYS798  CYS799  TRP800  GLU811  SER814 

> <Gold.Protein.RotatedAtoms>
  151.4363  135.1015  159.9656 H   0  0  0  0  0  0  0  0  0  0  0  0  # atno 6907 bound_to 6896
  152.4938  133.8570  159.7241 H   0  0  0  0  0  0  0  0  0  0  0  0  # atno 6908 bound_to 6896
  150.9119  133.6928  159.2880 H   0  0  0  0  0  0  0  0  0  0  0  0  # atno 6909 bound_to 6896
  145.6065  140.9397  143.1212 H   0  0  0  0  0  0  0  0  0  0  0  0  # atno 7974 bound_to 7965
  156.0564  140.1337  156.9991 H   0  0  0  0  0  0  0  0  0  0  0  0  # atno 8008 bound_to 7997
  154.4460  140.1000  156.6523 H   0  0  0  0  0  0  0  0  0  0  0  0  # atno 8009 bound_to 7997
  155.5444  140.3461  155.4456 H   0  0  0  0  0  0  0  0  0  0  0  0  # atno 8010 bound_to 7997
  139.9244  143.6344  152.2545 H   0  0  0  0  0  0  0  0  0  0  0  0  # atno 10167 bound_to 10162
  156.0745  130.4230  150.1384 H   0  0  0  0  0  0  0  0  0  0  0  0  # atno 10718 bound_to 10713
  153.2320  135.6893  153.7879 H   0  0  0  0  0  0  0  0  0  0  0  0  # atno 10763 bound_to 10752
  153.7040  135.3293  155.3232 H   0  0  0  0  0  0  0  0  0  0  0  0  # atno 10764 bound_to 10752
  154.8318  135.4574  154.1209 H   0  0  0  0  0  0  0  0  0  0  0  0  # atno 10765 bound_to 10752
  140.1157  134.4895  155.8639 H   0  0  0  0  0  0  0  0  0  0  0  0  # atno 11005 bound_to 11000
  144.7288  139.7791  143.7355 LP  0  0  0  0  0  0  0  0  0  0  0  0  # atno 17320 bound_to 7965
  146.1537  139.4628  143.0032 LP  0  0  0  0  0  0  0  0  0  0  0  0  # atno 17321 bound_to 7965
  139.6834  144.7653  151.1567 LP  0  0  0  0  0  0  0  0  0  0  0  0  # atno 17342 bound_to 10162
  140.7654  143.5691  150.9015 LP  0  0  0  0  0  0  0  0  0  0  0  0  # atno 17343 bound_to 10162
  156.9428  130.9750  151.3513 LP  0  0  0  0  0  0  0  0  0  0  0  0  # atno 17370 bound_to 10713
  157.5833  130.8391  149.8553 LP  0  0  0  0  0  0  0  0  0  0  0  0  # atno 17371 bound_to 10713
  141.2140  133.6743  156.6792 LP  0  0  0  0  0  0  0  0  0  0  0  0  # atno 17394 bound_to 11000
  140.3031  134.8147  157.4114 LP  0  0  0  0  0  0  0  0  0  0  0  0  # atno 17395 bound_to 11000

$$$$
