AV-unprocessed.smi:3205|AV-procd|sdf|12254|dock2
  -GOLD-   2272018 93D 1   1.00000     0.00000
 Structure written by MMmdl.
 38 39  0  0  0  0  0  0  0  0  2 V2000
  148.3147  137.2790  155.0630 C   0  0  0  0  0  0  0  0  0  0  0  0
  148.5107  138.6237  154.3337 C   0  0  2  0  0  0  0  0  0  0  0  0
  148.1976  138.4620  152.8942 N   0  3  0  0  0  0  0  0  0  0  0  0
  146.7873  138.6951  152.5188 C   0  0  0  0  0  0  0  0  0  0  0  0
  146.4152  137.8854  151.2680 C   0  0  0  0  0  0  0  0  0  0  0  0
  145.6253  136.7135  151.5944 N   0  0  0  0  0  0  0  0  0  0  0  0
  145.2200  135.6924  150.7607 C   0  0  0  0  0  0  0  0  0  0  0  0
  144.4872  134.8204  151.5137 C   0  0  0  0  0  0  0  0  0  0  0  0
  144.4957  135.4037  152.8114 C   0  0  0  0  0  0  0  0  0  0  0  0
  145.1749  136.5388  152.8554 N   0  0  0  0  0  0  0  0  0  0  0  0
  149.9464  139.1913  154.4954 C   0  0  0  0  0  0  0  0  0  0  0  0
  151.0360  138.0978  154.4819 C   0  0  0  0  0  0  0  0  0  0  0  0
  152.4309  138.6916  154.7395 C   0  0  0  0  0  0  0  0  0  0  0  0
  152.4422  139.3935  155.9758 O   0  0  0  0  0  0  0  0  0  0  0  0
  151.5447  140.4957  155.9870 C   0  0  0  0  0  0  0  0  0  0  0  0
  150.1028  139.9961  155.8042 C   0  0  0  0  0  0  0  0  0  0  0  0
  148.4277  137.3845  156.1416 H   0  0  0  0  0  0  0  0  0  0  0  0
  149.0350  136.5344  154.7222 H   0  0  0  0  0  0  0  0  0  0  0  0
  147.3175  136.8710  154.9021 H   0  0  0  0  0  0  0  0  0  0  0  0
  147.8140  139.3503  154.7550 H   0  0  0  0  0  0  0  0  0  0  0  0
  148.7511  139.1396  152.3893 H   0  0  0  0  0  0  0  0  0  0  0  0
  146.1308  138.4188  153.3439 H   0  0  0  0  0  0  0  0  0  0  0  0
  146.6394  139.7595  152.3305 H   0  0  0  0  0  0  0  0  0  0  0  0
  145.8466  138.5000  150.5687 H   0  0  0  0  0  0  0  0  0  0  0  0
  147.3160  137.5606  150.7453 H   0  0  0  0  0  0  0  0  0  0  0  0
  145.4829  135.6704  149.7132 H   0  0  0  0  0  0  0  0  0  0  0  0
  144.0147  133.9059  151.1871 H   0  0  0  0  0  0  0  0  0  0  0  0
  144.0306  135.0393  153.7154 H   0  0  0  0  0  0  0  0  0  0  0  0
  150.1429  139.8651  153.6596 H   0  0  0  0  0  0  0  0  0  0  0  0
  150.8171  137.3463  155.2418 H   0  0  0  0  0  0  0  0  0  0  0  0
  151.0556  137.5792  153.5240 H   0  0  0  0  0  0  0  0  0  0  0  0
  153.1742  137.8952  154.7818 H   0  0  0  0  0  0  0  0  0  0  0  0
  152.7263  139.3576  153.9271 H   0  0  0  0  0  0  0  0  0  0  0  0
  151.6420  141.0175  156.9391 H   0  0  0  0  0  0  0  0  0  0  0  0
  151.8132  141.2076  155.2050 H   0  0  0  0  0  0  0  0  0  0  0  0
  149.4295  140.8533  155.8171 H   0  0  0  0  0  0  0  0  0  0  0  0
  149.8286  139.3732  156.6569 H   0  0  0  0  0  0  0  0  0  0  0  0
  148.4776  137.5377  152.5981 H   0  0  0  0  0  0  0  0  0  0  0  0
  1  2  1  0  0  0  0
  1 17  1  0  0  0  0
  1 18  1  0  0  0  0
  1 19  1  0  0  0  0
  2  3  1  0  0  0  0
  2 11  1  0  0  0  0
  2 20  1  0  0  0  0
  3  4  1  0  0  0  0
  3 21  1  0  0  0  0
  3 38  1  0  0  0  0
  4  5  1  0  0  0  0
  4 22  1  0  0  0  0
  4 23  1  0  0  0  0
  5  6  1  0  0  0  0
  5 24  1  0  0  0  0
  5 25  1  0  0  0  0
  6 10  1  0  0  0  0
  6  7  1  0  0  0  0
  7  8  2  0  0  0  0
  7 26  1  0  0  0  0
  8  9  1  0  0  0  0
  8 27  1  0  0  0  0
  9 10  2  0  0  0  0
  9 28  1  0  0  0  0
 11 16  1  0  0  0  0
 11 12  1  0  0  0  0
 11 29  1  0  0  0  0
 12 13  1  0  0  0  0
 12 30  1  0  0  0  0
 12 31  1  0  0  0  0
 13 14  1  0  0  0  0
 13 32  1  0  0  0  0
 13 33  1  0  0  0  0
 14 15  1  0  0  0  0
 15 16  1  0  0  0  0
 15 34  1  0  0  0  0
 15 35  1  0  0  0  0
 16 36  1  0  0  0  0
 16 37  1  0  0  0  0
M  CHG  1   3   1
M  END
> <s_m_source_file>
AV-unprocessed.smi

> <i_m_source_file_index>
3205

> <i_lp_mmshare_version>
43012

> <i_f3d_flags>
0

> <s_epik_input>
W0NIMl0xW0NIMl1PW0NIMl1bQ0gyXVtDSF0xW0NASF0oW0NIM10pW05IXVtDSDJdW0NIMl1uMltjSF1bY0hdW2NIXW4y

> <s_epik_cmdline>
J2VwaWtfcHl0aG9uJywgJy1waCcsICc3LjAnLCAnLXRuJywgJzgnLCAnLW1hJywgJzIwMCcsICctbWV0YWxfYmluZGluZycsICctaW1hZScsICc8aW5maWxlLm1hZT4nLCAnLW9tYWUnLCAnPG91dGZpbGUubWFlPic=

> <r_lp_tautomer_probability>
1

> <r_epik_Ionization_Penalty>
0.00310903

> <r_epik_Ionization_Penalty_Charging>
0.00310601

> <r_epik_Ionization_Penalty_Neutral>
3.02836e-06

> <r_epik_State_Penalty>
-0

> <r_epik_Charging_Adjusted_Penalty>
0.00310601

> <i_epik_Tot_Q>
1

> <i_epik_Tot_abs_Q>
1

> <r_epik_Metal_State_Penalty>
-0

> <b_epik_Metal_Only>
0

> <s_lp_Force_Field>
OPLS_2005

> <r_lp_Energy>
15.8656

> <b_lp_Chiralities_Consistent>
1

> <s_lp_Variant>
AV-unprocessed.smi:3205-1

> <Gold.Version>
5.8.1

> <Gold.Id.Protein>
6NUR|6NUR_protein|mol2

> <Gold.PLP.Fitness>
44.1236

> <Gold.PLP.PLP>
-32.0358

> <Gold.PLP.part.hbond>
-3.0000

> <Gold.PLP.part.metal>
0.0000

> <Gold.PLP.part.buried>
-0.9172

> <Gold.PLP.part.nonpolar>
-29.2283

> <Gold.PLP.part.repulsive>
0.2115

> <Gold.PLP.ligand.clash>
0.0000

> <Gold.PLP.ligand.torsion>
1.4906

> <Gold.PLP.Chemscore.Hbond>
4.0000

> <Gold.PLP.Chemscore.CHOScore>
1.0000

> <Gold.PLP.Chemscore.Metal>
0.0000

> <Gold.Chemscore.Hbonds>
donor molecule, donor type, donor heavy atom, donor atom, acceptor molecule, acceptor atom, score
      L1  H     3    21       P1  7957  1.00
      L1  H     3    38       P1  7948  2.00
      P1  H  7997  8010       L1    14  0.93
      L1  C     7    26       P1  7921  1.00

> <Gold.PLP.Chemscore.Internal.Correction>
0.0690

> <Gold.Rescore>
     Score         DG    S(hbond)    S(metal)    S(lipo)     H(rot)  DE(clash)    DE(int)     intcor
     16.92     -19.24       2.81        0.00      73.71       1.66       0.63       1.69       ----

> <Gold.Chemscore.Fitness>
16.9224

> <Gold.Chemscore.DG>
-19.2443

> <Gold.Chemscore.ZeroCoef>
-5.4800

> <Gold.Chemscore.Hbond>
2.8109

> <Gold.Chemscore.Metal>
0.0000

> <Gold.Chemscore.Lipo>
73.7102

> <Gold.Chemscore.Internal_Hbond>
0.0000

> <Gold.Chemscore.DEClash>
0.6292

> <Gold.Chemscore.DEInternal>
1.6926

> <Gold.Chemscore.Rot>
1.6594

> <Gold.Chemscore.Internal.Correction>
   9.000000E+99

> <Gold.Chemscore.Hbonds>
donor molecule, donor type, donor heavy atom, donor atom, acceptor molecule, acceptor atom, score
      L1  H     3    21       P1  7957  1.00
      L1  H     3    38       P1  7948  0.95
      P1  H  7997  8010       L1    14  0.40

> <Gold.Chemscore.Hbond.Weighted>
-9.3884

> <Gold.Chemscore.Metal.Weighted>
-0.0000

> <Gold.Chemscore.Lipo.Weighted>
-8.6241

> <Gold.Chemscore.Internal_Hbond.Weighted>
0.0000

> <Gold.Chemscore.DEClash.Weighted>
0.6292

> <Gold.Chemscore.DEInternal.Weighted>
1.6926

> <Gold.Chemscore.Rot.Weighted>
4.2482

> <Gold.Chemscore.Internal.Correction.Weighted>
   9.000000E+99

> <Gold.Protein.RotatedTorsions>
[ 6907 6896 6895 6894 ] final  -82.71 input  -60.11 | X-H torsion
[ 7974 7965 7964 7962 ] final   99.02 input  175.53 | X-H torsion
[ 8008 7997 7996 7995 ] final   78.84 input   59.86 | X-H torsion
[ 10167 10162 10161 10158 ] final   -2.07 input  -65.29 | X-H torsion
[ 10718 10713 10712 10709 ] final   89.23 input   66.30 | X-H torsion
[ 10763 10752 10751 10750 ] final  133.64 input  -60.55 | X-H torsion
[ 11005 11000 10999 10996 ] final   96.74 input  -57.11 | X-H torsion

> <Gold.Protein.ActiveResidues>
 VAL166  LYS551  ARG553  GLY616  TRP617  ASP618  TYR619  PRO620  LYS621  CYS622 
 ASP623  PHE694  ASN695  SER759  ASP760  ASP761  ALA762  ILE779  LEU786  VAL792 
 PHE793  MET794  SER795  GLU796  ALA797  LYS798  CYS799  TRP800  GLU811  SER814 

> <Gold.Protein.RotatedAtoms>
  150.6894  134.3623  159.4955 H   0  0  0  0  0  0  0  0  0  0  0  0  # atno 6907 bound_to 6896
  152.1450  134.9030  160.0561 H   0  0  0  0  0  0  0  0  0  0  0  0  # atno 6908 bound_to 6896
  152.0149  133.3841  159.4272 H   0  0  0  0  0  0  0  0  0  0  0  0  # atno 6909 bound_to 6896
  145.4044  139.2343  143.3282 H   0  0  0  0  0  0  0  0  0  0  0  0  # atno 7974 bound_to 7965
  155.8614  140.3453  155.5759 H   0  0  0  0  0  0  0  0  0  0  0  0  # atno 8008 bound_to 7997
  155.7929  140.0874  157.2018 H   0  0  0  0  0  0  0  0  0  0  0  0  # atno 8009 bound_to 7997
  154.4012  140.1480  156.3172 H   0  0  0  0  0  0  0  0  0  0  0  0  # atno 8010 bound_to 7997
  140.6836  143.6700  150.8193 H   0  0  0  0  0  0  0  0  0  0  0  0  # atno 10167 bound_to 10162
  157.6954  131.0325  150.3394 H   0  0  0  0  0  0  0  0  0  0  0  0  # atno 10718 bound_to 10713
  153.8105  135.3129  155.3400 H   0  0  0  0  0  0  0  0  0  0  0  0  # atno 10763 bound_to 10752
  154.8053  135.4701  154.0380 H   0  0  0  0  0  0  0  0  0  0  0  0  # atno 10764 bound_to 10752
  153.1757  135.6885  153.8635 H   0  0  0  0  0  0  0  0  0  0  0  0  # atno 10765 bound_to 10752
  139.8780  134.8966  156.4203 H   0  0  0  0  0  0  0  0  0  0  0  0  # atno 11005 bound_to 11000
  146.2736  140.4746  142.8804 LP  0  0  0  0  0  0  0  0  0  0  0  0  # atno 17320 bound_to 7965
  144.8352  140.6770  143.6265 LP  0  0  0  0  0  0  0  0  0  0  0  0  # atno 17321 bound_to 7965
  140.0404  143.5352  152.2720 LP  0  0  0  0  0  0  0  0  0  0  0  0  # atno 17342 bound_to 10162
  139.6177  144.7623  151.2809 LP  0  0  0  0  0  0  0  0  0  0  0  0  # atno 17343 bound_to 10162
  156.3857  130.3888  149.7068 LP  0  0  0  0  0  0  0  0  0  0  0  0  # atno 17370 bound_to 10713
  156.4435  130.7872  151.2893 LP  0  0  0  0  0  0  0  0  0  0  0  0  # atno 17371 bound_to 10713
  140.9138  133.7693  155.9823 LP  0  0  0  0  0  0  0  0  0  0  0  0  # atno 17394 bound_to 11000
  140.8516  134.2947  157.5273 LP  0  0  0  0  0  0  0  0  0  0  0  0  # atno 17395 bound_to 11000

$$$$
