AV-unprocessed.smi:2303|AV-procd|sdf|9243|dock6
  -GOLD-   2272012463D 1   1.00000     0.00000
 Structure written by MMmdl.
 32 33  0  0  0  0  0  0  0  0  2 V2000
  152.1122  144.6912  158.3279 C   0  0  0  0  0  0  0  0  0  0  0  0
  151.7463  143.3720  159.0262 C   0  0  0  0  0  0  0  0  0  0  0  0
  152.7599  143.0182  160.1290 C   0  0  0  0  0  0  0  0  0  0  0  0
  151.5722  142.2393  158.0110 C   0  0  0  0  0  0  0  0  0  0  0  0
  150.5765  142.3403  157.0496 C   0  0  0  0  0  0  0  0  0  0  0  0
  150.4527  141.2238  156.1157 C   0  0  0  0  0  0  0  0  0  0  0  0
  149.4150  141.2135  155.0840 C   0  0  0  0  0  0  0  0  0  0  0  0
  149.6609  141.1642  153.8779 O   0  0  0  0  0  0  0  0  0  0  0  0
  148.1380  141.2587  155.5265 N   0  0  0  0  0  0  0  0  0  0  0  0
  146.9240  141.3229  154.7238 C   0  0  0  0  0  0  0  0  0  0  0  0
  145.8670  141.8098  155.6986 C   0  0  0  0  0  0  0  0  0  0  0  0
  146.6941  142.5719  156.7215 C   0  0  0  0  0  0  0  0  0  0  0  0
  147.8810  141.8026  156.8022 O   0  0  0  0  0  0  0  0  0  0  0  0
  151.2509  140.1389  156.2459 C   0  0  0  0  0  0  0  0  0  0  0  0
  152.2801  140.0965  157.2841 C   0  0  0  0  0  0  0  0  0  0  0  0
  153.0007  139.1040  157.3665 O   0  0  0  0  0  0  0  0  0  0  0  0
  152.4022  141.1656  158.1203 N   0  5  0  0  0  0  0  0  0  0  0  0
  151.3648  144.9570  157.5798 H   0  0  0  0  0  0  0  0  0  0  0  0
  153.0770  144.6224  157.8243 H   0  0  0  0  0  0  0  0  0  0  0  0
  152.1691  145.5117  159.0435 H   0  0  0  0  0  0  0  0  0  0  0  0
  150.7911  143.5361  159.5271 H   0  0  0  0  0  0  0  0  0  0  0  0
  152.4875  142.0868  160.6262 H   0  0  0  0  0  0  0  0  0  0  0  0
  152.7975  143.7987  160.8889 H   0  0  0  0  0  0  0  0  0  0  0  0
  153.7675  142.9007  159.7288 H   0  0  0  0  0  0  0  0  0  0  0  0
  149.9214  143.1979  157.0008 H   0  0  0  0  0  0  0  0  0  0  0  0
  147.0551  142.0363  153.9085 H   0  0  0  0  0  0  0  0  0  0  0  0
  146.6732  140.3515  154.2968 H   0  0  0  0  0  0  0  0  0  0  0  0
  145.0972  142.4221  155.2283 H   0  0  0  0  0  0  0  0  0  0  0  0
  145.3822  140.9579  156.1769 H   0  0  0  0  0  0  0  0  0  0  0  0
  146.9355  143.5720  156.3586 H   0  0  0  0  0  0  0  0  0  0  0  0
  146.2015  142.6615  157.6899 H   0  0  0  0  0  0  0  0  0  0  0  0
  151.1482  139.2937  155.5793 H   0  0  0  0  0  0  0  0  0  0  0  0
  1  2  1  0  0  0  0
  1 18  1  0  0  0  0
  1 19  1  0  0  0  0
  1 20  1  0  0  0  0
  2  3  1  0  0  0  0
  2 21  1  0  0  0  0
  2  4  1  0  0  0  0
  3 22  1  0  0  0  0
  3 23  1  0  0  0  0
  3 24  1  0  0  0  0
  4 17  1  0  0  0  0
  4  5  2  0  0  0  0
  5 25  1  0  0  0  0
  5  6  1  0  0  0  0
  6  7  1  0  0  0  0
  6 14  2  0  0  0  0
  7  8  2  0  0  0  0
  7  9  1  0  0  0  0
  9 13  1  0  0  0  0
  9 10  1  0  0  0  0
 10 11  1  0  0  0  0
 10 26  1  0  0  0  0
 10 27  1  0  0  0  0
 11 12  1  0  0  0  0
 11 28  1  0  0  0  0
 11 29  1  0  0  0  0
 12 13  1  0  0  0  0
 12 30  1  0  0  0  0
 12 31  1  0  0  0  0
 14 15  1  0  0  0  0
 14 32  1  0  0  0  0
 15 16  2  0  0  0  0
 15 17  1  0  0  0  0
M  CHG  1  17  -1
M  END
> <s_m_source_file>
AV-unprocessed.smi

> <i_m_source_file_index>
2303

> <i_lp_mmshare_version>
43012

> <i_f3d_flags>
0

> <s_epik_input>
W0NIM11bQ0hdKFtDSDNdKWMxW2NIXWMoW2NIXWMobjEpW09IXSlDKD1PKU4yW0NIMl1bQ0gyXVtDSDJdTzI=

> <s_epik_cmdline>
J2VwaWtfcHl0aG9uJywgJy1waCcsICc3LjAnLCAnLXRuJywgJzgnLCAnLW1hJywgJzIwMCcsICctbWV0YWxfYmluZGluZycsICctaW1hZScsICc8aW5maWxlLm1hZT4nLCAnLW9tYWUnLCAnPG91dGZpbGUubWFlPic=

> <r_lp_tautomer_probability>
1

> <r_epik_Ionization_Penalty>
5.39588

> <r_epik_Ionization_Penalty_Charging>
0.166011

> <r_epik_Ionization_Penalty_Neutral>
5.22987

> <r_epik_State_Penalty>
5.22978

> <r_epik_Charging_Adjusted_Penalty>
5.39579

> <i_epik_Tot_Q>
-1

> <i_epik_Tot_abs_Q>
1

> <r_epik_Metal_State_Penalty>
1.21816

> <b_epik_Metal_Only>
1

> <s_epik_Chemistry_Notes>
This compound has a N-S or N-O group and may undergo hydrolysis at high or low pH.

> <s_lp_Force_Field>
OPLS_2005

> <r_lp_Energy>
27.9757

> <b_lp_Chiralities_Consistent>
1

> <s_lp_Variant>
AV-unprocessed.smi:2303-2

> <Gold.Version>
5.8.1

> <Gold.Id.Protein>
6NUR|6NUR_protein|mol2

> <Gold.PLP.Fitness>
36.0498

> <Gold.PLP.PLP>
-31.5849

> <Gold.PLP.part.hbond>
-3.0000

> <Gold.PLP.part.metal>
0.0000

> <Gold.PLP.part.buried>
-0.8776

> <Gold.PLP.part.nonpolar>
-28.3162

> <Gold.PLP.part.repulsive>
1.5031

> <Gold.PLP.ligand.clash>
0.0000

> <Gold.PLP.ligand.torsion>
1.3481

> <Gold.PLP.Chemscore.Hbond>
1.9776

> <Gold.PLP.Chemscore.CHOScore>
0.0000

> <Gold.PLP.Chemscore.Metal>
0.0000

> <Gold.Chemscore.Hbonds>
donor molecule, donor type, donor heavy atom, donor atom, acceptor molecule, acceptor atom, score
      P1  H  7989  7998       L1     8  0.32
      P1  H  7997  8010       L1    16  0.78
      P1  H  8011  8017       L1     8  0.85

> <Gold.PLP.Chemscore.Internal.Correction>
1.2283

> <Gold.Rescore>
     Score         DG    S(hbond)    S(metal)    S(lipo)     H(rot)  DE(clash)    DE(int)     intcor
     13.58     -16.90       1.53        0.00      75.81       1.00       0.55       2.76       ----

> <Gold.Chemscore.Fitness>
13.5842

> <Gold.Chemscore.DG>
-16.8955

> <Gold.Chemscore.ZeroCoef>
-5.4800

> <Gold.Chemscore.Hbond>
1.5287

> <Gold.Chemscore.Metal>
0.0000

> <Gold.Chemscore.Lipo>
75.8095

> <Gold.Chemscore.Internal_Hbond>
0.0000

> <Gold.Chemscore.DEClash>
0.5524

> <Gold.Chemscore.DEInternal>
2.7589

> <Gold.Chemscore.Rot>
1.0000

> <Gold.Chemscore.Internal.Correction>
   9.000000E+99

> <Gold.Chemscore.Hbonds>
donor molecule, donor type, donor heavy atom, donor atom, acceptor molecule, acceptor atom, score
      P1  H  7989  7998       L1     8  0.27
      P1  H  7997  8010       L1    16  0.11
      P1  H  8011  8017       L1     8  0.80

> <Gold.Chemscore.Hbond.Weighted>
-5.1058

> <Gold.Chemscore.Metal.Weighted>
-0.0000

> <Gold.Chemscore.Lipo.Weighted>
-8.8697

> <Gold.Chemscore.Internal_Hbond.Weighted>
0.0000

> <Gold.Chemscore.DEClash.Weighted>
0.5524

> <Gold.Chemscore.DEInternal.Weighted>
2.7589

> <Gold.Chemscore.Rot.Weighted>
2.5600

> <Gold.Chemscore.Internal.Correction.Weighted>
   9.000000E+99

> <Gold.Protein.RotatedTorsions>
[ 6907 6896 6895 6894 ] final  -41.68 input  -60.11 | X-H torsion
[ 7974 7965 7964 7962 ] final -133.66 input  175.53 | X-H torsion
[ 8008 7997 7996 7995 ] final   28.80 input   59.86 | X-H torsion
[ 10167 10162 10161 10158 ] final -118.63 input  -65.29 | X-H torsion
[ 10718 10713 10712 10709 ] final   38.19 input   66.30 | X-H torsion
[ 10763 10752 10751 10750 ] final   24.16 input  -60.55 | X-H torsion
[ 11005 11000 10999 10996 ] final    0.50 input  -57.11 | X-H torsion

> <Gold.Protein.ActiveResidues>
 VAL166  LYS551  ARG553  GLY616  TRP617  ASP618  TYR619  PRO620  LYS621  CYS622 
 ASP623  PHE694  ASN695  SER759  ASP760  ASP761  ALA762  ILE779  LEU786  VAL792 
 PHE793  MET794  SER795  GLU796  ALA797  LYS798  CYS799  TRP800  GLU811  SER814 

> <Gold.Protein.RotatedAtoms>
  150.9639  134.9023  159.7746 H   0  0  0  0  0  0  0  0  0  0  0  0  # atno 6907 bound_to 6896
  152.5166  134.3635  159.9303 H   0  0  0  0  0  0  0  0  0  0  0  0  # atno 6908 bound_to 6896
  151.3646  133.3836  159.2728 H   0  0  0  0  0  0  0  0  0  0  0  0  # atno 6909 bound_to 6896
  144.9173  140.6971  143.4987 H   0  0  0  0  0  0  0  0  0  0  0  0  # atno 7974 bound_to 7965
  155.0644  140.3193  155.4650 H   0  0  0  0  0  0  0  0  0  0  0  0  # atno 8008 bound_to 7997
  156.2805  140.2123  156.5716 H   0  0  0  0  0  0  0  0  0  0  0  0  # atno 8009 bound_to 7997
  154.7106  140.0498  157.0533 H   0  0  0  0  0  0  0  0  0  0  0  0  # atno 8010 bound_to 7997
  140.0554  143.5019  152.2060 H   0  0  0  0  0  0  0  0  0  0  0  0  # atno 10167 bound_to 10162
  157.3559  130.7623  149.7012 H   0  0  0  0  0  0  0  0  0  0  0  0  # atno 10718 bound_to 10713
  153.0785  135.6611  154.0096 H   0  0  0  0  0  0  0  0  0  0  0  0  # atno 10763 bound_to 10752
  153.9724  135.2963  155.3428 H   0  0  0  0  0  0  0  0  0  0  0  0  # atno 10764 bound_to 10752
  154.7178  135.5177  153.8836 H   0  0  0  0  0  0  0  0  0  0  0  0  # atno 10765 bound_to 10752
  140.6259  133.9619  155.8248 H   0  0  0  0  0  0  0  0  0  0  0  0  # atno 11005 bound_to 11000
  145.3354  139.1747  143.4514 LP  0  0  0  0  0  0  0  0  0  0  0  0  # atno 17320 bound_to 7965
  146.3188  140.3389  142.8646 LP  0  0  0  0  0  0  0  0  0  0  0  0  # atno 17321 bound_to 7965
  139.5927  144.7556  151.3362 LP  0  0  0  0  0  0  0  0  0  0  0  0  # atno 17342 bound_to 10162
  140.7197  143.7169  150.7725 LP  0  0  0  0  0  0  0  0  0  0  0  0  # atno 17343 bound_to 10162
  155.9729  130.4127  150.4048 LP  0  0  0  0  0  0  0  0  0  0  0  0  # atno 17370 bound_to 10713
  157.2117  131.0462  151.2595 LP  0  0  0  0  0  0  0  0  0  0  0  0  # atno 17371 bound_to 10713
  141.0710  134.0205  157.3526 LP  0  0  0  0  0  0  0  0  0  0  0  0  # atno 17394 bound_to 11000
  139.9135  135.0194  156.7788 LP  0  0  0  0  0  0  0  0  0  0  0  0  # atno 17395 bound_to 11000

$$$$
