AV-unprocessed.smi:2538|AV-procd|sdf|9981|dock5
  -GOLD-   2272014 23D 1   1.00000     0.00000
 Structure written by MMmdl.
 48 49  0  0  0  0  0  0  0  0  1 V2000
  152.8823  143.1450  161.6865 C   0  0  0  0  0  0  0  0  0  0  0  0
  152.3623  142.6672  160.3421 C   0  0  0  0  0  0  0  0  0  0  0  0
  152.8716  141.4674  159.7958 C   0  0  0  0  0  0  0  0  0  0  0  0
  152.4154  140.9885  158.5483 C   0  0  0  0  0  0  0  0  0  0  0  0
  152.7701  139.8560  157.8353 N   0  0  0  0  0  0  0  0  0  0  0  0
  151.9993  139.9658  156.7571 C   0  0  0  0  0  0  0  0  0  0  0  0
  151.1853  141.0367  156.6883 N   0  0  0  0  0  0  0  0  0  0  0  0
  150.2576  141.3694  155.6224 C   0  0  0  0  0  0  0  0  0  0  0  0
  150.2963  140.3442  154.4727 C   0  0  2  0  0  0  0  0  0  0  0  0
  149.4483  140.8073  153.4398 O   0  0  0  0  0  0  0  0  0  0  0  0
  149.8111  138.9505  154.9266 C   0  0  0  0  0  0  0  0  0  0  0  0
  150.9115  137.9891  155.1320 N   0  0  0  0  0  0  0  0  0  0  0  0
  151.9558  137.9753  154.0991 C   0  0  0  0  0  0  0  0  0  0  0  0
  150.6592  136.5542  156.0789 S   0  0  0  0  0  0  0  0  0  0  0  0
  151.9466  135.8435  156.1260 O   0  0  0  0  0  0  0  0  0  0  0  0
  150.0055  136.9602  157.3331 O   0  0  0  0  0  0  0  0  0  0  0  0
  149.4676  135.5543  155.0597 C   0  0  0  0  0  0  0  0  0  0  0  0
  148.1529  135.3379  155.8226 C   0  0  0  0  0  0  0  0  0  0  0  0
  150.0989  134.2198  154.6379 C   0  0  0  0  0  0  0  0  0  0  0  0
  151.4282  141.7493  157.8568 C   0  0  0  0  0  0  0  0  0  0  0  0
  150.9136  142.9445  158.3893 C   0  0  0  0  0  0  0  0  0  0  0  0
  151.3791  143.4077  159.6378 C   0  0  0  0  0  0  0  0  0  0  0  0
  150.8155  144.6980  160.2060 C   0  0  0  0  0  0  0  0  0  0  0  0
  153.6763  142.4973  162.0593 H   0  0  0  0  0  0  0  0  0  0  0  0
  152.0802  143.1519  162.4249 H   0  0  0  0  0  0  0  0  0  0  0  0
  153.2871  144.1540  161.6048 H   0  0  0  0  0  0  0  0  0  0  0  0
  153.6194  140.9023  160.3324 H   0  0  0  0  0  0  0  0  0  0  0  0
  152.0252  139.2233  155.9731 H   0  0  0  0  0  0  0  0  0  0  0  0
  149.2566  141.4148  156.0531 H   0  0  0  0  0  0  0  0  0  0  0  0
  150.4860  142.3708  155.2542 H   0  0  0  0  0  0  0  0  0  0  0  0
  151.3165  140.2974  154.0943 H   0  0  0  0  0  0  0  0  0  0  0  0
  149.4473  140.1697  152.7425 H   0  0  0  0  0  0  0  0  0  0  0  0
  149.2832  139.0435  155.8764 H   0  0  0  0  0  0  0  0  0  0  0  0
  149.0731  138.5398  154.2367 H   0  0  0  0  0  0  0  0  0  0  0  0
  151.6535  137.3541  153.2562 H   0  0  0  0  0  0  0  0  0  0  0  0
  152.8833  137.5720  154.5053 H   0  0  0  0  0  0  0  0  0  0  0  0
  152.1583  138.9831  153.7360 H   0  0  0  0  0  0  0  0  0  0  0  0
  149.2431  136.1229  154.1602 H   0  0  0  0  0  0  0  0  0  0  0  0
  147.4446  134.7631  155.2258 H   0  0  0  0  0  0  0  0  0  0  0  0
  147.6760  136.2863  156.0696 H   0  0  0  0  0  0  0  0  0  0  0  0
  148.3217  134.7961  156.7536 H   0  0  0  0  0  0  0  0  0  0  0  0
  149.4232  133.6516  153.9983 H   0  0  0  0  0  0  0  0  0  0  0  0
  150.3363  133.6007  155.5038 H   0  0  0  0  0  0  0  0  0  0  0  0
  151.0207  134.3820  154.0785 H   0  0  0  0  0  0  0  0  0  0  0  0
  150.1657  143.4988  157.8416 H   0  0  0  0  0  0  0  0  0  0  0  0
  150.0310  145.1048  159.5674 H   0  0  0  0  0  0  0  0  0  0  0  0
  151.6001  145.4497  160.2943 H   0  0  0  0  0  0  0  0  0  0  0  0
  150.3864  144.5270  161.1934 H   0  0  0  0  0  0  0  0  0  0  0  0
  1  2  1  0  0  0  0
  1 24  1  0  0  0  0
  1 25  1  0  0  0  0
  1 26  1  0  0  0  0
  2 22  1  0  0  0  0
  2  3  2  0  0  0  0
  3  4  1  0  0  0  0
  3 27  1  0  0  0  0
  4 20  2  0  0  0  0
  4  5  1  0  0  0  0
  5  6  2  0  0  0  0
  6  7  1  0  0  0  0
  6 28  1  0  0  0  0
  7  8  1  0  0  0  0
  7 20  1  0  0  0  0
  8  9  1  0  0  0  0
  8 29  1  0  0  0  0
  8 30  1  0  0  0  0
  9 10  1  0  0  0  0
  9 11  1  0  0  0  0
  9 31  1  0  0  0  0
 10 32  1  0  0  0  0
 11 12  1  0  0  0  0
 11 33  1  0  0  0  0
 11 34  1  0  0  0  0
 12 13  1  0  0  0  0
 12 14  1  0  0  0  0
 13 35  1  0  0  0  0
 13 36  1  0  0  0  0
 13 37  1  0  0  0  0
 14 15  2  0  0  0  0
 14 16  2  0  0  0  0
 14 17  1  0  0  0  0
 17 18  1  0  0  0  0
 17 19  1  0  0  0  0
 17 38  1  0  0  0  0
 18 39  1  0  0  0  0
 18 40  1  0  0  0  0
 18 41  1  0  0  0  0
 19 42  1  0  0  0  0
 19 43  1  0  0  0  0
 19 44  1  0  0  0  0
 20 21  1  0  0  0  0
 21 22  2  0  0  0  0
 21 45  1  0  0  0  0
 22 23  1  0  0  0  0
 23 46  1  0  0  0  0
 23 47  1  0  0  0  0
 23 48  1  0  0  0  0
M  END
> <s_m_source_file>
AV-unprocessed.smi

> <i_m_source_file_index>
2538

> <i_lp_mmshare_version>
43012

> <i_f3d_flags>
0

> <s_epik_input>
W0NIM11jKFtjSF0xKWMoW0NIM10pW2NIXWMoYzEyKW4oW2NIXW4yKVtDSDJdW0NASF0oW09IXSlbQ0gyXU4oW0NIM10pUyg9TykoPU8pW0NIXShbQ0gzXSlbQ0gzXQ==

> <s_epik_cmdline>
J2VwaWtfcHl0aG9uJywgJy1waCcsICc3LjAnLCAnLXRuJywgJzgnLCAnLW1hJywgJzIwMCcsICctbWV0YWxfYmluZGluZycsICctaW1hZScsICc8aW5maWxlLm1hZT4nLCAnLW9tYWUnLCAnPG91dGZpbGUubWFlPic=

> <r_epik_Ionization_Penalty>
0.105018

> <r_epik_Ionization_Penalty_Charging>
0

> <r_epik_Ionization_Penalty_Neutral>
0.105018

> <r_epik_State_Penalty>
0.094904

> <r_epik_Charging_Adjusted_Penalty>
0.094904

> <i_epik_Tot_Q>
0

> <i_epik_Tot_abs_Q>
0

> <r_epik_Metal_State_Penalty>
0.000102919

> <b_epik_Metal_Only>
0

> <s_lp_Force_Field>
OPLS_2005

> <r_lp_Energy>
2.81525

> <b_lp_Chiralities_Consistent>
1

> <s_lp_Variant>
AV-unprocessed.smi:2538-1

> <Gold.Version>
5.8.1

> <Gold.Id.Protein>
6NUR|6NUR_protein|mol2

> <Gold.PLP.Fitness>
55.2342

> <Gold.PLP.PLP>
-45.3626

> <Gold.PLP.part.hbond>
-4.5374

> <Gold.PLP.part.metal>
0.0000

> <Gold.PLP.part.buried>
-3.3062

> <Gold.PLP.part.nonpolar>
-36.7702

> <Gold.PLP.part.repulsive>
0.0114

> <Gold.PLP.ligand.clash>
0.0000

> <Gold.PLP.ligand.torsion>
1.9888

> <Gold.PLP.Chemscore.Hbond>
3.7580

> <Gold.PLP.Chemscore.CHOScore>
0.0000

> <Gold.PLP.Chemscore.Metal>
0.0000

> <Gold.Chemscore.Hbonds>
donor molecule, donor type, donor heavy atom, donor atom, acceptor molecule, acceptor atom, score
      L1  H    10    32       P1  7957  0.83
      P1  H  7997  8009       L1     5  0.99
      P1  H  8011  8017       L1    10  0.85
      P1  H 10752 10765       L1    15  1.00

> <Gold.PLP.Chemscore.Internal.Correction>
2.5752

> <Gold.Rescore>
     Score         DG    S(hbond)    S(metal)    S(lipo)     H(rot)  DE(clash)    DE(int)     intcor
     16.82     -21.66       2.46        0.00     118.29       2.29       1.50       3.34       ----

> <Gold.Chemscore.Fitness>
16.8201

> <Gold.Chemscore.DG>
-21.6630

> <Gold.Chemscore.ZeroCoef>
-5.4800

> <Gold.Chemscore.Hbond>
2.4581

> <Gold.Chemscore.Metal>
0.0000

> <Gold.Chemscore.Lipo>
118.2901

> <Gold.Chemscore.Internal_Hbond>
0.0000

> <Gold.Chemscore.DEClash>
1.5032

> <Gold.Chemscore.DEInternal>
3.3397

> <Gold.Chemscore.Rot>
2.2917

> <Gold.Chemscore.Internal.Correction>
   9.000000E+99

> <Gold.Chemscore.Hbonds>
donor molecule, donor type, donor heavy atom, donor atom, acceptor molecule, acceptor atom, score
      L1  H    10    32       P1  7957  0.82
      P1  H  7997  8009       L1     5  0.24
      P1  H  8011  8017       L1    10  0.14
      P1  H 10752 10765       L1    15  1.00

> <Gold.Chemscore.Hbond.Weighted>
-8.2099

> <Gold.Chemscore.Metal.Weighted>
-0.0000

> <Gold.Chemscore.Lipo.Weighted>
-13.8399

> <Gold.Chemscore.Internal_Hbond.Weighted>
0.0000

> <Gold.Chemscore.DEClash.Weighted>
1.5032

> <Gold.Chemscore.DEInternal.Weighted>
3.3397

> <Gold.Chemscore.Rot.Weighted>
5.8669

> <Gold.Chemscore.Internal.Correction.Weighted>
   9.000000E+99

> <Gold.Protein.RotatedTorsions>
[ 6907 6896 6895 6894 ] final  117.96 input  -60.11 | X-H torsion
[ 7974 7965 7964 7962 ] final  -35.05 input  175.53 | X-H torsion
[ 8008 7997 7996 7995 ] final  150.39 input   59.86 | X-H torsion
[ 10167 10162 10161 10158 ] final  -47.19 input  -65.29 | X-H torsion
[ 10718 10713 10712 10709 ] final  154.00 input   66.30 | X-H torsion
[ 10763 10752 10751 10750 ] final -140.94 input  -60.55 | X-H torsion
[ 11005 11000 10999 10996 ] final  -58.25 input  -57.11 | X-H torsion

> <Gold.Protein.ActiveResidues>
 VAL166  LYS551  ARG553  GLY616  TRP617  ASP618  TYR619  PRO620  LYS621  CYS622 
 ASP623  PHE694  ASN695  SER759  ASP760  ASP761  ALA762  ILE779  LEU786  VAL792 
 PHE793  MET794  SER795  GLU796  ALA797  LYS798  CYS799  TRP800  GLU811  SER814 

> <Gold.Protein.RotatedAtoms>
  152.4576  133.7755  159.6821 H   0  0  0  0  0  0  0  0  0  0  0  0  # atno 6907 bound_to 6896
  150.8508  133.7780  159.3032 H   0  0  0  0  0  0  0  0  0  0  0  0  # atno 6908 bound_to 6896
  151.5376  135.1071  159.9970 H   0  0  0  0  0  0  0  0  0  0  0  0  # atno 6909 bound_to 6896
  146.0779  140.6112  142.8922 H   0  0  0  0  0  0  0  0  0  0  0  0  # atno 7974 bound_to 7965
  156.2717  140.2076  156.6009 H   0  0  0  0  0  0  0  0  0  0  0  0  # atno 8008 bound_to 7997
  154.6907  140.0530  157.0384 H   0  0  0  0  0  0  0  0  0  0  0  0  # atno 8009 bound_to 7997
  155.0870  140.3192  155.4587 H   0  0  0  0  0  0  0  0  0  0  0  0  # atno 8010 bound_to 7997
  140.6786  143.2796  151.3890 H   0  0  0  0  0  0  0  0  0  0  0  0  # atno 10167 bound_to 10162
  157.2374  131.0752  151.1814 H   0  0  0  0  0  0  0  0  0  0  0  0  # atno 10718 bound_to 10713
  154.8562  135.3539  154.5788 H   0  0  0  0  0  0  0  0  0  0  0  0  # atno 10763 bound_to 10752
  153.6399  135.6999  153.5250 H   0  0  0  0  0  0  0  0  0  0  0  0  # atno 10764 bound_to 10752
  153.2980  135.4215  155.1186 H   0  0  0  0  0  0  0  0  0  0  0  0  # atno 10765 bound_to 10752
  141.1199  133.6612  156.4891 H   0  0  0  0  0  0  0  0  0  0  0  0  # atno 11005 bound_to 11000
  144.7273  140.4566  143.6963 LP  0  0  0  0  0  0  0  0  0  0  0  0  # atno 17320 bound_to 7965
  145.6272  139.1531  143.2989 LP  0  0  0  0  0  0  0  0  0  0  0  0  # atno 17321 bound_to 7965
  139.6093  144.1131  152.2282 LP  0  0  0  0  0  0  0  0  0  0  0  0  # atno 17342 bound_to 10162
  140.0540  144.5910  150.7314 LP  0  0  0  0  0  0  0  0  0  0  0  0  # atno 17343 bound_to 10162
  157.3415  130.7035  149.6384 LP  0  0  0  0  0  0  0  0  0  0  0  0  # atno 17370 bound_to 10713
  155.9672  130.4278  150.4762 LP  0  0  0  0  0  0  0  0  0  0  0  0  # atno 17371 bound_to 10713
  140.4537  134.6905  157.5052 LP  0  0  0  0  0  0  0  0  0  0  0  0  # atno 17394 bound_to 11000
  140.0148  134.6635  155.9325 LP  0  0  0  0  0  0  0  0  0  0  0  0  # atno 17395 bound_to 11000

$$$$
