AV-unprocessed.smi:912|AV-procd|sdf|4143|dock1
  -GOLD-   22720 2 53D 1   1.00000     0.00000
 Structure written by MMmdl.
 27 27  0  0  0  0  0  0  0  0  2 V2000
  146.2915  136.7997  153.5240 C   0  0  0  0  0  0  0  0  0  0  0  0
  146.3316  135.6441  152.5973 N   0  3  0  0  0  0  0  0  0  0  0  0
  145.3727  135.6242  151.4545 C   0  0  2  0  0  0  0  0  0  0  0  0
  145.9343  136.4627  150.2761 C   0  0  0  0  0  0  0  0  0  0  0  0
  144.0190  136.1857  151.9602 C   0  0  0  0  0  0  0  0  0  0  0  0
  143.5079  137.2499  151.3295 N   0  0  0  0  0  0  0  0  0  0  0  0
  143.4273  135.6596  152.9010 O   0  0  0  0  0  0  0  0  0  0  0  0
  145.1501  134.1759  150.9689 C   0  0  0  0  0  0  0  0  0  0  0  0
  146.2176  133.3240  150.5857 C   0  0  0  0  0  0  0  0  0  0  0  0
  145.9268  132.0154  150.1497 C   0  0  0  0  0  0  0  0  0  0  0  0
  144.6760  131.5181  150.0725 N   0  0  0  0  0  0  0  0  0  0  0  0
  143.6572  132.3236  150.4336 C   0  0  0  0  0  0  0  0  0  0  0  0
  143.8394  133.6458  150.8836 C   0  0  0  0  0  0  0  0  0  0  0  0
  146.9755  136.6188  154.3530 H   0  0  0  0  0  0  0  0  0  0  0  0
  145.2977  136.9552  153.9441 H   0  0  0  0  0  0  0  0  0  0  0  0
  146.6137  137.7181  153.0336 H   0  0  0  0  0  0  0  0  0  0  0  0
  147.2641  135.5976  152.2122 H   0  0  0  0  0  0  0  0  0  0  0  0
  145.2713  136.4465  149.4105 H   0  0  0  0  0  0  0  0  0  0  0  0
  146.9008  136.0786  149.9482 H   0  0  0  0  0  0  0  0  0  0  0  0
  146.0702  137.5129  150.5351 H   0  0  0  0  0  0  0  0  0  0  0  0
  142.6153  137.6308  151.6086 H   0  0  0  0  0  0  0  0  0  0  0  0
  144.0090  137.6550  150.5511 H   0  0  0  0  0  0  0  0  0  0  0  0
  147.2499  133.6373  150.6142 H   0  0  0  0  0  0  0  0  0  0  0  0
  146.7242  131.3495  149.8547 H   0  0  0  0  0  0  0  0  0  0  0  0
  142.6651  131.9024  150.3635 H   0  0  0  0  0  0  0  0  0  0  0  0
  142.9790  134.2367  151.1616 H   0  0  0  0  0  0  0  0  0  0  0  0
  146.1730  134.8060  153.1377 H   0  0  0  0  0  0  0  0  0  0  0  0
  1  2  1  0  0  0  0
  1 14  1  0  0  0  0
  1 15  1  0  0  0  0
  1 16  1  0  0  0  0
  2  3  1  0  0  0  0
  2 17  1  0  0  0  0
  2 27  1  0  0  0  0
  3  4  1  0  0  0  0
  3  5  1  0  0  0  0
  3  8  1  0  0  0  0
  4 18  1  0  0  0  0
  4 19  1  0  0  0  0
  4 20  1  0  0  0  0
  5  6  1  0  0  0  0
  5  7  2  0  0  0  0
  6 21  1  0  0  0  0
  6 22  1  0  0  0  0
  8 13  1  0  0  0  0
  8  9  2  0  0  0  0
  9 10  1  0  0  0  0
  9 23  1  0  0  0  0
 10 11  2  0  0  0  0
 10 24  1  0  0  0  0
 11 12  1  0  0  0  0
 12 13  2  0  0  0  0
 12 25  1  0  0  0  0
 13 26  1  0  0  0  0
M  CHG  1   2   1
M  END
> <s_m_source_file>
AV-unprocessed.smi

> <i_m_source_file_index>
912

> <i_lp_mmshare_version>
43012

> <i_f3d_flags>
0

> <s_epik_input>
W0NIM11bTkhdW0NAQF0oW0NIM10pKEMoPU8pW05IMl0pYzFbY0hdW2NIXW5bY0hdW2NIXTE=

> <s_epik_cmdline>
J2VwaWtfcHl0aG9uJywgJy1waCcsICc3LjAnLCAnLXRuJywgJzgnLCAnLW1hJywgJzIwMCcsICctbWV0YWxfYmluZGluZycsICctaW1hZScsICc8aW5maWxlLm1hZT4nLCAnLW9tYWUnLCAnPG91dGZpbGUubWFlPic=

> <r_epik_Ionization_Penalty>
0.8426

> <r_epik_Ionization_Penalty_Charging>
0.842363

> <r_epik_Ionization_Penalty_Neutral>
0.000236815

> <r_epik_State_Penalty>
0.498415

> <r_epik_Charging_Adjusted_Penalty>
1.34078

> <i_epik_Tot_Q>
1

> <i_epik_Tot_abs_Q>
1

> <r_epik_Metal_State_Penalty>
0.661775

> <b_epik_Metal_Only>
0

> <s_lp_Force_Field>
OPLS_2005

> <r_lp_Energy>
11.5286

> <b_lp_Chiralities_Consistent>
1

> <s_lp_Variant>
AV-unprocessed.smi:912-4

> <Gold.Version>
5.8.1

> <Gold.Id.Protein>
6NUR|6NUR_protein|mol2

> <Gold.PLP.Fitness>
37.0783

> <Gold.PLP.PLP>
-22.6923

> <Gold.PLP.part.hbond>
-3.0000

> <Gold.PLP.part.metal>
0.0000

> <Gold.PLP.part.buried>
-1.0793

> <Gold.PLP.part.nonpolar>
-19.0063

> <Gold.PLP.part.repulsive>
0.2554

> <Gold.PLP.ligand.clash>
0.0000

> <Gold.PLP.ligand.torsion>
0.4778

> <Gold.PLP.Chemscore.Hbond>
3.1134

> <Gold.PLP.Chemscore.CHOScore>
1.9948

> <Gold.PLP.Chemscore.Metal>
0.0000

> <Gold.Chemscore.Hbonds>
donor molecule, donor type, donor heavy atom, donor atom, acceptor molecule, acceptor atom, score
      L1  H     2    17       P1  7948  2.00
      L1  H     6    22       P1 10171  0.11
      P1  H 10785 10796       L1    11  0.02
      L1  C    10    24       P1 10747  1.00
      L1  C    12    25       P1 10952  0.99

> <Gold.PLP.Chemscore.Internal.Correction>
0.0172

> <Gold.Rescore>
     Score         DG    S(hbond)    S(metal)    S(lipo)     H(rot)  DE(clash)    DE(int)     intcor
     11.94     -14.05       1.97        0.00      56.88       1.83       0.19       1.92       ----

> <Gold.Chemscore.Fitness>
11.9353

> <Gold.Chemscore.DG>
-14.0457

> <Gold.Chemscore.ZeroCoef>
-5.4800

> <Gold.Chemscore.Hbond>
1.9725

> <Gold.Chemscore.Metal>
0.0000

> <Gold.Chemscore.Lipo>
56.8775

> <Gold.Chemscore.Internal_Hbond>
0.0000

> <Gold.Chemscore.DEClash>
0.1941

> <Gold.Chemscore.DEInternal>
1.9162

> <Gold.Chemscore.Rot>
1.8270

> <Gold.Chemscore.Internal.Correction>
   9.000000E+99

> <Gold.Chemscore.Hbonds>
donor molecule, donor type, donor heavy atom, donor atom, acceptor molecule, acceptor atom, score
      L1  H     2    17       P1  7948  0.99
      L1  H     6    22       P1 10171  0.13

> <Gold.Chemscore.Hbond.Weighted>
-6.5881

> <Gold.Chemscore.Metal.Weighted>
-0.0000

> <Gold.Chemscore.Lipo.Weighted>
-6.6547

> <Gold.Chemscore.Internal_Hbond.Weighted>
0.0000

> <Gold.Chemscore.DEClash.Weighted>
0.1941

> <Gold.Chemscore.DEInternal.Weighted>
1.9162

> <Gold.Chemscore.Rot.Weighted>
4.6771

> <Gold.Chemscore.Internal.Correction.Weighted>
   9.000000E+99

> <Gold.Protein.RotatedTorsions>
[ 6907 6896 6895 6894 ] final  -45.56 input  -60.11 | X-H torsion
[ 7974 7965 7964 7962 ] final   54.15 input  175.53 | X-H torsion
[ 8008 7997 7996 7995 ] final   -5.31 input   59.86 | X-H torsion
[ 10167 10162 10161 10158 ] final  -76.92 input  -65.29 | X-H torsion
[ 10718 10713 10712 10709 ] final -136.09 input   66.30 | X-H torsion
[ 10763 10752 10751 10750 ] final -143.72 input  -60.55 | X-H torsion
[ 11005 11000 10999 10996 ] final   19.40 input  -57.11 | X-H torsion

> <Gold.Protein.ActiveResidues>
 VAL166  LYS551  ARG553  GLY616  TRP617  ASP618  TYR619  PRO620  LYS621  CYS622 
 ASP623  PHE694  ASN695  SER759  ASP760  ASP761  ALA762  ILE779  LEU786  VAL792 
 PHE793  MET794  SER795  GLU796  ALA797  LYS798  CYS799  TRP800  GLU811  SER814 

> <Gold.Protein.RotatedAtoms>
  150.9207  134.8624  159.7486 H   0  0  0  0  0  0  0  0  0  0  0  0  # atno 6907 bound_to 6896
  152.4991  134.4223  159.9494 H   0  0  0  0  0  0  0  0  0  0  0  0  # atno 6908 bound_to 6896
  151.4257  133.3645  159.2797 H   0  0  0  0  0  0  0  0  0  0  0  0  # atno 6909 bound_to 6896
  145.9638  139.4084  143.0232 H   0  0  0  0  0  0  0  0  0  0  0  0  # atno 7974 bound_to 7965
  154.6052  140.2462  155.7740 H   0  0  0  0  0  0  0  0  0  0  0  0  # atno 8008 bound_to 7997
  156.2336  140.2958  156.0206 H   0  0  0  0  0  0  0  0  0  0  0  0  # atno 8009 bound_to 7997
  155.2143  140.0398  157.2929 H   0  0  0  0  0  0  0  0  0  0  0  0  # atno 8010 bound_to 7997
  140.4815  143.2401  151.8050 H   0  0  0  0  0  0  0  0  0  0  0  0  # atno 10167 bound_to 10162
  156.2733  130.7278  151.1252 H   0  0  0  0  0  0  0  0  0  0  0  0  # atno 10718 bound_to 10713
  154.8458  135.3460  154.6232 H   0  0  0  0  0  0  0  0  0  0  0  0  # atno 10763 bound_to 10752
  153.6841  135.6978  153.5114 H   0  0  0  0  0  0  0  0  0  0  0  0  # atno 10764 bound_to 10752
  153.2645  135.4312  155.0883 H   0  0  0  0  0  0  0  0  0  0  0  0  # atno 10765 bound_to 10752
  140.4141  134.1588  155.7669 H   0  0  0  0  0  0  0  0  0  0  0  0  # atno 11005 bound_to 11000
  145.8002  140.9774  143.1003 LP  0  0  0  0  0  0  0  0  0  0  0  0  # atno 17320 bound_to 7965
  144.6821  139.9792  143.7483 LP  0  0  0  0  0  0  0  0  0  0  0  0  # atno 17321 bound_to 7965
  139.4834  144.4766  151.9359 LP  0  0  0  0  0  0  0  0  0  0  0  0  # atno 17342 bound_to 10162
  140.3851  144.2686  150.5904 LP  0  0  0  0  0  0  0  0  0  0  0  0  # atno 17343 bound_to 10162
  157.7291  131.0627  150.5790 LP  0  0  0  0  0  0  0  0  0  0  0  0  # atno 17370 bound_to 10713
  156.5888  130.4324  149.5945 LP  0  0  0  0  0  0  0  0  0  0  0  0  # atno 17371 bound_to 10713
  141.1810  133.8414  157.1258 LP  0  0  0  0  0  0  0  0  0  0  0  0  # atno 17394 bound_to 11000
  140.0247  134.9930  157.0661 LP  0  0  0  0  0  0  0  0  0  0  0  0  # atno 17395 bound_to 11000

$$$$
