AV-unprocessed.smi:34|AV-procd|sdf|233|dock6
  -GOLD-   2262015573D 1   1.00000     0.00000
 Structure written by MMmdl.
 54 58  0  0  0  0  0  0  0  0  2 V2000
  151.6316  139.9396  158.9838 O   0  0  0  0  0  0  0  0  0  0  0  0
  151.5468  140.8785  158.1893 C   0  0  0  0  0  0  0  0  0  0  0  0
  151.3642  140.8193  156.8457 N   0  5  0  0  0  0  0  0  0  0  0  0
  151.6313  139.6847  156.1812 C   0  0  0  0  0  0  0  0  0  0  0  0
  152.5074  139.6876  155.1446 N   0  0  0  0  0  0  0  0  0  0  0  0
  152.7626  138.5592  154.4730 C   0  0  0  0  0  0  0  0  0  0  0  0
  152.2546  137.3381  154.6617 N   0  0  0  0  0  0  0  0  0  0  0  0
  151.3679  137.3192  155.6979 C   0  0  0  0  0  0  0  0  0  0  0  0
  151.0078  138.4454  156.4950 C   0  0  0  0  0  0  0  0  0  0  0  0
  150.0795  138.0883  157.4613 N   0  0  0  0  0  0  0  0  0  0  0  0
  149.9232  136.7898  157.2158 C   0  0  0  0  0  0  0  0  0  0  0  0
  150.6323  136.2565  156.2014 N   0  0  0  0  0  0  0  0  0  0  0  0
  150.5982  134.8331  155.7443 C   0  0  2  0  0  0  0  0  0  0  0  0
  150.0817  134.7840  154.4463 O   0  0  0  0  0  0  0  0  0  0  0  0
  149.1373  133.7154  154.3139 C   0  0  2  0  0  0  0  0  0  0  0  0
  147.7265  134.2855  154.1107 C   0  0  0  0  0  0  0  0  0  0  0  0
  147.1979  133.8210  152.8793 O   0  0  0  0  0  0  0  0  0  0  0  0
  146.1335  134.4379  152.3292 C   0  0  0  0  0  0  0  0  0  0  0  0
  145.6378  135.4737  152.7779 O   0  0  0  0  0  0  0  0  0  0  0  0
  145.6170  133.7376  151.1185 C   0  0  0  0  0  0  0  0  0  0  0  0
  144.3654  134.1179  150.5805 C   0  0  0  0  0  0  0  0  0  0  0  0
  143.8513  133.4766  149.4367 C   0  0  0  0  0  0  0  0  0  0  0  0
  144.5830  132.4472  148.8168 C   0  0  0  0  0  0  0  0  0  0  0  0
  145.8299  132.0602  149.3417 C   0  0  0  0  0  0  0  0  0  0  0  0
  146.3460  132.7007  150.4853 C   0  0  0  0  0  0  0  0  0  0  0  0
  149.2527  132.9273  155.6208 C   0  0  1  0  0  0  0  0  0  0  0  0
  150.2221  132.0208  155.4656 F   0  0  0  0  0  0  0  0  0  0  0  0
  149.6647  133.9992  156.6165 C   0  0  1  0  0  0  0  0  0  0  0  0
  150.2972  133.4189  157.7394 O   0  0  0  0  0  0  0  0  0  0  0  0
  151.7206  142.2825  158.7040 C   0  0  0  0  0  0  0  0  0  0  0  0
  152.1286  142.4929  160.0411 C   0  0  0  0  0  0  0  0  0  0  0  0
  152.2722  143.7987  160.5496 C   0  0  0  0  0  0  0  0  0  0  0  0
  152.0009  144.9091  159.7285 C   0  0  0  0  0  0  0  0  0  0  0  0
  151.5811  144.7124  158.3996 C   0  0  0  0  0  0  0  0  0  0  0  0
  151.4364  143.4070  157.8907 C   0  0  0  0  0  0  0  0  0  0  0  0
  153.4747  138.6471  153.6658 H   0  0  0  0  0  0  0  0  0  0  0  0
  149.2458  136.1901  157.8058 H   0  0  0  0  0  0  0  0  0  0  0  0
  151.6345  134.4907  155.7497 H   0  0  0  0  0  0  0  0  0  0  0  0
  149.3999  133.0896  153.4598 H   0  0  0  0  0  0  0  0  0  0  0  0
  147.0722  133.9550  154.9181 H   0  0  0  0  0  0  0  0  0  0  0  0
  147.7469  135.3747  154.1424 H   0  0  0  0  0  0  0  0  0  0  0  0
  143.7857  134.9063  151.0386 H   0  0  0  0  0  0  0  0  0  0  0  0
  142.8946  133.7766  149.0346 H   0  0  0  0  0  0  0  0  0  0  0  0
  144.1890  131.9564  147.9391 H   0  0  0  0  0  0  0  0  0  0  0  0
  146.3929  131.2706  148.8662 H   0  0  0  0  0  0  0  0  0  0  0  0
  147.3071  132.3811  150.8609 H   0  0  0  0  0  0  0  0  0  0  0  0
  148.3432  132.3941  155.8996 H   0  0  0  0  0  0  0  0  0  0  0  0
  148.8025  134.5962  156.9183 H   0  0  0  0  0  0  0  0  0  0  0  0
  150.6992  132.6068  157.4701 H   0  0  0  0  0  0  0  0  0  0  0  0
  152.3393  141.6514  160.6851 H   0  0  0  0  0  0  0  0  0  0  0  0
  152.5896  143.9474  161.5710 H   0  0  0  0  0  0  0  0  0  0  0  0
  152.1103  145.9101  160.1185 H   0  0  0  0  0  0  0  0  0  0  0  0
  151.3662  145.5629  157.7698 H   0  0  0  0  0  0  0  0  0  0  0  0
  151.1019  143.2784  156.8713 H   0  0  0  0  0  0  0  0  0  0  0  0
  1  2  2  0  0  0  0
  2  3  1  0  0  0  0
  2 30  1  0  0  0  0
  3  4  1  0  0  0  0
  4  9  1  0  0  0  0
  4  5  2  0  0  0  0
  5  6  1  0  0  0  0
  6  7  2  0  0  0  0
  6 36  1  0  0  0  0
  7  8  1  0  0  0  0
  8 12  1  0  0  0  0
  8  9  2  0  0  0  0
  9 10  1  0  0  0  0
 10 11  2  0  0  0  0
 11 12  1  0  0  0  0
 11 37  1  0  0  0  0
 12 13  1  0  0  0  0
 13 28  1  0  0  0  0
 13 14  1  0  0  0  0
 13 38  1  0  0  0  0
 14 15  1  0  0  0  0
 15 16  1  0  0  0  0
 15 26  1  0  0  0  0
 15 39  1  0  0  0  0
 16 17  1  0  0  0  0
 16 40  1  0  0  0  0
 16 41  1  0  0  0  0
 17 18  1  0  0  0  0
 18 19  2  0  0  0  0
 18 20  1  0  0  0  0
 20 25  1  0  0  0  0
 20 21  2  0  0  0  0
 21 22  1  0  0  0  0
 21 42  1  0  0  0  0
 22 23  2  0  0  0  0
 22 43  1  0  0  0  0
 23 24  1  0  0  0  0
 23 44  1  0  0  0  0
 24 25  2  0  0  0  0
 24 45  1  0  0  0  0
 25 46  1  0  0  0  0
 26 27  1  0  0  0  0
 26 28  1  0  0  0  0
 26 47  1  0  0  0  0
 28 29  1  0  0  0  0
 28 48  1  0  0  0  0
 29 49  1  0  0  0  0
 30 35  1  0  0  0  0
 30 31  2  0  0  0  0
 31 32  1  0  0  0  0
 31 50  1  0  0  0  0
 32 33  2  0  0  0  0
 32 51  1  0  0  0  0
 33 34  1  0  0  0  0
 33 52  1  0  0  0  0
 34 35  2  0  0  0  0
 34 53  1  0  0  0  0
 35 54  1  0  0  0  0
M  CHG  1   3  -1
M  END
> <s_m_source_file>
AV-unprocessed.smi

> <i_m_source_file_index>
34

> <i_lp_mmshare_version>
43012

> <i_f3d_flags>
0

> <s_epik_input>
W2NIXTFbY0hdW2NIXVtjSF1bY0hdYzFDKD1PKVtOSF1jKG5bY0hdbjIpYyhjMjMpbltjSF1uM1tDQEBIXTRPW0NASF0oW0NAQEhdKEYpW0NASF00W09IXSlbQ0gyXU9DKD1PKWM1W2NIXVtjSF1bY0hdW2NIXVtjSF01

> <s_epik_cmdline>
J2VwaWtfcHl0aG9uJywgJy1waCcsICc3LjAnLCAnLXRuJywgJzgnLCAnLW1hJywgJzIwMCcsICctbWV0YWxfYmluZGluZycsICctaW1hZScsICc8aW5maWxlLm1hZT4nLCAnLW9tYWUnLCAnPG91dGZpbGUubWFlPic=

> <r_lp_tautomer_probability>
1

> <r_epik_Ionization_Penalty>
4.33227

> <r_epik_Ionization_Penalty_Charging>
3.41027

> <r_epik_Ionization_Penalty_Neutral>
0.922001

> <r_epik_State_Penalty>
3.41358

> <r_epik_Charging_Adjusted_Penalty>
6.82385

> <i_epik_Tot_Q>
-1

> <i_epik_Tot_abs_Q>
1

> <r_epik_Metal_State_Penalty>
0.496292

> <b_epik_Metal_Only>
1

> <s_epik_Chemistry_Notes>
This compound has an ester and may undergo hydrolysis at high or low pH. This compound contains an acetal/aminal-like group ( X-CH(R)-Y where X, Y are N, S, or O) that may be acid/base labile, releasing an aldehyde.

> <s_lp_Force_Field>
OPLS_2005

> <r_lp_Energy>
46.7296

> <b_lp_Chiralities_Consistent>
1

> <s_lp_Variant>
AV-unprocessed.smi:34-19

> <Gold.Version>
5.8.1

> <Gold.Id.Protein>
6NUR|6NUR_protein|mol2

> <Gold.PLP.Fitness>
68.1952

> <Gold.PLP.PLP>
-62.3448

> <Gold.PLP.part.hbond>
-3.8126

> <Gold.PLP.part.metal>
0.0000

> <Gold.PLP.part.buried>
-6.0333

> <Gold.PLP.part.nonpolar>
-53.6448

> <Gold.PLP.part.repulsive>
0.6576

> <Gold.PLP.ligand.clash>
0.0000

> <Gold.PLP.ligand.torsion>
1.5998

> <Gold.PLP.Chemscore.Hbond>
2.9313

> <Gold.PLP.Chemscore.CHOScore>
0.0000

> <Gold.PLP.Chemscore.Metal>
0.0000

> <Gold.Chemscore.Hbonds>
donor molecule, donor type, donor heavy atom, donor atom, acceptor molecule, acceptor atom, score
      P1  H  6896  6907       L1    29  0.95
      P1  H  7989  7998       L1     5  0.38
      P1  H  7997  8009       L1     5  0.73
      P1  H 10752 10763       L1     7  0.70

> <Gold.PLP.Chemscore.Internal.Correction>
0.2562

> <Gold.Rescore>
     Score         DG    S(hbond)    S(metal)    S(lipo)     H(rot)  DE(clash)    DE(int)     intcor
     17.75     -22.07       1.91        0.00     146.39       2.69       0.11       4.21       ----

> <Gold.Chemscore.Fitness>
17.7535

> <Gold.Chemscore.DG>
-22.0737

> <Gold.Chemscore.ZeroCoef>
-5.4800

> <Gold.Chemscore.Hbond>
1.9053

> <Gold.Chemscore.Metal>
0.0000

> <Gold.Chemscore.Lipo>
146.3891

> <Gold.Chemscore.Internal_Hbond>
0.0000

> <Gold.Chemscore.DEClash>
0.1114

> <Gold.Chemscore.DEInternal>
4.2088

> <Gold.Chemscore.Rot>
2.6944

> <Gold.Chemscore.Internal.Correction>
   9.000000E+99

> <Gold.Chemscore.Hbonds>
donor molecule, donor type, donor heavy atom, donor atom, acceptor molecule, acceptor atom, score
      P1  H  6896  6907       L1    29  0.21
      P1  H  7989  7998       L1     5  0.07
      P1  H  7997  8009       L1     5  0.15
      P1  H 10752 10763       L1     7  0.65

> <Gold.Chemscore.Hbond.Weighted>
-6.3637

> <Gold.Chemscore.Metal.Weighted>
-0.0000

> <Gold.Chemscore.Lipo.Weighted>
-17.1275

> <Gold.Chemscore.Internal_Hbond.Weighted>
0.0000

> <Gold.Chemscore.DEClash.Weighted>
0.1114

> <Gold.Chemscore.DEInternal.Weighted>
4.2088

> <Gold.Chemscore.Rot.Weighted>
6.8975

> <Gold.Chemscore.Internal.Correction.Weighted>
   9.000000E+99

> <Gold.Protein.RotatedTorsions>
[ 6907 6896 6895 6894 ] final -138.50 input  -60.11 | X-H torsion
[ 7974 7965 7964 7962 ] final -124.79 input  175.53 | X-H torsion
[ 8008 7997 7996 7995 ] final -146.84 input   59.86 | X-H torsion
[ 10167 10162 10161 10158 ] final  149.02 input  -65.29 | X-H torsion
[ 10718 10713 10712 10709 ] final  -87.30 input   66.30 | X-H torsion
[ 10763 10752 10751 10750 ] final   34.44 input  -60.55 | X-H torsion
[ 11005 11000 10999 10996 ] final  -16.28 input  -57.11 | X-H torsion

> <Gold.Protein.ActiveResidues>
 VAL166  LYS551  ARG553  GLY616  TRP617  ASP618  TYR619  PRO620  LYS621  CYS622 
 ASP623  PHE694  ASN695  SER759  ASP760  ASP761  ALA762  ILE779  LEU786  VAL792 
 PHE793  MET794  SER795  GLU796  ALA797  LYS798  CYS799  TRP800  GLU811  SER814 

> <Gold.Protein.RotatedAtoms>
  151.0358  133.5750  159.2655 H   0  0  0  0  0  0  0  0  0  0  0  0  # atno 6907 bound_to 6896
  151.2814  135.0714  159.9180 H   0  0  0  0  0  0  0  0  0  0  0  0  # atno 6908 bound_to 6896
  152.5354  134.0072  159.7976 H   0  0  0  0  0  0  0  0  0  0  0  0  # atno 6909 bound_to 6896
  145.0044  140.7849  143.4476 H   0  0  0  0  0  0  0  0  0  0  0  0  # atno 7974 bound_to 7965
  155.5659  140.0629  157.2818 H   0  0  0  0  0  0  0  0  0  0  0  0  # atno 8008 bound_to 7997
  154.4376  140.1877  156.0875 H   0  0  0  0  0  0  0  0  0  0  0  0  # atno 8009 bound_to 7997
  156.0413  140.3295  155.7250 H   0  0  0  0  0  0  0  0  0  0  0  0  # atno 8010 bound_to 7997
  139.4867  144.5634  151.7189 H   0  0  0  0  0  0  0  0  0  0  0  0  # atno 10167 bound_to 10162
  155.9986  130.4795  150.4845 H   0  0  0  0  0  0  0  0  0  0  0  0  # atno 10718 bound_to 10713
  153.0164  135.6360  154.1670 H   0  0  0  0  0  0  0  0  0  0  0  0  # atno 10763 bound_to 10752
  154.1408  135.2835  155.3163 H   0  0  0  0  0  0  0  0  0  0  0  0  # atno 10764 bound_to 10752
  154.6126  135.5551  153.7550 H   0  0  0  0  0  0  0  0  0  0  0  0  # atno 10765 bound_to 10752
  140.8051  133.8183  155.9508 H   0  0  0  0  0  0  0  0  0  0  0  0  # atno 11005 bound_to 11000
  145.2109  139.2205  143.5143 LP  0  0  0  0  0  0  0  0  0  0  0  0  # atno 17320 bound_to 7965
  146.3458  140.1946  142.8589 LP  0  0  0  0  0  0  0  0  0  0  0  0  # atno 17321 bound_to 7965
  140.5208  144.0882  150.6022 LP  0  0  0  0  0  0  0  0  0  0  0  0  # atno 17342 bound_to 10162
  140.3839  143.2788  152.0138 LP  0  0  0  0  0  0  0  0  0  0  0  0  # atno 17343 bound_to 10162
  157.2847  131.0614  151.2174 LP  0  0  0  0  0  0  0  0  0  0  0  0  # atno 17370 bound_to 10713
  157.3208  130.6936  149.6268 LP  0  0  0  0  0  0  0  0  0  0  0  0  # atno 17371 bound_to 10713
  140.9255  134.2088  157.4899 LP  0  0  0  0  0  0  0  0  0  0  0  0  # atno 17394 bound_to 11000
  139.8718  134.9810  156.5100 LP  0  0  0  0  0  0  0  0  0  0  0  0  # atno 17395 bound_to 11000

$$$$
