AV-unprocessed.smi:694|AV-procd|sdf|3377|dock1
  -GOLD-   22720 0353D 1   1.00000     0.00000
 Structure written by MMmdl.
 43 44  0  0  0  0  0  0  0  0  2 V2000
  151.5813  144.2273  157.6306 C   0  0  0  0  0  0  0  0  0  0  0  0
  151.5321  142.7967  157.9111 N   0  0  0  0  0  0  0  0  0  0  0  0
  152.1222  142.2666  159.1335 C   0  0  0  0  0  0  0  0  0  0  0  0
  150.9711  141.9147  156.9623 C   0  0  0  0  0  0  0  0  0  0  0  0
  151.2335  140.5231  156.9461 C   0  0  0  0  0  0  0  0  0  0  0  0
  150.6336  139.7076  155.9647 C   0  0  0  0  0  0  0  0  0  0  0  0
  149.7773  140.2791  155.0005 C   0  0  0  0  0  0  0  0  0  0  0  0
  149.1917  139.4062  154.0420 N   0  0  0  0  0  0  0  0  0  0  0  0
  148.0536  139.5558  153.3417 C   0  0  0  0  0  0  0  0  0  0  0  0
  147.3122  140.5366  153.3860 O   0  0  0  0  0  0  0  0  0  0  0  0
  147.8206  138.4875  152.5657 N   0  0  0  0  0  0  0  0  0  0  0  0
  146.6684  138.3147  151.6858 C   0  0  0  0  0  0  0  0  0  0  0  0
  145.8378  137.0702  152.0660 C   0  0  1  0  0  0  0  0  0  0  0  0
  144.3520  137.3249  152.3563 C   0  0  0  0  0  0  0  0  0  0  0  0
  143.6523  135.9711  152.1637 C   0  0  0  0  0  0  0  0  0  0  0  0
  144.6680  135.0476  151.4720 C   0  0  0  0  0  0  0  0  0  0  0  0
  145.8192  135.9504  151.0151 C   0  0  1  0  0  0  0  0  0  0  0  0
  145.5235  136.4551  149.7259 O   0  0  0  0  0  0  0  0  0  0  0  0
  149.5412  141.6736  155.0628 C   0  0  0  0  0  0  0  0  0  0  0  0
  150.1369  142.4173  156.0196 N   0  3  0  0  0  0  0  0  0  0  0  0
  150.5764  144.6242  157.4833 H   0  0  0  0  0  0  0  0  0  0  0  0
  152.1674  144.4214  156.7317 H   0  0  0  0  0  0  0  0  0  0  0  0
  152.0390  144.7774  158.4531 H   0  0  0  0  0  0  0  0  0  0  0  0
  152.9410  141.5854  158.9001 H   0  0  0  0  0  0  0  0  0  0  0  0
  151.3752  141.7281  159.7173 H   0  0  0  0  0  0  0  0  0  0  0  0
  152.5214  143.0644  159.7599 H   0  0  0  0  0  0  0  0  0  0  0  0
  151.8864  140.0637  157.6730 H   0  0  0  0  0  0  0  0  0  0  0  0
  150.8347  138.6463  155.9562 H   0  0  0  0  0  0  0  0  0  0  0  0
  149.7124  138.5618  153.8552 H   0  0  0  0  0  0  0  0  0  0  0  0
  148.4868  137.7295  152.5886 H   0  0  0  0  0  0  0  0  0  0  0  0
  146.0495  139.2135  151.6826 H   0  0  0  0  0  0  0  0  0  0  0  0
  147.0446  138.2019  150.6689 H   0  0  0  0  0  0  0  0  0  0  0  0
  146.2743  136.6442  152.9713 H   0  0  0  0  0  0  0  0  0  0  0  0
  144.1899  137.7340  153.3538 H   0  0  0  0  0  0  0  0  0  0  0  0
  143.9510  138.0430  151.6396 H   0  0  0  0  0  0  0  0  0  0  0  0
  143.3425  135.5483  153.1201 H   0  0  0  0  0  0  0  0  0  0  0  0
  142.7550  136.0917  151.5554 H   0  0  0  0  0  0  0  0  0  0  0  0
  145.0463  134.3293  152.2005 H   0  0  0  0  0  0  0  0  0  0  0  0
  144.2272  134.4728  150.6564 H   0  0  0  0  0  0  0  0  0  0  0  0
  146.7666  135.4120  150.9738 H   0  0  0  0  0  0  0  0  0  0  0  0
  145.5801  135.7456  149.1044 H   0  0  0  0  0  0  0  0  0  0  0  0
  148.8982  142.2319  154.4002 H   0  0  0  0  0  0  0  0  0  0  0  0
  149.9442  143.4188  156.0338 H   0  0  0  0  0  0  0  0  0  0  0  0
  1  2  1  0  0  0  0
  1 21  1  0  0  0  0
  1 22  1  0  0  0  0
  1 23  1  0  0  0  0
  2  3  1  0  0  0  0
  2  4  1  0  0  0  0
  3 24  1  0  0  0  0
  3 25  1  0  0  0  0
  3 26  1  0  0  0  0
  4 20  1  0  0  0  0
  4  5  2  0  0  0  0
  5  6  1  0  0  0  0
  5 27  1  0  0  0  0
  6  7  2  0  0  0  0
  6 28  1  0  0  0  0
  7  8  1  0  0  0  0
  7 19  1  0  0  0  0
  8  9  1  0  0  0  0
  8 29  1  0  0  0  0
  9 10  2  0  0  0  0
  9 11  1  0  0  0  0
 11 12  1  0  0  0  0
 11 30  1  0  0  0  0
 12 13  1  0  0  0  0
 12 31  1  0  0  0  0
 12 32  1  0  0  0  0
 13 17  1  0  0  0  0
 13 14  1  0  0  0  0
 13 33  1  0  0  0  0
 14 15  1  0  0  0  0
 14 34  1  0  0  0  0
 14 35  1  0  0  0  0
 15 16  1  0  0  0  0
 15 36  1  0  0  0  0
 15 37  1  0  0  0  0
 16 17  1  0  0  0  0
 16 38  1  0  0  0  0
 16 39  1  0  0  0  0
 17 18  1  0  0  0  0
 17 40  1  0  0  0  0
 18 41  1  0  0  0  0
 19 20  2  0  0  0  0
 19 42  1  0  0  0  0
 20 43  1  0  0  0  0
M  CHG  1  20   1
M  END
> <s_m_source_file>
AV-unprocessed.smi

> <i_m_source_file_index>
694

> <i_lp_mmshare_version>
43012

> <i_f3d_flags>
0

> <s_epik_input>
W0NIM11OKFtDSDNdKWMxW2NIXVtjSF1jKFtjSF1uMSlbTkhdQyg9TylbTkhdW0NIMl1bQ0BASF0yW0NIMl1bQ0gyXVtDSDJdW0NASF0yW09IXQ==

> <s_epik_cmdline>
J2VwaWtfcHl0aG9uJywgJy1waCcsICc3LjAnLCAnLXRuJywgJzgnLCAnLW1hJywgJzIwMCcsICctbWV0YWxfYmluZGluZycsICctaW1hZScsICc8aW5maWxlLm1hZT4nLCAnLW9tYWUnLCAnPG91dGZpbGUubWFlPic=

> <r_lp_tautomer_probability>
0.999994

> <r_epik_Ionization_Penalty>
0.266135

> <r_epik_Ionization_Penalty_Charging>
0.266113

> <r_epik_Ionization_Penalty_Neutral>
2.14137e-05

> <r_epik_State_Penalty>
0.258052

> <r_epik_Charging_Adjusted_Penalty>
0.524165

> <i_epik_Tot_Q>
1

> <i_epik_Tot_abs_Q>
1

> <r_epik_Metal_State_Penalty>
0.544313

> <b_epik_Metal_Only>
0

> <s_lp_Force_Field>
OPLS_2005

> <r_lp_Energy>
32.9128

> <b_lp_Chiralities_Consistent>
1

> <s_lp_Variant>
AV-unprocessed.smi:694-2

> <Gold.Version>
5.8.1

> <Gold.Id.Protein>
6NUR|6NUR_protein|mol2

> <Gold.PLP.Fitness>
52.8076

> <Gold.PLP.PLP>
-42.8133

> <Gold.PLP.part.hbond>
-5.6606

> <Gold.PLP.part.metal>
0.0000

> <Gold.PLP.part.buried>
-0.9221

> <Gold.PLP.part.nonpolar>
-37.4481

> <Gold.PLP.part.repulsive>
0.4635

> <Gold.PLP.ligand.clash>
0.0000

> <Gold.PLP.ligand.torsion>
1.0144

> <Gold.PLP.Chemscore.Hbond>
4.0000

> <Gold.PLP.Chemscore.CHOScore>
0.0000

> <Gold.PLP.Chemscore.Metal>
0.0000

> <Gold.Chemscore.Hbonds>
donor molecule, donor type, donor heavy atom, donor atom, acceptor molecule, acceptor atom, score
      L1  H    11    30       P1  7948  0.90
      L1  H    18    41       P1  7921  1.00
      L1  H    20    43       P1  8028  1.98

> <Gold.PLP.Chemscore.Internal.Correction>
0.0230

> <Gold.Rescore>
     Score         DG    S(hbond)    S(metal)    S(lipo)     H(rot)  DE(clash)    DE(int)     intcor
     18.26     -20.53       2.85        0.00      85.48       1.75       1.16       1.11       ----

> <Gold.Chemscore.Fitness>
18.2637

> <Gold.Chemscore.DG>
-20.5341

> <Gold.Chemscore.ZeroCoef>
-5.4800

> <Gold.Chemscore.Hbond>
2.8529

> <Gold.Chemscore.Metal>
0.0000

> <Gold.Chemscore.Lipo>
85.4839

> <Gold.Chemscore.Internal_Hbond>
0.0000

> <Gold.Chemscore.DEClash>
1.1646

> <Gold.Chemscore.DEInternal>
1.1058

> <Gold.Chemscore.Rot>
1.7485

> <Gold.Chemscore.Internal.Correction>
   9.000000E+99

> <Gold.Chemscore.Hbonds>
donor molecule, donor type, donor heavy atom, donor atom, acceptor molecule, acceptor atom, score
      L1  H    11    30       P1  7948  0.88
      L1  H    18    41       P1  7921  0.99
      L1  H    20    43       P1  8028  0.94

> <Gold.Chemscore.Hbond.Weighted>
-9.5286

> <Gold.Chemscore.Metal.Weighted>
-0.0000

> <Gold.Chemscore.Lipo.Weighted>
-10.0016

> <Gold.Chemscore.Internal_Hbond.Weighted>
0.0000

> <Gold.Chemscore.DEClash.Weighted>
1.1646

> <Gold.Chemscore.DEInternal.Weighted>
1.1058

> <Gold.Chemscore.Rot.Weighted>
4.4762

> <Gold.Chemscore.Internal.Correction.Weighted>
   9.000000E+99

> <Gold.Protein.RotatedTorsions>
[ 6907 6896 6895 6894 ] final  -58.31 input  -60.11 | X-H torsion
[ 7974 7965 7964 7962 ] final  164.33 input  175.53 | X-H torsion
[ 8008 7997 7996 7995 ] final  114.19 input   59.86 | X-H torsion
[ 10167 10162 10161 10158 ] final -145.74 input  -65.29 | X-H torsion
[ 10718 10713 10712 10709 ] final -109.29 input   66.30 | X-H torsion
[ 10763 10752 10751 10750 ] final  170.68 input  -60.55 | X-H torsion
[ 11005 11000 10999 10996 ] final -174.84 input  -57.11 | X-H torsion

> <Gold.Protein.ActiveResidues>
 VAL166  LYS551  ARG553  GLY616  TRP617  ASP618  TYR619  PRO620  LYS621  CYS622 
 ASP623  PHE694  ASN695  SER759  ASP760  ASP761  ALA762  ILE779  LEU786  VAL792 
 PHE793  MET794  SER795  GLU796  ALA797  LYS798  CYS799  TRP800  GLU811  SER814 

> <Gold.Protein.RotatedAtoms>
  150.8017  134.7114  159.6605 H   0  0  0  0  0  0  0  0  0  0  0  0  # atno 6907 bound_to 6896
  152.4134  134.6081  160.0028 H   0  0  0  0  0  0  0  0  0  0  0  0  # atno 6908 bound_to 6896
  151.6318  133.3294  159.3146 H   0  0  0  0  0  0  0  0  0  0  0  0  # atno 6909 bound_to 6896
  144.7550  139.8311  143.6353 H   0  0  0  0  0  0  0  0  0  0  0  0  # atno 7974 bound_to 7965
  156.2306  140.2964  156.0178 H   0  0  0  0  0  0  0  0  0  0  0  0  # atno 8008 bound_to 7997
  155.2236  140.0416  157.2969 H   0  0  0  0  0  0  0  0  0  0  0  0  # atno 8009 bound_to 7997
  154.5989  140.2421  155.7827 H   0  0  0  0  0  0  0  0  0  0  0  0  # atno 8010 bound_to 7997
  139.7777  143.8146  152.2634 H   0  0  0  0  0  0  0  0  0  0  0  0  # atno 10167 bound_to 10162
  156.0529  130.5756  150.8080 H   0  0  0  0  0  0  0  0  0  0  0  0  # atno 10718 bound_to 10713
  154.4011  135.2755  155.2096 H   0  0  0  0  0  0  0  0  0  0  0  0  # atno 10763 bound_to 10752
  154.4121  135.6020  153.5962 H   0  0  0  0  0  0  0  0  0  0  0  0  # atno 10764 bound_to 10752
  152.9831  135.5952  154.4279 H   0  0  0  0  0  0  0  0  0  0  0  0  # atno 10765 bound_to 10752
  140.4700  134.6174  157.4878 H   0  0  0  0  0  0  0  0  0  0  0  0  # atno 11005 bound_to 11000
  146.1548  139.4643  143.0025 LP  0  0  0  0  0  0  0  0  0  0  0  0  # atno 17320 bound_to 7965
  145.6812  141.0190  143.1605 LP  0  0  0  0  0  0  0  0  0  0  0  0  # atno 17321 bound_to 7965
  139.8199  144.7300  150.9586 LP  0  0  0  0  0  0  0  0  0  0  0  0  # atno 17342 bound_to 10162
  140.7817  143.4169  151.0903 LP  0  0  0  0  0  0  0  0  0  0  0  0  # atno 17343 bound_to 10162
  157.5473  131.0943  150.9744 LP  0  0  0  0  0  0  0  0  0  0  0  0  # atno 17370 bound_to 10713
  157.0013  130.5601  149.5311 LP  0  0  0  0  0  0  0  0  0  0  0  0  # atno 17371 bound_to 10713
  139.9891  134.7014  155.9721 LP  0  0  0  0  0  0  0  0  0  0  0  0  # atno 17394 bound_to 11000
  141.1581  133.6541  156.4228 LP  0  0  0  0  0  0  0  0  0  0  0  0  # atno 17395 bound_to 11000

$$$$
