AV-unprocessed.smi:290|AV-procd|sdf|2217|dock9
  -GOLD-   2262022 53D 1   1.00000     0.00000
 Structure written by MMmdl.
 59 62  0  0  0  0  0  0  0  0  2 V2000
  151.2335  142.1955  157.3906 C   0  0  0  0  0  0  0  0  0  0  0  0
  150.5520  140.8308  157.1991 C   0  0  2  0  0  0  0  0  0  0  0  0
  149.8300  140.4634  158.3659 O   0  0  0  0  0  0  0  0  0  0  0  0
  149.5722  139.0746  158.2724 C   0  0  0  0  0  0  0  0  0  0  0  0
  150.9089  138.5165  157.7992 C   0  0  0  0  0  0  0  0  0  0  0  0
  151.4708  139.6176  156.8943 C   0  0  2  0  0  0  0  0  0  0  0  0
  152.8132  139.8636  157.2812 O   0  0  0  0  0  0  0  0  0  0  0  0
  151.4641  139.2057  155.4013 C   0  0  0  0  0  0  0  0  0  0  0  0
  150.1687  138.7327  154.9363 N   0  0  0  0  0  0  0  0  0  0  0  0
  149.3117  139.3865  154.0801 C   0  0  0  0  0  0  0  0  0  0  0  0
  148.1996  138.7569  153.8169 N   0  0  0  0  0  0  0  0  0  0  0  0
  148.2965  137.5763  154.5443 C   0  0  0  0  0  0  0  0  0  0  0  0
  147.4552  136.4405  154.7222 C   0  0  0  0  0  0  0  0  0  0  0  0
  146.2447  136.2664  154.1475 N   0  0  0  0  0  0  0  0  0  0  0  0
  145.1192  136.3236  155.0789 C   0  0  0  0  0  0  0  0  0  0  0  0
  144.0817  135.3183  154.5684 C   0  0  0  0  0  0  0  0  0  0  0  0
  144.9725  134.2981  153.8538 C   0  0  1  0  0  0  0  0  0  0  0  0
  144.3146  133.2851  152.9704 N   0  3  1  0  0  0  0  0  0  0  0  0
  143.3494  133.9205  152.0391 C   0  0  0  0  0  0  0  0  0  0  0  0
  145.2343  132.3386  152.2782 C   0  0  0  0  0  0  0  0  0  0  0  0
  145.6976  132.8472  150.9009 C   0  0  0  0  0  0  0  0  0  0  0  0
  147.1042  132.9632  150.8718 O   0  0  0  0  0  0  0  0  0  0  0  0
  146.0659  135.1657  153.2015 C   0  0  1  0  0  0  0  0  0  0  0  0
  145.7379  135.7375  151.8120 C   0  0  0  0  0  0  0  0  0  0  0  0
  147.9091  135.4299  155.5029 N   0  0  0  0  0  0  0  0  0  0  0  0
  149.1016  135.5277  156.0981 C   0  0  0  0  0  0  0  0  0  0  0  0
  149.9844  136.5267  156.0383 N   0  0  0  0  0  0  0  0  0  0  0  0
  149.5374  137.5390  155.2411 C   0  0  0  0  0  0  0  0  0  0  0  0
  145.4873  133.7482  154.6436 H   0  0  0  0  0  0  0  0  0  0  0  0
  146.9769  134.5761  153.0976 H   0  0  0  0  0  0  0  0  0  0  0  0
  151.8039  142.4789  156.5058 H   0  0  0  0  0  0  0  0  0  0  0  0
  151.9123  142.1889  158.2438 H   0  0  0  0  0  0  0  0  0  0  0  0
  150.4920  142.9744  157.5683 H   0  0  0  0  0  0  0  0  0  0  0  0
  149.8073  140.9264  156.4081 H   0  0  0  0  0  0  0  0  0  0  0  0
  149.2548  138.6569  159.2281 H   0  0  0  0  0  0  0  0  0  0  0  0
  148.7875  138.8923  157.5361 H   0  0  0  0  0  0  0  0  0  0  0  0
  151.5486  138.3583  158.6693 H   0  0  0  0  0  0  0  0  0  0  0  0
  150.7996  137.5539  157.2982 H   0  0  0  0  0  0  0  0  0  0  0  0
  152.8083  140.4148  158.0486 H   0  0  0  0  0  0  0  0  0  0  0  0
  151.7663  140.0448  154.7732 H   0  0  0  0  0  0  0  0  0  0  0  0
  152.1986  138.4179  155.2282 H   0  0  0  0  0  0  0  0  0  0  0  0
  149.5369  140.3553  153.6585 H   0  0  0  0  0  0  0  0  0  0  0  0
  145.4455  136.0453  156.0828 H   0  0  0  0  0  0  0  0  0  0  0  0
  144.7077  137.3321  155.1306 H   0  0  0  0  0  0  0  0  0  0  0  0
  143.4886  134.8807  155.3718 H   0  0  0  0  0  0  0  0  0  0  0  0
  143.4046  135.8298  153.8852 H   0  0  0  0  0  0  0  0  0  0  0  0
  143.8640  134.5724  151.3321 H   0  0  0  0  0  0  0  0  0  0  0  0
  142.6202  134.5199  152.5849 H   0  0  0  0  0  0  0  0  0  0  0  0
  142.7828  133.1835  151.4726 H   0  0  0  0  0  0  0  0  0  0  0  0
  146.0990  132.1444  152.9145 H   0  0  0  0  0  0  0  0  0  0  0  0
  144.7514  131.3763  152.1213 H   0  0  0  0  0  0  0  0  0  0  0  0
  145.3633  132.2083  150.0848 H   0  0  0  0  0  0  0  0  0  0  0  0
  145.2731  133.8342  150.7154 H   0  0  0  0  0  0  0  0  0  0  0  0
  147.4777  132.0964  150.8126 H   0  0  0  0  0  0  0  0  0  0  0  0
  145.5837  134.9463  151.0795 H   0  0  0  0  0  0  0  0  0  0  0  0
  146.5612  136.3530  151.4487 H   0  0  0  0  0  0  0  0  0  0  0  0
  144.8491  136.3683  151.8307 H   0  0  0  0  0  0  0  0  0  0  0  0
  149.3893  134.6853  156.7101 H   0  0  0  0  0  0  0  0  0  0  0  0
  143.7561  132.7180  153.5926 H   0  0  0  0  0  0  0  0  0  0  0  0
  1  2  1  0  0  0  0
  1 31  1  0  0  0  0
  1 32  1  0  0  0  0
  1 33  1  0  0  0  0
  2  6  1  0  0  0  0
  2  3  1  0  0  0  0
  2 34  1  0  0  0  0
  3  4  1  0  0  0  0
  4  5  1  0  0  0  0
  4 35  1  0  0  0  0
  4 36  1  0  0  0  0
  5  6  1  0  0  0  0
  5 37  1  0  0  0  0
  5 38  1  0  0  0  0
  6  7  1  0  0  0  0
  6  8  1  0  0  0  0
  7 39  1  0  0  0  0
  8  9  1  0  0  0  0
  8 40  1  0  0  0  0
  8 41  1  0  0  0  0
  9 28  1  0  0  0  0
  9 10  1  0  0  0  0
 10 11  2  0  0  0  0
 10 42  1  0  0  0  0
 11 12  1  0  0  0  0
 12 28  2  0  0  0  0
 12 13  1  0  0  0  0
 13 14  1  0  0  0  0
 13 25  2  0  0  0  0
 14 23  1  0  0  0  0
 14 15  1  0  0  0  0
 15 16  1  0  0  0  0
 15 43  1  0  0  0  0
 15 44  1  0  0  0  0
 16 17  1  0  0  0  0
 16 45  1  0  0  0  0
 16 46  1  0  0  0  0
 17 29  1  0  0  0  0
 17 18  1  0  0  0  0
 17 23  1  0  0  0  0
 18 19  1  0  0  0  0
 18 20  1  0  0  0  0
 18 59  1  0  0  0  0
 19 47  1  0  0  0  0
 19 48  1  0  0  0  0
 19 49  1  0  0  0  0
 20 21  1  0  0  0  0
 20 50  1  0  0  0  0
 20 51  1  0  0  0  0
 21 22  1  0  0  0  0
 21 52  1  0  0  0  0
 21 53  1  0  0  0  0
 22 54  1  0  0  0  0
 23 30  1  0  0  0  0
 23 24  1  0  0  0  0
 24 55  1  0  0  0  0
 24 56  1  0  0  0  0
 24 57  1  0  0  0  0
 25 26  1  0  0  0  0
 26 27  2  0  0  0  0
 26 58  1  0  0  0  0
 27 28  1  0  0  0  0
M  CHG  1  18   1
M  END
> <s_m_source_file>
AV-unprocessed.smi

> <i_m_source_file_index>
290

> <i_lp_mmshare_version>
43012

> <i_f3d_flags>
0

> <s_epik_input>
W0NIMl0xW0NIMl1PW0NAQEhdKFtDSDNdKVtDQEBdMShbT0hdKVtDSDJdbihbY0hdbjIpYyhjMjMpbltjSF1uYzNONFtDSDJdW0NIMl1bQ0BIXShbQ0BIXTRbQ0gzXSlOKFtDSDNdKVtDSDJdW0NIMl1bT0hd

> <s_epik_cmdline>
J2VwaWtfcHl0aG9uJywgJy1waCcsICc3LjAnLCAnLXRuJywgJzgnLCAnLW1hJywgJzIwMCcsICctbWV0YWxfYmluZGluZycsICctaW1hZScsICc8aW5maWxlLm1hZT4nLCAnLW9tYWUnLCAnPG91dGZpbGUubWFlPic=

> <r_lp_tautomer_probability>
1

> <r_epik_Ionization_Penalty>
0.0036983

> <r_epik_Ionization_Penalty_Charging>
0.0032725

> <r_epik_Ionization_Penalty_Neutral>
0.000425798

> <r_epik_State_Penalty>
-0

> <r_epik_Charging_Adjusted_Penalty>
0.0032725

> <i_epik_Tot_Q>
1

> <i_epik_Tot_abs_Q>
1

> <r_epik_Metal_State_Penalty>
-0

> <b_epik_Metal_Only>
0

> <s_lp_Force_Field>
OPLS_2005

> <r_lp_Energy>
65.9865

> <b_lp_Chiralities_Consistent>
1

> <s_lp_Variant>
AV-unprocessed.smi:290-3

> <Gold.Version>
5.8.1

> <Gold.Id.Protein>
6NUR|6NUR_protein|mol2

> <Gold.PLP.Fitness>
40.2494

> <Gold.PLP.PLP>
-28.3903

> <Gold.PLP.part.hbond>
-3.0000

> <Gold.PLP.part.metal>
0.0000

> <Gold.PLP.part.buried>
-0.8775

> <Gold.PLP.part.nonpolar>
-23.9940

> <Gold.PLP.part.repulsive>
0.3950

> <Gold.PLP.ligand.clash>
0.0000

> <Gold.PLP.ligand.torsion>
1.0283

> <Gold.PLP.Chemscore.Hbond>
4.0000

> <Gold.PLP.Chemscore.CHOScore>
0.5113

> <Gold.PLP.Chemscore.Metal>
0.0000

> <Gold.Chemscore.Hbonds>
donor molecule, donor type, donor heavy atom, donor atom, acceptor molecule, acceptor atom, score
      L1  H    18    59       P1 10957  2.00
      L1  H    22    54       P1 10747  1.00
      P1  H  7997  8008       L1     7  1.00
      L1  C    10    42       P1  7957  0.53

> <Gold.PLP.Chemscore.Internal.Correction>
0.3816

> <Gold.Rescore>
     Score         DG    S(hbond)    S(metal)    S(lipo)     H(rot)  DE(clash)    DE(int)     intcor
      8.69     -12.09       2.61        0.00      62.12       3.67       0.04       3.36       ----

> <Gold.Chemscore.Fitness>
8.6899

> <Gold.Chemscore.DG>
-12.0931

> <Gold.Chemscore.ZeroCoef>
-5.4800

> <Gold.Chemscore.Hbond>
2.6135

> <Gold.Chemscore.Metal>
0.0000

> <Gold.Chemscore.Lipo>
62.1237

> <Gold.Chemscore.Internal_Hbond>
0.0000

> <Gold.Chemscore.DEClash>
0.0427

> <Gold.Chemscore.DEInternal>
3.3605

> <Gold.Chemscore.Rot>
3.6658

> <Gold.Chemscore.Internal.Correction>
   9.000000E+99

> <Gold.Chemscore.Hbonds>
donor molecule, donor type, donor heavy atom, donor atom, acceptor molecule, acceptor atom, score
      L1  H    18    59       P1 10957  0.65
      L1  H    22    54       P1 10747  0.89
      P1  H  7997  8008       L1     7  0.58

> <Gold.Chemscore.Hbond.Weighted>
-8.7291

> <Gold.Chemscore.Metal.Weighted>
-0.0000

> <Gold.Chemscore.Lipo.Weighted>
-7.2685

> <Gold.Chemscore.Internal_Hbond.Weighted>
0.0000

> <Gold.Chemscore.DEClash.Weighted>
0.0427

> <Gold.Chemscore.DEInternal.Weighted>
3.3605

> <Gold.Chemscore.Rot.Weighted>
9.3844

> <Gold.Chemscore.Internal.Correction.Weighted>
   9.000000E+99

> <Gold.Protein.RotatedTorsions>
[ 6907 6896 6895 6894 ] final -174.44 input  -60.11 | X-H torsion
[ 7974 7965 7964 7962 ] final  141.50 input  175.53 | X-H torsion
[ 8008 7997 7996 7995 ] final  -49.86 input   59.86 | X-H torsion
[ 10167 10162 10161 10158 ] final -141.25 input  -65.29 | X-H torsion
[ 10718 10713 10712 10709 ] final   34.74 input   66.30 | X-H torsion
[ 10763 10752 10751 10750 ] final -159.12 input  -60.55 | X-H torsion
[ 11005 11000 10999 10996 ] final  -68.66 input  -57.11 | X-H torsion

> <Gold.Protein.ActiveResidues>
 VAL166  LYS551  ARG553  GLY616  TRP617  ASP618  TYR619  PRO620  LYS621  CYS622 
 ASP623  PHE694  ASN695  SER759  ASP760  ASP761  ALA762  ILE779  LEU786  VAL792 
 PHE793  MET794  SER795  GLU796  ALA797  LYS798  CYS799  TRP800  GLU811  SER814 

> <Gold.Protein.RotatedAtoms>
  151.5724  133.3388  159.2991 H   0  0  0  0  0  0  0  0  0  0  0  0  # atno 6907 bound_to 6896
  150.8360  134.7636  159.6904 H   0  0  0  0  0  0  0  0  0  0  0  0  # atno 6908 bound_to 6896
  152.4436  134.5547  159.9928 H   0  0  0  0  0  0  0  0  0  0  0  0  # atno 6909 bound_to 6896
  144.9091  139.5317  143.5717 H   0  0  0  0  0  0  0  0  0  0  0  0  # atno 7974 bound_to 7965
  154.4051  140.1286  156.4571 H   0  0  0  0  0  0  0  0  0  0  0  0  # atno 8008 bound_to 7997
  155.7309  140.3491  155.5039 H   0  0  0  0  0  0  0  0  0  0  0  0  # atno 8009 bound_to 7997
  155.9128  140.1039  157.1256 H   0  0  0  0  0  0  0  0  0  0  0  0  # atno 8010 bound_to 7997
  139.8202  143.7584  152.2666 H   0  0  0  0  0  0  0  0  0  0  0  0  # atno 10167 bound_to 10162
  157.3140  130.7414  149.6743 H   0  0  0  0  0  0  0  0  0  0  0  0  # atno 10718 bound_to 10713
  154.7501  135.3090  154.8573 H   0  0  0  0  0  0  0  0  0  0  0  0  # atno 10763 bound_to 10752
  153.9363  135.6779  153.4749 H   0  0  0  0  0  0  0  0  0  0  0  0  # atno 10764 bound_to 10752
  153.1097  135.4872  154.8941 H   0  0  0  0  0  0  0  0  0  0  0  0  # atno 10765 bound_to 10752
  141.1537  133.6746  156.6480 H   0  0  0  0  0  0  0  0  0  0  0  0  # atno 11005 bound_to 11000
  146.3149  139.7883  142.8991 LP  0  0  0  0  0  0  0  0  0  0  0  0  # atno 17320 bound_to 7965
  145.3485  141.0302  143.3352 LP  0  0  0  0  0  0  0  0  0  0  0  0  # atno 17321 bound_to 7965
  139.7759  144.7461  151.0157 LP  0  0  0  0  0  0  0  0  0  0  0  0  # atno 17342 bound_to 10162
  140.7813  143.4594  151.0300 LP  0  0  0  0  0  0  0  0  0  0  0  0  # atno 17343 bound_to 10162
  155.9680  130.4243  150.4601 LP  0  0  0  0  0  0  0  0  0  0  0  0  # atno 17370 bound_to 10713
  157.2604  131.0566  151.2324 LP  0  0  0  0  0  0  0  0  0  0  0  0  # atno 17371 bound_to 10713
  140.3342  134.7903  157.4349 LP  0  0  0  0  0  0  0  0  0  0  0  0  # atno 17394 bound_to 11000
  140.0991  134.5497  155.8370 LP  0  0  0  0  0  0  0  0  0  0  0  0  # atno 17395 bound_to 11000

$$$$
