AV-unprocessed.smi:1492|AV-procd|sdf|6041|dock1
  -GOLD-   22720 6153D 1   1.00000     0.00000
 Structure written by MMmdl.
 52 53  0  0  0  0  0  0  0  0  1 V2000
  150.8582  137.5766  158.9726 C   0  0  0  0  0  0  0  0  0  0  0  0
  151.4115  138.9866  159.2482 C   0  0  0  0  0  0  0  0  0  0  0  0
  152.4061  139.5664  158.1927 C   0  0  2  0  0  0  0  0  0  0  0  0
  151.7835  139.3920  156.7819 C   0  0  0  0  0  0  0  0  0  0  0  0
  153.7145  138.7122  158.2130 C   0  0  0  0  0  0  0  0  0  0  0  0
  154.2669  138.5745  159.5584 N   0  0  0  0  0  0  0  0  0  0  0  0
  154.3182  137.4499  160.2866 C   0  0  0  0  0  0  0  0  0  0  0  0
  153.7573  136.4016  159.9693 O   0  0  0  0  0  0  0  0  0  0  0  0
  155.1757  137.5149  161.5508 C   0  0  0  0  0  0  0  0  0  0  0  0
  155.0720  136.2853  162.4539 C   0  0  0  0  0  0  0  0  0  0  0  0
  154.7618  136.3667  163.7726 C   0  0  0  0  0  0  0  0  0  0  0  0
  154.5034  137.6677  164.5122 C   0  0  0  0  0  0  0  0  0  0  0  0
  154.6490  135.2300  164.5535 N   0  0  0  0  0  0  0  0  0  0  0  0
  154.8604  134.0033  163.9467 C   0  0  0  0  0  0  0  0  0  0  0  0
  154.7037  132.8256  164.8835 C   0  0  0  0  0  0  0  0  0  0  0  0
  155.1615  133.8226  162.6971 N   0  0  0  0  0  0  0  0  0  0  0  0
  155.2838  134.9435  161.8609 C   0  0  0  0  0  0  0  0  0  0  0  0
  155.5472  134.8012  160.6677 O   0  0  0  0  0  0  0  0  0  0  0  0
  152.7124  141.0075  158.4369 N   0  0  0  0  0  0  0  0  0  0  0  0
  151.6731  141.9553  158.0189 C   0  0  0  0  0  0  0  0  0  0  0  0
  152.1368  143.4148  158.1627 C   0  0  0  0  0  0  0  0  0  0  0  0
  152.5304  143.6644  159.5066 O   0  0  0  0  0  0  0  0  0  0  0  0
  153.5752  142.8004  159.9371 C   0  0  0  0  0  0  0  0  0  0  0  0
  153.1227  141.3363  159.8073 C   0  0  0  0  0  0  0  0  0  0  0  0
  154.4125  135.3356  165.5295 H   0  0  0  0  0  0  0  0  0  0  0  0
  150.1727  137.2800  159.7667 H   0  0  0  0  0  0  0  0  0  0  0  0
  151.6468  136.8258  158.9365 H   0  0  0  0  0  0  0  0  0  0  0  0
  150.3007  137.5311  158.0374 H   0  0  0  0  0  0  0  0  0  0  0  0
  150.5547  139.6511  159.3544 H   0  0  0  0  0  0  0  0  0  0  0  0
  151.8866  138.9590  160.2285 H   0  0  0  0  0  0  0  0  0  0  0  0
  151.7899  138.3519  156.4561 H   0  0  0  0  0  0  0  0  0  0  0  0
  152.3304  139.9619  156.0303 H   0  0  0  0  0  0  0  0  0  0  0  0
  150.7447  139.7209  156.7485 H   0  0  0  0  0  0  0  0  0  0  0  0
  153.5247  137.7090  157.8312 H   0  0  0  0  0  0  0  0  0  0  0  0
  154.4697  139.1275  157.5446 H   0  0  0  0  0  0  0  0  0  0  0  0
  154.7568  139.3804  159.9193 H   0  0  0  0  0  0  0  0  0  0  0  0
  156.2105  137.7021  161.2625 H   0  0  0  0  0  0  0  0  0  0  0  0
  154.8824  138.3956  162.1229 H   0  0  0  0  0  0  0  0  0  0  0  0
  153.6799  138.2135  164.0520 H   0  0  0  0  0  0  0  0  0  0  0  0
  155.3907  138.3006  164.4895 H   0  0  0  0  0  0  0  0  0  0  0  0
  154.2441  137.4919  165.5570 H   0  0  0  0  0  0  0  0  0  0  0  0
  154.7975  131.8828  164.3430 H   0  0  0  0  0  0  0  0  0  0  0  0
  153.7234  132.8462  165.3606 H   0  0  0  0  0  0  0  0  0  0  0  0
  155.4694  132.8530  165.6591 H   0  0  0  0  0  0  0  0  0  0  0  0
  151.3968  141.7986  156.9778 H   0  0  0  0  0  0  0  0  0  0  0  0
  150.7700  141.8143  158.6125 H   0  0  0  0  0  0  0  0  0  0  0  0
  152.9679  143.6219  157.4881 H   0  0  0  0  0  0  0  0  0  0  0  0
  151.3301  144.0972  157.8953 H   0  0  0  0  0  0  0  0  0  0  0  0
  154.4741  142.9812  159.3474 H   0  0  0  0  0  0  0  0  0  0  0  0
  153.8225  143.0298  160.9735 H   0  0  0  0  0  0  0  0  0  0  0  0
  152.2982  141.1650  160.4991 H   0  0  0  0  0  0  0  0  0  0  0  0
  153.9449  140.7019  160.1330 H   0  0  0  0  0  0  0  0  0  0  0  0
  1  2  1  0  0  0  0
  1 26  1  0  0  0  0
  1 27  1  0  0  0  0
  1 28  1  0  0  0  0
  2  3  1  0  0  0  0
  2 29  1  0  0  0  0
  2 30  1  0  0  0  0
  3  4  1  0  0  0  0
  3  5  1  0  0  0  0
  3 19  1  0  0  0  0
  4 31  1  0  0  0  0
  4 32  1  0  0  0  0
  4 33  1  0  0  0  0
  5  6  1  0  0  0  0
  5 34  1  0  0  0  0
  5 35  1  0  0  0  0
  6  7  1  0  0  0  0
  6 36  1  0  0  0  0
  7  8  2  0  0  0  0
  7  9  1  0  0  0  0
  9 37  1  0  0  0  0
  9 38  1  0  0  0  0
  9 10  1  0  0  0  0
 10 17  1  0  0  0  0
 10 11  2  0  0  0  0
 11 12  1  0  0  0  0
 11 13  1  0  0  0  0
 12 39  1  0  0  0  0
 12 40  1  0  0  0  0
 12 41  1  0  0  0  0
 13 25  1  0  0  0  0
 13 14  1  0  0  0  0
 14 15  1  0  0  0  0
 14 16  2  0  0  0  0
 15 42  1  0  0  0  0
 15 43  1  0  0  0  0
 15 44  1  0  0  0  0
 16 17  1  0  0  0  0
 17 18  2  0  0  0  0
 19 24  1  0  0  0  0
 19 20  1  0  0  0  0
 20 21  1  0  0  0  0
 20 45  1  0  0  0  0
 20 46  1  0  0  0  0
 21 22  1  0  0  0  0
 21 47  1  0  0  0  0
 21 48  1  0  0  0  0
 22 23  1  0  0  0  0
 23 24  1  0  0  0  0
 23 49  1  0  0  0  0
 23 50  1  0  0  0  0
 24 51  1  0  0  0  0
 24 52  1  0  0  0  0
M  END
> <s_m_source_file>
AV-unprocessed.smi

> <i_m_source_file_index>
1492

> <i_lp_mmshare_version>
43012

> <i_f3d_flags>
0

> <s_epik_input>
W0NIMl0xW0NIMl1PW0NIMl1bQ0gyXU4xW0NAQF0oW0NIM10pKFtDSDJdW0NIM10pW0NIMl1bTkhdQyg9TylbQ0gyXWMyYyhbQ0gzXSluYyhbQ0gzXSlbbkhdYzI9Tw==

> <s_epik_cmdline>
J2VwaWtfcHl0aG9uJywgJy1waCcsICc3LjAnLCAnLXRuJywgJzgnLCAnLW1hJywgJzIwMCcsICctbWV0YWxfYmluZGluZycsICctaW1hZScsICc8aW5maWxlLm1hZT4nLCAnLW9tYWUnLCAnPG91dGZpbGUubWFlPic=

> <r_lp_tautomer_probability>
0.156392

> <r_epik_Ionization_Penalty>
0.342516

> <r_epik_Ionization_Penalty_Charging>
0.0141408

> <r_epik_Ionization_Penalty_Neutral>
0.328375

> <r_epik_State_Penalty>
1.47662

> <r_epik_Charging_Adjusted_Penalty>
1.49076

> <i_epik_Tot_Q>
0

> <i_epik_Tot_abs_Q>
0

> <r_epik_Metal_State_Penalty>
1.65506

> <b_epik_Metal_Only>
0

> <s_lp_Force_Field>
OPLS_2005

> <r_lp_Energy>
47.0207

> <b_lp_Chiralities_Consistent>
1

> <s_lp_Variant>
AV-unprocessed.smi:1492-6

> <Gold.Version>
5.8.1

> <Gold.Id.Protein>
6NUR|6NUR_protein|mol2

> <Gold.PLP.Fitness>
40.8052

> <Gold.PLP.PLP>
-38.6653

> <Gold.PLP.part.hbond>
-1.0000

> <Gold.PLP.part.metal>
0.0000

> <Gold.PLP.part.buried>
-4.7820

> <Gold.PLP.part.nonpolar>
-32.2844

> <Gold.PLP.part.repulsive>
0.0872

> <Gold.PLP.ligand.clash>
0.0047

> <Gold.PLP.ligand.torsion>
0.5968

> <Gold.PLP.Chemscore.Hbond>
1.0000

> <Gold.PLP.Chemscore.CHOScore>
0.0000

> <Gold.PLP.Chemscore.Metal>
0.0000

> <Gold.Chemscore.Hbonds>
donor molecule, donor type, donor heavy atom, donor atom, acceptor molecule, acceptor atom, score
      P1  H  6896  6907       L1     8  0.68

> <Gold.PLP.Chemscore.Internal.Correction>
0.3383

> <Gold.Rescore>
     Score         DG    S(hbond)    S(metal)    S(lipo)     H(rot)  DE(clash)    DE(int)     intcor
     12.13     -14.85       0.99        0.00      98.10       2.12       0.41       2.31       ----

> <Gold.Chemscore.Fitness>
12.1336

> <Gold.Chemscore.DG>
-14.8509

> <Gold.Chemscore.ZeroCoef>
-5.4800

> <Gold.Chemscore.Hbond>
0.9906

> <Gold.Chemscore.Metal>
0.0000

> <Gold.Chemscore.Lipo>
98.1035

> <Gold.Chemscore.Internal_Hbond>
0.0000

> <Gold.Chemscore.DEClash>
0.4109

> <Gold.Chemscore.DEInternal>
2.3065

> <Gold.Chemscore.Rot>
2.1155

> <Gold.Chemscore.Internal.Correction>
   9.000000E+99

> <Gold.Chemscore.Hbonds>
donor molecule, donor type, donor heavy atom, donor atom, acceptor molecule, acceptor atom, score
      P1  H  6896  6907       L1     8  0.69

> <Gold.Chemscore.Hbond.Weighted>
-3.3086

> <Gold.Chemscore.Metal.Weighted>
-0.0000

> <Gold.Chemscore.Lipo.Weighted>
-11.4781

> <Gold.Chemscore.Internal_Hbond.Weighted>
0.0000

> <Gold.Chemscore.DEClash.Weighted>
0.4109

> <Gold.Chemscore.DEInternal.Weighted>
2.3065

> <Gold.Chemscore.Rot.Weighted>
5.4157

> <Gold.Chemscore.Internal.Correction.Weighted>
   9.000000E+99

> <Gold.Protein.RotatedTorsions>
[ 6907 6896 6895 6894 ] final   59.09 input  -60.11 | X-H torsion
[ 7974 7965 7964 7962 ] final  133.56 input  175.53 | X-H torsion
[ 8008 7997 7996 7995 ] final  -91.96 input   59.86 | X-H torsion
[ 10167 10162 10161 10158 ] final  -16.46 input  -65.29 | X-H torsion
[ 10718 10713 10712 10709 ] final   41.94 input   66.30 | X-H torsion
[ 10763 10752 10751 10750 ] final  -85.91 input  -60.55 | X-H torsion
[ 11005 11000 10999 10996 ] final  -69.64 input  -57.11 | X-H torsion

> <Gold.Protein.ActiveResidues>
 VAL166  LYS551  ARG553  GLY616  TRP617  ASP618  TYR619  PRO620  LYS621  CYS622 
 ASP623  PHE694  ASN695  SER759  ASP760  ASP761  ALA762  ILE779  LEU786  VAL792 
 PHE793  MET794  SER795  GLU796  ALA797  LYS798  CYS799  TRP800  GLU811  SER814 

> <Gold.Protein.RotatedAtoms>
  152.3884  134.6481  160.0116 H   0  0  0  0  0  0  0  0  0  0  0  0  # atno 6907 bound_to 6896
  151.6723  133.3308  159.3207 H   0  0  0  0  0  0  0  0  0  0  0  0  # atno 6908 bound_to 6896
  150.7805  134.6789  159.6477 H   0  0  0  0  0  0  0  0  0  0  0  0  # atno 6909 bound_to 6896
  144.9853  139.4462  143.5366 H   0  0  0  0  0  0  0  0  0  0  0  0  # atno 7974 bound_to 7965
  154.7172  140.0514  157.0606 H   0  0  0  0  0  0  0  0  0  0  0  0  # atno 8008 bound_to 7997
  155.0475  140.3175  155.4684 H   0  0  0  0  0  0  0  0  0  0  0  0  # atno 8009 bound_to 7997
  156.2806  140.2121  156.5600 H   0  0  0  0  0  0  0  0  0  0  0  0  # atno 8010 bound_to 7997
  140.7234  143.5114  150.9745 H   0  0  0  0  0  0  0  0  0  0  0  0  # atno 10167 bound_to 10162
  157.3993  130.7851  149.7335 H   0  0  0  0  0  0  0  0  0  0  0  0  # atno 10718 bound_to 10713
  154.6164  135.5468  153.7528 H   0  0  0  0  0  0  0  0  0  0  0  0  # atno 10763 bound_to 10752
  153.0218  135.6402  154.1503 H   0  0  0  0  0  0  0  0  0  0  0  0  # atno 10764 bound_to 10752
  154.1439  135.2906  155.3133 H   0  0  0  0  0  0  0  0  0  0  0  0  # atno 10765 bound_to 10752
  141.1558  133.6769  156.6631 H   0  0  0  0  0  0  0  0  0  0  0  0  # atno 11005 bound_to 11000
  146.3418  139.9151  142.8774 LP  0  0  0  0  0  0  0  0  0  0  0  0  # atno 17320 bound_to 7965
  145.2363  140.9992  143.3962 LP  0  0  0  0  0  0  0  0  0  0  0  0  # atno 17321 bound_to 7965
  139.8828  143.7050  152.3155 LP  0  0  0  0  0  0  0  0  0  0  0  0  # atno 17342 bound_to 10162
  139.7339  144.7576  151.0759 LP  0  0  0  0  0  0  0  0  0  0  0  0  # atno 17343 bound_to 10162
  155.9819  130.4015  150.3447 LP  0  0  0  0  0  0  0  0  0  0  0  0  # atno 17370 bound_to 10713
  157.1573  131.0336  151.2857 LP  0  0  0  0  0  0  0  0  0  0  0  0  # atno 17371 bound_to 10713
  140.3232  134.7990  157.4269 LP  0  0  0  0  0  0  0  0  0  0  0  0  # atno 17394 bound_to 11000
  140.1079  134.5385  155.8293 LP  0  0  0  0  0  0  0  0  0  0  0  0  # atno 17395 bound_to 11000

$$$$
