AV-unprocessed.smi:1247|AV-procd|sdf|5248|dock6
  -GOLD-   22720 4363D 1   1.00000     0.00000
 Structure written by MMmdl.
 47 48  0  0  0  0  0  0  0  0  2 V2000
  151.8264  141.6781  157.7447 C   0  0  0  0  0  0  0  0  0  0  0  0
  151.4842  140.7556  156.6122 C   0  0  0  0  0  0  0  0  0  0  0  0
  150.2427  140.6365  155.9225 C   0  0  0  0  0  0  0  0  0  0  0  0
  150.5016  139.6575  155.0024 C   0  0  0  0  0  0  0  0  0  0  0  0
  149.6728  139.1246  154.0652 N   0  0  0  0  0  0  0  0  0  0  0  0
  148.4158  139.4866  153.7538 C   0  0  0  0  0  0  0  0  0  0  0  0
  147.7794  140.3949  154.2887 O   0  0  0  0  0  0  0  0  0  0  0  0
  147.9185  138.7255  152.7682 N   0  0  0  0  0  0  0  0  0  0  0  0
  146.5876  138.8822  152.1926 C   0  0  0  0  0  0  0  0  0  0  0  0
  146.3057  137.8170  151.1156 C   0  0  0  0  0  0  0  0  0  0  0  0
  146.1826  136.4552  151.6921 N   0  3  1  0  0  0  0  0  0  0  0  0
  145.5571  136.4605  153.0347 C   0  0  0  0  0  0  0  0  0  0  0  0
  145.5480  135.0407  153.6293 C   0  0  1  0  0  0  0  0  0  0  0  0
  144.8315  134.9886  154.9831 C   0  0  0  0  0  0  0  0  0  0  0  0
  144.8683  134.1587  152.7400 O   0  0  0  0  0  0  0  0  0  0  0  0
  145.4167  134.0936  151.4237 C   0  0  2  0  0  0  0  0  0  0  0  0
  146.7631  133.3488  151.3880 C   0  0  0  0  0  0  0  0  0  0  0  0
  145.4758  135.5022  150.8006 C   0  0  0  0  0  0  0  0  0  0  0  0
  151.8069  139.2425  155.1500 N   0  0  0  0  0  0  0  0  0  0  0  0
  152.5436  138.2329  154.4148 C   0  0  0  0  0  0  0  0  0  0  0  0
  152.4096  139.9226  156.1494 N   0  0  0  0  0  0  0  0  0  0  0  0
  150.9797  142.3141  158.0042 H   0  0  0  0  0  0  0  0  0  0  0  0
  152.6612  142.3287  157.4831 H   0  0  0  0  0  0  0  0  0  0  0  0
  152.1055  141.1177  158.6371 H   0  0  0  0  0  0  0  0  0  0  0  0
  149.3301  141.1876  156.0919 H   0  0  0  0  0  0  0  0  0  0  0  0
  150.0610  138.3575  153.5361 H   0  0  0  0  0  0  0  0  0  0  0  0
  148.5038  137.9992  152.3812 H   0  0  0  0  0  0  0  0  0  0  0  0
  145.8475  138.8493  152.9926 H   0  0  0  0  0  0  0  0  0  0  0  0
  146.5232  139.8784  151.7540 H   0  0  0  0  0  0  0  0  0  0  0  0
  145.3730  138.0826  150.6155 H   0  0  0  0  0  0  0  0  0  0  0  0
  147.0777  137.8184  150.3445 H   0  0  0  0  0  0  0  0  0  0  0  0
  146.1096  137.1283  153.6969 H   0  0  0  0  0  0  0  0  0  0  0  0
  144.5401  136.8502  152.9619 H   0  0  0  0  0  0  0  0  0  0  0  0
  146.5726  134.6980  153.7767 H   0  0  0  0  0  0  0  0  0  0  0  0
  145.3175  135.6393  155.7105 H   0  0  0  0  0  0  0  0  0  0  0  0
  144.8374  133.9765  155.3882 H   0  0  0  0  0  0  0  0  0  0  0  0
  143.7916  135.3043  154.8927 H   0  0  0  0  0  0  0  0  0  0  0  0
  144.7154  133.5008  150.8356 H   0  0  0  0  0  0  0  0  0  0  0  0
  147.0876  133.1870  150.3597 H   0  0  0  0  0  0  0  0  0  0  0  0
  146.6783  132.3711  151.8630 H   0  0  0  0  0  0  0  0  0  0  0  0
  147.5557  133.8995  151.8938 H   0  0  0  0  0  0  0  0  0  0  0  0
  144.4611  135.8647  150.6273 H   0  0  0  0  0  0  0  0  0  0  0  0
  145.9584  135.4503  149.8251 H   0  0  0  0  0  0  0  0  0  0  0  0
  152.3683  138.3530  153.3453 H   0  0  0  0  0  0  0  0  0  0  0  0
  152.2104  137.2415  154.7230 H   0  0  0  0  0  0  0  0  0  0  0  0
  153.6137  138.3241  154.6066 H   0  0  0  0  0  0  0  0  0  0  0  0
  147.1223  136.1071  151.8185 H   0  0  0  0  0  0  0  0  0  0  0  0
  1  2  1  0  0  0  0
  1 22  1  0  0  0  0
  1 23  1  0  0  0  0
  1 24  1  0  0  0  0
  2 21  2  0  0  0  0
  2  3  1  0  0  0  0
  3  4  2  0  0  0  0
  3 25  1  0  0  0  0
  4  5  1  0  0  0  0
  4 19  1  0  0  0  0
  5  6  1  0  0  0  0
  5 26  1  0  0  0  0
  6  7  2  0  0  0  0
  6  8  1  0  0  0  0
  8  9  1  0  0  0  0
  8 27  1  0  0  0  0
  9 10  1  0  0  0  0
  9 28  1  0  0  0  0
  9 29  1  0  0  0  0
 10 11  1  0  0  0  0
 10 30  1  0  0  0  0
 10 31  1  0  0  0  0
 11 18  1  0  0  0  0
 11 12  1  0  0  0  0
 11 47  1  0  0  0  0
 12 13  1  0  0  0  0
 12 32  1  0  0  0  0
 12 33  1  0  0  0  0
 13 14  1  0  0  0  0
 13 15  1  0  0  0  0
 13 34  1  0  0  0  0
 14 35  1  0  0  0  0
 14 36  1  0  0  0  0
 14 37  1  0  0  0  0
 15 16  1  0  0  0  0
 16 17  1  0  0  0  0
 16 18  1  0  0  0  0
 16 38  1  0  0  0  0
 17 39  1  0  0  0  0
 17 40  1  0  0  0  0
 17 41  1  0  0  0  0
 18 42  1  0  0  0  0
 18 43  1  0  0  0  0
 19 20  1  0  0  0  0
 19 21  1  0  0  0  0
 20 44  1  0  0  0  0
 20 45  1  0  0  0  0
 20 46  1  0  0  0  0
M  CHG  1  11   1
M  END
> <s_m_source_file>
AV-unprocessed.smi

> <i_m_source_file_index>
1247

> <i_lp_mmshare_version>
43012

> <i_f3d_flags>
0

> <s_epik_input>
W0NIM11jMVtjSF1jKG4objEpW0NIM10pW05IXUMoPU8pW05IXVtDSDJdW0NIMl1OMltDSDJdW0NAQEhdKFtDSDNdKU9bQ0BASF0oW0NIM10pW0NIMl0y

> <s_epik_cmdline>
J2VwaWtfcHl0aG9uJywgJy1waCcsICc3LjAnLCAnLXRuJywgJzgnLCAnLW1hJywgJzIwMCcsICctbWV0YWxfYmluZGluZycsICctaW1hZScsICc8aW5maWxlLm1hZT4nLCAnLW9tYWUnLCAnPG91dGZpbGUubWFlPic=

> <r_lp_tautomer_probability>
1

> <r_epik_Ionization_Penalty>
0.663902

> <r_epik_Ionization_Penalty_Charging>
0.663826

> <r_epik_Ionization_Penalty_Neutral>
7.65444e-05

> <r_epik_State_Penalty>
0.683414

> <r_epik_Charging_Adjusted_Penalty>
1.34724

> <i_epik_Tot_Q>
1

> <i_epik_Tot_abs_Q>
1

> <r_epik_Metal_State_Penalty>
0.683419

> <b_epik_Metal_Only>
0

> <s_lp_Force_Field>
OPLS_2005

> <r_lp_Energy>
18.4757

> <b_lp_Chiralities_Consistent>
1

> <s_lp_Variant>
AV-unprocessed.smi:1247-6

> <Gold.Version>
5.8.1

> <Gold.Id.Protein>
6NUR|6NUR_protein|mol2

> <Gold.PLP.Fitness>
46.6479

> <Gold.PLP.PLP>
-35.1396

> <Gold.PLP.part.hbond>
-4.9182

> <Gold.PLP.part.metal>
0.0000

> <Gold.PLP.part.buried>
0.6969

> <Gold.PLP.part.nonpolar>
-31.4967

> <Gold.PLP.part.repulsive>
0.3972

> <Gold.PLP.ligand.clash>
0.0000

> <Gold.PLP.ligand.torsion>
0.2595

> <Gold.PLP.Chemscore.Hbond>
4.0000

> <Gold.PLP.Chemscore.CHOScore>
0.0000

> <Gold.PLP.Chemscore.Metal>
0.0000

> <Gold.Chemscore.Hbonds>
donor molecule, donor type, donor heavy atom, donor atom, acceptor molecule, acceptor atom, score
      L1  H     8    27       P1  7948  1.00
      L1  H    11    47       P1  7948  2.00
      P1  H  7997  8009       L1    21  1.00

> <Gold.PLP.Chemscore.Internal.Correction>
0.0273

> <Gold.Rescore>
     Score         DG    S(hbond)    S(metal)    S(lipo)     H(rot)  DE(clash)    DE(int)     intcor
     17.78     -20.29       2.96        0.00      75.39       1.52       1.18       1.32       ----

> <Gold.Chemscore.Fitness>
17.7788

> <Gold.Chemscore.DG>
-20.2873

> <Gold.Chemscore.ZeroCoef>
-5.4800

> <Gold.Chemscore.Hbond>
2.9591

> <Gold.Chemscore.Metal>
0.0000

> <Gold.Chemscore.Lipo>
75.3911

> <Gold.Chemscore.Internal_Hbond>
0.0000

> <Gold.Chemscore.DEClash>
1.1839

> <Gold.Chemscore.DEInternal>
1.3246

> <Gold.Chemscore.Rot>
1.5221

> <Gold.Chemscore.Internal.Correction>
   9.000000E+99

> <Gold.Chemscore.Hbonds>
donor molecule, donor type, donor heavy atom, donor atom, acceptor molecule, acceptor atom, score
      L1  H     8    27       P1  7948  0.99
      L1  H    11    47       P1  7948  0.98
      P1  H  7997  8009       L1    21  0.97

> <Gold.Chemscore.Hbond.Weighted>
-9.8833

> <Gold.Chemscore.Metal.Weighted>
-0.0000

> <Gold.Chemscore.Lipo.Weighted>
-8.8208

> <Gold.Chemscore.Internal_Hbond.Weighted>
0.0000

> <Gold.Chemscore.DEClash.Weighted>
1.1839

> <Gold.Chemscore.DEInternal.Weighted>
1.3246

> <Gold.Chemscore.Rot.Weighted>
3.8967

> <Gold.Chemscore.Internal.Correction.Weighted>
   9.000000E+99

> <Gold.Protein.RotatedTorsions>
[ 6907 6896 6895 6894 ] final   91.58 input  -60.11 | X-H torsion
[ 7974 7965 7964 7962 ] final  -19.69 input  175.53 | X-H torsion
[ 8008 7997 7996 7995 ] final -171.61 input   59.86 | X-H torsion
[ 10167 10162 10161 10158 ] final   68.73 input  -65.29 | X-H torsion
[ 10718 10713 10712 10709 ] final  154.68 input   66.30 | X-H torsion
[ 10763 10752 10751 10750 ] final  -14.10 input  -60.55 | X-H torsion
[ 11005 11000 10999 10996 ] final  -62.06 input  -57.11 | X-H torsion

> <Gold.Protein.ActiveResidues>
 VAL166  LYS551  ARG553  GLY616  TRP617  ASP618  TYR619  PRO620  LYS621  CYS622 
 ASP623  PHE694  ASN695  SER759  ASP760  ASP761  ALA762  ILE779  LEU786  VAL792 
 PHE793  MET794  SER795  GLU796  ALA797  LYS798  CYS799  TRP800  GLU811  SER814 

> <Gold.Protein.RotatedAtoms>
  152.5450  134.1635  159.8567 H   0  0  0  0  0  0  0  0  0  0  0  0  # atno 6907 bound_to 6896
  151.1651  133.4813  159.2601 H   0  0  0  0  0  0  0  0  0  0  0  0  # atno 6908 bound_to 6896
  151.1332  135.0152  159.8647 H   0  0  0  0  0  0  0  0  0  0  0  0  # atno 6909 bound_to 6896
  146.1828  140.4097  142.8488 H   0  0  0  0  0  0  0  0  0  0  0  0  # atno 7974 bound_to 7965
  155.9338  140.1096  157.1111 H   0  0  0  0  0  0  0  0  0  0  0  0  # atno 8008 bound_to 7997
  154.4076  140.1232  156.4903 H   0  0  0  0  0  0  0  0  0  0  0  0  # atno 8009 bound_to 7997
  155.7047  140.3471  155.4950 H   0  0  0  0  0  0  0  0  0  0  0  0  # atno 8010 bound_to 7997
  140.0755  144.5116  150.7197 H   0  0  0  0  0  0  0  0  0  0  0  0  # atno 10167 bound_to 10162
  157.2284  131.0734  151.1868 H   0  0  0  0  0  0  0  0  0  0  0  0  # atno 10718 bound_to 10713
  153.5232  135.7015  153.5721 H   0  0  0  0  0  0  0  0  0  0  0  0  # atno 10763 bound_to 10752
  153.3760  135.3932  155.1823 H   0  0  0  0  0  0  0  0  0  0  0  0  # atno 10764 bound_to 10752
  154.8692  135.3823  154.4723 H   0  0  0  0  0  0  0  0  0  0  0  0  # atno 10765 bound_to 10752
  141.1346  133.6636  156.5470 H   0  0  0  0  0  0  0  0  0  0  0  0  # atno 11005 bound_to 11000
  144.8345  140.6759  143.6270 LP  0  0  0  0  0  0  0  0  0  0  0  0  # atno 17320 bound_to 7965
  145.4026  139.1595  143.4169 LP  0  0  0  0  0  0  0  0  0  0  0  0  # atno 17321 bound_to 7965
  140.7104  143.2500  151.4599 LP  0  0  0  0  0  0  0  0  0  0  0  0  # atno 17342 bound_to 10162
  139.5810  144.1709  152.1968 LP  0  0  0  0  0  0  0  0  0  0  0  0  # atno 17343 bound_to 10162
  157.3503  130.7079  149.6436 LP  0  0  0  0  0  0  0  0  0  0  0  0  # atno 17370 bound_to 10713
  155.9677  130.4254  150.4654 LP  0  0  0  0  0  0  0  0  0  0  0  0  # atno 17371 bound_to 10713
  140.4094  134.7286  157.4827 LP  0  0  0  0  0  0  0  0  0  0  0  0  # atno 17394 bound_to 11000
  140.0438  134.6228  155.8946 LP  0  0  0  0  0  0  0  0  0  0  0  0  # atno 17395 bound_to 11000

$$$$
