AV-unprocessed.smi:1740|AV-procd|sdf|7009|dock2
  -GOLD-   22720 8223D 1   1.00000     0.00000
 Structure written by MMmdl.
 52 54  0  0  0  0  0  0  0  0  2 V2000
  151.3825  141.4474  159.2071 N   0  0  0  0  0  0  0  0  0  0  0  0
  151.8914  140.8844  158.1083 C   0  0  0  0  0  0  0  0  0  0  0  0
  152.8446  140.1095  158.1461 O   0  0  0  0  0  0  0  0  0  0  0  0
  151.2383  141.2516  156.7709 C   0  0  0  0  0  0  0  0  0  0  0  0
  150.6737  140.1045  156.0227 N   0  0  0  0  0  0  0  0  0  0  0  0
  149.7339  139.3149  156.8328 C   0  0  0  0  0  0  0  0  0  0  0  0
  149.1224  138.1753  155.9984 C   0  0  0  0  0  0  0  0  0  0  0  0
  150.2128  137.2602  155.4180 C   0  0  0  0  0  0  0  0  0  0  0  0
  149.6340  136.2642  154.5214 N   0  0  0  0  0  0  0  0  0  0  0  0
  149.4896  134.9625  154.8062 C   0  0  0  0  0  0  0  0  0  0  0  0
  149.8357  134.4531  155.8721 O   0  0  0  0  0  0  0  0  0  0  0  0
  148.9026  134.3028  153.7938 N   0  0  0  0  0  0  0  0  0  0  0  0
  148.5563  132.9236  153.7455 C   0  0  0  0  0  0  0  0  0  0  0  0
  149.3019  131.9604  154.4723 C   0  0  0  0  0  0  0  0  0  0  0  0
  148.9899  130.5933  154.3518 C   0  0  0  0  0  0  0  0  0  0  0  0
  147.9463  130.2072  153.4935 C   0  0  0  0  0  0  0  0  0  0  0  0
  147.2630  131.1465  152.8071 N   0  3  0  0  0  0  0  0  0  0  0  0
  147.5055  132.4786  152.8919 C   0  0  0  0  0  0  0  0  0  0  0  0
  146.6964  133.3485  152.1257 N   0  0  0  0  0  0  0  0  0  0  0  0
  145.7939  132.8150  151.1117 C   0  0  0  0  0  0  0  0  0  0  0  0
  144.8465  133.9646  150.7798 C   0  0  0  0  0  0  0  0  0  0  0  0
  144.6909  134.6602  152.1287 C   0  0  0  0  0  0  0  0  0  0  0  0
  146.0631  134.4853  152.7876 C   0  0  0  0  0  0  0  0  0  0  0  0
  151.2310  138.1206  154.6576 C   0  0  0  0  0  0  0  0  0  0  0  0
  151.7702  139.2543  155.5471 C   0  0  0  0  0  0  0  0  0  0  0  0
  151.7763  141.2307  160.1113 H   0  0  0  0  0  0  0  0  0  0  0  0
  150.6017  142.0829  159.1290 H   0  0  0  0  0  0  0  0  0  0  0  0
  150.4470  141.9716  156.9853 H   0  0  0  0  0  0  0  0  0  0  0  0
  151.9693  141.7730  156.1498 H   0  0  0  0  0  0  0  0  0  0  0  0
  150.2417  138.9104  157.7103 H   0  0  0  0  0  0  0  0  0  0  0  0
  148.9183  139.9371  157.2014 H   0  0  0  0  0  0  0  0  0  0  0  0
  148.4368  137.5963  156.6183 H   0  0  0  0  0  0  0  0  0  0  0  0
  148.5239  138.6002  155.1910 H   0  0  0  0  0  0  0  0  0  0  0  0
  150.7317  136.7564  156.2359 H   0  0  0  0  0  0  0  0  0  0  0  0
  149.3193  136.5946  153.6210 H   0  0  0  0  0  0  0  0  0  0  0  0
  148.5761  134.8651  153.0215 H   0  0  0  0  0  0  0  0  0  0  0  0
  150.1268  132.2506  155.1055 H   0  0  0  0  0  0  0  0  0  0  0  0
  149.5523  129.8518  154.9005 H   0  0  0  0  0  0  0  0  0  0  0  0
  147.6411  129.1834  153.3325 H   0  0  0  0  0  0  0  0  0  0  0  0
  146.3399  132.4735  150.2318 H   0  0  0  0  0  0  0  0  0  0  0  0
  145.2226  131.9757  151.5109 H   0  0  0  0  0  0  0  0  0  0  0  0
  145.3146  134.6412  150.0635 H   0  0  0  0  0  0  0  0  0  0  0  0
  143.8983  133.6270  150.3600 H   0  0  0  0  0  0  0  0  0  0  0  0
  144.3941  135.7056  152.0385 H   0  0  0  0  0  0  0  0  0  0  0  0
  143.9314  134.1453  152.7188 H   0  0  0  0  0  0  0  0  0  0  0  0
  145.9685  134.3353  153.8643 H   0  0  0  0  0  0  0  0  0  0  0  0
  146.6729  135.3736  152.6203 H   0  0  0  0  0  0  0  0  0  0  0  0
  152.0581  137.5007  154.3100 H   0  0  0  0  0  0  0  0  0  0  0  0
  150.7692  138.5489  153.7664 H   0  0  0  0  0  0  0  0  0  0  0  0
  152.4748  139.8503  154.9655 H   0  0  0  0  0  0  0  0  0  0  0  0
  152.3258  138.8414  156.3912 H   0  0  0  0  0  0  0  0  0  0  0  0
  146.5108  130.8344  152.1925 H   0  0  0  0  0  0  0  0  0  0  0  0
  1  2  1  0  0  0  0
  1 26  1  0  0  0  0
  1 27  1  0  0  0  0
  2  3  2  0  0  0  0
  2  4  1  0  0  0  0
  4  5  1  0  0  0  0
  4 28  1  0  0  0  0
  4 29  1  0  0  0  0
  5 25  1  0  0  0  0
  5  6  1  0  0  0  0
  6  7  1  0  0  0  0
  6 30  1  0  0  0  0
  6 31  1  0  0  0  0
  7  8  1  0  0  0  0
  7 32  1  0  0  0  0
  7 33  1  0  0  0  0
  8  9  1  0  0  0  0
  8 24  1  0  0  0  0
  8 34  1  0  0  0  0
  9 10  1  0  0  0  0
  9 35  1  0  0  0  0
 10 11  2  0  0  0  0
 10 12  1  0  0  0  0
 12 13  1  0  0  0  0
 12 36  1  0  0  0  0
 13 18  1  0  0  0  0
 13 14  2  0  0  0  0
 14 15  1  0  0  0  0
 14 37  1  0  0  0  0
 15 16  2  0  0  0  0
 15 38  1  0  0  0  0
 16 17  1  0  0  0  0
 16 39  1  0  0  0  0
 17 18  2  0  0  0  0
 17 52  1  0  0  0  0
 18 19  1  0  0  0  0
 19 23  1  0  0  0  0
 19 20  1  0  0  0  0
 20 21  1  0  0  0  0
 20 40  1  0  0  0  0
 20 41  1  0  0  0  0
 21 22  1  0  0  0  0
 21 42  1  0  0  0  0
 21 43  1  0  0  0  0
 22 23  1  0  0  0  0
 22 44  1  0  0  0  0
 22 45  1  0  0  0  0
 23 46  1  0  0  0  0
 23 47  1  0  0  0  0
 24 25  1  0  0  0  0
 24 48  1  0  0  0  0
 24 49  1  0  0  0  0
 25 50  1  0  0  0  0
 25 51  1  0  0  0  0
M  CHG  1  17   1
M  END
> <s_m_source_file>
AV-unprocessed.smi

> <i_m_source_file_index>
1740

> <i_lp_mmshare_version>
43012

> <i_f3d_flags>
0

> <s_epik_input>
W05IMl1DKD1PKVtDSDJdTjFbQ0gyXVtDSDJdW0NIXShbQ0gyXVtDSDJdMSlbTkhdQyg9TylbTkhdYzJbY0hdW2NIXVtjSF1uYzJOM1tDSDJdW0NIMl1bQ0gyXVtDSDJdMw==

> <s_epik_cmdline>
J2VwaWtfcHl0aG9uJywgJy1waCcsICc3LjAnLCAnLXRuJywgJzgnLCAnLW1hJywgJzIwMCcsICctbWV0YWxfYmluZGluZycsICctaW1hZScsICc8aW5maWxlLm1hZT4nLCAnLW9tYWUnLCAnPG91dGZpbGUubWFlPic=

> <r_epik_Ionization_Penalty>
1.24114

> <r_epik_Ionization_Penalty_Charging>
1.08532

> <r_epik_Ionization_Penalty_Neutral>
0.155817

> <r_epik_State_Penalty>
1.33508

> <r_epik_Charging_Adjusted_Penalty>
2.4204

> <i_epik_Tot_Q>
1

> <i_epik_Tot_abs_Q>
1

> <r_epik_Metal_State_Penalty>
1.43573

> <b_epik_Metal_Only>
0

> <s_lp_Force_Field>
OPLS_2005

> <r_lp_Energy>
46.1835

> <b_lp_Chiralities_Consistent>
1

> <s_lp_Variant>
AV-unprocessed.smi:1740-4

> <Gold.Version>
5.8.1

> <Gold.Id.Protein>
6NUR|6NUR_protein|mol2

> <Gold.PLP.Fitness>
45.4698

> <Gold.PLP.PLP>
-37.1847

> <Gold.PLP.part.hbond>
-4.2489

> <Gold.PLP.part.metal>
0.0000

> <Gold.PLP.part.buried>
-2.9367

> <Gold.PLP.part.nonpolar>
-29.3445

> <Gold.PLP.part.repulsive>
0.3967

> <Gold.PLP.ligand.clash>
0.0000

> <Gold.PLP.ligand.torsion>
0.5210

> <Gold.PLP.Chemscore.Hbond>
2.9840

> <Gold.PLP.Chemscore.CHOScore>
0.0000

> <Gold.PLP.Chemscore.Metal>
0.0000

> <Gold.Chemscore.Hbonds>
donor molecule, donor type, donor heavy atom, donor atom, acceptor molecule, acceptor atom, score
      L1  H     9    35       P1  7948  0.96
      L1  H    12    36       P1  7948  0.91
      P1  H  7997  8008       L1     3  0.91

> <Gold.PLP.Chemscore.Internal.Correction>
0.3752

> <Gold.Rescore>
     Score         DG    S(hbond)    S(metal)    S(lipo)     H(rot)  DE(clash)    DE(int)     intcor
     13.23     -16.29       2.45        0.00      70.49       2.19       0.04       3.01       ----

> <Gold.Chemscore.Fitness>
13.2312

> <Gold.Chemscore.DG>
-16.2885

> <Gold.Chemscore.ZeroCoef>
-5.4800

> <Gold.Chemscore.Hbond>
2.4464

> <Gold.Chemscore.Metal>
0.0000

> <Gold.Chemscore.Lipo>
70.4853

> <Gold.Chemscore.Internal_Hbond>
0.0000

> <Gold.Chemscore.DEClash>
0.0424

> <Gold.Chemscore.DEInternal>
3.0148

> <Gold.Chemscore.Rot>
2.1911

> <Gold.Chemscore.Internal.Correction>
   9.000000E+99

> <Gold.Chemscore.Hbonds>
donor molecule, donor type, donor heavy atom, donor atom, acceptor molecule, acceptor atom, score
      L1  H     9    35       P1  7948  0.85
      L1  H    12    36       P1  7948  0.40
      P1  H  7997  8008       L1     3  0.84

> <Gold.Chemscore.Hbond.Weighted>
-8.1710

> <Gold.Chemscore.Metal.Weighted>
-0.0000

> <Gold.Chemscore.Lipo.Weighted>
-8.2468

> <Gold.Chemscore.Internal_Hbond.Weighted>
0.0000

> <Gold.Chemscore.DEClash.Weighted>
0.0424

> <Gold.Chemscore.DEInternal.Weighted>
3.0148

> <Gold.Chemscore.Rot.Weighted>
5.6092

> <Gold.Chemscore.Internal.Correction.Weighted>
   9.000000E+99

> <Gold.Protein.RotatedTorsions>
[ 6907 6896 6895 6894 ] final  110.70 input  -60.11 | X-H torsion
[ 7974 7965 7964 7962 ] final  -35.80 input  175.53 | X-H torsion
[ 8008 7997 7996 7995 ] final  -75.78 input   59.86 | X-H torsion
[ 10167 10162 10161 10158 ] final  -85.75 input  -65.29 | X-H torsion
[ 10718 10713 10712 10709 ] final  133.63 input   66.30 | X-H torsion
[ 10763 10752 10751 10750 ] final  -57.99 input  -60.55 | X-H torsion
[ 11005 11000 10999 10996 ] final -129.47 input  -57.11 | X-H torsion

> <Gold.Protein.ActiveResidues>
 VAL166  LYS551  ARG553  GLY616  TRP617  ASP618  TYR619  PRO620  LYS621  CYS622 
 ASP623  PHE694  ASN695  SER759  ASP760  ASP761  ALA762  ILE779  LEU786  VAL792 
 PHE793  MET794  SER795  GLU796  ALA797  LYS798  CYS799  TRP800  GLU811  SER814 

> <Gold.Protein.RotatedAtoms>
  152.5006  133.8763  159.7323 H   0  0  0  0  0  0  0  0  0  0  0  0  # atno 6907 bound_to 6896
  150.9237  133.6841  159.2833 H   0  0  0  0  0  0  0  0  0  0  0  0  # atno 6908 bound_to 6896
  151.4209  135.1002  159.9666 H   0  0  0  0  0  0  0  0  0  0  0  0  # atno 6909 bound_to 6896
  146.0716  140.6202  142.8950 H   0  0  0  0  0  0  0  0  0  0  0  0  # atno 7974 bound_to 7965
  154.5447  140.0738  156.8568 H   0  0  0  0  0  0  0  0  0  0  0  0  # atno 8008 bound_to 7997
  155.3112  140.3390  155.4226 H   0  0  0  0  0  0  0  0  0  0  0  0  # atno 8009 bound_to 7997
  156.1907  140.1685  156.8084 H   0  0  0  0  0  0  0  0  0  0  0  0  # atno 8010 bound_to 7997
  140.4008  143.2664  151.9145 H   0  0  0  0  0  0  0  0  0  0  0  0  # atno 10167 bound_to 10162
  157.4754  131.1082  150.9750 H   0  0  0  0  0  0  0  0  0  0  0  0  # atno 10718 bound_to 10713
  154.2312  135.6360  153.5176 H   0  0  0  0  0  0  0  0  0  0  0  0  # atno 10763 bound_to 10752
  152.9948  135.5520  154.6011 H   0  0  0  0  0  0  0  0  0  0  0  0  # atno 10764 bound_to 10752
  154.5494  135.2900  155.0997 H   0  0  0  0  0  0  0  0  0  0  0  0  # atno 10765 bound_to 10752
  140.9429  134.1169  157.4134 H   0  0  0  0  0  0  0  0  0  0  0  0  # atno 11005 bound_to 11000
  144.7235  140.4450  143.6990 LP  0  0  0  0  0  0  0  0  0  0  0  0  # atno 17320 bound_to 7965
  145.6381  139.1546  143.2931 LP  0  0  0  0  0  0  0  0  0  0  0  0  # atno 17321 bound_to 7965
  139.4785  144.5635  151.8201 LP  0  0  0  0  0  0  0  0  0  0  0  0  # atno 17342 bound_to 10162
  140.4742  144.1543  150.5922 LP  0  0  0  0  0  0  0  0  0  0  0  0  # atno 17343 bound_to 10162
  157.0501  130.5783  149.5369 LP  0  0  0  0  0  0  0  0  0  0  0  0  # atno 17370 bound_to 10713
  156.0094  130.5184  150.7939 LP  0  0  0  0  0  0  0  0  0  0  0  0  # atno 17371 bound_to 10713
  139.8825  135.0042  156.6235 LP  0  0  0  0  0  0  0  0  0  0  0  0  # atno 17394 bound_to 11000
  140.7710  133.8739  155.8491 LP  0  0  0  0  0  0  0  0  0  0  0  0  # atno 17395 bound_to 11000

$$$$
