AV-unprocessed.smi:3287|AV-procd|sdf|12590|dock7
  -GOLD-   2272018513D 1   1.00000     0.00000
 Structure written by MMmdl.
 43 44  0  0  0  0  0  0  0  0  2 V2000
  153.7515  142.0179  160.5135 C   0  0  0  0  0  0  0  0  0  0  0  0
  152.4445  142.0876  159.7037 C   0  0  2  0  0  0  0  0  0  0  0  0
  152.4115  140.9469  158.6665 C   0  0  0  0  0  0  0  0  0  0  0  0
  151.1227  140.9631  157.8337 C   0  0  0  0  0  0  0  0  0  0  0  0
  150.9395  142.3123  157.1224 C   0  0  1  0  0  0  0  0  0  0  0  0
  149.6852  142.2973  156.3378 N   0  3  0  0  0  0  0  0  0  0  0  0
  149.7851  141.6803  154.9974 C   0  0  0  0  0  0  0  0  0  0  0  0
  149.1106  140.2976  154.9626 C   0  0  2  0  0  0  0  0  0  0  0  0
  148.2851  140.1622  156.1033 O   0  0  0  0  0  0  0  0  0  0  0  0
  150.1447  139.1859  154.8800 C   0  0  0  0  0  0  0  0  0  0  0  0
  149.7401  137.8384  154.7783 C   0  0  0  0  0  0  0  0  0  0  0  0
  150.7326  136.8410  154.6959 C   0  0  0  0  0  0  0  0  0  0  0  0
  152.0558  137.1092  154.7071 N   0  0  0  0  0  0  0  0  0  0  0  0
  152.4382  138.4003  154.8027 C   0  0  0  0  0  0  0  0  0  0  0  0
  151.5273  139.4719  154.8899 C   0  0  0  0  0  0  0  0  0  0  0  0
  150.9488  143.4547  158.1576 C   0  0  0  0  0  0  0  0  0  0  0  0
  152.2343  143.4607  159.0121 C   0  0  1  0  0  0  0  0  0  0  0  0
  152.1924  144.6328  160.0094 C   0  0  0  0  0  0  0  0  0  0  0  0
  154.6167  142.2433  159.8895 H   0  0  0  0  0  0  0  0  0  0  0  0
  153.8981  141.0228  160.9345 H   0  0  0  0  0  0  0  0  0  0  0  0
  153.7485  142.7162  161.3499 H   0  0  0  0  0  0  0  0  0  0  0  0
  151.6185  141.9272  160.3986 H   0  0  0  0  0  0  0  0  0  0  0  0
  153.2731  141.0280  158.0019 H   0  0  0  0  0  0  0  0  0  0  0  0
  152.5027  139.9833  159.1694 H   0  0  0  0  0  0  0  0  0  0  0  0
  151.1521  140.1550  157.1016 H   0  0  0  0  0  0  0  0  0  0  0  0
  150.2683  140.7626  158.4821 H   0  0  0  0  0  0  0  0  0  0  0  0
  151.7736  142.4460  156.4313 H   0  0  0  0  0  0  0  0  0  0  0  0
  149.0067  141.7582  156.8569 H   0  0  0  0  0  0  0  0  0  0  0  0
  149.3056  142.3325  154.2672 H   0  0  0  0  0  0  0  0  0  0  0  0
  150.8343  141.5953  154.7100 H   0  0  0  0  0  0  0  0  0  0  0  0
  148.4650  140.2341  154.0852 H   0  0  0  0  0  0  0  0  0  0  0  0
  148.8237  140.2527  156.8753 H   0  0  0  0  0  0  0  0  0  0  0  0
  148.6943  137.5685  154.7633 H   0  0  0  0  0  0  0  0  0  0  0  0
  150.4560  135.8000  154.6173 H   0  0  0  0  0  0  0  0  0  0  0  0
  153.5022  138.5857  154.8078 H   0  0  0  0  0  0  0  0  0  0  0  0
  151.8872  140.4881  154.9615 H   0  0  0  0  0  0  0  0  0  0  0  0
  150.8548  144.4167  157.6536 H   0  0  0  0  0  0  0  0  0  0  0  0
  150.0789  143.3643  158.8099 H   0  0  0  0  0  0  0  0  0  0  0  0
  153.0764  143.6335  158.3400 H   0  0  0  0  0  0  0  0  0  0  0  0
  151.4185  144.4854  160.7633 H   0  0  0  0  0  0  0  0  0  0  0  0
  151.9826  145.5735  159.4997 H   0  0  0  0  0  0  0  0  0  0  0  0
  153.1438  144.7602  160.5250 H   0  0  0  0  0  0  0  0  0  0  0  0
  149.3402  143.2422  156.2488 H   0  0  0  0  0  0  0  0  0  0  0  0
  1  2  1  0  0  0  0
  1 19  1  0  0  0  0
  1 20  1  0  0  0  0
  1 21  1  0  0  0  0
  2 17  1  0  0  0  0
  2  3  1  0  0  0  0
  2 22  1  0  0  0  0
  3  4  1  0  0  0  0
  3 23  1  0  0  0  0
  3 24  1  0  0  0  0
  4  5  1  0  0  0  0
  4 25  1  0  0  0  0
  4 26  1  0  0  0  0
  5  6  1  0  0  0  0
  5 16  1  0  0  0  0
  5 27  1  0  0  0  0
  6  7  1  0  0  0  0
  6 28  1  0  0  0  0
  6 43  1  0  0  0  0
  7  8  1  0  0  0  0
  7 29  1  0  0  0  0
  7 30  1  0  0  0  0
  8  9  1  0  0  0  0
  8 10  1  0  0  0  0
  8 31  1  0  0  0  0
  9 32  1  0  0  0  0
 10 15  1  0  0  0  0
 10 11  2  0  0  0  0
 11 12  1  0  0  0  0
 11 33  1  0  0  0  0
 12 13  2  0  0  0  0
 12 34  1  0  0  0  0
 13 14  1  0  0  0  0
 14 15  2  0  0  0  0
 14 35  1  0  0  0  0
 15 36  1  0  0  0  0
 16 17  1  0  0  0  0
 16 37  1  0  0  0  0
 16 38  1  0  0  0  0
 17 18  1  0  0  0  0
 17 39  1  0  0  0  0
 18 40  1  0  0  0  0
 18 41  1  0  0  0  0
 18 42  1  0  0  0  0
M  CHG  1   6   1
M  END
> <s_m_source_file>
AV-unprocessed.smi

> <i_m_source_file_index>
3287

> <i_lp_mmshare_version>
43012

> <i_f3d_flags>
0

> <s_epik_input>
W0NIM11bQ0BASF0xW0NIMl1bQ0gyXVtDQEhdKFtDSDJdW0NASF0xW0NIM10pW05IXVtDSDJdW0NASF0oW09IXSljMltjSF1bY0hdbltjSF1bY0hdMg==

> <s_epik_cmdline>
J2VwaWtfcHl0aG9uJywgJy1waCcsICc3LjAnLCAnLXRuJywgJzgnLCAnLW1hJywgJzIwMCcsICctbWV0YWxfYmluZGluZycsICctaW1hZScsICc8aW5maWxlLm1hZT4nLCAnLW9tYWUnLCAnPG91dGZpbGUubWFlPic=

> <r_lp_tautomer_probability>
1

> <r_epik_Ionization_Penalty>
0.00537262

> <r_epik_Ionization_Penalty_Charging>
0.00321624

> <r_epik_Ionization_Penalty_Neutral>
0.00215638

> <r_epik_State_Penalty>
-0

> <r_epik_Charging_Adjusted_Penalty>
0.00321624

> <i_epik_Tot_Q>
1

> <i_epik_Tot_abs_Q>
1

> <r_epik_Metal_State_Penalty>
-0

> <b_epik_Metal_Only>
0

> <s_lp_Force_Field>
OPLS_2005

> <r_lp_Energy>
16.0387

> <b_lp_Chiralities_Consistent>
1

> <s_lp_Variant>
AV-unprocessed.smi:3287-1

> <Gold.Version>
5.8.1

> <Gold.Id.Protein>
6NUR|6NUR_protein|mol2

> <Gold.PLP.Fitness>
47.6607

> <Gold.PLP.PLP>
-41.3702

> <Gold.PLP.part.hbond>
-2.0000

> <Gold.PLP.part.metal>
0.0000

> <Gold.PLP.part.buried>
-2.2143

> <Gold.PLP.part.nonpolar>
-37.1723

> <Gold.PLP.part.repulsive>
0.1916

> <Gold.PLP.ligand.clash>
0.0000

> <Gold.PLP.ligand.torsion>
1.2572

> <Gold.PLP.Chemscore.Hbond>
2.9280

> <Gold.PLP.Chemscore.CHOScore>
0.0000

> <Gold.PLP.Chemscore.Metal>
0.0000

> <Gold.Chemscore.Hbonds>
donor molecule, donor type, donor heavy atom, donor atom, acceptor molecule, acceptor atom, score
      L1  H     6    43       P1  8028  2.00
      P1  H 10752 10763       L1    13  0.93

> <Gold.PLP.Chemscore.Internal.Correction>
0.0209

> <Gold.Rescore>
     Score         DG    S(hbond)    S(metal)    S(lipo)     H(rot)  DE(clash)    DE(int)     intcor
     19.89     -21.15       1.92        0.00     120.70       1.90       0.00       1.26       ----

> <Gold.Chemscore.Fitness>
19.8871

> <Gold.Chemscore.DG>
-21.1515

> <Gold.Chemscore.ZeroCoef>
-5.4800

> <Gold.Chemscore.Hbond>
1.9230

> <Gold.Chemscore.Metal>
0.0000

> <Gold.Chemscore.Lipo>
120.6977

> <Gold.Chemscore.Internal_Hbond>
0.0000

> <Gold.Chemscore.DEClash>
0.0000

> <Gold.Chemscore.DEInternal>
1.2644

> <Gold.Chemscore.Rot>
1.9035

> <Gold.Chemscore.Internal.Correction>
   9.000000E+99

> <Gold.Chemscore.Hbonds>
donor molecule, donor type, donor heavy atom, donor atom, acceptor molecule, acceptor atom, score
      L1  H     6    43       P1  8028  1.00
      P1  H 10752 10763       L1    13  0.63

> <Gold.Chemscore.Hbond.Weighted>
-6.4228

> <Gold.Chemscore.Metal.Weighted>
-0.0000

> <Gold.Chemscore.Lipo.Weighted>
-14.1216

> <Gold.Chemscore.Internal_Hbond.Weighted>
0.0000

> <Gold.Chemscore.DEClash.Weighted>
0.0000

> <Gold.Chemscore.DEInternal.Weighted>
1.2644

> <Gold.Chemscore.Rot.Weighted>
4.8729

> <Gold.Chemscore.Internal.Correction.Weighted>
   9.000000E+99

> <Gold.Protein.RotatedTorsions>
[ 6907 6896 6895 6894 ] final -179.93 input  -60.11 | X-H torsion
[ 7974 7965 7964 7962 ] final  -72.64 input  175.53 | X-H torsion
[ 8008 7997 7996 7995 ] final  129.80 input   59.86 | X-H torsion
[ 10167 10162 10161 10158 ] final -140.57 input  -65.29 | X-H torsion
[ 10718 10713 10712 10709 ] final   -9.10 input   66.30 | X-H torsion
[ 10763 10752 10751 10750 ] final   49.20 input  -60.55 | X-H torsion
[ 11005 11000 10999 10996 ] final    5.87 input  -57.11 | X-H torsion

> <Gold.Protein.ActiveResidues>
 VAL166  LYS551  ARG553  GLY616  TRP617  ASP618  TYR619  PRO620  LYS621  CYS622 
 ASP623  PHE694  ASN695  SER759  ASP760  ASP761  ALA762  ILE779  LEU786  VAL792 
 PHE793  MET794  SER795  GLU796  ALA797  LYS798  CYS799  TRP800  GLU811  SER814 

> <Gold.Protein.RotatedAtoms>
  151.6614  133.3317  159.3174 H   0  0  0  0  0  0  0  0  0  0  0  0  # atno 6907 bound_to 6896
  150.7912  134.6941  159.6522 H   0  0  0  0  0  0  0  0  0  0  0  0  # atno 6908 bound_to 6896
  152.3992  134.6319  160.0129 H   0  0  0  0  0  0  0  0  0  0  0  0  # atno 6909 bound_to 6896
  145.6625  140.9248  143.0926 H   0  0  0  0  0  0  0  0  0  0  0  0  # atno 7974 bound_to 7965
  156.2943  140.2611  156.2658 H   0  0  0  0  0  0  0  0  0  0  0  0  # atno 8008 bound_to 7997
  154.9743  140.0390  157.2267 H   0  0  0  0  0  0  0  0  0  0  0  0  # atno 8009 bound_to 7997
  154.7830  140.2798  155.6054 H   0  0  0  0  0  0  0  0  0  0  0  0  # atno 8010 bound_to 7997
  139.8268  143.7499  152.2666 H   0  0  0  0  0  0  0  0  0  0  0  0  # atno 10167 bound_to 10162
  156.6930  130.5070  149.5938 H   0  0  0  0  0  0  0  0  0  0  0  0  # atno 10718 bound_to 10713
  152.9788  135.5919  154.4050 H   0  0  0  0  0  0  0  0  0  0  0  0  # atno 10763 bound_to 10752
  154.3692  135.2767  155.2278 H   0  0  0  0  0  0  0  0  0  0  0  0  # atno 10764 bound_to 10752
  154.4241  135.6052  153.6083 H   0  0  0  0  0  0  0  0  0  0  0  0  # atno 10765 bound_to 10752
  140.5658  134.0149  155.7989 H   0  0  0  0  0  0  0  0  0  0  0  0  # atno 11005 bound_to 11000
  144.7084  139.8468  143.7422 LP  0  0  0  0  0  0  0  0  0  0  0  0  # atno 17320 bound_to 7965
  146.1113  139.4118  143.0286 LP  0  0  0  0  0  0  0  0  0  0  0  0  # atno 17321 bound_to 7965
  139.7695  144.7481  151.0245 LP  0  0  0  0  0  0  0  0  0  0  0  0  # atno 17342 bound_to 10162
  140.7809  143.4661  151.0210 LP  0  0  0  0  0  0  0  0  0  0  0  0  # atno 17343 bound_to 10162
  156.1784  130.6483  151.0922 LP  0  0  0  0  0  0  0  0  0  0  0  0  # atno 17370 bound_to 10713
  157.7002  131.0779  150.6844 LP  0  0  0  0  0  0  0  0  0  0  0  0  # atno 17371 bound_to 10713
  141.1086  133.9653  157.2951 LP  0  0  0  0  0  0  0  0  0  0  0  0  # atno 17394 bound_to 11000
  139.9385  135.0194  156.8634 LP  0  0  0  0  0  0  0  0  0  0  0  0  # atno 17395 bound_to 11000

$$$$
