AV-unprocessed.smi:170|AV-procd|sdf|1413|dock1
  -GOLD-   2262019173D 1   1.00000     0.00000
 Structure written by MMmdl.
 57 61  0  0  0  0  0  0  0  0  1 V2000
  150.5580  136.4596  154.2187 O   0  0  0  0  0  0  0  0  0  0  0  0
  150.0159  135.5700  155.1770 C   0  0  1  0  0  0  0  0  0  0  0  0
  149.0793  136.3516  156.1203 C   0  0  0  0  0  0  0  0  0  0  0  0
  149.8031  137.0301  157.1809 N   0  0  0  0  0  0  0  0  0  0  0  0
  149.4830  137.0503  158.5201 C   0  0  0  0  0  0  0  0  0  0  0  0
  150.2925  137.7425  159.2753 N   0  0  0  0  0  0  0  0  0  0  0  0
  151.2414  138.2335  158.3877 C   0  0  0  0  0  0  0  0  0  0  0  0
  152.3882  139.0586  158.5272 C   0  0  0  0  0  0  0  0  0  0  0  0
  152.7778  139.5408  159.7312 N   0  0  0  0  0  0  0  0  0  0  0  0
  153.7236  138.6201  160.3529 C   0  0  0  0  0  0  0  0  0  0  0  0
  154.0418  139.0640  161.7859 C   0  0  0  0  0  0  0  0  0  0  0  0
  154.5420  140.3930  161.7518 O   0  0  0  0  0  0  0  0  0  0  0  0
  153.5764  141.3080  161.2478 C   0  0  0  0  0  0  0  0  0  0  0  0
  153.1868  140.9516  159.7928 C   0  0  2  0  0  0  0  0  0  0  0  0
  152.0809  141.9031  159.2633 C   0  0  0  0  0  0  0  0  0  0  0  0
  152.4836  143.3762  159.2316 C   0  0  0  0  0  0  0  0  0  0  0  0
  151.8488  144.3583  160.2279 C   0  0  0  0  0  0  0  0  0  0  0  0
  151.9015  145.4293  159.1349 C   0  0  0  0  0  0  0  0  0  0  0  0
  151.9576  144.2896  158.1140 C   0  0  0  0  0  0  0  0  0  0  0  0
  153.1116  139.3342  157.4090 N   0  0  0  0  0  0  0  0  0  0  0  0
  152.7243  138.8476  156.2260 C   0  0  0  0  0  0  0  0  0  0  0  0
  151.6719  138.0760  155.9440 N   0  0  0  0  0  0  0  0  0  0  0  0
  150.9526  137.7907  157.0673 C   0  0  0  0  0  0  0  0  0  0  0  0
  149.2882  134.4287  154.4424 C   0  0  1  0  0  0  0  0  0  0  0  0
  150.2191  133.4069  153.7857 C   0  0  0  0  0  0  0  0  0  0  0  0
  149.3341  132.1840  153.7176 C   0  0  0  0  0  0  0  0  0  0  0  0
  148.5824  132.2738  155.0415 C   0  0  0  0  0  0  0  0  0  0  0  0
  148.5068  133.6621  155.3571 O   0  0  0  0  0  0  0  0  0  0  0  0
  150.4393  136.0843  153.3598 H   0  0  0  0  0  0  0  0  0  0  0  0
  150.8427  135.1543  155.7544 H   0  0  0  0  0  0  0  0  0  0  0  0
  148.5030  137.0903  155.5615 H   0  0  0  0  0  0  0  0  0  0  0  0
  148.3570  135.6781  156.5828 H   0  0  0  0  0  0  0  0  0  0  0  0
  148.6211  136.5374  158.9214 H   0  0  0  0  0  0  0  0  0  0  0  0
  153.3133  137.6091  160.3663 H   0  0  0  0  0  0  0  0  0  0  0  0
  154.6411  138.5872  159.7631 H   0  0  0  0  0  0  0  0  0  0  0  0
  153.1565  139.0059  162.4214 H   0  0  0  0  0  0  0  0  0  0  0  0
  154.7958  138.4103  162.2241 H   0  0  0  0  0  0  0  0  0  0  0  0
  152.6988  141.3130  161.8966 H   0  0  0  0  0  0  0  0  0  0  0  0
  154.0129  142.3049  161.2972 H   0  0  0  0  0  0  0  0  0  0  0  0
  154.0769  141.0680  159.1726 H   0  0  0  0  0  0  0  0  0  0  0  0
  151.7850  141.6105  158.2564 H   0  0  0  0  0  0  0  0  0  0  0  0
  151.1843  141.7834  159.8725 H   0  0  0  0  0  0  0  0  0  0  0  0
  153.5677  143.4873  159.2933 H   0  0  0  0  0  0  0  0  0  0  0  0
  150.8274  144.0882  160.5016 H   0  0  0  0  0  0  0  0  0  0  0  0
  152.4564  144.5722  161.1077 H   0  0  0  0  0  0  0  0  0  0  0  0
  151.0145  146.0597  159.0687 H   0  0  0  0  0  0  0  0  0  0  0  0
  152.8195  146.0186  159.1629 H   0  0  0  0  0  0  0  0  0  0  0  0
  152.6526  144.4468  157.2887 H   0  0  0  0  0  0  0  0  0  0  0  0
  150.9692  143.9953  157.7569 H   0  0  0  0  0  0  0  0  0  0  0  0
  153.3468  139.1154  155.3850 H   0  0  0  0  0  0  0  0  0  0  0  0
  148.6110  134.8335  153.6883 H   0  0  0  0  0  0  0  0  0  0  0  0
  150.5806  133.7265  152.8079 H   0  0  0  0  0  0  0  0  0  0  0  0
  151.0830  133.2062  154.4214 H   0  0  0  0  0  0  0  0  0  0  0  0
  148.6388  132.2717  152.8815 H   0  0  0  0  0  0  0  0  0  0  0  0
  149.8914  131.2537  153.6052 H   0  0  0  0  0  0  0  0  0  0  0  0
  147.5914  131.8222  154.9868 H   0  0  0  0  0  0  0  0  0  0  0  0
  149.1410  131.7708  155.8320 H   0  0  0  0  0  0  0  0  0  0  0  0
  1  2  1  0  0  0  0
  1 29  1  0  0  0  0
  2  3  1  0  0  0  0
  2 24  1  0  0  0  0
  2 30  1  0  0  0  0
  3  4  1  0  0  0  0
  3 31  1  0  0  0  0
  3 32  1  0  0  0  0
  4 23  1  0  0  0  0
  4  5  1  0  0  0  0
  5  6  2  0  0  0  0
  5 33  1  0  0  0  0
  6  7  1  0  0  0  0
  7 23  2  0  0  0  0
  7  8  1  0  0  0  0
  8  9  1  0  0  0  0
  8 20  2  0  0  0  0
  9 14  1  0  0  0  0
  9 10  1  0  0  0  0
 10 11  1  0  0  0  0
 10 34  1  0  0  0  0
 10 35  1  0  0  0  0
 11 12  1  0  0  0  0
 11 36  1  0  0  0  0
 11 37  1  0  0  0  0
 12 13  1  0  0  0  0
 13 14  1  0  0  0  0
 13 38  1  0  0  0  0
 13 39  1  0  0  0  0
 14 15  1  0  0  0  0
 14 40  1  0  0  0  0
 15 16  1  0  0  0  0
 15 41  1  0  0  0  0
 15 42  1  0  0  0  0
 16 19  1  0  0  0  0
 16 17  1  0  0  0  0
 16 43  1  0  0  0  0
 17 18  1  0  0  0  0
 17 44  1  0  0  0  0
 17 45  1  0  0  0  0
 18 19  1  0  0  0  0
 18 46  1  0  0  0  0
 18 47  1  0  0  0  0
 19 48  1  0  0  0  0
 19 49  1  0  0  0  0
 20 21  1  0  0  0  0
 21 22  2  0  0  0  0
 21 50  1  0  0  0  0
 22 23  1  0  0  0  0
 24 28  1  0  0  0  0
 24 25  1  0  0  0  0
 24 51  1  0  0  0  0
 25 26  1  0  0  0  0
 25 52  1  0  0  0  0
 25 53  1  0  0  0  0
 26 27  1  0  0  0  0
 26 54  1  0  0  0  0
 26 55  1  0  0  0  0
 27 28  1  0  0  0  0
 27 56  1  0  0  0  0
 27 57  1  0  0  0  0
M  END
> <s_m_source_file>
AV-unprocessed.smi

> <i_m_source_file_index>
170

> <i_lp_mmshare_version>
43012

> <i_f3d_flags>
0

> <s_epik_input>
TzFbQ0gyXVtDSDJdW0NIMl1bQ0BIXTFbQ0BIXShbT0hdKVtDSDJdbihbY0hdbjIpYyhjMjMpbltjSF1uYzNONFtDSDJdW0NIMl1PW0NIMl1bQ0BIXTRbQ0gyXVtDSF01W0NIMl1bQ0gyXVtDSDJdNQ==

> <s_epik_cmdline>
J2VwaWtfcHl0aG9uJywgJy1waCcsICc3LjAnLCAnLXRuJywgJzgnLCAnLW1hJywgJzIwMCcsICctbWV0YWxfYmluZGluZycsICctaW1hZScsICc8aW5maWxlLm1hZT4nLCAnLW9tYWUnLCAnPG91dGZpbGUubWFlPic=

> <r_lp_tautomer_probability>
1

> <r_epik_Ionization_Penalty>
4.98275e-05

> <r_epik_Ionization_Penalty_Charging>
0

> <r_epik_Ionization_Penalty_Neutral>
4.98275e-05

> <r_epik_State_Penalty>
-0

> <r_epik_Charging_Adjusted_Penalty>
0

> <i_epik_Tot_Q>
0

> <i_epik_Tot_abs_Q>
0

> <r_epik_Metal_State_Penalty>
-0

> <b_epik_Metal_Only>
0

> <s_lp_Force_Field>
OPLS_2005

> <r_lp_Energy>
50.2735

> <b_lp_Chiralities_Consistent>
1

> <s_lp_Variant>
AV-unprocessed.smi:170-8

> <Gold.Version>
5.8.1

> <Gold.Id.Protein>
6NUR|6NUR_protein|mol2

> <Gold.PLP.Fitness>
51.9351

> <Gold.PLP.PLP>
-49.0240

> <Gold.PLP.part.hbond>
-4.1552

> <Gold.PLP.part.metal>
0.0000

> <Gold.PLP.part.buried>
-5.3765

> <Gold.PLP.part.nonpolar>
-39.7882

> <Gold.PLP.part.repulsive>
0.0136

> <Gold.PLP.ligand.clash>
0.0000

> <Gold.PLP.ligand.torsion>
1.7296

> <Gold.PLP.Chemscore.Hbond>
2.0000

> <Gold.PLP.Chemscore.CHOScore>
0.0000

> <Gold.PLP.Chemscore.Metal>
0.0000

> <Gold.Chemscore.Hbonds>
donor molecule, donor type, donor heavy atom, donor atom, acceptor molecule, acceptor atom, score
      L1  H     1    29       P1  7949  0.14
      P1  H  7997  8009       L1    20  0.95

> <Gold.PLP.Chemscore.Internal.Correction>
0.3702

> <Gold.Rescore>
     Score         DG    S(hbond)    S(metal)    S(lipo)     H(rot)  DE(clash)    DE(int)     intcor
     15.45     -18.84       1.86        0.00     118.15       2.61       0.01       3.38       ----

> <Gold.Chemscore.Fitness>
15.4517

> <Gold.Chemscore.DG>
-18.8375

> <Gold.Chemscore.ZeroCoef>
-5.4800

> <Gold.Chemscore.Hbond>
1.8644

> <Gold.Chemscore.Metal>
0.0000

> <Gold.Chemscore.Lipo>
118.1499

> <Gold.Chemscore.Internal_Hbond>
0.0000

> <Gold.Chemscore.DEClash>
0.0060

> <Gold.Chemscore.DEInternal>
3.3798

> <Gold.Chemscore.Rot>
2.6144

> <Gold.Chemscore.Internal.Correction>
   9.000000E+99

> <Gold.Chemscore.Hbonds>
donor molecule, donor type, donor heavy atom, donor atom, acceptor molecule, acceptor atom, score
      P1  H  7997  8009       L1    20  0.21

> <Gold.Chemscore.Hbond.Weighted>
-6.2269

> <Gold.Chemscore.Metal.Weighted>
-0.0000

> <Gold.Chemscore.Lipo.Weighted>
-13.8235

> <Gold.Chemscore.Internal_Hbond.Weighted>
0.0000

> <Gold.Chemscore.DEClash.Weighted>
0.0060

> <Gold.Chemscore.DEInternal.Weighted>
3.3798

> <Gold.Chemscore.Rot.Weighted>
6.6929

> <Gold.Chemscore.Internal.Correction.Weighted>
   9.000000E+99

> <Gold.Protein.RotatedTorsions>
[ 6907 6896 6895 6894 ] final   73.45 input  -60.11 | X-H torsion
[ 7974 7965 7964 7962 ] final   52.25 input  175.53 | X-H torsion
[ 8008 7997 7996 7995 ] final  158.52 input   59.86 | X-H torsion
[ 10167 10162 10161 10158 ] final  -18.61 input  -65.29 | X-H torsion
[ 10718 10713 10712 10709 ] final -114.15 input   66.30 | X-H torsion
[ 10763 10752 10751 10750 ] final    3.37 input  -60.55 | X-H torsion
[ 11005 11000 10999 10996 ] final  -36.25 input  -57.11 | X-H torsion

> <Gold.Protein.ActiveResidues>
 VAL166  LYS551  ARG553  GLY616  TRP617  ASP618  TYR619  PRO620  LYS621  CYS622 
 ASP623  PHE694  ASN695  SER759  ASP760  ASP761  ALA762  ILE779  LEU786  VAL792 
 PHE793  MET794  SER795  GLU796  ALA797  LYS798  CYS799  TRP800  GLU811  SER814 

> <Gold.Protein.RotatedAtoms>
  152.4924  134.4420  159.9546 H   0  0  0  0  0  0  0  0  0  0  0  0  # atno 6907 bound_to 6896
  151.4404  133.3639  159.2789 H   0  0  0  0  0  0  0  0  0  0  0  0  # atno 6908 bound_to 6896
  150.9091  134.8531  159.7473 H   0  0  0  0  0  0  0  0  0  0  0  0  # atno 6909 bound_to 6896
  145.9832  139.4263  143.0119 H   0  0  0  0  0  0  0  0  0  0  0  0  # atno 7974 bound_to 7965
  156.2298  140.1856  156.7272 H   0  0  0  0  0  0  0  0  0  0  0  0  # atno 8008 bound_to 7997
  154.6002  140.0637  156.9386 H   0  0  0  0  0  0  0  0  0  0  0  0  # atno 8009 bound_to 7997
  155.2187  140.3305  155.4321 H   0  0  0  0  0  0  0  0  0  0  0  0  # atno 8010 bound_to 7997
  140.7260  143.4899  151.0005 H   0  0  0  0  0  0  0  0  0  0  0  0  # atno 10167 bound_to 10162
  156.0811  130.6011  150.8736 H   0  0  0  0  0  0  0  0  0  0  0  0  # atno 10718 bound_to 10713
  153.2841  135.6943  153.7356 H   0  0  0  0  0  0  0  0  0  0  0  0  # atno 10763 bound_to 10752
  153.6332  135.3406  155.3049 H   0  0  0  0  0  0  0  0  0  0  0  0  # atno 10764 bound_to 10752
  154.8504  135.4414  154.1904 H   0  0  0  0  0  0  0  0  0  0  0  0  # atno 10765 bound_to 10752
  140.9860  133.7030  156.1766 H   0  0  0  0  0  0  0  0  0  0  0  0  # atno 11005 bound_to 11000
  145.7739  140.9885  143.1135 LP  0  0  0  0  0  0  0  0  0  0  0  0  # atno 17320 bound_to 7965
  144.6867  139.9481  143.7477 LP  0  0  0  0  0  0  0  0  0  0  0  0  # atno 17321 bound_to 7965
  139.8603  143.7323  152.3174 LP  0  0  0  0  0  0  0  0  0  0  0  0  # atno 17342 bound_to 10162
  139.7536  144.7527  151.0469 LP  0  0  0  0  0  0  0  0  0  0  0  0  # atno 17343 bound_to 10162
  157.5928  131.0944  150.9090 LP  0  0  0  0  0  0  0  0  0  0  0  0  # atno 17370 bound_to 10713
  156.9263  130.5333  149.5279 LP  0  0  0  0  0  0  0  0  0  0  0  0  # atno 17371 bound_to 10713
  140.7114  134.4457  157.5581 LP  0  0  0  0  0  0  0  0  0  0  0  0  # atno 17394 bound_to 11000
  139.8970  134.8645  156.2060 LP  0  0  0  0  0  0  0  0  0  0  0  0  # atno 17395 bound_to 11000

$$$$
