AV-unprocessed.smi:2520|AV-procd|sdf|9910|dock8
  -GOLD-   2272013543D 1   1.00000     0.00000
 Structure written by MMmdl.
 41 44  0  0  0  0  0  0  0  0  1 V2000
  150.4796  136.4581  159.1324 O   0  0  0  0  0  0  0  0  0  0  0  0
  149.5497  137.2627  159.1116 C   0  0  0  0  0  0  0  0  0  0  0  0
  148.4059  137.0236  159.7873 N   0  0  0  0  0  0  0  0  0  0  0  0
  148.0090  135.9248  160.6040 C   0  0  0  0  0  0  0  0  0  0  0  0
  147.2878  136.2802  161.7639 C   0  0  0  0  0  0  0  0  0  0  0  0
  146.8496  135.2558  162.6203 C   0  0  0  0  0  0  0  0  0  0  0  0
  147.1615  133.9351  162.2561 C   0  0  0  0  0  0  0  0  0  0  0  0
  147.8505  133.6375  161.1335 N   0  0  0  0  0  0  0  0  0  0  0  0
  148.2627  134.6185  160.3239 N   0  0  0  0  0  0  0  0  0  0  0  0
  149.6035  138.4152  158.4257 N   0  0  0  0  0  0  0  0  0  0  0  0
  150.7569  138.8798  157.6653 C   0  0  1  0  0  0  0  0  0  0  0  0
  150.5947  138.6432  156.1548 C   0  0  2  0  0  0  0  0  0  0  0  0
  151.5062  137.6795  155.4457 C   0  0  0  0  0  0  0  0  0  0  0  0
  152.6069  138.5919  154.8972 C   0  0  0  0  0  0  0  0  0  0  0  0
  152.5464  139.7603  155.7123 O   0  0  0  0  0  0  0  0  0  0  0  0
  151.1704  140.0383  155.9605 C   0  0  2  0  0  0  0  0  0  0  0  0
  150.7824  140.4050  157.4085 C   0  0  0  0  0  0  0  0  0  0  0  0
  151.7630  141.2648  158.2016 C   0  0  0  0  0  0  0  0  0  0  0  0
  151.3479  142.7283  158.0113 C   0  0  0  0  0  0  0  0  0  0  0  0
  149.9070  142.6915  157.4922 C   0  0  0  0  0  0  0  0  0  0  0  0
  149.4943  141.2207  157.5522 C   0  0  0  0  0  0  0  0  0  0  0  0
  147.6901  137.7233  159.6550 H   0  0  0  0  0  0  0  0  0  0  0  0
  147.0748  137.3138  161.9953 H   0  0  0  0  0  0  0  0  0  0  0  0
  146.2956  135.4736  163.5214 H   0  0  0  0  0  0  0  0  0  0  0  0
  146.8535  133.1037  162.8725 H   0  0  0  0  0  0  0  0  0  0  0  0
  148.7970  139.0229  158.4540 H   0  0  0  0  0  0  0  0  0  0  0  0
  151.7154  138.5086  158.0356 H   0  0  0  0  0  0  0  0  0  0  0  0
  149.5485  138.5952  155.8459 H   0  0  0  0  0  0  0  0  0  0  0  0
  151.9182  136.9489  156.1426 H   0  0  0  0  0  0  0  0  0  0  0  0
  151.0018  137.1348  154.6471 H   0  0  0  0  0  0  0  0  0  0  0  0
  153.5933  138.1291  154.9311 H   0  0  0  0  0  0  0  0  0  0  0  0
  152.3946  138.8699  153.8639 H   0  0  0  0  0  0  0  0  0  0  0  0
  150.6894  140.6148  155.1688 H   0  0  0  0  0  0  0  0  0  0  0  0
  151.7035  141.0078  159.2601 H   0  0  0  0  0  0  0  0  0  0  0  0
  152.7992  141.1052  157.9028 H   0  0  0  0  0  0  0  0  0  0  0  0
  151.4244  143.2805  158.9484 H   0  0  0  0  0  0  0  0  0  0  0  0
  151.9952  143.2213  157.2852 H   0  0  0  0  0  0  0  0  0  0  0  0
  149.2385  143.3277  158.0731 H   0  0  0  0  0  0  0  0  0  0  0  0
  149.8806  143.0409  156.4593 H   0  0  0  0  0  0  0  0  0  0  0  0
  148.7552  140.9800  156.7871 H   0  0  0  0  0  0  0  0  0  0  0  0
  149.0243  141.0307  158.5178 H   0  0  0  0  0  0  0  0  0  0  0  0
  1  2  2  0  0  0  0
  2  3  1  0  0  0  0
  2 10  1  0  0  0  0
  3  4  1  0  0  0  0
  3 22  1  0  0  0  0
  4  9  1  0  0  0  0
  4  5  2  0  0  0  0
  5  6  1  0  0  0  0
  5 23  1  0  0  0  0
  6  7  2  0  0  0  0
  6 24  1  0  0  0  0
  7  8  1  0  0  0  0
  7 25  1  0  0  0  0
  8  9  2  0  0  0  0
 10 11  1  0  0  0  0
 10 26  1  0  0  0  0
 11 17  1  0  0  0  0
 11 12  1  0  0  0  0
 11 27  1  0  0  0  0
 12 16  1  0  0  0  0
 12 13  1  0  0  0  0
 12 28  1  0  0  0  0
 13 14  1  0  0  0  0
 13 29  1  0  0  0  0
 13 30  1  0  0  0  0
 14 15  1  0  0  0  0
 14 31  1  0  0  0  0
 14 32  1  0  0  0  0
 15 16  1  0  0  0  0
 16 17  1  0  0  0  0
 16 33  1  0  0  0  0
 17 21  1  0  0  0  0
 17 18  1  0  0  0  0
 18 19  1  0  0  0  0
 18 34  1  0  0  0  0
 18 35  1  0  0  0  0
 19 20  1  0  0  0  0
 19 36  1  0  0  0  0
 19 37  1  0  0  0  0
 20 21  1  0  0  0  0
 20 38  1  0  0  0  0
 20 39  1  0  0  0  0
 21 40  1  0  0  0  0
 21 41  1  0  0  0  0
M  END
> <s_m_source_file>
AV-unprocessed.smi

> <i_m_source_file_index>
2520

> <i_lp_mmshare_version>
43012

> <i_f3d_flags>
0

> <s_epik_input>
bjFuW2NIXVtjSF1bY0hdYzFbTkhdQyg9TylbTkhdW0NAQEhdMltDQEBIXShbQ0gyXVtDSDJdTzMpW0NASF0zQzI0W0NIMl1bQ0gyXVtDSDJdW0NIMl00

> <s_epik_cmdline>
J2VwaWtfcHl0aG9uJywgJy1waCcsICc3LjAnLCAnLXRuJywgJzgnLCAnLW1hJywgJzIwMCcsICctbWV0YWxfYmluZGluZycsICctaW1hZScsICc8aW5maWxlLm1hZT4nLCAnLW9tYWUnLCAnPG91dGZpbGUubWFlPic=

> <r_lp_tautomer_probability>
1

> <r_epik_Ionization_Penalty>
0.00552561

> <r_epik_Ionization_Penalty_Charging>
0

> <r_epik_Ionization_Penalty_Neutral>
0.00552561

> <r_epik_State_Penalty>
-0

> <r_epik_Charging_Adjusted_Penalty>
0

> <i_epik_Tot_Q>
0

> <i_epik_Tot_abs_Q>
0

> <r_epik_Metal_State_Penalty>
-0

> <b_epik_Metal_Only>
0

> <s_lp_Force_Field>
OPLS_2005

> <r_lp_Energy>
61.147

> <b_lp_Chiralities_Consistent>
1

> <s_lp_Variant>
AV-unprocessed.smi:2520-4

> <Gold.Version>
5.8.1

> <Gold.Id.Protein>
6NUR|6NUR_protein|mol2

> <Gold.PLP.Fitness>
41.9587

> <Gold.PLP.PLP>
-36.9673

> <Gold.PLP.part.hbond>
-2.1027

> <Gold.PLP.part.metal>
0.0000

> <Gold.PLP.part.buried>
-7.0260

> <Gold.PLP.part.nonpolar>
-29.7630

> <Gold.PLP.part.repulsive>
0.7197

> <Gold.PLP.ligand.clash>
0.0000

> <Gold.PLP.ligand.torsion>
0.5972

> <Gold.PLP.Chemscore.Hbond>
2.0000

> <Gold.PLP.Chemscore.CHOScore>
0.0000

> <Gold.PLP.Chemscore.Metal>
0.0000

> <Gold.Chemscore.Hbonds>
donor molecule, donor type, donor heavy atom, donor atom, acceptor molecule, acceptor atom, score
      P1  H  6896  6908       L1     1  0.96
      P1  H  7997  8008       L1    15  1.00

> <Gold.PLP.Chemscore.Internal.Correction>
0.1859

> <Gold.Rescore>
     Score         DG    S(hbond)    S(metal)    S(lipo)     H(rot)  DE(clash)    DE(int)     intcor
     18.59     -20.10       1.98        0.00      90.19       1.00       0.07       1.44       ----

> <Gold.Chemscore.Fitness>
18.5867

> <Gold.Chemscore.DG>
-20.0956

> <Gold.Chemscore.ZeroCoef>
-5.4800

> <Gold.Chemscore.Hbond>
1.9830

> <Gold.Chemscore.Metal>
0.0000

> <Gold.Chemscore.Lipo>
90.1910

> <Gold.Chemscore.Internal_Hbond>
0.0000

> <Gold.Chemscore.DEClash>
0.0727

> <Gold.Chemscore.DEInternal>
1.4362

> <Gold.Chemscore.Rot>
1.0000

> <Gold.Chemscore.Internal.Correction>
   9.000000E+99

> <Gold.Chemscore.Hbonds>
donor molecule, donor type, donor heavy atom, donor atom, acceptor molecule, acceptor atom, score
      P1  H  6896  6908       L1     1  0.92
      P1  H  7997  8008       L1    15  0.60

> <Gold.Chemscore.Hbond.Weighted>
-6.6233

> <Gold.Chemscore.Metal.Weighted>
-0.0000

> <Gold.Chemscore.Lipo.Weighted>
-10.5523

> <Gold.Chemscore.Internal_Hbond.Weighted>
0.0000

> <Gold.Chemscore.DEClash.Weighted>
0.0727

> <Gold.Chemscore.DEInternal.Weighted>
1.4362

> <Gold.Chemscore.Rot.Weighted>
2.5600

> <Gold.Chemscore.Internal.Correction.Weighted>
   9.000000E+99

> <Gold.Protein.RotatedTorsions>
[ 6907 6896 6895 6894 ] final -173.05 input  -60.11 | X-H torsion
[ 7974 7965 7964 7962 ] final  -12.25 input  175.53 | X-H torsion
[ 8008 7997 7996 7995 ] final  -40.24 input   59.86 | X-H torsion
[ 10167 10162 10161 10158 ] final  129.92 input  -65.29 | X-H torsion
[ 10718 10713 10712 10709 ] final   29.33 input   66.30 | X-H torsion
[ 10763 10752 10751 10750 ] final  -53.96 input  -60.55 | X-H torsion
[ 11005 11000 10999 10996 ] final  106.30 input  -57.11 | X-H torsion

> <Gold.Protein.ActiveResidues>
 VAL166  LYS551  ARG553  GLY616  TRP617  ASP618  TYR619  PRO620  LYS621  CYS622 
 ASP623  PHE694  ASN695  SER759  ASP760  ASP761  ALA762  ILE779  LEU786  VAL792 
 PHE793  MET794  SER795  GLU796  ALA797  LYS798  CYS799  TRP800  GLU811  SER814 

> <Gold.Protein.RotatedAtoms>
  151.5500  133.3419  159.2950 H   0  0  0  0  0  0  0  0  0  0  0  0  # atno 6907 bound_to 6896
  150.8484  134.7804  159.7000 H   0  0  0  0  0  0  0  0  0  0  0  0  # atno 6908 bound_to 6896
  152.4536  134.5347  159.9873 H   0  0  0  0  0  0  0  0  0  0  0  0  # atno 6909 bound_to 6896
  146.2159  140.3030  142.8376 H   0  0  0  0  0  0  0  0  0  0  0  0  # atno 7974 bound_to 7965
  154.4014  140.1530  156.2994 H   0  0  0  0  0  0  0  0  0  0  0  0  # atno 8008 bound_to 7997
  155.8714  140.3448  155.5802 H   0  0  0  0  0  0  0  0  0  0  0  0  # atno 8009 bound_to 7997
  155.7770  140.0838  157.2069 H   0  0  0  0  0  0  0  0  0  0  0  0  # atno 8010 bound_to 7997
  139.5454  144.6769  151.4488 H   0  0  0  0  0  0  0  0  0  0  0  0  # atno 10167 bound_to 10162
  157.2452  130.7088  149.6378 H   0  0  0  0  0  0  0  0  0  0  0  0  # atno 10718 bound_to 10713
  154.1673  135.6465  153.5000 H   0  0  0  0  0  0  0  0  0  0  0  0  # atno 10763 bound_to 10752
  153.0094  135.5375  154.6649 H   0  0  0  0  0  0  0  0  0  0  0  0  # atno 10764 bound_to 10752
  154.5979  135.2940  155.0539 H   0  0  0  0  0  0  0  0  0  0  0  0  # atno 10765 bound_to 10752
  139.8812  134.9365  156.5646 H   0  0  0  0  0  0  0  0  0  0  0  0  # atno 11005 bound_to 11000
  144.9043  140.7681  143.5847 LP  0  0  0  0  0  0  0  0  0  0  0  0  # atno 17320 bound_to 7965
  145.2957  139.1868  143.4716 LP  0  0  0  0  0  0  0  0  0  0  0  0  # atno 17321 bound_to 7965
  140.6701  143.8313  150.6989 LP  0  0  0  0  0  0  0  0  0  0  0  0  # atno 17342 bound_to 10162
  140.1734  143.4175  152.1984 LP  0  0  0  0  0  0  0  0  0  0  0  0  # atno 17343 bound_to 10162
  155.9668  130.4445  150.5464 LP  0  0  0  0  0  0  0  0  0  0  0  0  # atno 17370 bound_to 10713
  157.3336  131.0704  151.1842 LP  0  0  0  0  0  0  0  0  0  0  0  0  # atno 17371 bound_to 10713
  140.8144  133.8404  155.8838 LP  0  0  0  0  0  0  0  0  0  0  0  0  # atno 17394 bound_to 11000
  140.9477  134.1819  157.4751 LP  0  0  0  0  0  0  0  0  0  0  0  0  # atno 17395 bound_to 11000

$$$$
