AV-unprocessed.smi:141|AV-procd|sdf|1187|dock9
  -GOLD-   2262018343D 1   1.00000     0.00000
 Structure written by MMmdl.
 56 59  0  0  0  0  0  0  0  0  1 V2000
  150.0442  136.3729  158.9303 O   0  0  0  0  0  0  0  0  0  0  0  0
  149.8997  137.4778  158.4030 C   0  0  0  0  0  0  0  0  0  0  0  0
  148.4727  137.9851  158.1049 C   0  0  0  0  0  0  0  0  0  0  0  0
  147.4085  137.0230  158.4694 N   0  0  0  0  0  0  0  0  0  0  0  0
  146.6412  136.4325  157.4344 C   0  0  0  0  0  0  0  0  0  0  0  0
  146.8362  136.7177  156.2520 O   0  0  0  0  0  0  0  0  0  0  0  0
  145.6329  135.4721  157.8678 C   0  0  0  0  0  0  0  0  0  0  0  0
  144.8675  134.8516  156.9540 F   0  0  0  0  0  0  0  0  0  0  0  0
  145.4582  135.1914  159.1753 C   0  0  0  0  0  0  0  0  0  0  0  0
  146.1991  135.7883  160.1764 N   0  0  0  0  0  0  0  0  0  0  0  0
  145.9702  135.3724  161.6111 C   0  0  2  0  0  0  0  0  0  0  0  0
  147.2347  134.8364  162.3089 C   0  0  0  0  0  0  0  0  0  0  0  0
  146.8199  133.4379  162.7361 C   0  0  0  0  0  0  0  0  0  0  0  0
  145.2977  133.5230  162.7430 C   0  0  0  0  0  0  0  0  0  0  0  0
  145.0125  134.3593  161.6329 O   0  0  0  0  0  0  0  0  0  0  0  0
  147.2224  136.7032  159.8361 C   0  0  0  0  0  0  0  0  0  0  0  0
  147.9402  137.2043  160.7033 O   0  0  0  0  0  0  0  0  0  0  0  0
  150.9552  138.2647  158.0810 N   0  0  0  0  0  0  0  0  0  0  0  0
  150.8728  139.6122  157.5032 C   0  0  0  0  0  0  0  0  0  0  0  0
  151.2845  140.6322  158.5793 C   0  0  0  0  0  0  0  0  0  0  0  0
  152.7046  140.3361  159.1118 C   0  0  0  0  0  0  0  0  0  0  0  0
  153.1045  141.2961  160.2544 C   0  0  0  0  0  0  0  0  0  0  0  0
  152.6845  142.7289  159.9857 C   0  0  0  0  0  0  0  0  0  0  0  0
  152.7507  143.2540  158.6781 C   0  0  0  0  0  0  0  0  0  0  0  0
  152.3542  144.5824  158.4289 C   0  0  0  0  0  0  0  0  0  0  0  0
  151.8905  145.3896  159.4859 C   0  0  0  0  0  0  0  0  0  0  0  0
  151.8202  144.8671  160.7919 C   0  0  0  0  0  0  0  0  0  0  0  0
  152.2160  143.5386  161.0417 C   0  0  0  0  0  0  0  0  0  0  0  0
  152.8332  138.8532  159.5291 C   0  0  0  0  0  0  0  0  0  0  0  0
  152.3402  137.9109  158.4151 C   0  0  0  0  0  0  0  0  0  0  0  0
  148.3163  138.9300  158.6277 H   0  0  0  0  0  0  0  0  0  0  0  0
  148.4088  138.2451  157.0473 H   0  0  0  0  0  0  0  0  0  0  0  0
  144.7015  134.4682  159.4423 H   0  0  0  0  0  0  0  0  0  0  0  0
  145.5722  136.2516  162.1196 H   0  0  0  0  0  0  0  0  0  0  0  0
  148.1089  134.8418  161.6571 H   0  0  0  0  0  0  0  0  0  0  0  0
  147.4459  135.4651  163.1745 H   0  0  0  0  0  0  0  0  0  0  0  0
  147.1477  132.7063  161.9973 H   0  0  0  0  0  0  0  0  0  0  0  0
  147.2322  133.1480  163.7028 H   0  0  0  0  0  0  0  0  0  0  0  0
  144.8200  132.5477  162.6463 H   0  0  0  0  0  0  0  0  0  0  0  0
  144.9377  133.9953  163.6584 H   0  0  0  0  0  0  0  0  0  0  0  0
  151.5506  139.6784  156.6507 H   0  0  0  0  0  0  0  0  0  0  0  0
  149.8909  139.8638  157.1064 H   0  0  0  0  0  0  0  0  0  0  0  0
  151.2450  141.6411  158.1667 H   0  0  0  0  0  0  0  0  0  0  0  0
  150.5648  140.6034  159.3988 H   0  0  0  0  0  0  0  0  0  0  0  0
  153.3883  140.4891  158.2746 H   0  0  0  0  0  0  0  0  0  0  0  0
  152.6600  140.9785  161.1986 H   0  0  0  0  0  0  0  0  0  0  0  0
  154.1821  141.2722  160.4229 H   0  0  0  0  0  0  0  0  0  0  0  0
  153.1032  142.6385  157.8630 H   0  0  0  0  0  0  0  0  0  0  0  0
  152.4051  144.9813  157.4265 H   0  0  0  0  0  0  0  0  0  0  0  0
  151.5871  146.4083  159.2945 H   0  0  0  0  0  0  0  0  0  0  0  0
  151.4620  145.4845  161.6027 H   0  0  0  0  0  0  0  0  0  0  0  0
  152.1569  143.1417  162.0448 H   0  0  0  0  0  0  0  0  0  0  0  0
  153.8706  138.6242  159.7753 H   0  0  0  0  0  0  0  0  0  0  0  0
  152.2522  138.6710  160.4345 H   0  0  0  0  0  0  0  0  0  0  0  0
  152.4491  136.8731  158.7328 H   0  0  0  0  0  0  0  0  0  0  0  0
  152.9661  138.0153  157.5278 H   0  0  0  0  0  0  0  0  0  0  0  0
  1  2  2  0  0  0  0
  2  3  1  0  0  0  0
  2 18  1  0  0  0  0
  3  4  1  0  0  0  0
  3 31  1  0  0  0  0
  3 32  1  0  0  0  0
  4 16  1  0  0  0  0
  4  5  1  0  0  0  0
  5  6  2  0  0  0  0
  5  7  1  0  0  0  0
  7  8  1  0  0  0  0
  7  9  2  0  0  0  0
  9 10  1  0  0  0  0
  9 33  1  0  0  0  0
 10 11  1  0  0  0  0
 10 16  1  0  0  0  0
 11 15  1  0  0  0  0
 11 12  1  0  0  0  0
 11 34  1  0  0  0  0
 12 13  1  0  0  0  0
 12 35  1  0  0  0  0
 12 36  1  0  0  0  0
 13 14  1  0  0  0  0
 13 37  1  0  0  0  0
 13 38  1  0  0  0  0
 14 15  1  0  0  0  0
 14 39  1  0  0  0  0
 14 40  1  0  0  0  0
 16 17  2  0  0  0  0
 18 30  1  0  0  0  0
 18 19  1  0  0  0  0
 19 20  1  0  0  0  0
 19 41  1  0  0  0  0
 19 42  1  0  0  0  0
 20 21  1  0  0  0  0
 20 43  1  0  0  0  0
 20 44  1  0  0  0  0
 21 22  1  0  0  0  0
 21 29  1  0  0  0  0
 21 45  1  0  0  0  0
 22 23  1  0  0  0  0
 22 46  1  0  0  0  0
 22 47  1  0  0  0  0
 23 28  1  0  0  0  0
 23 24  2  0  0  0  0
 24 25  1  0  0  0  0
 24 48  1  0  0  0  0
 25 26  2  0  0  0  0
 25 49  1  0  0  0  0
 26 27  1  0  0  0  0
 26 50  1  0  0  0  0
 27 28  2  0  0  0  0
 27 51  1  0  0  0  0
 28 52  1  0  0  0  0
 29 30  1  0  0  0  0
 29 53  1  0  0  0  0
 29 54  1  0  0  0  0
 30 55  1  0  0  0  0
 30 56  1  0  0  0  0
M  END
> <s_m_source_file>
AV-unprocessed.smi

> <i_m_source_file_index>
141

> <i_lp_mmshare_version>
43012

> <i_f3d_flags>
0

> <s_epik_input>
W2NIXTFbY0hdW2NIXVtjSF1bY0hdYzFbQ0gyXVtDSF0oW0NIMl1bQ0gyXTIpW0NIMl1bQ0gyXU4yQyg9TylbQ0gyXW4zYyg9TyljKEYpW2NIXW4oYzM9TylbQ0BASF00W0NIMl1bQ0gyXVtDSDJdTzQ=

> <s_epik_cmdline>
J2VwaWtfcHl0aG9uJywgJy1waCcsICc3LjAnLCAnLXRuJywgJzgnLCAnLW1hJywgJzIwMCcsICctbWV0YWxfYmluZGluZycsICctaW1hZScsICc8aW5maWxlLm1hZT4nLCAnLW9tYWUnLCAnPG91dGZpbGUubWFlPic=

> <r_lp_tautomer_probability>
1

> <r_epik_Ionization_Penalty>
3.78313e-08

> <r_epik_Ionization_Penalty_Charging>
4.95074e-09

> <r_epik_Ionization_Penalty_Neutral>
3.28806e-08

> <r_epik_State_Penalty>
-0

> <r_epik_Charging_Adjusted_Penalty>
4.95074e-09

> <i_epik_Tot_Q>
0

> <i_epik_Tot_abs_Q>
0

> <r_epik_Metal_State_Penalty>
-0

> <b_epik_Metal_Only>
0

> <s_epik_Chemistry_Notes>
This compound contains an acetal/aminal-like group ( X-CH(R)-Y where X, Y are N, S, or O) that may be acid/base labile, releasing an aldehyde.

> <s_lp_Force_Field>
OPLS_2005

> <r_lp_Energy>
44.5211

> <b_lp_Chiralities_Consistent>
1

> <s_lp_Variant>
AV-unprocessed.smi:141-1

> <Gold.Version>
5.8.1

> <Gold.Id.Protein>
6NUR|6NUR_protein|mol2

> <Gold.PLP.Fitness>
61.5139

> <Gold.PLP.PLP>
-55.4204

> <Gold.PLP.part.hbond>
-3.0000

> <Gold.PLP.part.metal>
0.0000

> <Gold.PLP.part.buried>
-4.6015

> <Gold.PLP.part.nonpolar>
-47.9444

> <Gold.PLP.part.repulsive>
0.0320

> <Gold.PLP.ligand.clash>
0.0000

> <Gold.PLP.ligand.torsion>
0.5386

> <Gold.PLP.Chemscore.Hbond>
2.3596

> <Gold.PLP.Chemscore.CHOScore>
0.0000

> <Gold.PLP.Chemscore.Metal>
0.0000

> <Gold.Chemscore.Hbonds>
donor molecule, donor type, donor heavy atom, donor atom, acceptor molecule, acceptor atom, score
      P1  H  6896  6907       L1     1  1.00
      P1  H  6931  6943       L1    17  0.82
      P1  H  6934  6947       L1    17  0.78

> <Gold.PLP.Chemscore.Internal.Correction>
0.0920

> <Gold.Rescore>
     Score         DG    S(hbond)    S(metal)    S(lipo)     H(rot)  DE(clash)    DE(int)     intcor
     23.04     -25.45       2.28        0.00     145.86       1.85       0.32       2.09       ----

> <Gold.Chemscore.Fitness>
23.0415

> <Gold.Chemscore.DG>
-25.4481

> <Gold.Chemscore.ZeroCoef>
-5.4800

> <Gold.Chemscore.Hbond>
2.2841

> <Gold.Chemscore.Metal>
0.0000

> <Gold.Chemscore.Lipo>
145.8568

> <Gold.Chemscore.Internal_Hbond>
0.0000

> <Gold.Chemscore.DEClash>
0.3214

> <Gold.Chemscore.DEInternal>
2.0853

> <Gold.Chemscore.Rot>
1.8461

> <Gold.Chemscore.Internal.Correction>
   9.000000E+99

> <Gold.Chemscore.Hbonds>
donor molecule, donor type, donor heavy atom, donor atom, acceptor molecule, acceptor atom, score
      P1  H  6896  6907       L1     1  1.00
      P1  H  6931  6943       L1    17  0.81
      P1  H  6934  6947       L1    17  0.34

> <Gold.Chemscore.Hbond.Weighted>
-7.6289

> <Gold.Chemscore.Metal.Weighted>
-0.0000

> <Gold.Chemscore.Lipo.Weighted>
-17.0652

> <Gold.Chemscore.Internal_Hbond.Weighted>
0.0000

> <Gold.Chemscore.DEClash.Weighted>
0.3214

> <Gold.Chemscore.DEInternal.Weighted>
2.0853

> <Gold.Chemscore.Rot.Weighted>
4.7260

> <Gold.Chemscore.Internal.Correction.Weighted>
   9.000000E+99

> <Gold.Protein.RotatedTorsions>
[ 6907 6896 6895 6894 ] final  -36.21 input  -60.11 | X-H torsion
[ 7974 7965 7964 7962 ] final -170.10 input  175.53 | X-H torsion
[ 8008 7997 7996 7995 ] final   -6.33 input   59.86 | X-H torsion
[ 10167 10162 10161 10158 ] final -152.70 input  -65.29 | X-H torsion
[ 10718 10713 10712 10709 ] final  149.05 input   66.30 | X-H torsion
[ 10763 10752 10751 10750 ] final   56.38 input  -60.55 | X-H torsion
[ 11005 11000 10999 10996 ] final  -62.52 input  -57.11 | X-H torsion

> <Gold.Protein.ActiveResidues>
 VAL166  LYS551  ARG553  GLY616  TRP617  ASP618  TYR619  PRO620  LYS621  CYS622 
 ASP623  PHE694  ASN695  SER759  ASP760  ASP761  ALA762  ILE779  LEU786  VAL792 
 PHE793  MET794  SER795  GLU796  ALA797  LYS798  CYS799  TRP800  GLU811  SER814 

> <Gold.Protein.RotatedAtoms>
  151.0301  134.9532  159.8105 H   0  0  0  0  0  0  0  0  0  0  0  0  # atno 6907 bound_to 6896
  152.5343  134.2792  159.9011 H   0  0  0  0  0  0  0  0  0  0  0  0  # atno 6908 bound_to 6896
  151.2801  133.4171  159.2660 H   0  0  0  0  0  0  0  0  0  0  0  0  # atno 6909 bound_to 6896
  144.7175  140.2123  143.6326 H   0  0  0  0  0  0  0  0  0  0  0  0  # atno 7974 bound_to 7965
  154.5949  140.2435  155.7871 H   0  0  0  0  0  0  0  0  0  0  0  0  # atno 8008 bound_to 7997
  156.2272  140.2978  156.0050 H   0  0  0  0  0  0  0  0  0  0  0  0  # atno 8009 bound_to 7997
  155.2311  140.0403  157.2952 H   0  0  0  0  0  0  0  0  0  0  0  0  # atno 8010 bound_to 7997
  139.7159  143.9034  152.2486 H   0  0  0  0  0  0  0  0  0  0  0  0  # atno 10167 bound_to 10162
  157.3009  131.0870  151.1390 H   0  0  0  0  0  0  0  0  0  0  0  0  # atno 10718 bound_to 10713
  152.9831  135.5678  154.5220 H   0  0  0  0  0  0  0  0  0  0  0  0  # atno 10763 bound_to 10752
  154.4706  135.2785  155.1647 H   0  0  0  0  0  0  0  0  0  0  0  0  # atno 10764 bound_to 10752
  154.3197  135.6271  153.5555 H   0  0  0  0  0  0  0  0  0  0  0  0  # atno 10765 bound_to 10752
  141.1362  133.6641  156.5541 H   0  0  0  0  0  0  0  0  0  0  0  0  # atno 11005 bound_to 11000
  145.8579  139.2208  143.1733 LP  0  0  0  0  0  0  0  0  0  0  0  0  # atno 17320 bound_to 7965
  146.0200  140.8357  142.9928 LP  0  0  0  0  0  0  0  0  0  0  0  0  # atno 17321 bound_to 7965
  139.8916  144.6962  150.8764 LP  0  0  0  0  0  0  0  0  0  0  0  0  # atno 17342 bound_to 10162
  140.7743  143.3582  151.1880 LP  0  0  0  0  0  0  0  0  0  0  0  0  # atno 17343 bound_to 10162
  157.2750  130.6722  149.6038 LP  0  0  0  0  0  0  0  0  0  0  0  0  # atno 17370 bound_to 10713
  155.9671  130.4467  150.5553 LP  0  0  0  0  0  0  0  0  0  0  0  0  # atno 17371 bound_to 10713
  140.4041  134.7331  157.4797 LP  0  0  0  0  0  0  0  0  0  0  0  0  # atno 17394 bound_to 11000
  140.0475  134.6178  155.8903 LP  0  0  0  0  0  0  0  0  0  0  0  0  # atno 17395 bound_to 11000

$$$$
