AV-unprocessed.smi:2725|AV-procd|sdf|10517|dock4
  -GOLD-   2272014553D 1   1.00000     0.00000
 Structure written by MMmdl.
 45 46  0  0  0  0  0  0  0  0  2 V2000
  148.6972  140.4066  156.9761 O   0  0  0  0  0  0  0  0  0  0  0  0
  148.8169  141.6179  156.7890 C   0  0  0  0  0  0  0  0  0  0  0  0
  149.6288  142.4849  157.7563 C   0  0  0  0  0  0  0  0  0  0  0  0
  151.0044  142.8964  157.1972 C   0  0  0  0  0  0  0  0  0  0  0  0
  151.8621  143.6697  158.2145 C   0  0  0  0  0  0  0  0  0  0  0  0
  152.1104  142.9281  159.5324 C   0  0  0  0  0  0  0  0  0  0  0  0
  152.4678  144.0163  160.5529 C   0  0  0  0  0  0  0  0  0  0  0  0
  151.9712  145.3447  159.9628 C   0  0  0  0  0  0  0  0  0  0  0  0
  151.2283  144.9845  158.6733 C   0  0  0  0  0  0  0  0  0  0  0  0
  148.2605  142.2582  155.7490 N   0  0  0  0  0  0  0  0  0  0  0  0
  147.4677  141.6289  154.6945 C   0  0  2  0  0  0  0  0  0  0  0  0
  148.2432  140.4059  154.1623 C   0  0  0  0  0  0  0  0  0  0  0  0
  149.3405  140.8299  153.3820 O   0  0  0  0  0  0  0  0  0  0  0  0
  147.1672  142.6757  153.5967 C   0  0  0  0  0  0  0  0  0  0  0  0
  146.0022  143.5901  153.9324 C   0  0  0  0  0  0  0  0  0  0  0  0
  145.5007  144.5269  153.0028 C   0  0  0  0  0  0  0  0  0  0  0  0
  144.4235  145.3584  153.3735 C   0  0  0  0  0  0  0  0  0  0  0  0
  143.8712  145.2367  154.6655 C   0  0  0  0  0  0  0  0  0  0  0  0
  144.4106  144.2852  155.5548 C   0  0  0  0  0  0  0  0  0  0  0  0
  145.4429  143.5067  155.1618 N   0  3  0  0  0  0  0  0  0  0  0  0
  149.0399  143.3707  157.9958 H   0  0  0  0  0  0  0  0  0  0  0  0
  149.7657  141.9376  158.6901 H   0  0  0  0  0  0  0  0  0  0  0  0
  151.5489  142.0021  156.8899 H   0  0  0  0  0  0  0  0  0  0  0  0
  150.8751  143.4987  156.2967 H   0  0  0  0  0  0  0  0  0  0  0  0
  152.8274  143.9031  157.7621 H   0  0  0  0  0  0  0  0  0  0  0  0
  151.1987  142.4209  159.8510 H   0  0  0  0  0  0  0  0  0  0  0  0
  152.8922  142.1730  159.4447 H   0  0  0  0  0  0  0  0  0  0  0  0
  152.0097  143.8091  161.5205 H   0  0  0  0  0  0  0  0  0  0  0  0
  153.5468  144.0576  160.7062 H   0  0  0  0  0  0  0  0  0  0  0  0
  151.3333  145.8919  160.6576 H   0  0  0  0  0  0  0  0  0  0  0  0
  152.8248  145.9830  159.7316 H   0  0  0  0  0  0  0  0  0  0  0  0
  151.2982  145.7695  157.9197 H   0  0  0  0  0  0  0  0  0  0  0  0
  150.1708  144.8314  158.8942 H   0  0  0  0  0  0  0  0  0  0  0  0
  148.4182  143.2523  155.6685 H   0  0  0  0  0  0  0  0  0  0  0  0
  146.5159  141.2932  155.1120 H   0  0  0  0  0  0  0  0  0  0  0  0
  148.6552  139.8145  154.9784 H   0  0  0  0  0  0  0  0  0  0  0  0
  147.6014  139.7410  153.5829 H   0  0  0  0  0  0  0  0  0  0  0  0
  149.5106  140.1786  152.7183 H   0  0  0  0  0  0  0  0  0  0  0  0
  148.0389  143.3112  153.4335 H   0  0  0  0  0  0  0  0  0  0  0  0
  146.9786  142.1775  152.6446 H   0  0  0  0  0  0  0  0  0  0  0  0
  145.9382  144.6100  152.0181 H   0  0  0  0  0  0  0  0  0  0  0  0
  144.0267  146.0814  152.6759 H   0  0  0  0  0  0  0  0  0  0  0  0
  143.0462  145.8644  154.9696 H   0  0  0  0  0  0  0  0  0  0  0  0
  144.0510  144.1245  156.5606 H   0  0  0  0  0  0  0  0  0  0  0  0
  145.8170  142.8250  155.8221 H   0  0  0  0  0  0  0  0  0  0  0  0
  1  2  2  0  0  0  0
  2  3  1  0  0  0  0
  2 10  1  0  0  0  0
  3  4  1  0  0  0  0
  3 21  1  0  0  0  0
  3 22  1  0  0  0  0
  4  5  1  0  0  0  0
  4 23  1  0  0  0  0
  4 24  1  0  0  0  0
  5  9  1  0  0  0  0
  5  6  1  0  0  0  0
  5 25  1  0  0  0  0
  6  7  1  0  0  0  0
  6 26  1  0  0  0  0
  6 27  1  0  0  0  0
  7  8  1  0  0  0  0
  7 28  1  0  0  0  0
  7 29  1  0  0  0  0
  8  9  1  0  0  0  0
  8 30  1  0  0  0  0
  8 31  1  0  0  0  0
  9 32  1  0  0  0  0
  9 33  1  0  0  0  0
 10 11  1  0  0  0  0
 10 34  1  0  0  0  0
 11 12  1  0  0  0  0
 11 14  1  0  0  0  0
 11 35  1  0  0  0  0
 12 13  1  0  0  0  0
 12 36  1  0  0  0  0
 12 37  1  0  0  0  0
 13 38  1  0  0  0  0
 14 15  1  0  0  0  0
 14 39  1  0  0  0  0
 14 40  1  0  0  0  0
 15 20  1  0  0  0  0
 15 16  2  0  0  0  0
 16 17  1  0  0  0  0
 16 41  1  0  0  0  0
 17 18  2  0  0  0  0
 17 42  1  0  0  0  0
 18 19  1  0  0  0  0
 18 43  1  0  0  0  0
 19 20  2  0  0  0  0
 19 44  1  0  0  0  0
 20 45  1  0  0  0  0
M  CHG  1  20   1
M  END
> <s_m_source_file>
AV-unprocessed.smi

> <i_m_source_file_index>
2725

> <i_lp_mmshare_version>
43012

> <i_f3d_flags>
0

> <s_epik_input>
W0NIMl0xW0NIMl1bQ0gyXVtDSDJdW0NIXTFbQ0gyXVtDSDJdQyg9TylbTkhdW0NASF0oW0NIMl1bT0hdKVtDSDJdYzJbY0hdW2NIXVtjSF1bY0hdbjI=

> <s_epik_cmdline>
J2VwaWtfcHl0aG9uJywgJy1waCcsICc3LjAnLCAnLXRuJywgJzgnLCAnLW1hJywgJzIwMCcsICctbWV0YWxfYmluZGluZycsICctaW1hZScsICc8aW5maWxlLm1hZT4nLCAnLW9tYWUnLCAnPG91dGZpbGUubWFlPic=

> <r_epik_Ionization_Penalty>
1.87189

> <r_epik_Ionization_Penalty_Charging>
1.87189

> <r_epik_Ionization_Penalty_Neutral>
6.79411e-08

> <r_epik_State_Penalty>
1.99097

> <r_epik_Charging_Adjusted_Penalty>
3.86287

> <i_epik_Tot_Q>
1

> <i_epik_Tot_abs_Q>
1

> <r_epik_Metal_State_Penalty>
2.01578

> <b_epik_Metal_Only>
0

> <s_lp_Force_Field>
OPLS_2005

> <r_lp_Energy>
30.4182

> <b_lp_Chiralities_Consistent>
1

> <s_lp_Variant>
AV-unprocessed.smi:2725-3

> <Gold.Version>
5.8.1

> <Gold.Id.Protein>
6NUR|6NUR_protein|mol2

> <Gold.PLP.Fitness>
55.2453

> <Gold.PLP.PLP>
-48.3443

> <Gold.PLP.part.hbond>
-3.4835

> <Gold.PLP.part.metal>
0.0000

> <Gold.PLP.part.buried>
-6.8817

> <Gold.PLP.part.nonpolar>
-37.7915

> <Gold.PLP.part.repulsive>
0.1211

> <Gold.PLP.ligand.clash>
0.0000

> <Gold.PLP.ligand.torsion>
0.6043

> <Gold.PLP.Chemscore.Hbond>
2.6522

> <Gold.PLP.Chemscore.CHOScore>
0.0000

> <Gold.PLP.Chemscore.Metal>
0.0000

> <Gold.Chemscore.Hbonds>
donor molecule, donor type, donor heavy atom, donor atom, acceptor molecule, acceptor atom, score
      L1  H    10    34       P1  8028  0.99
      L1  H    13    38       P1  7957  0.80
      P1  H  7989  7998       L1    13  0.01
      P1  H  8011  8017       L1    13  0.90

> <Gold.PLP.Chemscore.Internal.Correction>
0.1531

> <Gold.Rescore>
     Score         DG    S(hbond)    S(metal)    S(lipo)     H(rot)  DE(clash)    DE(int)     intcor
     17.34     -19.99       1.88        0.00     126.79       2.58       0.84       1.81       ----

> <Gold.Chemscore.Fitness>
17.3404

> <Gold.Chemscore.DG>
-19.9947

> <Gold.Chemscore.ZeroCoef>
-5.4800

> <Gold.Chemscore.Hbond>
1.8797

> <Gold.Chemscore.Metal>
0.0000

> <Gold.Chemscore.Lipo>
126.7899

> <Gold.Chemscore.Internal_Hbond>
0.0000

> <Gold.Chemscore.DEClash>
0.8395

> <Gold.Chemscore.DEInternal>
1.8148

> <Gold.Chemscore.Rot>
2.5773

> <Gold.Chemscore.Internal.Correction>
   9.000000E+99

> <Gold.Chemscore.Hbonds>
donor molecule, donor type, donor heavy atom, donor atom, acceptor molecule, acceptor atom, score
      L1  H    10    34       P1  8028  0.89
      L1  H    13    38       P1  7957  0.77
      P1  H  8011  8017       L1    13  0.18

> <Gold.Chemscore.Hbond.Weighted>
-6.2781

> <Gold.Chemscore.Metal.Weighted>
-0.0000

> <Gold.Chemscore.Lipo.Weighted>
-14.8344

> <Gold.Chemscore.Internal_Hbond.Weighted>
0.0000

> <Gold.Chemscore.DEClash.Weighted>
0.8395

> <Gold.Chemscore.DEInternal.Weighted>
1.8148

> <Gold.Chemscore.Rot.Weighted>
6.5978

> <Gold.Chemscore.Internal.Correction.Weighted>
   9.000000E+99

> <Gold.Protein.RotatedTorsions>
[ 6907 6896 6895 6894 ] final   41.30 input  -60.11 | X-H torsion
[ 7974 7965 7964 7962 ] final   10.92 input  175.53 | X-H torsion
[ 8008 7997 7996 7995 ] final  117.94 input   59.86 | X-H torsion
[ 10167 10162 10161 10158 ] final  142.49 input  -65.29 | X-H torsion
[ 10718 10713 10712 10709 ] final   -0.91 input   66.30 | X-H torsion
[ 10763 10752 10751 10750 ] final   39.57 input  -60.55 | X-H torsion
[ 11005 11000 10999 10996 ] final  170.10 input  -57.11 | X-H torsion

> <Gold.Protein.ActiveResidues>
 VAL166  LYS551  ARG553  GLY616  TRP617  ASP618  TYR619  PRO620  LYS621  CYS622 
 ASP623  PHE694  ASN695  SER759  ASP760  ASP761  ALA762  ILE779  LEU786  VAL792 
 PHE793  MET794  SER795  GLU796  ALA797  LYS798  CYS799  TRP800  GLU811  SER814 

> <Gold.Protein.RotatedAtoms>
  152.1935  134.8651  160.0514 H   0  0  0  0  0  0  0  0  0  0  0  0  # atno 6907 bound_to 6896
  151.9531  133.3667  159.4015 H   0  0  0  0  0  0  0  0  0  0  0  0  # atno 6908 bound_to 6896
  150.6940  134.4243  159.5263 H   0  0  0  0  0  0  0  0  0  0  0  0  # atno 6909 bound_to 6896
  146.2380  139.9562  142.8464 H   0  0  0  0  0  0  0  0  0  0  0  0  # atno 7974 bound_to 7965
  156.2521  140.2885  156.0757 H   0  0  0  0  0  0  0  0  0  0  0  0  # atno 8008 bound_to 7997
  155.1622  140.0400  157.2862 H   0  0  0  0  0  0  0  0  0  0  0  0  # atno 8009 bound_to 7997
  154.6385  140.2516  155.7357 H   0  0  0  0  0  0  0  0  0  0  0  0  # atno 8010 bound_to 7997
  139.4993  144.6103  151.6286 H   0  0  0  0  0  0  0  0  0  0  0  0  # atno 10167 bound_to 10162
  156.8135  130.5432  149.5706 H   0  0  0  0  0  0  0  0  0  0  0  0  # atno 10718 bound_to 10713
  152.9963  135.6216  154.2487 H   0  0  0  0  0  0  0  0  0  0  0  0  # atno 10763 bound_to 10752
  154.2226  135.2795  155.2921 H   0  0  0  0  0  0  0  0  0  0  0  0  # atno 10764 bound_to 10752
  154.5516  135.5731  153.6985 H   0  0  0  0  0  0  0  0  0  0  0  0  # atno 10765 bound_to 10752
  140.3048  134.7566  157.3944 H   0  0  0  0  0  0  0  0  0  0  0  0  # atno 11005 bound_to 11000
  145.1815  140.9769  143.4264 LP  0  0  0  0  0  0  0  0  0  0  0  0  # atno 17320 bound_to 7965
  144.9938  139.3663  143.6201 LP  0  0  0  0  0  0  0  0  0  0  0  0  # atno 17321 bound_to 7965
  140.5776  144.0001  150.6250 LP  0  0  0  0  0  0  0  0  0  0  0  0  # atno 17342 bound_to 10162
  140.3139  143.3180  152.0851 LP  0  0  0  0  0  0  0  0  0  0  0  0  # atno 17343 bound_to 10162
  156.1030  130.5983  150.9926 LP  0  0  0  0  0  0  0  0  0  0  0  0  # atno 17370 bound_to 10713
  157.6494  131.0899  150.8084 LP  0  0  0  0  0  0  0  0  0  0  0  0  # atno 17371 bound_to 10713
  140.1077  134.5387  155.8294 LP  0  0  0  0  0  0  0  0  0  0  0  0  # atno 17394 bound_to 11000
  141.2121  133.6714  156.6630 LP  0  0  0  0  0  0  0  0  0  0  0  0  # atno 17395 bound_to 11000

$$$$
