AV-unprocessed.smi:2859|AV-procd|sdf|11005|dock10
  -GOLD-   2272015463D 1   1.00000     0.00000
 Structure written by MMmdl.
 51 52  0  0  0  0  0  0  0  0  1 V2000
  145.7750  143.8055  159.1888 C   0  0  0  0  0  0  0  0  0  0  0  0
  146.9995  144.3648  159.9420 C   0  0  0  0  0  0  0  0  0  0  0  0
  146.9618  145.9071  159.9334 C   0  0  0  0  0  0  0  0  0  0  0  0
  146.8920  143.9043  161.4129 C   0  0  0  0  0  0  0  0  0  0  0  0
  148.2916  143.8757  159.2660 C   0  0  0  0  0  0  0  0  0  0  0  0
  148.3101  142.9994  158.1543 C   0  0  0  0  0  0  0  0  0  0  0  0
  149.5777  142.6119  157.6538 C   0  0  0  0  0  0  0  0  0  0  0  0
  149.7323  141.7367  156.5551 N   0  0  0  0  0  0  0  0  0  0  0  0
  148.5401  141.3189  155.8247 C   0  0  0  0  0  0  0  0  0  0  0  0
  148.9304  140.6575  154.4941 C   0  0  0  0  0  0  0  0  0  0  0  0
  149.8284  139.5829  154.7416 O   0  0  0  0  0  0  0  0  0  0  0  0
  151.0502  140.0263  155.3327 C   0  0  2  0  0  0  0  0  0  0  0  0
  152.0001  138.8269  155.4727 C   0  0  0  0  0  0  0  0  0  0  0  0
  151.5396  137.7498  156.1154 N   0  0  0  0  0  0  0  0  0  0  0  0
  153.1326  138.8589  154.9944 O   0  0  0  0  0  0  0  0  0  0  0  0
  150.7477  140.6925  156.6942 C   0  0  0  0  0  0  0  0  0  0  0  0
  150.7076  143.0847  158.2286 N   0  0  0  0  0  0  0  0  0  0  0  0
  150.5991  143.9437  159.2470 C   0  0  0  0  0  0  0  0  0  0  0  0
  151.8934  144.3444  159.9739 C   0  0  0  0  0  0  0  0  0  0  0  0
  152.0544  145.8821  160.0065 C   0  0  0  0  0  0  0  0  0  0  0  0
  153.1402  143.7965  159.2394 C   0  0  0  0  0  0  0  0  0  0  0  0
  151.8641  143.7942  161.4115 C   0  0  0  0  0  0  0  0  0  0  0  0
  149.4469  144.3267  159.8055 N   0  0  0  0  0  0  0  0  0  0  0  0
  144.8420  144.1232  159.6555 H   0  0  0  0  0  0  0  0  0  0  0  0
  145.7829  142.7148  159.1783 H   0  0  0  0  0  0  0  0  0  0  0  0
  145.7470  144.1440  158.1525 H   0  0  0  0  0  0  0  0  0  0  0  0
  146.9694  146.3072  158.9189 H   0  0  0  0  0  0  0  0  0  0  0  0
  147.8217  146.3261  160.4573 H   0  0  0  0  0  0  0  0  0  0  0  0
  146.0628  146.2861  160.4206 H   0  0  0  0  0  0  0  0  0  0  0  0
  145.9692  144.2609  161.8721 H   0  0  0  0  0  0  0  0  0  0  0  0
  147.7159  144.2874  162.0165 H   0  0  0  0  0  0  0  0  0  0  0  0
  146.8896  142.8167  161.4956 H   0  0  0  0  0  0  0  0  0  0  0  0
  147.3970  142.6269  157.7194 H   0  0  0  0  0  0  0  0  0  0  0  0
  147.9666  140.6223  156.4375 H   0  0  0  0  0  0  0  0  0  0  0  0
  147.9028  142.1785  155.6147 H   0  0  0  0  0  0  0  0  0  0  0  0
  148.0433  140.2705  153.9932 H   0  0  0  0  0  0  0  0  0  0  0  0
  149.3877  141.3814  153.8176 H   0  0  0  0  0  0  0  0  0  0  0  0
  151.5288  140.7472  154.6672 H   0  0  0  0  0  0  0  0  0  0  0  0
  152.1316  136.9382  156.2186 H   0  0  0  0  0  0  0  0  0  0  0  0
  150.6005  137.7482  156.4856 H   0  0  0  0  0  0  0  0  0  0  0  0
  151.6749  141.0990  157.0985 H   0  0  0  0  0  0  0  0  0  0  0  0
  150.3866  139.9511  157.4086 H   0  0  0  0  0  0  0  0  0  0  0  0
  152.9941  146.1731  160.4775 H   0  0  0  0  0  0  0  0  0  0  0  0
  151.2569  146.3652  160.5719 H   0  0  0  0  0  0  0  0  0  0  0  0
  152.0475  146.3035  159.0005 H   0  0  0  0  0  0  0  0  0  0  0  0
  153.1768  144.1424  158.2057 H   0  0  0  0  0  0  0  0  0  0  0  0
  153.1592  142.7060  159.2246 H   0  0  0  0  0  0  0  0  0  0  0  0
  154.0613  144.1196  159.7256 H   0  0  0  0  0  0  0  0  0  0  0  0
  152.7685  144.0615  161.9587 H   0  0  0  0  0  0  0  0  0  0  0  0
  151.7847  142.7065  161.4169 H   0  0  0  0  0  0  0  0  0  0  0  0
  151.0134  144.1882  161.9689 H   0  0  0  0  0  0  0  0  0  0  0  0
  1  2  1  0  0  0  0
  1 24  1  0  0  0  0
  1 25  1  0  0  0  0
  1 26  1  0  0  0  0
  2  3  1  0  0  0  0
  2  4  1  0  0  0  0
  2  5  1  0  0  0  0
  3 27  1  0  0  0  0
  3 28  1  0  0  0  0
  3 29  1  0  0  0  0
  4 30  1  0  0  0  0
  4 31  1  0  0  0  0
  4 32  1  0  0  0  0
  5 23  1  0  0  0  0
  5  6  2  0  0  0  0
  6  7  1  0  0  0  0
  6 33  1  0  0  0  0
  7  8  1  0  0  0  0
  7 17  2  0  0  0  0
  8 16  1  0  0  0  0
  8  9  1  0  0  0  0
  9 10  1  0  0  0  0
  9 34  1  0  0  0  0
  9 35  1  0  0  0  0
 10 11  1  0  0  0  0
 10 36  1  0  0  0  0
 10 37  1  0  0  0  0
 11 12  1  0  0  0  0
 12 13  1  0  0  0  0
 12 16  1  0  0  0  0
 12 38  1  0  0  0  0
 13 14  1  0  0  0  0
 13 15  2  0  0  0  0
 14 39  1  0  0  0  0
 14 40  1  0  0  0  0
 16 41  1  0  0  0  0
 16 42  1  0  0  0  0
 17 18  1  0  0  0  0
 18 19  1  0  0  0  0
 18 23  2  0  0  0  0
 19 20  1  0  0  0  0
 19 21  1  0  0  0  0
 19 22  1  0  0  0  0
 20 43  1  0  0  0  0
 20 44  1  0  0  0  0
 20 45  1  0  0  0  0
 21 46  1  0  0  0  0
 21 47  1  0  0  0  0
 21 48  1  0  0  0  0
 22 49  1  0  0  0  0
 22 50  1  0  0  0  0
 22 51  1  0  0  0  0
M  END
> <s_m_source_file>
AV-unprocessed.smi

> <i_m_source_file_index>
2859

> <i_lp_mmshare_version>
43012

> <i_f3d_flags>
0

> <s_epik_input>
W0NIM11DKFtDSDNdKShbQ0gzXSljMVtjSF1jKG5jKG4xKUMoW0NIM10pKFtDSDNdKVtDSDNdKU4yW0NIMl1bQ0gyXU9bQ0BIXShbQ0gyXTIpQyg9TylbTkgyXQ==

> <s_epik_cmdline>
J2VwaWtfcHl0aG9uJywgJy1waCcsICc3LjAnLCAnLXRuJywgJzgnLCAnLW1hJywgJzIwMCcsICctbWV0YWxfYmluZGluZycsICctaW1hZScsICc8aW5maWxlLm1hZT4nLCAnLW9tYWUnLCAnPG91dGZpbGUubWFlPic=

> <r_lp_tautomer_probability>
1

> <r_epik_Ionization_Penalty>
0.0011326

> <r_epik_Ionization_Penalty_Charging>
0

> <r_epik_Ionization_Penalty_Neutral>
0.0011326

> <r_epik_State_Penalty>
0.000721507

> <r_epik_Charging_Adjusted_Penalty>
0.000721507

> <i_epik_Tot_Q>
0

> <i_epik_Tot_abs_Q>
0

> <r_epik_Metal_State_Penalty>
-0

> <b_epik_Metal_Only>
0

> <s_lp_Force_Field>
OPLS_2005

> <r_lp_Energy>
9.68103

> <b_lp_Chiralities_Consistent>
1

> <s_lp_Variant>
AV-unprocessed.smi:2859-2

> <Gold.Version>
5.8.1

> <Gold.Id.Protein>
6NUR|6NUR_protein|mol2

> <Gold.PLP.Fitness>
40.0989

> <Gold.PLP.PLP>
-37.3448

> <Gold.PLP.part.hbond>
-1.6989

> <Gold.PLP.part.metal>
0.0000

> <Gold.PLP.part.buried>
0.8367

> <Gold.PLP.part.nonpolar>
-36.0731

> <Gold.PLP.part.repulsive>
0.6127

> <Gold.PLP.ligand.clash>
0.0000

> <Gold.PLP.ligand.torsion>
0.4214

> <Gold.PLP.Chemscore.Hbond>
1.0000

> <Gold.PLP.Chemscore.CHOScore>
0.0000

> <Gold.PLP.Chemscore.Metal>
0.0000

> <Gold.Chemscore.Hbonds>
donor molecule, donor type, donor heavy atom, donor atom, acceptor molecule, acceptor atom, score
      P1  H  7997  8010       L1    15  0.83

> <Gold.PLP.Chemscore.Internal.Correction>
0.5969

> <Gold.Rescore>
     Score         DG    S(hbond)    S(metal)    S(lipo)     H(rot)  DE(clash)    DE(int)     intcor
     14.49     -15.19       0.98        0.00      95.21       1.83       0.12       0.58       ----

> <Gold.Chemscore.Fitness>
14.4919

> <Gold.Chemscore.DG>
-15.1939

> <Gold.Chemscore.ZeroCoef>
-5.4800

> <Gold.Chemscore.Hbond>
0.9777

> <Gold.Chemscore.Metal>
0.0000

> <Gold.Chemscore.Lipo>
95.2057

> <Gold.Chemscore.Internal_Hbond>
0.0000

> <Gold.Chemscore.DEClash>
0.1185

> <Gold.Chemscore.DEInternal>
0.5835

> <Gold.Chemscore.Rot>
1.8323

> <Gold.Chemscore.Internal.Correction>
   9.000000E+99

> <Gold.Chemscore.Hbonds>
donor molecule, donor type, donor heavy atom, donor atom, acceptor molecule, acceptor atom, score
      P1  H  7997  8010       L1    15  0.63

> <Gold.Chemscore.Hbond.Weighted>
-3.2655

> <Gold.Chemscore.Metal.Weighted>
-0.0000

> <Gold.Chemscore.Lipo.Weighted>
-11.1391

> <Gold.Chemscore.Internal_Hbond.Weighted>
0.0000

> <Gold.Chemscore.DEClash.Weighted>
0.1185

> <Gold.Chemscore.DEInternal.Weighted>
0.5835

> <Gold.Chemscore.Rot.Weighted>
4.6907

> <Gold.Chemscore.Internal.Correction.Weighted>
   9.000000E+99

> <Gold.Protein.RotatedTorsions>
[ 6907 6896 6895 6894 ] final   -4.14 input  -60.11 | X-H torsion
[ 7974 7965 7964 7962 ] final  170.23 input  175.53 | X-H torsion
[ 8008 7997 7996 7995 ] final   91.11 input   59.86 | X-H torsion
[ 10167 10162 10161 10158 ] final   70.16 input  -65.29 | X-H torsion
[ 10718 10713 10712 10709 ] final   59.40 input   66.30 | X-H torsion
[ 10763 10752 10751 10750 ] final  136.53 input  -60.55 | X-H torsion
[ 11005 11000 10999 10996 ] final -148.28 input  -57.11 | X-H torsion

> <Gold.Protein.ActiveResidues>
 VAL166  LYS551  ARG553  GLY616  TRP617  ASP618  TYR619  PRO620  LYS621  CYS622 
 ASP623  PHE694  ASN695  SER759  ASP760  ASP761  ALA762  ILE779  LEU786  VAL792 
 PHE793  MET794  SER795  GLU796  ALA797  LYS798  CYS799  TRP800  GLU811  SER814 

> <Gold.Protein.RotatedAtoms>
  151.5025  135.1062  159.9832 H   0  0  0  0  0  0  0  0  0  0  0  0  # atno 6907 bound_to 6896
  152.4696  133.7995  159.6956 H   0  0  0  0  0  0  0  0  0  0  0  0  # atno 6908 bound_to 6896
  150.8697  133.7460  159.2991 H   0  0  0  0  0  0  0  0  0  0  0  0  # atno 6909 bound_to 6896
  144.7330  139.9172  143.6418 H   0  0  0  0  0  0  0  0  0  0  0  0  # atno 7974 bound_to 7965
  156.0199  140.3341  155.7028 H   0  0  0  0  0  0  0  0  0  0  0  0  # atno 8008 bound_to 7997
  155.6037  140.0658  157.2743 H   0  0  0  0  0  0  0  0  0  0  0  0  # atno 8009 bound_to 7997
  154.4312  140.1806  156.1187 H   0  0  0  0  0  0  0  0  0  0  0  0  # atno 8010 bound_to 7997
  140.0599  144.5241  150.7302 H   0  0  0  0  0  0  0  0  0  0  0  0  # atno 10167 bound_to 10162
  157.5673  130.8880  149.9208 H   0  0  0  0  0  0  0  0  0  0  0  0  # atno 10718 bound_to 10713
  153.8580  135.3071  155.3436 H   0  0  0  0  0  0  0  0  0  0  0  0  # atno 10763 bound_to 10752
  154.7862  135.4808  153.9953 H   0  0  0  0  0  0  0  0  0  0  0  0  # atno 10764 bound_to 10752
  153.1479  135.6837  153.9021 H   0  0  0  0  0  0  0  0  0  0  0  0  # atno 10765 bound_to 10752
  140.7629  134.3278  157.5097 H   0  0  0  0  0  0  0  0  0  0  0  0  # atno 11005 bound_to 11000
  146.0957  139.3949  143.0378 LP  0  0  0  0  0  0  0  0  0  0  0  0  # atno 17320 bound_to 7965
  145.7649  140.9920  143.1180 LP  0  0  0  0  0  0  0  0  0  0  0  0  # atno 17321 bound_to 7965
  140.7177  143.2559  151.4382 LP  0  0  0  0  0  0  0  0  0  0  0  0  # atno 17342 bound_to 10162
  139.5900  144.1520  152.2077 LP  0  0  0  0  0  0  0  0  0  0  0  0  # atno 17343 bound_to 10162
  156.0720  130.3684  150.0756 LP  0  0  0  0  0  0  0  0  0  0  0  0  # atno 17370 bound_to 10713
  156.8913  130.9589  151.3588 LP  0  0  0  0  0  0  0  0  0  0  0  0  # atno 17371 bound_to 10713
  139.8768  134.9213  156.3272 LP  0  0  0  0  0  0  0  0  0  0  0  0  # atno 17394 bound_to 11000
  140.9646  133.7366  156.0449 LP  0  0  0  0  0  0  0  0  0  0  0  0  # atno 17395 bound_to 11000

$$$$
