AV-unprocessed.smi:511|AV-procd|sdf|2767|dock8
  -GOLD-   2262023233D 1   1.00000     0.00000
 Structure written by MMmdl.
 44 46  0  0  0  0  0  0  0  0  2 V2000
  150.2013  135.1414  156.0628 C   0  0  0  0  0  0  0  0  0  0  0  0
  151.5012  135.6989  156.1176 O   0  0  0  0  0  0  0  0  0  0  0  0
  151.4853  137.1084  156.2736 C   0  0  0  0  0  0  0  0  0  0  0  0
  150.9312  137.4632  157.6601 C   0  0  0  0  0  0  0  0  0  0  0  0
  151.3428  138.7998  158.0886 N   0  0  0  0  0  0  0  0  0  0  0  0
  151.0604  140.0048  157.5191 C   0  0  0  0  0  0  0  0  0  0  0  0
  150.2546  140.1338  156.3866 N   0  0  0  0  0  0  0  0  0  0  0  0
  150.6908  140.3137  155.0038 C   0  0  0  0  0  0  0  0  0  0  0  0
  149.9262  141.4717  154.3333 C   0  0  0  0  0  0  0  0  0  0  0  0
  148.4983  141.1552  154.3104 N   0  0  0  0  0  0  0  0  0  0  0  0
  147.7655  142.2500  153.6916 C   0  0  0  0  0  0  0  0  0  0  0  0
  148.0355  140.9716  155.6862 C   0  0  0  0  0  0  0  0  0  0  0  0
  148.8273  139.8289  156.3531 C   0  0  0  0  0  0  0  0  0  0  0  0
  151.6525  141.0478  158.1044 N   0  0  0  0  0  0  0  0  0  0  0  0
  152.3492  140.4658  159.1513 C   0  0  0  0  0  0  0  0  0  0  0  0
  152.1877  139.1158  159.1586 C   0  0  0  0  0  0  0  0  0  0  0  0
  152.8423  138.2163  160.1354 C   0  0  0  0  0  0  0  0  0  0  0  0
  152.6941  136.9972  160.0767 O   0  0  0  0  0  0  0  0  0  0  0  0
  153.5929  138.9058  161.0518 N   0  5  0  0  0  0  0  0  0  0  0  0
  153.7718  140.2719  161.0892 C   0  0  0  0  0  0  0  0  0  0  0  0
  154.4605  140.8138  161.9550 O   0  0  0  0  0  0  0  0  0  0  0  0
  153.1725  141.0629  160.1446 N   0  0  0  0  0  0  0  0  0  0  0  0
  153.3525  142.5175  160.1534 C   0  0  0  0  0  0  0  0  0  0  0  0
  150.2727  134.0613  155.9353 H   0  0  0  0  0  0  0  0  0  0  0  0
  149.6349  135.5434  155.2217 H   0  0  0  0  0  0  0  0  0  0  0  0
  149.6499  135.3369  156.9833 H   0  0  0  0  0  0  0  0  0  0  0  0
  152.4962  137.5047  156.1700 H   0  0  0  0  0  0  0  0  0  0  0  0
  150.8739  137.5655  155.4941 H   0  0  0  0  0  0  0  0  0  0  0  0
  149.8498  137.3814  157.6450 H   0  0  0  0  0  0  0  0  0  0  0  0
  151.2532  136.7331  158.4008 H   0  0  0  0  0  0  0  0  0  0  0  0
  151.7660  140.4826  154.9623 H   0  0  0  0  0  0  0  0  0  0  0  0
  150.5208  139.3870  154.4536 H   0  0  0  0  0  0  0  0  0  0  0  0
  150.1029  142.4079  154.8656 H   0  0  0  0  0  0  0  0  0  0  0  0
  150.2845  141.6071  153.3123 H   0  0  0  0  0  0  0  0  0  0  0  0
  146.6976  142.0304  153.6690 H   0  0  0  0  0  0  0  0  0  0  0  0
  148.0964  142.3978  152.6630 H   0  0  0  0  0  0  0  0  0  0  0  0
  147.9112  143.1847  154.2354 H   0  0  0  0  0  0  0  0  0  0  0  0
  148.1522  141.8954  156.2546 H   0  0  0  0  0  0  0  0  0  0  0  0
  146.9723  140.7289  155.6823 H   0  0  0  0  0  0  0  0  0  0  0  0
  148.6636  138.8872  155.8269 H   0  0  0  0  0  0  0  0  0  0  0  0
  148.4646  139.6842  157.3714 H   0  0  0  0  0  0  0  0  0  0  0  0
  154.4124  142.7747  160.1180 H   0  0  0  0  0  0  0  0  0  0  0  0
  152.9272  142.9470  161.0614 H   0  0  0  0  0  0  0  0  0  0  0  0
  152.8738  143.0054  159.3045 H   0  0  0  0  0  0  0  0  0  0  0  0
  1  2  1  0  0  0  0
  1 24  1  0  0  0  0
  1 25  1  0  0  0  0
  1 26  1  0  0  0  0
  2  3  1  0  0  0  0
  3  4  1  0  0  0  0
  3 27  1  0  0  0  0
  3 28  1  0  0  0  0
  4  5  1  0  0  0  0
  4 29  1  0  0  0  0
  4 30  1  0  0  0  0
  5 16  1  0  0  0  0
  5  6  1  0  0  0  0
  6  7  1  0  0  0  0
  6 14  2  0  0  0  0
  7 13  1  0  0  0  0
  7  8  1  0  0  0  0
  8  9  1  0  0  0  0
  8 31  1  0  0  0  0
  8 32  1  0  0  0  0
  9 10  1  0  0  0  0
  9 33  1  0  0  0  0
  9 34  1  0  0  0  0
 10 11  1  0  0  0  0
 10 12  1  0  0  0  0
 11 35  1  0  0  0  0
 11 36  1  0  0  0  0
 11 37  1  0  0  0  0
 12 13  1  0  0  0  0
 12 38  1  0  0  0  0
 12 39  1  0  0  0  0
 13 40  1  0  0  0  0
 13 41  1  0  0  0  0
 14 15  1  0  0  0  0
 15 22  1  0  0  0  0
 15 16  2  0  0  0  0
 16 17  1  0  0  0  0
 17 18  2  0  0  0  0
 17 19  1  0  0  0  0
 19 20  1  0  0  0  0
 20 21  2  0  0  0  0
 20 22  1  0  0  0  0
 22 23  1  0  0  0  0
 23 42  1  0  0  0  0
 23 43  1  0  0  0  0
 23 44  1  0  0  0  0
M  CHG  1  19  -1
M  END
> <s_m_source_file>
AV-unprocessed.smi

> <i_m_source_file_index>
511

> <i_lp_mmshare_version>
43012

> <i_f3d_flags>
0

> <s_epik_input>
W0NIM11uMWMoPU8pW25IXWMoPU8pYyhjMTIpbihbQ0gyXVtDSDJdT1tDSDNdKWMobjIpTjNbQ0gyXVtDSDJdTihbQ0gzXSlbQ0gyXVtDSDJdMw==

> <s_epik_cmdline>
J2VwaWtfcHl0aG9uJywgJy1waCcsICc3LjAnLCAnLXRuJywgJzgnLCAnLW1hJywgJzIwMCcsICctbWV0YWxfYmluZGluZycsICctaW1hZScsICc8aW5maWxlLm1hZT4nLCAnLW9tYWUnLCAnPG91dGZpbGUubWFlPic=

> <r_epik_Ionization_Penalty>
7.66215

> <r_epik_Ionization_Penalty_Charging>
0.0825427

> <r_epik_Ionization_Penalty_Neutral>
7.5796

> <r_epik_State_Penalty>
7.65676

> <r_epik_Charging_Adjusted_Penalty>
7.73931

> <i_epik_Tot_Q>
-1

> <i_epik_Tot_abs_Q>
1

> <r_epik_Metal_State_Penalty>
3.6066

> <b_epik_Metal_Only>
1

> <s_lp_Force_Field>
OPLS_2005

> <r_lp_Energy>
52.5947

> <b_lp_Chiralities_Consistent>
1

> <s_lp_Variant>
AV-unprocessed.smi:511-4

> <Gold.Version>
5.8.1

> <Gold.Id.Protein>
6NUR|6NUR_protein|mol2

> <Gold.PLP.Fitness>
37.9028

> <Gold.PLP.PLP>
-35.0869

> <Gold.PLP.part.hbond>
-2.5945

> <Gold.PLP.part.metal>
0.0000

> <Gold.PLP.part.buried>
-5.6895

> <Gold.PLP.part.nonpolar>
-27.0618

> <Gold.PLP.part.repulsive>
0.1190

> <Gold.PLP.ligand.clash>
0.0000

> <Gold.PLP.ligand.torsion>
1.4845

> <Gold.PLP.Chemscore.Hbond>
1.8288

> <Gold.PLP.Chemscore.CHOScore>
0.0000

> <Gold.PLP.Chemscore.Metal>
0.0000

> <Gold.Chemscore.Hbonds>
donor molecule, donor type, donor heavy atom, donor atom, acceptor molecule, acceptor atom, score
      P1  H  6896  6909       L1    18  0.94
      P1  H 10752 10763       L1     2  1.00

> <Gold.PLP.Chemscore.Internal.Correction>
0.2987

> <Gold.Rescore>
     Score         DG    S(hbond)    S(metal)    S(lipo)     H(rot)  DE(clash)    DE(int)     intcor
     12.98     -14.49       1.95        0.00      53.47       1.47       0.04       1.46       ----

> <Gold.Chemscore.Fitness>
12.9805

> <Gold.Chemscore.DG>
-14.4869

> <Gold.Chemscore.ZeroCoef>
-5.4800

> <Gold.Chemscore.Hbond>
1.9529

> <Gold.Chemscore.Metal>
0.0000

> <Gold.Chemscore.Lipo>
53.4742

> <Gold.Chemscore.Internal_Hbond>
0.0000

> <Gold.Chemscore.DEClash>
0.0416

> <Gold.Chemscore.DEInternal>
1.4648

> <Gold.Chemscore.Rot>
1.4735

> <Gold.Chemscore.Internal.Correction>
   9.000000E+99

> <Gold.Chemscore.Hbonds>
donor molecule, donor type, donor heavy atom, donor atom, acceptor molecule, acceptor atom, score
      P1  H  6896  6909       L1    18  0.90
      P1  H 10752 10763       L1     2  0.30

> <Gold.Chemscore.Hbond.Weighted>
-6.5226

> <Gold.Chemscore.Metal.Weighted>
-0.0000

> <Gold.Chemscore.Lipo.Weighted>
-6.2565

> <Gold.Chemscore.Internal_Hbond.Weighted>
0.0000

> <Gold.Chemscore.DEClash.Weighted>
0.0416

> <Gold.Chemscore.DEInternal.Weighted>
1.4648

> <Gold.Chemscore.Rot.Weighted>
3.7722

> <Gold.Chemscore.Internal.Correction.Weighted>
   9.000000E+99

> <Gold.Protein.RotatedTorsions>
[ 6907 6896 6895 6894 ] final  147.87 input  -60.11 | X-H torsion
[ 7974 7965 7964 7962 ] final  -43.54 input  175.53 | X-H torsion
[ 8008 7997 7996 7995 ] final   48.28 input   59.86 | X-H torsion
[ 10167 10162 10161 10158 ] final   61.44 input  -65.29 | X-H torsion
[ 10718 10713 10712 10709 ] final  115.46 input   66.30 | X-H torsion
[ 10763 10752 10751 10750 ] final   81.71 input  -60.55 | X-H torsion
[ 11005 11000 10999 10996 ] final -108.47 input  -57.11 | X-H torsion

> <Gold.Protein.ActiveResidues>
 VAL166  LYS551  ARG553  GLY616  TRP617  ASP618  TYR619  PRO620  LYS621  CYS622 
 ASP623  PHE694  ASN695  SER759  ASP760  ASP761  ALA762  ILE779  LEU786  VAL792 
 PHE793  MET794  SER795  GLU796  ALA797  LYS798  CYS799  TRP800  GLU811  SER814 

> <Gold.Protein.RotatedAtoms>
  152.1490  133.4510  159.4803 H   0  0  0  0  0  0  0  0  0  0  0  0  # atno 6907 bound_to 6896
  150.6893  134.2212  159.4406 H   0  0  0  0  0  0  0  0  0  0  0  0  # atno 6908 bound_to 6896
  152.0108  134.9877  160.0618 H   0  0  0  0  0  0  0  0  0  0  0  0  # atno 6909 bound_to 6896
  146.0009  140.7075  142.9271 H   0  0  0  0  0  0  0  0  0  0  0  0  # atno 7974 bound_to 7965
  155.3831  140.3429  155.4247 H   0  0  0  0  0  0  0  0  0  0  0  0  # atno 8008 bound_to 7997
  156.1599  140.1597  156.8662 H   0  0  0  0  0  0  0  0  0  0  0  0  # atno 8009 bound_to 7997
  154.5130  140.0785  156.8009 H   0  0  0  0  0  0  0  0  0  0  0  0  # atno 8010 bound_to 7997
  140.1547  144.4428  150.6740 H   0  0  0  0  0  0  0  0  0  0  0  0  # atno 10167 bound_to 10162
  157.6220  131.1013  150.7333 H   0  0  0  0  0  0  0  0  0  0  0  0  # atno 10718 bound_to 10713
  153.1140  135.4755  154.9083 H   0  0  0  0  0  0  0  0  0  0  0  0  # atno 10763 bound_to 10752
  154.7509  135.3106  154.8561 H   0  0  0  0  0  0  0  0  0  0  0  0  # atno 10764 bound_to 10752
  153.9143  135.6862  153.4803 H   0  0  0  0  0  0  0  0  0  0  0  0  # atno 10765 bound_to 10752
  141.0900  133.9072  157.2098 H   0  0  0  0  0  0  0  0  0  0  0  0  # atno 11005 bound_to 11000
  144.6919  140.3231  143.7229 LP  0  0  0  0  0  0  0  0  0  0  0  0  # atno 17320 bound_to 7965
  145.7489  139.1787  143.2333 LP  0  0  0  0  0  0  0  0  0  0  0  0  # atno 17321 bound_to 7965
  140.6680  143.2275  151.5694 LP  0  0  0  0  0  0  0  0  0  0  0  0  # atno 17342 bound_to 10162
  139.5409  144.2650  152.1348 LP  0  0  0  0  0  0  0  0  0  0  0  0  # atno 17343 bound_to 10162
  156.7689  130.4822  149.5422 LP  0  0  0  0  0  0  0  0  0  0  0  0  # atno 17370 bound_to 10713
  156.1371  130.6219  151.0415 LP  0  0  0  0  0  0  0  0  0  0  0  0  # atno 17371 bound_to 10713
  139.9724  135.0124  156.9545 LP  0  0  0  0  0  0  0  0  0  0  0  0  # atno 17394 bound_to 11000
  140.5275  134.0847  155.7307 LP  0  0  0  0  0  0  0  0  0  0  0  0  # atno 17395 bound_to 11000

$$$$
