AV-unprocessed.smi:552|AV-procd|sdf|2903|dock5
  -GOLD-   2262023393D 1   1.00000     0.00000
 Structure written by MMmdl.
 42 43  0  0  0  0  0  0  0  0  1 V2000
  147.1190  133.0737  152.6095 C   0  0  0  0  0  0  0  0  0  0  0  0
  148.4416  132.4229  153.0399 C   0  0  0  0  0  0  0  0  0  0  0  0
  149.0277  133.0028  154.3420 C   0  0  1  0  0  0  0  0  0  0  0  0
  150.3248  132.2883  154.7454 C   0  0  0  0  0  0  0  0  0  0  0  0
  149.2912  134.4339  154.1943 N   0  0  0  0  0  0  0  0  0  0  0  0
  149.8474  135.2319  155.1181 C   0  0  0  0  0  0  0  0  0  0  0  0
  150.2155  134.8420  156.2260 O   0  0  0  0  0  0  0  0  0  0  0  0
  149.9200  136.5008  154.6805 N   0  0  0  0  0  0  0  0  0  0  0  0
  150.4411  137.6366  155.3569 C   0  0  0  0  0  0  0  0  0  0  0  0
  150.4092  138.9528  154.8383 C   0  0  0  0  0  0  0  0  0  0  0  0
  150.9427  140.0016  155.6112 C   0  0  0  0  0  0  0  0  0  0  0  0
  151.4835  139.7061  156.8790 C   0  0  0  0  0  0  0  0  0  0  0  0
  152.0186  140.7486  157.6482 N   0  0  0  0  0  0  0  0  0  0  0  0
  152.5377  140.3128  158.9384 C   0  0  0  0  0  0  0  0  0  0  0  0
  153.2222  141.4907  159.6536 C   0  0  0  0  0  0  0  0  0  0  0  0
  152.3052  142.5747  159.7751 O   0  0  0  0  0  0  0  0  0  0  0  0
  151.8568  143.0416  158.5056 C   0  0  0  0  0  0  0  0  0  0  0  0
  151.1365  141.9033  157.7621 C   0  0  0  0  0  0  0  0  0  0  0  0
  151.5040  138.4517  157.3885 N   0  0  0  0  0  0  0  0  0  0  0  0
  150.9899  137.4508  156.6427 C   0  0  0  0  0  0  0  0  0  0  0  0
  146.7220  132.5883  151.7179 H   0  0  0  0  0  0  0  0  0  0  0  0
  147.2481  134.1309  152.3771 H   0  0  0  0  0  0  0  0  0  0  0  0
  146.3669  132.9925  153.3946 H   0  0  0  0  0  0  0  0  0  0  0  0
  148.2735  131.3533  153.1711 H   0  0  0  0  0  0  0  0  0  0  0  0
  149.1689  132.5172  152.2324 H   0  0  0  0  0  0  0  0  0  0  0  0
  148.3037  132.8330  155.1406 H   0  0  0  0  0  0  0  0  0  0  0  0
  150.1563  131.2200  154.8840 H   0  0  0  0  0  0  0  0  0  0  0  0
  150.7152  132.6827  155.6841 H   0  0  0  0  0  0  0  0  0  0  0  0
  151.0982  132.4073  153.9857 H   0  0  0  0  0  0  0  0  0  0  0  0
  149.0179  134.8515  153.3170 H   0  0  0  0  0  0  0  0  0  0  0  0
  149.4955  136.6875  153.7840 H   0  0  0  0  0  0  0  0  0  0  0  0
  149.9773  139.1806  153.8763 H   0  0  0  0  0  0  0  0  0  0  0  0
  150.9317  141.0147  155.2364 H   0  0  0  0  0  0  0  0  0  0  0  0
  151.7231  139.9289  159.5543 H   0  0  0  0  0  0  0  0  0  0  0  0
  153.2475  139.4971  158.7955 H   0  0  0  0  0  0  0  0  0  0  0  0
  153.5494  141.1883  160.6483 H   0  0  0  0  0  0  0  0  0  0  0  0
  154.1112  141.8127  159.1091 H   0  0  0  0  0  0  0  0  0  0  0  0
  151.1790  143.8822  158.6541 H   0  0  0  0  0  0  0  0  0  0  0  0
  152.7023  143.4121  157.9234 H   0  0  0  0  0  0  0  0  0  0  0  0
  150.8332  142.2365  156.7687 H   0  0  0  0  0  0  0  0  0  0  0  0
  150.2298  141.6247  158.3011 H   0  0  0  0  0  0  0  0  0  0  0  0
  151.0240  136.4671  157.0876 H   0  0  0  0  0  0  0  0  0  0  0  0
  1  2  1  0  0  0  0
  1 21  1  0  0  0  0
  1 22  1  0  0  0  0
  1 23  1  0  0  0  0
  2  3  1  0  0  0  0
  2 24  1  0  0  0  0
  2 25  1  0  0  0  0
  3  4  1  0  0  0  0
  3  5  1  0  0  0  0
  3 26  1  0  0  0  0
  4 27  1  0  0  0  0
  4 28  1  0  0  0  0
  4 29  1  0  0  0  0
  5  6  1  0  0  0  0
  5 30  1  0  0  0  0
  6  7  2  0  0  0  0
  6  8  1  0  0  0  0
  8  9  1  0  0  0  0
  8 31  1  0  0  0  0
  9 20  1  0  0  0  0
  9 10  2  0  0  0  0
 10 11  1  0  0  0  0
 10 32  1  0  0  0  0
 11 12  2  0  0  0  0
 11 33  1  0  0  0  0
 12 13  1  0  0  0  0
 12 19  1  0  0  0  0
 13 18  1  0  0  0  0
 13 14  1  0  0  0  0
 14 15  1  0  0  0  0
 14 34  1  0  0  0  0
 14 35  1  0  0  0  0
 15 16  1  0  0  0  0
 15 36  1  0  0  0  0
 15 37  1  0  0  0  0
 16 17  1  0  0  0  0
 17 18  1  0  0  0  0
 17 38  1  0  0  0  0
 17 39  1  0  0  0  0
 18 40  1  0  0  0  0
 18 41  1  0  0  0  0
 19 20  2  0  0  0  0
 20 42  1  0  0  0  0
M  END
> <s_m_source_file>
AV-unprocessed.smi

> <i_m_source_file_index>
552

> <i_lp_mmshare_version>
43012

> <i_f3d_flags>
0

> <s_epik_input>
W0NIM11bQ0gyXVtDQEhdKFtDSDNdKVtOSF1DKD1PKVtOSF1jMVtjSF1bY0hdYyhuW2NIXTEpTjJbQ0gyXVtDSDJdT1tDSDJdW0NIMl0y

> <s_epik_cmdline>
J2VwaWtfcHl0aG9uJywgJy1waCcsICc3LjAnLCAnLXRuJywgJzgnLCAnLW1hJywgJzIwMCcsICctbWV0YWxfYmluZGluZycsICctaW1hZScsICc8aW5maWxlLm1hZT4nLCAnLW9tYWUnLCAnPG91dGZpbGUubWFlPic=

> <r_lp_tautomer_probability>
1

> <r_epik_Ionization_Penalty>
0.00215965

> <r_epik_Ionization_Penalty_Charging>
0

> <r_epik_Ionization_Penalty_Neutral>
0.00215965

> <r_epik_State_Penalty>
0.00145276

> <r_epik_Charging_Adjusted_Penalty>
0.00145276

> <i_epik_Tot_Q>
0

> <i_epik_Tot_abs_Q>
0

> <r_epik_Metal_State_Penalty>
-0

> <b_epik_Metal_Only>
0

> <s_lp_Force_Field>
OPLS_2005

> <r_lp_Energy>
22.6914

> <b_lp_Chiralities_Consistent>
1

> <s_lp_Variant>
AV-unprocessed.smi:552-2

> <Gold.Version>
5.8.1

> <Gold.Id.Protein>
6NUR|6NUR_protein|mol2

> <Gold.PLP.Fitness>
40.1027

> <Gold.PLP.PLP>
-34.3101

> <Gold.PLP.part.hbond>
-2.0000

> <Gold.PLP.part.metal>
0.0000

> <Gold.PLP.part.buried>
-3.7224

> <Gold.PLP.part.nonpolar>
-28.1750

> <Gold.PLP.part.repulsive>
0.0792

> <Gold.PLP.ligand.clash>
0.0000

> <Gold.PLP.ligand.torsion>
0.1271

> <Gold.PLP.Chemscore.Hbond>
1.9760

> <Gold.PLP.Chemscore.CHOScore>
0.0000

> <Gold.PLP.Chemscore.Metal>
0.0000

> <Gold.Chemscore.Hbonds>
donor molecule, donor type, donor heavy atom, donor atom, acceptor molecule, acceptor atom, score
      L1  H     5    30       P1  7948  0.90
      L1  H     8    31       P1  7948  1.00

> <Gold.PLP.Chemscore.Internal.Correction>
0.1189

> <Gold.Rescore>
     Score         DG    S(hbond)    S(metal)    S(lipo)     H(rot)  DE(clash)    DE(int)     intcor
     14.29     -16.45       1.56        0.00      78.86       1.35       0.05       2.11       ----

> <Gold.Chemscore.Fitness>
14.2895

> <Gold.Chemscore.DG>
-16.4458

> <Gold.Chemscore.ZeroCoef>
-5.4800

> <Gold.Chemscore.Hbond>
1.5579

> <Gold.Chemscore.Metal>
0.0000

> <Gold.Chemscore.Lipo>
78.8572

> <Gold.Chemscore.Internal_Hbond>
0.0000

> <Gold.Chemscore.DEClash>
0.0492

> <Gold.Chemscore.DEInternal>
2.1071

> <Gold.Chemscore.Rot>
1.3530

> <Gold.Chemscore.Internal.Correction>
   9.000000E+99

> <Gold.Chemscore.Hbonds>
donor molecule, donor type, donor heavy atom, donor atom, acceptor molecule, acceptor atom, score
      L1  H     5    30       P1  7948  0.17
      L1  H     8    31       P1  7948  0.79

> <Gold.Chemscore.Hbond.Weighted>
-5.2033

> <Gold.Chemscore.Metal.Weighted>
-0.0000

> <Gold.Chemscore.Lipo.Weighted>
-9.2263

> <Gold.Chemscore.Internal_Hbond.Weighted>
0.0000

> <Gold.Chemscore.DEClash.Weighted>
0.0492

> <Gold.Chemscore.DEInternal.Weighted>
2.1071

> <Gold.Chemscore.Rot.Weighted>
3.4638

> <Gold.Chemscore.Internal.Correction.Weighted>
   9.000000E+99

> <Gold.Protein.RotatedTorsions>
[ 6907 6896 6895 6894 ] final    7.04 input  -60.11 | X-H torsion
[ 7974 7965 7964 7962 ] final   93.59 input  175.53 | X-H torsion
[ 8008 7997 7996 7995 ] final -173.77 input   59.86 | X-H torsion
[ 10167 10162 10161 10158 ] final   73.27 input  -65.29 | X-H torsion
[ 10718 10713 10712 10709 ] final  107.09 input   66.30 | X-H torsion
[ 10763 10752 10751 10750 ] final   -6.79 input  -60.55 | X-H torsion
[ 11005 11000 10999 10996 ] final  -69.26 input  -57.11 | X-H torsion

> <Gold.Protein.ActiveResidues>
 VAL166  LYS551  ARG553  GLY616  TRP617  ASP618  TYR619  PRO620  LYS621  CYS622 
 ASP623  PHE694  ASN695  SER759  ASP760  ASP761  ALA762  ILE779  LEU786  VAL792 
 PHE793  MET794  SER795  GLU796  ALA797  LYS798  CYS799  TRP800  GLU811  SER814 

> <Gold.Protein.RotatedAtoms>
  151.6834  135.0958  160.0220 H   0  0  0  0  0  0  0  0  0  0  0  0  # atno 6907 bound_to 6896
  152.3822  133.6557  159.6178 H   0  0  0  0  0  0  0  0  0  0  0  0  # atno 6908 bound_to 6896
  150.7756  133.9012  159.3383 H   0  0  0  0  0  0  0  0  0  0  0  0  # atno 6909 bound_to 6896
  145.4769  139.2280  143.2904 H   0  0  0  0  0  0  0  0  0  0  0  0  # atno 7974 bound_to 7965
  155.9616  140.1145  157.0890 H   0  0  0  0  0  0  0  0  0  0  0  0  # atno 8008 bound_to 7997
  154.4133  140.1181  156.5253 H   0  0  0  0  0  0  0  0  0  0  0  0  # atno 8009 bound_to 7997
  155.6713  140.3473  155.4821 H   0  0  0  0  0  0  0  0  0  0  0  0  # atno 8010 bound_to 7997
  140.0263  144.5501  150.7542 H   0  0  0  0  0  0  0  0  0  0  0  0  # atno 10167 bound_to 10162
  157.6642  131.0865  150.6105 H   0  0  0  0  0  0  0  0  0  0  0  0  # atno 10718 bound_to 10713
  153.4173  135.7009  153.6318 H   0  0  0  0  0  0  0  0  0  0  0  0  # atno 10763 bound_to 10752
  153.4787  135.3698  155.2431 H   0  0  0  0  0  0  0  0  0  0  0  0  # atno 10764 bound_to 10752
  154.8720  135.4061  154.3535 H   0  0  0  0  0  0  0  0  0  0  0  0  # atno 10765 bound_to 10752
  141.1550  133.6760  156.6573 H   0  0  0  0  0  0  0  0  0  0  0  0  # atno 11005 bound_to 11000
  146.2364  140.5552  142.8953 LP  0  0  0  0  0  0  0  0  0  0  0  0  # atno 17320 bound_to 7965
  144.7912  140.6035  143.6540 LP  0  0  0  0  0  0  0  0  0  0  0  0  # atno 17321 bound_to 7965
  140.7321  143.2702  151.3914 LP  0  0  0  0  0  0  0  0  0  0  0  0  # atno 17342 bound_to 10162
  139.6106  144.1107  152.2294 LP  0  0  0  0  0  0  0  0  0  0  0  0  # atno 17343 bound_to 10162
  156.6406  130.4457  149.5754 LP  0  0  0  0  0  0  0  0  0  0  0  0  # atno 17370 bound_to 10713
  156.2212  130.6738  151.1370 LP  0  0  0  0  0  0  0  0  0  0  0  0  # atno 17371 bound_to 10713
  140.3274  134.7957  157.4300 LP  0  0  0  0  0  0  0  0  0  0  0  0  # atno 17394 bound_to 11000
  140.1045  134.5428  155.8322 LP  0  0  0  0  0  0  0  0  0  0  0  0  # atno 17395 bound_to 11000

$$$$
