AV-unprocessed.smi:2083|AV-procd|sdf|8512|dock8
  -GOLD-   2272011223D 1   1.00000     0.00000
 Structure written by MMmdl.
 44 45  0  0  0  0  0  0  0  0  3 V2000
  151.0720  141.9060  156.2560 C   0  0  0  0  0  0  0  0  0  0  0  0
  151.1792  140.4907  155.8007 C   0  0  0  0  0  0  0  0  0  0  0  0
  150.2464  139.5568  155.4477 C   0  0  0  0  0  0  0  0  0  0  0  0
  151.0355  138.4228  155.1182 C   0  0  0  0  0  0  0  0  0  0  0  0
  150.4236  137.2155  154.6891 N   0  0  0  0  0  0  0  0  0  0  0  0
  150.6651  135.9569  155.0989 C   0  0  0  0  0  0  0  0  0  0  0  0
  151.5117  135.7350  155.9730 O   0  0  0  0  0  0  0  0  0  0  0  0
  149.8938  135.0442  154.4452 N   0  5  0  0  0  0  0  0  0  0  0  0
  148.5320  134.6705  154.8312 C   0  0  0  0  0  0  0  0  0  0  0  0
  148.0340  133.4415  154.0202 C   0  0  2  0  0  0  0  0  0  0  0  0
  149.1330  132.3924  153.7157 C   0  0  0  0  0  0  0  0  0  0  0  0
  147.2966  133.8838  152.7952 N   0  3  2  0  0  0  0  0  0  0  0  0
  146.2170  134.8657  153.0835 C   0  0  0  0  0  0  0  0  0  0  0  0
  145.6746  135.4836  151.7846 C   0  0  0  0  0  0  0  0  0  0  0  0
  145.1884  134.3990  150.8146 C   0  0  0  0  0  0  0  0  0  0  0  0
  146.3064  133.3758  150.5527 C   0  0  2  0  0  0  0  0  0  0  0  0
  145.8389  132.2648  149.6019 C   0  0  0  0  0  0  0  0  0  0  0  0
  146.8170  132.7990  151.8873 C   0  0  0  0  0  0  0  0  0  0  0  0
  152.3340  138.6461  155.2568 N   0  0  0  0  0  0  0  0  0  0  0  0
  152.4328  139.9721  155.6947 O   0  0  0  0  0  0  0  0  0  0  0  0
  150.2538  142.0223  156.9669 H   0  0  0  0  0  0  0  0  0  0  0  0
  150.8835  142.5686  155.4114 H   0  0  0  0  0  0  0  0  0  0  0  0
  151.9909  142.2321  156.7437 H   0  0  0  0  0  0  0  0  0  0  0  0
  149.1726  139.6685  155.4292 H   0  0  0  0  0  0  0  0  0  0  0  0
  149.7129  137.3156  153.9796 H   0  0  0  0  0  0  0  0  0  0  0  0
  148.4694  134.4388  155.8957 H   0  0  0  0  0  0  0  0  0  0  0  0
  147.8382  135.4981  154.6817 H   0  0  0  0  0  0  0  0  0  0  0  0
  147.3016  132.9434  154.6571 H   0  0  0  0  0  0  0  0  0  0  0  0
  149.5486  131.9645  154.6298 H   0  0  0  0  0  0  0  0  0  0  0  0
  149.9663  132.8054  153.1447 H   0  0  0  0  0  0  0  0  0  0  0  0
  148.7249  131.5594  153.1431 H   0  0  0  0  0  0  0  0  0  0  0  0
  145.4136  134.3767  153.6364 H   0  0  0  0  0  0  0  0  0  0  0  0
  146.5971  135.6677  153.7175 H   0  0  0  0  0  0  0  0  0  0  0  0
  144.8601  136.1722  152.0111 H   0  0  0  0  0  0  0  0  0  0  0  0
  146.4567  136.0768  151.3084 H   0  0  0  0  0  0  0  0  0  0  0  0
  144.3149  133.8977  151.2339 H   0  0  0  0  0  0  0  0  0  0  0  0
  144.8662  134.8563  149.8784 H   0  0  0  0  0  0  0  0  0  0  0  0
  147.1361  133.8945  150.0694 H   0  0  0  0  0  0  0  0  0  0  0  0
  145.0077  131.7016  150.0273 H   0  0  0  0  0  0  0  0  0  0  0  0
  146.6454  131.5612  149.3935 H   0  0  0  0  0  0  0  0  0  0  0  0
  145.5083  132.6774  148.6483 H   0  0  0  0  0  0  0  0  0  0  0  0
  147.6223  132.0924  151.6846 H   0  0  0  0  0  0  0  0  0  0  0  0
  146.0177  132.2356  152.3708 H   0  0  0  0  0  0  0  0  0  0  0  0
  147.9844  134.4023  152.2673 H   0  0  0  0  0  0  0  0  0  0  0  0
  1  2  1  0  0  0  0
  1 21  1  0  0  0  0
  1 22  1  0  0  0  0
  1 23  1  0  0  0  0
  2 20  1  0  0  0  0
  2  3  2  0  0  0  0
  3  4  1  0  0  0  0
  3 24  1  0  0  0  0
  4  5  1  0  0  0  0
  4 19  2  0  0  0  0
  5  6  1  0  0  0  0
  5 25  1  0  0  0  0
  6  7  2  0  0  0  0
  6  8  1  0  0  0  0
  8  9  1  0  0  0  0
  9 10  1  0  0  0  0
  9 26  1  0  0  0  0
  9 27  1  0  0  0  0
 10 11  1  0  0  0  0
 10 12  1  0  0  0  0
 10 28  1  0  0  0  0
 11 29  1  0  0  0  0
 11 30  1  0  0  0  0
 11 31  1  0  0  0  0
 12 18  1  0  0  0  0
 12 13  1  0  0  0  0
 12 44  1  0  0  0  0
 13 14  1  0  0  0  0
 13 32  1  0  0  0  0
 13 33  1  0  0  0  0
 14 15  1  0  0  0  0
 14 34  1  0  0  0  0
 14 35  1  0  0  0  0
 15 16  1  0  0  0  0
 15 36  1  0  0  0  0
 15 37  1  0  0  0  0
 16 17  1  0  0  0  0
 16 18  1  0  0  0  0
 16 38  1  0  0  0  0
 17 39  1  0  0  0  0
 17 40  1  0  0  0  0
 17 41  1  0  0  0  0
 18 42  1  0  0  0  0
 18 43  1  0  0  0  0
 19 20  1  0  0  0  0
M  CHG  1   8  -1
M  CHG  1  12   1
M  END
> <s_m_source_file>
AV-unprocessed.smi

> <i_m_source_file_index>
2083

> <i_lp_mmshare_version>
43012

> <i_f3d_flags>
0

> <s_epik_input>
W0NIM11jMVtjSF1jKG5vMSlbTkhdQyg9TylbTkhdW0NIMl1bQ0BIXShbQ0gzXSlOMltDSDJdW0NIMl1bQ0gyXVtDQEBIXShbQ0gzXSlbQ0gyXTI=

> <s_epik_cmdline>
J2VwaWtfcHl0aG9uJywgJy1waCcsICc3LjAnLCAnLXRuJywgJzgnLCAnLW1hJywgJzIwMCcsICctbWV0YWxfYmluZGluZycsICctaW1hZScsICc8aW5maWxlLm1hZT4nLCAnLW9tYWUnLCAnPG91dGZpbGUubWFlPic=

> <r_epik_Ionization_Penalty>
6.76934

> <r_epik_Ionization_Penalty_Charging>
6.76934

> <r_epik_Ionization_Penalty_Neutral>
5.77849e-06

> <r_epik_State_Penalty>
6.79457

> <r_epik_Charging_Adjusted_Penalty>
13.5639

> <i_epik_Tot_Q>
0

> <i_epik_Tot_abs_Q>
2

> <r_epik_Metal_State_Penalty>
2.72837

> <b_epik_Metal_Only>
1

> <s_lp_Force_Field>
OPLS_2005

> <r_lp_Energy>
16.9315

> <b_lp_Chiralities_Consistent>
1

> <s_lp_Variant>
AV-unprocessed.smi:2083-23

> <Gold.Version>
5.8.1

> <Gold.Id.Protein>
6NUR|6NUR_protein|mol2

> <Gold.PLP.Fitness>
42.9254

> <Gold.PLP.PLP>
-33.9399

> <Gold.PLP.part.hbond>
-3.7865

> <Gold.PLP.part.metal>
0.0000

> <Gold.PLP.part.buried>
-3.0059

> <Gold.PLP.part.nonpolar>
-26.8394

> <Gold.PLP.part.repulsive>
1.6771

> <Gold.PLP.ligand.clash>
0.0000

> <Gold.PLP.ligand.torsion>
1.5870

> <Gold.PLP.Chemscore.Hbond>
4.0000

> <Gold.PLP.Chemscore.CHOScore>
0.0000

> <Gold.PLP.Chemscore.Metal>
0.0000

> <Gold.Chemscore.Hbonds>
donor molecule, donor type, donor heavy atom, donor atom, acceptor molecule, acceptor atom, score
      L1  H    12    44       P1  7948  1.85
      P1  H  7997  8009       L1    20  1.00
      P1  H 10752 10764       L1     7  1.00

> <Gold.PLP.Chemscore.Internal.Correction>
0.1596

> <Gold.Rescore>
     Score         DG    S(hbond)    S(metal)    S(lipo)     H(rot)  DE(clash)    DE(int)     intcor
     15.74     -17.58       2.57        0.00      63.36       1.52       0.27       1.56       ----

> <Gold.Chemscore.Fitness>
15.7434

> <Gold.Chemscore.DG>
-17.5755

> <Gold.Chemscore.ZeroCoef>
-5.4800

> <Gold.Chemscore.Hbond>
2.5662

> <Gold.Chemscore.Metal>
0.0000

> <Gold.Chemscore.Lipo>
63.3590

> <Gold.Chemscore.Internal_Hbond>
0.0000

> <Gold.Chemscore.DEClash>
0.2716

> <Gold.Chemscore.DEInternal>
1.5606

> <Gold.Chemscore.Rot>
1.5190

> <Gold.Chemscore.Internal.Correction>
   9.000000E+99

> <Gold.Chemscore.Hbonds>
donor molecule, donor type, donor heavy atom, donor atom, acceptor molecule, acceptor atom, score
      L1  H     5    25       P1  7948  0.02
      L1  H    12    44       P1  7948  0.22
      P1  H  7997  8009       L1    20  0.39
      P1  H 10752 10764       L1     7  0.55

> <Gold.Chemscore.Hbond.Weighted>
-8.5712

> <Gold.Chemscore.Metal.Weighted>
-0.0000

> <Gold.Chemscore.Lipo.Weighted>
-7.4130

> <Gold.Chemscore.Internal_Hbond.Weighted>
0.0000

> <Gold.Chemscore.DEClash.Weighted>
0.2716

> <Gold.Chemscore.DEInternal.Weighted>
1.5606

> <Gold.Chemscore.Rot.Weighted>
3.8886

> <Gold.Chemscore.Internal.Correction.Weighted>
   9.000000E+99

> <Gold.Protein.RotatedTorsions>
[ 6907 6896 6895 6894 ] final   44.55 input  -60.11 | X-H torsion
[ 7974 7965 7964 7962 ] final  -70.15 input  175.53 | X-H torsion
[ 8008 7997 7996 7995 ] final -150.85 input   59.86 | X-H torsion
[ 10167 10162 10161 10158 ] final   90.96 input  -65.29 | X-H torsion
[ 10718 10713 10712 10709 ] final -172.24 input   66.30 | X-H torsion
[ 10763 10752 10751 10750 ] final  -28.42 input  -60.55 | X-H torsion
[ 11005 11000 10999 10996 ] final   57.46 input  -57.11 | X-H torsion

> <Gold.Protein.ActiveResidues>
 VAL166  LYS551  ARG553  GLY616  TRP617  ASP618  TYR619  PRO620  LYS621  CYS622 
 ASP623  PHE694  ASN695  SER759  ASP760  ASP761  ALA762  ILE779  LEU786  VAL792 
 PHE793  MET794  SER795  GLU796  ALA797  LYS798  CYS799  TRP800  GLU811  SER814 

> <Gold.Protein.RotatedAtoms>
  152.2338  134.8296  160.0469 H   0  0  0  0  0  0  0  0  0  0  0  0  # atno 6907 bound_to 6896
  151.9035  133.3538  159.3847 H   0  0  0  0  0  0  0  0  0  0  0  0  # atno 6908 bound_to 6896
  150.7033  134.4730  159.5478 H   0  0  0  0  0  0  0  0  0  0  0  0  # atno 6909 bound_to 6896
  145.6946  140.9140  143.0763 H   0  0  0  0  0  0  0  0  0  0  0  0  # atno 7974 bound_to 7965
  155.6301  140.0690  157.2651 H   0  0  0  0  0  0  0  0  0  0  0  0  # atno 8008 bound_to 7997
  154.4208  140.1769  156.1512 H   0  0  0  0  0  0  0  0  0  0  0  0  # atno 8009 bound_to 7997
  155.9939  140.3342  155.6783 H   0  0  0  0  0  0  0  0  0  0  0  0  # atno 8010 bound_to 7997
  139.8421  144.6636  150.9270 H   0  0  0  0  0  0  0  0  0  0  0  0  # atno 10167 bound_to 10162
  156.7527  130.9384  151.3115 H   0  0  0  0  0  0  0  0  0  0  0  0  # atno 10718 bound_to 10713
  153.7481  135.6928  153.4952 H   0  0  0  0  0  0  0  0  0  0  0  0  # atno 10763 bound_to 10752
  153.2022  135.4432  155.0279 H   0  0  0  0  0  0  0  0  0  0  0  0  # atno 10764 bound_to 10752
  154.8197  135.3416  154.7003 H   0  0  0  0  0  0  0  0  0  0  0  0  # atno 10765 bound_to 10752
  140.0450  134.5818  155.9333 H   0  0  0  0  0  0  0  0  0  0  0  0  # atno 11005 bound_to 11000
  144.6986  139.8867  143.7450 LP  0  0  0  0  0  0  0  0  0  0  0  0  # atno 17320 bound_to 7965
  146.0851  139.3840  143.0440 LP  0  0  0  0  0  0  0  0  0  0  0  0  # atno 17321 bound_to 7965
  140.7797  143.3903  151.1322 LP  0  0  0  0  0  0  0  0  0  0  0  0  # atno 17342 bound_to 10162
  139.7548  143.8724  152.3086 LP  0  0  0  0  0  0  0  0  0  0  0  0  # atno 17343 bound_to 10162
  157.6770  130.9104  150.0174 LP  0  0  0  0  0  0  0  0  0  0  0  0  # atno 17370 bound_to 10713
  156.1391  130.3642  149.9611 LP  0  0  0  0  0  0  0  0  0  0  0  0  # atno 17371 bound_to 10713
  141.1902  133.6568  156.5404 LP  0  0  0  0  0  0  0  0  0  0  0  0  # atno 17394 bound_to 11000
  140.4007  134.7359  157.4778 LP  0  0  0  0  0  0  0  0  0  0  0  0  # atno 17395 bound_to 11000

$$$$
