AV-unprocessed.smi:746|AV-procd|sdf|3579|dock3
  -GOLD-   22720 0573D 1   1.00000     0.00000
 Structure written by MMmdl.
 48 50  0  0  0  0  0  0  0  0  1 V2000
  145.8943  136.3256  150.5366 C   0  0  0  0  0  0  0  0  0  0  0  0
  146.4677  137.5436  150.9785 O   0  0  0  0  0  0  0  0  0  0  0  0
  146.1004  137.8648  152.3096 C   0  0  0  0  0  0  0  0  0  0  0  0
  146.9466  139.0474  152.7886 C   0  0  0  0  0  0  0  0  0  0  0  0
  147.3962  138.7797  154.1092 O   0  0  0  0  0  0  0  0  0  0  0  0
  148.2856  139.6625  154.6814 C   0  0  0  0  0  0  0  0  0  0  0  0
  148.6378  140.9200  154.1311 C   0  0  0  0  0  0  0  0  0  0  0  0
  149.5635  141.7272  154.8202 C   0  0  0  0  0  0  0  0  0  0  0  0
  150.1180  141.2528  156.0321 C   0  0  0  0  0  0  0  0  0  0  0  0
  151.0486  141.9732  156.8285 N   0  0  0  0  0  0  0  0  0  0  0  0
  151.4424  141.7327  158.0948 C   0  0  0  0  0  0  0  0  0  0  0  0
  151.1761  140.7002  158.7074 O   0  0  0  0  0  0  0  0  0  0  0  0
  152.2651  142.6975  158.5746 N   0  0  0  0  0  0  0  0  0  0  0  0
  152.0674  144.1177  158.2146 C   0  0  0  0  0  0  0  0  0  0  0  0
  151.2440  144.8341  159.3129 C   0  0  0  0  0  0  0  0  0  0  0  0
  151.8803  144.6788  160.7115 C   0  0  0  0  0  0  0  0  0  0  0  0
  152.2069  143.2009  160.9841 C   0  0  2  0  0  0  0  0  0  0  0  0
  153.0661  142.8901  162.2147 C   0  0  0  0  0  0  0  0  0  0  0  0
  153.8509  141.6091  161.8562 C   0  0  0  0  0  0  0  0  0  0  0  0
  153.5320  141.2862  160.3851 C   0  0  0  0  0  0  0  0  0  0  0  0
  153.0291  142.6290  159.8351 C   0  0  1  0  0  0  0  0  0  0  0  0
  149.6888  139.9947  156.4999 C   0  0  0  0  0  0  0  0  0  0  0  0
  148.8030  139.2154  155.8456 N   0  0  0  0  0  0  0  0  0  0  0  0
  146.2112  136.1211  149.5141 H   0  0  0  0  0  0  0  0  0  0  0  0
  144.8049  136.3756  150.5475 H   0  0  0  0  0  0  0  0  0  0  0  0
  146.2130  135.4899  151.1610 H   0  0  0  0  0  0  0  0  0  0  0  0
  145.0408  138.1210  152.3558 H   0  0  0  0  0  0  0  0  0  0  0  0
  146.2610  137.0037  152.9604 H   0  0  0  0  0  0  0  0  0  0  0  0
  147.7982  139.1840  152.1200 H   0  0  0  0  0  0  0  0  0  0  0  0
  146.3470  139.9589  152.7697 H   0  0  0  0  0  0  0  0  0  0  0  0
  148.2179  141.2817  153.2050 H   0  0  0  0  0  0  0  0  0  0  0  0
  149.8153  142.6930  154.4114 H   0  0  0  0  0  0  0  0  0  0  0  0
  151.3524  142.8549  156.4418 H   0  0  0  0  0  0  0  0  0  0  0  0
  153.0390  144.6008  158.1021 H   0  0  0  0  0  0  0  0  0  0  0  0
  151.5685  144.2507  157.2540 H   0  0  0  0  0  0  0  0  0  0  0  0
  151.1374  145.8917  159.0699 H   0  0  0  0  0  0  0  0  0  0  0  0
  150.2345  144.4209  159.3302 H   0  0  0  0  0  0  0  0  0  0  0  0
  152.7947  145.2717  160.7560 H   0  0  0  0  0  0  0  0  0  0  0  0
  151.2146  145.0717  161.4803 H   0  0  0  0  0  0  0  0  0  0  0  0
  151.2741  142.6392  161.0644 H   0  0  0  0  0  0  0  0  0  0  0  0
  153.7661  143.7046  162.4057 H   0  0  0  0  0  0  0  0  0  0  0  0
  152.4576  142.7647  163.1107 H   0  0  0  0  0  0  0  0  0  0  0  0
  154.9199  141.7825  161.9850 H   0  0  0  0  0  0  0  0  0  0  0  0
  153.5778  140.7767  162.5056 H   0  0  0  0  0  0  0  0  0  0  0  0
  154.4006  140.9125  159.8423 H   0  0  0  0  0  0  0  0  0  0  0  0
  152.7726  140.5079  160.3697 H   0  0  0  0  0  0  0  0  0  0  0  0
  153.9202  143.2477  159.7052 H   0  0  0  0  0  0  0  0  0  0  0  0
  150.0728  139.5949  157.4273 H   0  0  0  0  0  0  0  0  0  0  0  0
  1  2  1  0  0  0  0
  1 24  1  0  0  0  0
  1 25  1  0  0  0  0
  1 26  1  0  0  0  0
  2  3  1  0  0  0  0
  3  4  1  0  0  0  0
  3 27  1  0  0  0  0
  3 28  1  0  0  0  0
  4  5  1  0  0  0  0
  4 29  1  0  0  0  0
  4 30  1  0  0  0  0
  5  6  1  0  0  0  0
  6 23  1  0  0  0  0
  6  7  2  0  0  0  0
  7  8  1  0  0  0  0
  7 31  1  0  0  0  0
  8  9  2  0  0  0  0
  8 32  1  0  0  0  0
  9 10  1  0  0  0  0
  9 22  1  0  0  0  0
 10 11  1  0  0  0  0
 10 33  1  0  0  0  0
 11 12  2  0  0  0  0
 11 13  1  0  0  0  0
 13 21  1  0  0  0  0
 13 14  1  0  0  0  0
 14 15  1  0  0  0  0
 14 34  1  0  0  0  0
 14 35  1  0  0  0  0
 15 16  1  0  0  0  0
 15 36  1  0  0  0  0
 15 37  1  0  0  0  0
 16 17  1  0  0  0  0
 16 38  1  0  0  0  0
 16 39  1  0  0  0  0
 17 21  1  0  0  0  0
 17 18  1  0  0  0  0
 17 40  1  0  0  0  0
 18 19  1  0  0  0  0
 18 41  1  0  0  0  0
 18 42  1  0  0  0  0
 19 20  1  0  0  0  0
 19 43  1  0  0  0  0
 19 44  1  0  0  0  0
 20 21  1  0  0  0  0
 20 45  1  0  0  0  0
 20 46  1  0  0  0  0
 21 47  1  0  0  0  0
 22 23  2  0  0  0  0
 22 48  1  0  0  0  0
M  END
> <s_m_source_file>
AV-unprocessed.smi

> <i_m_source_file_index>
746

> <i_lp_mmshare_version>
43012

> <i_f3d_flags>
0

> <s_epik_input>
W0NIM11PW0NIMl1bQ0gyXU9jMVtjSF1bY0hdYyhbY0hdbjEpW05IXUMoPU8pTihbQ0gyXVtDSDJdW0NIMl0yKVtDQEhdKFtDQEBIXTIzKVtDSDJdW0NIMl1bQ0gyXTM=

> <s_epik_cmdline>
J2VwaWtfcHl0aG9uJywgJy1waCcsICc3LjAnLCAnLXRuJywgJzgnLCAnLW1hJywgJzIwMCcsICctbWV0YWxfYmluZGluZycsICctaW1hZScsICc8aW5maWxlLm1hZT4nLCAnLW9tYWUnLCAnPG91dGZpbGUubWFlPic=

> <r_lp_tautomer_probability>
1

> <r_epik_Ionization_Penalty>
8.29966e-05

> <r_epik_Ionization_Penalty_Charging>
0

> <r_epik_Ionization_Penalty_Neutral>
8.29966e-05

> <r_epik_State_Penalty>
-0

> <r_epik_Charging_Adjusted_Penalty>
0

> <i_epik_Tot_Q>
0

> <i_epik_Tot_abs_Q>
0

> <r_epik_Metal_State_Penalty>
-0

> <b_epik_Metal_Only>
0

> <s_lp_Force_Field>
OPLS_2005

> <r_lp_Energy>
62.5595

> <b_lp_Chiralities_Consistent>
1

> <s_lp_Variant>
AV-unprocessed.smi:746-4

> <Gold.Version>
5.8.1

> <Gold.Id.Protein>
6NUR|6NUR_protein|mol2

> <Gold.PLP.Fitness>
53.3807

> <Gold.PLP.PLP>
-51.2866

> <Gold.PLP.part.hbond>
-1.0000

> <Gold.PLP.part.metal>
0.0000

> <Gold.PLP.part.buried>
-3.0547

> <Gold.PLP.part.nonpolar>
-48.7301

> <Gold.PLP.part.repulsive>
2.6378

> <Gold.PLP.ligand.clash>
0.0292

> <Gold.PLP.ligand.torsion>
0.7119

> <Gold.PLP.Chemscore.Hbond>
0.9913

> <Gold.PLP.Chemscore.CHOScore>
0.0000

> <Gold.PLP.Chemscore.Metal>
0.0000

> <Gold.Chemscore.Hbonds>
donor molecule, donor type, donor heavy atom, donor atom, acceptor molecule, acceptor atom, score
      P1  H  7954  7966       L1     2  0.99

> <Gold.PLP.Chemscore.Internal.Correction>
0.5733

> <Gold.Rescore>
     Score         DG    S(hbond)    S(metal)    S(lipo)     H(rot)  DE(clash)    DE(int)     intcor
     15.90     -21.05       0.82        0.00     142.96       1.52       1.82       3.34       ----

> <Gold.Chemscore.Fitness>
15.8974

> <Gold.Chemscore.DG>
-21.0520

> <Gold.Chemscore.ZeroCoef>
-5.4800

> <Gold.Chemscore.Hbond>
0.8174

> <Gold.Chemscore.Metal>
0.0000

> <Gold.Chemscore.Lipo>
142.9565

> <Gold.Chemscore.Internal_Hbond>
0.0000

> <Gold.Chemscore.DEClash>
1.8166

> <Gold.Chemscore.DEInternal>
3.3379

> <Gold.Chemscore.Rot>
1.5172

> <Gold.Chemscore.Internal.Correction>
   9.000000E+99

> <Gold.Chemscore.Hbonds>
donor molecule, donor type, donor heavy atom, donor atom, acceptor molecule, acceptor atom, score
      P1  H  7954  7966       L1     2  0.55

> <Gold.Chemscore.Hbond.Weighted>
-2.7302

> <Gold.Chemscore.Metal.Weighted>
-0.0000

> <Gold.Chemscore.Lipo.Weighted>
-16.7259

> <Gold.Chemscore.Internal_Hbond.Weighted>
0.0000

> <Gold.Chemscore.DEClash.Weighted>
1.8166

> <Gold.Chemscore.DEInternal.Weighted>
3.3379

> <Gold.Chemscore.Rot.Weighted>
3.8841

> <Gold.Chemscore.Internal.Correction.Weighted>
   9.000000E+99

> <Gold.Protein.RotatedTorsions>
[ 6907 6896 6895 6894 ] final  179.41 input  -60.11 | X-H torsion
[ 7974 7965 7964 7962 ] final   86.35 input  175.53 | X-H torsion
[ 8008 7997 7996 7995 ] final  145.83 input   59.86 | X-H torsion
[ 10167 10162 10161 10158 ] final  -61.14 input  -65.29 | X-H torsion
[ 10718 10713 10712 10709 ] final   48.85 input   66.30 | X-H torsion
[ 10763 10752 10751 10750 ] final -150.69 input  -60.55 | X-H torsion
[ 11005 11000 10999 10996 ] final  141.07 input  -57.11 | X-H torsion

> <Gold.Protein.ActiveResidues>
 VAL166  LYS551  ARG553  GLY616  TRP617  ASP618  TYR619  PRO620  LYS621  CYS622 
 ASP623  PHE694  ASN695  SER759  ASP760  ASP761  ALA762  ILE779  LEU786  VAL792 
 PHE793  MET794  SER795  GLU796  ALA797  LYS798  CYS799  TRP800  GLU811  SER814 

> <Gold.Protein.RotatedAtoms>
  151.6722  133.3313  159.3198 H   0  0  0  0  0  0  0  0  0  0  0  0  # atno 6907 bound_to 6896
  150.7862  134.6853  159.6476 H   0  0  0  0  0  0  0  0  0  0  0  0  # atno 6908 bound_to 6896
  152.3933  134.6410  160.0151 H   0  0  0  0  0  0  0  0  0  0  0  0  # atno 6909 bound_to 6896
  145.5734  139.2316  143.2393 H   0  0  0  0  0  0  0  0  0  0  0  0  # atno 7974 bound_to 7965
  156.2872  140.2198  156.5279 H   0  0  0  0  0  0  0  0  0  0  0  0  # atno 8008 bound_to 7997
  154.7473  140.0483  157.0885 H   0  0  0  0  0  0  0  0  0  0  0  0  # atno 8009 bound_to 7997
  155.0154  140.3118  155.4817 H   0  0  0  0  0  0  0  0  0  0  0  0  # atno 8010 bound_to 7997
  140.6025  143.2365  151.5896 H   0  0  0  0  0  0  0  0  0  0  0  0  # atno 10167 bound_to 10162
  157.4728  130.8266  149.8006 H   0  0  0  0  0  0  0  0  0  0  0  0  # atno 10718 bound_to 10713
  154.8103  135.3278  154.7322 H   0  0  0  0  0  0  0  0  0  0  0  0  # atno 10763 bound_to 10752
  153.7972  135.6906  153.4866 H   0  0  0  0  0  0  0  0  0  0  0  0  # atno 10764 bound_to 10752
  153.1878  135.4562  155.0056 H   0  0  0  0  0  0  0  0  0  0  0  0  # atno 10765 bound_to 10752
  140.0374  134.9322  157.0778 H   0  0  0  0  0  0  0  0  0  0  0  0  # atno 11005 bound_to 11000
  146.1768  140.6560  142.9208 LP  0  0  0  0  0  0  0  0  0  0  0  0  # atno 17320 bound_to 7965
  144.7427  140.4986  143.6858 LP  0  0  0  0  0  0  0  0  0  0  0  0  # atno 17321 bound_to 7965
  139.5301  144.2941  152.1128 LP  0  0  0  0  0  0  0  0  0  0  0  0  # atno 17342 bound_to 10162
  140.2124  144.4549  150.6379 LP  0  0  0  0  0  0  0  0  0  0  0  0  # atno 17343 bound_to 10162
  156.0082  130.3845  150.2357 LP  0  0  0  0  0  0  0  0  0  0  0  0  # atno 17370 bound_to 10713
  157.0540  131.0071  151.3244 LP  0  0  0  0  0  0  0  0  0  0  0  0  # atno 17371 bound_to 10713
  140.4125  134.1966  155.7163 LP  0  0  0  0  0  0  0  0  0  0  0  0  # atno 17394 bound_to 11000
  141.1864  133.8302  157.1068 LP  0  0  0  0  0  0  0  0  0  0  0  0  # atno 17395 bound_to 11000

$$$$
