AV-unprocessed.smi:1199|AV-procd|sdf|5015|dock5
  -GOLD-   22720 4 33D 1   1.00000     0.00000
 Structure written by MMmdl.
 40 41  0  0  0  0  0  0  0  0  2 V2000
  152.1513  145.1592  157.8873 C   0  0  0  0  0  0  0  0  0  0  0  0
  151.8629  143.6803  158.2007 C   0  0  1  0  0  0  0  0  0  0  0  0
  151.1682  143.4853  159.5714 C   0  0  0  0  0  0  0  0  0  0  0  0
  151.8589  142.6141  160.5253 N   0  0  0  0  0  0  0  0  0  0  0  0
  152.9210  141.8146  159.9209 C   0  0  0  0  0  0  0  0  0  0  0  0
  153.6578  140.9480  160.9580 C   0  0  0  0  0  0  0  0  0  0  0  0
  154.1634  141.7697  162.0044 O   0  0  0  0  0  0  0  0  0  0  0  0
  153.1390  142.5125  162.6559 C   0  0  0  0  0  0  0  0  0  0  0  0
  152.4151  143.3956  161.6256 C   0  0  0  0  0  0  0  0  0  0  0  0
  151.0072  143.1715  157.1321 N   0  0  0  0  0  0  0  0  0  0  0  0
  150.9881  141.9051  156.6876 C   0  0  0  0  0  0  0  0  0  0  0  0
  151.7123  141.0203  157.1469 O   0  0  0  0  0  0  0  0  0  0  0  0
  150.0017  141.6156  155.5451 C   0  0  0  0  0  0  0  0  0  0  0  0
  149.9817  140.2110  155.1113 N   0  0  0  0  0  0  0  0  0  0  0  0
  151.2953  139.6866  154.7489 N   0  5  0  0  0  0  0  0  0  0  0  0
  151.4066  138.3876  154.3637 C   0  0  0  0  0  0  0  0  0  0  0  0
  152.4809  137.8706  154.0661 O   0  0  0  0  0  0  0  0  0  0  0  0
  150.1950  137.5872  154.2985 C   0  0  0  0  0  0  0  0  0  0  0  0
  148.9911  138.1062  154.6101 C   0  0  0  0  0  0  0  0  0  0  0  0
  148.8261  139.4906  155.0365 C   0  0  0  0  0  0  0  0  0  0  0  0
  147.7283  139.9741  155.3138 O   0  0  0  0  0  0  0  0  0  0  0  0
  152.8065  145.6203  158.6237 H   0  0  0  0  0  0  0  0  0  0  0  0
  151.2313  145.7443  157.8591 H   0  0  0  0  0  0  0  0  0  0  0  0
  152.6373  145.2631  156.9165 H   0  0  0  0  0  0  0  0  0  0  0  0
  152.8044  143.1279  158.1825 H   0  0  0  0  0  0  0  0  0  0  0  0
  150.9710  144.4567  160.0277 H   0  0  0  0  0  0  0  0  0  0  0  0
  150.1825  143.0526  159.3930 H   0  0  0  0  0  0  0  0  0  0  0  0
  152.5034  141.1500  159.1664 H   0  0  0  0  0  0  0  0  0  0  0  0
  153.6358  142.4664  159.4161 H   0  0  0  0  0  0  0  0  0  0  0  0
  152.9890  140.1918  161.3722 H   0  0  0  0  0  0  0  0  0  0  0  0
  154.4866  140.4181  160.4886 H   0  0  0  0  0  0  0  0  0  0  0  0
  152.4386  141.8329  163.1441 H   0  0  0  0  0  0  0  0  0  0  0  0
  153.5858  143.1282  163.4366 H   0  0  0  0  0  0  0  0  0  0  0  0
  153.1139  144.1375  161.2354 H   0  0  0  0  0  0  0  0  0  0  0  0
  151.6199  143.9496  162.1255 H   0  0  0  0  0  0  0  0  0  0  0  0
  150.3822  143.8326  156.6945 H   0  0  0  0  0  0  0  0  0  0  0  0
  148.9981  141.9124  155.8552 H   0  0  0  0  0  0  0  0  0  0  0  0
  150.2542  142.2694  154.7085 H   0  0  0  0  0  0  0  0  0  0  0  0
  150.2618  136.5541  153.9906 H   0  0  0  0  0  0  0  0  0  0  0  0
  148.1172  137.4754  154.5458 H   0  0  0  0  0  0  0  0  0  0  0  0
  1  2  1  0  0  0  0
  1 22  1  0  0  0  0
  1 23  1  0  0  0  0
  1 24  1  0  0  0  0
  2  3  1  0  0  0  0
  2 10  1  0  0  0  0
  2 25  1  0  0  0  0
  3  4  1  0  0  0  0
  3 26  1  0  0  0  0
  3 27  1  0  0  0  0
  4  9  1  0  0  0  0
  4  5  1  0  0  0  0
  5  6  1  0  0  0  0
  5 28  1  0  0  0  0
  5 29  1  0  0  0  0
  6  7  1  0  0  0  0
  6 30  1  0  0  0  0
  6 31  1  0  0  0  0
  7  8  1  0  0  0  0
  8  9  1  0  0  0  0
  8 32  1  0  0  0  0
  8 33  1  0  0  0  0
  9 34  1  0  0  0  0
  9 35  1  0  0  0  0
 10 11  1  0  0  0  0
 10 36  1  0  0  0  0
 11 12  2  0  0  0  0
 11 13  1  0  0  0  0
 13 37  1  0  0  0  0
 13 38  1  0  0  0  0
 13 14  1  0  0  0  0
 14 15  1  0  0  0  0
 14 20  1  0  0  0  0
 15 16  1  0  0  0  0
 16 17  2  0  0  0  0
 16 18  1  0  0  0  0
 18 39  1  0  0  0  0
 18 19  2  0  0  0  0
 19 40  1  0  0  0  0
 19 20  1  0  0  0  0
 20 21  2  0  0  0  0
M  CHG  1  15  -1
M  END
> <s_m_source_file>
AV-unprocessed.smi

> <i_m_source_file_index>
1199

> <i_lp_mmshare_version>
43012

> <i_f3d_flags>
0

> <s_epik_input>
W0NIMl0xW0NIMl1PW0NIMl1bQ0gyXU4xW0NIMl1bQ0BASF0oW0NIM10pW05IXUMoPU8pW0NIMl1uMltuSF1jKD1PKVtjSF1bY0hdYzI9Tw==

> <s_epik_cmdline>
J2VwaWtfcHl0aG9uJywgJy1waCcsICc3LjAnLCAnLXRuJywgJzgnLCAnLW1hJywgJzIwMCcsICctbWV0YWxfYmluZGluZycsICctaW1hZScsICc8aW5maWxlLm1hZT4nLCAnLW9tYWUnLCAnPG91dGZpbGUubWFlPic=

> <r_lp_tautomer_probability>
1

> <r_epik_Ionization_Penalty>
0.334996

> <r_epik_Ionization_Penalty_Charging>
0.0976136

> <r_epik_Ionization_Penalty_Neutral>
0.237382

> <r_epik_State_Penalty>
0.26804

> <r_epik_Charging_Adjusted_Penalty>
0.365653

> <i_epik_Tot_Q>
-1

> <i_epik_Tot_abs_Q>
1

> <r_epik_Metal_State_Penalty>
0.26804

> <b_epik_Metal_Only>
0

> <s_lp_Force_Field>
OPLS_2005

> <r_lp_Energy>
39.9629

> <b_lp_Chiralities_Consistent>
1

> <s_lp_Variant>
AV-unprocessed.smi:1199-2

> <Gold.Version>
5.8.1

> <Gold.Id.Protein>
6NUR|6NUR_protein|mol2

> <Gold.PLP.Fitness>
47.8971

> <Gold.PLP.PLP>
-44.7962

> <Gold.PLP.part.hbond>
-4.4118

> <Gold.PLP.part.metal>
0.0000

> <Gold.PLP.part.buried>
-5.8204

> <Gold.PLP.part.nonpolar>
-35.0262

> <Gold.PLP.part.repulsive>
0.2463

> <Gold.PLP.ligand.clash>
0.0184

> <Gold.PLP.ligand.torsion>
1.8363

> <Gold.PLP.Chemscore.Hbond>
2.2472

> <Gold.PLP.Chemscore.CHOScore>
0.0000

> <Gold.PLP.Chemscore.Metal>
0.0000

> <Gold.Chemscore.Hbonds>
donor molecule, donor type, donor heavy atom, donor atom, acceptor molecule, acceptor atom, score
      L1  H    10    36       P1  8028  1.00
      P1  H  7989  7998       L1    15  0.85
      P1  H 10752 10764       L1    17  0.34

> <Gold.PLP.Chemscore.Internal.Correction>
0.0504

> <Gold.Rescore>
     Score         DG    S(hbond)    S(metal)    S(lipo)     H(rot)  DE(clash)    DE(int)     intcor
     12.60     -17.46       2.03        0.00      94.55       2.30       1.72       3.14       ----

> <Gold.Chemscore.Fitness>
12.6024

> <Gold.Chemscore.DG>
-17.4606

> <Gold.Chemscore.ZeroCoef>
-5.4800

> <Gold.Chemscore.Hbond>
2.0342

> <Gold.Chemscore.Metal>
0.0000

> <Gold.Chemscore.Lipo>
94.5541

> <Gold.Chemscore.Internal_Hbond>
0.0000

> <Gold.Chemscore.DEClash>
1.7195

> <Gold.Chemscore.DEInternal>
3.1387

> <Gold.Chemscore.Rot>
2.2955

> <Gold.Chemscore.Internal.Correction>
   9.000000E+99

> <Gold.Chemscore.Hbonds>
donor molecule, donor type, donor heavy atom, donor atom, acceptor molecule, acceptor atom, score
      L1  H    10    36       P1  8028  0.95
      P1  H  7989  7998       L1    15  0.13
      P1  H 10752 10764       L1    17  0.34

> <Gold.Chemscore.Hbond.Weighted>
-6.7944

> <Gold.Chemscore.Metal.Weighted>
-0.0000

> <Gold.Chemscore.Lipo.Weighted>
-11.0628

> <Gold.Chemscore.Internal_Hbond.Weighted>
0.0000

> <Gold.Chemscore.DEClash.Weighted>
1.7195

> <Gold.Chemscore.DEInternal.Weighted>
3.1387

> <Gold.Chemscore.Rot.Weighted>
5.8766

> <Gold.Chemscore.Internal.Correction.Weighted>
   9.000000E+99

> <Gold.Protein.RotatedTorsions>
[ 6907 6896 6895 6894 ] final  -42.94 input  -60.11 | X-H torsion
[ 7974 7965 7964 7962 ] final  144.38 input  175.53 | X-H torsion
[ 8008 7997 7996 7995 ] final  -85.59 input   59.86 | X-H torsion
[ 10167 10162 10161 10158 ] final -155.47 input  -65.29 | X-H torsion
[ 10718 10713 10712 10709 ] final  -15.68 input   66.30 | X-H torsion
[ 10763 10752 10751 10750 ] final  -91.90 input  -60.55 | X-H torsion
[ 11005 11000 10999 10996 ] final   18.74 input  -57.11 | X-H torsion

> <Gold.Protein.ActiveResidues>
 VAL166  LYS551  ARG553  GLY616  TRP617  ASP618  TYR619  PRO620  LYS621  CYS622 
 ASP623  PHE694  ASN695  SER759  ASP760  ASP761  ALA762  ILE779  LEU786  VAL792 
 PHE793  MET794  SER795  GLU796  ALA797  LYS798  CYS799  TRP800  GLU811  SER814 

> <Gold.Protein.RotatedAtoms>
  150.9496  134.8897  159.7663 H   0  0  0  0  0  0  0  0  0  0  0  0  # atno 6907 bound_to 6896
  152.5114  134.3826  159.9366 H   0  0  0  0  0  0  0  0  0  0  0  0  # atno 6908 bound_to 6896
  151.3842  133.3770  159.2748 H   0  0  0  0  0  0  0  0  0  0  0  0  # atno 6909 bound_to 6896
  144.8841  139.5655  143.5829 H   0  0  0  0  0  0  0  0  0  0  0  0  # atno 7974 bound_to 7965
  154.6424  140.0589  156.9861 H   0  0  0  0  0  0  0  0  0  0  0  0  # atno 8008 bound_to 7997
  155.1496  140.3273  155.4415 H   0  0  0  0  0  0  0  0  0  0  0  0  # atno 8009 bound_to 7997
  156.2537  140.1949  156.6609 H   0  0  0  0  0  0  0  0  0  0  0  0  # atno 8010 bound_to 7997
  139.6929  143.9391  152.2393 H   0  0  0  0  0  0  0  0  0  0  0  0  # atno 10167 bound_to 10162
  156.5983  130.4817  149.6250 H   0  0  0  0  0  0  0  0  0  0  0  0  # atno 10718 bound_to 10713
  154.6807  135.5251  153.8259 H   0  0  0  0  0  0  0  0  0  0  0  0  # atno 10763 bound_to 10752
  153.0562  135.6551  154.0580 H   0  0  0  0  0  0  0  0  0  0  0  0  # atno 10764 bound_to 10752
  154.0468  135.2972  155.3326 H   0  0  0  0  0  0  0  0  0  0  0  0  # atno 10765 bound_to 10752
  140.4214  134.1515  155.7673 H   0  0  0  0  0  0  0  0  0  0  0  0  # atno 11005 bound_to 11000
  146.3013  139.7436  142.9089 LP  0  0  0  0  0  0  0  0  0  0  0  0  # atno 17320 bound_to 7965
  145.3901  141.0371  143.3129 LP  0  0  0  0  0  0  0  0  0  0  0  0  # atno 17321 bound_to 7965
  139.9212  144.6798  150.8459 LP  0  0  0  0  0  0  0  0  0  0  0  0  # atno 17342 bound_to 10162
  140.7688  143.3374  151.2281 LP  0  0  0  0  0  0  0  0  0  0  0  0  # atno 17343 bound_to 10162
  156.2491  130.6896  151.1628 LP  0  0  0  0  0  0  0  0  0  0  0  0  # atno 17370 bound_to 10713
  157.7286  131.0630  150.5812 LP  0  0  0  0  0  0  0  0  0  0  0  0  # atno 17371 bound_to 10713
  141.1782  133.8469  157.1348 LP  0  0  0  0  0  0  0  0  0  0  0  0  # atno 17394 bound_to 11000
  140.0197  134.9951  157.0567 LP  0  0  0  0  0  0  0  0  0  0  0  0  # atno 17395 bound_to 11000

$$$$
