AV-unprocessed.smi:3166|AV-procd|sdf|12096|dock3
  -GOLD-   2272017533D 1   1.00000     0.00000
 Structure written by MMmdl.
 40 41  0  0  0  0  0  0  0  0  1 V2000
  151.5999  140.7158  158.9307 C   0  0  0  0  0  0  0  0  0  0  0  0
  150.4493  141.5149  158.2986 C   0  0  1  0  0  0  0  0  0  0  0  0
  150.9163  142.8816  157.7370 C   0  0  0  0  0  0  0  0  0  0  0  0
  151.3724  143.8103  158.7595 N   0  0  0  0  0  0  0  0  0  0  0  0
  150.9784  145.1159  158.9680 C   0  0  0  0  0  0  0  0  0  0  0  0
  151.6752  145.5855  160.0440 C   0  0  0  0  0  0  0  0  0  0  0  0
  152.4793  144.4785  160.4342 C   0  0  0  0  0  0  0  0  0  0  0  0
  152.2928  143.4166  159.6672 N   0  0  0  0  0  0  0  0  0  0  0  0
  149.7766  140.6837  157.2946 N   0  0  0  0  0  0  0  0  0  0  0  0
  150.5113  140.4782  156.0440 C   0  0  0  0  0  0  0  0  0  0  0  0
  149.5738  140.1711  154.8543 C   0  0  0  0  0  0  0  0  0  0  0  0
  150.3972  139.8450  153.7486 O   0  0  0  0  0  0  0  0  0  0  0  0
  148.7187  138.9242  155.1832 C   0  0  0  0  0  0  0  0  0  0  0  0
  147.6848  138.5947  154.0913 C   0  0  0  0  0  0  0  0  0  0  0  0
  146.7841  139.8017  153.7958 C   0  0  0  0  0  0  0  0  0  0  0  0
  147.6219  141.0277  153.4079 C   0  0  0  0  0  0  0  0  0  0  0  0
  148.6575  141.3688  154.4944 C   0  0  0  0  0  0  0  0  0  0  0  0
  152.1123  141.3039  159.6924 H   0  0  0  0  0  0  0  0  0  0  0  0
  152.3399  140.4150  158.1882 H   0  0  0  0  0  0  0  0  0  0  0  0
  151.2293  139.8095  159.4105 H   0  0  0  0  0  0  0  0  0  0  0  0
  149.7374  141.7236  159.0981 H   0  0  0  0  0  0  0  0  0  0  0  0
  151.7105  142.7607  157.0007 H   0  0  0  0  0  0  0  0  0  0  0  0
  150.0912  143.3475  157.1957 H   0  0  0  0  0  0  0  0  0  0  0  0
  150.2445  145.5970  158.3388 H   0  0  0  0  0  0  0  0  0  0  0  0
  151.6190  146.5695  160.4852 H   0  0  0  0  0  0  0  0  0  0  0  0
  153.1868  144.4147  161.2478 H   0  0  0  0  0  0  0  0  0  0  0  0
  148.8645  141.0767  157.0839 H   0  0  0  0  0  0  0  0  0  0  0  0
  151.1120  141.3599  155.8163 H   0  0  0  0  0  0  0  0  0  0  0  0
  151.2108  139.6508  156.1568 H   0  0  0  0  0  0  0  0  0  0  0  0
  149.8721  139.8856  152.9640 H   0  0  0  0  0  0  0  0  0  0  0  0
  149.3608  138.0585  155.3534 H   0  0  0  0  0  0  0  0  0  0  0  0
  148.1873  139.0915  156.1212 H   0  0  0  0  0  0  0  0  0  0  0  0
  148.1944  138.2843  153.1785 H   0  0  0  0  0  0  0  0  0  0  0  0
  147.0753  137.7466  154.4045 H   0  0  0  0  0  0  0  0  0  0  0  0
  146.0861  139.5584  152.9942 H   0  0  0  0  0  0  0  0  0  0  0  0
  146.1798  140.0333  154.6739 H   0  0  0  0  0  0  0  0  0  0  0  0
  148.1287  140.8401  152.4604 H   0  0  0  0  0  0  0  0  0  0  0  0
  146.9681  141.8840  153.2401 H   0  0  0  0  0  0  0  0  0  0  0  0
  148.1294  141.6963  155.3909 H   0  0  0  0  0  0  0  0  0  0  0  0
  149.2498  142.2228  154.1644 H   0  0  0  0  0  0  0  0  0  0  0  0
  1  2  1  0  0  0  0
  1 18  1  0  0  0  0
  1 19  1  0  0  0  0
  1 20  1  0  0  0  0
  2  3  1  0  0  0  0
  2  9  1  0  0  0  0
  2 21  1  0  0  0  0
  3  4  1  0  0  0  0
  3 22  1  0  0  0  0
  3 23  1  0  0  0  0
  4  8  1  0  0  0  0
  4  5  1  0  0  0  0
  5  6  2  0  0  0  0
  5 24  1  0  0  0  0
  6  7  1  0  0  0  0
  6 25  1  0  0  0  0
  7  8  2  0  0  0  0
  7 26  1  0  0  0  0
  9 10  1  0  0  0  0
  9 27  1  0  0  0  0
 10 11  1  0  0  0  0
 10 28  1  0  0  0  0
 10 29  1  0  0  0  0
 11 17  1  0  0  0  0
 11 12  1  0  0  0  0
 11 13  1  0  0  0  0
 12 30  1  0  0  0  0
 13 14  1  0  0  0  0
 13 31  1  0  0  0  0
 13 32  1  0  0  0  0
 14 15  1  0  0  0  0
 14 33  1  0  0  0  0
 14 34  1  0  0  0  0
 15 16  1  0  0  0  0
 15 35  1  0  0  0  0
 15 36  1  0  0  0  0
 16 17  1  0  0  0  0
 16 37  1  0  0  0  0
 16 38  1  0  0  0  0
 17 39  1  0  0  0  0
 17 40  1  0  0  0  0
M  END
> <s_m_source_file>
AV-unprocessed.smi

> <i_m_source_file_index>
3166

> <i_lp_mmshare_version>
43012

> <i_f3d_flags>
0

> <s_epik_input>
bjFbY0hdW2NIXVtjSF1uMVtDSDJdW0NAQEhdKFtDSDNdKVtOSF1bQ0gyXUMyKFtPSF0pW0NIMl1bQ0gyXVtDSDJdW0NIMl1bQ0gyXTI=

> <s_epik_cmdline>
J2VwaWtfcHl0aG9uJywgJy1waCcsICc3LjAnLCAnLXRuJywgJzgnLCAnLW1hJywgJzIwMCcsICctbWV0YWxfYmluZGluZycsICctaW1hZScsICc8aW5maWxlLm1hZT4nLCAnLW9tYWUnLCAnPG91dGZpbGUubWFlPic=

> <r_lp_tautomer_probability>
1

> <r_epik_Ionization_Penalty>
2.35964

> <r_epik_Ionization_Penalty_Charging>
0

> <r_epik_Ionization_Penalty_Neutral>
2.35964

> <r_epik_State_Penalty>
2.51455

> <r_epik_Charging_Adjusted_Penalty>
2.51455

> <i_epik_Tot_Q>
0

> <i_epik_Tot_abs_Q>
0

> <r_epik_Metal_State_Penalty>
2.51451

> <b_epik_Metal_Only>
0

> <s_lp_Force_Field>
OPLS_2005

> <r_lp_Energy>
22.3921

> <b_lp_Chiralities_Consistent>
1

> <s_lp_Variant>
AV-unprocessed.smi:3166-4

> <Gold.Version>
5.8.1

> <Gold.Id.Protein>
6NUR|6NUR_protein|mol2

> <Gold.PLP.Fitness>
42.2904

> <Gold.PLP.PLP>
-34.0778

> <Gold.PLP.part.hbond>
-1.8951

> <Gold.PLP.part.metal>
0.0000

> <Gold.PLP.part.buried>
-3.9560

> <Gold.PLP.part.nonpolar>
-28.1513

> <Gold.PLP.part.repulsive>
0.0000

> <Gold.PLP.ligand.clash>
0.0000

> <Gold.PLP.ligand.torsion>
0.3268

> <Gold.PLP.Chemscore.Hbond>
1.9440

> <Gold.PLP.Chemscore.CHOScore>
1.0000

> <Gold.PLP.Chemscore.Metal>
0.0000

> <Gold.Chemscore.Hbonds>
donor molecule, donor type, donor heavy atom, donor atom, acceptor molecule, acceptor atom, score
      L1  H    12    30       P1  7957  1.00
      P1  H  7989  7998       L1    12  0.94
      L1  C     5    24       P1  8029  0.88

> <Gold.PLP.Chemscore.Internal.Correction>
0.0342

> <Gold.Rescore>
     Score         DG    S(hbond)    S(metal)    S(lipo)     H(rot)  DE(clash)    DE(int)     intcor
     14.06     -15.64       1.44        0.00      92.25       2.12       0.05       1.53       ----

> <Gold.Chemscore.Fitness>
14.0608

> <Gold.Chemscore.DG>
-15.6415

> <Gold.Chemscore.ZeroCoef>
-5.4800

> <Gold.Chemscore.Hbond>
1.4365

> <Gold.Chemscore.Metal>
0.0000

> <Gold.Chemscore.Lipo>
92.2496

> <Gold.Chemscore.Internal_Hbond>
0.0000

> <Gold.Chemscore.DEClash>
0.0544

> <Gold.Chemscore.DEInternal>
1.5263

> <Gold.Chemscore.Rot>
2.1209

> <Gold.Chemscore.Internal.Correction>
   9.000000E+99

> <Gold.Chemscore.Hbonds>
donor molecule, donor type, donor heavy atom, donor atom, acceptor molecule, acceptor atom, score
      L1  H    12    30       P1  7957  0.98
      P1  H  7989  7998       L1    12  0.37

> <Gold.Chemscore.Hbond.Weighted>
-4.7979

> <Gold.Chemscore.Metal.Weighted>
-0.0000

> <Gold.Chemscore.Lipo.Weighted>
-10.7932

> <Gold.Chemscore.Internal_Hbond.Weighted>
0.0000

> <Gold.Chemscore.DEClash.Weighted>
0.0544

> <Gold.Chemscore.DEInternal.Weighted>
1.5263

> <Gold.Chemscore.Rot.Weighted>
5.4296

> <Gold.Chemscore.Internal.Correction.Weighted>
   9.000000E+99

> <Gold.Protein.RotatedTorsions>
[ 6907 6896 6895 6894 ] final  -83.34 input  -60.11 | X-H torsion
[ 7974 7965 7964 7962 ] final   -4.07 input  175.53 | X-H torsion
[ 8008 7997 7996 7995 ] final   44.46 input   59.86 | X-H torsion
[ 10167 10162 10161 10158 ] final  156.54 input  -65.29 | X-H torsion
[ 10718 10713 10712 10709 ] final  -28.30 input   66.30 | X-H torsion
[ 10763 10752 10751 10750 ] final -121.37 input  -60.55 | X-H torsion
[ 11005 11000 10999 10996 ] final  -75.81 input  -57.11 | X-H torsion

> <Gold.Protein.ActiveResidues>
 VAL166  LYS551  ARG553  GLY616  TRP617  ASP618  TYR619  PRO620  LYS621  CYS622 
 ASP623  PHE694  ASN695  SER759  ASP760  ASP761  ALA762  ILE779  LEU786  VAL792 
 PHE793  MET794  SER795  GLU796  ALA797  LYS798  CYS799  TRP800  GLU811  SER814 

> <Gold.Protein.RotatedAtoms>
  150.6886  134.3526  159.4915 H   0  0  0  0  0  0  0  0  0  0  0  0  # atno 6907 bound_to 6896
  152.1365  134.9092  160.0565 H   0  0  0  0  0  0  0  0  0  0  0  0  # atno 6908 bound_to 6896
  152.0242  133.3876  159.4307 H   0  0  0  0  0  0  0  0  0  0  0  0  # atno 6909 bound_to 6896
  146.2379  140.1815  142.8332 H   0  0  0  0  0  0  0  0  0  0  0  0  # atno 7974 bound_to 7965
  155.3197  140.3396  155.4241 H   0  0  0  0  0  0  0  0  0  0  0  0  # atno 8008 bound_to 7997
  156.1915  140.1699  156.8120 H   0  0  0  0  0  0  0  0  0  0  0  0  # atno 8009 bound_to 7997
  154.5448  140.0717  156.8553 H   0  0  0  0  0  0  0  0  0  0  0  0  # atno 8010 bound_to 7997
  139.4821  144.4999  151.8184 H   0  0  0  0  0  0  0  0  0  0  0  0  # atno 10167 bound_to 10162
  156.4270  130.4437  149.7143 H   0  0  0  0  0  0  0  0  0  0  0  0  # atno 10718 bound_to 10713
  154.8666  135.4170  154.2609 H   0  0  0  0  0  0  0  0  0  0  0  0  # atno 10763 bound_to 10752
  153.3537  135.7000  153.6773 H   0  0  0  0  0  0  0  0  0  0  0  0  # atno 10764 bound_to 10752
  153.5702  135.3592  155.2807 H   0  0  0  0  0  0  0  0  0  0  0  0  # atno 10765 bound_to 10752
  141.1649  133.6960  156.7573 H   0  0  0  0  0  0  0  0  0  0  0  0  # atno 11005 bound_to 11000
  144.9930  140.8564  143.5328 LP  0  0  0  0  0  0  0  0  0  0  0  0  # atno 17320 bound_to 7965
  145.1824  139.2345  143.5285 LP  0  0  0  0  0  0  0  0  0  0  0  0  # atno 17321 bound_to 7965
  140.4491  144.1880  150.5896 LP  0  0  0  0  0  0  0  0  0  0  0  0  # atno 17342 bound_to 10162
  140.4603  143.2451  151.9228 LP  0  0  0  0  0  0  0  0  0  0  0  0  # atno 17343 bound_to 10162
  156.4061  130.7699  151.2709 LP  0  0  0  0  0  0  0  0  0  0  0  0  # atno 17370 bound_to 10713
  157.7508  131.0225  150.3795 LP  0  0  0  0  0  0  0  0  0  0  0  0  # atno 17371 bound_to 10713
  140.2560  134.8504  157.3713 LP  0  0  0  0  0  0  0  0  0  0  0  0  # atno 17394 bound_to 11000
  140.1657  134.4672  155.7865 LP  0  0  0  0  0  0  0  0  0  0  0  0  # atno 17395 bound_to 11000

$$$$
