AV-unprocessed.smi:1633|AV-procd|sdf|6534|dock10
  -GOLD-   22720 7213D 1   1.00000     0.00000
 Structure written by MMmdl.
 52 54  0  0  0  0  0  0  0  0  3 V2000
  145.7654  133.0766  156.0570 C   0  0  0  0  0  0  0  0  0  0  0  0
  147.1314  132.7835  155.4324 C   0  0  0  0  0  0  0  0  0  0  0  0
  147.6287  131.6743  155.6242 O   0  0  0  0  0  0  0  0  0  0  0  0
  147.7447  133.7421  154.6974 N   0  0  0  0  0  0  0  0  0  0  0  0
  149.0730  133.5607  154.1051 C   0  0  0  0  0  0  0  0  0  0  0  0
  150.0646  134.5242  154.7817 C   0  0  0  0  0  0  0  0  0  0  0  0
  149.5975  135.9337  154.6976 N   0  3  0  0  0  0  0  0  0  0  0  0
  150.5590  136.8822  155.3172 C   0  0  0  0  0  0  0  0  0  0  0  0
  150.3244  138.3442  154.8849 C   0  0  2  0  0  0  0  0  0  0  0  0
  150.2028  138.3852  153.4764 O   0  0  0  0  0  0  0  0  0  0  0  0
  151.4803  139.2620  155.3300 C   0  0  0  0  0  0  0  0  0  0  0  0
  151.0143  140.5099  155.9530 N   0  0  0  0  0  0  0  0  0  0  0  0
  150.0995  141.4134  155.5061 C   0  0  0  0  0  0  0  0  0  0  0  0
  150.0051  142.4000  156.4398 N   0  3  0  0  0  0  0  0  0  0  0  0
  150.8703  142.1230  157.5001 C   0  0  0  0  0  0  0  0  0  0  0  0
  151.1270  142.8256  158.6713 C   0  0  0  0  0  0  0  0  0  0  0  0
  152.0783  142.2744  159.5587 C   0  0  0  0  0  0  0  0  0  0  0  0
  152.3874  143.0209  160.8454 C   0  0  0  0  0  0  0  0  0  0  0  0
  152.7337  141.0522  159.2591 C   0  0  0  0  0  0  0  0  0  0  0  0
  153.7538  140.4679  160.2216 C   0  0  0  0  0  0  0  0  0  0  0  0
  152.4573  140.3517  158.0631 C   0  0  0  0  0  0  0  0  0  0  0  0
  151.5196  140.9101  157.1969 C   0  0  0  0  0  0  0  0  0  0  0  0
  148.1975  136.1014  155.1772 C   0  0  0  0  0  0  0  0  0  0  0  0
  147.2464  135.1053  154.4890 C   0  0  0  0  0  0  0  0  0  0  0  0
  145.8277  133.9168  156.7492 H   0  0  0  0  0  0  0  0  0  0  0  0
  145.4052  132.2120  156.6157 H   0  0  0  0  0  0  0  0  0  0  0  0
  145.0282  133.3039  155.2865 H   0  0  0  0  0  0  0  0  0  0  0  0
  149.4414  132.5373  154.1895 H   0  0  0  0  0  0  0  0  0  0  0  0
  149.0181  133.7688  153.0355 H   0  0  0  0  0  0  0  0  0  0  0  0
  150.1925  134.2481  155.8299 H   0  0  0  0  0  0  0  0  0  0  0  0
  151.0419  134.4313  154.3064 H   0  0  0  0  0  0  0  0  0  0  0  0
  150.5061  136.7901  156.4030 H   0  0  0  0  0  0  0  0  0  0  0  0
  151.5760  136.6013  155.0382 H   0  0  0  0  0  0  0  0  0  0  0  0
  149.3998  138.7254  155.3171 H   0  0  0  0  0  0  0  0  0  0  0  0
  149.8382  137.5642  153.1819 H   0  0  0  0  0  0  0  0  0  0  0  0
  152.0950  138.7485  156.0703 H   0  0  0  0  0  0  0  0  0  0  0  0
  152.1440  139.4998  154.4981 H   0  0  0  0  0  0  0  0  0  0  0  0
  149.5459  141.3578  154.5797 H   0  0  0  0  0  0  0  0  0  0  0  0
  150.6232  143.7549  158.8941 H   0  0  0  0  0  0  0  0  0  0  0  0
  152.1180  142.4167  161.7120 H   0  0  0  0  0  0  0  0  0  0  0  0
  151.8330  143.9579  160.9065 H   0  0  0  0  0  0  0  0  0  0  0  0
  153.4494  143.2595  160.9056 H   0  0  0  0  0  0  0  0  0  0  0  0
  154.1227  139.5021  159.8751 H   0  0  0  0  0  0  0  0  0  0  0  0
  153.3117  140.3193  161.2070 H   0  0  0  0  0  0  0  0  0  0  0  0
  154.6098  141.1359  160.3220 H   0  0  0  0  0  0  0  0  0  0  0  0
  152.9614  139.4242  157.8360 H   0  0  0  0  0  0  0  0  0  0  0  0
  148.1644  135.9542  156.2581 H   0  0  0  0  0  0  0  0  0  0  0  0
  147.8475  137.1147  154.9846 H   0  0  0  0  0  0  0  0  0  0  0  0
  147.2093  135.3076  153.4174 H   0  0  0  0  0  0  0  0  0  0  0  0
  146.2307  135.2622  154.8491 H   0  0  0  0  0  0  0  0  0  0  0  0
  149.5881  136.1545  153.7114 H   0  0  0  0  0  0  0  0  0  0  0  0
  149.3922  143.2014  156.3584 H   0  0  0  0  0  0  0  0  0  0  0  0
  1  2  1  0  0  0  0
  1 25  1  0  0  0  0
  1 26  1  0  0  0  0
  1 27  1  0  0  0  0
  2  3  2  0  0  0  0
  2  4  1  0  0  0  0
  4 24  1  0  0  0  0
  4  5  1  0  0  0  0
  5  6  1  0  0  0  0
  5 28  1  0  0  0  0
  5 29  1  0  0  0  0
  6  7  1  0  0  0  0
  6 30  1  0  0  0  0
  6 31  1  0  0  0  0
  7  8  1  0  0  0  0
  7 23  1  0  0  0  0
  7 51  1  0  0  0  0
  8  9  1  0  0  0  0
  8 32  1  0  0  0  0
  8 33  1  0  0  0  0
  9 10  1  0  0  0  0
  9 11  1  0  0  0  0
  9 34  1  0  0  0  0
 10 35  1  0  0  0  0
 11 12  1  0  0  0  0
 11 36  1  0  0  0  0
 11 37  1  0  0  0  0
 12 22  1  0  0  0  0
 12 13  1  0  0  0  0
 13 14  2  0  0  0  0
 13 38  1  0  0  0  0
 14 15  1  0  0  0  0
 14 52  1  0  0  0  0
 15 22  2  0  0  0  0
 15 16  1  0  0  0  0
 16 17  2  0  0  0  0
 16 39  1  0  0  0  0
 17 18  1  0  0  0  0
 17 19  1  0  0  0  0
 18 40  1  0  0  0  0
 18 41  1  0  0  0  0
 18 42  1  0  0  0  0
 19 20  1  0  0  0  0
 19 21  2  0  0  0  0
 20 43  1  0  0  0  0
 20 44  1  0  0  0  0
 20 45  1  0  0  0  0
 21 22  1  0  0  0  0
 21 46  1  0  0  0  0
 23 24  1  0  0  0  0
 23 47  1  0  0  0  0
 23 48  1  0  0  0  0
 24 49  1  0  0  0  0
 24 50  1  0  0  0  0
M  CHG  1   7   1
M  CHG  1  14   1
M  END
> <s_m_source_file>
AV-unprocessed.smi

> <i_m_source_file_index>
1633

> <i_lp_mmshare_version>
43012

> <i_f3d_flags>
0

> <s_epik_input>
W0NIM11DKD1PKU4xW0NIMl1bQ0gyXU4oW0NIMl1bQ0gyXTEpW0NIMl1bQ0BIXShbT0hdKVtDSDJdbihbY0hdbjIpYyhjMjMpW2NIXWMoW0NIM10pYyhbY0hdMylbQ0gzXQ==

> <s_epik_cmdline>
J2VwaWtfcHl0aG9uJywgJy1waCcsICc3LjAnLCAnLXRuJywgJzgnLCAnLW1hJywgJzIwMCcsICctbWV0YWxfYmluZGluZycsICctaW1hZScsICc8aW5maWxlLm1hZT4nLCAnLW9tYWUnLCAnPG91dGZpbGUubWFlPic=

> <r_epik_Ionization_Penalty>
1.18448

> <r_epik_Ionization_Penalty_Charging>
1.18447

> <r_epik_Ionization_Penalty_Neutral>
4.53746e-06

> <r_epik_State_Penalty>
1.28566

> <r_epik_Charging_Adjusted_Penalty>
2.47013

> <i_epik_Tot_Q>
2

> <i_epik_Tot_abs_Q>
2

> <r_epik_Metal_State_Penalty>
5.30076

> <b_epik_Metal_Only>
0

> <s_lp_Force_Field>
OPLS_2005

> <r_lp_Energy>
52.9318

> <b_lp_Chiralities_Consistent>
1

> <s_lp_Variant>
AV-unprocessed.smi:1633-3

> <Gold.Version>
5.8.1

> <Gold.Id.Protein>
6NUR|6NUR_protein|mol2

> <Gold.PLP.Fitness>
56.9288

> <Gold.PLP.PLP>
-43.6720

> <Gold.PLP.part.hbond>
-4.2036

> <Gold.PLP.part.metal>
0.0000

> <Gold.PLP.part.buried>
-4.7546

> <Gold.PLP.part.nonpolar>
-34.8503

> <Gold.PLP.part.repulsive>
0.1061

> <Gold.PLP.ligand.clash>
0.0000

> <Gold.PLP.ligand.torsion>
0.8875

> <Gold.PLP.Chemscore.Hbond>
5.0000

> <Gold.PLP.Chemscore.CHOScore>
0.0000

> <Gold.PLP.Chemscore.Metal>
0.0000

> <Gold.Chemscore.Hbonds>
donor molecule, donor type, donor heavy atom, donor atom, acceptor molecule, acceptor atom, score
      L1  H     7    51       P1  7948  2.00
      L1  H    10    35       P1  7948  0.99
      L1  H    14    52       P1  8028  2.00

> <Gold.PLP.Chemscore.Internal.Correction>
0.0318

> <Gold.Rescore>
     Score         DG    S(hbond)    S(metal)    S(lipo)     H(rot)  DE(clash)    DE(int)     intcor
     20.34     -21.22       2.90        0.00     100.36       2.22       0.09       0.79       ----

> <Gold.Chemscore.Fitness>
20.3371

> <Gold.Chemscore.DG>
-21.2157

> <Gold.Chemscore.ZeroCoef>
-5.4800

> <Gold.Chemscore.Hbond>
2.8954

> <Gold.Chemscore.Metal>
0.0000

> <Gold.Chemscore.Lipo>
100.3636

> <Gold.Chemscore.Internal_Hbond>
0.0000

> <Gold.Chemscore.DEClash>
0.0853

> <Gold.Chemscore.DEInternal>
0.7933

> <Gold.Chemscore.Rot>
2.2178

> <Gold.Chemscore.Internal.Correction>
   9.000000E+99

> <Gold.Chemscore.Hbonds>
donor molecule, donor type, donor heavy atom, donor atom, acceptor molecule, acceptor atom, score
      L1  H     7    51       P1  7948  0.50
      L1  H    10    35       P1  7948  0.46
      L1  H    14    52       P1  8028  0.98

> <Gold.Chemscore.Hbond.Weighted>
-9.6707

> <Gold.Chemscore.Metal.Weighted>
-0.0000

> <Gold.Chemscore.Lipo.Weighted>
-11.7425

> <Gold.Chemscore.Internal_Hbond.Weighted>
0.0000

> <Gold.Chemscore.DEClash.Weighted>
0.0853

> <Gold.Chemscore.DEInternal.Weighted>
0.7933

> <Gold.Chemscore.Rot.Weighted>
5.6775

> <Gold.Chemscore.Internal.Correction.Weighted>
   9.000000E+99

> <Gold.Protein.RotatedTorsions>
[ 6907 6896 6895 6894 ] final   65.75 input  -60.11 | X-H torsion
[ 7974 7965 7964 7962 ] final  104.11 input  175.53 | X-H torsion
[ 8008 7997 7996 7995 ] final   70.00 input   59.86 | X-H torsion
[ 10167 10162 10161 10158 ] final  131.50 input  -65.29 | X-H torsion
[ 10718 10713 10712 10709 ] final  -16.51 input   66.30 | X-H torsion
[ 10763 10752 10751 10750 ] final  155.99 input  -60.55 | X-H torsion
[ 11005 11000 10999 10996 ] final  -50.24 input  -57.11 | X-H torsion

> <Gold.Protein.ActiveResidues>
 VAL166  LYS551  ARG553  GLY616  TRP617  ASP618  TYR619  PRO620  LYS621  CYS622 
 ASP623  PHE694  ASN695  SER759  ASP760  ASP761  ALA762  ILE779  LEU786  VAL792 
 PHE793  MET794  SER795  GLU796  ALA797  LYS798  CYS799  TRP800  GLU811  SER814 

> <Gold.Protein.RotatedAtoms>
  152.4430  134.5551  159.9877 H   0  0  0  0  0  0  0  0  0  0  0  0  # atno 6907 bound_to 6896
  151.5643  133.3393  159.2985 H   0  0  0  0  0  0  0  0  0  0  0  0  # atno 6908 bound_to 6896
  150.8341  134.7639  159.6942 H   0  0  0  0  0  0  0  0  0  0  0  0  # atno 6909 bound_to 6896
  145.3371  139.2471  143.3629 H   0  0  0  0  0  0  0  0  0  0  0  0  # atno 7974 bound_to 7965
  155.7321  140.3491  155.5064 H   0  0  0  0  0  0  0  0  0  0  0  0  # atno 8008 bound_to 7997
  155.9172  140.1061  157.1256 H   0  0  0  0  0  0  0  0  0  0  0  0  # atno 8009 bound_to 7997
  154.4064  140.1256  156.4620 H   0  0  0  0  0  0  0  0  0  0  0  0  # atno 8010 bound_to 7997
  139.5381  144.6703  151.4716 H   0  0  0  0  0  0  0  0  0  0  0  0  # atno 10167 bound_to 10162
  156.5866  130.4788  149.6297 H   0  0  0  0  0  0  0  0  0  0  0  0  # atno 10718 bound_to 10713
  154.1771  135.2801  155.3063 H   0  0  0  0  0  0  0  0  0  0  0  0  # atno 10763 bound_to 10752
  154.6031  135.5523  153.7398 H   0  0  0  0  0  0  0  0  0  0  0  0  # atno 10764 bound_to 10752
  153.0148  135.6396  154.1911 H   0  0  0  0  0  0  0  0  0  0  0  0  # atno 10765 bound_to 10752
  141.0805  133.6654  156.3703 H   0  0  0  0  0  0  0  0  0  0  0  0  # atno 11005 bound_to 11000
  146.3022  140.3961  142.8700 LP  0  0  0  0  0  0  0  0  0  0  0  0  # atno 17320 bound_to 7965
  144.8819  140.7411  143.5981 LP  0  0  0  0  0  0  0  0  0  0  0  0  # atno 17321 bound_to 7965
  140.6598  143.8522  150.6875 LP  0  0  0  0  0  0  0  0  0  0  0  0  # atno 17342 bound_to 10162
  140.1913  143.4034  152.1861 LP  0  0  0  0  0  0  0  0  0  0  0  0  # atno 17343 bound_to 10162
  156.2586  130.6949  151.1710 LP  0  0  0  0  0  0  0  0  0  0  0  0  # atno 17370 bound_to 10713
  157.7314  131.0608  150.5680 LP  0  0  0  0  0  0  0  0  0  0  0  0  # atno 17371 bound_to 10713
  140.5479  134.6056  157.5399 LP  0  0  0  0  0  0  0  0  0  0  0  0  # atno 17394 bound_to 11000
  139.9618  134.7439  156.0220 LP  0  0  0  0  0  0  0  0  0  0  0  0  # atno 17395 bound_to 11000

$$$$
