AV-unprocessed.smi:1830|AV-procd|sdf|7434|dock10
  -GOLD-   22720 9123D 1   1.00000     0.00000
 Structure written by MMmdl.
 53 56  0  0  0  0  0  0  0  0  2 V2000
  147.8203  132.5269  158.9503 O   0  0  0  0  0  0  0  0  0  0  0  0
  148.0568  133.5408  158.2938 C   0  0  0  0  0  0  0  0  0  0  0  0
  148.3444  133.5247  156.9848 N   0  0  0  0  0  0  0  0  0  0  0  0
  148.4370  132.3245  156.1605 C   0  0  0  0  0  0  0  0  0  0  0  0
  147.6616  132.4814  154.8404 C   0  0  2  0  0  0  0  0  0  0  0  0
  148.2334  131.5780  153.7304 C   0  0  0  0  0  0  0  0  0  0  0  0
  147.5766  131.8199  152.4242 N   0  3  1  0  0  0  0  0  0  0  0  0
  146.2647  131.1685  152.2148 C   0  0  0  0  0  0  0  0  0  0  0  0
  145.4717  132.0876  151.2719 C   0  0  0  0  0  0  0  0  0  0  0  0
  146.4262  133.2330  150.9183 C   0  0  0  0  0  0  0  0  0  0  0  0
  147.4385  133.2462  152.0646 C   0  0  1  0  0  0  0  0  0  0  0  0
  146.9505  134.0852  153.2665 C   0  0  0  0  0  0  0  0  0  0  0  0
  147.7640  133.8313  154.4019 O   0  0  0  0  0  0  0  0  0  0  0  0
  148.0888  134.7921  158.7810 N   0  0  0  0  0  0  0  0  0  0  0  0
  147.8834  135.2232  160.1226 C   0  0  0  0  0  0  0  0  0  0  0  0
  147.5792  134.3092  161.1611 C   0  0  0  0  0  0  0  0  0  0  0  0
  147.4017  134.7868  162.4710 C   0  0  0  0  0  0  0  0  0  0  0  0
  147.5320  136.1666  162.6984 C   0  0  0  0  0  0  0  0  0  0  0  0
  147.8026  137.0517  161.7184 N   0  0  0  0  0  0  0  0  0  0  0  0
  147.9613  136.6081  160.4470 C   0  0  0  0  0  0  0  0  0  0  0  0
  148.2215  137.5841  159.4577 N   0  0  0  0  0  0  0  0  0  0  0  0
  147.2566  137.8299  158.3911 C   0  0  0  0  0  0  0  0  0  0  0  0
  148.0258  138.6228  157.3389 C   0  0  0  0  0  0  0  0  0  0  0  0
  149.4195  138.0082  157.4245 C   0  0  0  0  0  0  0  0  0  0  0  0
  149.5723  137.6566  158.9085 C   0  0  0  0  0  0  0  0  0  0  0  0
  148.5239  134.4068  156.5276 H   0  0  0  0  0  0  0  0  0  0  0  0
  149.4792  132.0621  155.9697 H   0  0  0  0  0  0  0  0  0  0  0  0
  148.0143  131.5017  156.7377 H   0  0  0  0  0  0  0  0  0  0  0  0
  146.6146  132.2309  155.0206 H   0  0  0  0  0  0  0  0  0  0  0  0
  149.2975  131.7856  153.6098 H   0  0  0  0  0  0  0  0  0  0  0  0
  148.1493  130.5240  153.9982 H   0  0  0  0  0  0  0  0  0  0  0  0
  146.4100  130.1759  151.7877 H   0  0  0  0  0  0  0  0  0  0  0  0
  145.7284  131.0484  153.1568 H   0  0  0  0  0  0  0  0  0  0  0  0
  145.1226  131.5634  150.3817 H   0  0  0  0  0  0  0  0  0  0  0  0
  144.5932  132.4772  151.7880 H   0  0  0  0  0  0  0  0  0  0  0  0
  146.9390  133.0013  149.9838 H   0  0  0  0  0  0  0  0  0  0  0  0
  145.9145  134.1868  150.7847 H   0  0  0  0  0  0  0  0  0  0  0  0
  148.4039  133.6287  151.7308 H   0  0  0  0  0  0  0  0  0  0  0  0
  147.0035  135.1473  153.0263 H   0  0  0  0  0  0  0  0  0  0  0  0
  145.9078  133.8726  153.5089 H   0  0  0  0  0  0  0  0  0  0  0  0
  148.3958  135.5101  158.1415 H   0  0  0  0  0  0  0  0  0  0  0  0
  147.4703  133.2519  160.9742 H   0  0  0  0  0  0  0  0  0  0  0  0
  147.1728  134.1108  163.2815 H   0  0  0  0  0  0  0  0  0  0  0  0
  147.4073  136.5726  163.6914 H   0  0  0  0  0  0  0  0  0  0  0  0
  146.9108  136.8916  157.9554 H   0  0  0  0  0  0  0  0  0  0  0  0
  146.3892  138.3786  158.7587 H   0  0  0  0  0  0  0  0  0  0  0  0
  147.5848  138.5496  156.3444 H   0  0  0  0  0  0  0  0  0  0  0  0
  148.0646  139.6767  157.6185 H   0  0  0  0  0  0  0  0  0  0  0  0
  149.4535  137.0963  156.8264 H   0  0  0  0  0  0  0  0  0  0  0  0
  150.2024  138.6757  157.0639 H   0  0  0  0  0  0  0  0  0  0  0  0
  150.1190  138.4480  159.4221 H   0  0  0  0  0  0  0  0  0  0  0  0
  150.1206  136.7226  159.0414 H   0  0  0  0  0  0  0  0  0  0  0  0
  148.1790  131.4179  151.7199 H   0  0  0  0  0  0  0  0  0  0  0  0
  1  2  2  0  0  0  0
  2  3  1  0  0  0  0
  2 14  1  0  0  0  0
  3  4  1  0  0  0  0
  3 26  1  0  0  0  0
  4  5  1  0  0  0  0
  4 27  1  0  0  0  0
  4 28  1  0  0  0  0
  5 13  1  0  0  0  0
  5  6  1  0  0  0  0
  5 29  1  0  0  0  0
  6  7  1  0  0  0  0
  6 30  1  0  0  0  0
  6 31  1  0  0  0  0
  7 11  1  0  0  0  0
  7  8  1  0  0  0  0
  7 53  1  0  0  0  0
  8  9  1  0  0  0  0
  8 32  1  0  0  0  0
  8 33  1  0  0  0  0
  9 10  1  0  0  0  0
  9 34  1  0  0  0  0
  9 35  1  0  0  0  0
 10 11  1  0  0  0  0
 10 36  1  0  0  0  0
 10 37  1  0  0  0  0
 11 12  1  0  0  0  0
 11 38  1  0  0  0  0
 12 13  1  0  0  0  0
 12 39  1  0  0  0  0
 12 40  1  0  0  0  0
 14 15  1  0  0  0  0
 14 41  1  0  0  0  0
 15 20  1  0  0  0  0
 15 16  2  0  0  0  0
 16 17  1  0  0  0  0
 16 42  1  0  0  0  0
 17 18  2  0  0  0  0
 17 43  1  0  0  0  0
 18 19  1  0  0  0  0
 18 44  1  0  0  0  0
 19 20  2  0  0  0  0
 20 21  1  0  0  0  0
 21 25  1  0  0  0  0
 21 22  1  0  0  0  0
 22 23  1  0  0  0  0
 22 45  1  0  0  0  0
 22 46  1  0  0  0  0
 23 24  1  0  0  0  0
 23 47  1  0  0  0  0
 23 48  1  0  0  0  0
 24 25  1  0  0  0  0
 24 49  1  0  0  0  0
 24 50  1  0  0  0  0
 25 51  1  0  0  0  0
 25 52  1  0  0  0  0
M  CHG  1   7   1
M  END
> <s_m_source_file>
AV-unprocessed.smi

> <i_m_source_file_index>
1830

> <i_lp_mmshare_version>
43012

> <i_f3d_flags>
0

> <s_epik_input>
W0NIMl0xW0NIMl1bQ0gyXVtDQEhdKE4xMilbQ0gyXU9bQ0BASF0oW0NIMl0yKVtDSDJdW05IXUMoPU8pW05IXWMzW2NIXVtjSF1bY0hdbmMzTjRbQ0gyXVtDSDJdW0NIMl1bQ0gyXTQ=

> <s_epik_cmdline>
J2VwaWtfcHl0aG9uJywgJy1waCcsICc3LjAnLCAnLXRuJywgJzgnLCAnLW1hJywgJzIwMCcsICctbWV0YWxfYmluZGluZycsICctaW1hZScsICc8aW5maWxlLm1hZT4nLCAnLW9tYWUnLCAnPG91dGZpbGUubWFlPic=

> <r_lp_tautomer_probability>
1

> <r_epik_Ionization_Penalty>
0.193547

> <r_epik_Ionization_Penalty_Charging>
0.10673

> <r_epik_Ionization_Penalty_Neutral>
0.0868166

> <r_epik_State_Penalty>
0.173595

> <r_epik_Charging_Adjusted_Penalty>
0.280326

> <i_epik_Tot_Q>
1

> <i_epik_Tot_abs_Q>
1

> <r_epik_Metal_State_Penalty>
0.164683

> <b_epik_Metal_Only>
0

> <s_lp_Force_Field>
OPLS_2005

> <r_lp_Energy>
64.5086

> <b_lp_Chiralities_Consistent>
1

> <s_lp_Variant>
AV-unprocessed.smi:1830-3

> <Gold.Version>
5.8.1

> <Gold.Id.Protein>
6NUR|6NUR_protein|mol2

> <Gold.PLP.Fitness>
42.8081

> <Gold.PLP.PLP>
-36.9502

> <Gold.PLP.part.hbond>
-4.3325

> <Gold.PLP.part.metal>
0.0000

> <Gold.PLP.part.buried>
-5.6333

> <Gold.PLP.part.nonpolar>
-27.6769

> <Gold.PLP.part.repulsive>
0.1714

> <Gold.PLP.ligand.clash>
0.0000

> <Gold.PLP.ligand.torsion>
0.5289

> <Gold.PLP.Chemscore.Hbond>
2.2002

> <Gold.PLP.Chemscore.CHOScore>
0.0000

> <Gold.PLP.Chemscore.Metal>
0.0000

> <Gold.Chemscore.Hbonds>
donor molecule, donor type, donor heavy atom, donor atom, acceptor molecule, acceptor atom, score
      L1  H     7    53       P1 10747  1.00
      P1  H  6931  6943       L1    19  1.00
      P1  H  6934  6947       L1    19  0.20

> <Gold.PLP.Chemscore.Internal.Correction>
0.3151

> <Gold.Rescore>
     Score         DG    S(hbond)    S(metal)    S(lipo)     H(rot)  DE(clash)    DE(int)     intcor
     16.18     -18.08       1.94        0.00      83.22       1.41       0.06       1.84       ----

> <Gold.Chemscore.Fitness>
16.1797

> <Gold.Chemscore.DG>
-18.0803

> <Gold.Chemscore.ZeroCoef>
-5.4800

> <Gold.Chemscore.Hbond>
1.9357

> <Gold.Chemscore.Metal>
0.0000

> <Gold.Chemscore.Lipo>
83.2154

> <Gold.Chemscore.Internal_Hbond>
0.0000

> <Gold.Chemscore.DEClash>
0.0636

> <Gold.Chemscore.DEInternal>
1.8370

> <Gold.Chemscore.Rot>
1.4067

> <Gold.Chemscore.Internal.Correction>
   9.000000E+99

> <Gold.Chemscore.Hbonds>
donor molecule, donor type, donor heavy atom, donor atom, acceptor molecule, acceptor atom, score
      L1  H     7    53       P1 10747  1.00
      P1  H  6931  6943       L1    19  0.49
      P1  H  6934  6947       L1    19  0.01

> <Gold.Chemscore.Hbond.Weighted>
-6.4652

> <Gold.Chemscore.Metal.Weighted>
-0.0000

> <Gold.Chemscore.Lipo.Weighted>
-9.7362

> <Gold.Chemscore.Internal_Hbond.Weighted>
0.0000

> <Gold.Chemscore.DEClash.Weighted>
0.0636

> <Gold.Chemscore.DEInternal.Weighted>
1.8370

> <Gold.Chemscore.Rot.Weighted>
3.6011

> <Gold.Chemscore.Internal.Correction.Weighted>
   9.000000E+99

> <Gold.Protein.RotatedTorsions>
[ 6907 6896 6895 6894 ] final  123.22 input  -60.11 | X-H torsion
[ 7974 7965 7964 7962 ] final   98.46 input  175.53 | X-H torsion
[ 8008 7997 7996 7995 ] final -171.29 input   59.86 | X-H torsion
[ 10167 10162 10161 10158 ] final  -62.09 input  -65.29 | X-H torsion
[ 10718 10713 10712 10709 ] final   40.24 input   66.30 | X-H torsion
[ 10763 10752 10751 10750 ] final  -79.12 input  -60.55 | X-H torsion
[ 11005 11000 10999 10996 ] final -149.18 input  -57.11 | X-H torsion

> <Gold.Protein.ActiveResidues>
 VAL166  LYS551  ARG553  GLY616  TRP617  ASP618  TYR619  PRO620  LYS621  CYS622 
 ASP623  PHE694  ASN695  SER759  ASP760  ASP761  ALA762  ILE779  LEU786  VAL792 
 PHE793  MET794  SER795  GLU796  ALA797  LYS798  CYS799  TRP800  GLU811  SER814 

> <Gold.Protein.RotatedAtoms>
  152.4179  133.7068  159.6455 H   0  0  0  0  0  0  0  0  0  0  0  0  # atno 6907 bound_to 6896
  150.8056  133.8506  159.3213 H   0  0  0  0  0  0  0  0  0  0  0  0  # atno 6908 bound_to 6896
  151.6231  135.1032  160.0157 H   0  0  0  0  0  0  0  0  0  0  0  0  # atno 6909 bound_to 6896
  145.4119  139.2332  143.3243 H   0  0  0  0  0  0  0  0  0  0  0  0  # atno 7974 bound_to 7965
  155.9296  140.1089  157.1143 H   0  0  0  0  0  0  0  0  0  0  0  0  # atno 8008 bound_to 7997
  154.4068  140.1240  156.4851 H   0  0  0  0  0  0  0  0  0  0  0  0  # atno 8009 bound_to 7997
  155.7096  140.3471  155.4970 H   0  0  0  0  0  0  0  0  0  0  0  0  # atno 8010 bound_to 7997
  140.5963  143.2351  151.6029 H   0  0  0  0  0  0  0  0  0  0  0  0  # atno 10167 bound_to 10162
  157.3799  130.7747  149.7184 H   0  0  0  0  0  0  0  0  0  0  0  0  # atno 10718 bound_to 10713
  154.5346  135.5706  153.6788 H   0  0  0  0  0  0  0  0  0  0  0  0  # atno 10763 bound_to 10752
  152.9948  135.6213  154.2583 H   0  0  0  0  0  0  0  0  0  0  0  0  # atno 10764 bound_to 10752
  154.2511  135.2859  155.2796 H   0  0  0  0  0  0  0  0  0  0  0  0  # atno 10765 bound_to 10752
  140.7535  134.3379  157.5120 H   0  0  0  0  0  0  0  0  0  0  0  0  # atno 11005 bound_to 11000
  146.2700  140.4831  142.8818 LP  0  0  0  0  0  0  0  0  0  0  0  0  # atno 17320 bound_to 7965
  144.8303  140.6696  143.6295 LP  0  0  0  0  0  0  0  0  0  0  0  0  # atno 17321 bound_to 7965
  139.5260  144.3058  152.1035 LP  0  0  0  0  0  0  0  0  0  0  0  0  # atno 17342 bound_to 10162
  140.2231  144.4446  150.6333 LP  0  0  0  0  0  0  0  0  0  0  0  0  # atno 17343 bound_to 10162
  155.9773  130.4064  150.3719 LP  0  0  0  0  0  0  0  0  0  0  0  0  # atno 17370 bound_to 10713
  157.1821  131.0395  151.2743 LP  0  0  0  0  0  0  0  0  0  0  0  0  # atno 17371 bound_to 10713
  139.8783  134.9157  156.3137 LP  0  0  0  0  0  0  0  0  0  0  0  0  # atno 17394 bound_to 11000
  140.9729  133.7316  156.0560 LP  0  0  0  0  0  0  0  0  0  0  0  0  # atno 17395 bound_to 11000

$$$$
