AV-unprocessed.smi:255|AV-procd|sdf|1954|dock7
  -GOLD-   2262021 93D 1   1.00000     0.00000
 Structure written by MMmdl.
 44 47  0  0  0  0  0  0  0  0  1 V2000
  152.3418  144.3481  159.7967 O   0  0  0  0  0  0  0  0  0  0  0  0
  151.8336  143.0675  159.4891 C   0  0  0  0  0  0  0  0  0  0  0  0
  152.9865  142.0483  159.3931 C   0  0  1  0  0  0  0  0  0  0  0  0
  153.7013  141.8164  160.7281 C   0  0  0  0  0  0  0  0  0  0  0  0
  154.3589  140.4544  160.5268 C   0  0  2  0  0  0  0  0  0  0  0  0
  155.5109  140.6084  159.8724 F   0  0  0  0  0  0  0  0  0  0  0  0
  153.3683  139.7009  159.6334 C   0  0  0  0  0  0  0  0  0  0  0  0
  152.5387  140.7154  158.9892 N   0  0  0  0  0  0  0  0  0  0  0  0
  152.1383  140.4546  157.7164 C   0  0  0  0  0  0  0  0  0  0  0  0
  152.8365  139.5728  156.9521 N   0  0  0  0  0  0  0  0  0  0  0  0
  152.4509  139.3053  155.7014 C   0  0  0  0  0  0  0  0  0  0  0  0
  151.4125  139.7993  155.0255 N   0  0  0  0  0  0  0  0  0  0  0  0
  150.7048  140.6839  155.7841 C   0  0  0  0  0  0  0  0  0  0  0  0
  150.9969  141.0680  157.1239 C   0  0  0  0  0  0  0  0  0  0  0  0
  150.0649  142.0037  157.5584 N   0  0  0  0  0  0  0  0  0  0  0  0
  149.2656  142.1576  156.5385 C   0  0  0  0  0  0  0  0  0  0  0  0
  149.5701  141.3952  155.4336 N   0  0  0  0  0  0  0  0  0  0  0  0
  148.8544  141.3675  154.1666 C   0  0  0  0  0  0  0  0  0  0  0  0
  148.1019  140.0401  153.9039 C   0  0  2  0  0  0  0  0  0  0  0  0
  147.6061  140.0467  152.5777 O   0  0  0  0  0  0  0  0  0  0  0  0
  146.9346  139.8303  154.8713 C   0  0  0  0  0  0  0  0  0  0  0  0
  147.4080  138.6919  155.7669 C   0  0  0  0  0  0  0  0  0  0  0  0
  148.1729  137.8962  154.8799 O   0  0  0  0  0  0  0  0  0  0  0  0
  148.9711  138.7833  154.1102 C   0  0  0  0  0  0  0  0  0  0  0  0
  153.7216  142.3967  158.6655 H   0  0  0  0  0  0  0  0  0  0  0  0
  154.5778  139.9355  161.4602 H   0  0  0  0  0  0  0  0  0  0  0  0
  152.4811  144.8173  158.9883 H   0  0  0  0  0  0  0  0  0  0  0  0
  151.1152  142.7713  160.2540 H   0  0  0  0  0  0  0  0  0  0  0  0
  151.2863  143.1398  158.5497 H   0  0  0  0  0  0  0  0  0  0  0  0
  154.4138  142.6043  160.9739 H   0  0  0  0  0  0  0  0  0  0  0  0
  152.9756  141.7536  161.5404 H   0  0  0  0  0  0  0  0  0  0  0  0
  153.8862  139.0623  158.9157 H   0  0  0  0  0  0  0  0  0  0  0  0
  152.7225  139.0665  160.2414 H   0  0  0  0  0  0  0  0  0  0  0  0
  153.0612  138.5930  155.1659 H   0  0  0  0  0  0  0  0  0  0  0  0
  148.4263  142.8372  156.5666 H   0  0  0  0  0  0  0  0  0  0  0  0
  148.1538  142.2036  154.1546 H   0  0  0  0  0  0  0  0  0  0  0  0
  149.5701  141.5598  153.3661 H   0  0  0  0  0  0  0  0  0  0  0  0
  148.3356  140.1492  151.9857 H   0  0  0  0  0  0  0  0  0  0  0  0
  146.6758  140.7232  155.4413 H   0  0  0  0  0  0  0  0  0  0  0  0
  146.0360  139.5123  154.3394 H   0  0  0  0  0  0  0  0  0  0  0  0
  148.0441  139.0633  156.5719 H   0  0  0  0  0  0  0  0  0  0  0  0
  146.5839  138.1299  156.2068 H   0  0  0  0  0  0  0  0  0  0  0  0
  149.3006  138.3202  153.1792 H   0  0  0  0  0  0  0  0  0  0  0  0
  149.8611  139.0127  154.6968 H   0  0  0  0  0  0  0  0  0  0  0  0
  1  2  1  0  0  0  0
  1 27  1  0  0  0  0
  2  3  1  0  0  0  0
  2 28  1  0  0  0  0
  2 29  1  0  0  0  0
  3 25  1  0  0  0  0
  3  8  1  0  0  0  0
  3  4  1  0  0  0  0
  4  5  1  0  0  0  0
  4 30  1  0  0  0  0
  4 31  1  0  0  0  0
  5 26  1  0  0  0  0
  5  6  1  0  0  0  0
  5  7  1  0  0  0  0
  7  8  1  0  0  0  0
  7 32  1  0  0  0  0
  7 33  1  0  0  0  0
  8  9  1  0  0  0  0
  9 14  1  0  0  0  0
  9 10  2  0  0  0  0
 10 11  1  0  0  0  0
 11 12  2  0  0  0  0
 11 34  1  0  0  0  0
 12 13  1  0  0  0  0
 13 17  1  0  0  0  0
 13 14  2  0  0  0  0
 14 15  1  0  0  0  0
 15 16  2  0  0  0  0
 16 17  1  0  0  0  0
 16 35  1  0  0  0  0
 17 18  1  0  0  0  0
 18 19  1  0  0  0  0
 18 36  1  0  0  0  0
 18 37  1  0  0  0  0
 19 24  1  0  0  0  0
 19 20  1  0  0  0  0
 19 21  1  0  0  0  0
 20 38  1  0  0  0  0
 21 22  1  0  0  0  0
 21 39  1  0  0  0  0
 21 40  1  0  0  0  0
 22 23  1  0  0  0  0
 22 41  1  0  0  0  0
 22 42  1  0  0  0  0
 23 24  1  0  0  0  0
 24 43  1  0  0  0  0
 24 44  1  0  0  0  0
M  END
> <s_m_source_file>
AV-unprocessed.smi

> <i_m_source_file_index>
255

> <i_lp_mmshare_version>
43012

> <i_f3d_flags>
0

> <s_epik_input>
W09IXVtDSDJdW0NAQEhdMVtDSDJdW0NASF0oRilbQ0gyXU4xYyhuW2NIXW4yKWMoYzIzKW5bY0hdbjNbQ0gyXVtDQEBdNChbT0hdKVtDSDJdW0NIMl1PW0NIMl00

> <s_epik_cmdline>
J2VwaWtfcHl0aG9uJywgJy1waCcsICc3LjAnLCAnLXRuJywgJzgnLCAnLW1hJywgJzIwMCcsICctbWV0YWxfYmluZGluZycsICctaW1hZScsICc8aW5maWxlLm1hZT4nLCAnLW9tYWUnLCAnPG91dGZpbGUubWFlPic=

> <r_lp_tautomer_probability>
1

> <r_epik_Ionization_Penalty>
0.0058098

> <r_epik_Ionization_Penalty_Charging>
0

> <r_epik_Ionization_Penalty_Neutral>
0.0058098

> <r_epik_State_Penalty>
0.00411166

> <r_epik_Charging_Adjusted_Penalty>
0.00411166

> <i_epik_Tot_Q>
0

> <i_epik_Tot_abs_Q>
0

> <r_epik_Metal_State_Penalty>
-0

> <b_epik_Metal_Only>
0

> <s_lp_Force_Field>
OPLS_2005

> <r_lp_Energy>
48.4918

> <b_lp_Chiralities_Consistent>
1

> <s_lp_Variant>
AV-unprocessed.smi:255-6

> <Gold.Version>
5.8.1

> <Gold.Id.Protein>
6NUR|6NUR_protein|mol2

> <Gold.PLP.Fitness>
50.4343

> <Gold.PLP.PLP>
-40.1070

> <Gold.PLP.part.hbond>
-2.8155

> <Gold.PLP.part.metal>
0.0000

> <Gold.PLP.part.buried>
-1.0918

> <Gold.PLP.part.nonpolar>
-35.9168

> <Gold.PLP.part.repulsive>
0.2456

> <Gold.PLP.ligand.clash>
0.0000

> <Gold.PLP.ligand.torsion>
0.4828

> <Gold.PLP.Chemscore.Hbond>
3.0000

> <Gold.PLP.Chemscore.CHOScore>
0.6481

> <Gold.PLP.Chemscore.Metal>
0.0000

> <Gold.Chemscore.Hbonds>
donor molecule, donor type, donor heavy atom, donor atom, acceptor molecule, acceptor atom, score
      L1  H    20    38       P1  7957  0.93
      P1  H  7989  7998       L1    12  0.95
      P1  H  7997  8009       L1    10  1.00
      L1  C    16    35       P1  8028  0.66

> <Gold.PLP.Chemscore.Internal.Correction>
0.3486

> <Gold.Rescore>
     Score         DG    S(hbond)    S(metal)    S(lipo)     H(rot)  DE(clash)    DE(int)     intcor
     10.08     -13.18       2.35        0.00      71.46       3.33       0.14       2.97       ----

> <Gold.Chemscore.Fitness>
10.0759

> <Gold.Chemscore.DG>
-13.1827

> <Gold.Chemscore.ZeroCoef>
-5.4800

> <Gold.Chemscore.Hbond>
2.3532

> <Gold.Chemscore.Metal>
0.0000

> <Gold.Chemscore.Lipo>
71.4619

> <Gold.Chemscore.Internal_Hbond>
0.0000

> <Gold.Chemscore.DEClash>
0.1387

> <Gold.Chemscore.DEInternal>
2.9681

> <Gold.Chemscore.Rot>
3.3273

> <Gold.Chemscore.Internal.Correction>
   9.000000E+99

> <Gold.Chemscore.Hbonds>
donor molecule, donor type, donor heavy atom, donor atom, acceptor molecule, acceptor atom, score
      L1  H    20    38       P1  7957  0.89
      P1  H  7989  7998       L1    12  0.21
      P1  H  7997  8009       L1    10  0.35

> <Gold.Chemscore.Hbond.Weighted>
-7.8596

> <Gold.Chemscore.Metal.Weighted>
-0.0000

> <Gold.Chemscore.Lipo.Weighted>
-8.3610

> <Gold.Chemscore.Internal_Hbond.Weighted>
0.0000

> <Gold.Chemscore.DEClash.Weighted>
0.1387

> <Gold.Chemscore.DEInternal.Weighted>
2.9681

> <Gold.Chemscore.Rot.Weighted>
8.5179

> <Gold.Chemscore.Internal.Correction.Weighted>
   9.000000E+99

> <Gold.Protein.RotatedTorsions>
[ 6907 6896 6895 6894 ] final  119.23 input  -60.11 | X-H torsion
[ 7974 7965 7964 7962 ] final  -32.02 input  175.53 | X-H torsion
[ 8008 7997 7996 7995 ] final  170.70 input   59.86 | X-H torsion
[ 10167 10162 10161 10158 ] final -170.80 input  -65.29 | X-H torsion
[ 10718 10713 10712 10709 ] final   96.41 input   66.30 | X-H torsion
[ 10763 10752 10751 10750 ] final   38.81 input  -60.55 | X-H torsion
[ 11005 11000 10999 10996 ] final   -5.49 input  -57.11 | X-H torsion

> <Gold.Protein.ActiveResidues>
 VAL166  LYS551  ARG553  GLY616  TRP617  ASP618  TYR619  PRO620  LYS621  CYS622 
 ASP623  PHE694  ASN695  SER759  ASP760  ASP761  ALA762  ILE779  LEU786  VAL792 
 PHE793  MET794  SER795  GLU796  ALA797  LYS798  CYS799  TRP800  GLU811  SER814 

> <Gold.Protein.RotatedAtoms>
  152.4486  133.7585  159.6733 H   0  0  0  0  0  0  0  0  0  0  0  0  # atno 6907 bound_to 6896
  150.8392  133.7953  159.3073 H   0  0  0  0  0  0  0  0  0  0  0  0  # atno 6908 bound_to 6896
  151.5583  135.1068  160.0018 H   0  0  0  0  0  0  0  0  0  0  0  0  # atno 6909 bound_to 6896
  146.1022  140.5741  142.8816 H   0  0  0  0  0  0  0  0  0  0  0  0  # atno 7974 bound_to 7965
  156.1341  140.1531  156.9021 H   0  0  0  0  0  0  0  0  0  0  0  0  # atno 8008 bound_to 7997
  154.4933  140.0845  156.7681 H   0  0  0  0  0  0  0  0  0  0  0  0  # atno 8009 bound_to 7997
  155.4201  140.3422  155.4273 H   0  0  0  0  0  0  0  0  0  0  0  0  # atno 8010 bound_to 7997
  139.5840  144.1359  152.1552 H   0  0  0  0  0  0  0  0  0  0  0  0  # atno 10167 bound_to 10162
  157.6927  131.0577  150.4487 H   0  0  0  0  0  0  0  0  0  0  0  0  # atno 10718 bound_to 10713
  152.9988  135.6239  154.2364 H   0  0  0  0  0  0  0  0  0  0  0  0  # atno 10763 bound_to 10752
  154.2105  135.2800  155.2962 H   0  0  0  0  0  0  0  0  0  0  0  0  # atno 10764 bound_to 10752
  154.5610  135.5705  153.7066 H   0  0  0  0  0  0  0  0  0  0  0  0  # atno 10765 bound_to 10752
  140.6918  133.9065  155.8623 H   0  0  0  0  0  0  0  0  0  0  0  0  # atno 11005 bound_to 11000
  144.7442  140.5023  143.6848 LP  0  0  0  0  0  0  0  0  0  0  0  0  # atno 17320 bound_to 7965
  145.5832  139.1490  143.3224 LP  0  0  0  0  0  0  0  0  0  0  0  0  # atno 17321 bound_to 7965
  140.0919  144.5614  150.7049 LP  0  0  0  0  0  0  0  0  0  0  0  0  # atno 17342 bound_to 10162
  140.7115  143.2508  151.4567 LP  0  0  0  0  0  0  0  0  0  0  0  0  # atno 17343 bound_to 10162
  156.4840  130.4080  149.6445 LP  0  0  0  0  0  0  0  0  0  0  0  0  # atno 17370 bound_to 10713
  156.3480  130.7417  151.2372 LP  0  0  0  0  0  0  0  0  0  0  0  0  # atno 17371 bound_to 10713
  141.0235  134.0855  157.4094 LP  0  0  0  0  0  0  0  0  0  0  0  0  # atno 17394 bound_to 11000
  139.8921  135.0123  156.6829 LP  0  0  0  0  0  0  0  0  0  0  0  0  # atno 17395 bound_to 11000

$$$$
