AV-unprocessed.smi:2206|AV-procd|sdf|8943|dock6
  -GOLD-   2272012163D 1   1.00000     0.00000
 Structure written by MMmdl.
 25 26  0  0  0  0  0  0  0  0  3 V2000
  151.8280  136.0889  155.8710 O   0  0  0  0  0  0  0  0  0  0  0  0
  150.9457  136.5250  155.0989 C   0  0  0  0  0  0  0  0  0  0  0  0
  149.7729  136.0960  155.0212 O   0  5  0  0  0  0  0  0  0  0  0  0
  151.3249  137.6906  154.1814 C   0  0  0  0  0  0  0  0  0  0  0  0
  150.3475  138.8121  154.4003 C   0  0  0  0  0  0  0  0  0  0  0  0
  149.0231  138.8401  154.0429 C   0  0  0  0  0  0  0  0  0  0  0  0
  148.2616  140.3369  154.4982 S   0  0  0  0  0  0  0  0  0  0  0  0
  149.7891  140.8925  155.1836 C   0  0  0  0  0  0  0  0  0  0  0  0
  149.9752  142.0887  155.7726 N   0  5  0  0  0  0  0  0  0  0  0  0
  150.8167  142.2613  156.8266 C   0  0  0  0  0  0  0  0  0  0  0  0
  151.5562  141.3729  157.2487 O   0  0  0  0  0  0  0  0  0  0  0  0
  150.8314  143.4673  157.4267 N   0  0  0  0  0  0  0  0  0  0  0  0
  151.6430  143.8568  158.5347 C   0  0  0  0  0  0  0  0  0  0  0  0
  151.5866  145.3048  158.9702 C   0  0  0  0  0  0  0  0  0  0  0  0
  152.8033  144.7869  158.2544 C   0  0  0  0  0  0  0  0  0  0  0  0
  150.7564  139.9762  155.0591 N   0  0  0  0  0  0  0  0  0  0  0  0
  152.3426  138.0177  154.3976 H   0  0  0  0  0  0  0  0  0  0  0  0
  151.3158  137.3509  153.1449 H   0  0  0  0  0  0  0  0  0  0  0  0
  148.4559  138.0750  153.5345 H   0  0  0  0  0  0  0  0  0  0  0  0
  150.2183  144.1746  157.0477 H   0  0  0  0  0  0  0  0  0  0  0  0
  151.8009  143.1247  159.3252 H   0  0  0  0  0  0  0  0  0  0  0  0
  150.9284  145.9753  158.4206 H   0  0  0  0  0  0  0  0  0  0  0  0
  151.6791  145.5118  160.0343 H   0  0  0  0  0  0  0  0  0  0  0  0
  153.7099  144.6471  158.8393 H   0  0  0  0  0  0  0  0  0  0  0  0
  152.9573  145.1122  157.2271 H   0  0  0  0  0  0  0  0  0  0  0  0
  1  2  2  0  0  0  0
  2  3  1  0  0  0  0
  2  4  1  0  0  0  0
  4  5  1  0  0  0  0
  4 17  1  0  0  0  0
  4 18  1  0  0  0  0
  5 16  1  0  0  0  0
  5  6  2  0  0  0  0
  6  7  1  0  0  0  0
  6 19  1  0  0  0  0
  7  8  1  0  0  0  0
  8  9  1  0  0  0  0
  8 16  2  0  0  0  0
  9 10  1  0  0  0  0
 10 11  2  0  0  0  0
 10 12  1  0  0  0  0
 12 13  1  0  0  0  0
 12 20  1  0  0  0  0
 13 15  1  0  0  0  0
 13 14  1  0  0  0  0
 13 21  1  0  0  0  0
 14 15  1  0  0  0  0
 14 22  1  0  0  0  0
 14 23  1  0  0  0  0
 15 24  1  0  0  0  0
 15 25  1  0  0  0  0
M  CHG  1   3  -1
M  CHG  1   9  -1
M  END
> <s_m_source_file>
AV-unprocessed.smi

> <i_m_source_file_index>
2206

> <i_lp_mmshare_version>
43012

> <i_f3d_flags>
0

> <s_epik_input>
Tz1DKFtPSF0pW0NIMl1jMVtjSF1zYyhuMSlbTkhdQyg9TylbTkhdW0NIXTJbQ0gyXVtDSDJdMg==

> <s_epik_cmdline>
J2VwaWtfcHl0aG9uJywgJy1waCcsICc3LjAnLCAnLXRuJywgJzgnLCAnLW1hJywgJzIwMCcsICctbWV0YWxfYmluZGluZycsICctaW1hZScsICc8aW5maWxlLm1hZT4nLCAnLW9tYWUnLCAnPG91dGZpbGUubWFlPic=

> <r_lp_tautomer_probability>
0.999

> <r_epik_Ionization_Penalty>
7.78494

> <r_epik_Ionization_Penalty_Charging>
6.1535

> <r_epik_Ionization_Penalty_Neutral>
1.63144

> <r_epik_State_Penalty>
6.15322

> <r_epik_Charging_Adjusted_Penalty>
12.3067

> <i_epik_Tot_Q>
-2

> <i_epik_Tot_abs_Q>
2

> <r_epik_Metal_State_Penalty>
2.09572

> <b_epik_Metal_Only>
1

> <s_lp_Force_Field>
OPLS_2005

> <r_lp_Energy>
21.0072

> <b_lp_Chiralities_Consistent>
1

> <s_lp_Variant>
AV-unprocessed.smi:2206-2

> <Gold.Version>
5.8.1

> <Gold.Id.Protein>
6NUR|6NUR_protein|mol2

> <Gold.PLP.Fitness>
44.6946

> <Gold.PLP.PLP>
-31.6673

> <Gold.PLP.part.hbond>
-3.0000

> <Gold.PLP.part.metal>
0.0000

> <Gold.PLP.part.buried>
-3.5276

> <Gold.PLP.part.nonpolar>
-27.5405

> <Gold.PLP.part.repulsive>
2.0534

> <Gold.PLP.ligand.clash>
0.0000

> <Gold.PLP.ligand.torsion>
0.4713

> <Gold.PLP.Chemscore.Hbond>
3.6300

> <Gold.PLP.Chemscore.CHOScore>
1.0000

> <Gold.PLP.Chemscore.Metal>
0.0000

> <Gold.Chemscore.Hbonds>
donor molecule, donor type, donor heavy atom, donor atom, acceptor molecule, acceptor atom, score
      L1  H    12    20       P1  8028  1.00
      P1  H  7989  7998       L1    16  0.68
      P1  H 10752 10763       L1     1  2.00
      L1  C     6    19       P1  7948  1.00

> <Gold.PLP.Chemscore.Internal.Correction>
0.0799

> <Gold.Rescore>
     Score         DG    S(hbond)    S(metal)    S(lipo)     H(rot)  DE(clash)    DE(int)     intcor
     11.53     -14.83       1.88        0.00      68.30       1.92       1.10       2.20       ----

> <Gold.Chemscore.Fitness>
11.5326

> <Gold.Chemscore.DG>
-14.8332

> <Gold.Chemscore.ZeroCoef>
-5.4800

> <Gold.Chemscore.Hbond>
1.8832

> <Gold.Chemscore.Metal>
0.0000

> <Gold.Chemscore.Lipo>
68.3006

> <Gold.Chemscore.Internal_Hbond>
0.0000

> <Gold.Chemscore.DEClash>
1.0977

> <Gold.Chemscore.DEInternal>
2.2029

> <Gold.Chemscore.Rot>
1.9249

> <Gold.Chemscore.Internal.Correction>
   9.000000E+99

> <Gold.Chemscore.Hbonds>
donor molecule, donor type, donor heavy atom, donor atom, acceptor molecule, acceptor atom, score
      L1  H    12    20       P1  8028  0.84
      P1  H  7989  7998       L1    16  0.02
      P1  H 10752 10763       L1     1  0.50

> <Gold.Chemscore.Hbond.Weighted>
-6.2899

> <Gold.Chemscore.Metal.Weighted>
-0.0000

> <Gold.Chemscore.Lipo.Weighted>
-7.9912

> <Gold.Chemscore.Internal_Hbond.Weighted>
0.0000

> <Gold.Chemscore.DEClash.Weighted>
1.0977

> <Gold.Chemscore.DEInternal.Weighted>
2.2029

> <Gold.Chemscore.Rot.Weighted>
4.9279

> <Gold.Chemscore.Internal.Correction.Weighted>
   9.000000E+99

> <Gold.Protein.RotatedTorsions>
[ 6907 6896 6895 6894 ] final  159.46 input  -60.11 | X-H torsion
[ 7974 7965 7964 7962 ] final -142.23 input  175.53 | X-H torsion
[ 8008 7997 7996 7995 ] final  -62.93 input   59.86 | X-H torsion
[ 10167 10162 10161 10158 ] final  137.31 input  -65.29 | X-H torsion
[ 10718 10713 10712 10709 ] final -156.47 input   66.30 | X-H torsion
[ 10763 10752 10751 10750 ] final   77.47 input  -60.55 | X-H torsion
[ 11005 11000 10999 10996 ] final  -25.38 input  -57.11 | X-H torsion

> <Gold.Protein.ActiveResidues>
 VAL166  LYS551  ARG553  GLY616  TRP617  ASP618  TYR619  PRO620  LYS621  CYS622 
 ASP623  PHE694  ASN695  SER759  ASP760  ASP761  ALA762  ILE779  LEU786  VAL792 
 PHE793  MET794  SER795  GLU796  ALA797  LYS798  CYS799  TRP800  GLU811  SER814 

> <Gold.Protein.RotatedAtoms>
  151.9853  133.3772  159.4122 H   0  0  0  0  0  0  0  0  0  0  0  0  # atno 6907 bound_to 6896
  150.6929  134.3995  159.5122 H   0  0  0  0  0  0  0  0  0  0  0  0  # atno 6908 bound_to 6896
  152.1720  134.8826  160.0584 H   0  0  0  0  0  0  0  0  0  0  0  0  # atno 6909 bound_to 6896
  144.8459  140.5983  143.5422 H   0  0  0  0  0  0  0  0  0  0  0  0  # atno 7974 bound_to 7965
  154.4526  140.0985  156.6663 H   0  0  0  0  0  0  0  0  0  0  0  0  # atno 8008 bound_to 7997
  155.5237  140.3479  155.4393 H   0  0  0  0  0  0  0  0  0  0  0  0  # atno 8009 bound_to 7997
  156.0713  140.1350  156.9814 H   0  0  0  0  0  0  0  0  0  0  0  0  # atno 8010 bound_to 7997
  139.5149  144.6417  151.5551 H   0  0  0  0  0  0  0  0  0  0  0  0  # atno 10167 bound_to 10162
  156.5269  130.8503  151.2702 H   0  0  0  0  0  0  0  0  0  0  0  0  # atno 10718 bound_to 10713
  153.0801  135.4913  154.8484 H   0  0  0  0  0  0  0  0  0  0  0  0  # atno 10763 bound_to 10752
  154.7139  135.3025  154.9157 H   0  0  0  0  0  0  0  0  0  0  0  0  # atno 10764 bound_to 10752
  153.9842  135.6786  153.4804 H   0  0  0  0  0  0  0  0  0  0  0  0  # atno 10765 bound_to 10752
  140.8932  133.7574  156.0448 H   0  0  0  0  0  0  0  0  0  0  0  0  # atno 11005 bound_to 11000
  145.4599  139.1514  143.3872 LP  0  0  0  0  0  0  0  0  0  0  0  0  # atno 17320 bound_to 7965
  146.2743  140.4728  142.8801 LP  0  0  0  0  0  0  0  0  0  0  0  0  # atno 17321 bound_to 7965
  140.6186  143.9301  150.6508 LP  0  0  0  0  0  0  0  0  0  0  0  0  # atno 17342 bound_to 10162
  140.2567  143.3553  152.1358 LP  0  0  0  0  0  0  0  0  0  0  0  0  # atno 17343 bound_to 10162
  157.7428  130.9898  150.2543 LP  0  0  0  0  0  0  0  0  0  0  0  0  # atno 17370 bound_to 10713
  156.3096  130.3770  149.7674 LP  0  0  0  0  0  0  0  0  0  0  0  0  # atno 17371 bound_to 10713
  140.8321  134.3166  157.5345 LP  0  0  0  0  0  0  0  0  0  0  0  0  # atno 17394 bound_to 11000
  139.8732  134.9369  156.3673 LP  0  0  0  0  0  0  0  0  0  0  0  0  # atno 17395 bound_to 11000

$$$$
