AV-unprocessed.smi:33|AV-procd|sdf|203|dock2
  -GOLD-   2262015483D 1   1.00000     0.00000
 Structure written by MMmdl.
 67 72  0  0  0  0  0  0  0  0  1 V2000
  152.5253  139.8618  157.4383 O   0  0  0  0  0  0  0  0  0  0  0  0
  152.0065  140.9727  157.3111 C   0  0  0  0  0  0  0  0  0  0  0  0
  151.2562  141.3280  156.2491 O   0  0  0  0  0  0  0  0  0  0  0  0
  150.8335  140.3444  155.3189 C   0  0  0  0  0  0  0  0  0  0  0  0
  149.5062  139.7387  155.7918 C   0  0  2  0  0  0  0  0  0  0  0  0
  149.0149  138.7840  154.8570 O   0  0  0  0  0  0  0  0  0  0  0  0
  147.6415  138.6061  155.0476 C   0  0  1  0  0  0  0  0  0  0  0  0
  147.4548  137.3107  155.7796 N   0  0  0  0  0  0  0  0  0  0  0  0
  146.5755  136.2769  155.5258 C   0  0  0  0  0  0  0  0  0  0  0  0
  146.6249  135.2782  156.3653 N   0  0  0  0  0  0  0  0  0  0  0  0
  147.5995  135.6574  157.2776 C   0  0  0  0  0  0  0  0  0  0  0  0
  148.1471  135.0595  158.4436 C   0  0  0  0  0  0  0  0  0  0  0  0
  147.7437  133.8539  158.9058 N   0  0  0  0  0  0  0  0  0  0  0  0
  147.4752  133.7493  160.3473 C   0  0  0  0  0  0  0  0  0  0  0  0
  147.5560  132.6522  160.9033 O   0  0  0  0  0  0  0  0  0  0  0  0
  147.1446  134.9738  161.1521 C   0  0  0  0  0  0  0  0  0  0  0  0
  147.8047  135.2146  162.3770 C   0  0  0  0  0  0  0  0  0  0  0  0
  147.4890  136.3547  163.1412 C   0  0  0  0  0  0  0  0  0  0  0  0
  146.4981  137.2502  162.6954 C   0  0  0  0  0  0  0  0  0  0  0  0
  145.8152  137.0000  161.4900 C   0  0  0  0  0  0  0  0  0  0  0  0
  146.1307  135.8607  160.7249 C   0  0  0  0  0  0  0  0  0  0  0  0
  147.6236  132.7656  157.9243 C   0  0  0  0  0  0  0  0  0  0  0  0
  146.8779  131.8132  158.1620 O   0  0  0  0  0  0  0  0  0  0  0  0
  148.3561  132.8299  156.6139 C   0  0  0  0  0  0  0  0  0  0  0  0
  147.7322  132.3677  155.4342 C   0  0  0  0  0  0  0  0  0  0  0  0
  148.4174  132.4095  154.2047 C   0  0  0  0  0  0  0  0  0  0  0  0
  149.7375  132.8961  154.1499 C   0  0  0  0  0  0  0  0  0  0  0  0
  150.3755  133.3324  155.3267 C   0  0  0  0  0  0  0  0  0  0  0  0
  149.6907  133.2915  156.5566 C   0  0  0  0  0  0  0  0  0  0  0  0
  149.1080  135.7396  159.1203 N   0  0  0  0  0  0  0  0  0  0  0  0
  149.5088  136.9354  158.6777 C   0  0  0  0  0  0  0  0  0  0  0  0
  149.0882  137.6141  157.6071 N   0  0  0  0  0  0  0  0  0  0  0  0
  148.1221  136.9315  156.9254 C   0  0  0  0  0  0  0  0  0  0  0  0
  147.1429  139.7994  155.8853 C   0  0  2  0  0  0  0  0  0  0  0  0
  145.9995  140.4324  155.3475 O   0  0  0  0  0  0  0  0  0  0  0  0
  148.3471  140.7311  155.8607 C   0  0  2  0  0  0  0  0  0  0  0  0
  148.3504  141.4731  154.7490 F   0  0  0  0  0  0  0  0  0  0  0  0
  152.1437  142.0649  158.3180 C   0  0  0  0  0  0  0  0  0  0  0  0
  151.7148  143.3714  157.9855 C   0  0  0  0  0  0  0  0  0  0  0  0
  151.8340  144.4239  158.9137 C   0  0  0  0  0  0  0  0  0  0  0  0
  152.3838  144.1830  160.1863 C   0  0  0  0  0  0  0  0  0  0  0  0
  152.8134  142.8877  160.5297 C   0  0  0  0  0  0  0  0  0  0  0  0
  152.6947  141.8338  159.6028 C   0  0  0  0  0  0  0  0  0  0  0  0
  150.6954  140.8152  154.3444 H   0  0  0  0  0  0  0  0  0  0  0  0
  151.5945  139.5707  155.2078 H   0  0  0  0  0  0  0  0  0  0  0  0
  149.6408  139.2705  156.7674 H   0  0  0  0  0  0  0  0  0  0  0  0
  147.1336  138.4896  154.0898 H   0  0  0  0  0  0  0  0  0  0  0  0
  145.8904  136.2750  154.6918 H   0  0  0  0  0  0  0  0  0  0  0  0
  148.5671  134.5343  162.7283 H   0  0  0  0  0  0  0  0  0  0  0  0
  148.0073  136.5416  164.0701 H   0  0  0  0  0  0  0  0  0  0  0  0
  146.2574  138.1250  163.2813 H   0  0  0  0  0  0  0  0  0  0  0  0
  145.0482  137.6811  161.1519 H   0  0  0  0  0  0  0  0  0  0  0  0
  145.5968  135.6757  159.8037 H   0  0  0  0  0  0  0  0  0  0  0  0
  146.7194  131.9921  155.4642 H   0  0  0  0  0  0  0  0  0  0  0  0
  147.9301  132.0671  153.3038 H   0  0  0  0  0  0  0  0  0  0  0  0
  150.2625  132.9278  153.2068 H   0  0  0  0  0  0  0  0  0  0  0  0
  151.3910  133.6975  155.2866 H   0  0  0  0  0  0  0  0  0  0  0  0
  150.1928  133.6237  157.4538 H   0  0  0  0  0  0  0  0  0  0  0  0
  150.2753  137.4181  159.2658 H   0  0  0  0  0  0  0  0  0  0  0  0
  146.9333  139.4885  156.9090 H   0  0  0  0  0  0  0  0  0  0  0  0
  145.3431  140.4904  156.0252 H   0  0  0  0  0  0  0  0  0  0  0  0
  148.3962  141.4044  156.7169 H   0  0  0  0  0  0  0  0  0  0  0  0
  151.2901  143.5812  157.0142 H   0  0  0  0  0  0  0  0  0  0  0  0
  151.5033  145.4171  158.6480 H   0  0  0  0  0  0  0  0  0  0  0  0
  152.4760  144.9905  160.8975 H   0  0  0  0  0  0  0  0  0  0  0  0
  153.2357  142.7015  161.5064 H   0  0  0  0  0  0  0  0  0  0  0  0
  153.0349  140.8520  159.8983 H   0  0  0  0  0  0  0  0  0  0  0  0
  1  2  2  0  0  0  0
  2  3  1  0  0  0  0
  2 38  1  0  0  0  0
  3  4  1  0  0  0  0
  4  5  1  0  0  0  0
  4 44  1  0  0  0  0
  4 45  1  0  0  0  0
  5 36  1  0  0  0  0
  5  6  1  0  0  0  0
  5 46  1  0  0  0  0
  6  7  1  0  0  0  0
  7  8  1  0  0  0  0
  7 34  1  0  0  0  0
  7 47  1  0  0  0  0
  8 33  1  0  0  0  0
  8  9  1  0  0  0  0
  9 10  2  0  0  0  0
  9 48  1  0  0  0  0
 10 11  1  0  0  0  0
 11 33  2  0  0  0  0
 11 12  1  0  0  0  0
 12 13  1  0  0  0  0
 12 30  2  0  0  0  0
 13 14  1  0  0  0  0
 13 22  1  0  0  0  0
 14 15  2  0  0  0  0
 14 16  1  0  0  0  0
 16 21  1  0  0  0  0
 16 17  2  0  0  0  0
 17 18  1  0  0  0  0
 17 49  1  0  0  0  0
 18 19  2  0  0  0  0
 18 50  1  0  0  0  0
 19 20  1  0  0  0  0
 19 51  1  0  0  0  0
 20 21  2  0  0  0  0
 20 52  1  0  0  0  0
 21 53  1  0  0  0  0
 22 23  2  0  0  0  0
 22 24  1  0  0  0  0
 24 29  1  0  0  0  0
 24 25  2  0  0  0  0
 25 26  1  0  0  0  0
 25 54  1  0  0  0  0
 26 27  2  0  0  0  0
 26 55  1  0  0  0  0
 27 28  1  0  0  0  0
 27 56  1  0  0  0  0
 28 29  2  0  0  0  0
 28 57  1  0  0  0  0
 29 58  1  0  0  0  0
 30 31  1  0  0  0  0
 31 32  2  0  0  0  0
 31 59  1  0  0  0  0
 32 33  1  0  0  0  0
 34 35  1  0  0  0  0
 34 36  1  0  0  0  0
 34 60  1  0  0  0  0
 35 61  1  0  0  0  0
 36 37  1  0  0  0  0
 36 62  1  0  0  0  0
 38 43  1  0  0  0  0
 38 39  2  0  0  0  0
 39 40  1  0  0  0  0
 39 63  1  0  0  0  0
 40 41  2  0  0  0  0
 40 64  1  0  0  0  0
 41 42  1  0  0  0  0
 41 65  1  0  0  0  0
 42 43  2  0  0  0  0
 42 66  1  0  0  0  0
 43 67  1  0  0  0  0
M  END
> <s_m_source_file>
AV-unprocessed.smi

> <i_m_source_file_index>
33

> <i_lp_mmshare_version>
43012

> <i_f3d_flags>
0

> <s_epik_input>
W2NIXTFbY0hdW2NIXVtjSF1bY0hdYzFDKD1PKU9bQ0gyXVtDQEBIXTJPW0NASF0oW0NAQEhdKFtPSF0pW0NAQEhdMkYpbihbY0hdbjMpYyhjMzQpbltjSF1uYzROKEMoPU8pYzVbY0hdW2NIXVtjSF1bY0hdW2NIXTUpQyg9TyljNltjSF1bY0hdW2NIXVtjSF1bY0hdNg==

> <s_epik_cmdline>
J2VwaWtfcHl0aG9uJywgJy1waCcsICc3LjAnLCAnLXRuJywgJzgnLCAnLW1hJywgJzIwMCcsICctbWV0YWxfYmluZGluZycsICctaW1hZScsICc8aW5maWxlLm1hZT4nLCAnLW9tYWUnLCAnPG91dGZpbGUubWFlPic=

> <r_lp_tautomer_probability>
1

> <r_epik_Ionization_Penalty>
0.00067664

> <r_epik_Ionization_Penalty_Charging>
0

> <r_epik_Ionization_Penalty_Neutral>
0.00067664

> <r_epik_State_Penalty>
0.000428095

> <r_epik_Charging_Adjusted_Penalty>
0.000428095

> <i_epik_Tot_Q>
0

> <i_epik_Tot_abs_Q>
0

> <r_epik_Metal_State_Penalty>
-0

> <b_epik_Metal_Only>
0

> <s_epik_Chemistry_Notes>
This compound has an ester and may undergo hydrolysis at high or low pH. This compound contains an acetal/aminal-like group ( X-CH(R)-Y where X, Y are N, S, or O) that may be acid/base labile, releasing an aldehyde.

> <s_lp_Force_Field>
OPLS_2005

> <r_lp_Energy>
70.8142

> <b_lp_Chiralities_Consistent>
1

> <s_lp_Variant>
AV-unprocessed.smi:33-5

> <Gold.Version>
5.8.1

> <Gold.Id.Protein>
6NUR|6NUR_protein|mol2

> <Gold.PLP.Fitness>
61.0967

> <Gold.PLP.PLP>
-57.4369

> <Gold.PLP.part.hbond>
-2.0000

> <Gold.PLP.part.metal>
0.0000

> <Gold.PLP.part.buried>
-6.1689

> <Gold.PLP.part.nonpolar>
-48.1610

> <Gold.PLP.part.repulsive>
0.1571

> <Gold.PLP.ligand.clash>
0.0000

> <Gold.PLP.ligand.torsion>
3.2106

> <Gold.PLP.Chemscore.Hbond>
1.9750

> <Gold.PLP.Chemscore.CHOScore>
0.0000

> <Gold.PLP.Chemscore.Metal>
0.0000

> <Gold.Chemscore.Hbonds>
donor molecule, donor type, donor heavy atom, donor atom, acceptor molecule, acceptor atom, score
      P1  H  6896  6909       L1    30  1.00
      P1  H  7997  8008       L1     1  1.00

> <Gold.PLP.Chemscore.Internal.Correction>
4.1560

> <Gold.Rescore>
     Score         DG    S(hbond)    S(metal)    S(lipo)     H(rot)  DE(clash)    DE(int)     intcor
     12.21     -22.41       1.58        0.00     154.75       2.52       0.53       9.67       ----

> <Gold.Chemscore.Fitness>
12.2079

> <Gold.Chemscore.DG>
-22.4142

> <Gold.Chemscore.ZeroCoef>
-5.4800

> <Gold.Chemscore.Hbond>
1.5844

> <Gold.Chemscore.Metal>
0.0000

> <Gold.Chemscore.Lipo>
154.7480

> <Gold.Chemscore.Internal_Hbond>
0.0000

> <Gold.Chemscore.DEClash>
0.5336

> <Gold.Chemscore.DEInternal>
9.6727

> <Gold.Chemscore.Rot>
2.5247

> <Gold.Chemscore.Internal.Correction>
   9.000000E+99

> <Gold.Chemscore.Hbonds>
donor molecule, donor type, donor heavy atom, donor atom, acceptor molecule, acceptor atom, score
      P1  H  6896  6909       L1    30  0.62
      P1  H  7997  8008       L1     1  0.47

> <Gold.Chemscore.Hbond.Weighted>
-5.2919

> <Gold.Chemscore.Metal.Weighted>
-0.0000

> <Gold.Chemscore.Lipo.Weighted>
-18.1055

> <Gold.Chemscore.Internal_Hbond.Weighted>
0.0000

> <Gold.Chemscore.DEClash.Weighted>
0.5336

> <Gold.Chemscore.DEInternal.Weighted>
9.6727

> <Gold.Chemscore.Rot.Weighted>
6.4633

> <Gold.Chemscore.Internal.Correction.Weighted>
   9.000000E+99

> <Gold.Protein.RotatedTorsions>
[ 6907 6896 6895 6894 ] final   56.39 input  -60.11 | X-H torsion
[ 7974 7965 7964 7962 ] final  -50.59 input  175.53 | X-H torsion
[ 8008 7997 7996 7995 ] final  -69.35 input   59.86 | X-H torsion
[ 10167 10162 10161 10158 ] final  -33.64 input  -65.29 | X-H torsion
[ 10718 10713 10712 10709 ] final -119.74 input   66.30 | X-H torsion
[ 10763 10752 10751 10750 ] final   21.64 input  -60.55 | X-H torsion
[ 11005 11000 10999 10996 ] final  110.23 input  -57.11 | X-H torsion

> <Gold.Protein.ActiveResidues>
 VAL166  LYS551  ARG553  GLY616  TRP617  ASP618  TYR619  PRO620  LYS621  CYS622 
 ASP623  PHE694  ASN695  SER759  ASP760  ASP761  ALA762  ILE779  LEU786  VAL792 
 PHE793  MET794  SER795  GLU796  ALA797  LYS798  CYS799  TRP800  GLU811  SER814 

> <Gold.Protein.RotatedAtoms>
  152.3631  134.6843  160.0200 H   0  0  0  0  0  0  0  0  0  0  0  0  # atno 6907 bound_to 6896
  151.7160  133.3308  159.3311 H   0  0  0  0  0  0  0  0  0  0  0  0  # atno 6908 bound_to 6896
  150.7619  134.6425  159.6289 H   0  0  0  0  0  0  0  0  0  0  0  0  # atno 6909 bound_to 6896
  145.9282  140.7773  142.9613 H   0  0  0  0  0  0  0  0  0  0  0  0  # atno 7974 bound_to 7965
  154.4932  140.0855  156.7640 H   0  0  0  0  0  0  0  0  0  0  0  0  # atno 8008 bound_to 7997
  155.4180  140.3444  155.4251 H   0  0  0  0  0  0  0  0  0  0  0  0  # atno 8009 bound_to 7997
  156.1358  140.1515  156.8984 H   0  0  0  0  0  0  0  0  0  0  0  0  # atno 8010 bound_to 7997
  140.7201  143.3606  151.1971 H   0  0  0  0  0  0  0  0  0  0  0  0  # atno 10167 bound_to 10162
  156.1204  130.6319  150.9454 H   0  0  0  0  0  0  0  0  0  0  0  0  # atno 10718 bound_to 10713
  153.0979  135.6664  153.9729 H   0  0  0  0  0  0  0  0  0  0  0  0  # atno 10763 bound_to 10752
  153.9308  135.3004  155.3447 H   0  0  0  0  0  0  0  0  0  0  0  0  # atno 10764 bound_to 10752
  154.7398  135.5085  153.9178 H   0  0  0  0  0  0  0  0  0  0  0  0  # atno 10765 bound_to 10752
  139.8878  134.9479  156.6248 H   0  0  0  0  0  0  0  0  0  0  0  0  # atno 11005 bound_to 11000
  144.6761  140.2084  143.7379 LP  0  0  0  0  0  0  0  0  0  0  0  0  # atno 17320 bound_to 7965
  145.8461  139.2153  143.1799 LP  0  0  0  0  0  0  0  0  0  0  0  0  # atno 17321 bound_to 7965
  139.7157  143.9305  152.2965 LP  0  0  0  0  0  0  0  0  0  0  0  0  # atno 17342 bound_to 10162
  139.9045  144.6892  150.8629 LP  0  0  0  0  0  0  0  0  0  0  0  0  # atno 17343 bound_to 10162
  157.6388  131.0913  150.8294 LP  0  0  0  0  0  0  0  0  0  0  0  0  # atno 17370 bound_to 10713
  156.8392  130.5042  149.5323 LP  0  0  0  0  0  0  0  0  0  0  0  0  # atno 17371 bound_to 10713
  140.7712  133.8737  155.8493 LP  0  0  0  0  0  0  0  0  0  0  0  0  # atno 17394 bound_to 11000
  140.9840  134.1367  157.4468 LP  0  0  0  0  0  0  0  0  0  0  0  0  # atno 17395 bound_to 11000

$$$$
