AV-unprocessed.smi:2706|AV-procd|sdf|10454|dock3
  -GOLD-   2272014493D 1   1.00000     0.00000
 Structure written by MMmdl.
 43 46  0  0  0  0  0  0  0  0  1 V2000
  151.9167  138.8869  154.7899 C   0  0  0  0  0  0  0  0  0  0  0  0
  150.7211  138.0523  154.7426 N   0  0  0  0  0  0  0  0  0  0  0  0
  150.9693  136.6501  155.0617 C   0  0  0  0  0  0  0  0  0  0  0  0
  149.4770  138.5488  154.3458 C   0  0  0  0  0  0  0  0  0  0  0  0
  149.3260  139.8442  153.9881 C   0  0  0  0  0  0  0  0  0  0  0  0
  148.0243  140.3450  153.5967 C   0  0  0  0  0  0  0  0  0  0  0  0
  146.9465  139.5371  153.5630 C   0  0  0  0  0  0  0  0  0  0  0  0
  147.0626  138.1316  153.9028 C   0  0  0  0  0  0  0  0  0  0  0  0
  146.0174  137.3540  153.8531 N   0  0  0  0  0  0  0  0  0  0  0  0
  146.0841  135.9707  154.0235 C   0  0  0  0  0  0  0  0  0  0  0  0
  145.3542  135.3616  154.8047 O   0  0  0  0  0  0  0  0  0  0  0  0
  146.9154  135.3150  153.1876 N   0  0  0  0  0  0  0  0  0  0  0  0
  147.0976  133.9019  153.1062 C   0  0  2  0  0  0  0  0  0  0  0  0
  146.9558  133.1651  151.7765 C   0  0  2  0  0  0  0  0  0  0  0  0
  146.1427  133.5550  150.5390 C   0  0  1  0  0  0  0  0  0  0  0  0
  145.3811  132.2951  150.0721 C   0  0  0  0  0  0  0  0  0  0  0  0
  144.2963  132.1354  151.1675 C   0  0  0  0  0  0  0  0  0  0  0  0
  144.6019  133.3206  152.1077 C   0  0  2  0  0  0  0  0  0  0  0  0
  144.9652  134.3760  151.0616 C   0  0  0  0  0  0  0  0  0  0  0  0
  145.9073  132.9923  152.8372 C   0  0  2  0  0  0  0  0  0  0  0  0
  148.3480  137.7263  154.3099 N   0  0  0  0  0  0  0  0  0  0  0  0
  152.4790  138.7851  153.8614 H   0  0  0  0  0  0  0  0  0  0  0  0
  152.5663  138.5960  155.6162 H   0  0  0  0  0  0  0  0  0  0  0  0
  151.6776  139.9410  154.9249 H   0  0  0  0  0  0  0  0  0  0  0  0
  150.3451  136.3350  155.8983 H   0  0  0  0  0  0  0  0  0  0  0  0
  152.0092  136.4697  155.3359 H   0  0  0  0  0  0  0  0  0  0  0  0
  150.7409  136.0189  154.2025 H   0  0  0  0  0  0  0  0  0  0  0  0
  150.1563  140.5344  153.9933 H   0  0  0  0  0  0  0  0  0  0  0  0
  147.9150  141.3869  153.3344 H   0  0  0  0  0  0  0  0  0  0  0  0
  146.0016  139.9684  153.2658 H   0  0  0  0  0  0  0  0  0  0  0  0
  147.4482  135.8711  152.5344 H   0  0  0  0  0  0  0  0  0  0  0  0
  147.8515  133.4854  153.7725 H   0  0  0  0  0  0  0  0  0  0  0  0
  147.6557  132.3465  151.6185 H   0  0  0  0  0  0  0  0  0  0  0  0
  146.7444  134.0303  149.7655 H   0  0  0  0  0  0  0  0  0  0  0  0
  144.9224  132.4531  149.0950 H   0  0  0  0  0  0  0  0  0  0  0  0
  146.0303  131.4217  149.9994 H   0  0  0  0  0  0  0  0  0  0  0  0
  143.2975  132.2230  150.7374 H   0  0  0  0  0  0  0  0  0  0  0  0
  144.3569  131.1735  151.6778 H   0  0  0  0  0  0  0  0  0  0  0  0
  143.7915  133.5887  152.7856 H   0  0  0  0  0  0  0  0  0  0  0  0
  145.2210  135.3561  151.4537 H   0  0  0  0  0  0  0  0  0  0  0  0
  144.1833  134.5308  150.3151 H   0  0  0  0  0  0  0  0  0  0  0  0
  145.8961  132.0558  153.3920 H   0  0  0  0  0  0  0  0  0  0  0  0
  148.5061  136.7698  154.5923 H   0  0  0  0  0  0  0  0  0  0  0  0
  1  2  1  0  0  0  0
  1 22  1  0  0  0  0
  1 23  1  0  0  0  0
  1 24  1  0  0  0  0
  2  3  1  0  0  0  0
  2  4  1  0  0  0  0
  3 25  1  0  0  0  0
  3 26  1  0  0  0  0
  3 27  1  0  0  0  0
  4 21  1  0  0  0  0
  4  5  2  0  0  0  0
  5  6  1  0  0  0  0
  5 28  1  0  0  0  0
  6  7  2  0  0  0  0
  6 29  1  0  0  0  0
  7  8  1  0  0  0  0
  7 30  1  0  0  0  0
  8  9  2  0  0  0  0
  8 21  1  0  0  0  0
  9 10  1  0  0  0  0
 10 11  2  0  0  0  0
 10 12  1  0  0  0  0
 12 13  1  0  0  0  0
 12 31  1  0  0  0  0
 13 20  1  0  0  0  0
 13 14  1  0  0  0  0
 13 32  1  0  0  0  0
 14 20  1  0  0  0  0
 14 15  1  0  0  0  0
 14 33  1  0  0  0  0
 15 19  1  0  0  0  0
 15 16  1  0  0  0  0
 15 34  1  0  0  0  0
 16 17  1  0  0  0  0
 16 35  1  0  0  0  0
 16 36  1  0  0  0  0
 17 18  1  0  0  0  0
 17 37  1  0  0  0  0
 17 38  1  0  0  0  0
 18 19  1  0  0  0  0
 18 20  1  0  0  0  0
 18 39  1  0  0  0  0
 19 40  1  0  0  0  0
 19 41  1  0  0  0  0
 20 42  1  0  0  0  0
 21 43  1  0  0  0  0
M  END
> <s_m_source_file>
AV-unprocessed.smi

> <i_m_source_file_index>
2706

> <i_lp_mmshare_version>
43012

> <i_f3d_flags>
0

> <s_epik_input>
W0NIM11OKFtDSDNdKWMxW2NIXVtjSF1bY0hdYyhuMSlbTkhdQyg9TylbTkhdW0NASF0yW0NAQEhdM1tDQEBIXShbQ0gyXTQpW0NIMl1bQ0gyXVtDQEBIXTRbQ0BIXTIz

> <s_epik_cmdline>
J2VwaWtfcHl0aG9uJywgJy1waCcsICc3LjAnLCAnLXRuJywgJzgnLCAnLW1hJywgJzIwMCcsICctbWV0YWxfYmluZGluZycsICctaW1hZScsICc8aW5maWxlLm1hZT4nLCAnLW9tYWUnLCAnPG91dGZpbGUubWFlPic=

> <r_lp_tautomer_probability>
0.999994

> <r_epik_Ionization_Penalty>
2.07242

> <r_epik_Ionization_Penalty_Charging>
2.07242

> <r_epik_Ionization_Penalty_Neutral>
9.73808e-07

> <r_epik_State_Penalty>
3.96009

> <r_epik_Charging_Adjusted_Penalty>
6.03251

> <i_epik_Tot_Q>
0

> <i_epik_Tot_abs_Q>
0

> <r_epik_Metal_State_Penalty>
3.98849

> <b_epik_Metal_Only>
1

> <s_lp_Force_Field>
OPLS_2005

> <r_lp_Energy>
93.8849

> <b_lp_Chiralities_Consistent>
1

> <s_lp_Variant>
AV-unprocessed.smi:2706-11

> <Gold.Version>
5.8.1

> <Gold.Id.Protein>
6NUR|6NUR_protein|mol2

> <Gold.PLP.Fitness>
35.5473

> <Gold.PLP.PLP>
-33.5296

> <Gold.PLP.part.hbond>
-2.0000

> <Gold.PLP.part.metal>
0.0000

> <Gold.PLP.part.buried>
-0.2361

> <Gold.PLP.part.nonpolar>
-31.0566

> <Gold.PLP.part.repulsive>
0.1639

> <Gold.PLP.ligand.clash>
0.0000

> <Gold.PLP.ligand.torsion>
0.5089

> <Gold.PLP.Chemscore.Hbond>
0.9920

> <Gold.PLP.Chemscore.CHOScore>
0.0000

> <Gold.PLP.Chemscore.Metal>
0.0000

> <Gold.Chemscore.Hbonds>
donor molecule, donor type, donor heavy atom, donor atom, acceptor molecule, acceptor atom, score
      L1  H    12    31       P1  7948  0.96

> <Gold.PLP.Chemscore.Internal.Correction>
0.0596

> <Gold.Rescore>
     Score         DG    S(hbond)    S(metal)    S(lipo)     H(rot)  DE(clash)    DE(int)     intcor
     15.22     -15.82       0.97        0.00      82.50       1.00       0.02       0.58       ----

> <Gold.Chemscore.Fitness>
15.2222

> <Gold.Chemscore.DG>
-15.8210

> <Gold.Chemscore.ZeroCoef>
-5.4800

> <Gold.Chemscore.Hbond>
0.9726

> <Gold.Chemscore.Metal>
0.0000

> <Gold.Chemscore.Lipo>
82.4992

> <Gold.Chemscore.Internal_Hbond>
0.0000

> <Gold.Chemscore.DEClash>
0.0224

> <Gold.Chemscore.DEInternal>
0.5763

> <Gold.Chemscore.Rot>
1.0000

> <Gold.Chemscore.Internal.Correction>
   9.000000E+99

> <Gold.Chemscore.Hbonds>
donor molecule, donor type, donor heavy atom, donor atom, acceptor molecule, acceptor atom, score
      L1  H    12    31       P1  7948  0.92

> <Gold.Chemscore.Hbond.Weighted>
-3.2485

> <Gold.Chemscore.Metal.Weighted>
-0.0000

> <Gold.Chemscore.Lipo.Weighted>
-9.6524

> <Gold.Chemscore.Internal_Hbond.Weighted>
0.0000

> <Gold.Chemscore.DEClash.Weighted>
0.0224

> <Gold.Chemscore.DEInternal.Weighted>
0.5763

> <Gold.Chemscore.Rot.Weighted>
2.5600

> <Gold.Chemscore.Internal.Correction.Weighted>
   9.000000E+99

> <Gold.Protein.RotatedTorsions>
[ 6907 6896 6895 6894 ] final -114.59 input  -60.11 | X-H torsion
[ 7974 7965 7964 7962 ] final   93.16 input  175.53 | X-H torsion
[ 8008 7997 7996 7995 ] final   16.99 input   59.86 | X-H torsion
[ 10167 10162 10161 10158 ] final   50.89 input  -65.29 | X-H torsion
[ 10718 10713 10712 10709 ] final  107.34 input   66.30 | X-H torsion
[ 10763 10752 10751 10750 ] final -171.69 input  -60.55 | X-H torsion
[ 11005 11000 10999 10996 ] final  -70.31 input  -57.11 | X-H torsion

> <Gold.Protein.ActiveResidues>
 VAL166  LYS551  ARG553  GLY616  TRP617  ASP618  TYR619  PRO620  LYS621  CYS622 
 ASP623  PHE694  ASN695  SER759  ASP760  ASP761  ALA762  ILE779  LEU786  VAL792 
 PHE793  MET794  SER795  GLU796  ALA797  LYS798  CYS799  TRP800  GLU811  SER814 

> <Gold.Protein.RotatedAtoms>
  150.7914  133.8779  159.3277 H   0  0  0  0  0  0  0  0  0  0  0  0  # atno 6907 bound_to 6896
  151.6616  135.0986  160.0190 H   0  0  0  0  0  0  0  0  0  0  0  0  # atno 6908 bound_to 6896
  152.3988  133.6748  159.6334 H   0  0  0  0  0  0  0  0  0  0  0  0  # atno 6909 bound_to 6896
  145.4826  139.2278  143.2874 H   0  0  0  0  0  0  0  0  0  0  0  0  # atno 7974 bound_to 7965
  154.8850  140.2978  155.5403 H   0  0  0  0  0  0  0  0  0  0  0  0  # atno 8008 bound_to 7997
  156.3021  140.2435  156.3792 H   0  0  0  0  0  0  0  0  0  0  0  0  # atno 8009 bound_to 7997
  154.8678  140.0402  157.1694 H   0  0  0  0  0  0  0  0  0  0  0  0  # atno 8010 bound_to 7997
  140.2677  144.3301  150.6299 H   0  0  0  0  0  0  0  0  0  0  0  0  # atno 10167 bound_to 10162
  157.6632  131.0870  150.6142 H   0  0  0  0  0  0  0  0  0  0  0  0  # atno 10718 bound_to 10713
  154.6277  135.2883  155.0253 H   0  0  0  0  0  0  0  0  0  0  0  0  # atno 10763 bound_to 10752
  154.1425  135.6516  153.4949 H   0  0  0  0  0  0  0  0  0  0  0  0  # atno 10764 bound_to 10752
  153.0265  135.5336  154.7092 H   0  0  0  0  0  0  0  0  0  0  0  0  # atno 10765 bound_to 10752
  141.1571  133.6786  156.6733 H   0  0  0  0  0  0  0  0  0  0  0  0  # atno 11005 bound_to 11000
  146.2332  140.5613  142.8966 LP  0  0  0  0  0  0  0  0  0  0  0  0  # atno 17320 bound_to 7965
  144.7880  140.5975  143.6560 LP  0  0  0  0  0  0  0  0  0  0  0  0  # atno 17321 bound_to 7965
  140.5915  143.2168  151.7244 LP  0  0  0  0  0  0  0  0  0  0  0  0  # atno 17342 bound_to 10162
  139.4998  144.3932  152.0258 LP  0  0  0  0  0  0  0  0  0  0  0  0  # atno 17343 bound_to 10162
  156.6444  130.4467  149.5741 LP  0  0  0  0  0  0  0  0  0  0  0  0  # atno 17370 bound_to 10713
  156.2185  130.6722  151.1343 LP  0  0  0  0  0  0  0  0  0  0  0  0  # atno 17371 bound_to 10713
  140.3158  134.8048  157.4213 LP  0  0  0  0  0  0  0  0  0  0  0  0  # atno 17394 bound_to 11000
  140.1139  134.5309  155.8242 LP  0  0  0  0  0  0  0  0  0  0  0  0  # atno 17395 bound_to 11000

$$$$
