AV-unprocessed.smi:1|AV-procd|sdf|17|dock8
  -GOLD-   2262015113D 1   1.00000     0.00000
 Structure written by MMmdl.
 56 61  0  0  0  0  0  0  0  0  2 V2000
  153.8232  139.9661  160.4471 O   0  0  0  0  0  0  0  0  0  0  0  0
  153.3003  140.5757  159.5116 C   0  0  0  0  0  0  0  0  0  0  0  0
  153.0668  140.1276  158.2518 N   0  5  0  0  0  0  0  0  0  0  0  0
  152.6628  138.8629  158.0593 C   0  0  0  0  0  0  0  0  0  0  0  0
  153.5322  137.8315  158.2158 N   0  0  0  0  0  0  0  0  0  0  0  0
  153.1263  136.5699  158.0288 C   0  0  0  0  0  0  0  0  0  0  0  0
  151.9166  136.1180  157.6826 N   0  0  0  0  0  0  0  0  0  0  0  0
  151.0388  137.1484  157.5105 C   0  0  0  0  0  0  0  0  0  0  0  0
  151.3348  138.5321  157.6742 C   0  0  0  0  0  0  0  0  0  0  0  0
  150.2131  139.3067  157.4177 N   0  0  0  0  0  0  0  0  0  0  0  0
  149.3054  138.3778  157.1233 C   0  0  0  0  0  0  0  0  0  0  0  0
  149.7017  137.0878  157.1630 N   0  0  0  0  0  0  0  0  0  0  0  0
  148.9176  135.8372  156.9066 C   0  0  2  0  0  0  0  0  0  0  0  0
  147.7496  136.1721  156.2194 O   0  0  0  0  0  0  0  0  0  0  0  0
  146.6532  136.2280  157.1237 C   0  0  1  0  0  0  0  0  0  0  0  0
  145.3336  136.0388  156.3702 C   0  0  0  0  0  0  0  0  0  0  0  0
  145.5824  135.3409  155.1613 O   0  0  0  0  0  0  0  0  0  0  0  0
  144.5574  135.0143  154.3509 C   0  0  0  0  0  0  0  0  0  0  0  0
  143.3783  135.2665  154.6078 O   0  0  0  0  0  0  0  0  0  0  0  0
  144.9969  134.3129  153.1102 C   0  0  0  0  0  0  0  0  0  0  0  0
  146.3644  133.9911  152.9453 C   0  0  0  0  0  0  0  0  0  0  0  0
  146.8112  133.3312  151.7840 C   0  0  0  0  0  0  0  0  0  0  0  0
  145.8958  132.9854  150.7731 C   0  0  0  0  0  0  0  0  0  0  0  0
  144.5327  133.2998  150.9252 C   0  0  0  0  0  0  0  0  0  0  0  0
  144.0836  133.9592  152.0862 C   0  0  0  0  0  0  0  0  0  0  0  0
  146.9628  135.0926  158.0991 C   0  0  2  0  0  0  0  0  0  0  0  0
  146.3818  135.3164  159.3715 O   0  0  0  0  0  0  0  0  0  0  0  0
  147.4974  136.0884  160.3465 S   0  0  0  0  0  0  0  0  0  0  0  0
  147.1388  137.5132  160.4177 O   0  0  0  0  0  0  0  0  0  0  0  0
  147.7086  135.2634  161.5454 O   0  0  0  0  0  0  0  0  0  0  0  0
  148.8363  135.9379  159.3615 O   0  0  0  0  0  0  0  0  0  0  0  0
  148.4922  135.1581  158.2246 C   0  0  2  0  0  0  0  0  0  0  0  0
  152.9108  142.0156  159.7132 C   0  0  0  0  0  0  0  0  0  0  0  0
  152.9050  142.5637  161.0162 C   0  0  0  0  0  0  0  0  0  0  0  0
  152.5157  143.9005  161.2293 C   0  0  0  0  0  0  0  0  0  0  0  0
  152.1189  144.7013  160.1420 C   0  0  0  0  0  0  0  0  0  0  0  0
  152.1085  144.1631  158.8417 C   0  0  0  0  0  0  0  0  0  0  0  0
  152.4979  142.8265  158.6277 C   0  0  0  0  0  0  0  0  0  0  0  0
  153.8808  135.8120  158.1790 H   0  0  0  0  0  0  0  0  0  0  0  0
  148.2944  138.6581  156.8687 H   0  0  0  0  0  0  0  0  0  0  0  0
  149.5695  135.2253  156.2819 H   0  0  0  0  0  0  0  0  0  0  0  0
  146.6617  137.1839  157.6498 H   0  0  0  0  0  0  0  0  0  0  0  0
  144.6152  135.4987  156.9887 H   0  0  0  0  0  0  0  0  0  0  0  0
  144.9001  137.0112  156.1327 H   0  0  0  0  0  0  0  0  0  0  0  0
  147.0863  134.2477  153.7073 H   0  0  0  0  0  0  0  0  0  0  0  0
  147.8578  133.0911  151.6692 H   0  0  0  0  0  0  0  0  0  0  0  0
  146.2389  132.4800  149.8824 H   0  0  0  0  0  0  0  0  0  0  0  0
  143.8295  133.0348  150.1493 H   0  0  0  0  0  0  0  0  0  0  0  0
  143.0306  134.1851  152.1712 H   0  0  0  0  0  0  0  0  0  0  0  0
  146.6557  134.1294  157.6897 H   0  0  0  0  0  0  0  0  0  0  0  0
  148.9409  134.1676  158.3045 H   0  0  0  0  0  0  0  0  0  0  0  0
  153.2048  141.9613  161.8619 H   0  0  0  0  0  0  0  0  0  0  0  0
  152.5201  144.3100  162.2286 H   0  0  0  0  0  0  0  0  0  0  0  0
  151.8195  145.7258  160.3053 H   0  0  0  0  0  0  0  0  0  0  0  0
  151.7986  144.7741  158.0069 H   0  0  0  0  0  0  0  0  0  0  0  0
  152.4721  142.4291  157.6232 H   0  0  0  0  0  0  0  0  0  0  0  0
  1  2  2  0  0  0  0
  2  3  1  0  0  0  0
  2 33  1  0  0  0  0
  3  4  1  0  0  0  0
  4  9  1  0  0  0  0
  4  5  2  0  0  0  0
  5  6  1  0  0  0  0
  6  7  2  0  0  0  0
  6 39  1  0  0  0  0
  7  8  1  0  0  0  0
  8 12  1  0  0  0  0
  8  9  2  0  0  0  0
  9 10  1  0  0  0  0
 10 11  2  0  0  0  0
 11 12  1  0  0  0  0
 11 40  1  0  0  0  0
 12 13  1  0  0  0  0
 13 32  1  0  0  0  0
 13 14  1  0  0  0  0
 13 41  1  0  0  0  0
 14 15  1  0  0  0  0
 15 16  1  0  0  0  0
 15 26  1  0  0  0  0
 15 42  1  0  0  0  0
 16 17  1  0  0  0  0
 16 43  1  0  0  0  0
 16 44  1  0  0  0  0
 17 18  1  0  0  0  0
 18 19  2  0  0  0  0
 18 20  1  0  0  0  0
 20 25  1  0  0  0  0
 20 21  2  0  0  0  0
 21 22  1  0  0  0  0
 21 45  1  0  0  0  0
 22 23  2  0  0  0  0
 22 46  1  0  0  0  0
 23 24  1  0  0  0  0
 23 47  1  0  0  0  0
 24 25  2  0  0  0  0
 24 48  1  0  0  0  0
 25 49  1  0  0  0  0
 26 32  1  0  0  0  0
 26 27  1  0  0  0  0
 26 50  1  0  0  0  0
 27 28  1  0  0  0  0
 28 29  2  0  0  0  0
 28 30  2  0  0  0  0
 28 31  1  0  0  0  0
 31 32  1  0  0  0  0
 32 51  1  0  0  0  0
 33 38  1  0  0  0  0
 33 34  2  0  0  0  0
 34 35  1  0  0  0  0
 34 52  1  0  0  0  0
 35 36  2  0  0  0  0
 35 53  1  0  0  0  0
 36 37  1  0  0  0  0
 36 54  1  0  0  0  0
 37 38  2  0  0  0  0
 37 55  1  0  0  0  0
 38 56  1  0  0  0  0
M  CHG  1   3  -1
M  END
> <s_m_source_file>
AV-unprocessed.smi

> <i_m_source_file_index>
1

> <i_lp_mmshare_version>
43012

> <i_f3d_flags>
0

> <s_epik_input>
W2NIXTFbY0hdW2NIXVtjSF1bY0hdYzFDKD1PKVtOSF1jKG5bY0hdbjIpYyhjMjMpbltjSF1uM1tDQEBIXShbQ0BIXShbQ0BIXTQ1KU9TKE81KSg9Tyk9TylPW0NASF00W0NIMl1PQyg9TyljNltjSF1bY0hdW2NIXVtjSF1bY0hdNg==

> <s_epik_cmdline>
J2VwaWtfcHl0aG9uJywgJy1waCcsICc3LjAnLCAnLXRuJywgJzgnLCAnLW1hJywgJzIwMCcsICctbWV0YWxfYmluZGluZycsICctaW1hZScsICc8aW5maWxlLm1hZT4nLCAnLW9tYWUnLCAnPG91dGZpbGUubWFlPic=

> <r_lp_tautomer_probability>
1

> <r_epik_Ionization_Penalty>
4.39121

> <r_epik_Ionization_Penalty_Charging>
3.39398

> <r_epik_Ionization_Penalty_Neutral>
0.997232

> <r_epik_State_Penalty>
3.39839

> <r_epik_Charging_Adjusted_Penalty>
6.79237

> <i_epik_Tot_Q>
-1

> <i_epik_Tot_abs_Q>
1

> <r_epik_Metal_State_Penalty>
0.497663

> <b_epik_Metal_Only>
1

> <s_epik_Chemistry_Notes>
This compound has an ester and may undergo hydrolysis at high or low pH. This compound contains an acetal/aminal-like group ( X-CH(R)-Y where X, Y are N, S, or O) that may be acid/base labile, releasing an aldehyde.

> <s_lp_Force_Field>
OPLS_2005

> <r_lp_Energy>
42.9132

> <b_lp_Chiralities_Consistent>
1

> <s_lp_Variant>
AV-unprocessed.smi:1-17

> <Gold.Version>
5.8.1

> <Gold.Id.Protein>
6NUR|6NUR_protein|mol2

> <Gold.PLP.Fitness>
52.4401

> <Gold.PLP.PLP>
-48.0884

> <Gold.PLP.part.hbond>
-3.3420

> <Gold.PLP.part.metal>
0.0000

> <Gold.PLP.part.buried>
-8.6361

> <Gold.PLP.part.nonpolar>
-36.1291

> <Gold.PLP.part.repulsive>
0.1304

> <Gold.PLP.ligand.clash>
0.0000

> <Gold.PLP.ligand.torsion>
1.9581

> <Gold.PLP.Chemscore.Hbond>
2.6000

> <Gold.PLP.Chemscore.CHOScore>
0.0000

> <Gold.PLP.Chemscore.Metal>
0.0000

> <Gold.Chemscore.Hbonds>
donor molecule, donor type, donor heavy atom, donor atom, acceptor molecule, acceptor atom, score
      P1  H  6934  6947       L1    29  1.00
      P1  H  7997  8010       L1     3  1.60

> <Gold.PLP.Chemscore.Internal.Correction>
0.4679

> <Gold.Rescore>
     Score         DG    S(hbond)    S(metal)    S(lipo)     H(rot)  DE(clash)    DE(int)     intcor
     16.86     -18.71       1.70        0.00     110.64       2.11       0.15       1.70       ----

> <Gold.Chemscore.Fitness>
16.8583

> <Gold.Chemscore.DG>
-18.7064

> <Gold.Chemscore.ZeroCoef>
-5.4800

> <Gold.Chemscore.Hbond>
1.7043

> <Gold.Chemscore.Metal>
0.0000

> <Gold.Chemscore.Lipo>
110.6385

> <Gold.Chemscore.Internal_Hbond>
0.0000

> <Gold.Chemscore.DEClash>
0.1459

> <Gold.Chemscore.DEInternal>
1.7021

> <Gold.Chemscore.Rot>
2.1136

> <Gold.Chemscore.Internal.Correction>
   9.000000E+99

> <Gold.Chemscore.Hbonds>
donor molecule, donor type, donor heavy atom, donor atom, acceptor molecule, acceptor atom, score
      P1  H  6934  6947       L1    29  0.98
      P1  H  7997  8010       L1     3  0.11

> <Gold.Chemscore.Hbond.Weighted>
-5.6924

> <Gold.Chemscore.Metal.Weighted>
-0.0000

> <Gold.Chemscore.Lipo.Weighted>
-12.9447

> <Gold.Chemscore.Internal_Hbond.Weighted>
0.0000

> <Gold.Chemscore.DEClash.Weighted>
0.1459

> <Gold.Chemscore.DEInternal.Weighted>
1.7021

> <Gold.Chemscore.Rot.Weighted>
5.4107

> <Gold.Chemscore.Internal.Correction.Weighted>
   9.000000E+99

> <Gold.Protein.RotatedTorsions>
[ 6907 6896 6895 6894 ] final  -23.25 input  -60.11 | X-H torsion
[ 7974 7965 7964 7962 ] final -159.56 input  175.53 | X-H torsion
[ 8008 7997 7996 7995 ] final   39.76 input   59.86 | X-H torsion
[ 10167 10162 10161 10158 ] final -161.49 input  -65.29 | X-H torsion
[ 10718 10713 10712 10709 ] final   -5.87 input   66.30 | X-H torsion
[ 10763 10752 10751 10750 ] final  -44.09 input  -60.55 | X-H torsion
[ 11005 11000 10999 10996 ] final   41.63 input  -57.11 | X-H torsion

> <Gold.Protein.ActiveResidues>
 VAL166  LYS551  ARG553  GLY616  TRP617  ASP618  TYR619  PRO620  LYS621  CYS622 
 ASP623  PHE694  ASN695  SER759  ASP760  ASP761  ALA762  ILE779  LEU786  VAL792 
 PHE793  MET794  SER795  GLU796  ALA797  LYS798  CYS799  TRP800  GLU811  SER814 

> <Gold.Protein.RotatedAtoms>
  151.2068  135.0465  159.8894 H   0  0  0  0  0  0  0  0  0  0  0  0  # atno 6907 bound_to 6896
  152.5428  134.0789  159.8237 H   0  0  0  0  0  0  0  0  0  0  0  0  # atno 6908 bound_to 6896
  151.0937  133.5248  159.2645 H   0  0  0  0  0  0  0  0  0  0  0  0  # atno 6909 bound_to 6896
  144.7460  140.3667  143.6084 H   0  0  0  0  0  0  0  0  0  0  0  0  # atno 7974 bound_to 7965
  155.2420  140.3346  155.4291 H   0  0  0  0  0  0  0  0  0  0  0  0  # atno 8008 bound_to 7997
  156.2252  140.1826  156.7426 H   0  0  0  0  0  0  0  0  0  0  0  0  # atno 8009 bound_to 7997
  154.5887  140.0641  156.9193 H   0  0  0  0  0  0  0  0  0  0  0  0  # atno 8010 bound_to 7997
  139.6461  144.0169  152.2128 H   0  0  0  0  0  0  0  0  0  0  0  0  # atno 10167 bound_to 10162
  156.7402  130.5207  149.5826 H   0  0  0  0  0  0  0  0  0  0  0  0  # atno 10718 bound_to 10713
  154.0064  135.6687  153.4762 H   0  0  0  0  0  0  0  0  0  0  0  0  # atno 10763 bound_to 10752
  153.0640  135.5011  154.8154 H   0  0  0  0  0  0  0  0  0  0  0  0  # atno 10764 bound_to 10752
  154.7022  135.3081  154.9287 H   0  0  0  0  0  0  0  0  0  0  0  0  # atno 10765 bound_to 10752
  140.1816  134.4097  155.8197 H   0  0  0  0  0  0  0  0  0  0  0  0  # atno 11005 bound_to 11000
  145.7120  139.1687  143.2533 LP  0  0  0  0  0  0  0  0  0  0  0  0  # atno 17320 bound_to 7965
  146.1340  140.7148  142.9399 LP  0  0  0  0  0  0  0  0  0  0  0  0  # atno 17321 bound_to 7965
  139.9871  144.6387  150.7847 LP  0  0  0  0  0  0  0  0  0  0  0  0  # atno 17342 bound_to 10162
  140.7515  143.2974  151.3169 LP  0  0  0  0  0  0  0  0  0  0  0  0  # atno 17343 bound_to 10162
  156.1469  130.6283  151.0544 LP  0  0  0  0  0  0  0  0  0  0  0  0  # atno 17370 bound_to 10713
  157.6821  131.0835  150.7340 LP  0  0  0  0  0  0  0  0  0  0  0  0  # atno 17371 bound_to 10713
  141.2223  133.7003  156.7940 LP  0  0  0  0  0  0  0  0  0  0  0  0  # atno 17394 bound_to 11000
  140.2261  134.8721  157.3428 LP  0  0  0  0  0  0  0  0  0  0  0  0  # atno 17395 bound_to 11000

$$$$
