AV-unprocessed.smi:2754|AV-procd|sdf|10616|dock4
  -GOLD-   2272015 63D 1   1.00000     0.00000
 Structure written by MMmdl.
 28 29  0  0  0  0  0  0  0  0  2 V2000
  154.4583  138.4215  154.3200 N   0  0  0  0  0  0  0  0  0  0  0  0
  153.1249  138.4964  154.6383 C   0  0  0  0  0  0  0  0  0  0  0  0
  152.3182  137.6151  154.0443 N   0  0  0  0  0  0  0  0  0  0  0  0
  151.0060  137.6845  154.3567 C   0  0  0  0  0  0  0  0  0  0  0  0
  150.5085  138.6419  155.2645 C   0  0  0  0  0  0  0  0  0  0  0  0
  151.4577  139.5222  155.8281 C   0  0  0  0  0  0  0  0  0  0  0  0
  151.0457  140.6018  156.8189 C   0  0  1  0  0  0  0  0  0  0  0  0
  152.2127  141.0364  157.7272 C   0  0  0  0  0  0  0  0  0  0  0  0
  151.7553  142.1306  158.7043 C   0  0  0  0  0  0  0  0  0  0  0  0
  151.1183  143.3098  157.9503 C   0  0  0  0  0  0  0  0  0  0  0  0
  149.9980  142.8451  157.1036 N   0  3  0  0  0  0  0  0  0  0  0  0
  150.4039  141.8183  156.1185 C   0  0  0  0  0  0  0  0  0  0  0  0
  152.7708  139.4441  155.5092 N   0  0  0  0  0  0  0  0  0  0  0  0
  155.1171  139.0628  154.7375 H   0  0  0  0  0  0  0  0  0  0  0  0
  154.7746  137.8023  153.5880 H   0  0  0  0  0  0  0  0  0  0  0  0
  150.3489  136.9730  153.8788 H   0  0  0  0  0  0  0  0  0  0  0  0
  149.4577  138.6912  155.5096 H   0  0  0  0  0  0  0  0  0  0  0  0
  150.2829  140.1632  157.4645 H   0  0  0  0  0  0  0  0  0  0  0  0
  152.5995  140.1806  158.2813 H   0  0  0  0  0  0  0  0  0  0  0  0
  153.0382  141.4153  157.1228 H   0  0  0  0  0  0  0  0  0  0  0  0
  151.0356  141.7146  159.4107 H   0  0  0  0  0  0  0  0  0  0  0  0
  152.6023  142.4795  159.2957 H   0  0  0  0  0  0  0  0  0  0  0  0
  150.7463  144.0533  158.6558 H   0  0  0  0  0  0  0  0  0  0  0  0
  151.8606  143.8070  157.3243 H   0  0  0  0  0  0  0  0  0  0  0  0
  149.2851  142.4530  157.7022 H   0  0  0  0  0  0  0  0  0  0  0  0
  151.1000  142.2680  155.4091 H   0  0  0  0  0  0  0  0  0  0  0  0
  149.5255  141.5095  155.5509 H   0  0  0  0  0  0  0  0  0  0  0  0
  149.6096  143.6364  156.6102 H   0  0  0  0  0  0  0  0  0  0  0  0
  1  2  1  0  0  0  0
  1 14  1  0  0  0  0
  1 15  1  0  0  0  0
  2 13  1  0  0  0  0
  2  3  2  0  0  0  0
  3  4  1  0  0  0  0
  4  5  2  0  0  0  0
  4 16  1  0  0  0  0
  5  6  1  0  0  0  0
  5 17  1  0  0  0  0
  6  7  1  0  0  0  0
  6 13  2  0  0  0  0
  7 12  1  0  0  0  0
  7  8  1  0  0  0  0
  7 18  1  0  0  0  0
  8  9  1  0  0  0  0
  8 19  1  0  0  0  0
  8 20  1  0  0  0  0
  9 10  1  0  0  0  0
  9 21  1  0  0  0  0
  9 22  1  0  0  0  0
 10 11  1  0  0  0  0
 10 23  1  0  0  0  0
 10 24  1  0  0  0  0
 11 12  1  0  0  0  0
 11 25  1  0  0  0  0
 11 28  1  0  0  0  0
 12 26  1  0  0  0  0
 12 27  1  0  0  0  0
M  CHG  1  11   1
M  END
> <s_m_source_file>
AV-unprocessed.smi

> <i_m_source_file_index>
2754

> <i_lp_mmshare_version>
43012

> <i_f3d_flags>
0

> <s_epik_input>
W05IMl1jMW5bY0hdW2NIXWMobjEpW0NAQEhdMltDSDJdW0NIMl1bQ0gyXVtOSF1bQ0gyXTI=

> <s_epik_cmdline>
J2VwaWtfcHl0aG9uJywgJy1waCcsICc3LjAnLCAnLXRuJywgJzgnLCAnLW1hJywgJzIwMCcsICctbWV0YWxfYmluZGluZycsICctaW1hZScsICc8aW5maWxlLm1hZT4nLCAnLW9tYWUnLCAnPG91dGZpbGUubWFlPic=

> <r_lp_tautomer_probability>
1

> <r_epik_Ionization_Penalty>
0.000528025

> <r_epik_Ionization_Penalty_Charging>
0.000372054

> <r_epik_Ionization_Penalty_Neutral>
0.000155972

> <r_epik_State_Penalty>
-0

> <r_epik_Charging_Adjusted_Penalty>
0.000372054

> <i_epik_Tot_Q>
1

> <i_epik_Tot_abs_Q>
1

> <r_epik_Metal_State_Penalty>
-0

> <b_epik_Metal_Only>
0

> <s_lp_Force_Field>
OPLS_2005

> <r_lp_Energy>
4.9837

> <b_lp_Chiralities_Consistent>
1

> <s_lp_Variant>
AV-unprocessed.smi:2754-2

> <Gold.Version>
5.8.1

> <Gold.Id.Protein>
6NUR|6NUR_protein|mol2

> <Gold.PLP.Fitness>
37.3414

> <Gold.PLP.PLP>
-24.2396

> <Gold.PLP.part.hbond>
-3.0000

> <Gold.PLP.part.metal>
0.0000

> <Gold.PLP.part.buried>
-4.6475

> <Gold.PLP.part.nonpolar>
-18.4411

> <Gold.PLP.part.repulsive>
1.3211

> <Gold.PLP.ligand.clash>
0.0000

> <Gold.PLP.ligand.torsion>
0.5816

> <Gold.PLP.Chemscore.Hbond>
3.7520

> <Gold.PLP.Chemscore.CHOScore>
0.9913

> <Gold.PLP.Chemscore.Metal>
0.0000

> <Gold.Chemscore.Hbonds>
donor molecule, donor type, donor heavy atom, donor atom, acceptor molecule, acceptor atom, score
      L1  H    11    28       P1  8028  2.00
      P1  H  7997  8010       L1    13  1.00
      P1  H 10752 10763       L1     3  0.77
      L1  C     4    16       P1  7948  0.84
      L1  C     4    16       P1  7949  0.16

> <Gold.PLP.Chemscore.Internal.Correction>
0.0352

> <Gold.Rescore>
     Score         DG    S(hbond)    S(metal)    S(lipo)     H(rot)  DE(clash)    DE(int)     intcor
     16.54     -18.15       2.55        0.00      57.43       1.00       0.93       0.67       ----

> <Gold.Chemscore.Fitness>
16.5449

> <Gold.Chemscore.DG>
-18.1465

> <Gold.Chemscore.ZeroCoef>
-5.4800

> <Gold.Chemscore.Hbond>
2.5472

> <Gold.Chemscore.Metal>
0.0000

> <Gold.Chemscore.Lipo>
57.4261

> <Gold.Chemscore.Internal_Hbond>
0.0000

> <Gold.Chemscore.DEClash>
0.9271

> <Gold.Chemscore.DEInternal>
0.6745

> <Gold.Chemscore.Rot>
1.0000

> <Gold.Chemscore.Internal.Correction>
   9.000000E+99

> <Gold.Chemscore.Hbonds>
donor molecule, donor type, donor heavy atom, donor atom, acceptor molecule, acceptor atom, score
      L1  H    11    28       P1  8028  0.99
      P1  H  7997  8010       L1    13  0.65
      P1  H 10752 10763       L1     3  0.50

> <Gold.Chemscore.Hbond.Weighted>
-8.5076

> <Gold.Chemscore.Metal.Weighted>
-0.0000

> <Gold.Chemscore.Lipo.Weighted>
-6.7189

> <Gold.Chemscore.Internal_Hbond.Weighted>
0.0000

> <Gold.Chemscore.DEClash.Weighted>
0.9271

> <Gold.Chemscore.DEInternal.Weighted>
0.6745

> <Gold.Chemscore.Rot.Weighted>
2.5600

> <Gold.Chemscore.Internal.Correction.Weighted>
   9.000000E+99

> <Gold.Protein.RotatedTorsions>
[ 6907 6896 6895 6894 ] final   16.55 input  -60.11 | X-H torsion
[ 7974 7965 7964 7962 ] final  158.04 input  175.53 | X-H torsion
[ 8008 7997 7996 7995 ] final   78.89 input   59.86 | X-H torsion
[ 10167 10162 10161 10158 ] final  178.80 input  -65.29 | X-H torsion
[ 10718 10713 10712 10709 ] final    3.77 input   66.30 | X-H torsion
[ 10763 10752 10751 10750 ] final   31.88 input  -60.55 | X-H torsion
[ 11005 11000 10999 10996 ] final  -35.91 input  -57.11 | X-H torsion

> <Gold.Protein.ActiveResidues>
 VAL166  LYS551  ARG553  GLY616  TRP617  ASP618  TYR619  PRO620  LYS621  CYS622 
 ASP623  PHE694  ASN695  SER759  ASP760  ASP761  ALA762  ILE779  LEU786  VAL792 
 PHE793  MET794  SER795  GLU796  ALA797  LYS798  CYS799  TRP800  GLU811  SER814 

> <Gold.Protein.RotatedAtoms>
  151.8356  135.0607  160.0441 H   0  0  0  0  0  0  0  0  0  0  0  0  # atno 6907 bound_to 6896
  152.2847  133.5499  159.5528 H   0  0  0  0  0  0  0  0  0  0  0  0  # atno 6908 bound_to 6896
  150.7204  134.0430  159.3814 H   0  0  0  0  0  0  0  0  0  0  0  0  # atno 6909 bound_to 6896
  144.7869  139.7423  143.6237 H   0  0  0  0  0  0  0  0  0  0  0  0  # atno 7974 bound_to 7965
  155.8620  140.3453  155.5763 H   0  0  0  0  0  0  0  0  0  0  0  0  # atno 8008 bound_to 7997
  155.7923  140.0873  157.2022 H   0  0  0  0  0  0  0  0  0  0  0  0  # atno 8009 bound_to 7997
  154.4012  140.1481  156.3164 H   0  0  0  0  0  0  0  0  0  0  0  0  # atno 8010 bound_to 7997
  139.5309  144.2637  152.0685 H   0  0  0  0  0  0  0  0  0  0  0  0  # atno 10167 bound_to 10162
  156.8827  130.5659  149.5652 H   0  0  0  0  0  0  0  0  0  0  0  0  # atno 10718 bound_to 10713
  153.0292  135.6427  154.1268 H   0  0  0  0  0  0  0  0  0  0  0  0  # atno 10763 bound_to 10752
  154.0993  135.2860  155.3256 H   0  0  0  0  0  0  0  0  0  0  0  0  # atno 10764 bound_to 10752
  154.6410  135.5459  153.7852 H   0  0  0  0  0  0  0  0  0  0  0  0  # atno 10765 bound_to 10752
  140.9833  133.7044  156.1722 H   0  0  0  0  0  0  0  0  0  0  0  0  # atno 11005 bound_to 11000
  146.2104  139.5456  142.9685 LP  0  0  0  0  0  0  0  0  0  0  0  0  # atno 17320 bound_to 7965
  145.5899  141.0371  143.2076 LP  0  0  0  0  0  0  0  0  0  0  0  0  # atno 17321 bound_to 7965
  140.2101  144.4572  150.6390 LP  0  0  0  0  0  0  0  0  0  0  0  0  # atno 17342 bound_to 10162
  140.6486  143.2219  151.6129 LP  0  0  0  0  0  0  0  0  0  0  0  0  # atno 17343 bound_to 10162
  156.0669  130.5710  150.9306 LP  0  0  0  0  0  0  0  0  0  0  0  0  # atno 17370 bound_to 10713
  157.6131  131.0935  150.8760 LP  0  0  0  0  0  0  0  0  0  0  0  0  # atno 17371 bound_to 10713
  140.7152  134.4418  157.5579 LP  0  0  0  0  0  0  0  0  0  0  0  0  # atno 17394 bound_to 11000
  139.8960  134.8670  156.2108 LP  0  0  0  0  0  0  0  0  0  0  0  0  # atno 17395 bound_to 11000

$$$$
