AV-unprocessed.smi:1563|AV-procd|sdf|6292|dock8
  -GOLD-   22720 6493D 1   1.00000     0.00000
 Structure written by MMmdl.
 44 45  0  0  0  0  0  0  0  0  2 V2000
  148.7421  141.4891  154.7722 C   0  0  0  0  0  0  0  0  0  0  0  0
  149.7834  141.4229  155.8837 C   0  0  0  0  0  0  0  0  0  0  0  0
  150.1380  140.3331  156.3335 O   0  0  0  0  0  0  0  0  0  0  0  0
  150.2620  142.5981  156.3201 N   0  0  0  0  0  0  0  0  0  0  0  0
  151.2577  142.7551  157.3741 C   0  0  1  0  0  0  0  0  0  0  0  0
  151.9604  144.1290  157.2720 C   0  0  0  0  0  0  0  0  0  0  0  0
  152.8900  144.3951  158.4743 C   0  0  0  0  0  0  0  0  0  0  0  0
  152.1758  144.1024  159.8072 C   0  0  0  0  0  0  0  0  0  0  0  0
  151.6623  142.7240  159.7663 N   0  0  0  0  0  0  0  0  0  0  0  0
  152.2390  141.6360  160.3344 C   0  0  0  0  0  0  0  0  0  0  0  0
  152.0399  140.4860  159.9398 O   0  0  0  0  0  0  0  0  0  0  0  0
  153.1232  141.9138  161.3095 N   0  0  0  0  0  0  0  0  0  0  0  0
  154.0399  140.9525  161.9197 C   0  0  0  0  0  0  0  0  0  0  0  0
  153.8153  140.8129  163.4408 C   0  0  0  0  0  0  0  0  0  0  0  0
  154.0756  142.0884  164.2266 C   0  0  0  0  0  0  0  0  0  0  0  0
  153.3806  143.2895  163.9626 C   0  0  0  0  0  0  0  0  0  0  0  0
  153.6995  144.4482  164.7009 C   0  0  0  0  0  0  0  0  0  0  0  0
  154.7048  144.3826  165.6871 C   0  0  0  0  0  0  0  0  0  0  0  0
  155.3602  143.1556  165.9167 C   0  0  0  0  0  0  0  0  0  0  0  0
  155.0244  142.0667  165.1906 N   0  3  0  0  0  0  0  0  0  0  0  0
  150.6036  142.5879  158.7602 C   0  0  0  0  0  0  0  0  0  0  0  0
  149.0532  142.1850  153.9927 H   0  0  0  0  0  0  0  0  0  0  0  0
  147.7842  141.8231  155.1713 H   0  0  0  0  0  0  0  0  0  0  0  0
  148.6003  140.5090  154.3158 H   0  0  0  0  0  0  0  0  0  0  0  0
  149.9113  143.4428  155.8920 H   0  0  0  0  0  0  0  0  0  0  0  0
  152.0082  141.9703  157.2697 H   0  0  0  0  0  0  0  0  0  0  0  0
  152.5261  144.1994  156.3424 H   0  0  0  0  0  0  0  0  0  0  0  0
  151.2057  144.9158  157.2331 H   0  0  0  0  0  0  0  0  0  0  0  0
  153.7771  143.7667  158.3937 H   0  0  0  0  0  0  0  0  0  0  0  0
  153.2408  145.4271  158.4535 H   0  0  0  0  0  0  0  0  0  0  0  0
  152.8416  144.2921  160.6497 H   0  0  0  0  0  0  0  0  0  0  0  0
  151.3420  144.7935  159.9399 H   0  0  0  0  0  0  0  0  0  0  0  0
  153.2299  142.8798  161.5836 H   0  0  0  0  0  0  0  0  0  0  0  0
  153.8968  139.9851  161.4381 H   0  0  0  0  0  0  0  0  0  0  0  0
  155.0749  141.2356  161.7215 H   0  0  0  0  0  0  0  0  0  0  0  0
  152.7881  140.4953  163.6243 H   0  0  0  0  0  0  0  0  0  0  0  0
  154.4503  140.0187  163.8349 H   0  0  0  0  0  0  0  0  0  0  0  0
  152.6214  143.3291  163.1954 H   0  0  0  0  0  0  0  0  0  0  0  0
  153.1877  145.3793  164.5058 H   0  0  0  0  0  0  0  0  0  0  0  0
  154.9706  145.2618  166.2557 H   0  0  0  0  0  0  0  0  0  0  0  0
  156.1420  143.0151  166.6485 H   0  0  0  0  0  0  0  0  0  0  0  0
  149.8383  143.3493  158.9203 H   0  0  0  0  0  0  0  0  0  0  0  0
  150.0855  141.6297  158.8243 H   0  0  0  0  0  0  0  0  0  0  0  0
  155.5219  141.1933  165.3655 H   0  0  0  0  0  0  0  0  0  0  0  0
  1  2  1  0  0  0  0
  1 22  1  0  0  0  0
  1 23  1  0  0  0  0
  1 24  1  0  0  0  0
  2  3  2  0  0  0  0
  2  4  1  0  0  0  0
  4  5  1  0  0  0  0
  4 25  1  0  0  0  0
  5 21  1  0  0  0  0
  5  6  1  0  0  0  0
  5 26  1  0  0  0  0
  6  7  1  0  0  0  0
  6 27  1  0  0  0  0
  6 28  1  0  0  0  0
  7  8  1  0  0  0  0
  7 29  1  0  0  0  0
  7 30  1  0  0  0  0
  8  9  1  0  0  0  0
  8 31  1  0  0  0  0
  8 32  1  0  0  0  0
  9 10  1  0  0  0  0
  9 21  1  0  0  0  0
 10 11  2  0  0  0  0
 10 12  1  0  0  0  0
 12 13  1  0  0  0  0
 12 33  1  0  0  0  0
 13 14  1  0  0  0  0
 13 34  1  0  0  0  0
 13 35  1  0  0  0  0
 14 15  1  0  0  0  0
 14 36  1  0  0  0  0
 14 37  1  0  0  0  0
 15 20  1  0  0  0  0
 15 16  2  0  0  0  0
 16 17  1  0  0  0  0
 16 38  1  0  0  0  0
 17 18  2  0  0  0  0
 17 39  1  0  0  0  0
 18 19  1  0  0  0  0
 18 40  1  0  0  0  0
 19 20  2  0  0  0  0
 19 41  1  0  0  0  0
 20 44  1  0  0  0  0
 21 42  1  0  0  0  0
 21 43  1  0  0  0  0
M  CHG  1  20   1
M  END
> <s_m_source_file>
AV-unprocessed.smi

> <i_m_source_file_index>
1563

> <i_lp_mmshare_version>
43012

> <i_f3d_flags>
0

> <s_epik_input>
W0NIM11DKD1PKVtOSF1bQ0BASF0xW0NIMl1bQ0gyXVtDSDJdTihbQ0gyXTEpQyg9TylbTkhdW0NIMl1bQ0gyXWMyW2NIXVtjSF1bY0hdW2NIXW4y

> <s_epik_cmdline>
J2VwaWtfcHl0aG9uJywgJy1waCcsICc3LjAnLCAnLXRuJywgJzgnLCAnLW1hJywgJzIwMCcsICctbWV0YWxfYmluZGluZycsICctaW1hZScsICc8aW5maWxlLm1hZT4nLCAnLW9tYWUnLCAnPG91dGZpbGUubWFlPic=

> <r_epik_Ionization_Penalty>
1.56048

> <r_epik_Ionization_Penalty_Charging>
1.56043

> <r_epik_Ionization_Penalty_Neutral>
4.90601e-05

> <r_epik_State_Penalty>
1.65539

> <r_epik_Charging_Adjusted_Penalty>
3.21583

> <i_epik_Tot_Q>
1

> <i_epik_Tot_abs_Q>
1

> <r_epik_Metal_State_Penalty>
1.6969

> <b_epik_Metal_Only>
0

> <s_lp_Force_Field>
OPLS_2005

> <r_lp_Energy>
29.938

> <b_lp_Chiralities_Consistent>
1

> <s_lp_Variant>
AV-unprocessed.smi:1563-4

> <Gold.Version>
5.8.1

> <Gold.Id.Protein>
6NUR|6NUR_protein|mol2

> <Gold.PLP.Fitness>
50.4850

> <Gold.PLP.PLP>
-48.2112

> <Gold.PLP.part.hbond>
-2.0000

> <Gold.PLP.part.metal>
0.0000

> <Gold.PLP.part.buried>
-1.7955

> <Gold.PLP.part.nonpolar>
-43.9458

> <Gold.PLP.part.repulsive>
0.1658

> <Gold.PLP.ligand.clash>
0.0102

> <Gold.PLP.ligand.torsion>
0.3970

> <Gold.PLP.Chemscore.Hbond>
1.0000

> <Gold.PLP.Chemscore.CHOScore>
0.0000

> <Gold.PLP.Chemscore.Metal>
0.0000

> <Gold.Chemscore.Hbonds>
donor molecule, donor type, donor heavy atom, donor atom, acceptor molecule, acceptor atom, score
      L1  H     4    25       P1  8028  1.00

> <Gold.PLP.Chemscore.Internal.Correction>
0.0780

> <Gold.Rescore>
     Score         DG    S(hbond)    S(metal)    S(lipo)     H(rot)  DE(clash)    DE(int)     intcor
     18.08     -19.37       0.99        0.00     129.04       1.77       0.29       0.99       ----

> <Gold.Chemscore.Fitness>
18.0826

> <Gold.Chemscore.DG>
-19.3679

> <Gold.Chemscore.ZeroCoef>
-5.4800

> <Gold.Chemscore.Hbond>
0.9914

> <Gold.Chemscore.Metal>
0.0000

> <Gold.Chemscore.Lipo>
129.0402

> <Gold.Chemscore.Internal_Hbond>
0.0000

> <Gold.Chemscore.DEClash>
0.2909

> <Gold.Chemscore.DEInternal>
0.9944

> <Gold.Chemscore.Rot>
1.7661

> <Gold.Chemscore.Internal.Correction>
   9.000000E+99

> <Gold.Chemscore.Hbonds>
donor molecule, donor type, donor heavy atom, donor atom, acceptor molecule, acceptor atom, score
      L1  H     4    25       P1  8028  0.99

> <Gold.Chemscore.Hbond.Weighted>
-3.3113

> <Gold.Chemscore.Metal.Weighted>
-0.0000

> <Gold.Chemscore.Lipo.Weighted>
-15.0977

> <Gold.Chemscore.Internal_Hbond.Weighted>
0.0000

> <Gold.Chemscore.DEClash.Weighted>
0.2909

> <Gold.Chemscore.DEInternal.Weighted>
0.9944

> <Gold.Chemscore.Rot.Weighted>
4.5211

> <Gold.Chemscore.Internal.Correction.Weighted>
   9.000000E+99

> <Gold.Protein.RotatedTorsions>
[ 6907 6896 6895 6894 ] final  -59.19 input  -60.11 | X-H torsion
[ 7974 7965 7964 7962 ] final   67.48 input  175.53 | X-H torsion
[ 8008 7997 7996 7995 ] final   27.86 input   59.86 | X-H torsion
[ 10167 10162 10161 10158 ] final   60.65 input  -65.29 | X-H torsion
[ 10718 10713 10712 10709 ] final -131.88 input   66.30 | X-H torsion
[ 10763 10752 10751 10750 ] final -102.88 input  -60.55 | X-H torsion
[ 11005 11000 10999 10996 ] final   68.36 input  -57.11 | X-H torsion

> <Gold.Protein.ActiveResidues>
 VAL166  LYS551  ARG553  GLY616  TRP617  ASP618  TYR619  PRO620  LYS621  CYS622 
 ASP623  PHE694  ASN695  SER759  ASP760  ASP761  ALA762  ILE779  LEU786  VAL792 
 PHE793  MET794  SER795  GLU796  ALA797  LYS798  CYS799  TRP800  GLU811  SER814 

> <Gold.Protein.RotatedAtoms>
  150.7949  134.7000  159.6544 H   0  0  0  0  0  0  0  0  0  0  0  0  # atno 6907 bound_to 6896
  152.4060  134.6203  160.0059 H   0  0  0  0  0  0  0  0  0  0  0  0  # atno 6908 bound_to 6896
  151.6461  133.3286  159.3177 H   0  0  0  0  0  0  0  0  0  0  0  0  # atno 6909 bound_to 6896
  145.8141  139.3048  143.1082 H   0  0  0  0  0  0  0  0  0  0  0  0  # atno 7974 bound_to 7965
  155.0496  140.3178  155.4696 H   0  0  0  0  0  0  0  0  0  0  0  0  # atno 8008 bound_to 7997
  156.2837  140.2148  156.5565 H   0  0  0  0  0  0  0  0  0  0  0  0  # atno 8009 bound_to 7997
  154.7221  140.0488  157.0637 H   0  0  0  0  0  0  0  0  0  0  0  0  # atno 8010 bound_to 7997
  140.1633  144.4349  150.6698 H   0  0  0  0  0  0  0  0  0  0  0  0  # atno 10167 bound_to 10162
  156.2289  130.7025  151.0837 H   0  0  0  0  0  0  0  0  0  0  0  0  # atno 10718 bound_to 10713
  154.7766  135.4844  153.9758 H   0  0  0  0  0  0  0  0  0  0  0  0  # atno 10763 bound_to 10752
  153.1438  135.6778  153.8994 H   0  0  0  0  0  0  0  0  0  0  0  0  # atno 10764 bound_to 10752
  153.8660  135.3149  155.3418 H   0  0  0  0  0  0  0  0  0  0  0  0  # atno 10765 bound_to 10752
  139.9716  134.6891  156.0436 H   0  0  0  0  0  0  0  0  0  0  0  0  # atno 11005 bound_to 11000
  145.9746  140.8733  143.0145 LP  0  0  0  0  0  0  0  0  0  0  0  0  # atno 17320 bound_to 7965
  144.6754  140.1993  143.7388 LP  0  0  0  0  0  0  0  0  0  0  0  0  # atno 17321 bound_to 7965
  140.6629  143.2258  151.5813 LP  0  0  0  0  0  0  0  0  0  0  0  0  # atno 17342 bound_to 10162
  139.5371  144.2750  152.1274 LP  0  0  0  0  0  0  0  0  0  0  0  0  # atno 17343 bound_to 10162
  157.7123  131.0727  150.6454 LP  0  0  0  0  0  0  0  0  0  0  0  0  # atno 17370 bound_to 10713
  156.6521  130.4488  149.5716 LP  0  0  0  0  0  0  0  0  0  0  0  0  # atno 17371 bound_to 10713
  141.1395  133.6568  156.3689 LP  0  0  0  0  0  0  0  0  0  0  0  0  # atno 17394 bound_to 11000
  140.5282  134.6238  157.5341 LP  0  0  0  0  0  0  0  0  0  0  0  0  # atno 17395 bound_to 11000

$$$$
