AV-unprocessed.smi:3169|AV-procd|sdf|12105|dock6
  -GOLD-   2272017543D 1   1.00000     0.00000
 Structure written by MMmdl.
 35 36  0  0  0  0  0  0  0  0  1 V2000
  145.9882  138.2443  154.5606 O   0  0  0  0  0  0  0  0  0  0  0  0
  146.6689  137.8701  153.6056 C   0  0  0  0  0  0  0  0  0  0  0  0
  146.2609  136.9715  152.6999 N   0  0  0  0  0  0  0  0  0  0  0  0
  144.9493  136.3313  152.6865 C   0  0  0  0  0  0  0  0  0  0  0  0
  144.5579  135.8309  151.2835 C   0  0  0  0  0  0  0  0  0  0  0  0
  144.9242  134.4427  151.0746 N   0  0  0  0  0  0  0  0  0  0  0  0
  146.2050  133.9064  151.0647 C   0  0  0  0  0  0  0  0  0  0  0  0
  146.0644  132.5586  150.8222 C   0  0  0  0  0  0  0  0  0  0  0  0
  144.7146  132.2454  150.6815 N   0  0  0  0  0  0  0  0  0  0  0  0
  144.1009  133.4102  150.8455 C   0  0  0  0  0  0  0  0  0  0  0  0
  147.9059  138.3124  153.3417 N   0  0  0  0  0  0  0  0  0  0  0  0
  148.6425  139.2875  154.1387 C   0  0  0  0  0  0  0  0  0  0  0  0
  150.1621  139.1251  153.9695 C   0  0  2  0  0  0  0  0  0  0  0  0
  150.7466  137.8380  154.5515 C   0  0  0  0  0  0  0  0  0  0  0  0
  152.1918  138.2312  154.7528 C   0  0  0  0  0  0  0  0  0  0  0  0
  152.0610  139.6797  155.2174 C   0  0  0  0  0  0  0  0  0  0  0  0
  150.8504  140.1726  154.6468 O   0  0  0  0  0  0  0  0  0  0  0  0
  146.8951  136.7252  151.9538 H   0  0  0  0  0  0  0  0  0  0  0  0
  144.9667  135.4973  153.3886 H   0  0  0  0  0  0  0  0  0  0  0  0
  144.1965  137.0284  153.0576 H   0  0  0  0  0  0  0  0  0  0  0  0
  143.4801  135.9226  151.1452 H   0  0  0  0  0  0  0  0  0  0  0  0
  145.0234  136.4410  150.5081 H   0  0  0  0  0  0  0  0  0  0  0  0
  147.0851  134.5116  151.2241 H   0  0  0  0  0  0  0  0  0  0  0  0
  146.8250  131.7965  150.7378 H   0  0  0  0  0  0  0  0  0  0  0  0
  143.0272  133.5168  150.7906 H   0  0  0  0  0  0  0  0  0  0  0  0
  148.3787  137.9427  152.5300 H   0  0  0  0  0  0  0  0  0  0  0  0
  148.3449  140.2809  153.8021 H   0  0  0  0  0  0  0  0  0  0  0  0
  148.3654  139.2281  155.1927 H   0  0  0  0  0  0  0  0  0  0  0  0
  150.4271  139.1927  152.9130 H   0  0  0  0  0  0  0  0  0  0  0  0
  150.2852  137.6048  155.5123 H   0  0  0  0  0  0  0  0  0  0  0  0
  150.6246  136.9772  153.8938 H   0  0  0  0  0  0  0  0  0  0  0  0
  152.7155  137.5979  155.4693 H   0  0  0  0  0  0  0  0  0  0  0  0
  152.7256  138.1875  153.8025 H   0  0  0  0  0  0  0  0  0  0  0  0
  151.9739  139.7266  156.3035 H   0  0  0  0  0  0  0  0  0  0  0  0
  152.9164  140.2871  154.9206 H   0  0  0  0  0  0  0  0  0  0  0  0
  1  2  2  0  0  0  0
  2  3  1  0  0  0  0
  2 11  1  0  0  0  0
  3  4  1  0  0  0  0
  3 18  1  0  0  0  0
  4  5  1  0  0  0  0
  4 19  1  0  0  0  0
  4 20  1  0  0  0  0
  5  6  1  0  0  0  0
  5 21  1  0  0  0  0
  5 22  1  0  0  0  0
  6 10  1  0  0  0  0
  6  7  1  0  0  0  0
  7  8  2  0  0  0  0
  7 23  1  0  0  0  0
  8  9  1  0  0  0  0
  8 24  1  0  0  0  0
  9 10  2  0  0  0  0
 10 25  1  0  0  0  0
 11 12  1  0  0  0  0
 11 26  1  0  0  0  0
 12 13  1  0  0  0  0
 12 27  1  0  0  0  0
 12 28  1  0  0  0  0
 13 17  1  0  0  0  0
 13 14  1  0  0  0  0
 13 29  1  0  0  0  0
 14 15  1  0  0  0  0
 14 30  1  0  0  0  0
 14 31  1  0  0  0  0
 15 16  1  0  0  0  0
 15 32  1  0  0  0  0
 15 33  1  0  0  0  0
 16 17  1  0  0  0  0
 16 34  1  0  0  0  0
 16 35  1  0  0  0  0
M  END
> <s_m_source_file>
AV-unprocessed.smi

> <i_m_source_file_index>
3169

> <i_lp_mmshare_version>
43012

> <i_f3d_flags>
0

> <s_epik_input>
TzFbQ0gyXVtDSDJdW0NIMl1bQ0BIXTFbQ0gyXVtOSF1DKD1PKVtOSF1bQ0gyXVtDSDJdbjJbY0hdW2NIXW5bY0hdMg==

> <s_epik_cmdline>
J2VwaWtfcHl0aG9uJywgJy1waCcsICc3LjAnLCAnLXRuJywgJzgnLCAnLW1hJywgJzIwMCcsICctbWV0YWxfYmluZGluZycsICctaW1hZScsICc8aW5maWxlLm1hZT4nLCAnLW9tYWUnLCAnPG91dGZpbGUubWFlPic=

> <r_lp_tautomer_probability>
1

> <r_epik_Ionization_Penalty>
0.620462

> <r_epik_Ionization_Penalty_Charging>
0.620414

> <r_epik_Ionization_Penalty_Neutral>
4.72016e-05

> <r_epik_State_Penalty>
0.636391

> <r_epik_Charging_Adjusted_Penalty>
1.25681

> <i_epik_Tot_Q>
0

> <i_epik_Tot_abs_Q>
0

> <r_epik_Metal_State_Penalty>
0.306539

> <b_epik_Metal_Only>
0

> <s_lp_Force_Field>
OPLS_2005

> <r_lp_Energy>
16.7898

> <b_lp_Chiralities_Consistent>
1

> <s_lp_Variant>
AV-unprocessed.smi:3169-3

> <Gold.Version>
5.8.1

> <Gold.Id.Protein>
6NUR|6NUR_protein|mol2

> <Gold.PLP.Fitness>
47.0884

> <Gold.PLP.PLP>
-30.9500

> <Gold.PLP.part.hbond>
-3.4942

> <Gold.PLP.part.metal>
0.0000

> <Gold.PLP.part.buried>
-3.4731

> <Gold.PLP.part.nonpolar>
-24.7438

> <Gold.PLP.part.repulsive>
0.3699

> <Gold.PLP.ligand.clash>
0.0000

> <Gold.PLP.ligand.torsion>
0.6006

> <Gold.PLP.Chemscore.Hbond>
2.7760

> <Gold.PLP.Chemscore.CHOScore>
3.0000

> <Gold.PLP.Chemscore.Metal>
0.0000

> <Gold.Chemscore.Hbonds>
donor molecule, donor type, donor heavy atom, donor atom, acceptor molecule, acceptor atom, score
      L1  H     3    18       P1  7948  0.60
      L1  H    11    26       P1  7948  0.80
      P1  H  7989  7998       L1    17  0.55
      L1  C     7    23       P1  7948  0.93
      L1  C     8    24       P1 10747  1.00
      L1  C    10    25       P1 10186  0.99

> <Gold.PLP.Chemscore.Internal.Correction>
0.0116

> <Gold.Rescore>
     Score         DG    S(hbond)    S(metal)    S(lipo)     H(rot)  DE(clash)    DE(int)     intcor
     13.88     -14.64       2.53        0.00      55.21       2.25       0.03       0.73       ----

> <Gold.Chemscore.Fitness>
13.8768

> <Gold.Chemscore.DG>
-14.6371

> <Gold.Chemscore.ZeroCoef>
-5.4800

> <Gold.Chemscore.Hbond>
2.5302

> <Gold.Chemscore.Metal>
0.0000

> <Gold.Chemscore.Lipo>
55.2094

> <Gold.Chemscore.Internal_Hbond>
0.0000

> <Gold.Chemscore.DEClash>
0.0331

> <Gold.Chemscore.DEInternal>
0.7272

> <Gold.Chemscore.Rot>
2.2474

> <Gold.Chemscore.Internal.Correction>
   9.000000E+99

> <Gold.Chemscore.Hbonds>
donor molecule, donor type, donor heavy atom, donor atom, acceptor molecule, acceptor atom, score
      L1  H     3    18       P1  7948  0.59
      L1  H    11    26       P1  7948  0.79
      P1  H  7989  7998       L1    17  0.01

> <Gold.Chemscore.Hbond.Weighted>
-8.4509

> <Gold.Chemscore.Metal.Weighted>
-0.0000

> <Gold.Chemscore.Lipo.Weighted>
-6.4595

> <Gold.Chemscore.Internal_Hbond.Weighted>
0.0000

> <Gold.Chemscore.DEClash.Weighted>
0.0331

> <Gold.Chemscore.DEInternal.Weighted>
0.7272

> <Gold.Chemscore.Rot.Weighted>
5.7532

> <Gold.Chemscore.Internal.Correction.Weighted>
   9.000000E+99

> <Gold.Protein.RotatedTorsions>
[ 6907 6896 6895 6894 ] final    6.73 input  -60.11 | X-H torsion
[ 7974 7965 7964 7962 ] final   91.46 input  175.53 | X-H torsion
[ 8008 7997 7996 7995 ] final   27.05 input   59.86 | X-H torsion
[ 10167 10162 10161 10158 ] final -138.58 input  -65.29 | X-H torsion
[ 10718 10713 10712 10709 ] final  -22.46 input   66.30 | X-H torsion
[ 10763 10752 10751 10750 ] final   35.84 input  -60.55 | X-H torsion
[ 11005 11000 10999 10996 ] final  -22.42 input  -57.11 | X-H torsion

> <Gold.Protein.ActiveResidues>
 VAL166  LYS551  ARG553  GLY616  TRP617  ASP618  TYR619  PRO620  LYS621  CYS622 
 ASP623  PHE694  ASN695  SER759  ASP760  ASP761  ALA762  ILE779  LEU786  VAL792 
 PHE793  MET794  SER795  GLU796  ALA797  LYS798  CYS799  TRP800  GLU811  SER814 

> <Gold.Protein.RotatedAtoms>
  151.6784  135.0965  160.0211 H   0  0  0  0  0  0  0  0  0  0  0  0  # atno 6907 bound_to 6896
  152.3850  133.6594  159.6200 H   0  0  0  0  0  0  0  0  0  0  0  0  # atno 6908 bound_to 6896
  150.7778  133.8967  159.3370 H   0  0  0  0  0  0  0  0  0  0  0  0  # atno 6909 bound_to 6896
  145.5053  139.2276  143.2754 H   0  0  0  0  0  0  0  0  0  0  0  0  # atno 7974 bound_to 7965
  155.0368  140.3165  155.4738 H   0  0  0  0  0  0  0  0  0  0  0  0  # atno 8008 bound_to 7997
  156.2863  140.2170  156.5434 H   0  0  0  0  0  0  0  0  0  0  0  0  # atno 8009 bound_to 7997
  154.7323  140.0480  157.0726 H   0  0  0  0  0  0  0  0  0  0  0  0  # atno 8010 bound_to 7997
  139.8464  143.7255  152.2660 H   0  0  0  0  0  0  0  0  0  0  0  0  # atno 10167 bound_to 10162
  156.5043  130.4595  149.6683 H   0  0  0  0  0  0  0  0  0  0  0  0  # atno 10718 bound_to 10713
  153.0102  135.6322  154.1891 H   0  0  0  0  0  0  0  0  0  0  0  0  # atno 10763 bound_to 10752
  154.1633  135.2822  155.3104 H   0  0  0  0  0  0  0  0  0  0  0  0  # atno 10764 bound_to 10752
  154.5965  135.5601  153.7391 H   0  0  0  0  0  0  0  0  0  0  0  0  # atno 10765 bound_to 10752
  140.8655  133.7757  156.0125 H   0  0  0  0  0  0  0  0  0  0  0  0  # atno 11005 bound_to 11000
  146.2200  140.5857  142.9021 LP  0  0  0  0  0  0  0  0  0  0  0  0  # atno 17320 bound_to 7965
  144.7757  140.5734  143.6640 LP  0  0  0  0  0  0  0  0  0  0  0  0  # atno 17321 bound_to 7965
  139.7508  144.7534  151.0509 LP  0  0  0  0  0  0  0  0  0  0  0  0  # atno 17342 bound_to 10162
  140.7792  143.4862  150.9953 LP  0  0  0  0  0  0  0  0  0  0  0  0  # atno 17343 bound_to 10162
  156.3302  130.7327  151.2255 LP  0  0  0  0  0  0  0  0  0  0  0  0  # atno 17370 bound_to 10713
  157.7459  131.0432  150.4731 LP  0  0  0  0  0  0  0  0  0  0  0  0  # atno 17371 bound_to 10713
  140.8633  134.2814  157.5224 LP  0  0  0  0  0  0  0  0  0  0  0  0  # atno 17394 bound_to 11000
  139.8709  134.9529  156.4130 LP  0  0  0  0  0  0  0  0  0  0  0  0  # atno 17395 bound_to 11000

$$$$
