AV-unprocessed.smi:1466|AV-procd|sdf|5954|dock1
  -GOLD-   22720 6 43D 1   1.00000     0.00000
 Structure written by MMmdl.
 48 49  0  0  0  0  0  0  0  0  1 V2000
  152.6164  144.4128  159.1767 C   0  0  0  0  0  0  0  0  0  0  0  0
  152.5241  143.1976  159.9764 N   0  0  0  0  0  0  0  0  0  0  0  0
  152.7374  143.2577  161.4189 C   0  0  0  0  0  0  0  0  0  0  0  0
  152.1944  141.9663  159.3648 C   0  0  0  0  0  0  0  0  0  0  0  0
  152.7342  140.7411  159.8289 C   0  0  0  0  0  0  0  0  0  0  0  0
  152.3755  139.5399  159.1870 C   0  0  0  0  0  0  0  0  0  0  0  0
  151.4880  139.5879  158.0875 C   0  0  0  0  0  0  0  0  0  0  0  0
  151.0323  138.4497  157.3685 N   0  0  0  0  0  0  0  0  0  0  0  0
  150.6739  137.2436  157.8410 C   0  0  0  0  0  0  0  0  0  0  0  0
  150.7109  136.8997  159.0221 O   0  0  0  0  0  0  0  0  0  0  0  0
  150.2812  136.4337  156.8473 N   0  0  0  0  0  0  0  0  0  0  0  0
  149.8415  135.0540  157.0164 C   0  0  0  0  0  0  0  0  0  0  0  0
  150.1612  134.2032  155.7733 C   0  0  0  0  0  0  0  0  0  0  0  0
  149.6391  132.8384  155.9078 N   0  0  0  0  0  0  0  0  0  0  0  0
  148.7292  132.3862  154.8434 C   0  0  0  0  0  0  0  0  0  0  0  0
  149.3415  131.3121  153.9150 C   0  0  0  0  0  0  0  0  0  0  0  0
  150.3815  130.3714  154.5555 C   0  0  0  0  0  0  0  0  0  0  0  0
  149.9271  129.6858  155.8611 C   0  0  0  0  0  0  0  0  0  0  0  0
  149.4196  130.6138  156.9912 C   0  0  0  0  0  0  0  0  0  0  0  0
  149.9891  132.0413  156.9472 C   0  0  0  0  0  0  0  0  0  0  0  0
  150.7393  132.4087  157.8516 O   0  0  0  0  0  0  0  0  0  0  0  0
  150.9932  140.8499  157.7060 C   0  0  0  0  0  0  0  0  0  0  0  0
  151.3348  142.0026  158.3175 N   0  0  0  0  0  0  0  0  0  0  0  0
  151.6672  144.6188  158.6812 H   0  0  0  0  0  0  0  0  0  0  0  0
  153.3933  144.3149  158.4177 H   0  0  0  0  0  0  0  0  0  0  0  0
  152.8629  145.2768  159.7939 H   0  0  0  0  0  0  0  0  0  0  0  0
  151.8405  142.9421  161.9527 H   0  0  0  0  0  0  0  0  0  0  0  0
  152.9803  144.2693  161.7438 H   0  0  0  0  0  0  0  0  0  0  0  0
  153.5623  142.6070  161.7110 H   0  0  0  0  0  0  0  0  0  0  0  0
  153.4123  140.6960  160.6674 H   0  0  0  0  0  0  0  0  0  0  0  0
  152.7768  138.6118  159.5617 H   0  0  0  0  0  0  0  0  0  0  0  0
  151.0218  138.5516  156.3641 H   0  0  0  0  0  0  0  0  0  0  0  0
  150.2861  136.7979  155.9058 H   0  0  0  0  0  0  0  0  0  0  0  0
  150.2950  134.6241  157.9113 H   0  0  0  0  0  0  0  0  0  0  0  0
  148.7652  135.0655  157.1901 H   0  0  0  0  0  0  0  0  0  0  0  0
  149.7476  134.6775  154.8822 H   0  0  0  0  0  0  0  0  0  0  0  0
  151.2392  134.1723  155.6040 H   0  0  0  0  0  0  0  0  0  0  0  0
  147.8144  132.0029  155.2956 H   0  0  0  0  0  0  0  0  0  0  0  0
  148.3873  133.2278  154.2398 H   0  0  0  0  0  0  0  0  0  0  0  0
  148.5340  130.7226  153.4795 H   0  0  0  0  0  0  0  0  0  0  0  0
  149.8231  131.8143  153.0754 H   0  0  0  0  0  0  0  0  0  0  0  0
  150.6521  129.6029  153.8309 H   0  0  0  0  0  0  0  0  0  0  0  0
  151.3045  130.9238  154.7377 H   0  0  0  0  0  0  0  0  0  0  0  0
  149.1428  128.9652  155.6273 H   0  0  0  0  0  0  0  0  0  0  0  0
  150.7609  129.0951  156.2421 H   0  0  0  0  0  0  0  0  0  0  0  0
  148.3313  130.6676  156.9705 H   0  0  0  0  0  0  0  0  0  0  0  0
  149.6564  130.1638  157.9563 H   0  0  0  0  0  0  0  0  0  0  0  0
  150.3021  140.9412  156.8808 H   0  0  0  0  0  0  0  0  0  0  0  0
  1  2  1  0  0  0  0
  1 24  1  0  0  0  0
  1 25  1  0  0  0  0
  1 26  1  0  0  0  0
  2  3  1  0  0  0  0
  2  4  1  0  0  0  0
  3 27  1  0  0  0  0
  3 28  1  0  0  0  0
  3 29  1  0  0  0  0
  4 23  1  0  0  0  0
  4  5  2  0  0  0  0
  5  6  1  0  0  0  0
  5 30  1  0  0  0  0
  6  7  2  0  0  0  0
  6 31  1  0  0  0  0
  7  8  1  0  0  0  0
  7 22  1  0  0  0  0
  8  9  1  0  0  0  0
  8 32  1  0  0  0  0
  9 10  2  0  0  0  0
  9 11  1  0  0  0  0
 11 12  1  0  0  0  0
 11 33  1  0  0  0  0
 12 13  1  0  0  0  0
 12 34  1  0  0  0  0
 12 35  1  0  0  0  0
 13 14  1  0  0  0  0
 13 36  1  0  0  0  0
 13 37  1  0  0  0  0
 14 20  1  0  0  0  0
 14 15  1  0  0  0  0
 15 16  1  0  0  0  0
 15 38  1  0  0  0  0
 15 39  1  0  0  0  0
 16 17  1  0  0  0  0
 16 40  1  0  0  0  0
 16 41  1  0  0  0  0
 17 18  1  0  0  0  0
 17 42  1  0  0  0  0
 17 43  1  0  0  0  0
 18 19  1  0  0  0  0
 18 44  1  0  0  0  0
 18 45  1  0  0  0  0
 19 20  1  0  0  0  0
 19 46  1  0  0  0  0
 19 47  1  0  0  0  0
 20 21  2  0  0  0  0
 22 23  2  0  0  0  0
 22 48  1  0  0  0  0
M  END
> <s_m_source_file>
AV-unprocessed.smi

> <i_m_source_file_index>
1466

> <i_lp_mmshare_version>
43012

> <i_f3d_flags>
0

> <s_epik_input>
W0NIM11OKFtDSDNdKWMxW2NIXVtjSF1jKFtjSF1uMSlbTkhdQyg9TylbTkhdW0NIMl1bQ0gyXU4yW0NIMl1bQ0gyXVtDSDJdW0NIMl1bQ0gyXUMyPU8=

> <s_epik_cmdline>
J2VwaWtfcHl0aG9uJywgJy1waCcsICc3LjAnLCAnLXRuJywgJzgnLCAnLW1hJywgJzIwMCcsICctbWV0YWxfYmluZGluZycsICctaW1hZScsICc8aW5maWxlLm1hZT4nLCAnLW9tYWUnLCAnPG91dGZpbGUubWFlPic=

> <r_lp_tautomer_probability>
1

> <r_epik_Ionization_Penalty>
0.597116

> <r_epik_Ionization_Penalty_Charging>
0

> <r_epik_Ionization_Penalty_Neutral>
0.597116

> <r_epik_State_Penalty>
0.610079

> <r_epik_Charging_Adjusted_Penalty>
0.610079

> <i_epik_Tot_Q>
0

> <i_epik_Tot_abs_Q>
0

> <r_epik_Metal_State_Penalty>
0.299962

> <b_epik_Metal_Only>
0

> <s_lp_Force_Field>
OPLS_2005

> <r_lp_Energy>
26.5805

> <b_lp_Chiralities_Consistent>
1

> <s_lp_Variant>
AV-unprocessed.smi:1466-2

> <Gold.Version>
5.8.1

> <Gold.Id.Protein>
6NUR|6NUR_protein|mol2

> <Gold.PLP.Fitness>
41.3292

> <Gold.PLP.PLP>
-37.2958

> <Gold.PLP.part.hbond>
-2.0000

> <Gold.PLP.part.metal>
0.0000

> <Gold.PLP.part.buried>
-5.6085

> <Gold.PLP.part.nonpolar>
-28.9759

> <Gold.PLP.part.repulsive>
0.1096

> <Gold.PLP.ligand.clash>
0.0000

> <Gold.PLP.ligand.torsion>
1.0065

> <Gold.PLP.Chemscore.Hbond>
2.0000

> <Gold.PLP.Chemscore.CHOScore>
0.0000

> <Gold.PLP.Chemscore.Metal>
0.0000

> <Gold.Chemscore.Hbonds>
donor molecule, donor type, donor heavy atom, donor atom, acceptor molecule, acceptor atom, score
      P1  H  6896  6908       L1    21  1.00
      P1  H  6896  6909       L1    10  0.96

> <Gold.PLP.Chemscore.Internal.Correction>
0.0465

> <Gold.Rescore>
     Score         DG    S(hbond)    S(metal)    S(lipo)     H(rot)  DE(clash)    DE(int)     intcor
     15.26     -17.57       1.94        0.00      80.41       1.48       0.00       2.31       ----

> <Gold.Chemscore.Fitness>
15.2582

> <Gold.Chemscore.DG>
-17.5694

> <Gold.Chemscore.ZeroCoef>
-5.4800

> <Gold.Chemscore.Hbond>
1.9381

> <Gold.Chemscore.Metal>
0.0000

> <Gold.Chemscore.Lipo>
80.4058

> <Gold.Chemscore.Internal_Hbond>
0.0000

> <Gold.Chemscore.DEClash>
0.0029

> <Gold.Chemscore.DEInternal>
2.3083

> <Gold.Chemscore.Rot>
1.4810

> <Gold.Chemscore.Internal.Correction>
   9.000000E+99

> <Gold.Chemscore.Hbonds>
donor molecule, donor type, donor heavy atom, donor atom, acceptor molecule, acceptor atom, score
      P1  H  6896  6908       L1    21  1.00
      P1  H  6896  6909       L1    10  0.89

> <Gold.Chemscore.Hbond.Weighted>
-6.4732

> <Gold.Chemscore.Metal.Weighted>
-0.0000

> <Gold.Chemscore.Lipo.Weighted>
-9.4075

> <Gold.Chemscore.Internal_Hbond.Weighted>
0.0000

> <Gold.Chemscore.DEClash.Weighted>
0.0029

> <Gold.Chemscore.DEInternal.Weighted>
2.3083

> <Gold.Chemscore.Rot.Weighted>
3.7912

> <Gold.Chemscore.Internal.Correction.Weighted>
   9.000000E+99

> <Gold.Protein.RotatedTorsions>
[ 6907 6896 6895 6894 ] final   85.66 input  -60.11 | X-H torsion
[ 7974 7965 7964 7962 ] final   96.05 input  175.53 | X-H torsion
[ 8008 7997 7996 7995 ] final -162.22 input   59.86 | X-H torsion
[ 10167 10162 10161 10158 ] final -149.35 input  -65.29 | X-H torsion
[ 10718 10713 10712 10709 ] final  -20.48 input   66.30 | X-H torsion
[ 10763 10752 10751 10750 ] final   86.17 input  -60.55 | X-H torsion
[ 11005 11000 10999 10996 ] final   92.44 input  -57.11 | X-H torsion

> <Gold.Protein.ActiveResidues>
 VAL166  LYS551  ARG553  GLY616  TRP617  ASP618  TYR619  PRO620  LYS621  CYS622 
 ASP623  PHE694  ASN695  SER759  ASP760  ASP761  ALA762  ILE779  LEU786  VAL792 
 PHE793  MET794  SER795  GLU796  ALA797  LYS798  CYS799  TRP800  GLU811  SER814 

> <Gold.Protein.RotatedAtoms>
  152.5379  134.2551  159.8913 H   0  0  0  0  0  0  0  0  0  0  0  0  # atno 6907 bound_to 6896
  151.2513  133.4342  159.2619 H   0  0  0  0  0  0  0  0  0  0  0  0  # atno 6908 bound_to 6896
  151.0536  134.9704  159.8281 H   0  0  0  0  0  0  0  0  0  0  0  0  # atno 6909 bound_to 6896
  145.4440  139.2299  143.3076 H   0  0  0  0  0  0  0  0  0  0  0  0  # atno 7974 bound_to 7965
  155.8036  140.0895  157.1943 H   0  0  0  0  0  0  0  0  0  0  0  0  # atno 8008 bound_to 7997
  154.3981  140.1467  156.3363 H   0  0  0  0  0  0  0  0  0  0  0  0  # atno 8009 bound_to 7997
  155.8437  140.3437  155.5651 H   0  0  0  0  0  0  0  0  0  0  0  0  # atno 8010 bound_to 7997
  139.7450  143.8604  152.2572 H   0  0  0  0  0  0  0  0  0  0  0  0  # atno 10167 bound_to 10162
  156.5313  130.4656  149.6546 H   0  0  0  0  0  0  0  0  0  0  0  0  # atno 10718 bound_to 10713
  153.1545  135.4590  154.9684 H   0  0  0  0  0  0  0  0  0  0  0  0  # atno 10763 bound_to 10752
  154.7850  135.3201  154.7908 H   0  0  0  0  0  0  0  0  0  0  0  0  # atno 10764 bound_to 10752
  153.8407  135.6930  153.4857 H   0  0  0  0  0  0  0  0  0  0  0  0  # atno 10765 bound_to 10752
  139.8823  134.8733  156.3573 H   0  0  0  0  0  0  0  0  0  0  0  0  # atno 11005 bound_to 11000
  146.2541  140.5192  142.8881 LP  0  0  0  0  0  0  0  0  0  0  0  0  # atno 17320 bound_to 7965
  144.8103  140.6374  143.6419 LP  0  0  0  0  0  0  0  0  0  0  0  0  # atno 17321 bound_to 7965
  139.8565  144.7138  150.9150 LP  0  0  0  0  0  0  0  0  0  0  0  0  # atno 17342 bound_to 10162
  140.7791  143.3854  151.1403 LP  0  0  0  0  0  0  0  0  0  0  0  0  # atno 17343 bound_to 10162
  156.3057  130.7201  151.2083 LP  0  0  0  0  0  0  0  0  0  0  0  0  # atno 17370 bound_to 10713
  157.7421  131.0494  150.5047 LP  0  0  0  0  0  0  0  0  0  0  0  0  # atno 17371 bound_to 10713
  140.9554  133.7424  156.0328 LP  0  0  0  0  0  0  0  0  0  0  0  0  # atno 17394 bound_to 11000
  140.8055  134.3459  157.5427 LP  0  0  0  0  0  0  0  0  0  0  0  0  # atno 17395 bound_to 11000

$$$$
