AV-unprocessed.smi:2884|AV-procd|sdf|11084|dock7
  -GOLD-   2272015553D 1   1.00000     0.00000
 Structure written by MMmdl.
 42 43  0  0  0  0  0  0  0  0  3 V2000
  152.5938  144.6493  159.4341 C   0  0  0  0  0  0  0  0  0  0  0  0
  153.1167  143.3182  159.9888 C   0  0  0  0  0  0  0  0  0  0  0  0
  152.1483  142.1536  159.7500 C   0  0  0  0  0  0  0  0  0  0  0  0
  152.3851  141.6400  158.4433 O   0  0  0  0  0  0  0  0  0  0  0  0
  151.3873  140.8378  157.7989 C   0  0  0  0  0  0  0  0  0  0  0  0
  151.2852  139.6161  158.7465 C   0  0  0  0  0  0  0  0  0  0  0  0
  152.5531  138.9077  158.8758 N   0  0  0  0  0  0  0  0  0  0  0  0
  152.9437  137.6795  158.3559 C   0  0  0  0  0  0  0  0  0  0  0  0
  152.0842  136.8764  157.5548 C   0  0  0  0  0  0  0  0  0  0  0  0
  152.5088  135.7078  157.0849 N   0  3  0  0  0  0  0  0  0  0  0  0
  153.7092  135.2237  157.3133 N   0  5  0  0  0  0  0  0  0  0  0  0
  154.6291  135.8985  158.0651 C   0  0  0  0  0  0  0  0  0  0  0  0
  155.7581  135.4690  158.2939 O   0  0  0  0  0  0  0  0  0  0  0  0
  154.1964  137.2003  158.6060 C   0  0  0  0  0  0  0  0  0  0  0  0
  155.3141  138.1026  159.5757 Cl  0  0  0  0  0  0  0  0  0  0  0  0
  150.0278  141.5787  157.6554 C   0  0  0  0  0  0  0  0  0  0  0  0
  148.9756  140.7362  156.9125 C   0  0  0  0  0  0  0  0  0  0  0  0
  149.4905  140.2989  155.5322 C   0  0  0  0  0  0  0  0  0  0  0  0
  150.8296  139.5523  155.6399 C   0  0  0  0  0  0  0  0  0  0  0  0
  151.8791  140.3869  156.3982 C   0  0  0  0  0  0  0  0  0  0  0  0
  151.8311  135.1807  156.5125 H   0  0  0  0  0  0  0  0  0  0  0  0
  153.3142  145.4499  159.6020 H   0  0  0  0  0  0  0  0  0  0  0  0
  151.6586  144.9386  159.9147 H   0  0  0  0  0  0  0  0  0  0  0  0
  152.4124  144.5845  158.3609 H   0  0  0  0  0  0  0  0  0  0  0  0
  154.0729  143.0897  159.5174 H   0  0  0  0  0  0  0  0  0  0  0  0
  153.3164  143.4172  161.0562 H   0  0  0  0  0  0  0  0  0  0  0  0
  152.3070  141.3996  160.5193 H   0  0  0  0  0  0  0  0  0  0  0  0
  151.1262  142.5179  159.8454 H   0  0  0  0  0  0  0  0  0  0  0  0
  150.9060  139.9083  159.7226 H   0  0  0  0  0  0  0  0  0  0  0  0
  150.5576  138.9083  158.3479 H   0  0  0  0  0  0  0  0  0  0  0  0
  153.1749  139.3129  159.5618 H   0  0  0  0  0  0  0  0  0  0  0  0
  151.0753  137.1687  157.2950 H   0  0  0  0  0  0  0  0  0  0  0  0
  149.6450  141.8832  158.6297 H   0  0  0  0  0  0  0  0  0  0  0  0
  150.1552  142.4968  157.0838 H   0  0  0  0  0  0  0  0  0  0  0  0
  148.7072  139.8597  157.5010 H   0  0  0  0  0  0  0  0  0  0  0  0
  148.0584  141.3142  156.7963 H   0  0  0  0  0  0  0  0  0  0  0  0
  148.7500  139.6668  155.0414 H   0  0  0  0  0  0  0  0  0  0  0  0
  149.6153  141.1769  154.8971 H   0  0  0  0  0  0  0  0  0  0  0  0
  150.6788  138.5927  156.1343 H   0  0  0  0  0  0  0  0  0  0  0  0
  151.1997  139.3194  154.6410 H   0  0  0  0  0  0  0  0  0  0  0  0
  152.1084  141.2540  155.7803 H   0  0  0  0  0  0  0  0  0  0  0  0
  152.8086  139.8236  156.4876 H   0  0  0  0  0  0  0  0  0  0  0  0
  1  2  1  0  0  0  0
  1 22  1  0  0  0  0
  1 23  1  0  0  0  0
  1 24  1  0  0  0  0
  2  3  1  0  0  0  0
  2 25  1  0  0  0  0
  2 26  1  0  0  0  0
  3  4  1  0  0  0  0
  3 27  1  0  0  0  0
  3 28  1  0  0  0  0
  4  5  1  0  0  0  0
  5 20  1  0  0  0  0
  5  6  1  0  0  0  0
  5 16  1  0  0  0  0
  6 29  1  0  0  0  0
  6 30  1  0  0  0  0
  6  7  1  0  0  0  0
  7  8  1  0  0  0  0
  7 31  1  0  0  0  0
  8 14  2  0  0  0  0
  8  9  1  0  0  0  0
  9 32  1  0  0  0  0
  9 10  2  0  0  0  0
 10 11  1  0  0  0  0
 10 21  1  0  0  0  0
 11 12  1  0  0  0  0
 12 13  2  0  0  0  0
 12 14  1  0  0  0  0
 14 15  1  0  0  0  0
 16 17  1  0  0  0  0
 16 33  1  0  0  0  0
 16 34  1  0  0  0  0
 17 18  1  0  0  0  0
 17 35  1  0  0  0  0
 17 36  1  0  0  0  0
 18 19  1  0  0  0  0
 18 37  1  0  0  0  0
 18 38  1  0  0  0  0
 19 20  1  0  0  0  0
 19 39  1  0  0  0  0
 19 40  1  0  0  0  0
 20 41  1  0  0  0  0
 20 42  1  0  0  0  0
M  CHG  1  10   1
M  CHG  1  11  -1
M  END
> <s_m_source_file>
AV-unprocessed.smi

> <i_m_source_file_index>
2884

> <i_lp_mmshare_version>
43012

> <i_f3d_flags>
0

> <s_epik_input>
W0NIMl0xW0NIMl1bQ0gyXVtDSDJdW0NIMl1DMShPW0NIMl1bQ0gyXVtDSDNdKVtDSDJdW05IXWMyW2NIXW5bbkhdYyg9TyljMkNs

> <s_epik_cmdline>
J2VwaWtfcHl0aG9uJywgJy1waCcsICc3LjAnLCAnLXRuJywgJzgnLCAnLW1hJywgJzIwMCcsICctbWV0YWxfYmluZGluZycsICctaW1hZScsICc8aW5maWxlLm1hZT4nLCAnLW9tYWUnLCAnPG91dGZpbGUubWFlPic=

> <r_lp_tautomer_probability>
0.0138196

> <r_epik_Ionization_Penalty>
2.73941

> <r_epik_Ionization_Penalty_Charging>
2.73941

> <r_epik_Ionization_Penalty_Neutral>
1.09968e-06

> <r_epik_State_Penalty>
2.7044

> <r_epik_Charging_Adjusted_Penalty>
5.44381

> <i_epik_Tot_Q>
0

> <i_epik_Tot_abs_Q>
2

> <r_epik_Metal_State_Penalty>
2.9982

> <b_epik_Metal_Only>
0

> <s_lp_Force_Field>
OPLS_2005

> <r_lp_Energy>
38.2513

> <b_lp_Chiralities_Consistent>
1

> <s_lp_Variant>
AV-unprocessed.smi:2884-2

> <Gold.Version>
5.8.1

> <Gold.Id.Protein>
6NUR|6NUR_protein|mol2

> <Gold.PLP.Fitness>
34.6694

> <Gold.PLP.PLP>
-29.2512

> <Gold.PLP.part.hbond>
-1.0410

> <Gold.PLP.part.metal>
0.0000

> <Gold.PLP.part.buried>
-2.2004

> <Gold.PLP.part.nonpolar>
-24.7884

> <Gold.PLP.part.repulsive>
0.2601

> <Gold.PLP.ligand.clash>
0.0000

> <Gold.PLP.ligand.torsion>
0.2990

> <Gold.PLP.Chemscore.Hbond>
2.0000

> <Gold.PLP.Chemscore.CHOScore>
0.0000

> <Gold.PLP.Chemscore.Metal>
0.0000

> <Gold.PLP.Chemscore.Internal.Correction>
0.0163

> <Gold.Rescore>
     Score         DG    S(hbond)    S(metal)    S(lipo)     H(rot)  DE(clash)    DE(int)     intcor
     12.92     -13.23       0.60        0.00      87.81       1.77       0.08       0.23       ----

> <Gold.Chemscore.Fitness>
12.9223

> <Gold.Chemscore.DG>
-13.2346

> <Gold.Chemscore.ZeroCoef>
-5.4800

> <Gold.Chemscore.Hbond>
0.5996

> <Gold.Chemscore.Metal>
0.0000

> <Gold.Chemscore.Lipo>
87.8080

> <Gold.Chemscore.Internal_Hbond>
0.0000

> <Gold.Chemscore.DEClash>
0.0850

> <Gold.Chemscore.DEInternal>
0.2273

> <Gold.Chemscore.Rot>
1.7663

> <Gold.Chemscore.Internal.Correction>
   9.000000E+99

> <Gold.Chemscore.Hbond.Weighted>
-2.0027

> <Gold.Chemscore.Metal.Weighted>
-0.0000

> <Gold.Chemscore.Lipo.Weighted>
-10.2735

> <Gold.Chemscore.Internal_Hbond.Weighted>
0.0000

> <Gold.Chemscore.DEClash.Weighted>
0.0850

> <Gold.Chemscore.DEInternal.Weighted>
0.2273

> <Gold.Chemscore.Rot.Weighted>
4.5216

> <Gold.Chemscore.Internal.Correction.Weighted>
   9.000000E+99

> <Gold.Protein.RotatedTorsions>
[ 6907 6896 6895 6894 ] final -115.48 input  -60.11 | X-H torsion
[ 7974 7965 7964 7962 ] final   27.17 input  175.53 | X-H torsion
[ 8008 7997 7996 7995 ] final -151.12 input   59.86 | X-H torsion
[ 10167 10162 10161 10158 ] final -118.56 input  -65.29 | X-H torsion
[ 10718 10713 10712 10709 ] final  100.37 input   66.30 | X-H torsion
[ 10763 10752 10751 10750 ] final -109.96 input  -60.55 | X-H torsion
[ 11005 11000 10999 10996 ] final   -4.06 input  -57.11 | X-H torsion

> <Gold.Protein.ActiveResidues>
 VAL166  LYS551  ARG553  GLY616  TRP617  ASP618  TYR619  PRO620  LYS621  CYS622 
 ASP623  PHE694  ASN695  SER759  ASP760  ASP761  ALA762  ILE779  LEU786  VAL792 
 PHE793  MET794  SER795  GLU796  ALA797  LYS798  CYS799  TRP800  GLU811  SER814 

> <Gold.Protein.RotatedAtoms>
  150.7981  133.8652  159.3242 H   0  0  0  0  0  0  0  0  0  0  0  0  # atno 6907 bound_to 6896
  151.6472  135.1004  160.0163 H   0  0  0  0  0  0  0  0  0  0  0  0  # atno 6908 bound_to 6896
  152.4065  133.6858  159.6396 H   0  0  0  0  0  0  0  0  0  0  0  0  # atno 6909 bound_to 6896
  146.1799  139.7228  142.8908 H   0  0  0  0  0  0  0  0  0  0  0  0  # atno 7974 bound_to 7965
  155.6344  140.0695  157.2638 H   0  0  0  0  0  0  0  0  0  0  0  0  # atno 8008 bound_to 7997
  154.4198  140.1761  156.1556 H   0  0  0  0  0  0  0  0  0  0  0  0  # atno 8009 bound_to 7997
  155.9906  140.3345  155.6753 H   0  0  0  0  0  0  0  0  0  0  0  0  # atno 8010 bound_to 7997
  140.0561  143.5013  152.2056 H   0  0  0  0  0  0  0  0  0  0  0  0  # atno 10167 bound_to 10162
  157.6855  131.0696  150.5090 H   0  0  0  0  0  0  0  0  0  0  0  0  # atno 10718 bound_to 10713
  154.8222  135.4582  154.0812 H   0  0  0  0  0  0  0  0  0  0  0  0  # atno 10763 bound_to 10752
  153.2156  135.6887  153.8068 H   0  0  0  0  0  0  0  0  0  0  0  0  # atno 10764 bound_to 10752
  153.7503  135.3299  155.3296 H   0  0  0  0  0  0  0  0  0  0  0  0  # atno 10765 bound_to 10752
  140.6761  133.9194  155.8525 H   0  0  0  0  0  0  0  0  0  0  0  0  # atno 11005 bound_to 11000
  145.4107  141.0396  143.3019 LP  0  0  0  0  0  0  0  0  0  0  0  0  # atno 17320 bound_to 7965
  144.8297  139.5649  143.6949 LP  0  0  0  0  0  0  0  0  0  0  0  0  # atno 17321 bound_to 7965
  139.5922  144.7554  151.3372 LP  0  0  0  0  0  0  0  0  0  0  0  0  # atno 17342 bound_to 10162
  140.7194  143.7178  150.7719 LP  0  0  0  0  0  0  0  0  0  0  0  0  # atno 17343 bound_to 10162
  156.5408  130.4207  149.6155 LP  0  0  0  0  0  0  0  0  0  0  0  0  # atno 17370 bound_to 10713
  156.2987  130.7165  151.2031 LP  0  0  0  0  0  0  0  0  0  0  0  0  # atno 17371 bound_to 10713
  141.0354  134.0697  157.3966 LP  0  0  0  0  0  0  0  0  0  0  0  0  # atno 17394 bound_to 11000
  139.8966  135.0146  156.7059 LP  0  0  0  0  0  0  0  0  0  0  0  0  # atno 17395 bound_to 11000

$$$$
