AV-unprocessed.smi:1080|AV-procd|sdf|4706|dock6
  -GOLD-   22720 3233D 1   1.00000     0.00000
 Structure written by MMmdl.
 48 50  0  0  0  0  0  0  0  0  1 V2000
  151.4167  135.2121  156.0839 O   0  0  0  0  0  0  0  0  0  0  0  0
  150.6959  135.7944  155.2741 C   0  0  0  0  0  0  0  0  0  0  0  0
  149.8323  135.2026  154.4300 N   0  0  0  0  0  0  0  0  0  0  0  0
  149.5447  133.8199  154.2609 C   0  0  0  0  0  0  0  0  0  0  0  0
  150.1531  132.9143  155.1551 C   0  0  0  0  0  0  0  0  0  0  0  0
  149.8976  131.5365  155.0076 C   0  0  0  0  0  0  0  0  0  0  0  0
  149.1002  131.0291  154.0446 N   0  0  0  0  0  0  0  0  0  0  0  0
  148.5274  131.8950  153.1821 C   0  0  0  0  0  0  0  0  0  0  0  0
  148.7170  133.2903  153.2408 C   0  0  0  0  0  0  0  0  0  0  0  0
  150.6873  137.1259  155.1116 N   0  0  0  0  0  0  0  0  0  0  0  0
  151.5115  138.0843  155.8438 C   0  0  2  0  0  0  0  0  0  0  0  0
  151.3755  137.8440  157.3589 C   0  0  0  0  0  0  0  0  0  0  0  0
  152.1562  138.8925  158.1687 C   0  0  0  0  0  0  0  0  0  0  0  0
  151.7189  140.3275  157.8074 C   0  0  1  0  0  0  0  0  0  0  0  0
  152.5158  141.3620  158.6326 C   0  0  0  0  0  0  0  0  0  0  0  0
  153.3408  140.9452  159.4472 O   0  0  0  0  0  0  0  0  0  0  0  0
  152.3224  142.6901  158.4289 N   0  0  0  0  0  0  0  0  0  0  0  0
  151.2185  143.2032  157.6077 C   0  0  0  0  0  0  0  0  0  0  0  0
  150.0897  143.6830  158.5365 C   0  0  0  0  0  0  0  0  0  0  0  0
  150.6505  145.0464  159.6066 S   0  0  0  0  0  0  0  0  0  0  0  0
  152.2006  144.3301  160.2387 C   0  0  0  0  0  0  0  0  0  0  0  0
  153.0553  143.7789  159.0860 C   0  0  0  0  0  0  0  0  0  0  0  0
  151.8802  140.5579  156.2873 C   0  0  0  0  0  0  0  0  0  0  0  0
  151.0883  139.5185  155.4777 C   0  0  0  0  0  0  0  0  0  0  0  0
  149.3547  135.8192  153.7892 H   0  0  0  0  0  0  0  0  0  0  0  0
  150.8016  133.2643  155.9450 H   0  0  0  0  0  0  0  0  0  0  0  0
  150.3472  130.8227  155.6819 H   0  0  0  0  0  0  0  0  0  0  0  0
  147.9007  131.4626  152.4160 H   0  0  0  0  0  0  0  0  0  0  0  0
  148.2354  133.9119  152.5027 H   0  0  0  0  0  0  0  0  0  0  0  0
  150.0610  137.5105  154.4198 H   0  0  0  0  0  0  0  0  0  0  0  0
  152.5623  137.9656  155.5732 H   0  0  0  0  0  0  0  0  0  0  0  0
  150.3236  137.8782  157.6465 H   0  0  0  0  0  0  0  0  0  0  0  0
  151.7326  136.8449  157.6118 H   0  0  0  0  0  0  0  0  0  0  0  0
  152.0099  138.7082  159.2337 H   0  0  0  0  0  0  0  0  0  0  0  0
  153.2243  138.7699  157.9810 H   0  0  0  0  0  0  0  0  0  0  0  0
  150.6542  140.4383  158.0075 H   0  0  0  0  0  0  0  0  0  0  0  0
  151.5634  144.0242  156.9774 H   0  0  0  0  0  0  0  0  0  0  0  0
  150.8323  142.4534  156.9161 H   0  0  0  0  0  0  0  0  0  0  0  0
  149.2358  144.0255  157.9518 H   0  0  0  0  0  0  0  0  0  0  0  0
  149.7394  142.8614  159.1625 H   0  0  0  0  0  0  0  0  0  0  0  0
  152.7460  145.1017  160.7822 H   0  0  0  0  0  0  0  0  0  0  0  0
  151.9646  143.5405  160.9529 H   0  0  0  0  0  0  0  0  0  0  0  0
  154.0389  143.4749  159.4407 H   0  0  0  0  0  0  0  0  0  0  0  0
  153.2600  144.5748  158.3684 H   0  0  0  0  0  0  0  0  0  0  0  0
  151.5411  141.5600  156.0216 H   0  0  0  0  0  0  0  0  0  0  0  0
  152.9314  140.5005  155.9999 H   0  0  0  0  0  0  0  0  0  0  0  0
  151.2392  139.6916  154.4114 H   0  0  0  0  0  0  0  0  0  0  0  0
  150.0215  139.6509  155.6645 H   0  0  0  0  0  0  0  0  0  0  0  0
  1  2  2  0  0  0  0
  2  3  1  0  0  0  0
  2 10  1  0  0  0  0
  3  4  1  0  0  0  0
  3 25  1  0  0  0  0
  4  9  1  0  0  0  0
  4  5  2  0  0  0  0
  5  6  1  0  0  0  0
  5 26  1  0  0  0  0
  6  7  2  0  0  0  0
  6 27  1  0  0  0  0
  7  8  1  0  0  0  0
  8  9  2  0  0  0  0
  8 28  1  0  0  0  0
  9 29  1  0  0  0  0
 10 11  1  0  0  0  0
 10 30  1  0  0  0  0
 11 24  1  0  0  0  0
 11 12  1  0  0  0  0
 11 31  1  0  0  0  0
 12 13  1  0  0  0  0
 12 32  1  0  0  0  0
 12 33  1  0  0  0  0
 13 14  1  0  0  0  0
 13 34  1  0  0  0  0
 13 35  1  0  0  0  0
 14 15  1  0  0  0  0
 14 23  1  0  0  0  0
 14 36  1  0  0  0  0
 15 16  2  0  0  0  0
 15 17  1  0  0  0  0
 17 22  1  0  0  0  0
 17 18  1  0  0  0  0
 18 19  1  0  0  0  0
 18 37  1  0  0  0  0
 18 38  1  0  0  0  0
 19 20  1  0  0  0  0
 19 39  1  0  0  0  0
 19 40  1  0  0  0  0
 20 21  1  0  0  0  0
 21 22  1  0  0  0  0
 21 41  1  0  0  0  0
 21 42  1  0  0  0  0
 22 43  1  0  0  0  0
 22 44  1  0  0  0  0
 23 24  1  0  0  0  0
 23 45  1  0  0  0  0
 23 46  1  0  0  0  0
 24 47  1  0  0  0  0
 24 48  1  0  0  0  0
M  END
> <s_m_source_file>
AV-unprocessed.smi

> <i_m_source_file_index>
1080

> <i_lp_mmshare_version>
43012

> <i_f3d_flags>
0

> <s_epik_input>
W2NIXTFbY0hdbltjSF1bY0hdYzFbTkhdQyg9TylbTkhdW0NAQEhdMltDSDJdW0NIMl1bQ0BIXShbQ0gyXVtDSDJdMilDKD1PKU4zW0NIMl1bQ0gyXVNbQ0gyXVtDSDJdMw==

> <s_epik_cmdline>
J2VwaWtfcHl0aG9uJywgJy1waCcsICc3LjAnLCAnLXRuJywgJzgnLCAnLW1hJywgJzIwMCcsICctbWV0YWxfYmluZGluZycsICctaW1hZScsICc8aW5maWxlLm1hZT4nLCAnLW9tYWUnLCAnPG91dGZpbGUubWFlPic=

> <r_epik_Ionization_Penalty>
0.118325

> <r_epik_Ionization_Penalty_Charging>
0

> <r_epik_Ionization_Penalty_Neutral>
0.118325

> <r_epik_State_Penalty>
0.107868

> <r_epik_Charging_Adjusted_Penalty>
0.107868

> <i_epik_Tot_Q>
0

> <i_epik_Tot_abs_Q>
0

> <r_epik_Metal_State_Penalty>
0.0897632

> <b_epik_Metal_Only>
0

> <s_lp_Force_Field>
OPLS_2005

> <r_lp_Energy>
33.2651

> <b_lp_Chiralities_Consistent>
1

> <s_lp_Variant>
AV-unprocessed.smi:1080-1

> <Gold.Version>
5.8.1

> <Gold.Id.Protein>
6NUR|6NUR_protein|mol2

> <Gold.PLP.Fitness>
52.0288

> <Gold.PLP.PLP>
-44.5993

> <Gold.PLP.part.hbond>
-2.0000

> <Gold.PLP.part.metal>
0.0000

> <Gold.PLP.part.buried>
-5.1697

> <Gold.PLP.part.nonpolar>
-36.8586

> <Gold.PLP.part.repulsive>
0.1951

> <Gold.PLP.ligand.clash>
0.0000

> <Gold.PLP.ligand.torsion>
0.1147

> <Gold.PLP.Chemscore.Hbond>
1.8320

> <Gold.PLP.Chemscore.CHOScore>
0.7011

> <Gold.PLP.Chemscore.Metal>
0.0000

> <Gold.Chemscore.Hbonds>
donor molecule, donor type, donor heavy atom, donor atom, acceptor molecule, acceptor atom, score
      L1  H     3    25       P1  7948  0.90
      P1  H 10752 10763       L1     1  0.85
      L1  C     8    28       P1 10747  0.74

> <Gold.PLP.Chemscore.Internal.Correction>
0.0598

> <Gold.Rescore>
     Score         DG    S(hbond)    S(metal)    S(lipo)     H(rot)  DE(clash)    DE(int)     intcor
     15.09     -18.02       0.81        0.00     110.99       1.23       0.10       2.83       ----

> <Gold.Chemscore.Fitness>
15.0928

> <Gold.Chemscore.DG>
-18.0159

> <Gold.Chemscore.ZeroCoef>
-5.4800

> <Gold.Chemscore.Hbond>
0.8116

> <Gold.Chemscore.Metal>
0.0000

> <Gold.Chemscore.Lipo>
110.9853

> <Gold.Chemscore.Internal_Hbond>
0.0000

> <Gold.Chemscore.DEClash>
0.0951

> <Gold.Chemscore.DEInternal>
2.8280

> <Gold.Chemscore.Rot>
1.2344

> <Gold.Chemscore.Internal.Correction>
   9.000000E+99

> <Gold.Chemscore.Hbonds>
donor molecule, donor type, donor heavy atom, donor atom, acceptor molecule, acceptor atom, score
      L1  H     3    25       P1  7948  0.51
      P1  H 10752 10763       L1     1  0.13

> <Gold.Chemscore.Hbond.Weighted>
-2.7106

> <Gold.Chemscore.Metal.Weighted>
-0.0000

> <Gold.Chemscore.Lipo.Weighted>
-12.9853

> <Gold.Chemscore.Internal_Hbond.Weighted>
0.0000

> <Gold.Chemscore.DEClash.Weighted>
0.0951

> <Gold.Chemscore.DEInternal.Weighted>
2.8280

> <Gold.Chemscore.Rot.Weighted>
3.1600

> <Gold.Chemscore.Internal.Correction.Weighted>
   9.000000E+99

> <Gold.Protein.RotatedTorsions>
[ 6907 6896 6895 6894 ] final    1.06 input  -60.11 | X-H torsion
[ 7974 7965 7964 7962 ] final   95.99 input  175.53 | X-H torsion
[ 8008 7997 7996 7995 ] final   54.52 input   59.86 | X-H torsion
[ 10167 10162 10161 10158 ] final -150.72 input  -65.29 | X-H torsion
[ 10718 10713 10712 10709 ] final -116.76 input   66.30 | X-H torsion
[ 10763 10752 10751 10750 ] final   92.60 input  -60.55 | X-H torsion
[ 11005 11000 10999 10996 ] final  178.81 input  -57.11 | X-H torsion

> <Gold.Protein.ActiveResidues>
 VAL166  LYS551  ARG553  GLY616  TRP617  ASP618  TYR619  PRO620  LYS621  CYS622 
 ASP623  PHE694  ASN695  SER759  ASP760  ASP761  ALA762  ILE779  LEU786  VAL792 
 PHE793  MET794  SER795  GLU796  ALA797  LYS798  CYS799  TRP800  GLU811  SER814 

> <Gold.Protein.RotatedAtoms>
  151.5866  135.1055  160.0029 H   0  0  0  0  0  0  0  0  0  0  0  0  # atno 6907 bound_to 6896
  152.4327  133.7302  159.6594 H   0  0  0  0  0  0  0  0  0  0  0  0  # atno 6908 bound_to 6896
  150.8221  133.8163  159.3157 H   0  0  0  0  0  0  0  0  0  0  0  0  # atno 6909 bound_to 6896
  145.4448  139.2298  143.3072 H   0  0  0  0  0  0  0  0  0  0  0  0  # atno 7974 bound_to 7965
  155.4860  140.3470  155.4347 H   0  0  0  0  0  0  0  0  0  0  0  0  # atno 8008 bound_to 7997
  156.1008  140.1435  156.9499 H   0  0  0  0  0  0  0  0  0  0  0  0  # atno 8009 bound_to 7997
  154.4692  140.0906  156.7079 H   0  0  0  0  0  0  0  0  0  0  0  0  # atno 8010 bound_to 7997
  139.7330  143.8779  152.2540 H   0  0  0  0  0  0  0  0  0  0  0  0  # atno 10167 bound_to 10162
  156.0986  130.6153  150.9077 H   0  0  0  0  0  0  0  0  0  0  0  0  # atno 10718 bound_to 10713
  153.2210  135.4355  155.0488 H   0  0  0  0  0  0  0  0  0  0  0  0  # atno 10763 bound_to 10752
  154.8249  135.3356  154.6928 H   0  0  0  0  0  0  0  0  0  0  0  0  # atno 10764 bound_to 10752
  153.7360  135.7008  153.5034 H   0  0  0  0  0  0  0  0  0  0  0  0  # atno 10765 bound_to 10752
  140.3992  134.6793  157.4552 H   0  0  0  0  0  0  0  0  0  0  0  0  # atno 11005 bound_to 11000
  146.2537  140.5200  142.8883 LP  0  0  0  0  0  0  0  0  0  0  0  0  # atno 17320 bound_to 7965
  144.8099  140.6366  143.6422 LP  0  0  0  0  0  0  0  0  0  0  0  0  # atno 17321 bound_to 7965
  139.8708  144.7069  150.8990 LP  0  0  0  0  0  0  0  0  0  0  0  0  # atno 17342 bound_to 10162
  140.7774  143.3740  151.1597 LP  0  0  0  0  0  0  0  0  0  0  0  0  # atno 17343 bound_to 10162
  157.6152  131.0934  150.8723 LP  0  0  0  0  0  0  0  0  0  0  0  0  # atno 17370 bound_to 10713
  156.8856  130.5195  149.5288 LP  0  0  0  0  0  0  0  0  0  0  0  0  # atno 17371 bound_to 10713
  140.0349  134.6352  155.9057 LP  0  0  0  0  0  0  0  0  0  0  0  0  # atno 17394 bound_to 11000
  141.1863  133.6557  156.5233 LP  0  0  0  0  0  0  0  0  0  0  0  0  # atno 17395 bound_to 11000

$$$$
