AV-unprocessed.smi:1365|AV-procd|sdf|5569|dock8
  -GOLD-   22720 5163D 1   1.00000     0.00000
 Structure written by MMmdl.
 41 42  0  0  0  0  0  0  0  0  3 V2000
  152.2021  141.9008  158.8951 C   0  0  0  0  0  0  0  0  0  0  0  0
  151.8135  141.3773  157.5548 C   0  0  0  0  0  0  0  0  0  0  0  0
  150.8303  141.7254  156.6726 C   0  0  0  0  0  0  0  0  0  0  0  0
  151.0201  140.8132  155.5986 C   0  0  0  0  0  0  0  0  0  0  0  0
  150.2969  140.7604  154.4693 N   0  5  0  0  0  0  0  0  0  0  0  0
  148.9756  140.4752  154.5194 C   0  0  0  0  0  0  0  0  0  0  0  0
  148.3122  140.2476  155.5337 O   0  0  0  0  0  0  0  0  0  0  0  0
  148.3849  140.4502  153.3173 N   0  0  0  0  0  0  0  0  0  0  0  0
  146.9785  140.1562  153.0785 C   0  0  0  0  0  0  0  0  0  0  0  0
  146.7099  138.6542  153.2377 C   0  0  0  0  0  0  0  0  0  0  0  0
  146.1346  138.0283  151.9563 C   0  0  0  0  0  0  0  0  0  0  0  0
  146.0481  136.5482  152.0378 N   0  3  0  0  0  0  0  0  0  0  0  0
  145.5168  135.9474  150.7861 C   0  0  0  0  0  0  0  0  0  0  0  0
  145.5622  134.4108  150.8409 C   0  0  0  0  0  0  0  0  0  0  0  0
  144.8027  133.8803  152.0634 C   0  0  0  0  0  0  0  0  0  0  0  0
  145.3444  134.5362  153.3398 C   0  0  0  0  0  0  0  0  0  0  0  0
  145.3010  136.0702  153.2328 C   0  0  0  0  0  0  0  0  0  0  0  0
  152.0400  139.9965  155.8030 N   0  0  0  0  0  0  0  0  0  0  0  0
  152.5501  140.3470  157.0587 O   0  0  0  0  0  0  0  0  0  0  0  0
  152.3479  142.9805  158.8598 H   0  0  0  0  0  0  0  0  0  0  0  0
  153.1304  141.4459  159.2414 H   0  0  0  0  0  0  0  0  0  0  0  0
  151.4265  141.6876  159.6307 H   0  0  0  0  0  0  0  0  0  0  0  0
  150.0897  142.5035  156.7796 H   0  0  0  0  0  0  0  0  0  0  0  0
  148.9612  140.6440  152.5115 H   0  0  0  0  0  0  0  0  0  0  0  0
  146.3622  140.7195  153.7812 H   0  0  0  0  0  0  0  0  0  0  0  0
  146.7100  140.4867  152.0740 H   0  0  0  0  0  0  0  0  0  0  0  0
  147.6378  138.1464  153.5047 H   0  0  0  0  0  0  0  0  0  0  0  0
  146.0259  138.5090  154.0735 H   0  0  0  0  0  0  0  0  0  0  0  0
  145.1537  138.4465  151.7250 H   0  0  0  0  0  0  0  0  0  0  0  0
  146.7895  138.3046  151.1286 H   0  0  0  0  0  0  0  0  0  0  0  0
  144.4935  136.2895  150.6231 H   0  0  0  0  0  0  0  0  0  0  0  0
  146.1052  136.2892  149.9335 H   0  0  0  0  0  0  0  0  0  0  0  0
  145.1367  133.9924  149.9282 H   0  0  0  0  0  0  0  0  0  0  0  0
  146.5997  134.0757  150.8802 H   0  0  0  0  0  0  0  0  0  0  0  0
  143.7384  134.0963  151.9601 H   0  0  0  0  0  0  0  0  0  0  0  0
  144.8975  132.7957  152.1263 H   0  0  0  0  0  0  0  0  0  0  0  0
  144.7647  134.2057  154.2022 H   0  0  0  0  0  0  0  0  0  0  0  0
  146.3706  134.2099  153.5137 H   0  0  0  0  0  0  0  0  0  0  0  0
  145.7222  136.4970  154.1422 H   0  0  0  0  0  0  0  0  0  0  0  0
  144.2660  136.4112  153.1758 H   0  0  0  0  0  0  0  0  0  0  0  0
  146.9964  136.2124  152.1281 H   0  0  0  0  0  0  0  0  0  0  0  0
  1  2  1  0  0  0  0
  1 20  1  0  0  0  0
  1 21  1  0  0  0  0
  1 22  1  0  0  0  0
  2 19  1  0  0  0  0
  2  3  2  0  0  0  0
  3  4  1  0  0  0  0
  3 23  1  0  0  0  0
  4  5  1  0  0  0  0
  4 18  2  0  0  0  0
  5  6  1  0  0  0  0
  6  7  2  0  0  0  0
  6  8  1  0  0  0  0
  8  9  1  0  0  0  0
  8 24  1  0  0  0  0
  9 10  1  0  0  0  0
  9 25  1  0  0  0  0
  9 26  1  0  0  0  0
 10 11  1  0  0  0  0
 10 27  1  0  0  0  0
 10 28  1  0  0  0  0
 11 12  1  0  0  0  0
 11 29  1  0  0  0  0
 11 30  1  0  0  0  0
 12 17  1  0  0  0  0
 12 13  1  0  0  0  0
 12 41  1  0  0  0  0
 13 14  1  0  0  0  0
 13 31  1  0  0  0  0
 13 32  1  0  0  0  0
 14 15  1  0  0  0  0
 14 33  1  0  0  0  0
 14 34  1  0  0  0  0
 15 16  1  0  0  0  0
 15 35  1  0  0  0  0
 15 36  1  0  0  0  0
 16 17  1  0  0  0  0
 16 37  1  0  0  0  0
 16 38  1  0  0  0  0
 17 39  1  0  0  0  0
 17 40  1  0  0  0  0
 18 19  1  0  0  0  0
M  CHG  1   5  -1
M  CHG  1  12   1
M  END
> <s_m_source_file>
AV-unprocessed.smi

> <i_m_source_file_index>
1365

> <i_lp_mmshare_version>
43012

> <i_f3d_flags>
0

> <s_epik_input>
W0NIM11jMVtjSF1jKG5vMSlbTkhdQyg9TylbTkhdW0NIMl1bQ0gyXVtDSDJdTjJbQ0gyXVtDSDJdW0NIMl1bQ0gyXVtDSDJdMg==

> <s_epik_cmdline>
J2VwaWtfcHl0aG9uJywgJy1waCcsICc3LjAnLCAnLXRuJywgJzgnLCAnLW1hJywgJzIwMCcsICctbWV0YWxfYmluZGluZycsICctaW1hZScsICc8aW5maWxlLm1hZT4nLCAnLW9tYWUnLCAnPG91dGZpbGUubWFlPic=

> <r_epik_Ionization_Penalty>
6.42355

> <r_epik_Ionization_Penalty_Charging>
6.42345

> <r_epik_Ionization_Penalty_Neutral>
0.000108417

> <r_epik_State_Penalty>
6.4233

> <r_epik_Charging_Adjusted_Penalty>
12.8467

> <i_epik_Tot_Q>
0

> <i_epik_Tot_abs_Q>
2

> <r_epik_Metal_State_Penalty>
2.35308

> <b_epik_Metal_Only>
1

> <s_lp_Force_Field>
OPLS_2005

> <r_lp_Energy>
6.88196

> <b_lp_Chiralities_Consistent>
1

> <s_lp_Variant>
AV-unprocessed.smi:1365-2

> <Gold.Version>
5.8.1

> <Gold.Id.Protein>
6NUR|6NUR_protein|mol2

> <Gold.PLP.Fitness>
44.8950

> <Gold.PLP.PLP>
-32.0668

> <Gold.PLP.part.hbond>
-4.1261

> <Gold.PLP.part.metal>
0.0000

> <Gold.PLP.part.buried>
-3.7711

> <Gold.PLP.part.nonpolar>
-24.4825

> <Gold.PLP.part.repulsive>
0.2985

> <Gold.PLP.ligand.clash>
0.0000

> <Gold.PLP.ligand.torsion>
1.0765

> <Gold.PLP.Chemscore.Hbond>
4.9760

> <Gold.PLP.Chemscore.CHOScore>
0.0000

> <Gold.PLP.Chemscore.Metal>
0.0000

> <Gold.Chemscore.Hbonds>
donor molecule, donor type, donor heavy atom, donor atom, acceptor molecule, acceptor atom, score
      L1  H     8    24       P1  7957  0.93
      L1  H    12    41       P1  7948  2.00
      P1  H  7989  7998       L1     5  0.55
      P1  H  7997  8009       L1    19  0.78

> <Gold.PLP.Chemscore.Internal.Correction>
0.0532

> <Gold.Rescore>
     Score         DG    S(hbond)    S(metal)    S(lipo)     H(rot)  DE(clash)    DE(int)     intcor
     16.58     -17.76       2.70        0.00      66.62       1.78       0.05       1.12       ----

> <Gold.Chemscore.Fitness>
16.5825

> <Gold.Chemscore.DG>
-17.7579

> <Gold.Chemscore.ZeroCoef>
-5.4800

> <Gold.Chemscore.Hbond>
2.7046

> <Gold.Chemscore.Metal>
0.0000

> <Gold.Chemscore.Lipo>
66.6249

> <Gold.Chemscore.Internal_Hbond>
0.0000

> <Gold.Chemscore.DEClash>
0.0515

> <Gold.Chemscore.DEInternal>
1.1238

> <Gold.Chemscore.Rot>
1.7776

> <Gold.Chemscore.Internal.Correction>
   9.000000E+99

> <Gold.Chemscore.Hbonds>
donor molecule, donor type, donor heavy atom, donor atom, acceptor molecule, acceptor atom, score
      L1  H     8    24       P1  7957  0.89
      L1  H    12    41       P1  7948  0.97
      P1  H  7989  7998       L1     5  0.06
      P1  H  7997  8009       L1    19  0.31

> <Gold.Chemscore.Hbond.Weighted>
-9.0334

> <Gold.Chemscore.Metal.Weighted>
-0.0000

> <Gold.Chemscore.Lipo.Weighted>
-7.7951

> <Gold.Chemscore.Internal_Hbond.Weighted>
0.0000

> <Gold.Chemscore.DEClash.Weighted>
0.0515

> <Gold.Chemscore.DEInternal.Weighted>
1.1238

> <Gold.Chemscore.Rot.Weighted>
4.5506

> <Gold.Chemscore.Internal.Correction.Weighted>
   9.000000E+99

> <Gold.Protein.RotatedTorsions>
[ 6907 6896 6895 6894 ] final  169.08 input  -60.11 | X-H torsion
[ 7974 7965 7964 7962 ] final  -35.42 input  175.53 | X-H torsion
[ 8008 7997 7996 7995 ] final  165.44 input   59.86 | X-H torsion
[ 10167 10162 10161 10158 ] final  -53.41 input  -65.29 | X-H torsion
[ 10718 10713 10712 10709 ] final -103.16 input   66.30 | X-H torsion
[ 10763 10752 10751 10750 ] final   69.24 input  -60.55 | X-H torsion
[ 11005 11000 10999 10996 ] final  -92.57 input  -57.11 | X-H torsion

> <Gold.Protein.ActiveResidues>
 VAL166  LYS551  ARG553  GLY616  TRP617  ASP618  TYR619  PRO620  LYS621  CYS622 
 ASP623  PHE694  ASN695  SER759  ASP760  ASP761  ALA762  ILE779  LEU786  VAL792 
 PHE793  MET794  SER795  GLU796  ALA797  LYS798  CYS799  TRP800  GLU811  SER814 

> <Gold.Protein.RotatedAtoms>
  151.8376  133.3418  159.3632 H   0  0  0  0  0  0  0  0  0  0  0  0  # atno 6907 bound_to 6896
  150.7245  134.5423  159.5762 H   0  0  0  0  0  0  0  0  0  0  0  0  # atno 6908 bound_to 6896
  152.2889  134.7745  160.0433 H   0  0  0  0  0  0  0  0  0  0  0  0  # atno 6909 bound_to 6896
  146.0747  140.6157  142.8936 H   0  0  0  0  0  0  0  0  0  0  0  0  # atno 7974 bound_to 7965
  156.1800  140.1670  156.8292 H   0  0  0  0  0  0  0  0  0  0  0  0  # atno 8008 bound_to 7997
  154.5349  140.0749  156.8443 H   0  0  0  0  0  0  0  0  0  0  0  0  # atno 8009 bound_to 7997
  155.3331  140.3380  155.4241 H   0  0  0  0  0  0  0  0  0  0  0  0  # atno 8010 bound_to 7997
  140.6486  143.2551  151.4789 H   0  0  0  0  0  0  0  0  0  0  0  0  # atno 10167 bound_to 10162
  156.0255  130.5454  150.7213 H   0  0  0  0  0  0  0  0  0  0  0  0  # atno 10718 bound_to 10713
  153.0277  135.5218  154.7258 H   0  0  0  0  0  0  0  0  0  0  0  0  # atno 10763 bound_to 10752
  154.6300  135.2899  155.0230 H   0  0  0  0  0  0  0  0  0  0  0  0  # atno 10764 bound_to 10752
  154.1185  135.6611  153.4951 H   0  0  0  0  0  0  0  0  0  0  0  0  # atno 10765 bound_to 10752
  141.1518  133.7830  157.0039 H   0  0  0  0  0  0  0  0  0  0  0  0  # atno 11005 bound_to 11000
  144.7254  140.4508  143.6977 LP  0  0  0  0  0  0  0  0  0  0  0  0  # atno 17320 bound_to 7965
  145.6327  139.1538  143.2960 LP  0  0  0  0  0  0  0  0  0  0  0  0  # atno 17321 bound_to 7965
  139.5699  144.1954  152.1820 LP  0  0  0  0  0  0  0  0  0  0  0  0  # atno 17342 bound_to 10162
  140.1247  144.5342  150.6840 LP  0  0  0  0  0  0  0  0  0  0  0  0  # atno 17343 bound_to 10162
  157.4828  131.0904  151.0517 LP  0  0  0  0  0  0  0  0  0  0  0  0  # atno 17370 bound_to 10713
  157.0945  130.5956  149.5447 LP  0  0  0  0  0  0  0  0  0  0  0  0  # atno 17371 bound_to 10713
  140.0922  134.9585  157.1794 LP  0  0  0  0  0  0  0  0  0  0  0  0  # atno 17394 bound_to 11000
  140.3430  134.2682  155.7209 LP  0  0  0  0  0  0  0  0  0  0  0  0  # atno 17395 bound_to 11000

$$$$
