AV-unprocessed.smi:2821|AV-procd|sdf|10858|dock1
  -GOLD-   2272015303D 1   1.00000     0.00000
 Structure written by MMmdl.
 36 37  0  0  0  0  0  0  0  0  1 V2000
  146.4433  143.0044  154.0616 C   0  0  0  0  0  0  0  0  0  0  0  0
  146.4447  141.6824  154.8332 C   0  0  0  0  0  0  0  0  0  0  0  0
  147.4151  140.8151  154.2545 O   0  0  0  0  0  0  0  0  0  0  0  0
  148.6965  140.8337  154.7652 C   0  0  0  0  0  0  0  0  0  0  0  0
  149.6697  139.9597  154.2354 C   0  0  0  0  0  0  0  0  0  0  0  0
  150.9391  139.9383  154.6977 N   0  0  0  0  0  0  0  0  0  0  0  0
  151.2341  140.7981  155.6977 C   0  0  0  0  0  0  0  0  0  0  0  0
  150.2708  141.6784  156.2387 C   0  0  0  0  0  0  0  0  0  0  0  0
  150.6377  142.5429  157.2803 N   0  0  0  0  0  0  0  0  0  0  0  0
  151.6781  142.1959  158.2453 C   0  0  2  0  0  0  0  0  0  0  0  0
  151.3697  140.8572  158.9372 C   0  0  0  0  0  0  0  0  0  0  0  0
  151.8757  143.3249  159.2763 C   0  0  1  0  0  0  0  0  0  0  0  0
  152.3636  144.6591  158.7053 C   0  0  0  0  0  0  0  0  0  0  0  0
  151.8830  145.6281  159.7616 C   0  0  0  0  0  0  0  0  0  0  0  0
  150.5302  145.0303  160.1373 C   0  0  0  0  0  0  0  0  0  0  0  0
  150.6678  143.6211  159.9753 O   0  0  0  0  0  0  0  0  0  0  0  0
  148.9997  141.6932  155.7706 N   0  0  0  0  0  0  0  0  0  0  0  0
  145.7113  143.6969  154.4776 H   0  0  0  0  0  0  0  0  0  0  0  0
  146.1935  142.8448  153.0124 H   0  0  0  0  0  0  0  0  0  0  0  0
  147.4209  143.4848  154.1051 H   0  0  0  0  0  0  0  0  0  0  0  0
  146.6808  141.8698  155.8821 H   0  0  0  0  0  0  0  0  0  0  0  0
  145.4519  141.2319  154.7854 H   0  0  0  0  0  0  0  0  0  0  0  0
  149.4279  139.2744  153.4364 H   0  0  0  0  0  0  0  0  0  0  0  0
  152.2489  140.7810  156.0682 H   0  0  0  0  0  0  0  0  0  0  0  0
  150.0937  143.3776  157.4466 H   0  0  0  0  0  0  0  0  0  0  0  0
  152.6228  142.0880  157.7111 H   0  0  0  0  0  0  0  0  0  0  0  0
  152.1595  140.5898  159.6395 H   0  0  0  0  0  0  0  0  0  0  0  0
  151.2868  140.0428  158.2176 H   0  0  0  0  0  0  0  0  0  0  0  0
  150.4330  140.9047  159.4935 H   0  0  0  0  0  0  0  0  0  0  0  0
  152.6006  143.0006  160.0249 H   0  0  0  0  0  0  0  0  0  0  0  0
  153.4436  144.6875  158.5574 H   0  0  0  0  0  0  0  0  0  0  0  0
  151.8839  144.8861  157.7525 H   0  0  0  0  0  0  0  0  0  0  0  0
  152.5549  145.6093  160.6208 H   0  0  0  0  0  0  0  0  0  0  0  0
  151.8113  146.6554  159.4040 H   0  0  0  0  0  0  0  0  0  0  0  0
  150.2267  145.2883  161.1522 H   0  0  0  0  0  0  0  0  0  0  0  0
  149.7571  145.3817  159.4528 H   0  0  0  0  0  0  0  0  0  0  0  0
  1  2  1  0  0  0  0
  1 18  1  0  0  0  0
  1 19  1  0  0  0  0
  1 20  1  0  0  0  0
  2  3  1  0  0  0  0
  2 21  1  0  0  0  0
  2 22  1  0  0  0  0
  3  4  1  0  0  0  0
  4 17  1  0  0  0  0
  4  5  2  0  0  0  0
  5  6  1  0  0  0  0
  5 23  1  0  0  0  0
  6  7  2  0  0  0  0
  7  8  1  0  0  0  0
  7 24  1  0  0  0  0
  8  9  1  0  0  0  0
  8 17  2  0  0  0  0
  9 10  1  0  0  0  0
  9 25  1  0  0  0  0
 10 11  1  0  0  0  0
 10 12  1  0  0  0  0
 10 26  1  0  0  0  0
 11 27  1  0  0  0  0
 11 28  1  0  0  0  0
 11 29  1  0  0  0  0
 12 16  1  0  0  0  0
 12 13  1  0  0  0  0
 12 30  1  0  0  0  0
 13 14  1  0  0  0  0
 13 31  1  0  0  0  0
 13 32  1  0  0  0  0
 14 15  1  0  0  0  0
 14 33  1  0  0  0  0
 14 34  1  0  0  0  0
 15 16  1  0  0  0  0
 15 35  1  0  0  0  0
 15 36  1  0  0  0  0
M  END
> <s_m_source_file>
AV-unprocessed.smi

> <i_m_source_file_index>
2821

> <i_lp_mmshare_version>
43012

> <i_f3d_flags>
0

> <s_epik_input>
W0NIM11bQ0gyXU9jMVtjSF1uW2NIXWMobjEpW05IXVtDQEhdKFtDSDNdKVtDQEBIXTJbQ0gyXVtDSDJdW0NIMl1PMg==

> <s_epik_cmdline>
J2VwaWtfcHl0aG9uJywgJy1waCcsICc3LjAnLCAnLXRuJywgJzgnLCAnLW1hJywgJzIwMCcsICctbWV0YWxfYmluZGluZycsICctaW1hZScsICc8aW5maWxlLm1hZT4nLCAnLW9tYWUnLCAnPG91dGZpbGUubWFlPic=

> <r_lp_tautomer_probability>
1

> <r_epik_Ionization_Penalty>
4.69533e-05

> <r_epik_Ionization_Penalty_Charging>
0

> <r_epik_Ionization_Penalty_Neutral>
4.69533e-05

> <r_epik_State_Penalty>
-0

> <r_epik_Charging_Adjusted_Penalty>
0

> <i_epik_Tot_Q>
0

> <i_epik_Tot_abs_Q>
0

> <r_epik_Metal_State_Penalty>
-0

> <b_epik_Metal_Only>
0

> <s_lp_Force_Field>
OPLS_2005

> <r_lp_Energy>
29.921

> <b_lp_Chiralities_Consistent>
1

> <s_lp_Variant>
AV-unprocessed.smi:2821-3

> <Gold.Version>
5.8.1

> <Gold.Id.Protein>
6NUR|6NUR_protein|mol2

> <Gold.PLP.Fitness>
41.7163

> <Gold.PLP.PLP>
-38.0705

> <Gold.PLP.part.hbond>
-2.0171

> <Gold.PLP.part.metal>
0.0000

> <Gold.PLP.part.buried>
-3.0933

> <Gold.PLP.part.nonpolar>
-32.9275

> <Gold.PLP.part.repulsive>
1.0240

> <Gold.PLP.ligand.clash>
0.0000

> <Gold.PLP.ligand.torsion>
0.4334

> <Gold.PLP.Chemscore.Hbond>
0.7125

> <Gold.PLP.Chemscore.CHOScore>
0.7680

> <Gold.PLP.Chemscore.Metal>
0.0000

> <Gold.Chemscore.Hbonds>
donor molecule, donor type, donor heavy atom, donor atom, acceptor molecule, acceptor atom, score
      P1  H  7989  7998       L1     6  0.68
      L1  C     5    23       P1  7957  0.78

> <Gold.PLP.Chemscore.Internal.Correction>
0.0711

> <Gold.Rescore>
     Score         DG    S(hbond)    S(metal)    S(lipo)     H(rot)  DE(clash)    DE(int)     intcor
     11.87     -12.65       0.27        0.00      87.52       1.55       0.39       0.39       ----

> <Gold.Chemscore.Fitness>
11.8675

> <Gold.Chemscore.DG>
-12.6487

> <Gold.Chemscore.ZeroCoef>
-5.4800

> <Gold.Chemscore.Hbond>
0.2697

> <Gold.Chemscore.Metal>
0.0000

> <Gold.Chemscore.Lipo>
87.5169

> <Gold.Chemscore.Internal_Hbond>
0.0000

> <Gold.Chemscore.DEClash>
0.3905

> <Gold.Chemscore.DEInternal>
0.3907

> <Gold.Chemscore.Rot>
1.5514

> <Gold.Chemscore.Internal.Correction>
   9.000000E+99

> <Gold.Chemscore.Hbonds>
donor molecule, donor type, donor heavy atom, donor atom, acceptor molecule, acceptor atom, score
      P1  H  7989  7998       L1     6  0.02

> <Gold.Chemscore.Hbond.Weighted>
-0.9007

> <Gold.Chemscore.Metal.Weighted>
-0.0000

> <Gold.Chemscore.Lipo.Weighted>
-10.2395

> <Gold.Chemscore.Internal_Hbond.Weighted>
0.0000

> <Gold.Chemscore.DEClash.Weighted>
0.3905

> <Gold.Chemscore.DEInternal.Weighted>
0.3907

> <Gold.Chemscore.Rot.Weighted>
3.9715

> <Gold.Chemscore.Internal.Correction.Weighted>
   9.000000E+99

> <Gold.Protein.RotatedTorsions>
[ 6907 6896 6895 6894 ] final   -5.77 input  -60.11 | X-H torsion
[ 7974 7965 7964 7962 ] final  -57.01 input  175.53 | X-H torsion
[ 8008 7997 7996 7995 ] final  119.25 input   59.86 | X-H torsion
[ 10167 10162 10161 10158 ] final  -95.54 input  -65.29 | X-H torsion
[ 10718 10713 10712 10709 ] final  -15.75 input   66.30 | X-H torsion
[ 10763 10752 10751 10750 ] final  -16.71 input  -60.55 | X-H torsion
[ 11005 11000 10999 10996 ] final  150.46 input  -57.11 | X-H torsion

> <Gold.Protein.ActiveResidues>
 VAL166  LYS551  ARG553  GLY616  TRP617  ASP618  TYR619  PRO620  LYS621  CYS622 
 ASP623  PHE694  ASN695  SER759  ASP760  ASP761  ALA762  ILE779  LEU786  VAL792 
 PHE793  MET794  SER795  GLU796  ALA797  LYS798  CYS799  TRP800  GLU811  SER814 

> <Gold.Protein.RotatedAtoms>
  151.4762  135.1049  159.9764 H   0  0  0  0  0  0  0  0  0  0  0  0  # atno 6907 bound_to 6896
  152.4797  133.8220  159.7069 H   0  0  0  0  0  0  0  0  0  0  0  0  # atno 6908 bound_to 6896
  150.8860  133.7246  159.2945 H   0  0  0  0  0  0  0  0  0  0  0  0  # atno 6909 bound_to 6896
  145.8561  140.8319  142.9961 H   0  0  0  0  0  0  0  0  0  0  0  0  # atno 7974 bound_to 7965
  156.2587  140.2857  156.0962 H   0  0  0  0  0  0  0  0  0  0  0  0  # atno 8008 bound_to 7997
  155.1409  140.0395  157.2815 H   0  0  0  0  0  0  0  0  0  0  0  0  # atno 8009 bound_to 7997
  154.6530  140.2549  155.7199 H   0  0  0  0  0  0  0  0  0  0  0  0  # atno 8010 bound_to 7997
  140.3031  143.3150  152.0227 H   0  0  0  0  0  0  0  0  0  0  0  0  # atno 10167 bound_to 10162
  156.5973  130.4814  149.6254 H   0  0  0  0  0  0  0  0  0  0  0  0  # atno 10718 bound_to 10713
  153.5626  135.7009  153.5540 H   0  0  0  0  0  0  0  0  0  0  0  0  # atno 10763 bound_to 10752
  153.3415  135.4019  155.1575 H   0  0  0  0  0  0  0  0  0  0  0  0  # atno 10764 bound_to 10752
  154.8645  135.3743  154.5144 H   0  0  0  0  0  0  0  0  0  0  0  0  # atno 10765 bound_to 10752
  140.1133  134.8910  157.1968 H   0  0  0  0  0  0  0  0  0  0  0  0  # atno 11005 bound_to 11000
  144.6727  140.1025  143.7460 LP  0  0  0  0  0  0  0  0  0  0  0  0  # atno 17320 bound_to 7965
  145.9302  139.2601  143.1329 LP  0  0  0  0  0  0  0  0  0  0  0  0  # atno 17321 bound_to 7965
  139.4910  144.6441  151.6816 LP  0  0  0  0  0  0  0  0  0  0  0  0  # atno 17342 bound_to 10162
  140.5633  144.0231  150.6180 LP  0  0  0  0  0  0  0  0  0  0  0  0  # atno 17343 bound_to 10162
  156.2499  130.6901  151.1635 LP  0  0  0  0  0  0  0  0  0  0  0  0  # atno 17370 bound_to 10713
  157.7288  131.0628  150.5801 LP  0  0  0  0  0  0  0  0  0  0  0  0  # atno 17371 bound_to 10713
  140.3061  134.3076  155.7278 LP  0  0  0  0  0  0  0  0  0  0  0  0  # atno 17394 bound_to 11000
  141.2135  133.7622  156.9711 LP  0  0  0  0  0  0  0  0  0  0  0  0  # atno 17395 bound_to 11000

$$$$
