AV-unprocessed.smi:1033|AV-procd|sdf|4500|dock2
  -GOLD-   22720 2493D 1   1.00000     0.00000
 Structure written by MMmdl.
 57 59  0  0  0  0  0  0  0  0  3 V2000
  152.2924  144.5431  160.0951 C   0  0  0  0  0  0  0  0  0  0  0  0
  152.1256  143.3556  159.1623 C   0  0  0  0  0  0  0  0  0  0  0  0
  151.2502  143.4812  158.0602 C   0  0  0  0  0  0  0  0  0  0  0  0
  151.1175  142.3773  157.2264 C   0  0  0  0  0  0  0  0  0  0  0  0
  150.3456  142.1869  156.0785 N   0  3  0  0  0  0  0  0  0  0  0  0
  150.5462  140.9285  155.5990 C   0  0  0  0  0  0  0  0  0  0  0  0
  151.4336  140.3100  156.4253 N   0  0  0  0  0  0  0  0  0  0  0  0
  151.9927  138.9520  156.3515 C   0  0  0  0  0  0  0  0  0  0  0  0
  152.4821  138.5786  154.9382 C   0  0  2  0  0  0  0  0  0  0  0  0
  153.3485  139.5868  154.4553 O   0  0  0  0  0  0  0  0  0  0  0  0
  151.3054  138.4258  153.9534 C   0  0  0  0  0  0  0  0  0  0  0  0
  150.3341  137.3817  154.3688 N   0  3  0  0  0  0  0  0  0  0  0  0
  149.3067  137.9072  155.3051 C   0  0  0  0  0  0  0  0  0  0  0  0
  148.2825  136.8085  155.6572 C   0  0  0  0  0  0  0  0  0  0  0  0
  148.8952  135.6078  156.2247 N   0  0  0  0  0  0  0  0  0  0  0  0
  149.3880  135.8149  157.5944 C   0  0  0  0  0  0  0  0  0  0  0  0
  148.3821  136.3936  158.6153 C   0  0  1  0  0  0  0  0  0  0  0  0
  148.5246  135.8386  160.0412 C   0  0  0  0  0  0  0  0  0  0  0  0
  148.4351  137.8055  158.6255 O   0  0  0  0  0  0  0  0  0  0  0  0
  149.8965  135.1108  155.2779 C   0  0  0  0  0  0  0  0  0  0  0  0
  150.9714  136.1567  154.9222 C   0  0  0  0  0  0  0  0  0  0  0  0
  151.8196  141.1775  157.4551 C   0  0  0  0  0  0  0  0  0  0  0  0
  152.6864  141.0376  158.5369 C   0  0  0  0  0  0  0  0  0  0  0  0
  152.8346  142.1490  159.3974 C   0  0  0  0  0  0  0  0  0  0  0  0
  153.7720  142.0247  160.5866 C   0  0  0  0  0  0  0  0  0  0  0  0
  151.6638  145.3807  159.7911 H   0  0  0  0  0  0  0  0  0  0  0  0
  153.3271  144.8865  160.0965 H   0  0  0  0  0  0  0  0  0  0  0  0
  152.0154  144.2727  161.1142 H   0  0  0  0  0  0  0  0  0  0  0  0
  150.7075  144.3967  157.8746 H   0  0  0  0  0  0  0  0  0  0  0  0
  150.0859  140.5004  154.7198 H   0  0  0  0  0  0  0  0  0  0  0  0
  152.8277  138.9152  157.0525 H   0  0  0  0  0  0  0  0  0  0  0  0
  151.2564  138.2375  156.7209 H   0  0  0  0  0  0  0  0  0  0  0  0
  153.0465  137.6492  155.0056 H   0  0  0  0  0  0  0  0  0  0  0  0
  152.9649  139.9665  153.6790 H   0  0  0  0  0  0  0  0  0  0  0  0
  150.7803  139.3746  153.8338 H   0  0  0  0  0  0  0  0  0  0  0  0
  151.7092  138.1768  152.9705 H   0  0  0  0  0  0  0  0  0  0  0  0
  149.7864  138.2963  156.2041 H   0  0  0  0  0  0  0  0  0  0  0  0
  148.7855  138.7451  154.8407 H   0  0  0  0  0  0  0  0  0  0  0  0
  147.5356  137.2050  156.3458 H   0  0  0  0  0  0  0  0  0  0  0  0
  147.7355  136.5345  154.7540 H   0  0  0  0  0  0  0  0  0  0  0  0
  149.8303  134.9024  157.9937 H   0  0  0  0  0  0  0  0  0  0  0  0
  150.2114  136.5284  157.5408 H   0  0  0  0  0  0  0  0  0  0  0  0
  147.3811  136.1435  158.2625 H   0  0  0  0  0  0  0  0  0  0  0  0
  148.4653  134.7500  160.0431 H   0  0  0  0  0  0  0  0  0  0  0  0
  147.7290  136.2129  160.6864 H   0  0  0  0  0  0  0  0  0  0  0  0
  149.4747  136.1220  160.4946 H   0  0  0  0  0  0  0  0  0  0  0  0
  148.1936  138.1098  159.4870 H   0  0  0  0  0  0  0  0  0  0  0  0
  150.3664  134.2049  155.6571 H   0  0  0  0  0  0  0  0  0  0  0  0
  149.3908  134.8064  154.3604 H   0  0  0  0  0  0  0  0  0  0  0  0
  151.6516  135.7221  154.1910 H   0  0  0  0  0  0  0  0  0  0  0  0
  151.5727  136.4077  155.7968 H   0  0  0  0  0  0  0  0  0  0  0  0
  153.2246  140.1197  158.7208 H   0  0  0  0  0  0  0  0  0  0  0  0
  154.2562  141.0480  160.6133 H   0  0  0  0  0  0  0  0  0  0  0  0
  153.2236  142.1502  161.5204 H   0  0  0  0  0  0  0  0  0  0  0  0
  154.5547  142.7820  160.5391 H   0  0  0  0  0  0  0  0  0  0  0  0
  149.8369  137.1045  153.5340 H   0  0  0  0  0  0  0  0  0  0  0  0
  149.7295  142.8658  155.6495 H   0  0  0  0  0  0  0  0  0  0  0  0
  1  2  1  0  0  0  0
  1 26  1  0  0  0  0
  1 27  1  0  0  0  0
  1 28  1  0  0  0  0
  2 24  1  0  0  0  0
  2  3  2  0  0  0  0
  3  4  1  0  0  0  0
  3 29  1  0  0  0  0
  4 22  2  0  0  0  0
  4  5  1  0  0  0  0
  5  6  2  0  0  0  0
  5 57  1  0  0  0  0
  6  7  1  0  0  0  0
  6 30  1  0  0  0  0
  7  8  1  0  0  0  0
  7 22  1  0  0  0  0
  8  9  1  0  0  0  0
  8 31  1  0  0  0  0
  8 32  1  0  0  0  0
  9 10  1  0  0  0  0
  9 11  1  0  0  0  0
  9 33  1  0  0  0  0
 10 34  1  0  0  0  0
 11 12  1  0  0  0  0
 11 35  1  0  0  0  0
 11 36  1  0  0  0  0
 12 21  1  0  0  0  0
 12 13  1  0  0  0  0
 12 56  1  0  0  0  0
 13 14  1  0  0  0  0
 13 37  1  0  0  0  0
 13 38  1  0  0  0  0
 14 15  1  0  0  0  0
 14 39  1  0  0  0  0
 14 40  1  0  0  0  0
 15 16  1  0  0  0  0
 15 20  1  0  0  0  0
 16 17  1  0  0  0  0
 16 41  1  0  0  0  0
 16 42  1  0  0  0  0
 17 18  1  0  0  0  0
 17 19  1  0  0  0  0
 17 43  1  0  0  0  0
 18 44  1  0  0  0  0
 18 45  1  0  0  0  0
 18 46  1  0  0  0  0
 19 47  1  0  0  0  0
 20 21  1  0  0  0  0
 20 48  1  0  0  0  0
 20 49  1  0  0  0  0
 21 50  1  0  0  0  0
 21 51  1  0  0  0  0
 22 23  1  0  0  0  0
 23 24  2  0  0  0  0
 23 52  1  0  0  0  0
 24 25  1  0  0  0  0
 25 53  1  0  0  0  0
 25 54  1  0  0  0  0
 25 55  1  0  0  0  0
M  CHG  1   5   1
M  CHG  1  12   1
M  END
> <s_m_source_file>
AV-unprocessed.smi

> <i_m_source_file_index>
1033

> <i_lp_mmshare_version>
43012

> <i_f3d_flags>
0

> <s_epik_input>
W0NIM11jKFtjSF0xKWMoW0NIM10pW2NIXWMoYzEyKW4oW2NIXW4yKVtDSDJdW0NASF0oW09IXSlbQ0gyXU4zW0NIMl1bQ0gyXU4oW0NIMl1bQ0gyXTMpW0NIMl1bQ0BIXShbQ0gzXSlbT0hd

> <s_epik_cmdline>
J2VwaWtfcHl0aG9uJywgJy1waCcsICc3LjAnLCAnLXRuJywgJzgnLCAnLW1hJywgJzIwMCcsICctbWV0YWxfYmluZGluZycsICctaW1hZScsICc8aW5maWxlLm1hZT4nLCAnLW9tYWUnLCAnPG91dGZpbGUubWFlPic=

> <r_epik_Ionization_Penalty>
1.22049

> <r_epik_Ionization_Penalty_Charging>
1.17952

> <r_epik_Ionization_Penalty_Neutral>
0.0409743

> <r_epik_State_Penalty>
1.61468

> <r_epik_Charging_Adjusted_Penalty>
2.7942

> <i_epik_Tot_Q>
2

> <i_epik_Tot_abs_Q>
2

> <r_epik_Metal_State_Penalty>
5.63169

> <b_epik_Metal_Only>
0

> <s_lp_Force_Field>
OPLS_2005

> <r_lp_Energy>
46.6999

> <b_lp_Chiralities_Consistent>
1

> <s_lp_Variant>
AV-unprocessed.smi:1033-11

> <Gold.Version>
5.8.1

> <Gold.Id.Protein>
6NUR|6NUR_protein|mol2

> <Gold.PLP.Fitness>
61.3601

> <Gold.PLP.PLP>
-47.6613

> <Gold.PLP.part.hbond>
-4.3850

> <Gold.PLP.part.metal>
0.0000

> <Gold.PLP.part.buried>
-6.8283

> <Gold.PLP.part.nonpolar>
-37.2253

> <Gold.PLP.part.repulsive>
0.1839

> <Gold.PLP.ligand.clash>
0.0000

> <Gold.PLP.ligand.torsion>
0.8733

> <Gold.PLP.Chemscore.Hbond>
5.0000

> <Gold.PLP.Chemscore.CHOScore>
0.0000

> <Gold.PLP.Chemscore.Metal>
0.0000

> <Gold.Chemscore.Hbonds>
donor molecule, donor type, donor heavy atom, donor atom, acceptor molecule, acceptor atom, score
      L1  H     5    57       P1  8028  1.97
      L1  H    12    56       P1  7948  1.92
      P1  H  7997  8010       L1    10  1.00

> <Gold.PLP.Chemscore.Internal.Correction>
0.4454

> <Gold.Rescore>
     Score         DG    S(hbond)    S(metal)    S(lipo)     H(rot)  DE(clash)    DE(int)     intcor
     19.93     -21.20       2.79        0.00     123.61       3.15       0.25       1.03       ----

> <Gold.Chemscore.Fitness>
19.9270

> <Gold.Chemscore.DG>
-21.2010

> <Gold.Chemscore.ZeroCoef>
-5.4800

> <Gold.Chemscore.Hbond>
2.7901

> <Gold.Chemscore.Metal>
0.0000

> <Gold.Chemscore.Lipo>
123.6053

> <Gold.Chemscore.Internal_Hbond>
0.0000

> <Gold.Chemscore.DEClash>
0.2456

> <Gold.Chemscore.DEInternal>
1.0283

> <Gold.Chemscore.Rot>
3.1483

> <Gold.Chemscore.Internal.Correction>
   9.000000E+99

> <Gold.Chemscore.Hbonds>
donor molecule, donor type, donor heavy atom, donor atom, acceptor molecule, acceptor atom, score
      L1  H     5    57       P1  8028  0.87
      L1  H    12    56       P1  7948  0.50
      P1  H  7997  8010       L1    10  0.97

> <Gold.Chemscore.Hbond.Weighted>
-9.3189

> <Gold.Chemscore.Metal.Weighted>
-0.0000

> <Gold.Chemscore.Lipo.Weighted>
-14.4618

> <Gold.Chemscore.Internal_Hbond.Weighted>
0.0000

> <Gold.Chemscore.DEClash.Weighted>
0.2456

> <Gold.Chemscore.DEInternal.Weighted>
1.0283

> <Gold.Chemscore.Rot.Weighted>
8.0597

> <Gold.Chemscore.Internal.Correction.Weighted>
   9.000000E+99

> <Gold.Protein.RotatedTorsions>
[ 6907 6896 6895 6894 ] final -120.39 input  -60.11 | X-H torsion
[ 7974 7965 7964 7962 ] final  152.92 input  175.53 | X-H torsion
[ 8008 7997 7996 7995 ] final  133.93 input   59.86 | X-H torsion
[ 10167 10162 10161 10158 ] final   -6.19 input  -65.29 | X-H torsion
[ 10718 10713 10712 10709 ] final  -88.51 input   66.30 | X-H torsion
[ 10763 10752 10751 10750 ] final  149.76 input  -60.55 | X-H torsion
[ 11005 11000 10999 10996 ] final    5.82 input  -57.11 | X-H torsion

> <Gold.Protein.ActiveResidues>
 VAL166  LYS551  ARG553  GLY616  TRP617  ASP618  TYR619  PRO620  LYS621  CYS622 
 ASP623  PHE694  ASN695  SER759  ASP760  ASP761  ALA762  ILE779  LEU786  VAL792 
 PHE793  MET794  SER795  GLU796  ALA797  LYS798  CYS799  TRP800  GLU811  SER814 

> <Gold.Protein.RotatedAtoms>
  150.8388  133.7969  159.3068 H   0  0  0  0  0  0  0  0  0  0  0  0  # atno 6907 bound_to 6896
  151.5676  135.1062  159.9997 H   0  0  0  0  0  0  0  0  0  0  0  0  # atno 6908 bound_to 6896
  152.4456  133.7488  159.6738 H   0  0  0  0  0  0  0  0  0  0  0  0  # atno 6909 bound_to 6896
  144.8189  139.6732  143.6109 H   0  0  0  0  0  0  0  0  0  0  0  0  # atno 7974 bound_to 7965
  156.2996  140.2509  156.3333 H   0  0  0  0  0  0  0  0  0  0  0  0  # atno 8008 bound_to 7997
  154.9124  140.0403  157.1972 H   0  0  0  0  0  0  0  0  0  0  0  0  # atno 8009 bound_to 7997
  154.8392  140.2888  155.5675 H   0  0  0  0  0  0  0  0  0  0  0  0  # atno 8010 bound_to 7997
  140.6988  143.6223  150.8601 H   0  0  0  0  0  0  0  0  0  0  0  0  # atno 10167 bound_to 10162
  155.9983  130.4838  150.5030 H   0  0  0  0  0  0  0  0  0  0  0  0  # atno 10718 bound_to 10713
  154.0764  135.2862  155.3298 H   0  0  0  0  0  0  0  0  0  0  0  0  # atno 10763 bound_to 10752
  154.6712  135.5298  153.8144 H   0  0  0  0  0  0  0  0  0  0  0  0  # atno 10764 bound_to 10752
  153.0465  135.6558  154.0942 H   0  0  0  0  0  0  0  0  0  0  0  0  # atno 10765 bound_to 10752
  140.5664  134.0144  155.7991 H   0  0  0  0  0  0  0  0  0  0  0  0  # atno 11005 bound_to 11000
  146.2494  139.6167  142.9437 LP  0  0  0  0  0  0  0  0  0  0  0  0  # atno 17320 bound_to 7965
  145.5150  141.0434  143.2467 LP  0  0  0  0  0  0  0  0  0  0  0  0  # atno 17321 bound_to 7965
  139.9943  143.5813  152.2899 LP  0  0  0  0  0  0  0  0  0  0  0  0  # atno 17342 bound_to 10162
  139.6479  144.7659  151.2206 LP  0  0  0  0  0  0  0  0  0  0  0  0  # atno 17343 bound_to 10162
  157.3012  131.0645  151.2067 LP  0  0  0  0  0  0  0  0  0  0  0  0  # atno 17370 bound_to 10713
  157.3046  130.6859  149.6182 LP  0  0  0  0  0  0  0  0  0  0  0  0  # atno 17371 bound_to 10713
  141.1083  133.9658  157.2957 LP  0  0  0  0  0  0  0  0  0  0  0  0  # atno 17394 bound_to 11000
  139.9383  135.0194  156.8626 LP  0  0  0  0  0  0  0  0  0  0  0  0  # atno 17395 bound_to 11000

$$$$
