AV-unprocessed.smi:2627|AV-procd|sdf|10241|dock2
  -GOLD-   2272014253D 1   1.00000     0.00000
 Structure written by MMmdl.
 40 42  0  0  0  0  0  0  0  0  2 V2000
  153.1556  138.1048  154.2638 C   0  0  0  0  0  0  0  0  0  0  0  0
  151.8126  137.4524  154.6154 C   0  0  2  0  0  0  0  0  0  0  0  0
  151.6157  136.3372  153.7710 O   0  0  0  0  0  0  0  0  0  0  0  0
  150.6948  138.4435  154.5134 C   0  0  0  0  0  0  0  0  0  0  0  0
  149.5645  138.3034  153.7631 N   0  3  0  0  0  0  0  0  0  0  0  0
  148.7531  139.4285  153.9133 C   0  0  0  0  0  0  0  0  0  0  0  0
  147.5149  139.7397  153.3603 C   0  0  0  0  0  0  0  0  0  0  0  0
  146.9524  140.9803  153.7259 C   0  0  0  0  0  0  0  0  0  0  0  0
  147.6168  141.8557  154.6097 C   0  0  0  0  0  0  0  0  0  0  0  0
  148.8727  141.5296  155.1633 C   0  0  0  0  0  0  0  0  0  0  0  0
  149.4232  140.3027  154.7933 C   0  0  0  0  0  0  0  0  0  0  0  0
  150.6207  139.6602  155.1265 N   0  0  0  0  0  0  0  0  0  0  0  0
  151.5665  140.3245  156.0324 C   0  0  0  0  0  0  0  0  0  0  0  0
  150.8740  140.8412  157.2987 C   0  0  0  0  0  0  0  0  0  0  0  0
  151.4257  142.1080  157.6257 O   0  0  0  0  0  0  0  0  0  0  0  0
  152.0070  142.2656  158.8653 C   0  0  0  0  0  0  0  0  0  0  0  0
  152.5884  141.1207  159.4485 C   0  0  0  0  0  0  0  0  0  0  0  0
  153.2026  141.1885  160.7138 C   0  0  0  0  0  0  0  0  0  0  0  0
  153.2428  142.4098  161.4113 C   0  0  0  0  0  0  0  0  0  0  0  0
  152.6680  143.5608  160.8408 C   0  0  0  0  0  0  0  0  0  0  0  0
  152.0529  143.4925  159.5755 C   0  0  0  0  0  0  0  0  0  0  0  0
  153.3697  138.9430  154.9276 H   0  0  0  0  0  0  0  0  0  0  0  0
  153.1597  138.4813  153.2402 H   0  0  0  0  0  0  0  0  0  0  0  0
  153.9756  137.3923  154.3602 H   0  0  0  0  0  0  0  0  0  0  0  0
  151.8555  137.0770  155.6382 H   0  0  0  0  0  0  0  0  0  0  0  0
  150.9283  135.8010  154.1364 H   0  0  0  0  0  0  0  0  0  0  0  0
  147.0032  139.0702  152.6842 H   0  0  0  0  0  0  0  0  0  0  0  0
  145.9920  141.2660  153.3215 H   0  0  0  0  0  0  0  0  0  0  0  0
  147.1541  142.7974  154.8682 H   0  0  0  0  0  0  0  0  0  0  0  0
  149.3715  142.2071  155.8404 H   0  0  0  0  0  0  0  0  0  0  0  0
  152.3384  139.6007  156.2947 H   0  0  0  0  0  0  0  0  0  0  0  0
  152.0709  141.1308  155.4993 H   0  0  0  0  0  0  0  0  0  0  0  0
  149.7996  140.9276  157.1290 H   0  0  0  0  0  0  0  0  0  0  0  0
  151.0359  140.1378  158.1172 H   0  0  0  0  0  0  0  0  0  0  0  0
  152.5611  140.1791  158.9200 H   0  0  0  0  0  0  0  0  0  0  0  0
  153.6421  140.3031  161.1486 H   0  0  0  0  0  0  0  0  0  0  0  0
  153.7140  142.4640  162.3815 H   0  0  0  0  0  0  0  0  0  0  0  0
  152.6989  144.4990  161.3748 H   0  0  0  0  0  0  0  0  0  0  0  0
  151.6244  144.3967  159.1710 H   0  0  0  0  0  0  0  0  0  0  0  0
  149.3669  137.4906  153.1934 H   0  0  0  0  0  0  0  0  0  0  0  0
  1  2  1  0  0  0  0
  1 22  1  0  0  0  0
  1 23  1  0  0  0  0
  1 24  1  0  0  0  0
  2  3  1  0  0  0  0
  2  4  1  0  0  0  0
  2 25  1  0  0  0  0
  3 26  1  0  0  0  0
  4 12  1  0  0  0  0
  4  5  2  0  0  0  0
  5  6  1  0  0  0  0
  5 40  1  0  0  0  0
  6 11  2  0  0  0  0
  6  7  1  0  0  0  0
  7  8  2  0  0  0  0
  7 27  1  0  0  0  0
  8  9  1  0  0  0  0
  8 28  1  0  0  0  0
  9 10  2  0  0  0  0
  9 29  1  0  0  0  0
 10 11  1  0  0  0  0
 10 30  1  0  0  0  0
 11 12  1  0  0  0  0
 12 13  1  0  0  0  0
 13 14  1  0  0  0  0
 13 31  1  0  0  0  0
 13 32  1  0  0  0  0
 14 15  1  0  0  0  0
 14 33  1  0  0  0  0
 14 34  1  0  0  0  0
 15 16  1  0  0  0  0
 16 21  1  0  0  0  0
 16 17  2  0  0  0  0
 17 18  1  0  0  0  0
 17 35  1  0  0  0  0
 18 19  2  0  0  0  0
 18 36  1  0  0  0  0
 19 20  1  0  0  0  0
 19 37  1  0  0  0  0
 20 21  2  0  0  0  0
 20 38  1  0  0  0  0
 21 39  1  0  0  0  0
M  CHG  1   5   1
M  END
> <s_m_source_file>
AV-unprocessed.smi

> <i_m_source_file_index>
2627

> <i_lp_mmshare_version>
43012

> <i_f3d_flags>
0

> <s_epik_input>
W2NIXTFbY0hdW2NIXVtjSF1jKGMxMiluKGMobjIpW0NASF0oW0NIM10pW09IXSlbQ0gyXVtDSDJdT2MzW2NIXVtjSF1bY0hdW2NIXVtjSF0z

> <s_epik_cmdline>
J2VwaWtfcHl0aG9uJywgJy1waCcsICc3LjAnLCAnLXRuJywgJzgnLCAnLW1hJywgJzIwMCcsICctbWV0YWxfYmluZGluZycsICctaW1hZScsICc8aW5maWxlLm1hZT4nLCAnLW9tYWUnLCAnPG91dGZpbGUubWFlPic=

> <r_lp_tautomer_probability>
1

> <r_epik_Ionization_Penalty>
1.52183

> <r_epik_Ionization_Penalty_Charging>
1.5218

> <r_epik_Ionization_Penalty_Neutral>
2.92192e-05

> <r_epik_State_Penalty>
1.61369

> <r_epik_Charging_Adjusted_Penalty>
3.13549

> <i_epik_Tot_Q>
1

> <i_epik_Tot_abs_Q>
1

> <r_epik_Metal_State_Penalty>
5.66625

> <b_epik_Metal_Only>
0

> <s_lp_Force_Field>
OPLS_2005

> <r_lp_Energy>
19.9406

> <b_lp_Chiralities_Consistent>
1

> <s_lp_Variant>
AV-unprocessed.smi:2627-3

> <Gold.Version>
5.8.1

> <Gold.Id.Protein>
6NUR|6NUR_protein|mol2

> <Gold.PLP.Fitness>
59.4990

> <Gold.PLP.PLP>
-52.7600

> <Gold.PLP.part.hbond>
-3.7158

> <Gold.PLP.part.metal>
0.0000

> <Gold.PLP.part.buried>
-0.5430

> <Gold.PLP.part.nonpolar>
-49.5330

> <Gold.PLP.part.repulsive>
0.1832

> <Gold.PLP.ligand.clash>
0.0000

> <Gold.PLP.ligand.torsion>
1.1755

> <Gold.PLP.Chemscore.Hbond>
3.0000

> <Gold.PLP.Chemscore.CHOScore>
0.0000

> <Gold.PLP.Chemscore.Metal>
0.0000

> <Gold.Chemscore.Hbonds>
donor molecule, donor type, donor heavy atom, donor atom, acceptor molecule, acceptor atom, score
      L1  H     5    40       P1  7948  2.00
      P1  H 10752 10764       L1     3  0.80

> <Gold.PLP.Chemscore.Internal.Correction>
0.0901

> <Gold.Rescore>
     Score         DG    S(hbond)    S(metal)    S(lipo)     H(rot)  DE(clash)    DE(int)     intcor
     19.33     -21.04       1.62        0.00     133.42       2.13       0.59       1.13       ----

> <Gold.Chemscore.Fitness>
19.3255

> <Gold.Chemscore.DG>
-21.0444

> <Gold.Chemscore.ZeroCoef>
-5.4800

> <Gold.Chemscore.Hbond>
1.6187

> <Gold.Chemscore.Metal>
0.0000

> <Gold.Chemscore.Lipo>
133.4218

> <Gold.Chemscore.Internal_Hbond>
0.0000

> <Gold.Chemscore.DEClash>
0.5917

> <Gold.Chemscore.DEInternal>
1.1272

> <Gold.Chemscore.Rot>
2.1299

> <Gold.Chemscore.Internal.Correction>
   9.000000E+99

> <Gold.Chemscore.Hbonds>
donor molecule, donor type, donor heavy atom, donor atom, acceptor molecule, acceptor atom, score
      L1  H     5    40       P1  7948  0.96
      P1  H 10752 10764       L1     3  0.08

> <Gold.Chemscore.Hbond.Weighted>
-5.4066

> <Gold.Chemscore.Metal.Weighted>
-0.0000

> <Gold.Chemscore.Lipo.Weighted>
-15.6104

> <Gold.Chemscore.Internal_Hbond.Weighted>
0.0000

> <Gold.Chemscore.DEClash.Weighted>
0.5917

> <Gold.Chemscore.DEInternal.Weighted>
1.1272

> <Gold.Chemscore.Rot.Weighted>
5.4526

> <Gold.Chemscore.Internal.Correction.Weighted>
   9.000000E+99

> <Gold.Protein.RotatedTorsions>
[ 6907 6896 6895 6894 ] final   39.49 input  -60.11 | X-H torsion
[ 7974 7965 7964 7962 ] final -135.42 input  175.53 | X-H torsion
[ 8008 7997 7996 7995 ] final -121.28 input   59.86 | X-H torsion
[ 10167 10162 10161 10158 ] final  -76.23 input  -65.29 | X-H torsion
[ 10718 10713 10712 10709 ] final  -29.55 input   66.30 | X-H torsion
[ 10763 10752 10751 10750 ] final  -93.02 input  -60.55 | X-H torsion
[ 11005 11000 10999 10996 ] final  -76.44 input  -57.11 | X-H torsion

> <Gold.Protein.ActiveResidues>
 VAL166  LYS551  ARG553  GLY616  TRP617  ASP618  TYR619  PRO620  LYS621  CYS622 
 ASP623  PHE694  ASN695  SER759  ASP760  ASP761  ALA762  ILE779  LEU786  VAL792 
 PHE793  MET794  SER795  GLU796  ALA797  LYS798  CYS799  TRP800  GLU811  SER814 

> <Gold.Protein.RotatedAtoms>
  152.1702  134.8840  160.0534 H   0  0  0  0  0  0  0  0  0  0  0  0  # atno 6907 bound_to 6896
  151.9803  133.3750  159.4113 H   0  0  0  0  0  0  0  0  0  0  0  0  # atno 6908 bound_to 6896
  150.6900  134.3968  159.5145 H   0  0  0  0  0  0  0  0  0  0  0  0  # atno 6909 bound_to 6896
  144.9016  140.6778  143.5081 H   0  0  0  0  0  0  0  0  0  0  0  0  # atno 7974 bound_to 7965
  155.1455  140.0402  157.2808 H   0  0  0  0  0  0  0  0  0  0  0  0  # atno 8008 bound_to 7997
  154.6442  140.2554  155.7260 H   0  0  0  0  0  0  0  0  0  0  0  0  # atno 8009 bound_to 7997
  156.2547  140.2849  156.0848 H   0  0  0  0  0  0  0  0  0  0  0  0  # atno 8010 bound_to 7997
  140.4875  143.2388  151.7960 H   0  0  0  0  0  0  0  0  0  0  0  0  # atno 10167 bound_to 10162
  156.4110  130.4408  149.7252 H   0  0  0  0  0  0  0  0  0  0  0  0  # atno 10718 bound_to 10713
  154.6918  135.5210  153.8403 H   0  0  0  0  0  0  0  0  0  0  0  0  # atno 10763 bound_to 10752
  153.0638  135.6577  154.0411 H   0  0  0  0  0  0  0  0  0  0  0  0  # atno 10764 bound_to 10752
  154.0284  135.2987  155.3351 H   0  0  0  0  0  0  0  0  0  0  0  0  # atno 10765 bound_to 10752
  141.1654  133.6984  156.7669 H   0  0  0  0  0  0  0  0  0  0  0  0  # atno 11005 bound_to 11000
  145.3607  139.1682  143.4385 LP  0  0  0  0  0  0  0  0  0  0  0  0  # atno 17320 bound_to 7965
  146.3111  140.3669  142.8670 LP  0  0  0  0  0  0  0  0  0  0  0  0  # atno 17321 bound_to 7965
  139.4845  144.4693  151.9445 LP  0  0  0  0  0  0  0  0  0  0  0  0  # atno 17342 bound_to 10162
  140.3779  144.2773  150.5912 LP  0  0  0  0  0  0  0  0  0  0  0  0  # atno 17343 bound_to 10162
  156.4231  130.7778  151.2796 LP  0  0  0  0  0  0  0  0  0  0  0  0  # atno 17370 bound_to 10713
  157.7507  131.0177  150.3595 LP  0  0  0  0  0  0  0  0  0  0  0  0  # atno 17371 bound_to 10713
  140.2493  134.8553  157.3651 LP  0  0  0  0  0  0  0  0  0  0  0  0  # atno 17394 bound_to 11000
  140.1719  134.4598  155.7826 LP  0  0  0  0  0  0  0  0  0  0  0  0  # atno 17395 bound_to 11000

$$$$
