AV-unprocessed.smi:1809|AV-procd|sdf|7315|dock7
  -GOLD-   22720 8573D 1   1.00000     0.00000
 Structure written by MMmdl.
 40 42  0  0  0  0  0  0  0  0  2 V2000
  150.5626  142.6140  157.5849 C   0  0  0  0  0  0  0  0  0  0  0  0
  150.4207  141.5998  156.5019 C   0  0  0  0  0  0  0  0  0  0  0  0
  151.4666  140.9509  155.9755 N   0  0  0  0  0  0  0  0  0  0  0  0
  151.0869  140.0590  154.9822 N   0  0  0  0  0  0  0  0  0  0  0  0
  149.7607  140.0604  154.7895 C   0  0  0  0  0  0  0  0  0  0  0  0
  149.1023  139.2445  153.8314 N   0  0  0  0  0  0  0  0  0  0  0  0
  147.8070  139.2649  153.4716 C   0  0  0  0  0  0  0  0  0  0  0  0
  146.9523  140.0254  153.9264 O   0  0  0  0  0  0  0  0  0  0  0  0
  147.5442  138.3374  152.5396 N   0  0  0  0  0  0  0  0  0  0  0  0
  146.2288  138.0943  151.9567 C   0  0  0  0  0  0  0  0  0  0  0  0
  145.3947  137.1034  152.8001 C   0  0  2  0  0  0  0  0  0  0  0  0
  146.2700  136.1673  153.6686 C   0  0  0  0  0  0  0  0  0  0  0  0
  146.8794  135.1382  152.8060 N   0  3  1  0  0  0  0  0  0  0  0  0
  147.7619  134.1399  153.4336 C   0  0  0  0  0  0  0  0  0  0  0  0
  147.7337  132.9309  152.4775 C   0  0  0  0  0  0  0  0  0  0  0  0
  146.6574  133.2549  151.4254 C   0  0  0  0  0  0  0  0  0  0  0  0
  145.8601  134.3806  152.0773 C   0  0  2  0  0  0  0  0  0  0  0  0
  145.0842  135.3358  151.1634 C   0  0  0  0  0  0  0  0  0  0  0  0
  144.4881  136.3455  151.9829 O   0  0  0  0  0  0  0  0  0  0  0  0
  148.8595  141.1587  155.8207 S   0  0  0  0  0  0  0  0  0  0  0  0
  151.5860  142.9889  157.6279 H   0  0  0  0  0  0  0  0  0  0  0  0
  150.3123  142.1676  158.5473 H   0  0  0  0  0  0  0  0  0  0  0  0
  149.8925  143.4541  157.4020 H   0  0  0  0  0  0  0  0  0  0  0  0
  149.6846  138.5569  153.3769 H   0  0  0  0  0  0  0  0  0  0  0  0
  148.3028  137.7536  152.2184 H   0  0  0  0  0  0  0  0  0  0  0  0
  145.7178  139.0510  151.8530 H   0  0  0  0  0  0  0  0  0  0  0  0
  146.3497  137.7110  150.9420 H   0  0  0  0  0  0  0  0  0  0  0  0
  144.7776  137.6886  153.4827 H   0  0  0  0  0  0  0  0  0  0  0  0
  147.0456  136.7300  154.1890 H   0  0  0  0  0  0  0  0  0  0  0  0
  145.6577  135.6849  154.4320 H   0  0  0  0  0  0  0  0  0  0  0  0
  148.7662  134.5392  153.5769 H   0  0  0  0  0  0  0  0  0  0  0  0
  147.3660  133.8543  154.4099 H   0  0  0  0  0  0  0  0  0  0  0  0
  148.7028  132.7697  152.0039 H   0  0  0  0  0  0  0  0  0  0  0  0
  147.4816  132.0229  153.0263 H   0  0  0  0  0  0  0  0  0  0  0  0
  147.1311  133.6097  150.5088 H   0  0  0  0  0  0  0  0  0  0  0  0
  146.0392  132.3928  151.1730 H   0  0  0  0  0  0  0  0  0  0  0  0
  145.1700  133.9390  152.7998 H   0  0  0  0  0  0  0  0  0  0  0  0
  145.7312  135.7794  150.4062 H   0  0  0  0  0  0  0  0  0  0  0  0
  144.2967  134.7991  150.6344 H   0  0  0  0  0  0  0  0  0  0  0  0
  147.4349  135.6153  152.1104 H   0  0  0  0  0  0  0  0  0  0  0  0
  1  2  1  0  0  0  0
  1 21  1  0  0  0  0
  1 22  1  0  0  0  0
  1 23  1  0  0  0  0
  2 20  1  0  0  0  0
  2  3  2  0  0  0  0
  3  4  1  0  0  0  0
  4  5  2  0  0  0  0
  5  6  1  0  0  0  0
  5 20  1  0  0  0  0
  6  7  1  0  0  0  0
  6 24  1  0  0  0  0
  7  8  2  0  0  0  0
  7  9  1  0  0  0  0
  9 10  1  0  0  0  0
  9 25  1  0  0  0  0
 10 11  1  0  0  0  0
 10 26  1  0  0  0  0
 10 27  1  0  0  0  0
 11 19  1  0  0  0  0
 11 12  1  0  0  0  0
 11 28  1  0  0  0  0
 12 13  1  0  0  0  0
 12 29  1  0  0  0  0
 12 30  1  0  0  0  0
 13 17  1  0  0  0  0
 13 14  1  0  0  0  0
 13 40  1  0  0  0  0
 14 15  1  0  0  0  0
 14 31  1  0  0  0  0
 14 32  1  0  0  0  0
 15 16  1  0  0  0  0
 15 33  1  0  0  0  0
 15 34  1  0  0  0  0
 16 17  1  0  0  0  0
 16 35  1  0  0  0  0
 16 36  1  0  0  0  0
 17 18  1  0  0  0  0
 17 37  1  0  0  0  0
 18 19  1  0  0  0  0
 18 38  1  0  0  0  0
 18 39  1  0  0  0  0
M  CHG  1  13   1
M  END
> <s_m_source_file>
AV-unprocessed.smi

> <i_m_source_file_index>
1809

> <i_lp_mmshare_version>
43012

> <i_f3d_flags>
0

> <s_epik_input>
W0NIM11jMW5uYyhzMSlbTkhdQyg9TylbTkhdW0NIMl1bQ0BIXShbQ0gyXTIpT1tDSDJdW0NAQEhdKE4yMylbQ0gyXVtDSDJdW0NIMl0z

> <s_epik_cmdline>
J2VwaWtfcHl0aG9uJywgJy1waCcsICc3LjAnLCAnLXRuJywgJzgnLCAnLW1hJywgJzIwMCcsICctbWV0YWxfYmluZGluZycsICctaW1hZScsICc8aW5maWxlLm1hZT4nLCAnLW9tYWUnLCAnPG91dGZpbGUubWFlPic=

> <r_lp_tautomer_probability>
1

> <r_epik_Ionization_Penalty>
0.112474

> <r_epik_Ionization_Penalty_Charging>
0.108916

> <r_epik_Ionization_Penalty_Neutral>
0.00355844

> <r_epik_State_Penalty>
0.0565397

> <r_epik_Charging_Adjusted_Penalty>
0.165456

> <i_epik_Tot_Q>
1

> <i_epik_Tot_abs_Q>
1

> <r_epik_Metal_State_Penalty>
0.422831

> <b_epik_Metal_Only>
0

> <s_lp_Force_Field>
OPLS_2005

> <r_lp_Energy>
36.9848

> <b_lp_Chiralities_Consistent>
1

> <s_lp_Variant>
AV-unprocessed.smi:1809-7

> <Gold.Version>
5.8.1

> <Gold.Id.Protein>
6NUR|6NUR_protein|mol2

> <Gold.PLP.Fitness>
40.6897

> <Gold.PLP.PLP>
-30.4626

> <Gold.PLP.part.hbond>
-5.7242

> <Gold.PLP.part.metal>
0.0000

> <Gold.PLP.part.buried>
-0.0667

> <Gold.PLP.part.nonpolar>
-25.6897

> <Gold.PLP.part.repulsive>
0.5606

> <Gold.PLP.ligand.clash>
0.0000

> <Gold.PLP.ligand.torsion>
0.6270

> <Gold.PLP.Chemscore.Hbond>
3.8240

> <Gold.PLP.Chemscore.CHOScore>
0.0000

> <Gold.PLP.Chemscore.Metal>
0.0000

> <Gold.Chemscore.Hbonds>
donor molecule, donor type, donor heavy atom, donor atom, acceptor molecule, acceptor atom, score
      L1  H     9    25       P1  7948  1.00
      L1  H    13    40       P1  7948  1.70
      P1  H  7989  7998       L1     4  1.00

> <Gold.PLP.Chemscore.Internal.Correction>
0.0091

> <Gold.Rescore>
     Score         DG    S(hbond)    S(metal)    S(lipo)     H(rot)  DE(clash)    DE(int)     intcor
     15.71     -17.44       2.73        0.00      53.47       1.34       0.05       1.68       ----

> <Gold.Chemscore.Fitness>
15.7086

> <Gold.Chemscore.DG>
-17.4393

> <Gold.Chemscore.ZeroCoef>
-5.4800

> <Gold.Chemscore.Hbond>
2.7338

> <Gold.Chemscore.Metal>
0.0000

> <Gold.Chemscore.Lipo>
53.4738

> <Gold.Chemscore.Internal_Hbond>
0.0000

> <Gold.Chemscore.DEClash>
0.0515

> <Gold.Chemscore.DEInternal>
1.6792

> <Gold.Chemscore.Rot>
1.3391

> <Gold.Chemscore.Internal.Correction>
   9.000000E+99

> <Gold.Chemscore.Hbonds>
donor molecule, donor type, donor heavy atom, donor atom, acceptor molecule, acceptor atom, score
      L1  H     9    25       P1  7948  0.97
      L1  H    13    40       P1  7948  0.84
      P1  H  7989  7998       L1     4  0.10

> <Gold.Chemscore.Hbond.Weighted>
-9.1309

> <Gold.Chemscore.Metal.Weighted>
-0.0000

> <Gold.Chemscore.Lipo.Weighted>
-6.2564

> <Gold.Chemscore.Internal_Hbond.Weighted>
0.0000

> <Gold.Chemscore.DEClash.Weighted>
0.0515

> <Gold.Chemscore.DEInternal.Weighted>
1.6792

> <Gold.Chemscore.Rot.Weighted>
3.4281

> <Gold.Chemscore.Internal.Correction.Weighted>
   9.000000E+99

> <Gold.Protein.RotatedTorsions>
[ 6907 6896 6895 6894 ] final  162.49 input  -60.11 | X-H torsion
[ 7974 7965 7964 7962 ] final   14.04 input  175.53 | X-H torsion
[ 8008 7997 7996 7995 ] final -162.56 input   59.86 | X-H torsion
[ 10167 10162 10161 10158 ] final  113.89 input  -65.29 | X-H torsion
[ 10718 10713 10712 10709 ] final  121.15 input   66.30 | X-H torsion
[ 10763 10752 10751 10750 ] final  -53.98 input  -60.55 | X-H torsion
[ 11005 11000 10999 10996 ] final  172.83 input  -57.11 | X-H torsion

> <Gold.Protein.ActiveResidues>
 VAL166  LYS551  ARG553  GLY616  TRP617  ASP618  TYR619  PRO620  LYS621  CYS622 
 ASP623  PHE694  ASN695  SER759  ASP760  ASP761  ALA762  ILE779  LEU786  VAL792 
 PHE793  MET794  SER795  GLU796  ALA797  LYS798  CYS799  TRP800  GLU811  SER814 

> <Gold.Protein.RotatedAtoms>
  151.9396  133.3634  159.3960 H   0  0  0  0  0  0  0  0  0  0  0  0  # atno 6907 bound_to 6896
  150.7001  134.4453  159.5320 H   0  0  0  0  0  0  0  0  0  0  0  0  # atno 6908 bound_to 6896
  152.2108  134.8503  160.0548 H   0  0  0  0  0  0  0  0  0  0  0  0  # atno 6909 bound_to 6896
  146.2315  139.9099  142.8526 H   0  0  0  0  0  0  0  0  0  0  0  0  # atno 7974 bound_to 7965
  155.8085  140.0902  157.1917 H   0  0  0  0  0  0  0  0  0  0  0  0  # atno 8008 bound_to 7997
  154.3980  140.1459  156.3418 H   0  0  0  0  0  0  0  0  0  0  0  0  # atno 8009 bound_to 7997
  155.8389  140.3439  155.5622 H   0  0  0  0  0  0  0  0  0  0  0  0  # atno 8010 bound_to 7997
  139.6428  144.7125  151.2203 H   0  0  0  0  0  0  0  0  0  0  0  0  # atno 10167 bound_to 10162
  157.5839  131.1072  150.8134 H   0  0  0  0  0  0  0  0  0  0  0  0  # atno 10718 bound_to 10713
  154.1676  135.6464  153.5001 H   0  0  0  0  0  0  0  0  0  0  0  0  # atno 10763 bound_to 10752
  153.0093  135.5375  154.6646 H   0  0  0  0  0  0  0  0  0  0  0  0  # atno 10764 bound_to 10752
  154.5977  135.2940  155.0541 H   0  0  0  0  0  0  0  0  0  0  0  0  # atno 10765 bound_to 10752
  140.3339  134.7334  157.4154 H   0  0  0  0  0  0  0  0  0  0  0  0  # atno 11005 bound_to 11000
  145.2240  140.9946  143.4029 LP  0  0  0  0  0  0  0  0  0  0  0  0  # atno 17320 bound_to 7965
  144.9586  139.4004  143.6367 LP  0  0  0  0  0  0  0  0  0  0  0  0  # atno 17321 bound_to 7965
  140.7499  143.6282  150.8448 LP  0  0  0  0  0  0  0  0  0  0  0  0  # atno 17342 bound_to 10162
  139.9922  143.5835  152.2906 LP  0  0  0  0  0  0  0  0  0  0  0  0  # atno 17343 bound_to 10162
  156.8573  130.5101  149.5306 LP  0  0  0  0  0  0  0  0  0  0  0  0  # atno 17370 bound_to 10713
  156.0886  130.5878  150.9693 LP  0  0  0  0  0  0  0  0  0  0  0  0  # atno 17371 bound_to 10713
  140.0837  134.5695  155.8514 LP  0  0  0  0  0  0  0  0  0  0  0  0  # atno 17394 bound_to 11000
  141.2056  133.6648  156.6192 LP  0  0  0  0  0  0  0  0  0  0  0  0  # atno 17395 bound_to 11000

$$$$
