AV-unprocessed.smi:2191|AV-procd|sdf|8893|dock4
  -GOLD-   2272012103D 1   1.00000     0.00000
 Structure written by MMmdl.
 36 38  0  0  0  0  0  0  0  0  1 V2000
  153.5897  138.9808  157.2206 O   0  0  0  0  0  0  0  0  0  0  0  0
  152.3620  139.6794  157.2941 C   0  0  1  0  0  0  0  0  0  0  0  0
  152.4918  140.7725  158.3662 C   0  0  0  0  0  0  0  0  0  0  0  0
  151.7297  141.9029  157.9638 O   0  0  0  0  0  0  0  0  0  0  0  0
  151.8249  143.0563  158.7128 C   0  0  0  0  0  0  0  0  0  0  0  0
  152.1569  142.9074  160.0754 C   0  0  0  0  0  0  0  0  0  0  0  0
  152.2739  144.0308  160.9164 C   0  0  0  0  0  0  0  0  0  0  0  0
  152.0591  145.3216  160.3993 C   0  0  0  0  0  0  0  0  0  0  0  0
  151.7287  145.4855  159.0412 C   0  0  0  0  0  0  0  0  0  0  0  0
  151.6108  144.3614  158.2004 C   0  0  0  0  0  0  0  0  0  0  0  0
  152.0343  140.2705  155.9090 C   0  0  0  0  0  0  0  0  0  0  0  0
  150.9473  139.5724  155.2450 N   0  0  0  0  0  0  0  0  0  0  0  0
  150.8951  138.2621  154.9374 C   0  0  0  0  0  0  0  0  0  0  0  0
  149.7980  137.8220  154.3279 N   0  0  0  0  0  0  0  0  0  0  0  0
  149.0494  138.9822  154.2288 C   0  0  0  0  0  0  0  0  0  0  0  0
  147.7664  139.2011  153.6775 C   0  0  0  0  0  0  0  0  0  0  0  0
  147.1931  140.4898  153.6917 C   0  0  0  0  0  0  0  0  0  0  0  0
  147.8926  141.5777  154.2536 C   0  0  0  0  0  0  0  0  0  0  0  0
  149.1730  141.3845  154.8070 C   0  0  0  0  0  0  0  0  0  0  0  0
  149.7404  140.0965  154.7939 C   0  0  0  0  0  0  0  0  0  0  0  0
  153.4280  138.1336  156.8341 H   0  0  0  0  0  0  0  0  0  0  0  0
  151.5732  138.9805  157.5758 H   0  0  0  0  0  0  0  0  0  0  0  0
  152.1744  140.3963  159.3407 H   0  0  0  0  0  0  0  0  0  0  0  0
  153.5370  141.0754  158.4494 H   0  0  0  0  0  0  0  0  0  0  0  0
  152.3235  141.9199  160.4805 H   0  0  0  0  0  0  0  0  0  0  0  0
  152.5285  143.9016  161.9578 H   0  0  0  0  0  0  0  0  0  0  0  0
  152.1479  146.1844  161.0429 H   0  0  0  0  0  0  0  0  0  0  0  0
  151.5646  146.4758  158.6428 H   0  0  0  0  0  0  0  0  0  0  0  0
  151.3548  144.5279  157.1651 H   0  0  0  0  0  0  0  0  0  0  0  0
  151.7534  141.3203  156.0045 H   0  0  0  0  0  0  0  0  0  0  0  0
  152.9141  140.2424  155.2650 H   0  0  0  0  0  0  0  0  0  0  0  0
  151.7099  137.5937  155.1744 H   0  0  0  0  0  0  0  0  0  0  0  0
  147.2218  138.3754  153.2440 H   0  0  0  0  0  0  0  0  0  0  0  0
  146.2112  140.6442  153.2688 H   0  0  0  0  0  0  0  0  0  0  0  0
  147.4462  142.5614  154.2587 H   0  0  0  0  0  0  0  0  0  0  0  0
  149.7128  142.2158  155.2351 H   0  0  0  0  0  0  0  0  0  0  0  0
  1  2  1  0  0  0  0
  1 21  1  0  0  0  0
  2  3  1  0  0  0  0
  2 11  1  0  0  0  0
  2 22  1  0  0  0  0
  3  4  1  0  0  0  0
  3 23  1  0  0  0  0
  3 24  1  0  0  0  0
  4  5  1  0  0  0  0
  5 10  1  0  0  0  0
  5  6  2  0  0  0  0
  6  7  1  0  0  0  0
  6 25  1  0  0  0  0
  7  8  2  0  0  0  0
  7 26  1  0  0  0  0
  8  9  1  0  0  0  0
  8 27  1  0  0  0  0
  9 10  2  0  0  0  0
  9 28  1  0  0  0  0
 10 29  1  0  0  0  0
 11 12  1  0  0  0  0
 11 30  1  0  0  0  0
 11 31  1  0  0  0  0
 12 20  1  0  0  0  0
 12 13  1  0  0  0  0
 13 14  2  0  0  0  0
 13 32  1  0  0  0  0
 14 15  1  0  0  0  0
 15 20  2  0  0  0  0
 15 16  1  0  0  0  0
 16 17  2  0  0  0  0
 16 33  1  0  0  0  0
 17 18  1  0  0  0  0
 17 34  1  0  0  0  0
 18 19  2  0  0  0  0
 18 35  1  0  0  0  0
 19 20  1  0  0  0  0
 19 36  1  0  0  0  0
M  END
> <s_m_source_file>
AV-unprocessed.smi

> <i_m_source_file_index>
2191

> <i_lp_mmshare_version>
43012

> <i_f3d_flags>
0

> <s_epik_input>
W2NIXTFbY0hdW2NIXVtjSF1jKGMxMiluKFtjSF1uMilbQ0gyXVtDQEhdKFtPSF0pW0NIMl1PYzNbY0hdW2NIXVtjSF1bY0hdW2NIXTM=

> <s_epik_cmdline>
J2VwaWtfcHl0aG9uJywgJy1waCcsICc3LjAnLCAnLXRuJywgJzgnLCAnLW1hJywgJzIwMCcsICctbWV0YWxfYmluZGluZycsICctaW1hZScsICc8aW5maWxlLm1hZT4nLCAnLW9tYWUnLCAnPG91dGZpbGUubWFlPic=

> <r_lp_tautomer_probability>
1

> <r_epik_Ionization_Penalty>
0.0640132

> <r_epik_Ionization_Penalty_Charging>
0

> <r_epik_Ionization_Penalty_Neutral>
0.0640132

> <r_epik_State_Penalty>
0.0557325

> <r_epik_Charging_Adjusted_Penalty>
0.0557325

> <i_epik_Tot_Q>
0

> <i_epik_Tot_abs_Q>
0

> <r_epik_Metal_State_Penalty>
5.8435e-05

> <b_epik_Metal_Only>
0

> <s_lp_Force_Field>
OPLS_2005

> <r_lp_Energy>
16.2786

> <b_lp_Chiralities_Consistent>
1

> <s_lp_Variant>
AV-unprocessed.smi:2191-2

> <Gold.Version>
5.8.1

> <Gold.Id.Protein>
6NUR|6NUR_protein|mol2

> <Gold.PLP.Fitness>
47.6134

> <Gold.PLP.PLP>
-47.6003

> <Gold.PLP.part.hbond>
-1.0000

> <Gold.PLP.part.metal>
0.0000

> <Gold.PLP.part.buried>
-2.5484

> <Gold.PLP.part.nonpolar>
-44.4319

> <Gold.PLP.part.repulsive>
0.8768

> <Gold.PLP.ligand.clash>
0.0000

> <Gold.PLP.ligand.torsion>
1.5160

> <Gold.PLP.Chemscore.Hbond>
1.0000

> <Gold.PLP.Chemscore.CHOScore>
0.0000

> <Gold.PLP.Chemscore.Metal>
0.0000

> <Gold.Chemscore.Hbonds>
donor molecule, donor type, donor heavy atom, donor atom, acceptor molecule, acceptor atom, score
      P1  H  7997  8008       L1     1  0.83

> <Gold.PLP.Chemscore.Internal.Correction>
0.0451

> <Gold.Rescore>
     Score         DG    S(hbond)    S(metal)    S(lipo)     H(rot)  DE(clash)    DE(int)     intcor
     15.03     -16.82       0.59        0.00     128.79       2.22       0.41       1.39       ----

> <Gold.Chemscore.Fitness>
15.0262

> <Gold.Chemscore.DG>
-16.8216

> <Gold.Chemscore.ZeroCoef>
-5.4800

> <Gold.Chemscore.Hbond>
0.5856

> <Gold.Chemscore.Metal>
0.0000

> <Gold.Chemscore.Lipo>
128.7941

> <Gold.Chemscore.Internal_Hbond>
0.0000

> <Gold.Chemscore.DEClash>
0.4085

> <Gold.Chemscore.DEInternal>
1.3868

> <Gold.Chemscore.Rot>
2.2200

> <Gold.Chemscore.Internal.Correction>
   9.000000E+99

> <Gold.Chemscore.Hbonds>
donor molecule, donor type, donor heavy atom, donor atom, acceptor molecule, acceptor atom, score
      P1  H  7997  8008       L1     1  0.51

> <Gold.Chemscore.Hbond.Weighted>
-1.9559

> <Gold.Chemscore.Metal.Weighted>
-0.0000

> <Gold.Chemscore.Lipo.Weighted>
-15.0689

> <Gold.Chemscore.Internal_Hbond.Weighted>
0.0000

> <Gold.Chemscore.DEClash.Weighted>
0.4085

> <Gold.Chemscore.DEInternal.Weighted>
1.3868

> <Gold.Chemscore.Rot.Weighted>
5.6832

> <Gold.Chemscore.Internal.Correction.Weighted>
   9.000000E+99

> <Gold.Protein.RotatedTorsions>
[ 6907 6896 6895 6894 ] final  174.74 input  -60.11 | X-H torsion
[ 7974 7965 7964 7962 ] final  -75.66 input  175.53 | X-H torsion
[ 8008 7997 7996 7995 ] final  -93.47 input   59.86 | X-H torsion
[ 10167 10162 10161 10158 ] final   32.05 input  -65.29 | X-H torsion
[ 10718 10713 10712 10709 ] final -167.73 input   66.30 | X-H torsion
[ 10763 10752 10751 10750 ] final -166.08 input  -60.55 | X-H torsion
[ 11005 11000 10999 10996 ] final   -5.82 input  -57.11 | X-H torsion

> <Gold.Protein.ActiveResidues>
 VAL166  LYS551  ARG553  GLY616  TRP617  ASP618  TYR619  PRO620  LYS621  CYS622 
 ASP623  PHE694  ASN695  SER759  ASP760  ASP761  ALA762  ILE779  LEU786  VAL792 
 PHE793  MET794  SER795  GLU796  ALA797  LYS798  CYS799  TRP800  GLU811  SER814 

> <Gold.Protein.RotatedAtoms>
  151.7475  133.3325  159.3382 H   0  0  0  0  0  0  0  0  0  0  0  0  # atno 6907 bound_to 6896
  150.7548  134.6222  159.6151 H   0  0  0  0  0  0  0  0  0  0  0  0  # atno 6908 bound_to 6896
  152.3490  134.7033  160.0293 H   0  0  0  0  0  0  0  0  0  0  0  0  # atno 6909 bound_to 6896
  145.6231  140.9357  143.1127 H   0  0  0  0  0  0  0  0  0  0  0  0  # atno 7974 bound_to 7965
  154.7361  140.0498  157.0769 H   0  0  0  0  0  0  0  0  0  0  0  0  # atno 8008 bound_to 7997
  155.0239  140.3150  155.4764 H   0  0  0  0  0  0  0  0  0  0  0  0  # atno 8009 bound_to 7997
  156.2853  140.2162  156.5358 H   0  0  0  0  0  0  0  0  0  0  0  0  # atno 8010 bound_to 7997
  140.4533  144.1015  150.6196 H   0  0  0  0  0  0  0  0  0  0  0  0  # atno 10167 bound_to 10162
  156.6866  130.9143  151.3064 H   0  0  0  0  0  0  0  0  0  0  0  0  # atno 10718 bound_to 10713
  154.6869  135.2964  154.9535 H   0  0  0  0  0  0  0  0  0  0  0  0  # atno 10763 bound_to 10752
  154.0511  135.6644  153.4804 H   0  0  0  0  0  0  0  0  0  0  0  0  # atno 10764 bound_to 10752
  153.0585  135.5130  154.7941 H   0  0  0  0  0  0  0  0  0  0  0  0  # atno 10765 bound_to 10752
  140.6953  133.9036  155.8646 H   0  0  0  0  0  0  0  0  0  0  0  0  # atno 11005 bound_to 11000
  144.7223  139.7989  143.7377 LP  0  0  0  0  0  0  0  0  0  0  0  0  # atno 17320 bound_to 7965
  146.1415  139.4473  143.0106 LP  0  0  0  0  0  0  0  0  0  0  0  0  # atno 17321 bound_to 7965
  140.4181  143.2625  151.9750 LP  0  0  0  0  0  0  0  0  0  0  0  0  # atno 17342 bound_to 10162
  139.4799  144.5856  151.7859 LP  0  0  0  0  0  0  0  0  0  0  0  0  # atno 17343 bound_to 10162
  157.7024  130.9348  150.0826 LP  0  0  0  0  0  0  0  0  0  0  0  0  # atno 17370 bound_to 10713
  156.1828  130.3651  149.9012 LP  0  0  0  0  0  0  0  0  0  0  0  0  # atno 17371 bound_to 10713
  141.0208  134.0892  157.4122 LP  0  0  0  0  0  0  0  0  0  0  0  0  # atno 17394 bound_to 11000
  139.8912  135.0117  156.6777 LP  0  0  0  0  0  0  0  0  0  0  0  0  # atno 17395 bound_to 11000

$$$$
