AV-unprocessed.smi:1757|AV-procd|sdf|7078|dock9
  -GOLD-   22720 8303D 1   1.00000     0.00000
 Structure written by MMmdl.
 39 40  0  0  0  0  0  0  0  0  3 V2000
  147.4616  137.8083  154.4836 C   0  0  0  0  0  0  0  0  0  0  0  0
  148.9024  137.4762  154.4571 N   0  3  2  0  0  0  0  0  0  0  0  0
  149.2924  136.5647  155.5615 C   0  0  0  0  0  0  0  0  0  0  0  0
  150.7665  136.1365  155.4353 C   0  0  0  0  0  0  0  0  0  0  0  0
  151.7147  137.3464  155.3562 C   0  0  2  0  0  0  0  0  0  0  0  0
  151.7973  138.0156  156.6538 N   0  0  0  0  0  0  0  0  0  0  0  0
  152.4345  139.1709  156.8934 C   0  0  0  0  0  0  0  0  0  0  0  0
  153.0251  139.8059  156.0203 O   0  0  0  0  0  0  0  0  0  0  0  0
  152.3108  139.5239  158.1854 N   0  0  0  0  0  0  0  0  0  0  0  0
  152.8198  140.6476  158.8590 C   0  0  0  0  0  0  0  0  0  0  0  0
  152.0998  141.7590  159.1772 C   0  0  0  0  0  0  0  0  0  0  0  0
  152.6895  142.8985  159.8689 C   0  0  0  0  0  0  0  0  0  0  0  0
  151.8960  144.1089  160.3282 C   0  0  0  0  0  0  0  0  0  0  0  0
  152.2705  145.2054  159.6688 F   0  0  0  0  0  0  0  0  0  0  0  0
  150.5978  143.9124  160.1034 F   0  0  0  0  0  0  0  0  0  0  0  0
  152.0645  144.3246  161.6329 F   0  0  0  0  0  0  0  0  0  0  0  0
  154.0269  142.7042  160.1545 C   0  0  0  0  0  0  0  0  0  0  0  0
  154.8172  141.6512  159.8511 N   0  5  0  0  0  0  0  0  0  0  0  0
  154.2554  140.5908  159.2051 C   0  0  0  0  0  0  0  0  0  0  0  0
  154.9154  139.5946  158.9062 O   0  0  0  0  0  0  0  0  0  0  0  0
  151.2420  138.3055  154.2441 C   0  0  0  0  0  0  0  0  0  0  0  0
  149.7598  138.6863  154.4046 C   0  0  0  0  0  0  0  0  0  0  0  0
  147.2035  138.3588  155.3892 H   0  0  0  0  0  0  0  0  0  0  0  0
  146.8570  136.9014  154.4492 H   0  0  0  0  0  0  0  0  0  0  0  0
  147.1916  138.4201  153.6221 H   0  0  0  0  0  0  0  0  0  0  0  0
  149.1206  137.0570  156.5201 H   0  0  0  0  0  0  0  0  0  0  0  0
  148.6565  135.6788  155.5441 H   0  0  0  0  0  0  0  0  0  0  0  0
  151.0431  135.4920  156.2707 H   0  0  0  0  0  0  0  0  0  0  0  0
  150.8844  135.5312  154.5351 H   0  0  0  0  0  0  0  0  0  0  0  0
  152.7119  136.9796  155.1053 H   0  0  0  0  0  0  0  0  0  0  0  0
  151.3421  137.5614  157.4322 H   0  0  0  0  0  0  0  0  0  0  0  0
  151.7422  138.9222  158.7633 H   0  0  0  0  0  0  0  0  0  0  0  0
  151.0600  141.8424  158.9080 H   0  0  0  0  0  0  0  0  0  0  0  0
  154.5374  143.5153  160.7163 H   0  0  0  0  0  0  0  0  0  0  0  0
  151.8584  139.2049  154.2212 H   0  0  0  0  0  0  0  0  0  0  0  0
  151.3817  137.8234  153.2758 H   0  0  0  0  0  0  0  0  0  0  0  0
  149.4548  139.3137  153.5661 H   0  0  0  0  0  0  0  0  0  0  0  0
  149.6157  139.2786  155.3099 H   0  0  0  0  0  0  0  0  0  0  0  0
  149.0637  136.9718  153.5967 H   0  0  0  0  0  0  0  0  0  0  0  0
  1  2  1  0  0  0  0
  1 23  1  0  0  0  0
  1 24  1  0  0  0  0
  1 25  1  0  0  0  0
  2 22  1  0  0  0  0
  2  3  1  0  0  0  0
  2 39  1  0  0  0  0
  3  4  1  0  0  0  0
  3 26  1  0  0  0  0
  3 27  1  0  0  0  0
  4  5  1  0  0  0  0
  4 28  1  0  0  0  0
  4 29  1  0  0  0  0
  5  6  1  0  0  0  0
  5 21  1  0  0  0  0
  5 30  1  0  0  0  0
  6  7  1  0  0  0  0
  6 31  1  0  0  0  0
  7  8  2  0  0  0  0
  7  9  1  0  0  0  0
  9 10  1  0  0  0  0
  9 32  1  0  0  0  0
 10 19  1  0  0  0  0
 10 11  2  0  0  0  0
 11 12  1  0  0  0  0
 11 33  1  0  0  0  0
 12 13  1  0  0  0  0
 12 17  2  0  0  0  0
 13 14  1  0  0  0  0
 13 15  1  0  0  0  0
 13 16  1  0  0  0  0
 17 18  1  0  0  0  0
 17 34  1  0  0  0  0
 18 19  1  0  0  0  0
 19 20  2  0  0  0  0
 21 22  1  0  0  0  0
 21 35  1  0  0  0  0
 21 36  1  0  0  0  0
 22 37  1  0  0  0  0
 22 38  1  0  0  0  0
M  CHG  1   2   1
M  CHG  1  18  -1
M  END
> <s_m_source_file>
AV-unprocessed.smi

> <i_m_source_file_index>
1757

> <i_lp_mmshare_version>
43012

> <i_f3d_flags>
0

> <s_epik_input>
W0NIM11OMVtDSDJdW0NIMl1bQ0hdKFtDSDJdW0NIMl0xKVtOSF1DKD1PKVtOSF1jMltjSF1jKEMoRikoRilGKVtjSF1bbkhdYzI9Tw==

> <s_epik_cmdline>
J2VwaWtfcHl0aG9uJywgJy1waCcsICc3LjAnLCAnLXRuJywgJzgnLCAnLW1hJywgJzIwMCcsICctbWV0YWxfYmluZGluZycsICctaW1hZScsICc8aW5maWxlLm1hZT4nLCAnLW9tYWUnLCAnPG91dGZpbGUubWFlPic=

> <r_lp_tautomer_probability>
1

> <r_epik_Ionization_Penalty>
3.04759

> <r_epik_Ionization_Penalty_Charging>
0.155898

> <r_epik_Ionization_Penalty_Neutral>
2.89169

> <r_epik_State_Penalty>
2.88714

> <r_epik_Charging_Adjusted_Penalty>
3.04304

> <i_epik_Tot_Q>
0

> <i_epik_Tot_abs_Q>
2

> <r_epik_Metal_State_Penalty>
0.445786

> <b_epik_Metal_Only>
1

> <s_lp_Force_Field>
OPLS_2005

> <r_lp_Energy>
26.2534

> <b_lp_Chiralities_Consistent>
1

> <s_lp_Variant>
AV-unprocessed.smi:1757-4

> <Gold.Version>
5.8.1

> <Gold.Id.Protein>
6NUR|6NUR_protein|mol2

> <Gold.PLP.Fitness>
49.1430

> <Gold.PLP.PLP>
-39.7824

> <Gold.PLP.part.hbond>
-3.0000

> <Gold.PLP.part.metal>
0.0000

> <Gold.PLP.part.buried>
-4.1358

> <Gold.PLP.part.nonpolar>
-32.8510

> <Gold.PLP.part.repulsive>
0.1142

> <Gold.PLP.ligand.clash>
0.0000

> <Gold.PLP.ligand.torsion>
0.9735

> <Gold.PLP.Chemscore.Hbond>
3.7524

> <Gold.PLP.Chemscore.CHOScore>
0.0000

> <Gold.PLP.Chemscore.Metal>
0.0000

> <Gold.Chemscore.Hbonds>
donor molecule, donor type, donor heavy atom, donor atom, acceptor molecule, acceptor atom, score
      L1  H     2    39       P1  7948  2.00
      P1  H  7997  8008       L1     8  0.78
      P1  H  7997  8010       L1    20  0.90

> <Gold.PLP.Chemscore.Internal.Correction>
0.0503

> <Gold.Rescore>
     Score         DG    S(hbond)    S(metal)    S(lipo)     H(rot)  DE(clash)    DE(int)     intcor
     16.60     -19.56       2.26        0.00      77.73       1.00       0.82       2.13       ----

> <Gold.Chemscore.Fitness>
16.6036

> <Gold.Chemscore.DG>
-19.5574

> <Gold.Chemscore.ZeroCoef>
-5.4800

> <Gold.Chemscore.Hbond>
2.2585

> <Gold.Chemscore.Metal>
0.0000

> <Gold.Chemscore.Lipo>
77.7251

> <Gold.Chemscore.Internal_Hbond>
0.0000

> <Gold.Chemscore.DEClash>
0.8243

> <Gold.Chemscore.DEInternal>
2.1294

> <Gold.Chemscore.Rot>
1.0000

> <Gold.Chemscore.Internal.Correction>
   9.000000E+99

> <Gold.Chemscore.Hbonds>
donor molecule, donor type, donor heavy atom, donor atom, acceptor molecule, acceptor atom, score
      L1  H     2    39       P1  7948  1.00
      P1  H  7997  8008       L1     8  0.73
      P1  H  7997  8010       L1    20  0.18

> <Gold.Chemscore.Hbond.Weighted>
-7.5435

> <Gold.Chemscore.Metal.Weighted>
-0.0000

> <Gold.Chemscore.Lipo.Weighted>
-9.0938

> <Gold.Chemscore.Internal_Hbond.Weighted>
0.0000

> <Gold.Chemscore.DEClash.Weighted>
0.8243

> <Gold.Chemscore.DEInternal.Weighted>
2.1294

> <Gold.Chemscore.Rot.Weighted>
2.5600

> <Gold.Chemscore.Internal.Correction.Weighted>
   9.000000E+99

> <Gold.Protein.RotatedTorsions>
[ 6907 6896 6895 6894 ] final  -11.68 input  -60.11 | X-H torsion
[ 7974 7965 7964 7962 ] final   -3.51 input  175.53 | X-H torsion
[ 8008 7997 7996 7995 ] final  -12.40 input   59.86 | X-H torsion
[ 10167 10162 10161 10158 ] final  -99.24 input  -65.29 | X-H torsion
[ 10718 10713 10712 10709 ] final -150.13 input   66.30 | X-H torsion
[ 10763 10752 10751 10750 ] final -104.53 input  -60.55 | X-H torsion
[ 11005 11000 10999 10996 ] final  135.40 input  -57.11 | X-H torsion

> <Gold.Protein.ActiveResidues>
 VAL166  LYS551  ARG553  GLY616  TRP617  ASP618  TYR619  PRO620  LYS621  CYS622 
 ASP623  PHE694  ASN695  SER759  ASP760  ASP761  ALA762  ILE779  LEU786  VAL792 
 PHE793  MET794  SER795  GLU796  ALA797  LYS798  CYS799  TRP800  GLU811  SER814 

> <Gold.Protein.RotatedAtoms>
  151.3824  135.0942  159.9499 H   0  0  0  0  0  0  0  0  0  0  0  0  # atno 6907 bound_to 6896
  152.5104  133.9059  159.7474 H   0  0  0  0  0  0  0  0  0  0  0  0  # atno 6908 bound_to 6896
  150.9495  133.6510  159.2803 H   0  0  0  0  0  0  0  0  0  0  0  0  # atno 6909 bound_to 6896
  146.2388  140.1733  142.8332 H   0  0  0  0  0  0  0  0  0  0  0  0  # atno 7974 bound_to 7965
  154.5381  140.2277  155.8688 H   0  0  0  0  0  0  0  0  0  0  0  0  # atno 8008 bound_to 7997
  156.1831  140.3095  155.9149 H   0  0  0  0  0  0  0  0  0  0  0  0  # atno 8009 bound_to 7997
  155.3314  140.0445  157.3033 H   0  0  0  0  0  0  0  0  0  0  0  0  # atno 8010 bound_to 7997
  140.2646  143.3385  152.0593 H   0  0  0  0  0  0  0  0  0  0  0  0  # atno 10167 bound_to 10162
  156.4421  130.8127  151.2357 H   0  0  0  0  0  0  0  0  0  0  0  0  # atno 10718 bound_to 10713
  154.7885  135.4783  153.9998 H   0  0  0  0  0  0  0  0  0  0  0  0  # atno 10763 bound_to 10752
  153.1595  135.6806  153.8770 H   0  0  0  0  0  0  0  0  0  0  0  0  # atno 10764 bound_to 10752
  153.8389  135.3182  155.3402 H   0  0  0  0  0  0  0  0  0  0  0  0  # atno 10765 bound_to 10752
  139.9977  134.9491  157.0002 H   0  0  0  0  0  0  0  0  0  0  0  0  # atno 11005 bound_to 11000
  144.9994  140.8618  143.5291 LP  0  0  0  0  0  0  0  0  0  0  0  0  # atno 17320 bound_to 7965
  145.1750  139.2383  143.5322 LP  0  0  0  0  0  0  0  0  0  0  0  0  # atno 17321 bound_to 7965
  139.5007  144.6697  151.6273 LP  0  0  0  0  0  0  0  0  0  0  0  0  # atno 17342 bound_to 10162
  140.5939  143.9731  150.6342 LP  0  0  0  0  0  0  0  0  0  0  0  0  # atno 17343 bound_to 10162
  157.7506  131.0165  150.3546 LP  0  0  0  0  0  0  0  0  0  0  0  0  # atno 17370 bound_to 10713
  156.3906  130.3897  149.7033 LP  0  0  0  0  0  0  0  0  0  0  0  0  # atno 17371 bound_to 10713
  140.4786  134.1313  155.7213 LP  0  0  0  0  0  0  0  0  0  0  0  0  # atno 17394 bound_to 11000
  141.1618  133.8779  157.1827 LP  0  0  0  0  0  0  0  0  0  0  0  0  # atno 17395 bound_to 11000

$$$$
