AV-unprocessed.smi:2702|AV-procd|sdf|10437|dock4
  -GOLD-   2272014473D 1   1.00000     0.00000
 Structure written by MMmdl.
 47 48  0  0  0  0  0  0  0  0  1 V2000
  158.0042  134.0452  154.3587 C   0  0  0  0  0  0  0  0  0  0  0  0
  156.9071  134.6534  155.0173 O   0  0  0  0  0  0  0  0  0  0  0  0
  157.3107  135.4646  156.1077 C   0  0  0  0  0  0  0  0  0  0  0  0
  156.1028  136.0120  156.8410 C   0  0  0  0  0  0  0  0  0  0  0  0
  155.7318  135.5513  158.0583 C   0  0  0  0  0  0  0  0  0  0  0  0
  154.5532  136.0938  158.7341 C   0  0  0  0  0  0  0  0  0  0  0  0
  154.1852  135.7030  159.8423 O   0  0  0  0  0  0  0  0  0  0  0  0
  153.8890  137.0654  158.0407 N   0  0  0  0  0  0  0  0  0  0  0  0
  152.6779  137.7033  158.5888 C   0  0  0  0  0  0  0  0  0  0  0  0
  152.8538  139.2031  158.8682 C   0  0  0  0  0  0  0  0  0  0  0  0
  153.9761  139.7080  158.9181 O   0  0  0  0  0  0  0  0  0  0  0  0
  151.7223  139.9052  159.0298 N   0  0  0  0  0  0  0  0  0  0  0  0
  151.6448  141.3347  159.3231 C   0  0  1  0  0  0  0  0  0  0  0  0
  152.7376  141.7143  160.3436 C   0  0  0  0  0  0  0  0  0  0  0  0
  152.7560  143.2223  160.6281 C   0  0  0  0  0  0  0  0  0  0  0  0
  152.9054  144.0297  159.3293 C   0  0  0  0  0  0  0  0  0  0  0  0
  151.8092  143.6872  158.3000 C   0  0  2  0  0  0  0  0  0  0  0  0
  150.4425  144.2737  158.7090 C   0  0  0  0  0  0  0  0  0  0  0  0
  151.7877  142.1607  158.0183 C   0  0  2  0  0  0  0  0  0  0  0  0
  150.7486  141.7758  156.9460 C   0  0  0  0  0  0  0  0  0  0  0  0
  154.3210  137.5109  156.7755 C   0  0  0  0  0  0  0  0  0  0  0  0
  155.3678  137.0131  156.1978 N   0  0  0  0  0  0  0  0  0  0  0  0
  157.6422  133.4363  153.5305 H   0  0  0  0  0  0  0  0  0  0  0  0
  158.5600  133.3954  155.0358 H   0  0  0  0  0  0  0  0  0  0  0  0
  158.6858  134.7940  153.9532 H   0  0  0  0  0  0  0  0  0  0  0  0
  157.9104  134.8810  156.8082 H   0  0  0  0  0  0  0  0  0  0  0  0
  157.9353  136.2856  155.7520 H   0  0  0  0  0  0  0  0  0  0  0  0
  156.3062  134.7752  158.5432 H   0  0  0  0  0  0  0  0  0  0  0  0
  151.8229  137.5825  157.9214 H   0  0  0  0  0  0  0  0  0  0  0  0
  152.3869  137.1979  159.5118 H   0  0  0  0  0  0  0  0  0  0  0  0
  150.8458  139.4083  158.9659 H   0  0  0  0  0  0  0  0  0  0  0  0
  150.6674  141.5488  159.7593 H   0  0  0  0  0  0  0  0  0  0  0  0
  152.5865  141.1713  161.2771 H   0  0  0  0  0  0  0  0  0  0  0  0
  153.7146  141.4095  159.9659 H   0  0  0  0  0  0  0  0  0  0  0  0
  151.8406  143.5099  161.1456 H   0  0  0  0  0  0  0  0  0  0  0  0
  153.5763  143.4595  161.3058 H   0  0  0  0  0  0  0  0  0  0  0  0
  152.8965  145.0974  159.5510 H   0  0  0  0  0  0  0  0  0  0  0  0
  153.8835  143.8219  158.8934 H   0  0  0  0  0  0  0  0  0  0  0  0
  152.0875  144.1853  157.3702 H   0  0  0  0  0  0  0  0  0  0  0  0
  150.0410  143.7994  159.6039 H   0  0  0  0  0  0  0  0  0  0  0  0
  149.7047  144.1606  157.9149 H   0  0  0  0  0  0  0  0  0  0  0  0
  150.5245  145.3414  158.9133 H   0  0  0  0  0  0  0  0  0  0  0  0
  152.7628  141.9152  157.5939 H   0  0  0  0  0  0  0  0  0  0  0  0
  149.7295  141.8687  157.3220 H   0  0  0  0  0  0  0  0  0  0  0  0
  150.8797  140.7461  156.6126 H   0  0  0  0  0  0  0  0  0  0  0  0
  150.8403  142.4116  156.0651 H   0  0  0  0  0  0  0  0  0  0  0  0
  153.7175  138.2998  156.3236 H   0  0  0  0  0  0  0  0  0  0  0  0
  1  2  1  0  0  0  0
  1 23  1  0  0  0  0
  1 24  1  0  0  0  0
  1 25  1  0  0  0  0
  2  3  1  0  0  0  0
  3  4  1  0  0  0  0
  3 26  1  0  0  0  0
  3 27  1  0  0  0  0
  4 22  1  0  0  0  0
  4  5  2  0  0  0  0
  5  6  1  0  0  0  0
  5 28  1  0  0  0  0
  6  7  2  0  0  0  0
  6  8  1  0  0  0  0
  8  9  1  0  0  0  0
  8 21  1  0  0  0  0
  9 10  1  0  0  0  0
  9 29  1  0  0  0  0
  9 30  1  0  0  0  0
 10 11  2  0  0  0  0
 10 12  1  0  0  0  0
 12 13  1  0  0  0  0
 12 31  1  0  0  0  0
 13 19  1  0  0  0  0
 13 14  1  0  0  0  0
 13 32  1  0  0  0  0
 14 15  1  0  0  0  0
 14 33  1  0  0  0  0
 14 34  1  0  0  0  0
 15 16  1  0  0  0  0
 15 35  1  0  0  0  0
 15 36  1  0  0  0  0
 16 17  1  0  0  0  0
 16 37  1  0  0  0  0
 16 38  1  0  0  0  0
 17 18  1  0  0  0  0
 17 19  1  0  0  0  0
 17 39  1  0  0  0  0
 18 40  1  0  0  0  0
 18 41  1  0  0  0  0
 18 42  1  0  0  0  0
 19 20  1  0  0  0  0
 19 43  1  0  0  0  0
 20 44  1  0  0  0  0
 20 45  1  0  0  0  0
 20 46  1  0  0  0  0
 21 22  2  0  0  0  0
 21 47  1  0  0  0  0
M  END
> <s_m_source_file>
AV-unprocessed.smi

> <i_m_source_file_index>
2702

> <i_lp_mmshare_version>
43012

> <i_f3d_flags>
0

> <s_epik_input>
W0NIM11PW0NIMl1jMVtjSF1jKD1PKW4oW2NIXW4xKVtDSDJdQyg9TylbTkhdW0NAQEhdMltDSDJdW0NIMl1bQ0gyXVtDQEBIXShbQ0gzXSlbQ0BIXTJbQ0gzXQ==

> <s_epik_cmdline>
J2VwaWtfcHl0aG9uJywgJy1waCcsICc3LjAnLCAnLXRuJywgJzgnLCAnLW1hJywgJzIwMCcsICctbWV0YWxfYmluZGluZycsICctaW1hZScsICc8aW5maWxlLm1hZT4nLCAnLW9tYWUnLCAnPG91dGZpbGUubWFlPic=

> <r_lp_tautomer_probability>
1

> <r_epik_Ionization_Penalty>
1.22164e-06

> <r_epik_Ionization_Penalty_Charging>
3.17988e-07

> <r_epik_Ionization_Penalty_Neutral>
9.03656e-07

> <r_epik_State_Penalty>
-0

> <r_epik_Charging_Adjusted_Penalty>
3.17988e-07

> <i_epik_Tot_Q>
0

> <i_epik_Tot_abs_Q>
0

> <r_epik_Metal_State_Penalty>
-0

> <b_epik_Metal_Only>
0

> <s_lp_Force_Field>
OPLS_2005

> <r_lp_Energy>
19.2685

> <b_lp_Chiralities_Consistent>
1

> <s_lp_Variant>
AV-unprocessed.smi:2702-8

> <Gold.Version>
5.8.1

> <Gold.Id.Protein>
6NUR|6NUR_protein|mol2

> <Gold.PLP.Fitness>
39.8600

> <Gold.PLP.PLP>
-32.7994

> <Gold.PLP.part.hbond>
-3.9600

> <Gold.PLP.part.metal>
0.0000

> <Gold.PLP.part.buried>
-4.2664

> <Gold.PLP.part.nonpolar>
-25.5131

> <Gold.PLP.part.repulsive>
0.1587

> <Gold.PLP.ligand.clash>
0.0000

> <Gold.PLP.ligand.torsion>
0.6678

> <Gold.PLP.Chemscore.Hbond>
2.7875

> <Gold.PLP.Chemscore.CHOScore>
0.0000

> <Gold.PLP.Chemscore.Metal>
0.0000

> <Gold.Chemscore.Hbonds>
donor molecule, donor type, donor heavy atom, donor atom, acceptor molecule, acceptor atom, score
      P1  H  6896  6908       L1     7  1.00
      P1  H  7997  8008       L1    11  1.00
      P1  H 10752 10764       L1     2  0.71

> <Gold.PLP.Chemscore.Internal.Correction>
0.0336

> <Gold.Rescore>
     Score         DG    S(hbond)    S(metal)    S(lipo)     H(rot)  DE(clash)    DE(int)     intcor
     17.61     -20.04       2.43        0.00      97.25       1.93       0.26       2.16       ----

> <Gold.Chemscore.Fitness>
17.6146

> <Gold.Chemscore.DG>
-20.0366

> <Gold.Chemscore.ZeroCoef>
-5.4800

> <Gold.Chemscore.Hbond>
2.4295

> <Gold.Chemscore.Metal>
0.0000

> <Gold.Chemscore.Lipo>
97.2540

> <Gold.Chemscore.Internal_Hbond>
0.0000

> <Gold.Chemscore.DEClash>
0.2599

> <Gold.Chemscore.DEInternal>
2.1621

> <Gold.Chemscore.Rot>
1.9284

> <Gold.Chemscore.Internal.Correction>
   9.000000E+99

> <Gold.Chemscore.Hbonds>
donor molecule, donor type, donor heavy atom, donor atom, acceptor molecule, acceptor atom, score
      P1  H  6896  6908       L1     7  0.91
      P1  H  7997  8008       L1    11  0.92
      P1  H 10752 10764       L1     2  0.30

> <Gold.Chemscore.Hbond.Weighted>
-8.1147

> <Gold.Chemscore.Metal.Weighted>
-0.0000

> <Gold.Chemscore.Lipo.Weighted>
-11.3787

> <Gold.Chemscore.Internal_Hbond.Weighted>
0.0000

> <Gold.Chemscore.DEClash.Weighted>
0.2599

> <Gold.Chemscore.DEInternal.Weighted>
2.1621

> <Gold.Chemscore.Rot.Weighted>
4.9368

> <Gold.Chemscore.Internal.Correction.Weighted>
   9.000000E+99

> <Gold.Protein.RotatedTorsions>
[ 6907 6896 6895 6894 ] final  -59.99 input  -60.11 | X-H torsion
[ 7974 7965 7964 7962 ] final  -86.31 input  175.53 | X-H torsion
[ 8008 7997 7996 7995 ] final -103.17 input   59.86 | X-H torsion
[ 10167 10162 10161 10158 ] final   23.32 input  -65.29 | X-H torsion
[ 10718 10713 10712 10709 ] final  103.06 input   66.30 | X-H torsion
[ 10763 10752 10751 10750 ] final  101.46 input  -60.55 | X-H torsion
[ 11005 11000 10999 10996 ] final  -84.68 input  -57.11 | X-H torsion

> <Gold.Protein.ActiveResidues>
 VAL166  LYS551  ARG553  GLY616  TRP617  ASP618  TYR619  PRO620  LYS621  CYS622 
 ASP623  PHE694  ASN695  SER759  ASP760  ASP761  ALA762  ILE779  LEU786  VAL792 
 PHE793  MET794  SER795  GLU796  ALA797  LYS798  CYS799  TRP800  GLU811  SER814 

> <Gold.Protein.RotatedAtoms>
  150.7889  134.6896  159.6489 H   0  0  0  0  0  0  0  0  0  0  0  0  # atno 6907 bound_to 6896
  152.3991  134.6313  160.0086 H   0  0  0  0  0  0  0  0  0  0  0  0  # atno 6908 bound_to 6896
  151.6590  133.3281  159.3205 H   0  0  0  0  0  0  0  0  0  0  0  0  # atno 6909 bound_to 6896
  145.4815  140.9557  143.1862 H   0  0  0  0  0  0  0  0  0  0  0  0  # atno 7974 bound_to 7965
  154.8671  140.0424  157.1701 H   0  0  0  0  0  0  0  0  0  0  0  0  # atno 8008 bound_to 7997
  154.8778  140.2968  155.5422 H   0  0  0  0  0  0  0  0  0  0  0  0  # atno 8009 bound_to 7997
  156.2999  140.2417  156.3776 H   0  0  0  0  0  0  0  0  0  0  0  0  # atno 8010 bound_to 7997
  140.5278  143.9893  150.6449 H   0  0  0  0  0  0  0  0  0  0  0  0  # atno 10167 bound_to 10162
  157.6784  131.0769  150.5498 H   0  0  0  0  0  0  0  0  0  0  0  0  # atno 10718 bound_to 10713
  153.3269  135.4044  155.1463 H   0  0  0  0  0  0  0  0  0  0  0  0  # atno 10763 bound_to 10752
  154.8614  135.3601  154.5522 H   0  0  0  0  0  0  0  0  0  0  0  0  # atno 10764 bound_to 10752
  153.5958  135.7072  153.5463 H   0  0  0  0  0  0  0  0  0  0  0  0  # atno 10765 bound_to 10752
  141.1648  133.7359  156.8904 H   0  0  0  0  0  0  0  0  0  0  0  0  # atno 11005 bound_to 11000
  144.7886  139.6375  143.7123 LP  0  0  0  0  0  0  0  0  0  0  0  0  # atno 17320 bound_to 7965
  146.2338  139.5865  142.9537 LP  0  0  0  0  0  0  0  0  0  0  0  0  # atno 17321 bound_to 7965
  140.3260  143.3107  152.0736 LP  0  0  0  0  0  0  0  0  0  0  0  0  # atno 17342 bound_to 10162
  139.4944  144.6542  151.6610 LP  0  0  0  0  0  0  0  0  0  0  0  0  # atno 17343 bound_to 10162
  156.5803  130.4302  149.5980 LP  0  0  0  0  0  0  0  0  0  0  0  0  # atno 17370 bound_to 10713
  156.2667  130.6993  151.1778 LP  0  0  0  0  0  0  0  0  0  0  0  0  # atno 17371 bound_to 10713
  140.1652  134.9138  157.2765 LP  0  0  0  0  0  0  0  0  0  0  0  0  # atno 17394 bound_to 11000
  140.2565  134.3622  155.7422 LP  0  0  0  0  0  0  0  0  0  0  0  0  # atno 17395 bound_to 11000

$$$$
