AV-unprocessed.smi:1506|AV-procd|sdf|6078|dock4
  -GOLD-   22720 6203D 1   1.00000     0.00000
 Structure written by MMmdl.
 40 42  0  0  0  0  0  0  0  0  2 V2000
  148.6059  132.1666  153.5652 C   0  0  0  0  0  0  0  0  0  0  0  0
  149.4970  132.9609  154.4979 C   0  0  0  0  0  0  0  0  0  0  0  0
  150.3003  132.3008  155.4485 C   0  0  0  0  0  0  0  0  0  0  0  0
  151.1240  133.0472  156.3110 C   0  0  0  0  0  0  0  0  0  0  0  0
  151.1473  134.4529  156.2286 C   0  0  0  0  0  0  0  0  0  0  0  0
  150.3409  135.1291  155.2783 C   0  0  0  0  0  0  0  0  0  0  0  0
  150.2993  136.4992  155.1314 O   0  0  0  0  0  0  0  0  0  0  0  0
  151.3482  137.2696  155.7036 C   0  0  0  0  0  0  0  0  0  0  0  0
  151.0177  138.7613  155.5472 C   0  0  2  0  0  0  0  0  0  0  0  0
  150.9439  139.0582  154.1667 O   0  0  0  0  0  0  0  0  0  0  0  0
  152.0617  139.6661  156.2327 C   0  0  0  0  0  0  0  0  0  0  0  0
  151.5283  140.9881  156.5917 N   0  0  0  0  0  0  0  0  0  0  0  0
  150.6573  141.7851  155.9154 C   0  0  0  0  0  0  0  0  0  0  0  0
  150.4643  142.9092  156.6599 N   0  3  0  0  0  0  0  0  0  0  0  0
  151.2250  142.8311  157.8284 C   0  0  0  0  0  0  0  0  0  0  0  0
  151.3601  143.7224  158.8885 C   0  0  0  0  0  0  0  0  0  0  0  0
  152.2270  143.3378  159.9325 C   0  0  0  0  0  0  0  0  0  0  0  0
  152.9192  142.1098  159.8974 C   0  0  0  0  0  0  0  0  0  0  0  0
  152.7729  141.2131  158.8186 C   0  0  0  0  0  0  0  0  0  0  0  0
  151.9133  141.5997  157.7907 C   0  0  0  0  0  0  0  0  0  0  0  0
  149.5212  134.3683  154.4190 C   0  0  0  0  0  0  0  0  0  0  0  0
  148.8740  131.1095  153.5665 H   0  0  0  0  0  0  0  0  0  0  0  0
  148.6957  132.5368  152.5436 H   0  0  0  0  0  0  0  0  0  0  0  0
  147.5640  132.2558  153.8734 H   0  0  0  0  0  0  0  0  0  0  0  0
  150.2882  131.2230  155.5200 H   0  0  0  0  0  0  0  0  0  0  0  0
  151.7404  132.5405  157.0387 H   0  0  0  0  0  0  0  0  0  0  0  0
  151.7930  134.9888  156.9073 H   0  0  0  0  0  0  0  0  0  0  0  0
  151.4778  137.0271  156.7598 H   0  0  0  0  0  0  0  0  0  0  0  0
  152.2825  137.0426  155.1868 H   0  0  0  0  0  0  0  0  0  0  0  0
  150.0330  138.9555  155.9746 H   0  0  0  0  0  0  0  0  0  0  0  0
  150.0360  139.0391  153.9044 H   0  0  0  0  0  0  0  0  0  0  0  0
  152.4057  139.2003  157.1570 H   0  0  0  0  0  0  0  0  0  0  0  0
  152.9474  139.7922  155.6097 H   0  0  0  0  0  0  0  0  0  0  0  0
  150.2000  141.5645  154.9616 H   0  0  0  0  0  0  0  0  0  0  0  0
  150.8322  144.6643  158.9174 H   0  0  0  0  0  0  0  0  0  0  0  0
  152.3655  143.9985  160.7759 H   0  0  0  0  0  0  0  0  0  0  0  0
  153.5774  141.8504  160.7139 H   0  0  0  0  0  0  0  0  0  0  0  0
  153.3131  140.2782  158.7996 H   0  0  0  0  0  0  0  0  0  0  0  0
  148.9032  134.8732  153.6906 H   0  0  0  0  0  0  0  0  0  0  0  0
  149.8569  143.6718  156.3882 H   0  0  0  0  0  0  0  0  0  0  0  0
  1  2  1  0  0  0  0
  1 22  1  0  0  0  0
  1 23  1  0  0  0  0
  1 24  1  0  0  0  0
  2 21  1  0  0  0  0
  2  3  2  0  0  0  0
  3  4  1  0  0  0  0
  3 25  1  0  0  0  0
  4  5  2  0  0  0  0
  4 26  1  0  0  0  0
  5  6  1  0  0  0  0
  5 27  1  0  0  0  0
  6  7  1  0  0  0  0
  6 21  2  0  0  0  0
  7  8  1  0  0  0  0
  8  9  1  0  0  0  0
  8 28  1  0  0  0  0
  8 29  1  0  0  0  0
  9 10  1  0  0  0  0
  9 11  1  0  0  0  0
  9 30  1  0  0  0  0
 10 31  1  0  0  0  0
 11 12  1  0  0  0  0
 11 32  1  0  0  0  0
 11 33  1  0  0  0  0
 12 20  1  0  0  0  0
 12 13  1  0  0  0  0
 13 14  2  0  0  0  0
 13 34  1  0  0  0  0
 14 15  1  0  0  0  0
 14 40  1  0  0  0  0
 15 20  2  0  0  0  0
 15 16  1  0  0  0  0
 16 17  2  0  0  0  0
 16 35  1  0  0  0  0
 17 18  1  0  0  0  0
 17 36  1  0  0  0  0
 18 19  2  0  0  0  0
 18 37  1  0  0  0  0
 19 20  1  0  0  0  0
 19 38  1  0  0  0  0
 21 39  1  0  0  0  0
M  CHG  1  14   1
M  END
> <s_m_source_file>
AV-unprocessed.smi

> <i_m_source_file_index>
1506

> <i_lp_mmshare_version>
43012

> <i_f3d_flags>
0

> <s_epik_input>
W0NIM11jMVtjSF1bY0hdW2NIXWMoW2NIXTEpT1tDSDJdW0NASF0oW09IXSlbQ0gyXW4oW2NIXW4yKWMoYzIzKVtjSF1bY0hdW2NIXVtjSF0z

> <s_epik_cmdline>
J2VwaWtfcHl0aG9uJywgJy1waCcsICc3LjAnLCAnLXRuJywgJzgnLCAnLW1hJywgJzIwMCcsICctbWV0YWxfYmluZGluZycsICctaW1hZScsICc8aW5maWxlLm1hZT4nLCAnLW9tYWUnLCAnPG91dGZpbGUubWFlPic=

> <r_lp_tautomer_probability>
1

> <r_epik_Ionization_Penalty>
1.37864

> <r_epik_Ionization_Penalty_Charging>
1.37864

> <r_epik_Ionization_Penalty_Neutral>
2.3993e-06

> <r_epik_State_Penalty>
1.45896

> <r_epik_Charging_Adjusted_Penalty>
2.8376

> <i_epik_Tot_Q>
1

> <i_epik_Tot_abs_Q>
1

> <r_epik_Metal_State_Penalty>
5.49899

> <b_epik_Metal_Only>
0

> <s_lp_Force_Field>
OPLS_2005

> <r_lp_Energy>
20.022

> <b_lp_Chiralities_Consistent>
1

> <s_lp_Variant>
AV-unprocessed.smi:1506-3

> <Gold.Version>
5.8.1

> <Gold.Id.Protein>
6NUR|6NUR_protein|mol2

> <Gold.PLP.Fitness>
50.1273

> <Gold.PLP.PLP>
-42.6914

> <Gold.PLP.part.hbond>
-2.0000

> <Gold.PLP.part.metal>
0.0000

> <Gold.PLP.part.buried>
-4.2444

> <Gold.PLP.part.nonpolar>
-35.5177

> <Gold.PLP.part.repulsive>
0.1959

> <Gold.PLP.ligand.clash>
0.0000

> <Gold.PLP.ligand.torsion>
0.7982

> <Gold.PLP.Chemscore.Hbond>
2.9913

> <Gold.PLP.Chemscore.CHOScore>
0.0000

> <Gold.PLP.Chemscore.Metal>
0.0000

> <Gold.Chemscore.Hbonds>
donor molecule, donor type, donor heavy atom, donor atom, acceptor molecule, acceptor atom, score
      L1  H    14    40       P1  8028  2.00
      P1  H  7989  7998       L1    10  0.98

> <Gold.PLP.Chemscore.Internal.Correction>
0.0586

> <Gold.Rescore>
     Score         DG    S(hbond)    S(metal)    S(lipo)     H(rot)  DE(clash)    DE(int)     intcor
     18.39     -19.31       1.87        0.00     114.52       2.27       0.09       0.83       ----

> <Gold.Chemscore.Fitness>
18.3879

> <Gold.Chemscore.DG>
-19.3078

> <Gold.Chemscore.ZeroCoef>
-5.4800

> <Gold.Chemscore.Hbond>
1.8702

> <Gold.Chemscore.Metal>
0.0000

> <Gold.Chemscore.Lipo>
114.5174

> <Gold.Chemscore.Internal_Hbond>
0.0000

> <Gold.Chemscore.DEClash>
0.0859

> <Gold.Chemscore.DEInternal>
0.8341

> <Gold.Chemscore.Rot>
2.2723

> <Gold.Chemscore.Internal.Correction>
   9.000000E+99

> <Gold.Chemscore.Hbonds>
donor molecule, donor type, donor heavy atom, donor atom, acceptor molecule, acceptor atom, score
      L1  H    14    40       P1  8028  0.99
      P1  H  7989  7998       L1    10  0.45

> <Gold.Chemscore.Hbond.Weighted>
-6.2463

> <Gold.Chemscore.Metal.Weighted>
-0.0000

> <Gold.Chemscore.Lipo.Weighted>
-13.3985

> <Gold.Chemscore.Internal_Hbond.Weighted>
0.0000

> <Gold.Chemscore.DEClash.Weighted>
0.0859

> <Gold.Chemscore.DEInternal.Weighted>
0.8341

> <Gold.Chemscore.Rot.Weighted>
5.8170

> <Gold.Chemscore.Internal.Correction.Weighted>
   9.000000E+99

> <Gold.Protein.RotatedTorsions>
[ 6907 6896 6895 6894 ] final   98.61 input  -60.11 | X-H torsion
[ 7974 7965 7964 7962 ] final   22.40 input  175.53 | X-H torsion
[ 8008 7997 7996 7995 ] final -121.07 input   59.86 | X-H torsion
[ 10167 10162 10161 10158 ] final  -58.43 input  -65.29 | X-H torsion
[ 10718 10713 10712 10709 ] final -160.85 input   66.30 | X-H torsion
[ 10763 10752 10751 10750 ] final   -7.77 input  -60.55 | X-H torsion
[ 11005 11000 10999 10996 ] final  -67.75 input  -57.11 | X-H torsion

> <Gold.Protein.ActiveResidues>
 VAL166  LYS551  ARG553  GLY616  TRP617  ASP618  TYR619  PRO620  LYS621  CYS622 
 ASP623  PHE694  ASN695  SER759  ASP760  ASP761  ALA762  ILE779  LEU786  VAL792 
 PHE793  MET794  SER795  GLU796  ALA797  LYS798  CYS799  TRP800  GLU811  SER814 

> <Gold.Protein.RotatedAtoms>
  152.5406  134.0554  159.8128 H   0  0  0  0  0  0  0  0  0  0  0  0  # atno 6907 bound_to 6896
  151.0690  133.5474  159.2636 H   0  0  0  0  0  0  0  0  0  0  0  0  # atno 6908 bound_to 6896
  151.2344  135.0574  159.9054 H   0  0  0  0  0  0  0  0  0  0  0  0  # atno 6909 bound_to 6896
  146.2030  139.7891  142.8747 H   0  0  0  0  0  0  0  0  0  0  0  0  # atno 7974 bound_to 7965
  155.1420  140.0402  157.2801 H   0  0  0  0  0  0  0  0  0  0  0  0  # atno 8008 bound_to 7997
  154.6466  140.2559  155.7234 H   0  0  0  0  0  0  0  0  0  0  0  0  # atno 8009 bound_to 7997
  156.2558  140.2845  156.0882 H   0  0  0  0  0  0  0  0  0  0  0  0  # atno 8010 bound_to 7997
  140.6198  143.2415  151.5509 H   0  0  0  0  0  0  0  0  0  0  0  0  # atno 10167 bound_to 10162
  156.5879  130.8757  151.2882 H   0  0  0  0  0  0  0  0  0  0  0  0  # atno 10718 bound_to 10713
  153.4310  135.7012  153.6231 H   0  0  0  0  0  0  0  0  0  0  0  0  # atno 10763 bound_to 10752
  153.4646  135.3728  155.2357 H   0  0  0  0  0  0  0  0  0  0  0  0  # atno 10764 bound_to 10752
  154.8725  135.4028  154.3694 H   0  0  0  0  0  0  0  0  0  0  0  0  # atno 10765 bound_to 10752
  141.1516  133.6726  156.6341 H   0  0  0  0  0  0  0  0  0  0  0  0  # atno 11005 bound_to 11000
  145.3417  141.0289  143.3388 LP  0  0  0  0  0  0  0  0  0  0  0  0  # atno 17320 bound_to 7965
  144.8727  139.5015  143.6760 LP  0  0  0  0  0  0  0  0  0  0  0  0  # atno 17321 bound_to 7965
  139.5429  144.2600  152.1385 LP  0  0  0  0  0  0  0  0  0  0  0  0  # atno 17342 bound_to 10162
  140.1817  144.4837  150.6524 LP  0  0  0  0  0  0  0  0  0  0  0  0  # atno 17343 bound_to 10162
  157.7311  130.9695  150.1863 LP  0  0  0  0  0  0  0  0  0  0  0  0  # atno 17370 bound_to 10713
  156.2575  130.3707  149.8166 LP  0  0  0  0  0  0  0  0  0  0  0  0  # atno 17371 bound_to 10713
  140.3444  134.7822  157.4421 LP  0  0  0  0  0  0  0  0  0  0  0  0  # atno 17394 bound_to 11000
  140.0912  134.5599  155.8443 LP  0  0  0  0  0  0  0  0  0  0  0  0  # atno 17395 bound_to 11000

$$$$
