AV-unprocessed.smi:1760|AV-procd|sdf|7091|dock7
  -GOLD-   22720 8313D 1   1.00000     0.00000
 Structure written by MMmdl.
 43 45  0  0  0  0  0  0  0  0  1 V2000
  145.7405  137.9870  154.4878 O   0  0  0  0  0  0  0  0  0  0  0  0
  145.5193  138.2514  153.3064 C   0  0  0  0  0  0  0  0  0  0  0  0
  144.4198  137.8999  152.6142 N   0  0  0  0  0  0  0  0  0  0  0  0
  143.2830  137.1951  153.0454 C   0  0  0  0  0  0  0  0  0  0  0  0
  142.0610  137.7481  153.2642 C   0  0  0  0  0  0  0  0  0  0  0  0
  140.9236  136.9569  153.7030 C   0  0  0  0  0  0  0  0  0  0  0  0
  139.5822  137.5995  154.0208 C   0  0  0  0  0  0  0  0  0  0  0  0
  139.2525  137.4243  155.3012 F   0  0  0  0  0  0  0  0  0  0  0  0
  139.6075  138.9086  153.7706 F   0  0  0  0  0  0  0  0  0  0  0  0
  138.6291  137.0516  153.2684 F   0  0  0  0  0  0  0  0  0  0  0  0
  141.1437  135.6430  153.8930 C   0  0  0  0  0  0  0  0  0  0  0  0
  142.3902  135.0628  153.6482 N   0  0  0  0  0  0  0  0  0  0  0  0
  143.4789  135.7477  153.2321 C   0  0  0  0  0  0  0  0  0  0  0  0
  144.5430  135.1618  153.0353 O   0  0  0  0  0  0  0  0  0  0  0  0
  146.3777  138.9229  152.5252 N   0  0  0  0  0  0  0  0  0  0  0  0
  147.6871  139.4289  152.9295 C   0  0  0  0  0  0  0  0  0  0  0  0
  148.4242  138.3785  153.7746 C   0  0  0  0  0  0  0  0  0  0  0  0
  149.7370  138.9496  154.3391 C   0  0  0  0  0  0  0  0  0  0  0  0
  149.4635  140.1355  155.1515 N   0  0  0  0  0  0  0  0  0  0  0  0
  150.7144  140.6250  155.7071 C   0  0  0  0  0  0  0  0  0  0  0  0
  150.8286  140.7029  157.2123 C   0  0  0  0  0  0  0  0  0  0  0  0
  150.6912  141.9680  156.4002 C   0  0  0  0  0  0  0  0  0  0  0  0
  148.8747  141.1846  154.3187 C   0  0  0  0  0  0  0  0  0  0  0  0
  147.5231  140.7169  153.7513 C   0  0  0  0  0  0  0  0  0  0  0  0
  142.4698  134.0667  153.7951 H   0  0  0  0  0  0  0  0  0  0  0  0
  144.4170  138.1348  151.6320 H   0  0  0  0  0  0  0  0  0  0  0  0
  141.8883  138.7988  153.0987 H   0  0  0  0  0  0  0  0  0  0  0  0
  140.3977  134.9457  154.2447 H   0  0  0  0  0  0  0  0  0  0  0  0
  146.1100  139.0878  151.5660 H   0  0  0  0  0  0  0  0  0  0  0  0
  148.3007  139.6572  152.0560 H   0  0  0  0  0  0  0  0  0  0  0  0
  147.7904  138.0477  154.5990 H   0  0  0  0  0  0  0  0  0  0  0  0
  148.6352  137.4947  153.1717 H   0  0  0  0  0  0  0  0  0  0  0  0
  150.2275  138.1930  154.9530 H   0  0  0  0  0  0  0  0  0  0  0  0
  150.4229  139.1979  153.5275 H   0  0  0  0  0  0  0  0  0  0  0  0
  151.6407  140.3885  155.1857 H   0  0  0  0  0  0  0  0  0  0  0  0
  149.9708  140.3924  157.8059 H   0  0  0  0  0  0  0  0  0  0  0  0
  151.8008  140.4903  157.6521 H   0  0  0  0  0  0  0  0  0  0  0  0
  151.5715  142.5994  156.2991 H   0  0  0  0  0  0  0  0  0  0  0  0
  149.7419  142.4977  156.4556 H   0  0  0  0  0  0  0  0  0  0  0  0
  148.7255  142.0840  154.9177 H   0  0  0  0  0  0  0  0  0  0  0  0
  149.5550  141.4490  153.5073 H   0  0  0  0  0  0  0  0  0  0  0  0
  147.0912  141.5031  153.1312 H   0  0  0  0  0  0  0  0  0  0  0  0
  146.8244  140.5513  154.5731 H   0  0  0  0  0  0  0  0  0  0  0  0
  1  2  2  0  0  0  0
  2  3  1  0  0  0  0
  2 15  1  0  0  0  0
  3  4  1  0  0  0  0
  3 26  1  0  0  0  0
  4 13  1  0  0  0  0
  4  5  2  0  0  0  0
  5  6  1  0  0  0  0
  5 27  1  0  0  0  0
  6  7  1  0  0  0  0
  6 11  2  0  0  0  0
  7  8  1  0  0  0  0
  7  9  1  0  0  0  0
  7 10  1  0  0  0  0
 11 12  1  0  0  0  0
 11 28  1  0  0  0  0
 12 25  1  0  0  0  0
 12 13  1  0  0  0  0
 13 14  2  0  0  0  0
 15 16  1  0  0  0  0
 15 29  1  0  0  0  0
 16 24  1  0  0  0  0
 16 17  1  0  0  0  0
 16 30  1  0  0  0  0
 17 18  1  0  0  0  0
 17 31  1  0  0  0  0
 17 32  1  0  0  0  0
 18 19  1  0  0  0  0
 18 33  1  0  0  0  0
 18 34  1  0  0  0  0
 19 20  1  0  0  0  0
 19 23  1  0  0  0  0
 20 22  1  0  0  0  0
 20 21  1  0  0  0  0
 20 35  1  0  0  0  0
 21 22  1  0  0  0  0
 21 36  1  0  0  0  0
 21 37  1  0  0  0  0
 22 38  1  0  0  0  0
 22 39  1  0  0  0  0
 23 24  1  0  0  0  0
 23 40  1  0  0  0  0
 23 41  1  0  0  0  0
 24 42  1  0  0  0  0
 24 43  1  0  0  0  0
M  END
> <s_m_source_file>
AV-unprocessed.smi

> <i_m_source_file_index>
1760

> <i_lp_mmshare_version>
43012

> <i_f3d_flags>
0

> <s_epik_input>
W0NIMl0xW0NIMl1bQ0hdMU4oW0NIMl1bQ0gyXTIpW0NIMl1bQ0gyXVtDSF0yW05IXUMoPU8pW05IXWMzW2NIXWMoQyhGKShGKUYpW2NIXVtuSF1jMz1P

> <s_epik_cmdline>
J2VwaWtfcHl0aG9uJywgJy1waCcsICc3LjAnLCAnLXRuJywgJzgnLCAnLW1hJywgJzIwMCcsICctbWV0YWxfYmluZGluZycsICctaW1hZScsICc8aW5maWxlLm1hZT4nLCAnLW9tYWUnLCAnPG91dGZpbGUubWFlPic=

> <r_lp_tautomer_probability>
0.999

> <r_epik_Ionization_Penalty>
0.980325

> <r_epik_Ionization_Penalty_Charging>
0.0037226

> <r_epik_Ionization_Penalty_Neutral>
0.976602

> <r_epik_State_Penalty>
1.02305

> <r_epik_Charging_Adjusted_Penalty>
1.02677

> <i_epik_Tot_Q>
0

> <i_epik_Tot_abs_Q>
0

> <r_epik_Metal_State_Penalty>
1.39928

> <b_epik_Metal_Only>
0

> <s_lp_Force_Field>
OPLS_2005

> <r_lp_Energy>
33.0511

> <b_lp_Chiralities_Consistent>
1

> <s_lp_Variant>
AV-unprocessed.smi:1760-3

> <Gold.Version>
5.8.1

> <Gold.Id.Protein>
6NUR|6NUR_protein|mol2

> <Gold.PLP.Fitness>
40.6767

> <Gold.PLP.PLP>
-37.3664

> <Gold.PLP.part.hbond>
-2.8169

> <Gold.PLP.part.metal>
0.0000

> <Gold.PLP.part.buried>
3.7020

> <Gold.PLP.part.nonpolar>
-38.5727

> <Gold.PLP.part.repulsive>
0.3014

> <Gold.PLP.ligand.clash>
0.0000

> <Gold.PLP.ligand.torsion>
1.7400

> <Gold.PLP.Chemscore.Hbond>
1.0000

> <Gold.PLP.Chemscore.CHOScore>
0.8641

> <Gold.PLP.Chemscore.Metal>
0.0000

> <Gold.Chemscore.Hbonds>
donor molecule, donor type, donor heavy atom, donor atom, acceptor molecule, acceptor atom, score
      L1  H     3    26       P1 10171  1.00
      L1  C    11    28       P1 11000  0.85

> <Gold.PLP.Chemscore.Internal.Correction>
1.1980

> <Gold.Rescore>
     Score         DG    S(hbond)    S(metal)    S(lipo)     H(rot)  DE(clash)    DE(int)     intcor
     12.17     -18.17       1.86        0.00      83.12       1.27       3.10       2.90       ----

> <Gold.Chemscore.Fitness>
12.1708

> <Gold.Chemscore.DG>
-18.1705

> <Gold.Chemscore.ZeroCoef>
-5.4800

> <Gold.Chemscore.Hbond>
1.8639

> <Gold.Chemscore.Metal>
0.0000

> <Gold.Chemscore.Lipo>
83.1193

> <Gold.Chemscore.Internal_Hbond>
0.0000

> <Gold.Chemscore.DEClash>
3.1045

> <Gold.Chemscore.DEInternal>
2.8952

> <Gold.Chemscore.Rot>
1.2734

> <Gold.Chemscore.Internal.Correction>
   9.000000E+99

> <Gold.Chemscore.Hbonds>
donor molecule, donor type, donor heavy atom, donor atom, acceptor molecule, acceptor atom, score
      L1  H     3    26       P1 10171  0.99
      L1  H    12    25       P1 10957  0.01

> <Gold.Chemscore.Hbond.Weighted>
-6.2254

> <Gold.Chemscore.Metal.Weighted>
-0.0000

> <Gold.Chemscore.Lipo.Weighted>
-9.7250

> <Gold.Chemscore.Internal_Hbond.Weighted>
0.0000

> <Gold.Chemscore.DEClash.Weighted>
3.1045

> <Gold.Chemscore.DEInternal.Weighted>
2.8952

> <Gold.Chemscore.Rot.Weighted>
3.2598

> <Gold.Chemscore.Internal.Correction.Weighted>
   9.000000E+99

> <Gold.Protein.RotatedTorsions>
[ 6907 6896 6895 6894 ] final   29.93 input  -60.11 | X-H torsion
[ 7974 7965 7964 7962 ] final  -62.52 input  175.53 | X-H torsion
[ 8008 7997 7996 7995 ] final  -17.64 input   59.86 | X-H torsion
[ 10167 10162 10161 10158 ] final  127.89 input  -65.29 | X-H torsion
[ 10718 10713 10712 10709 ] final  167.39 input   66.30 | X-H torsion
[ 10763 10752 10751 10750 ] final -145.67 input  -60.55 | X-H torsion
[ 11005 11000 10999 10996 ] final -121.15 input  -57.11 | X-H torsion

> <Gold.Protein.ActiveResidues>
 VAL166  LYS551  ARG553  GLY616  TRP617  ASP618  TYR619  PRO620  LYS621  CYS622 
 ASP623  PHE694  ASN695  SER759  ASP760  ASP761  ALA762  ILE779  LEU786  VAL792 
 PHE793  MET794  SER795  GLU796  ALA797  LYS798  CYS799  TRP800  GLU811  SER814 

> <Gold.Protein.RotatedAtoms>
  152.0387  134.9724  160.0573 H   0  0  0  0  0  0  0  0  0  0  0  0  # atno 6907 bound_to 6896
  152.1172  133.4328  159.4666 H   0  0  0  0  0  0  0  0  0  0  0  0  # atno 6908 bound_to 6896
  150.6847  134.2497  159.4549 H   0  0  0  0  0  0  0  0  0  0  0  0  # atno 6909 bound_to 6896
  145.7903  140.8713  143.0284 H   0  0  0  0  0  0  0  0  0  0  0  0  # atno 7974 bound_to 7965
  154.4964  140.2137  155.9439 H   0  0  0  0  0  0  0  0  0  0  0  0  # atno 8008 bound_to 7997
  156.1375  140.3186  155.8412 H   0  0  0  0  0  0  0  0  0  0  0  0  # atno 8009 bound_to 7997
  155.4182  140.0495  157.3018 H   0  0  0  0  0  0  0  0  0  0  0  0  # atno 8010 bound_to 7997
  139.5555  144.6845  151.4196 H   0  0  0  0  0  0  0  0  0  0  0  0  # atno 10167 bound_to 10162
  157.0522  131.0317  151.2676 H   0  0  0  0  0  0  0  0  0  0  0  0  # atno 10718 bound_to 10713
  154.8372  135.3407  154.6541 H   0  0  0  0  0  0  0  0  0  0  0  0  # atno 10763 bound_to 10752
  153.7155  135.6961  153.5031 H   0  0  0  0  0  0  0  0  0  0  0  0  # atno 10764 bound_to 10752
  153.2420  135.4381  155.0661 H   0  0  0  0  0  0  0  0  0  0  0  0  # atno 10765 bound_to 10752
  141.0091  134.0291  157.3437 H   0  0  0  0  0  0  0  0  0  0  0  0  # atno 11005 bound_to 11000
  144.6783  140.0114  143.7484 LP  0  0  0  0  0  0  0  0  0  0  0  0  # atno 17320 bound_to 7965
  145.9984  139.3071  143.0943 LP  0  0  0  0  0  0  0  0  0  0  0  0  # atno 17321 bound_to 7965
  140.6827  143.8046  150.7143 LP  0  0  0  0  0  0  0  0  0  0  0  0  # atno 17342 bound_to 10162
  140.1504  143.4363  152.2135 LP  0  0  0  0  0  0  0  0  0  0  0  0  # atno 17343 bound_to 10162
  157.5021  130.7886  149.7615 LP  0  0  0  0  0  0  0  0  0  0  0  0  # atno 17370 bound_to 10713
  156.0004  130.3883  150.2629 LP  0  0  0  0  0  0  0  0  0  0  0  0  # atno 17371 bound_to 10713
  139.9080  135.0184  156.7569 LP  0  0  0  0  0  0  0  0  0  0  0  0  # atno 17394 bound_to 11000
  140.6763  133.9514  155.7885 LP  0  0  0  0  0  0  0  0  0  0  0  0  # atno 17395 bound_to 11000

$$$$
