AV-unprocessed.smi:1413|AV-procd|sdf|5758|dock5
  -GOLD-   22720 5393D 1   1.00000     0.00000
 Structure written by MMmdl.
 53 55  0  0  0  0  0  0  0  0  1 V2000
  152.0300  144.4578  157.6912 C   0  0  0  0  0  0  0  0  0  0  0  0
  151.2108  143.6129  158.6832 C   0  0  1  0  0  0  0  0  0  0  0  0
  150.2698  142.6035  157.9966 C   0  0  0  0  0  0  0  0  0  0  0  0
  151.0168  141.4640  157.4712 N   0  0  0  0  0  0  0  0  0  0  0  0
  150.3149  140.6347  156.5700 C   0  0  0  0  0  0  0  0  0  0  0  0
  149.1390  139.9674  156.9858 C   0  0  0  0  0  0  0  0  0  0  0  0
  148.4593  139.1407  156.0716 C   0  0  0  0  0  0  0  0  0  0  0  0
  148.9661  138.9919  154.7662 C   0  0  0  0  0  0  0  0  0  0  0  0
  148.2478  138.1586  153.8655 N   0  0  0  0  0  0  0  0  0  0  0  0
  146.9186  138.0058  153.7366 C   0  0  0  0  0  0  0  0  0  0  0  0
  146.0646  138.6004  154.3934 O   0  0  0  0  0  0  0  0  0  0  0  0
  146.6264  137.1199  152.7739 N   0  0  0  0  0  0  0  0  0  0  0  0
  145.2795  136.7413  152.3531 C   0  0  2  0  0  0  0  0  0  0  0  0
  144.4577  136.3094  153.5803 C   0  0  0  0  0  0  0  0  0  0  0  0
  145.3743  135.6285  151.2915 C   0  0  1  0  0  0  0  0  0  0  0  0
  146.2243  134.4252  151.7040 C   0  0  0  0  0  0  0  0  0  0  0  0
  145.6549  133.3320  150.8302 C   0  0  0  0  0  0  0  0  0  0  0  0
  144.1674  133.6687  150.8397 C   0  0  0  0  0  0  0  0  0  0  0  0
  144.0839  135.0794  151.0271 O   0  0  0  0  0  0  0  0  0  0  0  0
  150.1375  139.7133  154.4337 C   0  0  0  0  0  0  0  0  0  0  0  0
  150.7913  140.5080  155.3074 N   0  0  0  0  0  0  0  0  0  0  0  0
  151.8722  140.8288  158.4703 C   0  0  0  0  0  0  0  0  0  0  0  0
  152.8094  141.8671  159.1124 C   0  0  2  0  0  0  0  0  0  0  0  0
  153.6287  141.2660  160.2593 C   0  0  0  0  0  0  0  0  0  0  0  0
  152.0390  142.9470  159.6390 O   0  0  0  0  0  0  0  0  0  0  0  0
  151.3725  145.0594  157.0633 H   0  0  0  0  0  0  0  0  0  0  0  0
  152.6360  143.8433  157.0259 H   0  0  0  0  0  0  0  0  0  0  0  0
  152.6970  145.1397  158.2188 H   0  0  0  0  0  0  0  0  0  0  0  0
  150.5919  144.3080  159.2511 H   0  0  0  0  0  0  0  0  0  0  0  0
  149.5460  142.2283  158.7214 H   0  0  0  0  0  0  0  0  0  0  0  0
  149.6974  143.1129  157.2228 H   0  0  0  0  0  0  0  0  0  0  0  0
  148.7451  140.0904  157.9835 H   0  0  0  0  0  0  0  0  0  0  0  0
  147.5583  138.6275  156.3743 H   0  0  0  0  0  0  0  0  0  0  0  0
  148.8154  137.6501  153.2036 H   0  0  0  0  0  0  0  0  0  0  0  0
  147.3917  136.6863  152.2791 H   0  0  0  0  0  0  0  0  0  0  0  0
  144.7940  137.6052  151.8953 H   0  0  0  0  0  0  0  0  0  0  0  0
  143.4308  136.0677  153.3061 H   0  0  0  0  0  0  0  0  0  0  0  0
  144.4123  137.1045  154.3254 H   0  0  0  0  0  0  0  0  0  0  0  0
  144.8908  135.4301  154.0583 H   0  0  0  0  0  0  0  0  0  0  0  0
  145.7595  136.0319  150.3531 H   0  0  0  0  0  0  0  0  0  0  0  0
  147.2918  134.5821  151.5466 H   0  0  0  0  0  0  0  0  0  0  0  0
  146.0648  134.1817  152.7555 H   0  0  0  0  0  0  0  0  0  0  0  0
  146.0538  133.4160  149.8185 H   0  0  0  0  0  0  0  0  0  0  0  0
  145.8687  132.3291  151.2007 H   0  0  0  0  0  0  0  0  0  0  0  0
  143.6673  133.3587  149.9221 H   0  0  0  0  0  0  0  0  0  0  0  0
  143.6699  133.1797  151.6778 H   0  0  0  0  0  0  0  0  0  0  0  0
  150.5709  139.6852  153.4466 H   0  0  0  0  0  0  0  0  0  0  0  0
  151.2467  140.3613  159.2321 H   0  0  0  0  0  0  0  0  0  0  0  0
  152.4702  140.0409  158.0102 H   0  0  0  0  0  0  0  0  0  0  0  0
  153.5056  142.2434  158.3629 H   0  0  0  0  0  0  0  0  0  0  0  0
  154.2486  140.4407  159.9084 H   0  0  0  0  0  0  0  0  0  0  0  0
  152.9813  140.8866  161.0503 H   0  0  0  0  0  0  0  0  0  0  0  0
  154.2891  142.0135  160.6995 H   0  0  0  0  0  0  0  0  0  0  0  0
  1  2  1  0  0  0  0
  1 26  1  0  0  0  0
  1 27  1  0  0  0  0
  1 28  1  0  0  0  0
  2 25  1  0  0  0  0
  2  3  1  0  0  0  0
  2 29  1  0  0  0  0
  3  4  1  0  0  0  0
  3 30  1  0  0  0  0
  3 31  1  0  0  0  0
  4  5  1  0  0  0  0
  4 22  1  0  0  0  0
  5 21  1  0  0  0  0
  5  6  2  0  0  0  0
  6  7  1  0  0  0  0
  6 32  1  0  0  0  0
  7  8  2  0  0  0  0
  7 33  1  0  0  0  0
  8  9  1  0  0  0  0
  8 20  1  0  0  0  0
  9 10  1  0  0  0  0
  9 34  1  0  0  0  0
 10 11  2  0  0  0  0
 10 12  1  0  0  0  0
 12 13  1  0  0  0  0
 12 35  1  0  0  0  0
 13 14  1  0  0  0  0
 13 15  1  0  0  0  0
 13 36  1  0  0  0  0
 14 37  1  0  0  0  0
 14 38  1  0  0  0  0
 14 39  1  0  0  0  0
 15 19  1  0  0  0  0
 15 16  1  0  0  0  0
 15 40  1  0  0  0  0
 16 17  1  0  0  0  0
 16 41  1  0  0  0  0
 16 42  1  0  0  0  0
 17 18  1  0  0  0  0
 17 43  1  0  0  0  0
 17 44  1  0  0  0  0
 18 19  1  0  0  0  0
 18 45  1  0  0  0  0
 18 46  1  0  0  0  0
 20 21  2  0  0  0  0
 20 47  1  0  0  0  0
 22 23  1  0  0  0  0
 22 48  1  0  0  0  0
 22 49  1  0  0  0  0
 23 24  1  0  0  0  0
 23 25  1  0  0  0  0
 23 50  1  0  0  0  0
 24 51  1  0  0  0  0
 24 52  1  0  0  0  0
 24 53  1  0  0  0  0
M  END
> <s_m_source_file>
AV-unprocessed.smi

> <i_m_source_file_index>
1413

> <i_lp_mmshare_version>
43012

> <i_f3d_flags>
0

> <s_epik_input>
W0NIM11bQ0BASF0xW0NIMl1OKFtDSDJdW0NASF0oTzEpW0NIM10pYzJbY0hdW2NIXWMoW2NIXW4yKVtOSF1DKD1PKVtOSF1bQ0BIXShbQ0gzXSlbQ0BASF0zW0NIMl1bQ0gyXVtDSDJdTzM=

> <s_epik_cmdline>
J2VwaWtfcHl0aG9uJywgJy1waCcsICc3LjAnLCAnLXRuJywgJzgnLCAnLW1hJywgJzIwMCcsICctbWV0YWxfYmluZGluZycsICctaW1hZScsICc8aW5maWxlLm1hZT4nLCAnLW9tYWUnLCAnPG91dGZpbGUubWFlPic=

> <r_lp_tautomer_probability>
1

> <r_epik_Ionization_Penalty>
0.00271172

> <r_epik_Ionization_Penalty_Charging>
0

> <r_epik_Ionization_Penalty_Neutral>
0.00271172

> <r_epik_State_Penalty>
0.00186503

> <r_epik_Charging_Adjusted_Penalty>
0.00186503

> <i_epik_Tot_Q>
0

> <i_epik_Tot_abs_Q>
0

> <r_epik_Metal_State_Penalty>
-0

> <b_epik_Metal_Only>
0

> <s_lp_Force_Field>
OPLS_2005

> <r_lp_Energy>
37.0266

> <b_lp_Chiralities_Consistent>
1

> <s_lp_Variant>
AV-unprocessed.smi:1413-11

> <Gold.Version>
5.8.1

> <Gold.Id.Protein>
6NUR|6NUR_protein|mol2

> <Gold.PLP.Fitness>
48.5739

> <Gold.PLP.PLP>
-40.5433

> <Gold.PLP.part.hbond>
-3.0000

> <Gold.PLP.part.metal>
0.0000

> <Gold.PLP.part.buried>
-6.8308

> <Gold.PLP.part.nonpolar>
-31.9510

> <Gold.PLP.part.repulsive>
0.4671

> <Gold.PLP.ligand.clash>
0.0000

> <Gold.PLP.ligand.torsion>
0.6575

> <Gold.PLP.Chemscore.Hbond>
2.0000

> <Gold.PLP.Chemscore.CHOScore>
0.9987

> <Gold.PLP.Chemscore.Metal>
0.0000

> <Gold.Chemscore.Hbonds>
donor molecule, donor type, donor heavy atom, donor atom, acceptor molecule, acceptor atom, score
      L1  H     9    34       P1  7948  0.99
      L1  H    12    35       P1  7948  1.00
      L1  C    20    47       P1  7957  1.00

> <Gold.PLP.Chemscore.Internal.Correction>
0.3495

> <Gold.Rescore>
     Score         DG    S(hbond)    S(metal)    S(lipo)     H(rot)  DE(clash)    DE(int)     intcor
     18.64     -21.17       1.97        0.00     107.27       1.35       0.06       2.48       ----

> <Gold.Chemscore.Fitness>
18.6410

> <Gold.Chemscore.DG>
-21.1734

> <Gold.Chemscore.ZeroCoef>
-5.4800

> <Gold.Chemscore.Hbond>
1.9734

> <Gold.Chemscore.Metal>
0.0000

> <Gold.Chemscore.Lipo>
107.2728

> <Gold.Chemscore.Internal_Hbond>
0.0000

> <Gold.Chemscore.DEClash>
0.0561

> <Gold.Chemscore.DEInternal>
2.4763

> <Gold.Chemscore.Rot>
1.3471

> <Gold.Chemscore.Internal.Correction>
   9.000000E+99

> <Gold.Chemscore.Hbonds>
donor molecule, donor type, donor heavy atom, donor atom, acceptor molecule, acceptor atom, score
      L1  H     9    34       P1  7948  0.94
      L1  H    12    35       P1  7948  1.00

> <Gold.Chemscore.Hbond.Weighted>
-6.5910

> <Gold.Chemscore.Metal.Weighted>
-0.0000

> <Gold.Chemscore.Lipo.Weighted>
-12.5509

> <Gold.Chemscore.Internal_Hbond.Weighted>
0.0000

> <Gold.Chemscore.DEClash.Weighted>
0.0561

> <Gold.Chemscore.DEInternal.Weighted>
2.4763

> <Gold.Chemscore.Rot.Weighted>
3.4485

> <Gold.Chemscore.Internal.Correction.Weighted>
   9.000000E+99

> <Gold.Protein.RotatedTorsions>
[ 6907 6896 6895 6894 ] final -145.04 input  -60.11 | X-H torsion
[ 7974 7965 7964 7962 ] final   24.08 input  175.53 | X-H torsion
[ 8008 7997 7996 7995 ] final   60.09 input   59.86 | X-H torsion
[ 10167 10162 10161 10158 ] final  -17.33 input  -65.29 | X-H torsion
[ 10718 10713 10712 10709 ] final  119.51 input   66.30 | X-H torsion
[ 10763 10752 10751 10750 ] final  142.10 input  -60.55 | X-H torsion
[ 11005 11000 10999 10996 ] final  120.77 input  -57.11 | X-H torsion

> <Gold.Protein.ActiveResidues>
 VAL166  LYS551  ARG553  GLY616  TRP617  ASP618  TYR619  PRO620  LYS621  CYS622 
 ASP623  PHE694  ASN695  SER759  ASP760  ASP761  ALA762  ILE779  LEU786  VAL792 
 PHE793  MET794  SER795  GLU796  ALA797  LYS798  CYS799  TRP800  GLU811  SER814 

> <Gold.Protein.RotatedAtoms>
  151.1224  133.5095  159.2601 H   0  0  0  0  0  0  0  0  0  0  0  0  # atno 6907 bound_to 6896
  151.1847  135.0376  159.8817 H   0  0  0  0  0  0  0  0  0  0  0  0  # atno 6908 bound_to 6896
  152.5456  134.1071  159.8396 H   0  0  0  0  0  0  0  0  0  0  0  0  # atno 6909 bound_to 6896
  146.1954  139.7655  142.8801 H   0  0  0  0  0  0  0  0  0  0  0  0  # atno 7974 bound_to 7965
  155.5766  140.3491  155.4529 H   0  0  0  0  0  0  0  0  0  0  0  0  # atno 8008 bound_to 7997
  156.0404  140.1294  157.0187 H   0  0  0  0  0  0  0  0  0  0  0  0  # atno 8009 bound_to 7997
  154.4389  140.1025  156.6214 H   0  0  0  0  0  0  0  0  0  0  0  0  # atno 8010 bound_to 7997
  140.7246  143.5026  150.9850 H   0  0  0  0  0  0  0  0  0  0  0  0  # atno 10167 bound_to 10162
  157.5956  131.1058  150.7906 H   0  0  0  0  0  0  0  0  0  0  0  0  # atno 10718 bound_to 10713
  153.9503  135.2970  155.3439 H   0  0  0  0  0  0  0  0  0  0  0  0  # atno 10763 bound_to 10752
  154.7430  135.5016  153.9158 H   0  0  0  0  0  0  0  0  0  0  0  0  # atno 10764 bound_to 10752
  153.0997  135.6731  153.9803 H   0  0  0  0  0  0  0  0  0  0  0  0  # atno 10765 bound_to 10752
  139.9199  134.9636  156.7858 H   0  0  0  0  0  0  0  0  0  0  0  0  # atno 11005 bound_to 11000
  145.3659  141.0334  143.3259 LP  0  0  0  0  0  0  0  0  0  0  0  0  # atno 17320 bound_to 7965
  144.8571  139.5234  143.6829 LP  0  0  0  0  0  0  0  0  0  0  0  0  # atno 17321 bound_to 7965
  139.8736  143.7161  152.3164 LP  0  0  0  0  0  0  0  0  0  0  0  0  # atno 17342 bound_to 10162
  139.7418  144.7557  151.0640 LP  0  0  0  0  0  0  0  0  0  0  0  0  # atno 17343 bound_to 10162
  156.8317  130.5018  149.5331 LP  0  0  0  0  0  0  0  0  0  0  0  0  # atno 17370 bound_to 10713
  156.1018  130.5975  150.9907 LP  0  0  0  0  0  0  0  0  0  0  0  0  # atno 17371 bound_to 10713
  140.6507  133.9734  155.7754 LP  0  0  0  0  0  0  0  0  0  0  0  0  # atno 17394 bound_to 11000
  141.0710  134.0206  157.3526 LP  0  0  0  0  0  0  0  0  0  0  0  0  # atno 17395 bound_to 11000

$$$$
