AV-unprocessed.smi:3124|AV-procd|sdf|11904|dock4
  -GOLD-   2272017283D 1   1.00000     0.00000
 Structure written by MMmdl.
 24 24  0  0  0  0  0  0  0  0  2 V2000
  140.4697  137.2160  154.3427 C   0  0  0  0  0  0  0  0  0  0  0  0
  141.5144  136.2539  153.8582 C   0  0  0  0  0  0  0  0  0  0  0  0
  142.6082  136.5108  152.9807 C   0  0  0  0  0  0  0  0  0  0  0  0
  143.2478  135.3058  152.8703 C   0  0  0  0  0  0  0  0  0  0  0  0
  144.4569  134.8706  152.1003 C   0  0  0  0  0  0  0  0  0  0  0  0
  144.1657  133.9688  150.8845 C   0  0  2  0  0  0  0  0  0  0  0  0
  145.3499  133.0449  150.5683 C   0  0  0  0  0  0  0  0  0  0  0  0
  143.8238  134.7765  149.6986 N   0  3  0  0  0  0  0  0  0  0  0  0
  142.5289  134.4243  153.6453 N   0  0  0  0  0  0  0  0  0  0  0  0
  141.4746  134.9926  154.2582 N   0  0  0  0  0  0  0  0  0  0  0  0
  142.7435  133.4443  153.7655 H   0  0  0  0  0  0  0  0  0  0  0  0
  140.4008  138.0843  153.6872 H   0  0  0  0  0  0  0  0  0  0  0  0
  140.7040  137.5744  155.3452 H   0  0  0  0  0  0  0  0  0  0  0  0
  139.4844  136.7498  154.3767 H   0  0  0  0  0  0  0  0  0  0  0  0
  142.8758  137.4426  152.5051 H   0  0  0  0  0  0  0  0  0  0  0  0
  145.0119  135.7513  151.7735 H   0  0  0  0  0  0  0  0  0  0  0  0
  145.1214  134.3395  152.7830 H   0  0  0  0  0  0  0  0  0  0  0  0
  143.3040  133.3397  151.1113 H   0  0  0  0  0  0  0  0  0  0  0  0
  145.5890  132.4077  151.4206 H   0  0  0  0  0  0  0  0  0  0  0  0
  146.2453  133.6157  150.3195 H   0  0  0  0  0  0  0  0  0  0  0  0
  145.1260  132.3915  149.7244 H   0  0  0  0  0  0  0  0  0  0  0  0
  144.4676  134.5672  148.9490 H   0  0  0  0  0  0  0  0  0  0  0  0
  143.8878  135.7578  149.9311 H   0  0  0  0  0  0  0  0  0  0  0  0
  142.8822  134.5619  149.4033 H   0  0  0  0  0  0  0  0  0  0  0  0
  1  2  1  0  0  0  0
  1 12  1  0  0  0  0
  1 13  1  0  0  0  0
  1 14  1  0  0  0  0
  2 10  2  0  0  0  0
  2  3  1  0  0  0  0
  3  4  2  0  0  0  0
  3 15  1  0  0  0  0
  4  5  1  0  0  0  0
  4  9  1  0  0  0  0
  5  6  1  0  0  0  0
  5 16  1  0  0  0  0
  5 17  1  0  0  0  0
  6  7  1  0  0  0  0
  6  8  1  0  0  0  0
  6 18  1  0  0  0  0
  7 19  1  0  0  0  0
  7 20  1  0  0  0  0
  7 21  1  0  0  0  0
  8 22  1  0  0  0  0
  8 23  1  0  0  0  0
  8 24  1  0  0  0  0
  9 11  1  0  0  0  0
  9 10  1  0  0  0  0
M  CHG  1   8   1
M  END
> <s_m_source_file>
AV-unprocessed.smi

> <i_m_source_file_index>
3124

> <i_lp_mmshare_version>
43012

> <i_f3d_flags>
0

> <s_epik_input>
W0NIM11jMVtjSF1jKFtuSF1uMSlbQ0gyXVtDQEhdKFtDSDNdKVtOSDJd

> <s_epik_cmdline>
J2VwaWtfcHl0aG9uJywgJy1waCcsICc3LjAnLCAnLXRuJywgJzgnLCAnLW1hJywgJzIwMCcsICctbWV0YWxfYmluZGluZycsICctaW1hZScsICc8aW5maWxlLm1hZT4nLCAnLW9tYWUnLCAnPG91dGZpbGUubWFlPic=

> <r_lp_tautomer_probability>
0.5

> <r_epik_Ionization_Penalty>
0.00227197

> <r_epik_Ionization_Penalty_Charging>
0.00223142

> <r_epik_Ionization_Penalty_Neutral>
4.05538e-05

> <r_epik_State_Penalty>
0.446108

> <r_epik_Charging_Adjusted_Penalty>
0.448339

> <i_epik_Tot_Q>
1

> <i_epik_Tot_abs_Q>
1

> <r_epik_Metal_State_Penalty>
0.444886

> <b_epik_Metal_Only>
0

> <s_lp_Force_Field>
OPLS_2005

> <r_lp_Energy>
4.61412

> <b_lp_Chiralities_Consistent>
1

> <s_lp_Variant>
AV-unprocessed.smi:3124-3

> <Gold.Version>
5.8.1

> <Gold.Id.Protein>
6NUR|6NUR_protein|mol2

> <Gold.PLP.Fitness>
34.6499

> <Gold.PLP.PLP>
-20.6955

> <Gold.PLP.part.hbond>
-4.0000

> <Gold.PLP.part.metal>
0.0000

> <Gold.PLP.part.buried>
-5.6829

> <Gold.PLP.part.nonpolar>
-11.0157

> <Gold.PLP.part.repulsive>
0.3009

> <Gold.PLP.ligand.clash>
0.0000

> <Gold.PLP.ligand.torsion>
0.4165

> <Gold.PLP.Chemscore.Hbond>
4.9280

> <Gold.PLP.Chemscore.CHOScore>
0.0000

> <Gold.PLP.Chemscore.Metal>
0.0000

> <Gold.Chemscore.Hbonds>
donor molecule, donor type, donor heavy atom, donor atom, acceptor molecule, acceptor atom, score
      L1  H     8    22       P1  7921  0.75
      L1  H     8    24       P1 10186  2.00
      L1  H     9    11       P1 10957  1.00
      P1  H 11000 11005       L1    10  0.90

> <Gold.PLP.Chemscore.Internal.Correction>
0.0033

> <Gold.Rescore>
     Score         DG    S(hbond)    S(metal)    S(lipo)     H(rot)  DE(clash)    DE(int)     intcor
     18.77     -19.41       3.77        0.00      39.70       1.30       0.03       0.61       ----

> <Gold.Chemscore.Fitness>
18.7688

> <Gold.Chemscore.DG>
-19.4072

> <Gold.Chemscore.ZeroCoef>
-5.4800

> <Gold.Chemscore.Hbond>
3.7744

> <Gold.Chemscore.Metal>
0.0000

> <Gold.Chemscore.Lipo>
39.7036

> <Gold.Chemscore.Internal_Hbond>
0.0000

> <Gold.Chemscore.DEClash>
0.0270

> <Gold.Chemscore.DEInternal>
0.6114

> <Gold.Chemscore.Rot>
1.2987

> <Gold.Chemscore.Internal.Correction>
   9.000000E+99

> <Gold.Chemscore.Hbonds>
donor molecule, donor type, donor heavy atom, donor atom, acceptor molecule, acceptor atom, score
      L1  H     8    22       P1  7921  0.74
      L1  H     8    24       P1 10186  0.97
      L1  H     9    11       P1 10957  0.95
      P1  H 11000 11005       L1    10  0.86

> <Gold.Chemscore.Hbond.Weighted>
-12.6065

> <Gold.Chemscore.Metal.Weighted>
-0.0000

> <Gold.Chemscore.Lipo.Weighted>
-4.6453

> <Gold.Chemscore.Internal_Hbond.Weighted>
0.0000

> <Gold.Chemscore.DEClash.Weighted>
0.0270

> <Gold.Chemscore.DEInternal.Weighted>
0.6114

> <Gold.Chemscore.Rot.Weighted>
3.3246

> <Gold.Chemscore.Internal.Correction.Weighted>
   9.000000E+99

> <Gold.Protein.RotatedTorsions>
[ 6907 6896 6895 6894 ] final  -12.09 input  -60.11 | X-H torsion
[ 7974 7965 7964 7962 ] final -136.08 input  175.53 | X-H torsion
[ 8008 7997 7996 7995 ] final  -37.00 input   59.86 | X-H torsion
[ 10167 10162 10161 10158 ] final    9.32 input  -65.29 | X-H torsion
[ 10718 10713 10712 10709 ] final -145.73 input   66.30 | X-H torsion
[ 10763 10752 10751 10750 ] final  -68.00 input  -60.55 | X-H torsion
[ 11005 11000 10999 10996 ] final   11.85 input  -57.11 | X-H torsion

> <Gold.Protein.ActiveResidues>
 VAL166  LYS551  ARG553  GLY616  TRP617  ASP618  TYR619  PRO620  LYS621  CYS622 
 ASP623  PHE694  ASN695  SER759  ASP760  ASP761  ALA762  ILE779  LEU786  VAL792 
 PHE793  MET794  SER795  GLU796  ALA797  LYS798  CYS799  TRP800  GLU811  SER814 

> <Gold.Protein.RotatedAtoms>
  151.3759  135.0931  159.9480 H   0  0  0  0  0  0  0  0  0  0  0  0  # atno 6907 bound_to 6896
  152.5122  133.9119  159.7502 H   0  0  0  0  0  0  0  0  0  0  0  0  # atno 6908 bound_to 6896
  150.9542  133.6461  159.2795 H   0  0  0  0  0  0  0  0  0  0  0  0  # atno 6909 bound_to 6896
  144.8958  140.6704  143.5116 H   0  0  0  0  0  0  0  0  0  0  0  0  # atno 7974 bound_to 7965
  154.4062  140.1616  156.2466 H   0  0  0  0  0  0  0  0  0  0  0  0  # atno 8008 bound_to 7997
  155.9155  140.3424  155.6109 H   0  0  0  0  0  0  0  0  0  0  0  0  # atno 8009 bound_to 7997
  155.7284  140.0777  157.2290 H   0  0  0  0  0  0  0  0  0  0  0  0  # atno 8010 bound_to 7997
  140.6262  143.8096  150.7236 H   0  0  0  0  0  0  0  0  0  0  0  0  # atno 10167 bound_to 10162
  156.3861  130.7862  151.2059 H   0  0  0  0  0  0  0  0  0  0  0  0  # atno 10718 bound_to 10713
  154.3827  135.6070  153.5800 H   0  0  0  0  0  0  0  0  0  0  0  0  # atno 10763 bound_to 10752
  152.9788  135.5865  154.4391 H   0  0  0  0  0  0  0  0  0  0  0  0  # atno 10764 bound_to 10752
  154.4162  135.2845  155.1983 H   0  0  0  0  0  0  0  0  0  0  0  0  # atno 10765 bound_to 10752
  140.4985  134.0769  155.7788 H   0  0  0  0  0  0  0  0  0  0  0  0  # atno 11005 bound_to 11000
  145.3703  139.1660  143.4336 LP  0  0  0  0  0  0  0  0  0  0  0  0  # atno 17320 bound_to 7965
  146.3080  140.3774  142.8680 LP  0  0  0  0  0  0  0  0  0  0  0  0  # atno 17321 bound_to 7965
  140.1697  143.4205  152.2009 LP  0  0  0  0  0  0  0  0  0  0  0  0  # atno 17342 bound_to 10162
  139.5482  144.7316  151.4518 LP  0  0  0  0  0  0  0  0  0  0  0  0  # atno 17343 bound_to 10162
  157.7496  131.0329  150.4249 LP  0  0  0  0  0  0  0  0  0  0  0  0  # atno 17370 bound_to 10713
  156.4502  130.4010  149.6641 LP  0  0  0  0  0  0  0  0  0  0  0  0  # atno 17371 bound_to 10713
  141.1447  133.9075  157.2243 LP  0  0  0  0  0  0  0  0  0  0  0  0  # atno 17394 bound_to 11000
  139.9727  135.0123  156.9553 LP  0  0  0  0  0  0  0  0  0  0  0  0  # atno 17395 bound_to 11000

$$$$
