AV-unprocessed.smi:1762|AV-procd|sdf|7113|dock5
  -GOLD-   22720 8343D 1   1.00000     0.00000
 Structure written by MMmdl.
 53 54  0  0  0  0  0  0  0  0  2 V2000
  145.9205  131.6876  150.5730 C   0  0  0  0  0  0  0  0  0  0  0  0
  146.3827  132.9594  151.2929 C   0  0  2  0  0  0  0  0  0  0  0  0
  147.4409  132.6616  152.3689 C   0  0  0  0  0  0  0  0  0  0  0  0
  147.8267  133.9033  153.0974 N   0  3  2  0  0  0  0  0  0  0  0  0
  148.9702  133.6939  154.0514 C   0  0  1  0  0  0  0  0  0  0  0  0
  149.0806  134.8696  155.0465 C   0  0  0  0  0  0  0  0  0  0  0  0
  148.9789  134.6668  156.2572 O   0  0  0  0  0  0  0  0  0  0  0  0
  149.2882  136.0871  154.5223 N   0  0  0  0  0  0  0  0  0  0  0  0
  149.4358  137.3126  155.2965 C   0  0  0  0  0  0  0  0  0  0  0  0
  150.8369  137.9078  155.1000 C   0  0  0  0  0  0  0  0  0  0  0  0
  151.0115  139.2215  155.8386 C   0  0  0  0  0  0  0  0  0  0  0  0
  151.8181  139.2970  156.9940 C   0  0  0  0  0  0  0  0  0  0  0  0
  151.9531  140.5424  157.6377 C   0  0  0  0  0  0  0  0  0  0  0  0
  151.2817  141.6587  157.1027 C   0  0  0  0  0  0  0  0  0  0  0  0
  150.5009  141.4788  155.9434 C   0  0  0  0  0  0  0  0  0  0  0  0
  150.3640  140.2889  155.3193 N   0  0  0  0  0  0  0  0  0  0  0  0
  148.9310  132.3272  154.8168 C   0  0  0  0  0  0  0  0  0  0  0  0
  149.4485  131.1300  153.9917 C   0  0  0  0  0  0  0  0  0  0  0  0
  147.5466  131.9995  155.4106 C   0  0  0  0  0  0  0  0  0  0  0  0
  146.6018  134.5105  153.6892 C   0  0  0  0  0  0  0  0  0  0  0  0
  145.5158  134.7528  152.6220 C   0  0  1  0  0  0  0  0  0  0  0  0
  145.8324  135.9328  151.6851 C   0  0  0  0  0  0  0  0  0  0  0  0
  145.2432  133.5515  151.9054 O   0  0  0  0  0  0  0  0  0  0  0  0
  146.7548  131.1913  150.0767 H   0  0  0  0  0  0  0  0  0  0  0  0
  145.1739  131.9199  149.8131 H   0  0  0  0  0  0  0  0  0  0  0  0
  145.4752  130.9775  151.2707 H   0  0  0  0  0  0  0  0  0  0  0  0
  146.7987  133.6358  150.5462 H   0  0  0  0  0  0  0  0  0  0  0  0
  147.0587  131.9280  153.0810 H   0  0  0  0  0  0  0  0  0  0  0  0
  148.3002  132.2031  151.8803 H   0  0  0  0  0  0  0  0  0  0  0  0
  149.8766  133.6900  153.4426 H   0  0  0  0  0  0  0  0  0  0  0  0
  149.3604  136.1699  153.5184 H   0  0  0  0  0  0  0  0  0  0  0  0
  148.6745  138.0256  154.9772 H   0  0  0  0  0  0  0  0  0  0  0  0
  149.2674  137.1146  156.3566 H   0  0  0  0  0  0  0  0  0  0  0  0
  151.5940  137.2037  155.4490 H   0  0  0  0  0  0  0  0  0  0  0  0
  151.0311  138.0652  154.0382 H   0  0  0  0  0  0  0  0  0  0  0  0
  152.3237  138.4234  157.3789 H   0  0  0  0  0  0  0  0  0  0  0  0
  152.5615  140.6396  158.5247 H   0  0  0  0  0  0  0  0  0  0  0  0
  151.3631  142.6294  157.5691 H   0  0  0  0  0  0  0  0  0  0  0  0
  149.9725  142.3125  155.5052 H   0  0  0  0  0  0  0  0  0  0  0  0
  149.5687  132.4192  155.6946 H   0  0  0  0  0  0  0  0  0  0  0  0
  148.7828  130.8949  153.1611 H   0  0  0  0  0  0  0  0  0  0  0  0
  149.5191  130.2356  154.6112 H   0  0  0  0  0  0  0  0  0  0  0  0
  150.4392  131.3143  153.5771 H   0  0  0  0  0  0  0  0  0  0  0  0
  146.8119  131.7675  154.6391 H   0  0  0  0  0  0  0  0  0  0  0  0
  147.1631  132.8325  156.0005 H   0  0  0  0  0  0  0  0  0  0  0  0
  147.6031  131.1332  156.0703 H   0  0  0  0  0  0  0  0  0  0  0  0
  146.2175  133.8483  154.4666 H   0  0  0  0  0  0  0  0  0  0  0  0
  146.8070  135.4689  154.1614 H   0  0  0  0  0  0  0  0  0  0  0  0
  144.5919  135.0064  153.1428 H   0  0  0  0  0  0  0  0  0  0  0  0
  145.8975  136.8651  152.2466 H   0  0  0  0  0  0  0  0  0  0  0  0
  145.0502  136.0547  150.9356 H   0  0  0  0  0  0  0  0  0  0  0  0
  146.7804  135.8057  151.1627 H   0  0  0  0  0  0  0  0  0  0  0  0
  148.1625  134.5564  152.4036 H   0  0  0  0  0  0  0  0  0  0  0  0
  1  2  1  0  0  0  0
  1 24  1  0  0  0  0
  1 25  1  0  0  0  0
  1 26  1  0  0  0  0
  2 23  1  0  0  0  0
  2  3  1  0  0  0  0
  2 27  1  0  0  0  0
  3  4  1  0  0  0  0
  3 28  1  0  0  0  0
  3 29  1  0  0  0  0
  4  5  1  0  0  0  0
  4 20  1  0  0  0  0
  4 53  1  0  0  0  0
  5  6  1  0  0  0  0
  5 17  1  0  0  0  0
  5 30  1  0  0  0  0
  6  7  2  0  0  0  0
  6  8  1  0  0  0  0
  8  9  1  0  0  0  0
  8 31  1  0  0  0  0
  9 10  1  0  0  0  0
  9 32  1  0  0  0  0
  9 33  1  0  0  0  0
 10 11  1  0  0  0  0
 10 34  1  0  0  0  0
 10 35  1  0  0  0  0
 11 16  1  0  0  0  0
 11 12  2  0  0  0  0
 12 13  1  0  0  0  0
 12 36  1  0  0  0  0
 13 14  2  0  0  0  0
 13 37  1  0  0  0  0
 14 15  1  0  0  0  0
 14 38  1  0  0  0  0
 15 16  2  0  0  0  0
 15 39  1  0  0  0  0
 17 18  1  0  0  0  0
 17 19  1  0  0  0  0
 17 40  1  0  0  0  0
 18 41  1  0  0  0  0
 18 42  1  0  0  0  0
 18 43  1  0  0  0  0
 19 44  1  0  0  0  0
 19 45  1  0  0  0  0
 19 46  1  0  0  0  0
 20 21  1  0  0  0  0
 20 47  1  0  0  0  0
 20 48  1  0  0  0  0
 21 22  1  0  0  0  0
 21 23  1  0  0  0  0
 21 49  1  0  0  0  0
 22 50  1  0  0  0  0
 22 51  1  0  0  0  0
 22 52  1  0  0  0  0
M  CHG  1   4   1
M  END
> <s_m_source_file>
AV-unprocessed.smi

> <i_m_source_file_index>
1762

> <i_lp_mmshare_version>
43012

> <i_f3d_flags>
0

> <s_epik_input>
W0NIM11bQ0BASF0xW0NIMl1OKFtDSDJdW0NASF0oTzEpW0NIM10pW0NAQEhdKFtDSF0oW0NIM10pW0NIM10pQyg9TylbTkhdW0NIMl1bQ0gyXWMyW2NIXVtjSF1bY0hdW2NIXW4y

> <s_epik_cmdline>
J2VwaWtfcHl0aG9uJywgJy1waCcsICc3LjAnLCAnLXRuJywgJzgnLCAnLW1hJywgJzIwMCcsICctbWV0YWxfYmluZGluZycsICctaW1hZScsICc8aW5maWxlLm1hZT4nLCAnLW9tYWUnLCAnPG91dGZpbGUubWFlPic=

> <r_epik_Ionization_Penalty>
2.27005

> <r_epik_Ionization_Penalty_Charging>
2.24983

> <r_epik_Ionization_Penalty_Neutral>
0.0202209

> <r_epik_State_Penalty>
2.40228

> <r_epik_Charging_Adjusted_Penalty>
4.65211

> <i_epik_Tot_Q>
1

> <i_epik_Tot_abs_Q>
1

> <r_epik_Metal_State_Penalty>
2.40762

> <b_epik_Metal_Only>
0

> <s_lp_Force_Field>
OPLS_2005

> <r_lp_Energy>
25.3597

> <b_lp_Chiralities_Consistent>
1

> <s_lp_Variant>
AV-unprocessed.smi:1762-15

> <Gold.Version>
5.8.1

> <Gold.Id.Protein>
6NUR|6NUR_protein|mol2

> <Gold.PLP.Fitness>
47.0990

> <Gold.PLP.PLP>
-35.1244

> <Gold.PLP.part.hbond>
-3.0000

> <Gold.PLP.part.metal>
0.0000

> <Gold.PLP.part.buried>
-2.4067

> <Gold.PLP.part.nonpolar>
-28.4295

> <Gold.PLP.part.repulsive>
0.1961

> <Gold.PLP.ligand.clash>
0.0000

> <Gold.PLP.ligand.torsion>
1.0127

> <Gold.PLP.Chemscore.Hbond>
3.5943

> <Gold.PLP.Chemscore.CHOScore>
1.0000

> <Gold.PLP.Chemscore.Metal>
0.0000

> <Gold.Chemscore.Hbonds>
donor molecule, donor type, donor heavy atom, donor atom, acceptor molecule, acceptor atom, score
      L1  H     4    53       P1  7948  2.00
      L1  H     8    31       P1  7948  1.00
      P1  H  7989  7998       L1    16  0.26
      L1  C    15    39       P1  8028  0.72

> <Gold.PLP.Chemscore.Internal.Correction>
0.2169

> <Gold.Rescore>
     Score         DG    S(hbond)    S(metal)    S(lipo)     H(rot)  DE(clash)    DE(int)     intcor
     16.29     -17.85       1.86        0.00      89.10       1.66       0.01       1.55       ----

> <Gold.Chemscore.Fitness>
16.2944

> <Gold.Chemscore.DG>
-17.8503

> <Gold.Chemscore.ZeroCoef>
-5.4800

> <Gold.Chemscore.Hbond>
1.8574

> <Gold.Chemscore.Metal>
0.0000

> <Gold.Chemscore.Lipo>
89.1046

> <Gold.Chemscore.Internal_Hbond>
0.0000

> <Gold.Chemscore.DEClash>
0.0085

> <Gold.Chemscore.DEInternal>
1.5473

> <Gold.Chemscore.Rot>
1.6635

> <Gold.Chemscore.Internal.Correction>
   9.000000E+99

> <Gold.Chemscore.Hbonds>
donor molecule, donor type, donor heavy atom, donor atom, acceptor molecule, acceptor atom, score
      L1  H     4    53       P1  7948  0.25
      L1  H     8    31       P1  7948  0.74
      P1  H  7989  7998       L1    16  0.01

> <Gold.Chemscore.Hbond.Weighted>
-6.2037

> <Gold.Chemscore.Metal.Weighted>
-0.0000

> <Gold.Chemscore.Lipo.Weighted>
-10.4252

> <Gold.Chemscore.Internal_Hbond.Weighted>
0.0000

> <Gold.Chemscore.DEClash.Weighted>
0.0085

> <Gold.Chemscore.DEInternal.Weighted>
1.5473

> <Gold.Chemscore.Rot.Weighted>
4.2586

> <Gold.Chemscore.Internal.Correction.Weighted>
   9.000000E+99

> <Gold.Protein.RotatedTorsions>
[ 6907 6896 6895 6894 ] final   92.96 input  -60.11 | X-H torsion
[ 7974 7965 7964 7962 ] final  -32.43 input  175.53 | X-H torsion
[ 8008 7997 7996 7995 ] final   85.82 input   59.86 | X-H torsion
[ 10167 10162 10161 10158 ] final  -83.57 input  -65.29 | X-H torsion
[ 10718 10713 10712 10709 ] final   -7.59 input   66.30 | X-H torsion
[ 10763 10752 10751 10750 ] final  116.82 input  -60.55 | X-H torsion
[ 11005 11000 10999 10996 ] final  -52.65 input  -57.11 | X-H torsion

> <Gold.Protein.ActiveResidues>
 VAL166  LYS551  ARG553  GLY616  TRP617  ASP618  TYR619  PRO620  LYS621  CYS622 
 ASP623  PHE694  ASN695  SER759  ASP760  ASP761  ALA762  ILE779  LEU786  VAL792 
 PHE793  MET794  SER795  GLU796  ALA797  LYS798  CYS799  TRP800  GLU811  SER814 

> <Gold.Protein.RotatedAtoms>
  152.5453  134.1422  159.8483 H   0  0  0  0  0  0  0  0  0  0  0  0  # atno 6907 bound_to 6896
  151.1457  133.4934  159.2603 H   0  0  0  0  0  0  0  0  0  0  0  0  # atno 6908 bound_to 6896
  151.1526  135.0245  159.8729 H   0  0  0  0  0  0  0  0  0  0  0  0  # atno 6909 bound_to 6896
  146.0991  140.5791  142.8829 H   0  0  0  0  0  0  0  0  0  0  0  0  # atno 7974 bound_to 7965
  155.9549  140.3398  155.6439 H   0  0  0  0  0  0  0  0  0  0  0  0  # atno 8008 bound_to 7997
  155.6873  140.0745  157.2480 H   0  0  0  0  0  0  0  0  0  0  0  0  # atno 8009 bound_to 7997
  154.4130  140.1663  156.2035 H   0  0  0  0  0  0  0  0  0  0  0  0  # atno 8010 bound_to 7997
  140.4214  143.2583  151.8885 H   0  0  0  0  0  0  0  0  0  0  0  0  # atno 10167 bound_to 10162
  156.7150  130.5133  149.5882 H   0  0  0  0  0  0  0  0  0  0  0  0  # atno 10718 bound_to 10713
  153.5430  135.3555  155.2726 H   0  0  0  0  0  0  0  0  0  0  0  0  # atno 10763 bound_to 10752
  154.8715  135.4095  154.3023 H   0  0  0  0  0  0  0  0  0  0  0  0  # atno 10764 bound_to 10752
  153.3734  135.7065  153.6689 H   0  0  0  0  0  0  0  0  0  0  0  0  # atno 10765 bound_to 10752
  141.0935  133.6628  156.4055 H   0  0  0  0  0  0  0  0  0  0  0  0  # atno 11005 bound_to 11000
  144.7418  140.4963  143.6864 LP  0  0  0  0  0  0  0  0  0  0  0  0  # atno 17320 bound_to 7965
  145.5890  139.1494  143.3193 LP  0  0  0  0  0  0  0  0  0  0  0  0  # atno 17321 bound_to 7965
  139.4782  144.5433  151.8495 LP  0  0  0  0  0  0  0  0  0  0  0  0  # atno 17342 bound_to 10162
  140.4530  144.1829  150.5899 LP  0  0  0  0  0  0  0  0  0  0  0  0  # atno 17343 bound_to 10162
  156.1635  130.6389  151.0748 LP  0  0  0  0  0  0  0  0  0  0  0  0  # atno 17370 bound_to 10713
  157.6921  131.0806  150.7077 LP  0  0  0  0  0  0  0  0  0  0  0  0  # atno 17371 bound_to 10713
  140.5196  134.6317  157.5313 LP  0  0  0  0  0  0  0  0  0  0  0  0  # atno 17394 bound_to 11000
  139.9766  134.7205  155.9938 LP  0  0  0  0  0  0  0  0  0  0  0  0  # atno 17395 bound_to 11000

$$$$
