AV-unprocessed.smi:1593|AV-procd|sdf|6412|dock10
  -GOLD-   22720 7 43D 1   1.00000     0.00000
 Structure written by MMmdl.
 36 37  0  0  0  0  0  0  0  0  3 V2000
  150.7986  141.2467  156.2410 C   0  0  0  0  0  0  0  0  0  0  0  0
  151.2040  139.9065  155.7310 C   0  0  0  0  0  0  0  0  0  0  0  0
  150.5060  138.8718  155.1755 C   0  0  0  0  0  0  0  0  0  0  0  0
  151.5141  137.9044  154.9125 C   0  0  0  0  0  0  0  0  0  0  0  0
  151.3208  136.6921  154.3704 N   0  5  0  0  0  0  0  0  0  0  0  0
  150.5189  135.7925  154.9836 C   0  0  0  0  0  0  0  0  0  0  0  0
  150.6026  135.4142  156.1545 O   0  0  0  0  0  0  0  0  0  0  0  0
  149.5609  135.2946  154.1888 N   0  0  0  0  0  0  0  0  0  0  0  0
  148.5623  134.3062  154.5782 C   0  0  0  0  0  0  0  0  0  0  0  0
  147.1330  134.8398  154.3661 C   0  0  0  0  0  0  0  0  0  0  0  0
  146.7297  134.8210  152.9386 N   0  3  0  0  0  0  0  0  0  0  0  0
  146.6934  133.4482  152.3802 C   0  0  0  0  0  0  0  0  0  0  0  0
  146.3216  133.4829  150.8882 C   0  0  0  0  0  0  0  0  0  0  0  0
  145.0702  134.1377  150.7228 O   0  0  0  0  0  0  0  0  0  0  0  0
  145.1123  135.4854  151.1753 C   0  0  0  0  0  0  0  0  0  0  0  0
  145.4463  135.5192  152.6764 C   0  0  0  0  0  0  0  0  0  0  0  0
  152.7147  138.3093  155.2914 N   0  0  0  0  0  0  0  0  0  0  0  0
  152.5255  139.5956  155.8104 O   0  0  0  0  0  0  0  0  0  0  0  0
  149.7165  141.3076  156.3581 H   0  0  0  0  0  0  0  0  0  0  0  0
  151.1096  142.0313  155.5511 H   0  0  0  0  0  0  0  0  0  0  0  0
  151.2546  141.4465  157.2107 H   0  0  0  0  0  0  0  0  0  0  0  0
  149.4452  138.8164  154.9833 H   0  0  0  0  0  0  0  0  0  0  0  0
  149.5250  135.6347  153.2387 H   0  0  0  0  0  0  0  0  0  0  0  0
  148.7355  133.3852  154.0210 H   0  0  0  0  0  0  0  0  0  0  0  0
  148.7174  134.0666  155.6305 H   0  0  0  0  0  0  0  0  0  0  0  0
  146.4494  134.2112  154.9392 H   0  0  0  0  0  0  0  0  0  0  0  0
  147.0255  135.8509  154.7621 H   0  0  0  0  0  0  0  0  0  0  0  0
  147.6667  132.9713  152.5026 H   0  0  0  0  0  0  0  0  0  0  0  0
  145.9696  132.8469  152.9329 H   0  0  0  0  0  0  0  0  0  0  0  0
  147.0920  133.9916  150.3060 H   0  0  0  0  0  0  0  0  0  0  0  0
  146.2444  132.4686  150.4962 H   0  0  0  0  0  0  0  0  0  0  0  0
  145.8457  136.0529  150.5998 H   0  0  0  0  0  0  0  0  0  0  0  0
  144.1413  135.9479  150.9968 H   0  0  0  0  0  0  0  0  0  0  0  0
  144.6463  135.0427  153.2453 H   0  0  0  0  0  0  0  0  0  0  0  0
  145.4987  136.5555  153.0079 H   0  0  0  0  0  0  0  0  0  0  0  0
  147.4483  135.3159  152.4298 H   0  0  0  0  0  0  0  0  0  0  0  0
  1  2  1  0  0  0  0
  1 19  1  0  0  0  0
  1 20  1  0  0  0  0
  1 21  1  0  0  0  0
  2 18  1  0  0  0  0
  2  3  2  0  0  0  0
  3  4  1  0  0  0  0
  3 22  1  0  0  0  0
  4  5  1  0  0  0  0
  4 17  2  0  0  0  0
  5  6  1  0  0  0  0
  6  7  2  0  0  0  0
  6  8  1  0  0  0  0
  8  9  1  0  0  0  0
  8 23  1  0  0  0  0
  9 10  1  0  0  0  0
  9 24  1  0  0  0  0
  9 25  1  0  0  0  0
 10 11  1  0  0  0  0
 10 26  1  0  0  0  0
 10 27  1  0  0  0  0
 11 16  1  0  0  0  0
 11 12  1  0  0  0  0
 11 36  1  0  0  0  0
 12 13  1  0  0  0  0
 12 28  1  0  0  0  0
 12 29  1  0  0  0  0
 13 14  1  0  0  0  0
 13 30  1  0  0  0  0
 13 31  1  0  0  0  0
 14 15  1  0  0  0  0
 15 16  1  0  0  0  0
 15 32  1  0  0  0  0
 15 33  1  0  0  0  0
 16 34  1  0  0  0  0
 16 35  1  0  0  0  0
 17 18  1  0  0  0  0
M  CHG  1   5  -1
M  CHG  1  11   1
M  END
> <s_m_source_file>
AV-unprocessed.smi

> <i_m_source_file_index>
1593

> <i_lp_mmshare_version>
43012

> <i_f3d_flags>
0

> <s_epik_input>
W0NIM11jMVtjSF1jKG5vMSlbTkhdQyg9TylbTkhdW0NIMl1bQ0gyXU4yW0NIMl1bQ0gyXU9bQ0gyXVtDSDJdMg==

> <s_epik_cmdline>
J2VwaWtfcHl0aG9uJywgJy1waCcsICc3LjAnLCAnLXRuJywgJzgnLCAnLW1hJywgJzIwMCcsICctbWV0YWxfYmluZGluZycsICctaW1hZScsICc8aW5maWxlLm1hZT4nLCAnLW9tYWUnLCAnPG91dGZpbGUubWFlPic=

> <r_epik_Ionization_Penalty>
6.73013

> <r_epik_Ionization_Penalty_Charging>
6.73004

> <r_epik_Ionization_Penalty_Neutral>
9.27027e-05

> <r_epik_State_Penalty>
6.93052

> <r_epik_Charging_Adjusted_Penalty>
13.6606

> <i_epik_Tot_Q>
0

> <i_epik_Tot_abs_Q>
2

> <r_epik_Metal_State_Penalty>
2.86736

> <b_epik_Metal_Only>
1

> <s_lp_Force_Field>
OPLS_2005

> <r_lp_Energy>
3.0075

> <b_lp_Chiralities_Consistent>
1

> <s_lp_Variant>
AV-unprocessed.smi:1593-4

> <Gold.Version>
5.8.1

> <Gold.Id.Protein>
6NUR|6NUR_protein|mol2

> <Gold.PLP.Fitness>
43.7926

> <Gold.PLP.PLP>
-28.4503

> <Gold.PLP.part.hbond>
-4.0000

> <Gold.PLP.part.metal>
0.0000

> <Gold.PLP.part.buried>
-5.0973

> <Gold.PLP.part.nonpolar>
-19.8150

> <Gold.PLP.part.repulsive>
0.6327

> <Gold.PLP.ligand.clash>
0.0000

> <Gold.PLP.ligand.torsion>
1.1425

> <Gold.PLP.Chemscore.Hbond>
5.8500

> <Gold.PLP.Chemscore.CHOScore>
0.0000

> <Gold.PLP.Chemscore.Metal>
0.0000

> <Gold.Chemscore.Hbonds>
donor molecule, donor type, donor heavy atom, donor atom, acceptor molecule, acceptor atom, score
      L1  H     8    23       P1  7948  0.70
      L1  H    11    36       P1  7948  2.00
      P1  H  7997  8010       L1    18  1.00
      P1  H 10752 10763       L1     5  1.40

> <Gold.PLP.Chemscore.Internal.Correction>
0.0773

> <Gold.Rescore>
     Score         DG    S(hbond)    S(metal)    S(lipo)     H(rot)  DE(clash)    DE(int)     intcor
     14.07     -15.27       2.62        0.00      44.29       1.62       0.01       1.19       ----

> <Gold.Chemscore.Fitness>
14.0689

> <Gold.Chemscore.DG>
-15.2744

> <Gold.Chemscore.ZeroCoef>
-5.4800

> <Gold.Chemscore.Hbond>
2.6249

> <Gold.Chemscore.Metal>
0.0000

> <Gold.Chemscore.Lipo>
44.2856

> <Gold.Chemscore.Internal_Hbond>
0.0000

> <Gold.Chemscore.DEClash>
0.0106

> <Gold.Chemscore.DEInternal>
1.1949

> <Gold.Chemscore.Rot>
1.6228

> <Gold.Chemscore.Internal.Correction>
   9.000000E+99

> <Gold.Chemscore.Hbonds>
donor molecule, donor type, donor heavy atom, donor atom, acceptor molecule, acceptor atom, score
      L1  H     8    23       P1  7948  0.07
      L1  H    11    36       P1  7948  1.00
      P1  H  7997  8010       L1    18  0.34
      P1  H 10752 10763       L1     5  0.05

> <Gold.Chemscore.Hbond.Weighted>
-8.7673

> <Gold.Chemscore.Metal.Weighted>
-0.0000

> <Gold.Chemscore.Lipo.Weighted>
-5.1814

> <Gold.Chemscore.Internal_Hbond.Weighted>
0.0000

> <Gold.Chemscore.DEClash.Weighted>
0.0106

> <Gold.Chemscore.DEInternal.Weighted>
1.1949

> <Gold.Chemscore.Rot.Weighted>
4.1542

> <Gold.Chemscore.Internal.Correction.Weighted>
   9.000000E+99

> <Gold.Protein.RotatedTorsions>
[ 6907 6896 6895 6894 ] final -113.10 input  -60.11 | X-H torsion
[ 7974 7965 7964 7962 ] final   56.85 input  175.53 | X-H torsion
[ 8008 7997 7996 7995 ] final   81.93 input   59.86 | X-H torsion
[ 10167 10162 10161 10158 ] final  119.77 input  -65.29 | X-H torsion
[ 10718 10713 10712 10709 ] final   38.78 input   66.30 | X-H torsion
[ 10763 10752 10751 10750 ] final   59.65 input  -60.55 | X-H torsion
[ 11005 11000 10999 10996 ] final  -98.58 input  -57.11 | X-H torsion

> <Gold.Protein.ActiveResidues>
 VAL166  LYS551  ARG553  GLY616  TRP617  ASP618  TYR619  PRO620  LYS621  CYS622 
 ASP623  PHE694  ASN695  SER759  ASP760  ASP761  ALA762  ILE779  LEU786  VAL792 
 PHE793  MET794  SER795  GLU796  ALA797  LYS798  CYS799  TRP800  GLU811  SER814 

> <Gold.Protein.RotatedAtoms>
  150.7805  133.8993  159.3336 H   0  0  0  0  0  0  0  0  0  0  0  0  # atno 6907 bound_to 6896
  151.6857  135.0953  160.0234 H   0  0  0  0  0  0  0  0  0  0  0  0  # atno 6908 bound_to 6896
  152.3855  133.6566  159.6230 H   0  0  0  0  0  0  0  0  0  0  0  0  # atno 6909 bound_to 6896
  145.9354  139.3842  143.0396 H   0  0  0  0  0  0  0  0  0  0  0  0  # atno 7974 bound_to 7965
  155.9038  140.3431  155.6047 H   0  0  0  0  0  0  0  0  0  0  0  0  # atno 8008 bound_to 7997
  155.7468  140.0815  157.2239 H   0  0  0  0  0  0  0  0  0  0  0  0  # atno 8009 bound_to 7997
  154.4047  140.1560  156.2666 H   0  0  0  0  0  0  0  0  0  0  0  0  # atno 8010 bound_to 7997
  139.6025  144.7061  151.3030 H   0  0  0  0  0  0  0  0  0  0  0  0  # atno 10167 bound_to 10162
  157.3629  130.7659  149.7061 H   0  0  0  0  0  0  0  0  0  0  0  0  # atno 10718 bound_to 10713
  152.9900  135.5564  154.5748 H   0  0  0  0  0  0  0  0  0  0  0  0  # atno 10763 bound_to 10752
  154.5141  135.2804  155.1320 H   0  0  0  0  0  0  0  0  0  0  0  0  # atno 10764 bound_to 10752
  154.2700  135.6365  153.5359 H   0  0  0  0  0  0  0  0  0  0  0  0  # atno 10765 bound_to 10752
  141.1339  133.8256  157.0859 H   0  0  0  0  0  0  0  0  0  0  0  0  # atno 11005 bound_to 11000
  145.8371  140.9600  143.0819 LP  0  0  0  0  0  0  0  0  0  0  0  0  # atno 17320 bound_to 7965
  144.6771  140.0237  143.7483 LP  0  0  0  0  0  0  0  0  0  0  0  0  # atno 17321 bound_to 7965
  140.7260  143.7002  150.7851 LP  0  0  0  0  0  0  0  0  0  0  0  0  # atno 17342 bound_to 10162
  140.0581  143.5182  152.2641 LP  0  0  0  0  0  0  0  0  0  0  0  0  # atno 17343 bound_to 10162
  155.9741  130.4109  150.3952 LP  0  0  0  0  0  0  0  0  0  0  0  0  # atno 17370 bound_to 10713
  157.2032  131.0443  151.2639 LP  0  0  0  0  0  0  0  0  0  0  0  0  # atno 17371 bound_to 10713
  140.0422  134.9848  157.0984 LP  0  0  0  0  0  0  0  0  0  0  0  0  # atno 17394 bound_to 11000
  140.4117  134.1974  155.7163 LP  0  0  0  0  0  0  0  0  0  0  0  0  # atno 17395 bound_to 11000

$$$$
