AV-unprocessed.smi:1112|AV-procd|sdf|4797|dock4
  -GOLD-   22720 3343D 1   1.00000     0.00000
 Structure written by MMmdl.
 50 52  0  0  0  0  0  0  0  0  2 V2000
  150.5314  133.8227  155.4535 O   0  0  0  0  0  0  0  0  0  0  0  0
  149.9573  134.4720  154.5799 C   0  0  0  0  0  0  0  0  0  0  0  0
  150.0225  135.8069  154.4785 N   0  0  0  0  0  0  0  0  0  0  0  0
  150.7911  136.6970  155.3476 C   0  0  0  0  0  0  0  0  0  0  0  0
  151.4880  137.8431  154.5672 C   0  0  0  0  0  0  0  0  0  0  0  0
  152.2116  137.2292  153.5168 O   0  0  0  0  0  0  0  0  0  0  0  0
  150.4557  138.7760  153.8900 C   0  0  0  0  0  0  0  0  0  0  0  0
  149.7393  139.7009  154.8922 C   0  0  0  0  0  0  0  0  0  0  0  0
  150.7437  140.5063  155.7312 C   0  0  0  0  0  0  0  0  0  0  0  0
  151.7583  139.5853  156.4259 C   0  0  0  0  0  0  0  0  0  0  0  0
  152.4797  138.6879  155.4059 C   0  0  0  0  0  0  0  0  0  0  0  0
  149.1788  133.9524  153.6159 N   0  0  0  0  0  0  0  0  0  0  0  0
  148.8432  132.5869  153.3843 C   0  0  0  0  0  0  0  0  0  0  0  0
  149.7088  131.5203  153.7398 C   0  0  0  0  0  0  0  0  0  0  0  0
  149.3237  130.1901  153.4839 C   0  0  0  0  0  0  0  0  0  0  0  0
  148.0840  129.9444  152.8677 C   0  0  0  0  0  0  0  0  0  0  0  0
  147.2914  130.9807  152.5245 N   0  3  0  0  0  0  0  0  0  0  0  0
  147.6095  132.2803  152.7471 C   0  0  0  0  0  0  0  0  0  0  0  0
  146.7184  133.2844  152.3128 N   0  0  0  0  0  0  0  0  0  0  0  0
  146.5717  133.3525  150.8605 C   0  0  0  0  0  0  0  0  0  0  0  0
  145.0938  133.6385  150.5828 C   0  0  0  0  0  0  0  0  0  0  0  0
  144.3928  133.0828  151.8165 C   0  0  0  0  0  0  0  0  0  0  0  0
  145.3959  133.3878  152.9271 C   0  0  0  0  0  0  0  0  0  0  0  0
  149.5143  136.2513  153.7280 H   0  0  0  0  0  0  0  0  0  0  0  0
  150.1117  137.1104  156.0940 H   0  0  0  0  0  0  0  0  0  0  0  0
  151.5255  136.1230  155.9126 H   0  0  0  0  0  0  0  0  0  0  0  0
  151.6264  137.0975  152.7864 H   0  0  0  0  0  0  0  0  0  0  0  0
  150.9601  139.4015  153.1515 H   0  0  0  0  0  0  0  0  0  0  0  0
  149.7199  138.1911  153.3360 H   0  0  0  0  0  0  0  0  0  0  0  0
  149.0797  140.3830  154.3551 H   0  0  0  0  0  0  0  0  0  0  0  0
  149.0958  139.1172  155.5505 H   0  0  0  0  0  0  0  0  0  0  0  0
  151.2730  141.2109  155.0883 H   0  0  0  0  0  0  0  0  0  0  0  0
  150.2137  141.1043  156.4730 H   0  0  0  0  0  0  0  0  0  0  0  0
  152.4879  140.1850  156.9707 H   0  0  0  0  0  0  0  0  0  0  0  0
  151.2489  138.9729  157.1699 H   0  0  0  0  0  0  0  0  0  0  0  0
  153.2104  138.0572  155.9124 H   0  0  0  0  0  0  0  0  0  0  0  0
  153.0604  139.3282  154.7399 H   0  0  0  0  0  0  0  0  0  0  0  0
  148.7048  134.6209  153.0265 H   0  0  0  0  0  0  0  0  0  0  0  0
  150.6717  131.6969  154.1939 H   0  0  0  0  0  0  0  0  0  0  0  0
  149.9741  129.3704  153.7528 H   0  0  0  0  0  0  0  0  0  0  0  0
  147.7094  128.9593  152.6301 H   0  0  0  0  0  0  0  0  0  0  0  0
  147.2103  134.1281  150.4368 H   0  0  0  0  0  0  0  0  0  0  0  0
  146.8573  132.4014  150.4074 H   0  0  0  0  0  0  0  0  0  0  0  0
  144.9300  134.7155  150.5211 H   0  0  0  0  0  0  0  0  0  0  0  0
  144.7425  133.1903  149.6530 H   0  0  0  0  0  0  0  0  0  0  0  0
  143.4144  133.5309  151.9914 H   0  0  0  0  0  0  0  0  0  0  0  0
  144.2613  132.0044  151.7166 H   0  0  0  0  0  0  0  0  0  0  0  0
  145.2477  132.7472  153.7967 H   0  0  0  0  0  0  0  0  0  0  0  0
  145.2697  134.4156  153.2689 H   0  0  0  0  0  0  0  0  0  0  0  0
  146.4038  130.7739  152.0660 H   0  0  0  0  0  0  0  0  0  0  0  0
  1  2  2  0  0  0  0
  2  3  1  0  0  0  0
  2 12  1  0  0  0  0
  3  4  1  0  0  0  0
  3 24  1  0  0  0  0
  4  5  1  0  0  0  0
  4 25  1  0  0  0  0
  4 26  1  0  0  0  0
  5 11  1  0  0  0  0
  5  6  1  0  0  0  0
  5  7  1  0  0  0  0
  6 27  1  0  0  0  0
  7  8  1  0  0  0  0
  7 28  1  0  0  0  0
  7 29  1  0  0  0  0
  8  9  1  0  0  0  0
  8 30  1  0  0  0  0
  8 31  1  0  0  0  0
  9 10  1  0  0  0  0
  9 32  1  0  0  0  0
  9 33  1  0  0  0  0
 10 11  1  0  0  0  0
 10 34  1  0  0  0  0
 10 35  1  0  0  0  0
 11 36  1  0  0  0  0
 11 37  1  0  0  0  0
 12 13  1  0  0  0  0
 12 38  1  0  0  0  0
 13 18  1  0  0  0  0
 13 14  2  0  0  0  0
 14 15  1  0  0  0  0
 14 39  1  0  0  0  0
 15 16  2  0  0  0  0
 15 40  1  0  0  0  0
 16 17  1  0  0  0  0
 16 41  1  0  0  0  0
 17 18  2  0  0  0  0
 17 50  1  0  0  0  0
 18 19  1  0  0  0  0
 19 23  1  0  0  0  0
 19 20  1  0  0  0  0
 20 21  1  0  0  0  0
 20 42  1  0  0  0  0
 20 43  1  0  0  0  0
 21 22  1  0  0  0  0
 21 44  1  0  0  0  0
 21 45  1  0  0  0  0
 22 23  1  0  0  0  0
 22 46  1  0  0  0  0
 22 47  1  0  0  0  0
 23 48  1  0  0  0  0
 23 49  1  0  0  0  0
M  CHG  1  17   1
M  END
> <s_m_source_file>
AV-unprocessed.smi

> <i_m_source_file_index>
1112

> <i_lp_mmshare_version>
43012

> <i_f3d_flags>
0

> <s_epik_input>
W0NIMl0xW0NIMl1bQ0gyXVtDSDJdW0NIMl1DMShbT0hdKVtDSDJdW05IXUMoPU8pW05IXWMyW2NIXVtjSF1bY0hdbmMyTjNbQ0gyXVtDSDJdW0NIMl1bQ0gyXTM=

> <s_epik_cmdline>
J2VwaWtfcHl0aG9uJywgJy1waCcsICc3LjAnLCAnLXRuJywgJzgnLCAnLW1hJywgJzIwMCcsICctbWV0YWxfYmluZGluZycsICctaW1hZScsICc8aW5maWxlLm1hZT4nLCAnLW9tYWUnLCAnPG91dGZpbGUubWFlPic=

> <r_lp_tautomer_probability>
0.999994

> <r_epik_Ionization_Penalty>
1.10443

> <r_epik_Ionization_Penalty_Charging>
1.1044

> <r_epik_Ionization_Penalty_Neutral>
2.27493e-05

> <r_epik_State_Penalty>
1.16183

> <r_epik_Charging_Adjusted_Penalty>
2.26623

> <i_epik_Tot_Q>
1

> <i_epik_Tot_abs_Q>
1

> <r_epik_Metal_State_Penalty>
1.24855

> <b_epik_Metal_Only>
0

> <s_lp_Force_Field>
OPLS_2005

> <r_lp_Energy>
50.1983

> <b_lp_Chiralities_Consistent>
1

> <s_lp_Variant>
AV-unprocessed.smi:1112-2

> <Gold.Version>
5.8.1

> <Gold.Id.Protein>
6NUR|6NUR_protein|mol2

> <Gold.PLP.Fitness>
54.6473

> <Gold.PLP.PLP>
-43.5668

> <Gold.PLP.part.hbond>
-4.9104

> <Gold.PLP.part.metal>
0.0000

> <Gold.PLP.part.buried>
-3.9580

> <Gold.PLP.part.nonpolar>
-33.9007

> <Gold.PLP.part.repulsive>
0.2024

> <Gold.PLP.ligand.clash>
0.0000

> <Gold.PLP.ligand.torsion>
0.4048

> <Gold.PLP.Chemscore.Hbond>
3.9120

> <Gold.PLP.Chemscore.CHOScore>
0.0000

> <Gold.PLP.Chemscore.Metal>
0.0000

> <Gold.Chemscore.Hbonds>
donor molecule, donor type, donor heavy atom, donor atom, acceptor molecule, acceptor atom, score
      L1  H     3    24       P1  7948  0.94
      L1  H     6    27       P1  7949  0.90
      L1  H    12    38       P1  7948  0.78
      P1  H 10752 10764       L1     6  1.00

> <Gold.PLP.Chemscore.Internal.Correction>
0.1540

> <Gold.Rescore>
     Score         DG    S(hbond)    S(metal)    S(lipo)     H(rot)  DE(clash)    DE(int)     intcor
     19.25     -20.82       2.79        0.00      93.54       1.92       0.04       1.54       ----

> <Gold.Chemscore.Fitness>
19.2525

> <Gold.Chemscore.DG>
-20.8238

> <Gold.Chemscore.ZeroCoef>
-5.4800

> <Gold.Chemscore.Hbond>
2.7869

> <Gold.Chemscore.Metal>
0.0000

> <Gold.Chemscore.Lipo>
93.5378

> <Gold.Chemscore.Internal_Hbond>
0.0000

> <Gold.Chemscore.DEClash>
0.0363

> <Gold.Chemscore.DEInternal>
1.5351

> <Gold.Chemscore.Rot>
1.9173

> <Gold.Chemscore.Internal.Correction>
   9.000000E+99

> <Gold.Chemscore.Hbonds>
donor molecule, donor type, donor heavy atom, donor atom, acceptor molecule, acceptor atom, score
      L1  H     3    24       P1  7948  0.59
      L1  H     6    27       P1  7949  0.85
      L1  H    12    38       P1  7948  0.15
      P1  H 10752 10764       L1     6  0.72

> <Gold.Chemscore.Hbond.Weighted>
-9.3083

> <Gold.Chemscore.Metal.Weighted>
-0.0000

> <Gold.Chemscore.Lipo.Weighted>
-10.9439

> <Gold.Chemscore.Internal_Hbond.Weighted>
0.0000

> <Gold.Chemscore.DEClash.Weighted>
0.0363

> <Gold.Chemscore.DEInternal.Weighted>
1.5351

> <Gold.Chemscore.Rot.Weighted>
4.9084

> <Gold.Chemscore.Internal.Correction.Weighted>
   9.000000E+99

> <Gold.Protein.RotatedTorsions>
[ 6907 6896 6895 6894 ] final   20.52 input  -60.11 | X-H torsion
[ 7974 7965 7964 7962 ] final -175.11 input  175.53 | X-H torsion
[ 8008 7997 7996 7995 ] final -176.61 input   59.86 | X-H torsion
[ 10167 10162 10161 10158 ] final  -22.24 input  -65.29 | X-H torsion
[ 10718 10713 10712 10709 ] final  172.31 input   66.30 | X-H torsion
[ 10763 10752 10751 10750 ] final  -96.67 input  -60.55 | X-H torsion
[ 11005 11000 10999 10996 ] final   30.86 input  -57.11 | X-H torsion

> <Gold.Protein.ActiveResidues>
 VAL166  LYS551  ARG553  GLY616  TRP617  ASP618  TYR619  PRO620  LYS621  CYS622 
 ASP623  PHE694  ASN695  SER759  ASP760  ASP761  ALA762  ILE779  LEU786  VAL792 
 PHE793  MET794  SER795  GLU796  ALA797  LYS798  CYS799  TRP800  GLU811  SER814 

> <Gold.Protein.RotatedAtoms>
  151.8977  135.0391  160.0503 H   0  0  0  0  0  0  0  0  0  0  0  0  # atno 6907 bound_to 6896
  152.2384  133.5110  159.5264 H   0  0  0  0  0  0  0  0  0  0  0  0  # atno 6908 bound_to 6896
  150.7046  134.1039  159.4018 H   0  0  0  0  0  0  0  0  0  0  0  0  # atno 6909 bound_to 6896
  144.7129  140.1370  143.6394 H   0  0  0  0  0  0  0  0  0  0  0  0  # atno 7974 bound_to 7965
  155.9970  140.1212  157.0584 H   0  0  0  0  0  0  0  0  0  0  0  0  # atno 8008 bound_to 7997
  154.4230  140.1114  156.5712 H   0  0  0  0  0  0  0  0  0  0  0  0  # atno 8009 bound_to 7997
  155.6265  140.3472  155.4671 H   0  0  0  0  0  0  0  0  0  0  0  0  # atno 8010 bound_to 7997
  140.7285  143.4553  151.0457 H   0  0  0  0  0  0  0  0  0  0  0  0  # atno 10167 bound_to 10162
  156.9808  131.0118  151.2882 H   0  0  0  0  0  0  0  0  0  0  0  0  # atno 10718 bound_to 10713
  154.7260  135.5075  153.8887 H   0  0  0  0  0  0  0  0  0  0  0  0  # atno 10763 bound_to 10752
  153.0905  135.6658  153.9872 H   0  0  0  0  0  0  0  0  0  0  0  0  # atno 10764 bound_to 10752
  153.9684  135.3041  155.3408 H   0  0  0  0  0  0  0  0  0  0  0  0  # atno 10765 bound_to 10752
  140.2899  134.2876  155.7778 H   0  0  0  0  0  0  0  0  0  0  0  0  # atno 11005 bound_to 11000
  145.9236  139.2561  143.1367 LP  0  0  0  0  0  0  0  0  0  0  0  0  # atno 17320 bound_to 7965
  145.9595  140.8846  143.0218 LP  0  0  0  0  0  0  0  0  0  0  0  0  # atno 17321 bound_to 7965
  139.8233  143.7790  152.3177 LP  0  0  0  0  0  0  0  0  0  0  0  0  # atno 17342 bound_to 10162
  139.7880  144.7420  150.9995 LP  0  0  0  0  0  0  0  0  0  0  0  0  # atno 17343 bound_to 10162
  157.5527  130.8193  149.8166 LP  0  0  0  0  0  0  0  0  0  0  0  0  # atno 17370 bound_to 10713
  156.0245  130.3784  150.1863 LP  0  0  0  0  0  0  0  0  0  0  0  0  # atno 17371 bound_to 10713
  141.2148  133.7578  156.9609 LP  0  0  0  0  0  0  0  0  0  0  0  0  # atno 17394 bound_to 11000
  140.1205  134.9420  157.2196 LP  0  0  0  0  0  0  0  0  0  0  0  0  # atno 17395 bound_to 11000

$$$$
