AV-unprocessed.smi:1709|AV-procd|sdf|6895|dock7
  -GOLD-   22720 8103D 1   1.00000     0.00000
 Structure written by MMmdl.
 43 45  0  0  0  0  0  0  0  0  2 V2000
  147.7289  133.0844  152.4575 C   0  0  0  0  0  0  0  0  0  0  0  0
  146.4365  133.1134  151.6572 C   0  0  0  0  0  0  0  0  0  0  0  0
  145.8464  131.8943  151.2608 C   0  0  0  0  0  0  0  0  0  0  0  0
  144.6534  131.9187  150.5192 C   0  0  0  0  0  0  0  0  0  0  0  0
  144.0988  133.1695  150.2015 C   0  0  0  0  0  0  0  0  0  0  0  0
  144.6567  134.3391  150.5756 N   0  0  0  0  0  0  0  0  0  0  0  0
  145.8068  134.3359  151.2985 C   0  0  0  0  0  0  0  0  0  0  0  0
  146.4717  135.5278  151.7237 N   0  0  0  0  0  0  0  0  0  0  0  0
  146.0244  136.6147  152.3878 C   0  0  0  0  0  0  0  0  0  0  0  0
  144.8503  136.7049  152.7418 O   0  0  0  0  0  0  0  0  0  0  0  0
  146.9315  137.5747  152.6327 N   0  0  0  0  0  0  0  0  0  0  0  0
  146.6876  138.8191  153.3580 C   0  0  2  0  0  0  0  0  0  0  0  0
  146.5685  140.0385  152.4231 C   0  0  0  0  0  0  0  0  0  0  0  0
  147.3580  141.1480  153.1250 C   0  0  0  0  0  0  0  0  0  0  0  0
  148.4231  140.4095  153.8128 N   0  3  1  0  0  0  0  0  0  0  0  0
  149.2489  141.1255  154.8062 C   0  0  0  0  0  0  0  0  0  0  0  0
  150.3992  140.1950  155.2472 C   0  0  0  0  0  0  0  0  0  0  0  0
  149.8871  138.8155  155.7191 C   0  0  0  0  0  0  0  0  0  0  0  0
  148.9281  138.1778  154.6910 C   0  0  0  0  0  0  0  0  0  0  0  0
  147.8121  139.1841  154.3556 C   0  0  2  0  0  0  0  0  0  0  0  0
  148.0406  132.0618  152.6720 H   0  0  0  0  0  0  0  0  0  0  0  0
  147.6021  133.6012  153.4092 H   0  0  0  0  0  0  0  0  0  0  0  0
  148.5318  133.5706  151.9027 H   0  0  0  0  0  0  0  0  0  0  0  0
  146.3007  130.9492  151.5204 H   0  0  0  0  0  0  0  0  0  0  0  0
  144.1771  131.0029  150.2016 H   0  0  0  0  0  0  0  0  0  0  0  0
  143.1838  133.2346  149.6319 H   0  0  0  0  0  0  0  0  0  0  0  0
  147.4359  135.5888  151.4301 H   0  0  0  0  0  0  0  0  0  0  0  0
  147.8735  137.4156  152.3029 H   0  0  0  0  0  0  0  0  0  0  0  0
  145.7518  138.7296  153.9134 H   0  0  0  0  0  0  0  0  0  0  0  0
  147.0329  139.8237  151.4593 H   0  0  0  0  0  0  0  0  0  0  0  0
  145.5331  140.3223  152.2322 H   0  0  0  0  0  0  0  0  0  0  0  0
  147.7569  141.8867  152.4291 H   0  0  0  0  0  0  0  0  0  0  0  0
  146.7326  141.6615  153.8570 H   0  0  0  0  0  0  0  0  0  0  0  0
  149.6513  142.0370  154.3631 H   0  0  0  0  0  0  0  0  0  0  0  0
  148.6377  141.4216  155.6601 H   0  0  0  0  0  0  0  0  0  0  0  0
  151.0824  140.0513  154.4090 H   0  0  0  0  0  0  0  0  0  0  0  0
  150.9816  140.6684  156.0383 H   0  0  0  0  0  0  0  0  0  0  0  0
  150.7287  138.1490  155.9096 H   0  0  0  0  0  0  0  0  0  0  0  0
  149.3674  138.9326  156.6708 H   0  0  0  0  0  0  0  0  0  0  0  0
  149.4767  137.9022  153.7892 H   0  0  0  0  0  0  0  0  0  0  0  0
  148.5067  137.2596  155.1007 H   0  0  0  0  0  0  0  0  0  0  0  0
  147.3145  139.4534  155.2899 H   0  0  0  0  0  0  0  0  0  0  0  0
  149.0523  140.1059  153.0835 H   0  0  0  0  0  0  0  0  0  0  0  0
  1  2  1  0  0  0  0
  1 21  1  0  0  0  0
  1 22  1  0  0  0  0
  1 23  1  0  0  0  0
  2  7  1  0  0  0  0
  2  3  2  0  0  0  0
  3  4  1  0  0  0  0
  3 24  1  0  0  0  0
  4  5  2  0  0  0  0
  4 25  1  0  0  0  0
  5  6  1  0  0  0  0
  5 26  1  0  0  0  0
  6  7  2  0  0  0  0
  7  8  1  0  0  0  0
  8  9  1  0  0  0  0
  8 27  1  0  0  0  0
  9 10  2  0  0  0  0
  9 11  1  0  0  0  0
 11 12  1  0  0  0  0
 11 28  1  0  0  0  0
 12 20  1  0  0  0  0
 12 13  1  0  0  0  0
 12 29  1  0  0  0  0
 13 14  1  0  0  0  0
 13 30  1  0  0  0  0
 13 31  1  0  0  0  0
 14 15  1  0  0  0  0
 14 32  1  0  0  0  0
 14 33  1  0  0  0  0
 15 20  1  0  0  0  0
 15 16  1  0  0  0  0
 15 43  1  0  0  0  0
 16 17  1  0  0  0  0
 16 34  1  0  0  0  0
 16 35  1  0  0  0  0
 17 18  1  0  0  0  0
 17 36  1  0  0  0  0
 17 37  1  0  0  0  0
 18 19  1  0  0  0  0
 18 38  1  0  0  0  0
 18 39  1  0  0  0  0
 19 20  1  0  0  0  0
 19 40  1  0  0  0  0
 19 41  1  0  0  0  0
 20 42  1  0  0  0  0
M  CHG  1  15   1
M  END
> <s_m_source_file>
AV-unprocessed.smi

> <i_m_source_file_index>
1709

> <i_lp_mmshare_version>
43012

> <i_f3d_flags>
0

> <s_epik_input>
W0NIM11jMVtjSF1bY0hdW2NIXW5jMVtOSF1DKD1PKVtOSF1bQ0BIXShbQ0gyXVtDSDJdMilbQ0BASF0oTjIzKVtDSDJdW0NIMl1bQ0gyXVtDSDJdMw==

> <s_epik_cmdline>
J2VwaWtfcHl0aG9uJywgJy1waCcsICc3LjAnLCAnLXRuJywgJzgnLCAnLW1hJywgJzIwMCcsICctbWV0YWxfYmluZGluZycsICctaW1hZScsICc8aW5maWxlLm1hZT4nLCAnLW9tYWUnLCAnPG91dGZpbGUubWFlPic=

> <r_epik_Ionization_Penalty>
0.00101524

> <r_epik_Ionization_Penalty_Charging>
0.000974069

> <r_epik_Ionization_Penalty_Neutral>
4.11757e-05

> <r_epik_State_Penalty>
0.000633842

> <r_epik_Charging_Adjusted_Penalty>
0.00160791

> <i_epik_Tot_Q>
1

> <i_epik_Tot_abs_Q>
1

> <r_epik_Metal_State_Penalty>
-0

> <b_epik_Metal_Only>
0

> <s_lp_Force_Field>
OPLS_2005

> <r_lp_Energy>
46.0593

> <b_lp_Chiralities_Consistent>
1

> <s_lp_Variant>
AV-unprocessed.smi:1709-5

> <Gold.Version>
5.8.1

> <Gold.Id.Protein>
6NUR|6NUR_protein|mol2

> <Gold.PLP.Fitness>
41.7227

> <Gold.PLP.PLP>
-31.6564

> <Gold.PLP.part.hbond>
-3.0000

> <Gold.PLP.part.metal>
0.0000

> <Gold.PLP.part.buried>
-2.0719

> <Gold.PLP.part.nonpolar>
-28.2979

> <Gold.PLP.part.repulsive>
0.6150

> <Gold.PLP.ligand.clash>
0.0000

> <Gold.PLP.ligand.torsion>
0.6792

> <Gold.PLP.Chemscore.Hbond>
2.8080

> <Gold.PLP.Chemscore.CHOScore>
1.0000

> <Gold.PLP.Chemscore.Metal>
0.0000

> <Gold.Chemscore.Hbonds>
donor molecule, donor type, donor heavy atom, donor atom, acceptor molecule, acceptor atom, score
      L1  H     8    27       P1  7948  0.91
      L1  H    11    28       P1  7948  0.90
      L1  H    15    43       P1  7957  1.00
      L1  C     5    26       P1 10186  1.00

> <Gold.PLP.Chemscore.Internal.Correction>
0.0006

> <Gold.Rescore>
     Score         DG    S(hbond)    S(metal)    S(lipo)     H(rot)  DE(clash)    DE(int)     intcor
     19.69     -22.11       2.67        0.00      87.66       1.00       1.80       0.62       ----

> <Gold.Chemscore.Fitness>
19.6858

> <Gold.Chemscore.DG>
-22.1053

> <Gold.Chemscore.ZeroCoef>
-5.4800

> <Gold.Chemscore.Hbond>
2.6733

> <Gold.Chemscore.Metal>
0.0000

> <Gold.Chemscore.Lipo>
87.6622

> <Gold.Chemscore.Internal_Hbond>
0.0000

> <Gold.Chemscore.DEClash>
1.7991

> <Gold.Chemscore.DEInternal>
0.6203

> <Gold.Chemscore.Rot>
1.0000

> <Gold.Chemscore.Internal.Correction>
   9.000000E+99

> <Gold.Chemscore.Hbonds>
donor molecule, donor type, donor heavy atom, donor atom, acceptor molecule, acceptor atom, score
      L1  H     8    27       P1  7948  0.83
      L1  H    11    28       P1  7948  0.86
      L1  H    15    43       P1  7957  0.92

> <Gold.Chemscore.Hbond.Weighted>
-8.9288

> <Gold.Chemscore.Metal.Weighted>
-0.0000

> <Gold.Chemscore.Lipo.Weighted>
-10.2565

> <Gold.Chemscore.Internal_Hbond.Weighted>
0.0000

> <Gold.Chemscore.DEClash.Weighted>
1.7991

> <Gold.Chemscore.DEInternal.Weighted>
0.6203

> <Gold.Chemscore.Rot.Weighted>
2.5600

> <Gold.Chemscore.Internal.Correction.Weighted>
   9.000000E+99

> <Gold.Protein.RotatedTorsions>
[ 6907 6896 6895 6894 ] final  -36.01 input  -60.11 | X-H torsion
[ 7974 7965 7964 7962 ] final -117.47 input  175.53 | X-H torsion
[ 8008 7997 7996 7995 ] final  152.13 input   59.86 | X-H torsion
[ 10167 10162 10161 10158 ] final   27.45 input  -65.29 | X-H torsion
[ 10718 10713 10712 10709 ] final  102.65 input   66.30 | X-H torsion
[ 10763 10752 10751 10750 ] final   37.44 input  -60.55 | X-H torsion
[ 11005 11000 10999 10996 ] final   -5.89 input  -57.11 | X-H torsion

> <Gold.Protein.ActiveResidues>
 VAL166  LYS551  ARG553  GLY616  TRP617  ASP618  TYR619  PRO620  LYS621  CYS622 
 ASP623  PHE694  ASN695  SER759  ASP760  ASP761  ALA762  ILE779  LEU786  VAL792 
 PHE793  MET794  SER795  GLU796  ALA797  LYS798  CYS799  TRP800  GLU811  SER814 

> <Gold.Protein.RotatedAtoms>
  151.0326  134.9550  159.8118 H   0  0  0  0  0  0  0  0  0  0  0  0  # atno 6907 bound_to 6896
  152.5348  134.2761  159.9000 H   0  0  0  0  0  0  0  0  0  0  0  0  # atno 6908 bound_to 6896
  151.2771  133.4185  159.2658 H   0  0  0  0  0  0  0  0  0  0  0  0  # atno 6909 bound_to 6896
  145.0849  140.8451  143.4017 H   0  0  0  0  0  0  0  0  0  0  0  0  # atno 7974 bound_to 7965
  156.2643  140.2029  156.6284 H   0  0  0  0  0  0  0  0  0  0  0  0  # atno 8008 bound_to 7997
  154.6702  140.0551  157.0181 H   0  0  0  0  0  0  0  0  0  0  0  0  # atno 8009 bound_to 7997
  155.1148  140.3219  155.4515 H   0  0  0  0  0  0  0  0  0  0  0  0  # atno 8010 bound_to 7997
  140.4937  144.0425  150.6306 H   0  0  0  0  0  0  0  0  0  0  0  0  # atno 10167 bound_to 10162
  157.6796  131.0758  150.5436 H   0  0  0  0  0  0  0  0  0  0  0  0  # atno 10718 bound_to 10713
  153.0037  135.6277  154.2146 H   0  0  0  0  0  0  0  0  0  0  0  0  # atno 10763 bound_to 10752
  154.1889  135.2809  155.3030 H   0  0  0  0  0  0  0  0  0  0  0  0  # atno 10764 bound_to 10752
  154.5775  135.5657  153.7213 H   0  0  0  0  0  0  0  0  0  0  0  0  # atno 10765 bound_to 10752
  140.6960  133.9030  155.8650 H   0  0  0  0  0  0  0  0  0  0  0  0  # atno 11005 bound_to 11000
  145.1134  139.2742  143.5625 LP  0  0  0  0  0  0  0  0  0  0  0  0  # atno 17320 bound_to 7965
  146.3531  140.0737  142.8622 LP  0  0  0  0  0  0  0  0  0  0  0  0  # atno 17321 bound_to 7965
  140.3702  143.2859  152.0287 LP  0  0  0  0  0  0  0  0  0  0  0  0  # atno 17342 bound_to 10162
  139.4857  144.6236  151.7208 LP  0  0  0  0  0  0  0  0  0  0  0  0  # atno 17343 bound_to 10162
  156.5742  130.4287  149.6006 LP  0  0  0  0  0  0  0  0  0  0  0  0  # atno 17370 bound_to 10713
  156.2715  130.7019  151.1818 LP  0  0  0  0  0  0  0  0  0  0  0  0  # atno 17371 bound_to 10713
  141.0202  134.0899  157.4128 LP  0  0  0  0  0  0  0  0  0  0  0  0  # atno 17394 bound_to 11000
  139.8910  135.0115  156.6766 LP  0  0  0  0  0  0  0  0  0  0  0  0  # atno 17395 bound_to 11000

$$$$
