AV-unprocessed.smi:2644|AV-procd|sdf|10278|dock3
  -GOLD-   2272014293D 1   1.00000     0.00000
 Structure written by MMmdl.
 42 44  0  0  0  0  0  0  0  0  1 V2000
  147.3069  139.1922  153.2248 C   0  0  0  0  0  0  0  0  0  0  0  0
  147.7732  140.4629  153.6549 O   0  0  0  0  0  0  0  0  0  0  0  0
  148.9355  140.5092  154.3941 C   0  0  0  0  0  0  0  0  0  0  0  0
  149.1535  141.6611  155.1766 C   0  0  0  0  0  0  0  0  0  0  0  0
  150.3044  141.7792  155.9779 C   0  0  0  0  0  0  0  0  0  0  0  0
  151.2527  140.7407  156.0062 C   0  0  0  0  0  0  0  0  0  0  0  0
  151.0568  139.5825  155.2245 C   0  0  0  0  0  0  0  0  0  0  0  0
  152.0429  138.4219  155.2935 C   0  0  1  0  0  0  0  0  0  0  0  0
  153.3799  138.8349  155.0952 O   0  0  0  0  0  0  0  0  0  0  0  0
  151.9588  137.6518  156.6328 C   0  0  0  0  0  0  0  0  0  0  0  0
  153.0223  138.0377  157.5705 N   0  0  0  0  0  0  0  0  0  0  0  0
  152.8479  139.2864  158.1412 N   0  0  0  0  0  0  0  0  0  0  0  0
  153.6480  139.7221  159.0582 C   0  0  0  0  0  0  0  0  0  0  0  0
  153.3299  141.0173  159.6316 C   0  0  0  0  0  0  0  0  0  0  0  0
  153.6341  141.3162  160.9364 C   0  0  0  0  0  0  0  0  0  0  0  0
  153.2180  142.6354  161.2876 C   0  0  0  0  0  0  0  0  0  0  0  0
  152.6068  143.3095  160.2583 C   0  0  0  0  0  0  0  0  0  0  0  0
  152.0536  144.6940  160.2773 C   0  0  0  0  0  0  0  0  0  0  0  0
  152.5238  142.3311  158.8141 S   0  0  0  0  0  0  0  0  0  0  0  0
  154.7844  138.9056  159.4599 C   0  0  0  0  0  0  0  0  0  0  0  0
  154.9574  137.6938  158.8893 C   0  0  0  0  0  0  0  0  0  0  0  0
  154.0335  137.1761  157.8823 C   0  0  0  0  0  0  0  0  0  0  0  0
  154.1440  136.0606  157.3743 O   0  0  0  0  0  0  0  0  0  0  0  0
  149.9036  139.4744  154.4174 C   0  0  0  0  0  0  0  0  0  0  0  0
  146.3648  139.3160  152.6910 H   0  0  0  0  0  0  0  0  0  0  0  0
  147.1213  138.5285  154.0708 H   0  0  0  0  0  0  0  0  0  0  0  0
  148.0131  138.7191  152.5412 H   0  0  0  0  0  0  0  0  0  0  0  0
  148.4261  142.4595  155.1691 H   0  0  0  0  0  0  0  0  0  0  0  0
  150.4542  142.6635  156.5794 H   0  0  0  0  0  0  0  0  0  0  0  0
  152.1225  140.8305  156.6403 H   0  0  0  0  0  0  0  0  0  0  0  0
  151.8131  137.7336  154.4793 H   0  0  0  0  0  0  0  0  0  0  0  0
  153.5174  138.9661  154.1694 H   0  0  0  0  0  0  0  0  0  0  0  0
  150.9790  137.7977  157.0914 H   0  0  0  0  0  0  0  0  0  0  0  0
  152.0266  136.5794  156.4384 H   0  0  0  0  0  0  0  0  0  0  0  0
  154.1263  140.6748  161.6514 H   0  0  0  0  0  0  0  0  0  0  0  0
  153.3793  143.0410  162.2757 H   0  0  0  0  0  0  0  0  0  0  0  0
  152.2735  145.1923  161.2218 H   0  0  0  0  0  0  0  0  0  0  0  0
  150.9712  144.6790  160.1482 H   0  0  0  0  0  0  0  0  0  0  0  0
  152.4820  145.2932  159.4738 H   0  0  0  0  0  0  0  0  0  0  0  0
  155.4860  139.2502  160.2028 H   0  0  0  0  0  0  0  0  0  0  0  0
  155.7995  137.0866  159.1873 H   0  0  0  0  0  0  0  0  0  0  0  0
  149.7685  138.5717  153.8411 H   0  0  0  0  0  0  0  0  0  0  0  0
  1  2  1  0  0  0  0
  1 25  1  0  0  0  0
  1 26  1  0  0  0  0
  1 27  1  0  0  0  0
  2  3  1  0  0  0  0
  3 24  1  0  0  0  0
  3  4  2  0  0  0  0
  4  5  1  0  0  0  0
  4 28  1  0  0  0  0
  5  6  2  0  0  0  0
  5 29  1  0  0  0  0
  6  7  1  0  0  0  0
  6 30  1  0  0  0  0
  7  8  1  0  0  0  0
  7 24  2  0  0  0  0
  8  9  1  0  0  0  0
  8 10  1  0  0  0  0
  8 31  1  0  0  0  0
  9 32  1  0  0  0  0
 10 11  1  0  0  0  0
 10 33  1  0  0  0  0
 10 34  1  0  0  0  0
 11 22  1  0  0  0  0
 11 12  1  0  0  0  0
 12 13  2  0  0  0  0
 13 14  1  0  0  0  0
 13 20  1  0  0  0  0
 14 19  1  0  0  0  0
 14 15  2  0  0  0  0
 15 16  1  0  0  0  0
 15 35  1  0  0  0  0
 16 17  2  0  0  0  0
 16 36  1  0  0  0  0
 17 18  1  0  0  0  0
 17 19  1  0  0  0  0
 18 37  1  0  0  0  0
 18 38  1  0  0  0  0
 18 39  1  0  0  0  0
 20 21  2  0  0  0  0
 20 40  1  0  0  0  0
 21 22  1  0  0  0  0
 21 41  1  0  0  0  0
 22 23  2  0  0  0  0
 24 42  1  0  0  0  0
M  END
> <s_m_source_file>
AV-unprocessed.smi

> <i_m_source_file_index>
2644

> <i_lp_mmshare_version>
43012

> <i_f3d_flags>
0

> <s_epik_input>
W0NIM11PYzFbY0hdW2NIXVtjSF1jKFtjSF0xKVtDQEhdKFtPSF0pW0NIMl1uMm5jKFtjSF1bY0hdYzI9TyktYzNbY0hdW2NIXWMoczMpW0NIM10=

> <s_epik_cmdline>
J2VwaWtfcHl0aG9uJywgJy1waCcsICc3LjAnLCAnLXRuJywgJzgnLCAnLW1hJywgJzIwMCcsICctbWV0YWxfYmluZGluZycsICctaW1hZScsICc8aW5maWxlLm1hZT4nLCAnLW9tYWUnLCAnPG91dGZpbGUubWFlPic=

> <r_lp_tautomer_probability>
1

> <r_epik_Ionization_Penalty>
1.30631e-07

> <r_epik_Ionization_Penalty_Charging>
5.89185e-08

> <r_epik_Ionization_Penalty_Neutral>
7.1713e-08

> <r_epik_State_Penalty>
-0

> <r_epik_Charging_Adjusted_Penalty>
5.89185e-08

> <i_epik_Tot_Q>
0

> <i_epik_Tot_abs_Q>
0

> <r_epik_Metal_State_Penalty>
-0

> <b_epik_Metal_Only>
0

> <s_lp_Force_Field>
OPLS_2005

> <r_lp_Energy>
28.4714

> <b_lp_Chiralities_Consistent>
1

> <s_lp_Variant>
AV-unprocessed.smi:2644-2

> <Gold.Version>
5.8.1

> <Gold.Id.Protein>
6NUR|6NUR_protein|mol2

> <Gold.PLP.Fitness>
51.4144

> <Gold.PLP.PLP>
-48.3491

> <Gold.PLP.part.hbond>
-2.7685

> <Gold.PLP.part.metal>
0.0000

> <Gold.PLP.part.buried>
-3.4155

> <Gold.PLP.part.nonpolar>
-42.9756

> <Gold.PLP.part.repulsive>
0.3712

> <Gold.PLP.ligand.clash>
0.0000

> <Gold.PLP.ligand.torsion>
1.5368

> <Gold.PLP.Chemscore.Hbond>
1.9920

> <Gold.PLP.Chemscore.CHOScore>
0.0000

> <Gold.PLP.Chemscore.Metal>
0.0000

> <Gold.Chemscore.Hbonds>
donor molecule, donor type, donor heavy atom, donor atom, acceptor molecule, acceptor atom, score
      P1  H  7997  8008       L1     9  1.00
      P1  H 10752 10764       L1    23  0.76

> <Gold.PLP.Chemscore.Internal.Correction>
0.1628

> <Gold.Rescore>
     Score         DG    S(hbond)    S(metal)    S(lipo)     H(rot)  DE(clash)    DE(int)     intcor
     20.77     -23.26       1.90        0.00     140.91       1.98       0.19       2.29       ----

> <Gold.Chemscore.Fitness>
20.7749

> <Gold.Chemscore.DG>
-23.2592

> <Gold.Chemscore.ZeroCoef>
-5.4800

> <Gold.Chemscore.Hbond>
1.9029

> <Gold.Chemscore.Metal>
0.0000

> <Gold.Chemscore.Lipo>
140.9096

> <Gold.Chemscore.Internal_Hbond>
0.0000

> <Gold.Chemscore.DEClash>
0.1908

> <Gold.Chemscore.DEInternal>
2.2935

> <Gold.Chemscore.Rot>
1.9777

> <Gold.Chemscore.Internal.Correction>
   9.000000E+99

> <Gold.Chemscore.Hbonds>
donor molecule, donor type, donor heavy atom, donor atom, acceptor molecule, acceptor atom, score
      P1  H  7997  8008       L1     9  0.57
      P1  H 10752 10764       L1    23  0.75

> <Gold.Chemscore.Hbond.Weighted>
-6.3556

> <Gold.Chemscore.Metal.Weighted>
-0.0000

> <Gold.Chemscore.Lipo.Weighted>
-16.4864

> <Gold.Chemscore.Internal_Hbond.Weighted>
0.0000

> <Gold.Chemscore.DEClash.Weighted>
0.1908

> <Gold.Chemscore.DEInternal.Weighted>
2.2935

> <Gold.Chemscore.Rot.Weighted>
5.0629

> <Gold.Chemscore.Internal.Correction.Weighted>
   9.000000E+99

> <Gold.Protein.RotatedTorsions>
[ 6907 6896 6895 6894 ] final  114.06 input  -60.11 | X-H torsion
[ 7974 7965 7964 7962 ] final  115.78 input  175.53 | X-H torsion
[ 8008 7997 7996 7995 ] final  -24.50 input   59.86 | X-H torsion
[ 10167 10162 10161 10158 ] final  -30.96 input  -65.29 | X-H torsion
[ 10718 10713 10712 10709 ] final  -27.50 input   66.30 | X-H torsion
[ 10763 10752 10751 10750 ] final   33.46 input  -60.55 | X-H torsion
[ 11005 11000 10999 10996 ] final  117.02 input  -57.11 | X-H torsion

> <Gold.Protein.ActiveResidues>
 VAL166  LYS551  ARG553  GLY616  TRP617  ASP618  TYR619  PRO620  LYS621  CYS622 
 ASP623  PHE694  ASN695  SER759  ASP760  ASP761  ALA762  ILE779  LEU786  VAL792 
 PHE793  MET794  SER795  GLU796  ALA797  LYS798  CYS799  TRP800  GLU811  SER814 

> <Gold.Protein.RotatedAtoms>
  152.4824  133.8288  159.7092 H   0  0  0  0  0  0  0  0  0  0  0  0  # atno 6907 bound_to 6896
  150.8884  133.7266  159.2918 H   0  0  0  0  0  0  0  0  0  0  0  0  # atno 6908 bound_to 6896
  151.4747  135.1052  159.9813 H   0  0  0  0  0  0  0  0  0  0  0  0  # atno 6909 bound_to 6896
  145.1878  139.3016  143.4384 H   0  0  0  0  0  0  0  0  0  0  0  0  # atno 7974 bound_to 7965
  154.4526  140.1952  156.0474 H   0  0  0  0  0  0  0  0  0  0  0  0  # atno 8008 bound_to 7997
  156.0680  140.3288  155.7513 H   0  0  0  0  0  0  0  0  0  0  0  0  # atno 8009 bound_to 7997
  155.5309  140.0578  157.2880 H   0  0  0  0  0  0  0  0  0  0  0  0  # atno 8010 bound_to 7997
  140.7242  143.3808  151.1605 H   0  0  0  0  0  0  0  0  0  0  0  0  # atno 10167 bound_to 10162
  156.4373  130.4457  149.7076 H   0  0  0  0  0  0  0  0  0  0  0  0  # atno 10718 bound_to 10713
  153.0211  135.6386  154.1515 H   0  0  0  0  0  0  0  0  0  0  0  0  # atno 10763 bound_to 10752
  154.1250  135.2844  155.3201 H   0  0  0  0  0  0  0  0  0  0  0  0  # atno 10764 bound_to 10752
  154.6236  135.5516  153.7664 H   0  0  0  0  0  0  0  0  0  0  0  0  # atno 10765 bound_to 10752
  139.9060  134.9605  156.7287 H   0  0  0  0  0  0  0  0  0  0  0  0  # atno 11005 bound_to 11000
  146.3442  140.2080  142.8590 LP  0  0  0  0  0  0  0  0  0  0  0  0  # atno 17320 bound_to 7965
  145.0072  140.8683  143.5246 LP  0  0  0  0  0  0  0  0  0  0  0  0  # atno 17321 bound_to 7965
  139.7396  143.8945  152.3046 LP  0  0  0  0  0  0  0  0  0  0  0  0  # atno 17342 bound_to 10162
  139.8762  144.7042  150.8931 LP  0  0  0  0  0  0  0  0  0  0  0  0  # atno 17343 bound_to 10162
  156.3955  130.7648  151.2653 LP  0  0  0  0  0  0  0  0  0  0  0  0  # atno 17370 bound_to 10713
  157.7507  131.0255  150.3922 LP  0  0  0  0  0  0  0  0  0  0  0  0  # atno 17371 bound_to 10713
  140.6942  133.9363  155.7985 LP  0  0  0  0  0  0  0  0  0  0  0  0  # atno 17394 bound_to 11000
  141.0419  134.0609  157.3891 LP  0  0  0  0  0  0  0  0  0  0  0  0  # atno 17395 bound_to 11000

$$$$
