AV-unprocessed.smi:2725|AV-procd|sdf|10516|dock7
  -GOLD-   2272014553D 1   1.00000     0.00000
 Structure written by MMmdl.
 44 45  0  0  0  0  0  0  0  0  1 V2000
  150.3617  140.4598  154.4177 O   0  0  0  0  0  0  0  0  0  0  0  0
  150.6974  140.3897  155.5997 C   0  0  0  0  0  0  0  0  0  0  0  0
  150.5984  141.6199  156.5045 C   0  0  0  0  0  0  0  0  0  0  0  0
  151.6110  141.5832  157.6636 C   0  0  0  0  0  0  0  0  0  0  0  0
  151.5026  142.8030  158.5954 C   0  0  0  0  0  0  0  0  0  0  0  0
  151.8845  144.1357  157.9429 C   0  0  0  0  0  0  0  0  0  0  0  0
  152.2307  145.0733  159.1059 C   0  0  0  0  0  0  0  0  0  0  0  0
  152.5283  144.1731  160.3145 C   0  0  0  0  0  0  0  0  0  0  0  0
  152.4377  142.7320  159.8043 C   0  0  0  0  0  0  0  0  0  0  0  0
  151.1496  139.2655  156.1751 N   0  0  0  0  0  0  0  0  0  0  0  0
  151.2882  137.9672  155.5157 C   0  0  1  0  0  0  0  0  0  0  0  0
  152.4838  137.9904  154.5392 C   0  0  0  0  0  0  0  0  0  0  0  0
  152.3102  137.0337  153.5156 O   0  0  0  0  0  0  0  0  0  0  0  0
  151.4615  136.8675  156.5852 C   0  0  0  0  0  0  0  0  0  0  0  0
  150.8743  135.5236  156.1833 C   0  0  0  0  0  0  0  0  0  0  0  0
  150.2645  135.3493  154.9219 C   0  0  0  0  0  0  0  0  0  0  0  0
  149.7436  134.0819  154.5977 C   0  0  0  0  0  0  0  0  0  0  0  0
  149.8499  133.0430  155.5422 C   0  0  0  0  0  0  0  0  0  0  0  0
  150.4763  133.3189  156.7740 C   0  0  0  0  0  0  0  0  0  0  0  0
  150.9792  134.5306  157.0947 N   0  0  0  0  0  0  0  0  0  0  0  0
  150.7628  142.5038  155.8880 H   0  0  0  0  0  0  0  0  0  0  0  0
  149.5861  141.7023  156.9033 H   0  0  0  0  0  0  0  0  0  0  0  0
  151.4479  140.6776  158.2500 H   0  0  0  0  0  0  0  0  0  0  0  0
  152.6271  141.5125  157.2725 H   0  0  0  0  0  0  0  0  0  0  0  0
  150.4791  142.8802  158.9663 H   0  0  0  0  0  0  0  0  0  0  0  0
  152.7653  144.0013  157.3135 H   0  0  0  0  0  0  0  0  0  0  0  0
  151.0895  144.5360  157.3126 H   0  0  0  0  0  0  0  0  0  0  0  0
  153.0808  145.7092  158.8564 H   0  0  0  0  0  0  0  0  0  0  0  0
  151.3883  145.7290  159.3298 H   0  0  0  0  0  0  0  0  0  0  0  0
  153.5038  144.3832  160.7543 H   0  0  0  0  0  0  0  0  0  0  0  0
  151.7787  144.3407  161.0887 H   0  0  0  0  0  0  0  0  0  0  0  0
  152.0818  142.0414  160.5695 H   0  0  0  0  0  0  0  0  0  0  0  0
  153.4271  142.3955  159.4907 H   0  0  0  0  0  0  0  0  0  0  0  0
  151.3992  139.3060  157.1524 H   0  0  0  0  0  0  0  0  0  0  0  0
  150.3712  137.7338  154.9702 H   0  0  0  0  0  0  0  0  0  0  0  0
  152.6383  138.9801  154.1078 H   0  0  0  0  0  0  0  0  0  0  0  0
  153.4057  137.7279  155.0595 H   0  0  0  0  0  0  0  0  0  0  0  0
  151.6793  137.3658  152.8955 H   0  0  0  0  0  0  0  0  0  0  0  0
  152.5207  136.7311  156.8078 H   0  0  0  0  0  0  0  0  0  0  0  0
  150.9975  137.1867  157.5196 H   0  0  0  0  0  0  0  0  0  0  0  0
  150.1999  136.1645  154.2166 H   0  0  0  0  0  0  0  0  0  0  0  0
  149.2713  133.9099  153.6417 H   0  0  0  0  0  0  0  0  0  0  0  0
  149.4612  132.0584  155.3280 H   0  0  0  0  0  0  0  0  0  0  0  0
  150.5752  132.5460  157.5218 H   0  0  0  0  0  0  0  0  0  0  0  0
  1  2  2  0  0  0  0
  2  3  1  0  0  0  0
  2 10  1  0  0  0  0
  3  4  1  0  0  0  0
  3 21  1  0  0  0  0
  3 22  1  0  0  0  0
  4  5  1  0  0  0  0
  4 23  1  0  0  0  0
  4 24  1  0  0  0  0
  5  9  1  0  0  0  0
  5  6  1  0  0  0  0
  5 25  1  0  0  0  0
  6  7  1  0  0  0  0
  6 26  1  0  0  0  0
  6 27  1  0  0  0  0
  7  8  1  0  0  0  0
  7 28  1  0  0  0  0
  7 29  1  0  0  0  0
  8  9  1  0  0  0  0
  8 30  1  0  0  0  0
  8 31  1  0  0  0  0
  9 32  1  0  0  0  0
  9 33  1  0  0  0  0
 10 11  1  0  0  0  0
 10 34  1  0  0  0  0
 11 12  1  0  0  0  0
 11 14  1  0  0  0  0
 11 35  1  0  0  0  0
 12 13  1  0  0  0  0
 12 36  1  0  0  0  0
 12 37  1  0  0  0  0
 13 38  1  0  0  0  0
 14 15  1  0  0  0  0
 14 39  1  0  0  0  0
 14 40  1  0  0  0  0
 15 20  1  0  0  0  0
 15 16  2  0  0  0  0
 16 17  1  0  0  0  0
 16 41  1  0  0  0  0
 17 18  2  0  0  0  0
 17 42  1  0  0  0  0
 18 19  1  0  0  0  0
 18 43  1  0  0  0  0
 19 20  2  0  0  0  0
 19 44  1  0  0  0  0
M  END
> <s_m_source_file>
AV-unprocessed.smi

> <i_m_source_file_index>
2725

> <i_lp_mmshare_version>
43012

> <i_f3d_flags>
0

> <s_epik_input>
W0NIMl0xW0NIMl1bQ0gyXVtDSDJdW0NIXTFbQ0gyXVtDSDJdQyg9TylbTkhdW0NASF0oW0NIMl1bT0hdKVtDSDJdYzJbY0hdW2NIXVtjSF1bY0hdbjI=

> <s_epik_cmdline>
J2VwaWtfcHl0aG9uJywgJy1waCcsICc3LjAnLCAnLXRuJywgJzgnLCAnLW1hJywgJzIwMCcsICctbWV0YWxfYmluZGluZycsICctaW1hZScsICc8aW5maWxlLm1hZT4nLCAnLW9tYWUnLCAnPG91dGZpbGUubWFlPic=

> <r_epik_Ionization_Penalty>
0.0257016

> <r_epik_Ionization_Penalty_Charging>
0

> <r_epik_Ionization_Penalty_Neutral>
0.0257016

> <r_epik_State_Penalty>
0.0209381

> <r_epik_Charging_Adjusted_Penalty>
0.0209381

> <i_epik_Tot_Q>
0

> <i_epik_Tot_abs_Q>
0

> <r_epik_Metal_State_Penalty>
0.0200649

> <b_epik_Metal_Only>
0

> <s_lp_Force_Field>
OPLS_2005

> <r_lp_Energy>
24.1231

> <b_lp_Chiralities_Consistent>
1

> <s_lp_Variant>
AV-unprocessed.smi:2725-2

> <Gold.Version>
5.8.1

> <Gold.Id.Protein>
6NUR|6NUR_protein|mol2

> <Gold.PLP.Fitness>
48.4866

> <Gold.PLP.PLP>
-43.9637

> <Gold.PLP.part.hbond>
-3.9700

> <Gold.PLP.part.metal>
0.0000

> <Gold.PLP.part.buried>
-3.8542

> <Gold.PLP.part.nonpolar>
-36.1368

> <Gold.PLP.part.repulsive>
0.1971

> <Gold.PLP.ligand.clash>
0.0000

> <Gold.PLP.ligand.torsion>
1.2140

> <Gold.PLP.Chemscore.Hbond>
2.2870

> <Gold.PLP.Chemscore.CHOScore>
0.0000

> <Gold.PLP.Chemscore.Metal>
0.0000

> <Gold.Chemscore.Hbonds>
donor molecule, donor type, donor heavy atom, donor atom, acceptor molecule, acceptor atom, score
      L1  H    13    38       P1  7949  0.26
      P1  H  6896  6909       L1    20  0.06
      P1  H  7989  7998       L1     1  0.98
      P1  H 10752 10764       L1    13  1.00

> <Gold.PLP.Chemscore.Internal.Correction>
0.0899

> <Gold.Rescore>
     Score         DG    S(hbond)    S(metal)    S(lipo)     H(rot)  DE(clash)    DE(int)     intcor
     16.72     -19.39       1.84        0.00     119.91       2.44       0.45       2.23       ----

> <Gold.Chemscore.Fitness>
16.7172

> <Gold.Chemscore.DG>
-19.3949

> <Gold.Chemscore.ZeroCoef>
-5.4800

> <Gold.Chemscore.Hbond>
1.8370

> <Gold.Chemscore.Metal>
0.0000

> <Gold.Chemscore.Lipo>
119.9133

> <Gold.Chemscore.Internal_Hbond>
0.0000

> <Gold.Chemscore.DEClash>
0.4467

> <Gold.Chemscore.DEInternal>
2.2310

> <Gold.Chemscore.Rot>
2.4416

> <Gold.Chemscore.Internal.Correction>
   9.000000E+99

> <Gold.Chemscore.Hbonds>
donor molecule, donor type, donor heavy atom, donor atom, acceptor molecule, acceptor atom, score
      L1  H    13    38       P1  7949  0.24
      P1  H  7989  7998       L1     1  0.72
      P1  H 10752 10764       L1    13  0.66

> <Gold.Chemscore.Hbond.Weighted>
-6.1356

> <Gold.Chemscore.Metal.Weighted>
-0.0000

> <Gold.Chemscore.Lipo.Weighted>
-14.0299

> <Gold.Chemscore.Internal_Hbond.Weighted>
0.0000

> <Gold.Chemscore.DEClash.Weighted>
0.4467

> <Gold.Chemscore.DEInternal.Weighted>
2.2310

> <Gold.Chemscore.Rot.Weighted>
6.2505

> <Gold.Chemscore.Internal.Correction.Weighted>
   9.000000E+99

> <Gold.Protein.RotatedTorsions>
[ 6907 6896 6895 6894 ] final   13.14 input  -60.11 | X-H torsion
[ 7974 7965 7964 7962 ] final   96.19 input  175.53 | X-H torsion
[ 8008 7997 7996 7995 ] final  145.33 input   59.86 | X-H torsion
[ 10167 10162 10161 10158 ] final  176.87 input  -65.29 | X-H torsion
[ 10718 10713 10712 10709 ] final  169.97 input   66.30 | X-H torsion
[ 10763 10752 10751 10750 ] final -103.35 input  -60.55 | X-H torsion
[ 11005 11000 10999 10996 ] final    5.26 input  -57.11 | X-H torsion

> <Gold.Protein.ActiveResidues>
 VAL166  LYS551  ARG553  GLY616  TRP617  ASP618  TYR619  PRO620  LYS621  CYS622 
 ASP623  PHE694  ASN695  SER759  ASP760  ASP761  ALA762  ILE779  LEU786  VAL792 
 PHE793  MET794  SER795  GLU796  ALA797  LYS798  CYS799  TRP800  GLU811  SER814 

> <Gold.Protein.RotatedAtoms>
  151.7815  135.0760  160.0374 H   0  0  0  0  0  0  0  0  0  0  0  0  # atno 6907 bound_to 6896
  152.3220  133.5859  159.5759 H   0  0  0  0  0  0  0  0  0  0  0  0  # atno 6908 bound_to 6896
  150.7375  133.9913  159.3650 H   0  0  0  0  0  0  0  0  0  0  0  0  # atno 6909 bound_to 6896
  145.4422  139.2300  143.3086 H   0  0  0  0  0  0  0  0  0  0  0  0  # atno 7974 bound_to 7965
  156.2886  140.2212  156.5197 H   0  0  0  0  0  0  0  0  0  0  0  0  # atno 8008 bound_to 7997
  154.7539  140.0478  157.0938 H   0  0  0  0  0  0  0  0  0  0  0  0  # atno 8009 bound_to 7997
  155.0076  140.3109  155.4846 H   0  0  0  0  0  0  0  0  0  0  0  0  # atno 8010 bound_to 7997
  139.5231  144.2864  152.0502 H   0  0  0  0  0  0  0  0  0  0  0  0  # atno 10167 bound_to 10162
  157.0149  131.0215  151.2792 H   0  0  0  0  0  0  0  0  0  0  0  0  # atno 10718 bound_to 10713
  154.7801  135.4826  153.9826 H   0  0  0  0  0  0  0  0  0  0  0  0  # atno 10763 bound_to 10752
  153.1482  135.6786  153.8929 H   0  0  0  0  0  0  0  0  0  0  0  0  # atno 10764 bound_to 10752
  153.8582  135.3158  155.3414 H   0  0  0  0  0  0  0  0  0  0  0  0  # atno 10765 bound_to 10752
  140.5727  134.0087  155.8015 H   0  0  0  0  0  0  0  0  0  0  0  0  # atno 11005 bound_to 11000
  146.2550  140.5171  142.8877 LP  0  0  0  0  0  0  0  0  0  0  0  0  # atno 17320 bound_to 7965
  144.8114  140.6393  143.6412 LP  0  0  0  0  0  0  0  0  0  0  0  0  # atno 17321 bound_to 7965
  140.2317  144.4361  150.6297 LP  0  0  0  0  0  0  0  0  0  0  0  0  # atno 17342 bound_to 10162
  140.6351  143.2193  151.6413 LP  0  0  0  0  0  0  0  0  0  0  0  0  # atno 17343 bound_to 10162
  157.5293  130.8048  149.7898 LP  0  0  0  0  0  0  0  0  0  0  0  0  # atno 17370 bound_to 10713
  156.0123  130.3828  150.2225 LP  0  0  0  0  0  0  0  0  0  0  0  0  # atno 17371 bound_to 10713
  141.1046  133.9714  157.3019 LP  0  0  0  0  0  0  0  0  0  0  0  0  # atno 17394 bound_to 11000
  139.9354  135.0197  156.8539 LP  0  0  0  0  0  0  0  0  0  0  0  0  # atno 17395 bound_to 11000

$$$$
