AV-unprocessed.smi:1410|AV-procd|sdf|5730|dock2
  -GOLD-   22720 5363D 1   1.00000     0.00000
 Structure written by MMmdl.
 40 41  0  0  0  0  0  0  0  0  2 V2000
  144.4909  138.0117  151.9159 N   0  0  0  0  0  0  0  0  0  0  0  0
  145.7330  137.7962  152.3547 C   0  0  0  0  0  0  0  0  0  0  0  0
  145.9736  137.0448  153.2981 O   0  0  0  0  0  0  0  0  0  0  0  0
  146.8643  138.5167  151.6135 C   0  0  0  0  0  0  0  0  0  0  0  0
  147.6259  139.4480  152.4850 N   0  3  2  0  0  0  0  0  0  0  0  0
  147.9838  138.8548  153.8014 C   0  0  0  0  0  0  0  0  0  0  0  0
  148.8945  139.7984  154.6037 C   0  0  0  0  0  0  0  0  0  0  0  0
  148.2357  141.1737  154.7962 C   0  0  1  0  0  0  0  0  0  0  0  0
  149.1574  142.0722  155.4855 N   0  0  0  0  0  0  0  0  0  0  0  0
  149.8659  141.7590  156.5801 C   0  0  0  0  0  0  0  0  0  0  0  0
  149.7995  140.6637  157.1376 O   0  0  0  0  0  0  0  0  0  0  0  0
  150.6224  142.7953  156.9820 N   0  0  0  0  0  0  0  0  0  0  0  0
  151.5312  142.8613  158.0730 C   0  0  0  0  0  0  0  0  0  0  0  0
  151.6558  141.7212  158.8936 C   0  0  0  0  0  0  0  0  0  0  0  0
  152.5366  141.7686  159.9926 C   0  0  0  0  0  0  0  0  0  0  0  0
  153.2664  142.8578  160.3118 N   0  0  0  0  0  0  0  0  0  0  0  0
  153.1351  143.9530  159.5338 C   0  0  0  0  0  0  0  0  0  0  0  0
  152.2842  144.0112  158.4119 C   0  0  0  0  0  0  0  0  0  0  0  0
  147.8301  141.7479  153.4260 C   0  0  0  0  0  0  0  0  0  0  0  0
  146.9480  140.7593  152.6454 C   0  0  0  0  0  0  0  0  0  0  0  0
  143.7132  137.5564  152.3726 H   0  0  0  0  0  0  0  0  0  0  0  0
  144.3276  138.6250  151.1303 H   0  0  0  0  0  0  0  0  0  0  0  0
  147.5309  137.7407  151.2349 H   0  0  0  0  0  0  0  0  0  0  0  0
  146.4771  139.0495  150.7432 H   0  0  0  0  0  0  0  0  0  0  0  0
  147.0741  138.6427  154.3654 H   0  0  0  0  0  0  0  0  0  0  0  0
  148.4948  137.9021  153.6599 H   0  0  0  0  0  0  0  0  0  0  0  0
  149.1220  139.3532  155.5733 H   0  0  0  0  0  0  0  0  0  0  0  0
  149.8470  139.9100  154.0831 H   0  0  0  0  0  0  0  0  0  0  0  0
  147.3405  141.0414  155.4073 H   0  0  0  0  0  0  0  0  0  0  0  0
  149.2685  142.9977  155.0974 H   0  0  0  0  0  0  0  0  0  0  0  0
  150.5016  143.6573  156.4708 H   0  0  0  0  0  0  0  0  0  0  0  0
  151.0936  140.8222  158.6870 H   0  0  0  0  0  0  0  0  0  0  0  0
  152.6559  140.9080  160.6341 H   0  0  0  0  0  0  0  0  0  0  0  0
  153.7219  144.8138  159.8179 H   0  0  0  0  0  0  0  0  0  0  0  0
  152.2191  144.9305  157.8508 H   0  0  0  0  0  0  0  0  0  0  0  0
  147.2961  142.6904  153.5537 H   0  0  0  0  0  0  0  0  0  0  0  0
  148.7223  141.9755  152.8407 H   0  0  0  0  0  0  0  0  0  0  0  0
  146.7234  141.1808  151.6649 H   0  0  0  0  0  0  0  0  0  0  0  0
  145.9947  140.6178  153.1570 H   0  0  0  0  0  0  0  0  0  0  0  0
  148.4929  139.6343  152.0005 H   0  0  0  0  0  0  0  0  0  0  0  0
  1  2  1  0  0  0  0
  1 21  1  0  0  0  0
  1 22  1  0  0  0  0
  2  3  2  0  0  0  0
  2  4  1  0  0  0  0
  4  5  1  0  0  0  0
  4 23  1  0  0  0  0
  4 24  1  0  0  0  0
  5 20  1  0  0  0  0
  5  6  1  0  0  0  0
  5 40  1  0  0  0  0
  6  7  1  0  0  0  0
  6 25  1  0  0  0  0
  6 26  1  0  0  0  0
  7  8  1  0  0  0  0
  7 27  1  0  0  0  0
  7 28  1  0  0  0  0
  8  9  1  0  0  0  0
  8 19  1  0  0  0  0
  8 29  1  0  0  0  0
  9 10  1  0  0  0  0
  9 30  1  0  0  0  0
 10 11  2  0  0  0  0
 10 12  1  0  0  0  0
 12 13  1  0  0  0  0
 12 31  1  0  0  0  0
 13 18  1  0  0  0  0
 13 14  2  0  0  0  0
 14 15  1  0  0  0  0
 14 32  1  0  0  0  0
 15 16  2  0  0  0  0
 15 33  1  0  0  0  0
 16 17  1  0  0  0  0
 17 18  2  0  0  0  0
 17 34  1  0  0  0  0
 18 35  1  0  0  0  0
 19 20  1  0  0  0  0
 19 36  1  0  0  0  0
 19 37  1  0  0  0  0
 20 38  1  0  0  0  0
 20 39  1  0  0  0  0
M  CHG  1   5   1
M  END
> <s_m_source_file>
AV-unprocessed.smi

> <i_m_source_file_index>
1410

> <i_lp_mmshare_version>
43012

> <i_f3d_flags>
0

> <s_epik_input>
W05IMl1DKD1PKVtDSDJdTjFbQ0gyXVtDSDJdW0NIXShbQ0gyXVtDSDJdMSlbTkhdQyg9TylbTkhdYzJbY0hdW2NIXW5bY0hdW2NIXTI=

> <s_epik_cmdline>
J2VwaWtfcHl0aG9uJywgJy1waCcsICc3LjAnLCAnLXRuJywgJzgnLCAnLW1hJywgJzIwMCcsICctbWV0YWxfYmluZGluZycsICctaW1hZScsICc8aW5maWxlLm1hZT4nLCAnLW9tYWUnLCAnPG91dGZpbGUubWFlPic=

> <r_epik_Ionization_Penalty>
0.938358

> <r_epik_Ionization_Penalty_Charging>
0.838844

> <r_epik_Ionization_Penalty_Neutral>
0.0995144

> <r_epik_State_Penalty>
0.957795

> <r_epik_Charging_Adjusted_Penalty>
1.79664

> <i_epik_Tot_Q>
1

> <i_epik_Tot_abs_Q>
1

> <r_epik_Metal_State_Penalty>
0.97276

> <b_epik_Metal_Only>
0

> <s_lp_Force_Field>
OPLS_2005

> <r_lp_Energy>
17.3232

> <b_lp_Chiralities_Consistent>
1

> <s_lp_Variant>
AV-unprocessed.smi:1410-2

> <Gold.Version>
5.8.1

> <Gold.Id.Protein>
6NUR|6NUR_protein|mol2

> <Gold.PLP.Fitness>
48.5736

> <Gold.PLP.PLP>
-37.4956

> <Gold.PLP.part.hbond>
-4.8402

> <Gold.PLP.part.metal>
0.0000

> <Gold.PLP.part.buried>
-4.1144

> <Gold.PLP.part.nonpolar>
-29.2145

> <Gold.PLP.part.repulsive>
0.4218

> <Gold.PLP.ligand.clash>
0.0000

> <Gold.PLP.ligand.torsion>
0.3026

> <Gold.PLP.Chemscore.Hbond>
3.8880

> <Gold.PLP.Chemscore.CHOScore>
0.0000

> <Gold.PLP.Chemscore.Metal>
0.0000

> <Gold.Chemscore.Hbonds>
donor molecule, donor type, donor heavy atom, donor atom, acceptor molecule, acceptor atom, score
      L1  H     1    22       P1 10171  0.53
      L1  H     5    40       P1  7957  0.76
      L1  H     9    30       P1  8028  0.72
      L1  H    12    31       P1  8028  0.63

> <Gold.PLP.Chemscore.Internal.Correction>
0.0190

> <Gold.Rescore>
     Score         DG    S(hbond)    S(metal)    S(lipo)     H(rot)  DE(clash)    DE(int)     intcor
     19.42     -24.66       3.88        0.00      96.05       1.96       0.95       4.29       ----

> <Gold.Chemscore.Fitness>
19.4167

> <Gold.Chemscore.DG>
-24.6554

> <Gold.Chemscore.ZeroCoef>
-5.4800

> <Gold.Chemscore.Hbond>
3.8822

> <Gold.Chemscore.Metal>
0.0000

> <Gold.Chemscore.Lipo>
96.0457

> <Gold.Chemscore.Internal_Hbond>
0.0000

> <Gold.Chemscore.DEClash>
0.9504

> <Gold.Chemscore.DEInternal>
4.2884

> <Gold.Chemscore.Rot>
1.9642

> <Gold.Chemscore.Internal.Correction>
   9.000000E+99

> <Gold.Chemscore.Hbonds>
donor molecule, donor type, donor heavy atom, donor atom, acceptor molecule, acceptor atom, score
      L1  H     1    22       P1 10171  0.52
      L1  H     5    40       P1  7957  0.77
      L1  H     9    30       P1  8028  0.72
      L1  H    12    31       P1  8028  0.62

> <Gold.Chemscore.Hbond.Weighted>
-12.9664

> <Gold.Chemscore.Metal.Weighted>
-0.0000

> <Gold.Chemscore.Lipo.Weighted>
-11.2373

> <Gold.Chemscore.Internal_Hbond.Weighted>
0.0000

> <Gold.Chemscore.DEClash.Weighted>
0.9504

> <Gold.Chemscore.DEInternal.Weighted>
4.2884

> <Gold.Chemscore.Rot.Weighted>
5.0283

> <Gold.Chemscore.Internal.Correction.Weighted>
   9.000000E+99

> <Gold.Protein.RotatedTorsions>
[ 6907 6896 6895 6894 ] final   -1.26 input  -60.11 | X-H torsion
[ 7974 7965 7964 7962 ] final  157.73 input  175.53 | X-H torsion
[ 8008 7997 7996 7995 ] final  -77.46 input   59.86 | X-H torsion
[ 10167 10162 10161 10158 ] final  -91.01 input  -65.29 | X-H torsion
[ 10718 10713 10712 10709 ] final  160.00 input   66.30 | X-H torsion
[ 10763 10752 10751 10750 ] final   92.64 input  -60.55 | X-H torsion
[ 11005 11000 10999 10996 ] final -131.17 input  -57.11 | X-H torsion

> <Gold.Protein.ActiveResidues>
 VAL166  LYS551  ARG553  GLY616  TRP617  ASP618  TYR619  PRO620  LYS621  CYS622 
 ASP623  PHE694  ASN695  SER759  ASP760  ASP761  ALA762  ILE779  LEU786  VAL792 
 PHE793  MET794  SER795  GLU796  ALA797  LYS798  CYS799  TRP800  GLU811  SER814 

> <Gold.Protein.RotatedAtoms>
  151.5489  135.1067  159.9944 H   0  0  0  0  0  0  0  0  0  0  0  0  # atno 6907 bound_to 6896
  152.4501  133.7608  159.6756 H   0  0  0  0  0  0  0  0  0  0  0  0  # atno 6908 bound_to 6896
  150.8427  133.7844  159.3079 H   0  0  0  0  0  0  0  0  0  0  0  0  # atno 6909 bound_to 6896
  144.7886  139.7380  143.6230 H   0  0  0  0  0  0  0  0  0  0  0  0  # atno 7974 bound_to 7965
  154.5598  140.0710  156.8801 H   0  0  0  0  0  0  0  0  0  0  0  0  # atno 8008 bound_to 7997
  155.2832  140.3373  155.4239 H   0  0  0  0  0  0  0  0  0  0  0  0  # atno 8009 bound_to 7997
  156.2033  140.1730  156.7839 H   0  0  0  0  0  0  0  0  0  0  0  0  # atno 8010 bound_to 7997
  140.3492  143.2900  151.9746 H   0  0  0  0  0  0  0  0  0  0  0  0  # atno 10167 bound_to 10162
  157.1564  131.0576  151.2254 H   0  0  0  0  0  0  0  0  0  0  0  0  # atno 10718 bound_to 10713
  153.2214  135.4354  155.0493 H   0  0  0  0  0  0  0  0  0  0  0  0  # atno 10763 bound_to 10752
  154.8252  135.3357  154.6922 H   0  0  0  0  0  0  0  0  0  0  0  0  # atno 10764 bound_to 10752
  153.7353  135.7008  153.5035 H   0  0  0  0  0  0  0  0  0  0  0  0  # atno 10765 bound_to 10752
  140.9282  134.1354  157.4257 H   0  0  0  0  0  0  0  0  0  0  0  0  # atno 11005 bound_to 11000
  146.2129  139.5498  142.9669 LP  0  0  0  0  0  0  0  0  0  0  0  0  # atno 17320 bound_to 7965
  145.5854  141.0377  143.2099 LP  0  0  0  0  0  0  0  0  0  0  0  0  # atno 17321 bound_to 7965
  139.4829  144.6091  151.7467 LP  0  0  0  0  0  0  0  0  0  0  0  0  # atno 17342 bound_to 10162
  140.5235  144.0842  150.6030 LP  0  0  0  0  0  0  0  0  0  0  0  0  # atno 17343 bound_to 10162
  157.4173  130.7418  149.6885 LP  0  0  0  0  0  0  0  0  0  0  0  0  # atno 17370 bound_to 10713
  155.9761  130.4079  150.3800 LP  0  0  0  0  0  0  0  0  0  0  0  0  # atno 17371 bound_to 10713
  139.8790  134.9996  156.5962 LP  0  0  0  0  0  0  0  0  0  0  0  0  # atno 17394 bound_to 11000
  140.7897  133.8592  155.8636 LP  0  0  0  0  0  0  0  0  0  0  0  0  # atno 17395 bound_to 11000

$$$$
