AV-unprocessed.smi:560|AV-procd|sdf|2933|dock2
  -GOLD-   2262023423D 1   1.00000     0.00000
 Structure written by MMmdl.
 41 42  0  0  0  0  0  0  0  0  3 V2000
  146.3245  129.0444  151.3892 C   0  0  0  0  0  0  0  0  0  0  0  0
  145.7682  130.3018  152.0872 C   0  0  1  0  0  0  0  0  0  0  0  0
  146.7718  130.9297  153.0672 C   0  0  0  0  0  0  0  0  0  0  0  0
  147.7886  130.3212  153.4036 O   0  0  0  0  0  0  0  0  0  0  0  0
  146.4699  132.1569  153.5211 N   0  0  0  0  0  0  0  0  0  0  0  0
  147.2846  132.9357  154.4484 C   0  0  2  0  0  0  0  0  0  0  0  0
  146.7199  134.3593  154.6126 C   0  0  0  0  0  0  0  0  0  0  0  0
  147.6331  135.2214  155.4990 C   0  0  0  0  0  0  0  0  0  0  0  0
  149.0162  135.2658  154.9549 N   0  3  1  0  0  0  0  0  0  0  0  0
  149.9069  136.2045  155.6844 C   0  0  0  0  0  0  0  0  0  0  0  0
  150.3799  137.3358  154.7641 C   0  0  0  0  0  0  0  0  0  0  0  0
  151.5553  137.0551  154.1656 N   0  5  0  0  0  0  0  0  0  0  0  0
  149.6968  138.3503  154.6477 O   0  0  0  0  0  0  0  0  0  0  0  0
  149.5999  133.9068  154.8315 C   0  0  0  0  0  0  0  0  0  0  0  0
  148.7312  133.0103  153.9333 C   0  0  0  0  0  0  0  0  0  0  0  0
  145.2989  131.2989  151.1323 N   0  0  0  0  0  0  0  0  0  0  0  0
  145.9604  131.7898  150.0248 C   0  0  0  0  0  0  0  0  0  0  0  0
  145.1272  132.6785  149.4085 C   0  0  0  0  0  0  0  0  0  0  0  0
  143.9552  132.6576  150.2142 C   0  0  0  0  0  0  0  0  0  0  0  0
  144.0572  131.8275  151.2389 N   0  0  0  0  0  0  0  0  0  0  0  0
  146.6184  128.2883  152.1181 H   0  0  0  0  0  0  0  0  0  0  0  0
  147.1974  129.2665  150.7740 H   0  0  0  0  0  0  0  0  0  0  0  0
  145.5707  128.5967  150.7408 H   0  0  0  0  0  0  0  0  0  0  0  0
  144.9016  129.9846  152.6700 H   0  0  0  0  0  0  0  0  0  0  0  0
  145.6150  132.5843  153.1953 H   0  0  0  0  0  0  0  0  0  0  0  0
  147.2915  132.4387  155.4206 H   0  0  0  0  0  0  0  0  0  0  0  0
  146.6146  134.8328  153.6353 H   0  0  0  0  0  0  0  0  0  0  0  0
  145.7202  134.3227  155.0470 H   0  0  0  0  0  0  0  0  0  0  0  0
  147.2191  136.2281  155.5624 H   0  0  0  0  0  0  0  0  0  0  0  0
  147.6528  134.8244  156.5150 H   0  0  0  0  0  0  0  0  0  0  0  0
  149.3990  136.6072  156.5625 H   0  0  0  0  0  0  0  0  0  0  0  0
  150.7929  135.6822  156.0493 H   0  0  0  0  0  0  0  0  0  0  0  0
  151.5618  136.8749  153.1542 H   0  0  0  0  0  0  0  0  0  0  0  0
  150.6014  133.9748  154.4052 H   0  0  0  0  0  0  0  0  0  0  0  0
  149.7052  133.4631  155.8229 H   0  0  0  0  0  0  0  0  0  0  0  0
  149.1633  132.0102  153.8837 H   0  0  0  0  0  0  0  0  0  0  0  0
  148.7435  133.4032  152.9153 H   0  0  0  0  0  0  0  0  0  0  0  0
  146.9601  131.4700  149.7701 H   0  0  0  0  0  0  0  0  0  0  0  0
  145.3232  133.2533  148.5157 H   0  0  0  0  0  0  0  0  0  0  0  0
  143.0386  133.2138  150.0836 H   0  0  0  0  0  0  0  0  0  0  0  0
  148.9536  135.6375  154.0169 H   0  0  0  0  0  0  0  0  0  0  0  0
  1  2  1  0  0  0  0
  1 21  1  0  0  0  0
  1 22  1  0  0  0  0
  1 23  1  0  0  0  0
  2  3  1  0  0  0  0
  2 16  1  0  0  0  0
  2 24  1  0  0  0  0
  3  4  2  0  0  0  0
  3  5  1  0  0  0  0
  5  6  1  0  0  0  0
  5 25  1  0  0  0  0
  6 15  1  0  0  0  0
  6  7  1  0  0  0  0
  6 26  1  0  0  0  0
  7  8  1  0  0  0  0
  7 27  1  0  0  0  0
  7 28  1  0  0  0  0
  8  9  1  0  0  0  0
  8 29  1  0  0  0  0
  8 30  1  0  0  0  0
  9 10  1  0  0  0  0
  9 14  1  0  0  0  0
  9 41  1  0  0  0  0
 10 11  1  0  0  0  0
 10 31  1  0  0  0  0
 10 32  1  0  0  0  0
 11 12  1  0  0  0  0
 11 13  2  0  0  0  0
 12 33  1  0  0  0  0
 14 15  1  0  0  0  0
 14 34  1  0  0  0  0
 14 35  1  0  0  0  0
 15 36  1  0  0  0  0
 15 37  1  0  0  0  0
 16 20  1  0  0  0  0
 16 17  1  0  0  0  0
 17 18  2  0  0  0  0
 17 38  1  0  0  0  0
 18 19  1  0  0  0  0
 18 39  1  0  0  0  0
 19 20  2  0  0  0  0
 19 40  1  0  0  0  0
M  CHG  1   9   1
M  CHG  1  12  -1
M  END
> <s_m_source_file>
AV-unprocessed.smi

> <i_m_source_file_index>
560

> <i_lp_mmshare_version>
43012

> <i_f3d_flags>
0

> <s_epik_input>
bjFbY0hdW2NIXVtjSF1uMVtDQEhdKFtDSDNdKUMoPU8pW05IXVtDSF0yW0NIMl1bQ0gyXU4oW0NIMl1bQ0gyXTIpW0NIMl1DKD1PKVtOSDJd

> <s_epik_cmdline>
J2VwaWtfcHl0aG9uJywgJy1waCcsICc3LjAnLCAnLXRuJywgJzgnLCAnLW1hJywgJzIwMCcsICctbWV0YWxfYmluZGluZycsICctaW1hZScsICc8aW5maWxlLm1hZT4nLCAnLW9tYWUnLCAnPG91dGZpbGUubWFlPic=

> <r_lp_tautomer_probability>
1

> <r_epik_Ionization_Penalty>
5.71084

> <r_epik_Ionization_Penalty_Charging>
5.71081

> <r_epik_Ionization_Penalty_Neutral>
3.04611e-05

> <r_epik_State_Penalty>
6.71277

> <r_epik_Charging_Adjusted_Penalty>
12.4236

> <i_epik_Tot_Q>
0

> <i_epik_Tot_abs_Q>
2

> <r_epik_Metal_State_Penalty>
2.67562

> <b_epik_Metal_Only>
1

> <s_lp_Force_Field>
OPLS_2005

> <r_lp_Energy>
10.2497

> <b_lp_Chiralities_Consistent>
1

> <s_lp_Variant>
AV-unprocessed.smi:560-8

> <Gold.Version>
5.8.1

> <Gold.Id.Protein>
6NUR|6NUR_protein|mol2

> <Gold.PLP.Fitness>
50.5884

> <Gold.PLP.PLP>
-33.1528

> <Gold.PLP.part.hbond>
-3.0000

> <Gold.PLP.part.metal>
0.0000

> <Gold.PLP.part.buried>
-3.7048

> <Gold.PLP.part.nonpolar>
-26.8669

> <Gold.PLP.part.repulsive>
0.5237

> <Gold.PLP.ligand.clash>
0.0000

> <Gold.PLP.ligand.torsion>
1.8484

> <Gold.PLP.Chemscore.Hbond>
5.0000

> <Gold.PLP.Chemscore.CHOScore>
2.0000

> <Gold.PLP.Chemscore.Metal>
0.0000

> <Gold.Chemscore.Hbonds>
donor molecule, donor type, donor heavy atom, donor atom, acceptor molecule, acceptor atom, score
      L1  H     9    41       P1  7948  1.07
      L1  H    12    33       P1  7949  1.00
      P1  H 10752 10764       L1    12  0.80
      L1  C    17    38       P1 10747  1.00
      L1  C    19    40       P1 10186  1.00

> <Gold.PLP.Chemscore.Internal.Correction>
0.1325

> <Gold.Rescore>
     Score         DG    S(hbond)    S(metal)    S(lipo)     H(rot)  DE(clash)    DE(int)     intcor
     11.86     -15.41       2.12        0.00      78.48       2.47       0.66       2.90       ----

> <Gold.Chemscore.Fitness>
11.8563

> <Gold.Chemscore.DG>
-15.4147

> <Gold.Chemscore.ZeroCoef>
-5.4800

> <Gold.Chemscore.Hbond>
2.1210

> <Gold.Chemscore.Metal>
0.0000

> <Gold.Chemscore.Lipo>
78.4802

> <Gold.Chemscore.Internal_Hbond>
0.0000

> <Gold.Chemscore.DEClash>
0.6584

> <Gold.Chemscore.DEInternal>
2.8999

> <Gold.Chemscore.Rot>
2.4734

> <Gold.Chemscore.Internal.Correction>
   9.000000E+99

> <Gold.Chemscore.Hbonds>
donor molecule, donor type, donor heavy atom, donor atom, acceptor molecule, acceptor atom, score
      L1  H     9    41       P1  7948  0.49
      L1  H    12    33       P1  7949  0.93
      P1  H 10752 10764       L1    12  0.01

> <Gold.Chemscore.Hbond.Weighted>
-7.0843

> <Gold.Chemscore.Metal.Weighted>
-0.0000

> <Gold.Chemscore.Lipo.Weighted>
-9.1822

> <Gold.Chemscore.Internal_Hbond.Weighted>
0.0000

> <Gold.Chemscore.DEClash.Weighted>
0.6584

> <Gold.Chemscore.DEInternal.Weighted>
2.8999

> <Gold.Chemscore.Rot.Weighted>
6.3318

> <Gold.Chemscore.Internal.Correction.Weighted>
   9.000000E+99

> <Gold.Protein.RotatedTorsions>
[ 6907 6896 6895 6894 ] final  128.91 input  -60.11 | X-H torsion
[ 7974 7965 7964 7962 ] final  102.52 input  175.53 | X-H torsion
[ 8008 7997 7996 7995 ] final   -1.44 input   59.86 | X-H torsion
[ 10167 10162 10161 10158 ] final  136.41 input  -65.29 | X-H torsion
[ 10718 10713 10712 10709 ] final   59.15 input   66.30 | X-H torsion
[ 10763 10752 10751 10750 ] final  -73.82 input  -60.55 | X-H torsion
[ 11005 11000 10999 10996 ] final  -95.53 input  -57.11 | X-H torsion

> <Gold.Protein.ActiveResidues>
 VAL166  LYS551  ARG553  GLY616  TRP617  ASP618  TYR619  PRO620  LYS621  CYS622 
 ASP623  PHE694  ASN695  SER759  ASP760  ASP761  ALA762  ILE779  LEU786  VAL792 
 PHE793  MET794  SER795  GLU796  ALA797  LYS798  CYS799  TRP800  GLU811  SER814 

> <Gold.Protein.RotatedAtoms>
  152.3674  133.6375  159.6060 H   0  0  0  0  0  0  0  0  0  0  0  0  # atno 6907 bound_to 6896
  150.7644  133.9325  159.3440 H   0  0  0  0  0  0  0  0  0  0  0  0  # atno 6908 bound_to 6896
  151.7154  135.0906  160.0326 H   0  0  0  0  0  0  0  0  0  0  0  0  # atno 6909 bound_to 6896
  145.3580  139.2424  143.3522 H   0  0  0  0  0  0  0  0  0  0  0  0  # atno 7974 bound_to 7965
  154.6467  140.2559  155.7260 H   0  0  0  0  0  0  0  0  0  0  0  0  # atno 8008 bound_to 7997
  156.2555  140.2876  156.0805 H   0  0  0  0  0  0  0  0  0  0  0  0  # atno 8009 bound_to 7997
  155.1513  140.0382  157.2812 H   0  0  0  0  0  0  0  0  0  0  0  0  # atno 8010 bound_to 7997
  139.5181  144.6466  151.5423 H   0  0  0  0  0  0  0  0  0  0  0  0  # atno 10167 bound_to 10162
  157.5653  130.8866  149.9177 H   0  0  0  0  0  0  0  0  0  0  0  0  # atno 10718 bound_to 10713
  154.4647  135.5885  153.6280 H   0  0  0  0  0  0  0  0  0  0  0  0  # atno 10763 bound_to 10752
  152.9827  135.6052  154.3442 H   0  0  0  0  0  0  0  0  0  0  0  0  # atno 10764 bound_to 10752
  154.3318  135.2842  155.2447 H   0  0  0  0  0  0  0  0  0  0  0  0  # atno 10765 bound_to 10752
  141.1439  133.8033  157.0447 H   0  0  0  0  0  0  0  0  0  0  0  0  # atno 11005 bound_to 11000
  146.2939  140.4209  142.8729 LP  0  0  0  0  0  0  0  0  0  0  0  0  # atno 17320 bound_to 7965
  144.8667  140.7216  143.6072 LP  0  0  0  0  0  0  0  0  0  0  0  0  # atno 17321 bound_to 7965
  140.6253  143.9180  150.6559 LP  0  0  0  0  0  0  0  0  0  0  0  0  # atno 17342 bound_to 10162
  140.2467  143.3623  152.1440 LP  0  0  0  0  0  0  0  0  0  0  0  0  # atno 17343 bound_to 10162
  156.0701  130.3686  150.0793 LP  0  0  0  0  0  0  0  0  0  0  0  0  # atno 17370 bound_to 10713
  156.8952  130.9602  151.3583 LP  0  0  0  0  0  0  0  0  0  0  0  0  # atno 17371 bound_to 10713
  140.0670  134.9723  157.1402 LP  0  0  0  0  0  0  0  0  0  0  0  0  # atno 17394 bound_to 11000
  140.3766  134.2333  155.7174 LP  0  0  0  0  0  0  0  0  0  0  0  0  # atno 17395 bound_to 11000

$$$$
