AV-unprocessed.smi:1100|AV-procd|sdf|4762|dock2
  -GOLD-   22720 3303D 1   1.00000     0.00000
 Structure written by MMmdl.
 44 45  0  0  0  0  0  0  0  0  2 V2000
  147.3169  140.7840  154.1050 C   0  0  0  0  0  0  0  0  0  0  0  0
  148.2141  139.7112  153.4393 C   0  0  1  0  0  0  0  0  0  0  0  0
  149.3588  139.3000  154.4071 C   0  0  0  0  0  0  0  0  0  0  0  0
  150.0473  140.4406  155.0058 N   0  0  0  0  0  0  0  0  0  0  0  0
  150.1534  140.6690  156.3227 C   0  0  0  0  0  0  0  0  0  0  0  0
  149.6539  139.9318  157.1723 O   0  0  0  0  0  0  0  0  0  0  0  0
  150.8662  141.7859  156.5615 N   0  0  0  0  0  0  0  0  0  0  0  0
  151.2649  142.3418  157.7867 C   0  0  0  0  0  0  0  0  0  0  0  0
  152.0588  141.5166  158.6724 C   0  0  0  0  0  0  0  0  0  0  0  0
  152.4700  141.9732  159.8713 C   0  0  0  0  0  0  0  0  0  0  0  0
  152.1334  143.3214  160.3342 C   0  0  0  0  0  0  0  0  0  0  0  0
  152.5071  143.7543  161.4248 O   0  0  0  0  0  0  0  0  0  0  0  0
  151.3773  144.0664  159.4771 N   0  0  0  0  0  0  0  0  0  0  0  0
  150.9808  145.4260  159.8531 C   0  0  0  0  0  0  0  0  0  0  0  0
  150.9518  143.5813  158.2251 C   0  0  0  0  0  0  0  0  0  0  0  0
  147.4472  138.5076  152.9756 N   0  3  0  0  0  0  0  0  0  0  0  0
  146.7763  137.7344  154.0584 C   0  0  0  0  0  0  0  0  0  0  0  0
  146.0283  136.5134  153.4959 C   0  0  0  0  0  0  0  0  0  0  0  0
  145.0902  136.9297  152.5158 O   0  0  0  0  0  0  0  0  0  0  0  0
  145.7329  137.5634  151.4207 C   0  0  0  0  0  0  0  0  0  0  0  0
  146.4557  138.8285  151.9114 C   0  0  0  0  0  0  0  0  0  0  0  0
  147.8972  141.6272  154.4786 H   0  0  0  0  0  0  0  0  0  0  0  0
  146.7624  140.3711  154.9482 H   0  0  0  0  0  0  0  0  0  0  0  0
  146.6029  141.2142  153.4028 H   0  0  0  0  0  0  0  0  0  0  0  0
  148.6518  140.1732  152.5528 H   0  0  0  0  0  0  0  0  0  0  0  0
  148.9542  138.6926  155.2172 H   0  0  0  0  0  0  0  0  0  0  0  0
  150.1139  138.6875  153.9165 H   0  0  0  0  0  0  0  0  0  0  0  0
  150.4818  141.0960  154.3725 H   0  0  0  0  0  0  0  0  0  0  0  0
  151.1713  142.3011  155.7487 H   0  0  0  0  0  0  0  0  0  0  0  0
  152.3297  140.5152  158.3711 H   0  0  0  0  0  0  0  0  0  0  0  0
  153.0611  141.3312  160.5078 H   0  0  0  0  0  0  0  0  0  0  0  0
  150.3373  145.9004  159.1115 H   0  0  0  0  0  0  0  0  0  0  0  0
  151.8603  146.0599  159.9741 H   0  0  0  0  0  0  0  0  0  0  0  0
  150.4331  145.4201  160.7967 H   0  0  0  0  0  0  0  0  0  0  0  0
  150.3551  144.2885  157.6720 H   0  0  0  0  0  0  0  0  0  0  0  0
  147.5024  137.3623  154.7801 H   0  0  0  0  0  0  0  0  0  0  0  0
  146.0831  138.3842  154.5950 H   0  0  0  0  0  0  0  0  0  0  0  0
  146.7264  135.7924  153.0672 H   0  0  0  0  0  0  0  0  0  0  0  0
  145.4951  136.0003  154.2967 H   0  0  0  0  0  0  0  0  0  0  0  0
  146.4301  136.8754  150.9393 H   0  0  0  0  0  0  0  0  0  0  0  0
  144.9811  137.8260  150.6762 H   0  0  0  0  0  0  0  0  0  0  0  0
  145.7263  139.5433  152.2963 H   0  0  0  0  0  0  0  0  0  0  0  0
  146.9308  139.2963  151.0519 H   0  0  0  0  0  0  0  0  0  0  0  0
  148.1246  137.8799  152.5664 H   0  0  0  0  0  0  0  0  0  0  0  0
  1  2  1  0  0  0  0
  1 22  1  0  0  0  0
  1 23  1  0  0  0  0
  1 24  1  0  0  0  0
  2  3  1  0  0  0  0
  2 16  1  0  0  0  0
  2 25  1  0  0  0  0
  3  4  1  0  0  0  0
  3 26  1  0  0  0  0
  3 27  1  0  0  0  0
  4  5  1  0  0  0  0
  4 28  1  0  0  0  0
  5  6  2  0  0  0  0
  5  7  1  0  0  0  0
  7  8  1  0  0  0  0
  7 29  1  0  0  0  0
  8 15  2  0  0  0  0
  8  9  1  0  0  0  0
  9 10  2  0  0  0  0
  9 30  1  0  0  0  0
 10 11  1  0  0  0  0
 10 31  1  0  0  0  0
 11 12  2  0  0  0  0
 11 13  1  0  0  0  0
 13 14  1  0  0  0  0
 13 15  1  0  0  0  0
 14 32  1  0  0  0  0
 14 33  1  0  0  0  0
 14 34  1  0  0  0  0
 15 35  1  0  0  0  0
 16 21  1  0  0  0  0
 16 17  1  0  0  0  0
 16 44  1  0  0  0  0
 17 18  1  0  0  0  0
 17 36  1  0  0  0  0
 17 37  1  0  0  0  0
 18 19  1  0  0  0  0
 18 38  1  0  0  0  0
 18 39  1  0  0  0  0
 19 20  1  0  0  0  0
 20 21  1  0  0  0  0
 20 40  1  0  0  0  0
 20 41  1  0  0  0  0
 21 42  1  0  0  0  0
 21 43  1  0  0  0  0
M  CHG  1  16   1
M  END
> <s_m_source_file>
AV-unprocessed.smi

> <i_m_source_file_index>
1100

> <i_lp_mmshare_version>
43012

> <i_f3d_flags>
0

> <s_epik_input>
W0NIMl0xW0NIMl1PW0NIMl1bQ0gyXU4xW0NASF0oW0NIM10pW0NIMl1bTkhdQyg9TylbTkhdYzJbY0hdW2NIXWMoPU8pbihbQ0gzXSlbY0hdMg==

> <s_epik_cmdline>
J2VwaWtfcHl0aG9uJywgJy1waCcsICc3LjAnLCAnLXRuJywgJzgnLCAnLW1hJywgJzIwMCcsICctbWV0YWxfYmluZGluZycsICctaW1hZScsICc8aW5maWxlLm1hZT4nLCAnLW9tYWUnLCAnPG91dGZpbGUubWFlPic=

> <r_lp_tautomer_probability>
1

> <r_epik_Ionization_Penalty>
0.602556

> <r_epik_Ionization_Penalty_Charging>
0.602536

> <r_epik_Ionization_Penalty_Neutral>
1.99507e-05

> <r_epik_State_Penalty>
0.617039

> <r_epik_Charging_Adjusted_Penalty>
1.21958

> <i_epik_Tot_Q>
1

> <i_epik_Tot_abs_Q>
1

> <r_epik_Metal_State_Penalty>
0.619464

> <b_epik_Metal_Only>
0

> <s_lp_Force_Field>
OPLS_2005

> <r_lp_Energy>
33.6123

> <b_lp_Chiralities_Consistent>
1

> <s_lp_Variant>
AV-unprocessed.smi:1100-4

> <Gold.Version>
5.8.1

> <Gold.Id.Protein>
6NUR|6NUR_protein|mol2

> <Gold.PLP.Fitness>
43.8401

> <Gold.PLP.PLP>
-36.3162

> <Gold.PLP.part.hbond>
-2.0000

> <Gold.PLP.part.metal>
0.0000

> <Gold.PLP.part.buried>
3.5464

> <Gold.PLP.part.nonpolar>
-39.8959

> <Gold.PLP.part.repulsive>
1.2809

> <Gold.PLP.ligand.clash>
0.0000

> <Gold.PLP.ligand.torsion>
0.6079

> <Gold.PLP.Chemscore.Hbond>
2.0000

> <Gold.PLP.Chemscore.CHOScore>
0.8937

> <Gold.PLP.Chemscore.Metal>
0.0000

> <Gold.Chemscore.Hbonds>
donor molecule, donor type, donor heavy atom, donor atom, acceptor molecule, acceptor atom, score
      L1  H    16    44       P1  7948  2.00
      L1  C    15    35       P1  8028  1.00

> <Gold.PLP.Chemscore.Internal.Correction>
0.0586

> <Gold.Rescore>
     Score         DG    S(hbond)    S(metal)    S(lipo)     H(rot)  DE(clash)    DE(int)     intcor
     12.01     -15.96       1.00        0.00      94.79       1.54       3.14       0.81       ----

> <Gold.Chemscore.Fitness>
12.0107

> <Gold.Chemscore.DG>
-15.9640

> <Gold.Chemscore.ZeroCoef>
-5.4800

> <Gold.Chemscore.Hbond>
0.9986

> <Gold.Chemscore.Metal>
0.0000

> <Gold.Chemscore.Lipo>
94.7928

> <Gold.Chemscore.Internal_Hbond>
0.0000

> <Gold.Chemscore.DEClash>
3.1402

> <Gold.Chemscore.DEInternal>
0.8131

> <Gold.Chemscore.Rot>
1.5398

> <Gold.Chemscore.Internal.Correction>
   9.000000E+99

> <Gold.Chemscore.Hbonds>
donor molecule, donor type, donor heavy atom, donor atom, acceptor molecule, acceptor atom, score
      L1  H    16    44       P1  7948  0.98

> <Gold.Chemscore.Hbond.Weighted>
-3.3352

> <Gold.Chemscore.Metal.Weighted>
-0.0000

> <Gold.Chemscore.Lipo.Weighted>
-11.0908

> <Gold.Chemscore.Internal_Hbond.Weighted>
0.0000

> <Gold.Chemscore.DEClash.Weighted>
3.1402

> <Gold.Chemscore.DEInternal.Weighted>
0.8131

> <Gold.Chemscore.Rot.Weighted>
3.9420

> <Gold.Chemscore.Internal.Correction.Weighted>
   9.000000E+99

> <Gold.Protein.RotatedTorsions>
[ 6907 6896 6895 6894 ] final  108.94 input  -60.11 | X-H torsion
[ 7974 7965 7964 7962 ] final   52.73 input  175.53 | X-H torsion
[ 8008 7997 7996 7995 ] final -152.13 input   59.86 | X-H torsion
[ 10167 10162 10161 10158 ] final  156.67 input  -65.29 | X-H torsion
[ 10718 10713 10712 10709 ] final   38.05 input   66.30 | X-H torsion
[ 10763 10752 10751 10750 ] final  -12.66 input  -60.55 | X-H torsion
[ 11005 11000 10999 10996 ] final  108.78 input  -57.11 | X-H torsion

> <Gold.Protein.ActiveResidues>
 VAL166  LYS551  ARG553  GLY616  TRP617  ASP618  TYR619  PRO620  LYS621  CYS622 
 ASP623  PHE694  ASN695  SER759  ASP760  ASP761  ALA762  ILE779  LEU786  VAL792 
 PHE793  MET794  SER795  GLU796  ALA797  LYS798  CYS799  TRP800  GLU811  SER814 

> <Gold.Protein.RotatedAtoms>
  152.5090  133.9016  159.7443 H   0  0  0  0  0  0  0  0  0  0  0  0  # atno 6907 bound_to 6896
  150.9431  133.6626  159.2793 H   0  0  0  0  0  0  0  0  0  0  0  0  # atno 6908 bound_to 6896
  151.3930  135.0964  159.9585 H   0  0  0  0  0  0  0  0  0  0  0  0  # atno 6909 bound_to 6896
  145.9783  139.4217  143.0147 H   0  0  0  0  0  0  0  0  0  0  0  0  # atno 7974 bound_to 7965
  155.6503  140.0711  157.2589 H   0  0  0  0  0  0  0  0  0  0  0  0  # atno 8008 bound_to 7997
  154.4164  140.1734  156.1717 H   0  0  0  0  0  0  0  0  0  0  0  0  # atno 8009 bound_to 7997
  155.9782  140.3356  155.6642 H   0  0  0  0  0  0  0  0  0  0  0  0  # atno 8010 bound_to 7997
  139.4821  144.4987  151.8200 H   0  0  0  0  0  0  0  0  0  0  0  0  # atno 10167 bound_to 10162
  157.3542  130.7614  149.7000 H   0  0  0  0  0  0  0  0  0  0  0  0  # atno 10718 bound_to 10713
  153.5018  135.7017  153.5828 H   0  0  0  0  0  0  0  0  0  0  0  0  # atno 10763 bound_to 10752
  153.3956  135.3885  155.1953 H   0  0  0  0  0  0  0  0  0  0  0  0  # atno 10764 bound_to 10752
  154.8710  135.3869  154.4489 H   0  0  0  0  0  0  0  0  0  0  0  0  # atno 10765 bound_to 10752
  139.8850  134.9440  156.6024 H   0  0  0  0  0  0  0  0  0  0  0  0  # atno 11005 bound_to 11000
  145.7806  140.9858  143.1101 LP  0  0  0  0  0  0  0  0  0  0  0  0  # atno 17320 bound_to 7965
  144.6855  139.9560  143.7479 LP  0  0  0  0  0  0  0  0  0  0  0  0  # atno 17321 bound_to 7965
  140.4479  144.1896  150.5895 LP  0  0  0  0  0  0  0  0  0  0  0  0  # atno 17342 bound_to 10162
  140.4616  143.2447  151.9212 LP  0  0  0  0  0  0  0  0  0  0  0  0  # atno 17343 bound_to 10162
  155.9726  130.4132  150.4070 LP  0  0  0  0  0  0  0  0  0  0  0  0  # atno 17370 bound_to 10713
  157.2138  131.0466  151.2585 LP  0  0  0  0  0  0  0  0  0  0  0  0  # atno 17371 bound_to 10713
  140.7873  133.8611  155.8617 LP  0  0  0  0  0  0  0  0  0  0  0  0  # atno 17394 bound_to 11000
  140.9708  134.1534  157.4578 LP  0  0  0  0  0  0  0  0  0  0  0  0  # atno 17395 bound_to 11000

$$$$
