AV-unprocessed.smi:300|AV-procd|sdf|2269|dock7
  -GOLD-   2262022163D 1   1.00000     0.00000
 Structure written by MMmdl.
 45 46  0  0  0  0  0  0  0  0  1 V2000
  147.2528  135.0364  163.0217 C   0  0  0  0  0  0  0  0  0  0  0  0
  147.4675  134.8084  161.6077 N   0  0  0  0  0  0  0  0  0  0  0  0
  147.3901  133.4865  161.1065 C   0  0  0  0  0  0  0  0  0  0  0  0
  147.1432  132.5172  161.8244 O   0  0  0  0  0  0  0  0  0  0  0  0
  147.6358  133.3695  159.6740 C   0  0  0  0  0  0  0  0  0  0  0  0
  147.9180  134.4589  158.9266 C   0  0  0  0  0  0  0  0  0  0  0  0
  147.9974  135.7391  159.4440 N   0  0  0  0  0  0  0  0  0  0  0  0
  148.3250  136.8636  158.5581 C   0  0  0  0  0  0  0  0  0  0  0  0
  149.7879  137.3145  158.6695 C   0  0  0  0  0  0  0  0  0  0  0  0
  150.4885  136.9565  159.6175 O   0  0  0  0  0  0  0  0  0  0  0  0
  150.2418  138.0883  157.6723 N   0  0  0  0  0  0  0  0  0  0  0  0
  151.5963  138.6176  157.5743 C   0  0  0  0  0  0  0  0  0  0  0  0
  151.6011  140.0583  157.0299 C   0  0  0  0  0  0  0  0  0  0  0  0
  151.7076  141.0408  158.1186 N   0  0  0  0  0  0  0  0  0  0  0  0
  150.6163  142.0239  158.2003 C   0  0  0  0  0  0  0  0  0  0  0  0
  151.0944  143.4660  157.9424 C   0  0  0  0  0  0  0  0  0  0  0  0
  151.7304  144.1421  159.1660 C   0  0  0  0  0  0  0  0  0  0  0  0
  153.0176  143.4694  159.6645 C   0  0  0  0  0  0  0  0  0  0  0  0
  152.8034  142.0209  160.1333 C   0  0  0  0  0  0  0  0  0  0  0  0
  152.7617  141.0227  158.9693 C   0  0  0  0  0  0  0  0  0  0  0  0
  153.6900  140.2205  158.8589 O   0  0  0  0  0  0  0  0  0  0  0  0
  147.7753  135.9416  160.8229 C   0  0  0  0  0  0  0  0  0  0  0  0
  147.8544  137.0706  161.3140 O   0  0  0  0  0  0  0  0  0  0  0  0
  146.8191  134.1580  163.4989 H   0  0  0  0  0  0  0  0  0  0  0  0
  146.5557  135.8701  163.1251 H   0  0  0  0  0  0  0  0  0  0  0  0
  148.2252  135.2727  163.4565 H   0  0  0  0  0  0  0  0  0  0  0  0
  147.5938  132.3969  159.2062 H   0  0  0  0  0  0  0  0  0  0  0  0
  148.0962  134.3182  157.8705 H   0  0  0  0  0  0  0  0  0  0  0  0
  148.1341  136.5866  157.5205 H   0  0  0  0  0  0  0  0  0  0  0  0
  147.6623  137.7063  158.7638 H   0  0  0  0  0  0  0  0  0  0  0  0
  149.6021  138.3305  156.9292 H   0  0  0  0  0  0  0  0  0  0  0  0
  152.0404  138.5869  158.5696 H   0  0  0  0  0  0  0  0  0  0  0  0
  152.2061  137.9679  156.9441 H   0  0  0  0  0  0  0  0  0  0  0  0
  152.4140  140.1864  156.3144 H   0  0  0  0  0  0  0  0  0  0  0  0
  150.6938  140.2374  156.4497 H   0  0  0  0  0  0  0  0  0  0  0  0
  149.8478  141.7960  157.4613 H   0  0  0  0  0  0  0  0  0  0  0  0
  150.1127  141.9480  159.1650 H   0  0  0  0  0  0  0  0  0  0  0  0
  151.7801  143.4913  157.0943 H   0  0  0  0  0  0  0  0  0  0  0  0
  150.2324  144.0634  157.6439 H   0  0  0  0  0  0  0  0  0  0  0  0
  151.9535  145.1797  158.9155 H   0  0  0  0  0  0  0  0  0  0  0  0
  151.0026  144.1817  159.9775 H   0  0  0  0  0  0  0  0  0  0  0  0
  153.7829  143.5091  158.8879 H   0  0  0  0  0  0  0  0  0  0  0  0
  153.4112  144.0515  160.4984 H   0  0  0  0  0  0  0  0  0  0  0  0
  153.6319  141.7391  160.7847 H   0  0  0  0  0  0  0  0  0  0  0  0
  151.9047  141.9312  160.7444 H   0  0  0  0  0  0  0  0  0  0  0  0
  1  2  1  0  0  0  0
  1 24  1  0  0  0  0
  1 25  1  0  0  0  0
  1 26  1  0  0  0  0
  2 22  1  0  0  0  0
  2  3  1  0  0  0  0
  3  4  2  0  0  0  0
  3  5  1  0  0  0  0
  5  6  2  0  0  0  0
  5 27  1  0  0  0  0
  6  7  1  0  0  0  0
  6 28  1  0  0  0  0
  7  8  1  0  0  0  0
  7 22  1  0  0  0  0
  8  9  1  0  0  0  0
  8 29  1  0  0  0  0
  8 30  1  0  0  0  0
  9 10  2  0  0  0  0
  9 11  1  0  0  0  0
 11 12  1  0  0  0  0
 11 31  1  0  0  0  0
 12 13  1  0  0  0  0
 12 32  1  0  0  0  0
 12 33  1  0  0  0  0
 13 14  1  0  0  0  0
 13 34  1  0  0  0  0
 13 35  1  0  0  0  0
 14 20  1  0  0  0  0
 14 15  1  0  0  0  0
 15 16  1  0  0  0  0
 15 36  1  0  0  0  0
 15 37  1  0  0  0  0
 16 17  1  0  0  0  0
 16 38  1  0  0  0  0
 16 39  1  0  0  0  0
 17 18  1  0  0  0  0
 17 40  1  0  0  0  0
 17 41  1  0  0  0  0
 18 19  1  0  0  0  0
 18 42  1  0  0  0  0
 18 43  1  0  0  0  0
 19 20  1  0  0  0  0
 19 44  1  0  0  0  0
 19 45  1  0  0  0  0
 20 21  2  0  0  0  0
 22 23  2  0  0  0  0
M  END
> <s_m_source_file>
AV-unprocessed.smi

> <i_m_source_file_index>
300

> <i_lp_mmshare_version>
43012

> <i_f3d_flags>
0

> <s_epik_input>
W0NIM11uMWMoPU8pW2NIXVtjSF1uKGMxPU8pW0NIMl1DKD1PKVtOSF1bQ0gyXVtDSDJdTjJbQ0gyXVtDSDJdW0NIMl1bQ0gyXVtDSDJdQzI9Tw==

> <s_epik_cmdline>
J2VwaWtfcHl0aG9uJywgJy1waCcsICc3LjAnLCAnLXRuJywgJzgnLCAnLW1hJywgJzIwMCcsICctbWV0YWxfYmluZGluZycsICctaW1hZScsICc8aW5maWxlLm1hZT4nLCAnLW9tYWUnLCAnPG91dGZpbGUubWFlPic=

> <r_lp_tautomer_probability>
1

> <r_epik_Ionization_Penalty>
6.11943e-08

> <r_epik_Ionization_Penalty_Charging>
1.13819e-08

> <r_epik_Ionization_Penalty_Neutral>
4.98124e-08

> <r_epik_State_Penalty>
-0

> <r_epik_Charging_Adjusted_Penalty>
1.13819e-08

> <i_epik_Tot_Q>
0

> <i_epik_Tot_abs_Q>
0

> <r_epik_Metal_State_Penalty>
-0

> <b_epik_Metal_Only>
0

> <s_lp_Force_Field>
OPLS_2005

> <r_lp_Energy>
25.2871

> <b_lp_Chiralities_Consistent>
1

> <s_lp_Variant>
AV-unprocessed.smi:300-1

> <Gold.Version>
5.8.1

> <Gold.Id.Protein>
6NUR|6NUR_protein|mol2

> <Gold.PLP.Fitness>
53.9018

> <Gold.PLP.PLP>
-44.5900

> <Gold.PLP.part.hbond>
-4.0000

> <Gold.PLP.part.metal>
0.0000

> <Gold.PLP.part.buried>
-4.7221

> <Gold.PLP.part.nonpolar>
-36.8317

> <Gold.PLP.part.repulsive>
0.0409

> <Gold.PLP.ligand.clash>
0.0000

> <Gold.PLP.ligand.torsion>
0.8715

> <Gold.PLP.Chemscore.Hbond>
3.6720

> <Gold.PLP.Chemscore.CHOScore>
0.0000

> <Gold.PLP.Chemscore.Metal>
0.0000

> <Gold.Chemscore.Hbonds>
donor molecule, donor type, donor heavy atom, donor atom, acceptor molecule, acceptor atom, score
      P1  H  6896  6909       L1    10  1.00
      P1  H  6931  6943       L1    23  1.00
      P1  H  6934  6947       L1    23  0.65
      P1  H  7997  8008       L1    21  0.91

> <Gold.PLP.Chemscore.Internal.Correction>
0.0389

> <Gold.Rescore>
     Score         DG    S(hbond)    S(metal)    S(lipo)     H(rot)  DE(clash)    DE(int)     intcor
     20.35     -21.28       3.66        0.00      78.25       2.18       0.07       0.86       ----

> <Gold.Chemscore.Fitness>
20.3540

> <Gold.Chemscore.DG>
-21.2839

> <Gold.Chemscore.ZeroCoef>
-5.4800

> <Gold.Chemscore.Hbond>
3.6632

> <Gold.Chemscore.Metal>
0.0000

> <Gold.Chemscore.Lipo>
78.2475

> <Gold.Chemscore.Internal_Hbond>
0.0000

> <Gold.Chemscore.DEClash>
0.0706

> <Gold.Chemscore.DEInternal>
0.8593

> <Gold.Chemscore.Rot>
2.1820

> <Gold.Chemscore.Internal.Correction>
   9.000000E+99

> <Gold.Chemscore.Hbonds>
donor molecule, donor type, donor heavy atom, donor atom, acceptor molecule, acceptor atom, score
      P1  H  6896  6909       L1    10  0.96
      P1  H  6931  6943       L1    23  0.98
      P1  H  6934  6947       L1    23  0.64
      P1  H  7997  8008       L1    21  0.86

> <Gold.Chemscore.Hbond.Weighted>
-12.2349

> <Gold.Chemscore.Metal.Weighted>
-0.0000

> <Gold.Chemscore.Lipo.Weighted>
-9.1550

> <Gold.Chemscore.Internal_Hbond.Weighted>
0.0000

> <Gold.Chemscore.DEClash.Weighted>
0.0706

> <Gold.Chemscore.DEInternal.Weighted>
0.8593

> <Gold.Chemscore.Rot.Weighted>
5.5860

> <Gold.Chemscore.Internal.Correction.Weighted>
   9.000000E+99

> <Gold.Protein.RotatedTorsions>
[ 6907 6896 6895 6894 ] final   96.80 input  -60.11 | X-H torsion
[ 7974 7965 7964 7962 ] final -137.04 input  175.53 | X-H torsion
[ 8008 7997 7996 7995 ] final -105.50 input   59.86 | X-H torsion
[ 10167 10162 10161 10158 ] final  165.25 input  -65.29 | X-H torsion
[ 10718 10713 10712 10709 ] final  -51.94 input   66.30 | X-H torsion
[ 10763 10752 10751 10750 ] final  -20.25 input  -60.55 | X-H torsion
[ 11005 11000 10999 10996 ] final  -99.65 input  -57.11 | X-H torsion

> <Gold.Protein.ActiveResidues>
 VAL166  LYS551  ARG553  GLY616  TRP617  ASP618  TYR619  PRO620  LYS621  CYS622 
 ASP623  PHE694  ASN695  SER759  ASP760  ASP761  ALA762  ILE779  LEU786  VAL792 
 PHE793  MET794  SER795  GLU796  ALA797  LYS798  CYS799  TRP800  GLU811  SER814 

> <Gold.Protein.RotatedAtoms>
  152.5431  134.0831  159.8244 H   0  0  0  0  0  0  0  0  0  0  0  0  # atno 6907 bound_to 6896
  151.0930  133.5293  159.2621 H   0  0  0  0  0  0  0  0  0  0  0  0  # atno 6908 bound_to 6896
  151.2077  135.0477  159.8953 H   0  0  0  0  0  0  0  0  0  0  0  0  # atno 6909 bound_to 6896
  144.8875  140.6596  143.5166 H   0  0  0  0  0  0  0  0  0  0  0  0  # atno 7974 bound_to 7965
  154.9008  140.0413  157.1892 H   0  0  0  0  0  0  0  0  0  0  0  0  # atno 8008 bound_to 7997
  154.8445  140.2919  155.5616 H   0  0  0  0  0  0  0  0  0  0  0  0  # atno 8009 bound_to 7997
  156.2993  140.2476  156.3394 H   0  0  0  0  0  0  0  0  0  0  0  0  # atno 8010 bound_to 7997
  139.4902  144.4151  151.9253 H   0  0  0  0  0  0  0  0  0  0  0  0  # atno 10167 bound_to 10162
  156.1665  130.4149  149.9712 H   0  0  0  0  0  0  0  0  0  0  0  0  # atno 10718 bound_to 10713
  153.6175  135.6994  153.5323 H   0  0  0  0  0  0  0  0  0  0  0  0  # atno 10763 bound_to 10752
  153.2965  135.4141  155.1214 H   0  0  0  0  0  0  0  0  0  0  0  0  # atno 10764 bound_to 10752
  154.8550  135.3638  154.5715 H   0  0  0  0  0  0  0  0  0  0  0  0  # atno 10765 bound_to 10752
  141.1301  133.8338  157.0999 H   0  0  0  0  0  0  0  0  0  0  0  0  # atno 11005 bound_to 11000
  145.3842  139.1630  143.4264 LP  0  0  0  0  0  0  0  0  0  0  0  0  # atno 17320 bound_to 7965
  146.3033  140.3925  142.8696 LP  0  0  0  0  0  0  0  0  0  0  0  0  # atno 17321 bound_to 7965
  140.3594  144.2992  150.5936 LP  0  0  0  0  0  0  0  0  0  0  0  0  # atno 17342 bound_to 10162
  140.5416  143.2222  151.8075 LP  0  0  0  0  0  0  0  0  0  0  0  0  # atno 17343 bound_to 10162
  156.7525  130.9120  151.3638 LP  0  0  0  0  0  0  0  0  0  0  0  0  # atno 17370 bound_to 10713
  157.6772  130.9105  150.0178 LP  0  0  0  0  0  0  0  0  0  0  0  0  # atno 17371 bound_to 10713
  140.0340  134.9887  157.0834 LP  0  0  0  0  0  0  0  0  0  0  0  0  # atno 17394 bound_to 11000
  140.4240  134.1850  155.7165 LP  0  0  0  0  0  0  0  0  0  0  0  0  # atno 17395 bound_to 11000

$$$$
