AV-unprocessed.smi:441|AV-procd|sdf|2582|dock3
  -GOLD-   2262022573D 1   1.00000     0.00000
 Structure written by MMmdl.
 34 35  0  0  0  0  0  0  0  0  1 V2000
  153.0629  139.8604  157.9319 O   0  0  0  0  0  0  0  0  0  0  0  0
  151.9295  140.2389  157.6320 C   0  0  0  0  0  0  0  0  0  0  0  0
  150.9948  139.3455  156.8031 C   0  0  0  0  0  0  0  0  0  0  0  0
  149.7085  139.9832  156.4846 N   0  0  0  0  0  0  0  0  0  0  0  0
  149.5637  140.3270  155.1518 N   0  0  0  0  0  0  0  0  0  0  0  0
  148.4684  140.8765  154.7539 C   0  0  0  0  0  0  0  0  0  0  0  0
  147.3739  141.1554  155.6570 C   0  0  0  0  0  0  0  0  0  0  0  0
  145.9283  141.8948  155.0647 Cl  0  0  0  0  0  0  0  0  0  0  0  0
  147.5284  140.8203  156.9625 C   0  0  0  0  0  0  0  0  0  0  0  0
  146.2640  141.1245  158.1038 Cl  0  0  0  0  0  0  0  0  0  0  0  0
  148.7632  140.1917  157.4523 C   0  0  0  0  0  0  0  0  0  0  0  0
  148.9429  139.8744  158.6289 O   0  0  0  0  0  0  0  0  0  0  0  0
  151.4402  141.4396  157.9774 N   0  0  0  0  0  0  0  0  0  0  0  0
  152.1506  142.4484  158.7579 C   0  0  0  0  0  0  0  0  0  0  0  0
  152.4932  141.8784  160.1475 C   0  0  0  0  0  0  0  0  0  0  0  0
  153.1907  142.9264  161.0298 C   0  0  0  0  0  0  0  0  0  0  0  0
  152.3441  144.2026  161.1547 C   0  0  0  0  0  0  0  0  0  0  0  0
  152.0032  144.7787  159.7716 C   0  0  0  0  0  0  0  0  0  0  0  0
  151.3054  143.7328  158.8869 C   0  0  0  0  0  0  0  0  0  0  0  0
  151.4986  139.0432  155.8830 H   0  0  0  0  0  0  0  0  0  0  0  0
  150.8300  138.4223  157.3615 H   0  0  0  0  0  0  0  0  0  0  0  0
  148.3084  141.1614  153.7139 H   0  0  0  0  0  0  0  0  0  0  0  0
  150.5019  141.6701  157.6842 H   0  0  0  0  0  0  0  0  0  0  0  0
  153.0877  142.6920  158.2533 H   0  0  0  0  0  0  0  0  0  0  0  0
  151.5822  141.5389  160.6430 H   0  0  0  0  0  0  0  0  0  0  0  0
  153.1342  141.0019  160.0444 H   0  0  0  0  0  0  0  0  0  0  0  0
  153.3843  142.5105  162.0189 H   0  0  0  0  0  0  0  0  0  0  0  0
  154.1634  143.1735  160.6027 H   0  0  0  0  0  0  0  0  0  0  0  0
  151.4233  143.9789  161.6950 H   0  0  0  0  0  0  0  0  0  0  0  0
  152.8775  144.9467  161.7467 H   0  0  0  0  0  0  0  0  0  0  0  0
  151.3664  145.6568  159.8811 H   0  0  0  0  0  0  0  0  0  0  0  0
  152.9168  145.1188  159.2822 H   0  0  0  0  0  0  0  0  0  0  0  0
  151.1143  144.1600  157.9019 H   0  0  0  0  0  0  0  0  0  0  0  0
  150.3304  143.4926  159.3131 H   0  0  0  0  0  0  0  0  0  0  0  0
  1  2  2  0  0  0  0
  2  3  1  0  0  0  0
  2 13  1  0  0  0  0
  3  4  1  0  0  0  0
  3 20  1  0  0  0  0
  3 21  1  0  0  0  0
  4 11  1  0  0  0  0
  4  5  1  0  0  0  0
  5  6  2  0  0  0  0
  6  7  1  0  0  0  0
  6 22  1  0  0  0  0
  7  8  1  0  0  0  0
  7  9  2  0  0  0  0
  9 10  1  0  0  0  0
  9 11  1  0  0  0  0
 11 12  2  0  0  0  0
 13 14  1  0  0  0  0
 13 23  1  0  0  0  0
 14 19  1  0  0  0  0
 14 15  1  0  0  0  0
 14 24  1  0  0  0  0
 15 16  1  0  0  0  0
 15 25  1  0  0  0  0
 15 26  1  0  0  0  0
 16 17  1  0  0  0  0
 16 27  1  0  0  0  0
 16 28  1  0  0  0  0
 17 18  1  0  0  0  0
 17 29  1  0  0  0  0
 17 30  1  0  0  0  0
 18 19  1  0  0  0  0
 18 31  1  0  0  0  0
 18 32  1  0  0  0  0
 19 33  1  0  0  0  0
 19 34  1  0  0  0  0
M  END
> <s_m_source_file>
AV-unprocessed.smi

> <i_m_source_file_index>
441

> <i_lp_mmshare_version>
43012

> <i_f3d_flags>
0

> <s_epik_input>
W0NIMl0xW0NIMl1bQ0gyXVtDSDJdW0NIMl1bQ0hdMVtOSF1DKD1PKVtDSDJdbjJuW2NIXWMoQ2wpYyhDbCljMj1P

> <s_epik_cmdline>
J2VwaWtfcHl0aG9uJywgJy1waCcsICc3LjAnLCAnLXRuJywgJzgnLCAnLW1hJywgJzIwMCcsICctbWV0YWxfYmluZGluZycsICctaW1hZScsICc8aW5maWxlLm1hZT4nLCAnLW9tYWUnLCAnPG91dGZpbGUubWFlPic=

> <r_lp_tautomer_probability>
1

> <r_epik_Ionization_Penalty>
1.90776e-08

> <r_epik_Ionization_Penalty_Charging>
3.07389e-11

> <r_epik_Ionization_Penalty_Neutral>
1.90469e-08

> <r_epik_State_Penalty>
-0

> <r_epik_Charging_Adjusted_Penalty>
3.07389e-11

> <i_epik_Tot_Q>
0

> <i_epik_Tot_abs_Q>
0

> <r_epik_Metal_State_Penalty>
-0

> <b_epik_Metal_Only>
0

> <s_lp_Force_Field>
OPLS_2005

> <r_lp_Energy>
22.7857

> <b_lp_Chiralities_Consistent>
1

> <s_lp_Variant>
AV-unprocessed.smi:441-1

> <Gold.Version>
5.8.1

> <Gold.Id.Protein>
6NUR|6NUR_protein|mol2

> <Gold.PLP.Fitness>
46.9991

> <Gold.PLP.PLP>
-39.1293

> <Gold.PLP.part.hbond>
-2.1359

> <Gold.PLP.part.metal>
0.0000

> <Gold.PLP.part.buried>
-3.8884

> <Gold.PLP.part.nonpolar>
-32.7602

> <Gold.PLP.part.repulsive>
0.1747

> <Gold.PLP.ligand.clash>
0.0055

> <Gold.PLP.ligand.torsion>
0.1210

> <Gold.PLP.Chemscore.Hbond>
1.8160

> <Gold.PLP.Chemscore.CHOScore>
0.8879

> <Gold.PLP.Chemscore.Metal>
0.0000

> <Gold.Chemscore.Hbonds>
donor molecule, donor type, donor heavy atom, donor atom, acceptor molecule, acceptor atom, score
      P1  H  7997  8009       L1     1  1.00

> <Gold.PLP.Chemscore.Internal.Correction>
0.0056

> <Gold.Rescore>
     Score         DG    S(hbond)    S(metal)    S(lipo)     H(rot)  DE(clash)    DE(int)     intcor
     16.87     -18.54       1.71        0.00      95.84       1.51       0.10       1.57       ----

> <Gold.Chemscore.Fitness>
16.8688

> <Gold.Chemscore.DG>
-18.5428

> <Gold.Chemscore.ZeroCoef>
-5.4800

> <Gold.Chemscore.Hbond>
1.7126

> <Gold.Chemscore.Metal>
0.0000

> <Gold.Chemscore.Lipo>
95.8364

> <Gold.Chemscore.Internal_Hbond>
0.0000

> <Gold.Chemscore.DEClash>
0.1014

> <Gold.Chemscore.DEInternal>
1.5726

> <Gold.Chemscore.Rot>
1.5118

> <Gold.Chemscore.Internal.Correction>
   9.000000E+99

> <Gold.Chemscore.Hbonds>
donor molecule, donor type, donor heavy atom, donor atom, acceptor molecule, acceptor atom, score
      P1  H  7997  8009       L1     1  0.93

> <Gold.Chemscore.Hbond.Weighted>
-5.7201

> <Gold.Chemscore.Metal.Weighted>
-0.0000

> <Gold.Chemscore.Lipo.Weighted>
-11.2129

> <Gold.Chemscore.Internal_Hbond.Weighted>
0.0000

> <Gold.Chemscore.DEClash.Weighted>
0.1014

> <Gold.Chemscore.DEInternal.Weighted>
1.5726

> <Gold.Chemscore.Rot.Weighted>
3.8702

> <Gold.Chemscore.Internal.Correction.Weighted>
   9.000000E+99

> <Gold.Protein.RotatedTorsions>
[ 6907 6896 6895 6894 ] final  131.87 input  -60.11 | X-H torsion
[ 7974 7965 7964 7962 ] final  -94.70 input  175.53 | X-H torsion
[ 8008 7997 7996 7995 ] final  174.69 input   59.86 | X-H torsion
[ 10167 10162 10161 10158 ] final  -68.98 input  -65.29 | X-H torsion
[ 10718 10713 10712 10709 ] final  169.63 input   66.30 | X-H torsion
[ 10763 10752 10751 10750 ] final -134.06 input  -60.55 | X-H torsion
[ 11005 11000 10999 10996 ] final -164.49 input  -57.11 | X-H torsion

> <Gold.Protein.ActiveResidues>
 VAL166  LYS551  ARG553  GLY616  TRP617  ASP618  TYR619  PRO620  LYS621  CYS622 
 ASP623  PHE694  ASN695  SER759  ASP760  ASP761  ALA762  ILE779  LEU786  VAL792 
 PHE793  MET794  SER795  GLU796  ALA797  LYS798  CYS799  TRP800  GLU811  SER814 

> <Gold.Protein.RotatedAtoms>
  152.3382  133.6036  159.5857 H   0  0  0  0  0  0  0  0  0  0  0  0  # atno 6907 bound_to 6896
  150.7463  133.9763  159.3571 H   0  0  0  0  0  0  0  0  0  0  0  0  # atno 6908 bound_to 6896
  151.7630  135.0806  160.0399 H   0  0  0  0  0  0  0  0  0  0  0  0  # atno 6909 bound_to 6896
  145.3699  140.9504  143.2453 H   0  0  0  0  0  0  0  0  0  0  0  0  # atno 7974 bound_to 7965
  156.0948  140.1428  156.9545 H   0  0  0  0  0  0  0  0  0  0  0  0  # atno 8008 bound_to 7997
  154.4664  140.0925  156.7078 H   0  0  0  0  0  0  0  0  0  0  0  0  # atno 8009 bound_to 7997
  155.4860  140.3446  155.4349 H   0  0  0  0  0  0  0  0  0  0  0  0  # atno 8010 bound_to 7997
  140.5466  143.2313  151.6990 H   0  0  0  0  0  0  0  0  0  0  0  0  # atno 10167 bound_to 10162
  157.0199  131.0229  151.2778 H   0  0  0  0  0  0  0  0  0  0  0  0  # atno 10718 bound_to 10713
  154.8724  135.3746  154.4674 H   0  0  0  0  0  0  0  0  0  0  0  0  # atno 10763 bound_to 10752
  153.5338  135.7027  153.5675 H   0  0  0  0  0  0  0  0  0  0  0  0  # atno 10764 bound_to 10752
  153.3868  135.3982  155.1860 H   0  0  0  0  0  0  0  0  0  0  0  0  # atno 10765 bound_to 10752
  140.5863  134.5090  157.5186 H   0  0  0  0  0  0  0  0  0  0  0  0  # atno 11005 bound_to 11000
  144.8584  139.5214  143.6823 LP  0  0  0  0  0  0  0  0  0  0  0  0  # atno 17320 bound_to 7965
  146.2890  139.7085  142.9175 LP  0  0  0  0  0  0  0  0  0  0  0  0  # atno 17321 bound_to 7965
  139.5010  144.3885  152.0304 LP  0  0  0  0  0  0  0  0  0  0  0  0  # atno 17342 bound_to 10162
  140.2998  144.3659  150.6063 LP  0  0  0  0  0  0  0  0  0  0  0  0  # atno 17343 bound_to 10162
  157.5257  130.8026  149.7860 LP  0  0  0  0  0  0  0  0  0  0  0  0  # atno 17370 bound_to 10713
  156.0106  130.3835  150.2278 LP  0  0  0  0  0  0  0  0  0  0  0  0  # atno 17371 bound_to 10713
  139.9294  134.7993  156.0974 LP  0  0  0  0  0  0  0  0  0  0  0  0  # atno 17394 bound_to 11000
  141.0963  133.6694  156.2654 LP  0  0  0  0  0  0  0  0  0  0  0  0  # atno 17395 bound_to 11000

$$$$
