AV-unprocessed.smi:814|AV-procd|sdf|3823|dock5
  -GOLD-   22720 1263D 1   1.00000     0.00000
 Structure written by MMmdl.
 36 37  0  0  0  0  0  0  0  0  1 V2000
  152.2329  144.0722  161.6361 C   0  0  0  0  0  0  0  0  0  0  0  0
  152.0245  144.0170  160.2021 N   0  0  0  0  0  0  0  0  0  0  0  0
  151.2478  144.8947  159.4571 C   0  0  0  0  0  0  0  0  0  0  0  0
  151.3197  144.4735  158.1513 C   0  0  0  0  0  0  0  0  0  0  0  0
  152.1312  143.3470  158.0744 N   0  0  0  0  0  0  0  0  0  0  0  0
  152.5273  143.1270  159.3245 C   0  0  0  0  0  0  0  0  0  0  0  0
  153.4116  141.9870  159.7258 C   0  0  0  0  0  0  0  0  0  0  0  0
  152.6798  140.6361  159.6799 C   0  0  0  0  0  0  0  0  0  0  0  0
  151.9862  140.4424  158.4120 N   0  0  0  0  0  0  0  0  0  0  0  0
  152.3770  139.6035  157.4402 C   0  0  0  0  0  0  0  0  0  0  0  0
  153.3785  138.8921  157.5264 O   0  0  0  0  0  0  0  0  0  0  0  0
  151.5063  139.5641  156.1770 C   0  0  2  0  0  0  0  0  0  0  0  0
  150.0076  139.4236  156.5315 C   0  0  0  0  0  0  0  0  0  0  0  0
  149.1558  139.1264  155.3100 C   0  0  0  0  0  0  0  0  0  0  0  0
  149.6630  138.6974  154.1415 C   0  0  0  0  0  0  0  0  0  0  0  0
  151.1445  138.4560  153.9114 C   0  0  0  0  0  0  0  0  0  0  0  0
  151.9438  138.4301  155.2281 C   0  0  0  0  0  0  0  0  0  0  0  0
  151.5883  144.8311  162.0806 H   0  0  0  0  0  0  0  0  0  0  0  0
  153.2724  144.3238  161.8477 H   0  0  0  0  0  0  0  0  0  0  0  0
  151.9976  143.1064  162.0835 H   0  0  0  0  0  0  0  0  0  0  0  0
  150.7190  145.7228  159.9058 H   0  0  0  0  0  0  0  0  0  0  0  0
  150.8536  144.8890  157.2700 H   0  0  0  0  0  0  0  0  0  0  0  0
  154.2703  141.9692  159.0535 H   0  0  0  0  0  0  0  0  0  0  0  0
  153.8126  142.1677  160.7234 H   0  0  0  0  0  0  0  0  0  0  0  0
  153.3950  139.8221  159.8007 H   0  0  0  0  0  0  0  0  0  0  0  0
  151.9753  140.5547  160.5097 H   0  0  0  0  0  0  0  0  0  0  0  0
  151.1531  140.9919  158.2578 H   0  0  0  0  0  0  0  0  0  0  0  0
  151.6377  140.5078  155.6439 H   0  0  0  0  0  0  0  0  0  0  0  0
  149.8427  138.6255  157.2570 H   0  0  0  0  0  0  0  0  0  0  0  0
  149.6492  140.3465  156.9889 H   0  0  0  0  0  0  0  0  0  0  0  0
  148.0894  139.2626  155.4144 H   0  0  0  0  0  0  0  0  0  0  0  0
  149.0044  138.5170  153.3047 H   0  0  0  0  0  0  0  0  0  0  0  0
  151.2773  137.5143  153.3782 H   0  0  0  0  0  0  0  0  0  0  0  0
  151.5175  139.2461  153.2591 H   0  0  0  0  0  0  0  0  0  0  0  0
  153.0105  138.4983  155.0091 H   0  0  0  0  0  0  0  0  0  0  0  0
  151.7925  137.4665  155.7177 H   0  0  0  0  0  0  0  0  0  0  0  0
  1  2  1  0  0  0  0
  1 18  1  0  0  0  0
  1 19  1  0  0  0  0
  1 20  1  0  0  0  0
  2  6  1  0  0  0  0
  2  3  1  0  0  0  0
  3  4  2  0  0  0  0
  3 21  1  0  0  0  0
  4  5  1  0  0  0  0
  4 22  1  0  0  0  0
  5  6  2  0  0  0  0
  6  7  1  0  0  0  0
  7  8  1  0  0  0  0
  7 23  1  0  0  0  0
  7 24  1  0  0  0  0
  8  9  1  0  0  0  0
  8 25  1  0  0  0  0
  8 26  1  0  0  0  0
  9 10  1  0  0  0  0
  9 27  1  0  0  0  0
 10 11  2  0  0  0  0
 10 12  1  0  0  0  0
 12 17  1  0  0  0  0
 12 13  1  0  0  0  0
 12 28  1  0  0  0  0
 13 14  1  0  0  0  0
 13 29  1  0  0  0  0
 13 30  1  0  0  0  0
 14 15  2  0  0  0  0
 14 31  1  0  0  0  0
 15 16  1  0  0  0  0
 15 32  1  0  0  0  0
 16 17  1  0  0  0  0
 16 33  1  0  0  0  0
 16 34  1  0  0  0  0
 17 35  1  0  0  0  0
 17 36  1  0  0  0  0
M  END
> <s_m_source_file>
AV-unprocessed.smi

> <i_m_source_file_index>
814

> <i_lp_mmshare_version>
43012

> <i_f3d_flags>
0

> <s_epik_input>
W0NIM11uMVtjSF1bY0hdbmMxW0NIMl1bQ0gyXVtOSF1DKD1PKVtDQEBIXTJbQ0gyXVtDSF09W0NIXVtDSDJdW0NIMl0y

> <s_epik_cmdline>
J2VwaWtfcHl0aG9uJywgJy1waCcsICc3LjAnLCAnLXRuJywgJzgnLCAnLW1hJywgJzIwMCcsICctbWV0YWxfYmluZGluZycsICctaW1hZScsICc8aW5maWxlLm1hZT4nLCAnLW9tYWUnLCAnPG91dGZpbGUubWFlPic=

> <r_lp_tautomer_probability>
1

> <r_epik_Ionization_Penalty>
1.21249

> <r_epik_Ionization_Penalty_Charging>
1.21249

> <r_epik_Ionization_Penalty_Neutral>
1.60917e-08

> <r_epik_State_Penalty>
1.27906

> <r_epik_Charging_Adjusted_Penalty>
2.49154

> <i_epik_Tot_Q>
0

> <i_epik_Tot_abs_Q>
0

> <r_epik_Metal_State_Penalty>
0.409603

> <b_epik_Metal_Only>
0

> <s_lp_Force_Field>
OPLS_2005

> <r_lp_Energy>
6.39824

> <b_lp_Chiralities_Consistent>
1

> <s_lp_Variant>
AV-unprocessed.smi:814-3

> <Gold.Version>
5.8.1

> <Gold.Id.Protein>
6NUR|6NUR_protein|mol2

> <Gold.PLP.Fitness>
42.4242

> <Gold.PLP.PLP>
-37.2672

> <Gold.PLP.part.hbond>
-1.0000

> <Gold.PLP.part.metal>
0.0000

> <Gold.PLP.part.buried>
-3.7690

> <Gold.PLP.part.nonpolar>
-32.7979

> <Gold.PLP.part.repulsive>
0.1466

> <Gold.PLP.ligand.clash>
0.0000

> <Gold.PLP.ligand.torsion>
0.4335

> <Gold.PLP.Chemscore.Hbond>
1.0000

> <Gold.PLP.Chemscore.CHOScore>
1.0000

> <Gold.PLP.Chemscore.Metal>
0.0000

> <Gold.Chemscore.Hbonds>
donor molecule, donor type, donor heavy atom, donor atom, acceptor molecule, acceptor atom, score
      P1  H  7997  8010       L1    11  1.00
      L1  C     4    22       P1  8028  1.00

> <Gold.PLP.Chemscore.Internal.Correction>
0.0240

> <Gold.Rescore>
     Score         DG    S(hbond)    S(metal)    S(lipo)     H(rot)  DE(clash)    DE(int)     intcor
     13.65     -14.00       0.68        0.00      88.14       1.58       0.07       0.27       ----

> <Gold.Chemscore.Fitness>
13.6542

> <Gold.Chemscore.DG>
-14.0028

> <Gold.Chemscore.ZeroCoef>
-5.4800

> <Gold.Chemscore.Hbond>
0.6761

> <Gold.Chemscore.Metal>
0.0000

> <Gold.Chemscore.Lipo>
88.1357

> <Gold.Chemscore.Internal_Hbond>
0.0000

> <Gold.Chemscore.DEClash>
0.0745

> <Gold.Chemscore.DEInternal>
0.2741

> <Gold.Chemscore.Rot>
1.5809

> <Gold.Chemscore.Internal.Correction>
   9.000000E+99

> <Gold.Chemscore.Hbonds>
donor molecule, donor type, donor heavy atom, donor atom, acceptor molecule, acceptor atom, score
      P1  H  7997  8010       L1    11  0.30

> <Gold.Chemscore.Hbond.Weighted>
-2.2581

> <Gold.Chemscore.Metal.Weighted>
-0.0000

> <Gold.Chemscore.Lipo.Weighted>
-10.3119

> <Gold.Chemscore.Internal_Hbond.Weighted>
0.0000

> <Gold.Chemscore.DEClash.Weighted>
0.0745

> <Gold.Chemscore.DEInternal.Weighted>
0.2741

> <Gold.Chemscore.Rot.Weighted>
4.0472

> <Gold.Chemscore.Internal.Correction.Weighted>
   9.000000E+99

> <Gold.Protein.RotatedTorsions>
[ 6907 6896 6895 6894 ] final   89.19 input  -60.11 | X-H torsion
[ 7974 7965 7964 7962 ] final   27.45 input  175.53 | X-H torsion
[ 8008 7997 7996 7995 ] final   31.44 input   59.86 | X-H torsion
[ 10167 10162 10161 10158 ] final  -50.98 input  -65.29 | X-H torsion
[ 10718 10713 10712 10709 ] final  -36.51 input   66.30 | X-H torsion
[ 10763 10752 10751 10750 ] final  -48.51 input  -60.55 | X-H torsion
[ 11005 11000 10999 10996 ] final   12.56 input  -57.11 | X-H torsion

> <Gold.Protein.ActiveResidues>
 VAL166  LYS551  ARG553  GLY616  TRP617  ASP618  TYR619  PRO620  LYS621  CYS622 
 ASP623  PHE694  ASN695  SER759  ASP760  ASP761  ALA762  ILE779  LEU786  VAL792 
 PHE793  MET794  SER795  GLU796  ALA797  LYS798  CYS799  TRP800  GLU811  SER814 

> <Gold.Protein.RotatedAtoms>
  152.5433  134.2004  159.8709 H   0  0  0  0  0  0  0  0  0  0  0  0  # atno 6907 bound_to 6896
  151.1993  133.4613  159.2603 H   0  0  0  0  0  0  0  0  0  0  0  0  # atno 6908 bound_to 6896
  151.1005  134.9982  159.8502 H   0  0  0  0  0  0  0  0  0  0  0  0  # atno 6909 bound_to 6896
  146.1783  139.7189  142.8918 H   0  0  0  0  0  0  0  0  0  0  0  0  # atno 7974 bound_to 7965
  155.1064  140.3234  155.4533 H   0  0  0  0  0  0  0  0  0  0  0  0  # atno 8008 bound_to 7997
  156.2703  140.2052  156.6137 H   0  0  0  0  0  0  0  0  0  0  0  0  # atno 8009 bound_to 7997
  154.6789  140.0528  157.0232 H   0  0  0  0  0  0  0  0  0  0  0  0  # atno 8010 bound_to 7997
  140.6611  143.2637  151.4438 H   0  0  0  0  0  0  0  0  0  0  0  0  # atno 10167 bound_to 10162
  156.3260  130.4272  149.7916 H   0  0  0  0  0  0  0  0  0  0  0  0  # atno 10718 bound_to 10713
  154.0789  135.6594  153.4835 H   0  0  0  0  0  0  0  0  0  0  0  0  # atno 10763 bound_to 10752
  153.0363  135.5175  154.7493 H   0  0  0  0  0  0  0  0  0  0  0  0  # atno 10764 bound_to 10752
  154.6582  135.3011  154.9868 H   0  0  0  0  0  0  0  0  0  0  0  0  # atno 10765 bound_to 10752
  140.4905  134.0845  155.7770 H   0  0  0  0  0  0  0  0  0  0  0  0  # atno 11005 bound_to 11000
  145.4149  141.0400  143.2996 LP  0  0  0  0  0  0  0  0  0  0  0  0  # atno 17320 bound_to 7965
  144.8273  139.5689  143.6960 LP  0  0  0  0  0  0  0  0  0  0  0  0  # atno 17321 bound_to 7965
  139.5845  144.1635  152.2011 LP  0  0  0  0  0  0  0  0  0  0  0  0  # atno 17342 bound_to 10162
  140.0971  144.5571  150.7014 LP  0  0  0  0  0  0  0  0  0  0  0  0  # atno 17343 bound_to 10162
  156.5206  130.8213  151.3202 LP  0  0  0  0  0  0  0  0  0  0  0  0  # atno 17370 bound_to 10713
  157.7421  130.9884  150.2494 LP  0  0  0  0  0  0  0  0  0  0  0  0  # atno 17371 bound_to 10713
  141.1486  133.9010  157.2154 LP  0  0  0  0  0  0  0  0  0  0  0  0  # atno 17394 bound_to 11000
  139.9772  135.0110  156.9660 LP  0  0  0  0  0  0  0  0  0  0  0  0  # atno 17395 bound_to 11000

$$$$
