AV-unprocessed.smi:2990|AV-procd|sdf|11393|dock1
  -GOLD-   2272016313D 1   1.00000     0.00000
 Structure written by MMmdl.
 39 41  0  0  0  0  0  0  0  0  1 V2000
  151.5209  139.1830  155.5183 C   0  0  0  0  0  0  0  0  0  0  0  0
  151.6399  140.3261  156.4757 C   0  0  0  0  0  0  0  0  0  0  0  0
  152.4474  140.2844  157.5355 N   0  0  0  0  0  0  0  0  0  0  0  0
  152.2341  141.5144  158.1274 C   0  0  0  0  0  0  0  0  0  0  0  0
  152.7953  142.0821  159.2937 C   0  0  0  0  0  0  0  0  0  0  0  0
  152.4176  143.3753  159.7109 C   0  0  0  0  0  0  0  0  0  0  0  0
  151.4765  144.1183  158.9692 C   0  0  0  0  0  0  0  0  0  0  0  0
  150.9065  143.5722  157.8030 C   0  0  0  0  0  0  0  0  0  0  0  0
  151.2856  142.2803  157.3915 C   0  0  0  0  0  0  0  0  0  0  0  0
  150.9268  141.4684  156.3196 N   0  0  0  0  0  0  0  0  0  0  0  0
  149.9770  141.7942  155.2641 C   0  0  0  0  0  0  0  0  0  0  0  0
  148.5722  141.2130  155.5242 C   0  0  2  0  0  0  0  0  0  0  0  0
  148.5818  139.8154  155.3114 O   0  0  0  0  0  0  0  0  0  0  0  0
  147.5032  141.8326  154.6123 C   0  0  0  0  0  0  0  0  0  0  0  0
  146.3265  142.0744  155.3727 O   0  0  0  0  0  0  0  0  0  0  0  0
  145.4753  143.0754  154.9561 C   0  0  0  0  0  0  0  0  0  0  0  0
  145.4355  143.3477  153.5727 C   0  0  0  0  0  0  0  0  0  0  0  0
  144.5953  144.3546  153.0594 C   0  0  0  0  0  0  0  0  0  0  0  0
  143.7824  145.1036  153.9300 C   0  0  0  0  0  0  0  0  0  0  0  0
  143.8121  144.8433  155.3125 C   0  0  0  0  0  0  0  0  0  0  0  0
  144.6522  143.8357  155.8257 C   0  0  0  0  0  0  0  0  0  0  0  0
  152.1975  138.3761  155.8017 H   0  0  0  0  0  0  0  0  0  0  0  0
  151.7753  139.5034  154.5083 H   0  0  0  0  0  0  0  0  0  0  0  0
  150.5031  138.7927  155.5210 H   0  0  0  0  0  0  0  0  0  0  0  0
  153.5169  141.5211  159.8688 H   0  0  0  0  0  0  0  0  0  0  0  0
  152.8518  143.7990  160.6046 H   0  0  0  0  0  0  0  0  0  0  0  0
  151.1923  145.1079  159.2959 H   0  0  0  0  0  0  0  0  0  0  0  0
  150.1876  144.1399  157.2311 H   0  0  0  0  0  0  0  0  0  0  0  0
  149.9272  142.8783  155.1607 H   0  0  0  0  0  0  0  0  0  0  0  0
  150.3695  141.4212  154.3173 H   0  0  0  0  0  0  0  0  0  0  0  0
  148.2895  141.3817  156.5637 H   0  0  0  0  0  0  0  0  0  0  0  0
  149.2769  139.4385  155.8293 H   0  0  0  0  0  0  0  0  0  0  0  0
  147.8772  142.7597  154.1741 H   0  0  0  0  0  0  0  0  0  0  0  0
  147.2721  141.1423  153.7990 H   0  0  0  0  0  0  0  0  0  0  0  0
  146.0562  142.7776  152.8972 H   0  0  0  0  0  0  0  0  0  0  0  0
  144.5750  144.5522  151.9978 H   0  0  0  0  0  0  0  0  0  0  0  0
  143.1378  145.8766  153.5384 H   0  0  0  0  0  0  0  0  0  0  0  0
  143.1897  145.4180  155.9822 H   0  0  0  0  0  0  0  0  0  0  0  0
  144.6475  143.6668  156.8917 H   0  0  0  0  0  0  0  0  0  0  0  0
  1  2  1  0  0  0  0
  1 22  1  0  0  0  0
  1 23  1  0  0  0  0
  1 24  1  0  0  0  0
  2 10  1  0  0  0  0
  2  3  2  0  0  0  0
  3  4  1  0  0  0  0
  4  9  2  0  0  0  0
  4  5  1  0  0  0  0
  5  6  2  0  0  0  0
  5 25  1  0  0  0  0
  6  7  1  0  0  0  0
  6 26  1  0  0  0  0
  7  8  2  0  0  0  0
  7 27  1  0  0  0  0
  8  9  1  0  0  0  0
  8 28  1  0  0  0  0
  9 10  1  0  0  0  0
 10 11  1  0  0  0  0
 11 12  1  0  0  0  0
 11 29  1  0  0  0  0
 11 30  1  0  0  0  0
 12 13  1  0  0  0  0
 12 14  1  0  0  0  0
 12 31  1  0  0  0  0
 13 32  1  0  0  0  0
 14 15  1  0  0  0  0
 14 33  1  0  0  0  0
 14 34  1  0  0  0  0
 15 16  1  0  0  0  0
 16 21  1  0  0  0  0
 16 17  2  0  0  0  0
 17 18  1  0  0  0  0
 17 35  1  0  0  0  0
 18 19  2  0  0  0  0
 18 36  1  0  0  0  0
 19 20  1  0  0  0  0
 19 37  1  0  0  0  0
 20 21  2  0  0  0  0
 20 38  1  0  0  0  0
 21 39  1  0  0  0  0
M  END
> <s_m_source_file>
AV-unprocessed.smi

> <i_m_source_file_index>
2990

> <i_lp_mmshare_version>
43012

> <i_f3d_flags>
0

> <s_epik_input>
W2NIXTFbY0hdW2NIXVtjSF1jKGMxMiluKGMobjIpW0NIM10pW0NIMl1bQ0BIXShbT0hdKVtDSDJdT2MzW2NIXVtjSF1bY0hdW2NIXVtjSF0z

> <s_epik_cmdline>
J2VwaWtfcHl0aG9uJywgJy1waCcsICc3LjAnLCAnLXRuJywgJzgnLCAnLW1hJywgJzIwMCcsICctbWV0YWxfYmluZGluZycsICctaW1hZScsICc8aW5maWxlLm1hZT4nLCAnLW9tYWUnLCAnPG91dGZpbGUubWFlPic=

> <r_lp_tautomer_probability>
1

> <r_epik_Ionization_Penalty>
0.119634

> <r_epik_Ionization_Penalty_Charging>
0

> <r_epik_Ionization_Penalty_Neutral>
0.119634

> <r_epik_State_Penalty>
0.10919

> <r_epik_Charging_Adjusted_Penalty>
0.10919

> <i_epik_Tot_Q>
0

> <i_epik_Tot_abs_Q>
0

> <r_epik_Metal_State_Penalty>
0.000119887

> <b_epik_Metal_Only>
0

> <s_lp_Force_Field>
OPLS_2005

> <r_lp_Energy>
14.3575

> <b_lp_Chiralities_Consistent>
1

> <s_lp_Variant>
AV-unprocessed.smi:2990-1

> <Gold.Version>
5.8.1

> <Gold.Id.Protein>
6NUR|6NUR_protein|mol2

> <Gold.PLP.Fitness>
46.6845

> <Gold.PLP.PLP>
-46.3807

> <Gold.PLP.part.hbond>
-1.0000

> <Gold.PLP.part.metal>
0.0000

> <Gold.PLP.part.buried>
-5.2030

> <Gold.PLP.part.nonpolar>
-41.0321

> <Gold.PLP.part.repulsive>
0.1432

> <Gold.PLP.ligand.clash>
0.0000

> <Gold.PLP.ligand.torsion>
1.5091

> <Gold.PLP.Chemscore.Hbond>
1.0000

> <Gold.PLP.Chemscore.CHOScore>
0.0000

> <Gold.PLP.Chemscore.Metal>
0.0000

> <Gold.Chemscore.Hbonds>
donor molecule, donor type, donor heavy atom, donor atom, acceptor molecule, acceptor atom, score
      P1  H  7997  8010       L1     3  0.75

> <Gold.PLP.Chemscore.Internal.Correction>
0.3220

> <Gold.Rescore>
     Score         DG    S(hbond)    S(metal)    S(lipo)     H(rot)  DE(clash)    DE(int)     intcor
     13.54     -15.26       0.01        0.00     127.79       2.04       0.21       1.50       ----

> <Gold.Chemscore.Fitness>
13.5382

> <Gold.Chemscore.DG>
-15.2557

> <Gold.Chemscore.ZeroCoef>
-5.4800

> <Gold.Chemscore.Hbond>
0.0109

> <Gold.Chemscore.Metal>
0.0000

> <Gold.Chemscore.Lipo>
127.7941

> <Gold.Chemscore.Internal_Hbond>
0.0000

> <Gold.Chemscore.DEClash>
0.2133

> <Gold.Chemscore.DEInternal>
1.5042

> <Gold.Chemscore.Rot>
2.0361

> <Gold.Chemscore.Internal.Correction>
   9.000000E+99

> <Gold.Chemscore.Hbonds>
donor molecule, donor type, donor heavy atom, donor atom, acceptor molecule, acceptor atom, score
      P1  H  7997  8010       L1     3  0.31

> <Gold.Chemscore.Hbond.Weighted>
-0.0362

> <Gold.Chemscore.Metal.Weighted>
-0.0000

> <Gold.Chemscore.Lipo.Weighted>
-14.9519

> <Gold.Chemscore.Internal_Hbond.Weighted>
0.0000

> <Gold.Chemscore.DEClash.Weighted>
0.2133

> <Gold.Chemscore.DEInternal.Weighted>
1.5042

> <Gold.Chemscore.Rot.Weighted>
5.2124

> <Gold.Chemscore.Internal.Correction.Weighted>
   9.000000E+99

> <Gold.Protein.RotatedTorsions>
[ 6907 6896 6895 6894 ] final  -10.81 input  -60.11 | X-H torsion
[ 7974 7965 7964 7962 ] final  -71.95 input  175.53 | X-H torsion
[ 8008 7997 7996 7995 ] final   55.28 input   59.86 | X-H torsion
[ 10167 10162 10161 10158 ] final  173.98 input  -65.29 | X-H torsion
[ 10718 10713 10712 10709 ] final -158.99 input   66.30 | X-H torsion
[ 10763 10752 10751 10750 ] final  -55.53 input  -60.55 | X-H torsion
[ 11005 11000 10999 10996 ] final  135.05 input  -57.11 | X-H torsion

> <Gold.Protein.ActiveResidues>
 VAL166  LYS551  ARG553  GLY616  TRP617  ASP618  TYR619  PRO620  LYS621  CYS622 
 ASP623  PHE694  ASN695  SER759  ASP760  ASP761  ALA762  ILE779  LEU786  VAL792 
 PHE793  MET794  SER795  GLU796  ALA797  LYS798  CYS799  TRP800  GLU811  SER814 

> <Gold.Protein.RotatedAtoms>
  151.3961  135.0964  159.9541 H   0  0  0  0  0  0  0  0  0  0  0  0  # atno 6907 bound_to 6896
  152.5065  133.8933  159.7415 H   0  0  0  0  0  0  0  0  0  0  0  0  # atno 6908 bound_to 6896
  150.9397  133.6615  159.2822 H   0  0  0  0  0  0  0  0  0  0  0  0  # atno 6909 bound_to 6896
  145.6714  140.9219  143.0881 H   0  0  0  0  0  0  0  0  0  0  0  0  # atno 7974 bound_to 7965
  155.4985  140.3473  155.4367 H   0  0  0  0  0  0  0  0  0  0  0  0  # atno 8008 bound_to 7997
  156.0929  140.1415  156.9596 H   0  0  0  0  0  0  0  0  0  0  0  0  # atno 8009 bound_to 7997
  154.4646  140.0922  156.6963 H   0  0  0  0  0  0  0  0  0  0  0  0  # atno 8010 bound_to 7997
  139.5126  144.3199  152.0212 H   0  0  0  0  0  0  0  0  0  0  0  0  # atno 10167 bound_to 10162
  156.5618  130.8650  151.2812 H   0  0  0  0  0  0  0  0  0  0  0  0  # atno 10718 bound_to 10713
  154.1922  135.6425  153.5063 H   0  0  0  0  0  0  0  0  0  0  0  0  # atno 10763 bound_to 10752
  153.0032  135.5431  154.6403 H   0  0  0  0  0  0  0  0  0  0  0  0  # atno 10764 bound_to 10752
  154.5794  135.2924  155.0720 H   0  0  0  0  0  0  0  0  0  0  0  0  # atno 10765 bound_to 10752
  139.9955  134.9499  156.9953 H   0  0  0  0  0  0  0  0  0  0  0  0  # atno 11005 bound_to 11000
  144.7055  139.8578  143.7431 LP  0  0  0  0  0  0  0  0  0  0  0  0  # atno 17320 bound_to 7965
  146.1042  139.4040  143.0328 LP  0  0  0  0  0  0  0  0  0  0  0  0  # atno 17321 bound_to 7965
  140.2641  144.4035  150.6175 LP  0  0  0  0  0  0  0  0  0  0  0  0  # atno 17342 bound_to 10162
  140.6136  143.2171  151.6837 LP  0  0  0  0  0  0  0  0  0  0  0  0  # atno 17343 bound_to 10162
  157.7367  130.9783  150.2150 LP  0  0  0  0  0  0  0  0  0  0  0  0  # atno 17370 bound_to 10713
  156.2792  130.3731  149.7953 LP  0  0  0  0  0  0  0  0  0  0  0  0  # atno 17371 bound_to 10713
  140.4827  134.1273  155.7219 LP  0  0  0  0  0  0  0  0  0  0  0  0  # atno 17394 bound_to 11000
  141.1600  133.8810  157.1873 LP  0  0  0  0  0  0  0  0  0  0  0  0  # atno 17395 bound_to 11000

$$$$
