AV-unprocessed.smi:1346|AV-procd|sdf|5513|dock2
  -GOLD-   22720 5 93D 1   1.00000     0.00000
 Structure written by MMmdl.
 47 48  0  0  0  0  0  0  0  0  1 V2000
  140.1783  137.8344  154.8965 C   0  0  0  0  0  0  0  0  0  0  0  0
  140.7515  136.6666  154.1465 C   0  0  0  0  0  0  0  0  0  0  0  0
  140.1362  135.4976  154.2036 N   0  0  0  0  0  0  0  0  0  0  0  0
  140.8945  134.6263  153.4162 O   0  0  0  0  0  0  0  0  0  0  0  0
  141.9506  135.3126  152.9112 C   0  0  0  0  0  0  0  0  0  0  0  0
  142.8825  134.5476  152.0334 C   0  0  0  0  0  0  0  0  0  0  0  0
  141.9233  136.6124  153.3372 C   0  0  0  0  0  0  0  0  0  0  0  0
  142.8928  137.7235  153.0257 C   0  0  0  0  0  0  0  0  0  0  0  0
  144.2594  137.3993  153.6294 C   0  0  0  0  0  0  0  0  0  0  0  0
  144.5870  136.2275  153.8165 O   0  0  0  0  0  0  0  0  0  0  0  0
  145.0452  138.4443  153.9304 N   0  0  0  0  0  0  0  0  0  0  0  0
  146.3735  138.3552  154.5261 C   0  0  0  0  0  0  0  0  0  0  0  0
  147.3634  139.3232  153.8617 C   0  0  0  0  0  0  0  0  0  0  0  0
  148.6668  139.0776  154.3675 O   0  0  0  0  0  0  0  0  0  0  0  0
  149.5589  140.1793  154.2380 C   0  0  1  0  0  0  0  0  0  0  0  0
  148.8787  141.4179  154.8495 C   0  0  0  0  0  0  0  0  0  0  0  0
  148.6904  141.2785  156.3693 C   0  0  0  0  0  0  0  0  0  0  0  0
  150.0229  140.9742  157.0698 C   0  0  0  0  0  0  0  0  0  0  0  0
  150.6923  139.7248  156.4754 C   0  0  0  0  0  0  0  0  0  0  0  0
  150.8928  139.8606  154.9527 C   0  0  1  0  0  0  0  0  0  0  0  0
  151.5957  138.6296  154.3600 C   0  0  0  0  0  0  0  0  0  0  0  0
  140.5430  138.7808  154.4982 H   0  0  0  0  0  0  0  0  0  0  0  0
  140.4499  137.7910  155.9514 H   0  0  0  0  0  0  0  0  0  0  0  0
  139.0898  137.8505  154.8322 H   0  0  0  0  0  0  0  0  0  0  0  0
  143.5243  135.2193  151.4631 H   0  0  0  0  0  0  0  0  0  0  0  0
  142.3288  133.9317  151.3245 H   0  0  0  0  0  0  0  0  0  0  0  0
  143.5207  133.8928  152.6264 H   0  0  0  0  0  0  0  0  0  0  0  0
  142.9891  137.8795  151.9504 H   0  0  0  0  0  0  0  0  0  0  0  0
  142.5515  138.6748  153.4352 H   0  0  0  0  0  0  0  0  0  0  0  0
  144.6928  139.3718  153.7435 H   0  0  0  0  0  0  0  0  0  0  0  0
  146.3110  138.5564  155.5967 H   0  0  0  0  0  0  0  0  0  0  0  0
  146.7301  137.3302  154.4228 H   0  0  0  0  0  0  0  0  0  0  0  0
  147.3430  139.2046  152.7774 H   0  0  0  0  0  0  0  0  0  0  0  0
  147.0771  140.3529  154.0798 H   0  0  0  0  0  0  0  0  0  0  0  0
  149.7647  140.3939  153.1870 H   0  0  0  0  0  0  0  0  0  0  0  0
  149.4860  142.3001  154.6433 H   0  0  0  0  0  0  0  0  0  0  0  0
  147.9155  141.5898  154.3680 H   0  0  0  0  0  0  0  0  0  0  0  0
  148.2578  142.1933  156.7751 H   0  0  0  0  0  0  0  0  0  0  0  0
  147.9769  140.4809  156.5795 H   0  0  0  0  0  0  0  0  0  0  0  0
  150.6921  141.8297  156.9700 H   0  0  0  0  0  0  0  0  0  0  0  0
  149.8574  140.8344  158.1384 H   0  0  0  0  0  0  0  0  0  0  0  0
  151.6535  139.5615  156.9639 H   0  0  0  0  0  0  0  0  0  0  0  0
  150.0838  138.8459  156.6929 H   0  0  0  0  0  0  0  0  0  0  0  0
  151.5561  140.7112  154.7882 H   0  0  0  0  0  0  0  0  0  0  0  0
  151.0137  137.7219  154.5208 H   0  0  0  0  0  0  0  0  0  0  0  0
  152.5735  138.4788  154.8180 H   0  0  0  0  0  0  0  0  0  0  0  0
  151.7481  138.7426  153.2863 H   0  0  0  0  0  0  0  0  0  0  0  0
  1  2  1  0  0  0  0
  1 22  1  0  0  0  0
  1 23  1  0  0  0  0
  1 24  1  0  0  0  0
  2  7  1  0  0  0  0
  2  3  2  0  0  0  0
  3  4  1  0  0  0  0
  4  5  1  0  0  0  0
  5  6  1  0  0  0  0
  5  7  2  0  0  0  0
  6 25  1  0  0  0  0
  6 26  1  0  0  0  0
  6 27  1  0  0  0  0
  7  8  1  0  0  0  0
  8  9  1  0  0  0  0
  8 28  1  0  0  0  0
  8 29  1  0  0  0  0
  9 10  2  0  0  0  0
  9 11  1  0  0  0  0
 11 12  1  0  0  0  0
 11 30  1  0  0  0  0
 12 13  1  0  0  0  0
 12 31  1  0  0  0  0
 12 32  1  0  0  0  0
 13 14  1  0  0  0  0
 13 33  1  0  0  0  0
 13 34  1  0  0  0  0
 14 15  1  0  0  0  0
 15 20  1  0  0  0  0
 15 16  1  0  0  0  0
 15 35  1  0  0  0  0
 16 17  1  0  0  0  0
 16 36  1  0  0  0  0
 16 37  1  0  0  0  0
 17 18  1  0  0  0  0
 17 38  1  0  0  0  0
 17 39  1  0  0  0  0
 18 19  1  0  0  0  0
 18 40  1  0  0  0  0
 18 41  1  0  0  0  0
 19 20  1  0  0  0  0
 19 42  1  0  0  0  0
 19 43  1  0  0  0  0
 20 21  1  0  0  0  0
 20 44  1  0  0  0  0
 21 45  1  0  0  0  0
 21 46  1  0  0  0  0
 21 47  1  0  0  0  0
M  END
> <s_m_source_file>
AV-unprocessed.smi

> <i_m_source_file_index>
1346

> <i_lp_mmshare_version>
43012

> <i_f3d_flags>
0

> <s_epik_input>
W0NIM11jMW5vYyhbQ0gzXSljMVtDSDJdQyg9TylbTkhdW0NIMl1bQ0gyXU9bQ0BASF0yW0NIMl1bQ0gyXVtDSDJdW0NIMl1bQ0BIXTJbQ0gzXQ==

> <s_epik_cmdline>
J2VwaWtfcHl0aG9uJywgJy1waCcsICc3LjAnLCAnLXRuJywgJzgnLCAnLW1hJywgJzIwMCcsICctbWV0YWxfYmluZGluZycsICctaW1hZScsICc8aW5maWxlLm1hZT4nLCAnLW9tYWUnLCAnPG91dGZpbGUubWFlPic=

> <r_lp_tautomer_probability>
1

> <r_epik_Ionization_Penalty>
3.26154e-08

> <r_epik_Ionization_Penalty_Charging>
0

> <r_epik_Ionization_Penalty_Neutral>
3.26154e-08

> <r_epik_State_Penalty>
-0

> <r_epik_Charging_Adjusted_Penalty>
0

> <i_epik_Tot_Q>
0

> <i_epik_Tot_abs_Q>
0

> <r_epik_Metal_State_Penalty>
-0

> <b_epik_Metal_Only>
0

> <s_lp_Force_Field>
OPLS_2005

> <r_lp_Energy>
6.45158

> <b_lp_Chiralities_Consistent>
1

> <s_lp_Variant>
AV-unprocessed.smi:1346-2

> <Gold.Version>
5.8.1

> <Gold.Id.Protein>
6NUR|6NUR_protein|mol2

> <Gold.PLP.Fitness>
39.0060

> <Gold.PLP.PLP>
-34.2186

> <Gold.PLP.part.hbond>
-3.8227

> <Gold.PLP.part.metal>
0.0000

> <Gold.PLP.part.buried>
-2.5042

> <Gold.PLP.part.nonpolar>
-26.8968

> <Gold.PLP.part.repulsive>
0.5564

> <Gold.PLP.ligand.clash>
0.0000

> <Gold.PLP.ligand.torsion>
0.6579

> <Gold.PLP.Chemscore.Hbond>
2.0000

> <Gold.PLP.Chemscore.CHOScore>
0.0000

> <Gold.PLP.Chemscore.Metal>
0.0000

> <Gold.Chemscore.Hbonds>
donor molecule, donor type, donor heavy atom, donor atom, acceptor molecule, acceptor atom, score
      L1  H    11    30       P1 10175  0.90
      P1  H 11000 11005       L1     3  0.95

> <Gold.PLP.Chemscore.Internal.Correction>
0.1033

> <Gold.Rescore>
     Score         DG    S(hbond)    S(metal)    S(lipo)     H(rot)  DE(clash)    DE(int)     intcor
     14.89     -16.39       1.87        0.00      77.89       1.74       0.53       0.97       ----

> <Gold.Chemscore.Fitness>
14.8866

> <Gold.Chemscore.DG>
-16.3881

> <Gold.Chemscore.ZeroCoef>
-5.4800

> <Gold.Chemscore.Hbond>
1.8673

> <Gold.Chemscore.Metal>
0.0000

> <Gold.Chemscore.Lipo>
77.8924

> <Gold.Chemscore.Internal_Hbond>
0.0000

> <Gold.Chemscore.DEClash>
0.5326

> <Gold.Chemscore.DEInternal>
0.9689

> <Gold.Chemscore.Rot>
1.7352

> <Gold.Chemscore.Internal.Correction>
   9.000000E+99

> <Gold.Chemscore.Hbonds>
donor molecule, donor type, donor heavy atom, donor atom, acceptor molecule, acceptor atom, score
      L1  H    11    30       P1 10175  0.87
      P1  H 11000 11005       L1     3  0.21

> <Gold.Chemscore.Hbond.Weighted>
-6.2368

> <Gold.Chemscore.Metal.Weighted>
-0.0000

> <Gold.Chemscore.Lipo.Weighted>
-9.1134

> <Gold.Chemscore.Internal_Hbond.Weighted>
0.0000

> <Gold.Chemscore.DEClash.Weighted>
0.5326

> <Gold.Chemscore.DEInternal.Weighted>
0.9689

> <Gold.Chemscore.Rot.Weighted>
4.4420

> <Gold.Chemscore.Internal.Correction.Weighted>
   9.000000E+99

> <Gold.Protein.RotatedTorsions>
[ 6907 6896 6895 6894 ] final   72.19 input  -60.11 | X-H torsion
[ 7974 7965 7964 7962 ] final -109.69 input  175.53 | X-H torsion
[ 8008 7997 7996 7995 ] final   45.80 input   59.86 | X-H torsion
[ 10167 10162 10161 10158 ] final -141.19 input  -65.29 | X-H torsion
[ 10718 10713 10712 10709 ] final   36.17 input   66.30 | X-H torsion
[ 10763 10752 10751 10750 ] final  -51.05 input  -60.55 | X-H torsion
[ 11005 11000 10999 10996 ] final   48.26 input  -57.11 | X-H torsion

> <Gold.Protein.ActiveResidues>
 VAL166  LYS551  ARG553  GLY616  TRP617  ASP618  TYR619  PRO620  LYS621  CYS622 
 ASP623  PHE694  ASN695  SER759  ASP760  ASP761  ALA762  ILE779  LEU786  VAL792 
 PHE793  MET794  SER795  GLU796  ALA797  LYS798  CYS799  TRP800  GLU811  SER814 

> <Gold.Protein.RotatedAtoms>
  152.4854  134.4608  159.9604 H   0  0  0  0  0  0  0  0  0  0  0  0  # atno 6907 bound_to 6896
  151.4605  133.3588  159.2816 H   0  0  0  0  0  0  0  0  0  0  0  0  # atno 6908 bound_to 6896
  150.8959  134.8393  159.7387 H   0  0  0  0  0  0  0  0  0  0  0  0  # atno 6909 bound_to 6896
  145.1774  140.8955  143.3500 H   0  0  0  0  0  0  0  0  0  0  0  0  # atno 7974 bound_to 7965
  155.3419  140.3408  155.4239 H   0  0  0  0  0  0  0  0  0  0  0  0  # atno 8008 bound_to 7997
  156.1809  140.1663  156.8312 H   0  0  0  0  0  0  0  0  0  0  0  0  # atno 8009 bound_to 7997
  154.5332  140.0740  156.8365 H   0  0  0  0  0  0  0  0  0  0  0  0  # atno 8010 bound_to 7997
  139.8208  143.7576  152.2666 H   0  0  0  0  0  0  0  0  0  0  0  0  # atno 10167 bound_to 10162
  157.3316  130.7501  149.6851 H   0  0  0  0  0  0  0  0  0  0  0  0  # atno 10718 bound_to 10713
  154.1202  135.6536  153.4901 H   0  0  0  0  0  0  0  0  0  0  0  0  # atno 10763 bound_to 10752
  153.0228  135.5268  154.7104 H   0  0  0  0  0  0  0  0  0  0  0  0  # atno 10764 bound_to 10752
  154.6309  135.2976  155.0187 H   0  0  0  0  0  0  0  0  0  0  0  0  # atno 10765 bound_to 10752
  140.1206  134.4834  155.8600 H   0  0  0  0  0  0  0  0  0  0  0  0  # atno 11005 bound_to 11000
  145.0171  139.3457  143.6091 LP  0  0  0  0  0  0  0  0  0  0  0  0  # atno 17320 bound_to 7965
  146.3459  139.9457  142.8735 LP  0  0  0  0  0  0  0  0  0  0  0  0  # atno 17321 bound_to 7965
  139.7754  144.7463  151.0164 LP  0  0  0  0  0  0  0  0  0  0  0  0  # atno 17342 bound_to 10162
  140.7813  143.4599  151.0292 LP  0  0  0  0  0  0  0  0  0  0  0  0  # atno 17343 bound_to 10162
  155.9696  130.4193  150.4370 LP  0  0  0  0  0  0  0  0  0  0  0  0  # atno 17370 bound_to 10713
  157.2403  131.0524  151.2440 LP  0  0  0  0  0  0  0  0  0  0  0  0  # atno 17371 bound_to 10713
  141.2151  133.6759  156.6882 LP  0  0  0  0  0  0  0  0  0  0  0  0  # atno 17394 bound_to 11000
  140.2970  134.8195  157.4065 LP  0  0  0  0  0  0  0  0  0  0  0  0  # atno 17395 bound_to 11000

$$$$
