AV-unprocessed.smi:734|AV-procd|sdf|3531|dock4
  -GOLD-   22720 0523D 1   1.00000     0.00000
 Structure written by MMmdl.
 38 39  0  0  0  0  0  0  0  0  3 V2000
  148.5366  141.3937  154.3460 C   0  0  0  0  0  0  0  0  0  0  0  0
  149.2297  140.6889  155.5212 C   0  0  0  0  0  0  0  0  0  0  0  0
  150.1650  141.6146  156.3127 C   0  0  0  0  0  0  0  0  0  0  0  0
  149.9127  139.4260  155.0981 C   0  0  0  0  0  0  0  0  0  0  0  0
  150.9779  139.4063  154.2910 N   0  0  0  0  0  0  0  0  0  0  0  0
  151.4320  138.1178  154.0525 N   0  0  0  0  0  0  0  0  0  0  0  0
  150.7137  137.1814  154.6875 C   0  0  0  0  0  0  0  0  0  0  0  0
  150.9939  135.8710  154.5923 N   0  5  0  0  0  0  0  0  0  0  0  0
  150.0409  134.9566  154.8791 C   0  0  0  0  0  0  0  0  0  0  0  0
  150.1555  133.9960  155.6443 O   0  0  0  0  0  0  0  0  0  0  0  0
  148.8784  135.1701  154.2466 N   0  0  0  0  0  0  0  0  0  0  0  0
  147.6787  134.3535  154.3831 C   0  0  0  0  0  0  0  0  0  0  0  0
  146.4763  135.0025  153.6740 C   0  0  0  0  0  0  0  0  0  0  0  0
  146.5317  134.8157  152.2065 N   0  3  0  0  0  0  0  0  0  0  0  0
  145.3341  135.3327  151.4859 C   0  0  0  0  0  0  0  0  0  0  0  0
  145.1033  134.3034  150.4157 C   0  0  0  0  0  0  0  0  0  0  0  0
  145.9041  133.2550  150.5686 C   0  0  0  0  0  0  0  0  0  0  0  0
  146.7984  133.4162  151.7651 C   0  0  0  0  0  0  0  0  0  0  0  0
  149.3757  137.8396  155.6279 S   0  0  0  0  0  0  0  0  0  0  0  0
  147.8207  140.7309  153.8586 H   0  0  0  0  0  0  0  0  0  0  0  0
  149.2590  141.7144  153.5944 H   0  0  0  0  0  0  0  0  0  0  0  0
  147.9934  142.2771  154.6824 H   0  0  0  0  0  0  0  0  0  0  0  0
  148.4378  140.3930  156.2105 H   0  0  0  0  0  0  0  0  0  0  0  0
  150.5746  141.1042  157.1848 H   0  0  0  0  0  0  0  0  0  0  0  0
  149.6357  142.4999  156.6656 H   0  0  0  0  0  0  0  0  0  0  0  0
  151.0020  141.9502  155.6998 H   0  0  0  0  0  0  0  0  0  0  0  0
  148.8274  135.9640  153.6247 H   0  0  0  0  0  0  0  0  0  0  0  0
  147.8833  133.3748  153.9489 H   0  0  0  0  0  0  0  0  0  0  0  0
  147.4722  134.1863  155.4413 H   0  0  0  0  0  0  0  0  0  0  0  0
  145.5337  134.6037  154.0523 H   0  0  0  0  0  0  0  0  0  0  0  0
  146.4735  136.0717  153.8915 H   0  0  0  0  0  0  0  0  0  0  0  0
  144.4563  135.3897  152.1313 H   0  0  0  0  0  0  0  0  0  0  0  0
  145.5306  136.3170  151.0602 H   0  0  0  0  0  0  0  0  0  0  0  0
  144.3563  134.4194  149.6442 H   0  0  0  0  0  0  0  0  0  0  0  0
  145.9183  132.3749  149.9425 H   0  0  0  0  0  0  0  0  0  0  0  0
  147.8478  133.2837  151.5007 H   0  0  0  0  0  0  0  0  0  0  0  0
  146.5255  132.6827  152.5252 H   0  0  0  0  0  0  0  0  0  0  0  0
  147.3082  135.3664  151.8694 H   0  0  0  0  0  0  0  0  0  0  0  0
  1  2  1  0  0  0  0
  1 20  1  0  0  0  0
  1 21  1  0  0  0  0
  1 22  1  0  0  0  0
  2  3  1  0  0  0  0
  2  4  1  0  0  0  0
  2 23  1  0  0  0  0
  3 24  1  0  0  0  0
  3 25  1  0  0  0  0
  3 26  1  0  0  0  0
  4 19  1  0  0  0  0
  4  5  2  0  0  0  0
  5  6  1  0  0  0  0
  6  7  2  0  0  0  0
  7  8  1  0  0  0  0
  7 19  1  0  0  0  0
  8  9  1  0  0  0  0
  9 10  2  0  0  0  0
  9 11  1  0  0  0  0
 11 12  1  0  0  0  0
 11 27  1  0  0  0  0
 12 13  1  0  0  0  0
 12 28  1  0  0  0  0
 12 29  1  0  0  0  0
 13 14  1  0  0  0  0
 13 30  1  0  0  0  0
 13 31  1  0  0  0  0
 14 18  1  0  0  0  0
 14 15  1  0  0  0  0
 14 38  1  0  0  0  0
 15 16  1  0  0  0  0
 15 32  1  0  0  0  0
 15 33  1  0  0  0  0
 16 17  2  0  0  0  0
 16 34  1  0  0  0  0
 17 18  1  0  0  0  0
 17 35  1  0  0  0  0
 18 36  1  0  0  0  0
 18 37  1  0  0  0  0
M  CHG  1   8  -1
M  CHG  1  14   1
M  END
> <s_m_source_file>
AV-unprocessed.smi

> <i_m_source_file_index>
734

> <i_lp_mmshare_version>
43012

> <i_f3d_flags>
0

> <s_epik_input>
W0NIM11bQ0hdKFtDSDNdKWMxbm5jKHMxKVtOSF1DKD1PKVtOSF1bQ0gyXVtDSDJdTjJbQ0gyXVtDSF09W0NIXVtDSDJdMg==

> <s_epik_cmdline>
J2VwaWtfcHl0aG9uJywgJy1waCcsICc3LjAnLCAnLXRuJywgJzgnLCAnLW1hJywgJzIwMCcsICctbWV0YWxfYmluZGluZycsICctaW1hZScsICc8aW5maWxlLm1hZT4nLCAnLW9tYWUnLCAnPG91dGZpbGUubWFlPic=

> <r_lp_tautomer_probability>
1

> <r_epik_Ionization_Penalty>
3.04352

> <r_epik_Ionization_Penalty_Charging>
2.92732

> <r_epik_Ionization_Penalty_Neutral>
0.116198

> <r_epik_State_Penalty>
2.92347

> <r_epik_Charging_Adjusted_Penalty>
5.85079

> <i_epik_Tot_Q>
0

> <i_epik_Tot_abs_Q>
2

> <r_epik_Metal_State_Penalty>
0.448048

> <b_epik_Metal_Only>
1

> <s_lp_Force_Field>
OPLS_2005

> <r_lp_Energy>
6.61646

> <b_lp_Chiralities_Consistent>
1

> <s_lp_Variant>
AV-unprocessed.smi:734-2

> <Gold.Version>
5.8.1

> <Gold.Id.Protein>
6NUR|6NUR_protein|mol2

> <Gold.PLP.Fitness>
45.6105

> <Gold.PLP.PLP>
-29.1870

> <Gold.PLP.part.hbond>
-4.0000

> <Gold.PLP.part.metal>
0.0000

> <Gold.PLP.part.buried>
-2.5785

> <Gold.PLP.part.nonpolar>
-22.9436

> <Gold.PLP.part.repulsive>
0.5624

> <Gold.PLP.ligand.clash>
0.0000

> <Gold.PLP.ligand.torsion>
0.7371

> <Gold.PLP.Chemscore.Hbond>
5.8480

> <Gold.PLP.Chemscore.CHOScore>
0.0000

> <Gold.PLP.Chemscore.Metal>
0.0000

> <Gold.Chemscore.Hbonds>
donor molecule, donor type, donor heavy atom, donor atom, acceptor molecule, acceptor atom, score
      L1  H    11    27       P1  7948  0.70
      L1  H    14    38       P1  7948  2.00
      P1  H  7989  7998       L1     5  1.00
      P1  H 10752 10765       L1     8  1.98

> <Gold.PLP.Chemscore.Internal.Correction>
0.3537

> <Gold.Rescore>
     Score         DG    S(hbond)    S(metal)    S(lipo)     H(rot)  DE(clash)    DE(int)     intcor
     19.08     -19.96       3.67        0.00      55.96       1.68       0.04       0.84       ----

> <Gold.Chemscore.Fitness>
19.0780

> <Gold.Chemscore.DG>
-19.9581

> <Gold.Chemscore.ZeroCoef>
-5.4800

> <Gold.Chemscore.Hbond>
3.6652

> <Gold.Chemscore.Metal>
0.0000

> <Gold.Chemscore.Lipo>
55.9572

> <Gold.Chemscore.Internal_Hbond>
0.0000

> <Gold.Chemscore.DEClash>
0.0361

> <Gold.Chemscore.DEInternal>
0.8440

> <Gold.Chemscore.Rot>
1.6839

> <Gold.Chemscore.Internal.Correction>
   9.000000E+99

> <Gold.Chemscore.Hbonds>
donor molecule, donor type, donor heavy atom, donor atom, acceptor molecule, acceptor atom, score
      L1  H    11    27       P1  7948  0.69
      L1  H    14    38       P1  7948  0.99
      P1  H  7989  7998       L1     5  0.99
      P1  H 10752 10765       L1     8  0.69

> <Gold.Chemscore.Hbond.Weighted>
-12.2419

> <Gold.Chemscore.Metal.Weighted>
-0.0000

> <Gold.Chemscore.Lipo.Weighted>
-6.5470

> <Gold.Chemscore.Internal_Hbond.Weighted>
0.0000

> <Gold.Chemscore.DEClash.Weighted>
0.0361

> <Gold.Chemscore.DEInternal.Weighted>
0.8440

> <Gold.Chemscore.Rot.Weighted>
4.3108

> <Gold.Chemscore.Internal.Correction.Weighted>
   9.000000E+99

> <Gold.Protein.RotatedTorsions>
[ 6907 6896 6895 6894 ] final  -78.30 input  -60.11 | X-H torsion
[ 7974 7965 7964 7962 ] final  -98.00 input  175.53 | X-H torsion
[ 8008 7997 7996 7995 ] final   60.45 input   59.86 | X-H torsion
[ 10167 10162 10161 10158 ] final   68.35 input  -65.29 | X-H torsion
[ 10718 10713 10712 10709 ] final  -54.70 input   66.30 | X-H torsion
[ 10763 10752 10751 10750 ] final -169.29 input  -60.55 | X-H torsion
[ 11005 11000 10999 10996 ] final   91.37 input  -57.11 | X-H torsion

> <Gold.Protein.ActiveResidues>
 VAL166  LYS551  ARG553  GLY616  TRP617  ASP618  TYR619  PRO620  LYS621  CYS622 
 ASP623  PHE694  ASN695  SER759  ASP760  ASP761  ALA762  ILE779  LEU786  VAL792 
 PHE793  MET794  SER795  GLU796  ALA797  LYS798  CYS799  TRP800  GLU811  SER814 

> <Gold.Protein.RotatedAtoms>
  150.6976  134.4292  159.5240 H   0  0  0  0  0  0  0  0  0  0  0  0  # atno 6907 bound_to 6896
  152.2022  134.8575  160.0516 H   0  0  0  0  0  0  0  0  0  0  0  0  # atno 6908 bound_to 6896
  151.9491  133.3625  159.4030 H   0  0  0  0  0  0  0  0  0  0  0  0  # atno 6909 bound_to 6896
  145.3263  140.9432  143.2687 H   0  0  0  0  0  0  0  0  0  0  0  0  # atno 7974 bound_to 7965
  155.5825  140.3491  155.4544 H   0  0  0  0  0  0  0  0  0  0  0  0  # atno 8008 bound_to 7997
  156.0362  140.1285  157.0230 H   0  0  0  0  0  0  0  0  0  0  0  0  # atno 8009 bound_to 7997
  154.4372  140.1033  156.6156 H   0  0  0  0  0  0  0  0  0  0  0  0  # atno 8010 bound_to 7997
  140.0796  144.5082  150.7171 H   0  0  0  0  0  0  0  0  0  0  0  0  # atno 10167 bound_to 10162
  156.1429  130.4154  150.0073 H   0  0  0  0  0  0  0  0  0  0  0  0  # atno 10718 bound_to 10713
  154.6539  135.2915  154.9952 H   0  0  0  0  0  0  0  0  0  0  0  0  # atno 10763 bound_to 10752
  154.1036  135.6573  153.4876 H   0  0  0  0  0  0  0  0  0  0  0  0  # atno 10764 bound_to 10752
  153.0391  135.5248  154.7459 H   0  0  0  0  0  0  0  0  0  0  0  0  # atno 10765 bound_to 10752
  139.8840  134.8670  156.3418 H   0  0  0  0  0  0  0  0  0  0  0  0  # atno 11005 bound_to 11000
  144.8899  139.4788  143.6683 LP  0  0  0  0  0  0  0  0  0  0  0  0  # atno 17320 bound_to 7965
  146.3063  139.7591  142.9054 LP  0  0  0  0  0  0  0  0  0  0  0  0  # atno 17321 bound_to 7965
  140.7084  143.2486  151.4655 LP  0  0  0  0  0  0  0  0  0  0  0  0  # atno 17342 bound_to 10162
  139.5787  144.1759  152.1939 LP  0  0  0  0  0  0  0  0  0  0  0  0  # atno 17343 bound_to 10162
  156.7953  130.9271  151.3646 LP  0  0  0  0  0  0  0  0  0  0  0  0  # atno 17370 bound_to 10713
  157.6591  130.8950  149.9792 LP  0  0  0  0  0  0  0  0  0  0  0  0  # atno 17371 bound_to 10713
  140.9653  133.7362  156.0458 LP  0  0  0  0  0  0  0  0  0  0  0  0  # atno 17394 bound_to 11000
  140.7938  134.3587  157.5457 LP  0  0  0  0  0  0  0  0  0  0  0  0  # atno 17395 bound_to 11000

$$$$
