AV-unprocessed.smi:3056|AV-procd|sdf|11652|dock10
  -GOLD-   2272017 53D 1   1.00000     0.00000
 Structure written by MMmdl.
 48 49  0  0  0  0  0  0  0  0  2 V2000
  146.3691  138.4742  152.0866 C   0  0  0  0  0  0  0  0  0  0  0  0
  146.6273  139.2015  153.3746 C   0  0  0  0  0  0  0  0  0  0  0  0
  146.2378  138.8179  154.6890 C   0  0  0  0  0  0  0  0  0  0  0  0
  146.6186  139.6860  155.6118 N   0  0  0  0  0  0  0  0  0  0  0  0
  147.2658  140.6517  154.9248 N   0  0  0  0  0  0  0  0  0  0  0  0
  147.8195  141.7978  155.6350 C   0  0  1  0  0  0  0  0  0  0  0  0
  146.6962  142.5363  156.3855 C   0  0  0  0  0  0  0  0  0  0  0  0
  149.0002  141.3875  156.5552 C   0  0  1  0  0  0  0  0  0  0  0  0
  150.1809  140.7683  155.7852 C   0  0  0  0  0  0  0  0  0  0  0  0
  149.4947  142.5549  157.3191 N   0  3  0  0  0  0  0  0  0  0  0  0
  150.8162  142.3709  157.9585 C   0  0  0  0  0  0  0  0  0  0  0  0
  150.9905  143.2437  159.2104 C   0  0  0  0  0  0  0  0  0  0  0  0
  150.0637  143.9802  159.5531 O   0  0  0  0  0  0  0  0  0  0  0  0
  152.1556  143.1796  159.8984 N   0  0  0  0  0  0  0  0  0  0  0  0
  152.4712  143.9055  161.1329 C   0  0  0  0  0  0  0  0  0  0  0  0
  152.7022  142.8785  162.2554 C   0  0  0  0  0  0  0  0  0  0  0  0
  153.7437  141.9811  161.8792 O   0  0  0  0  0  0  0  0  0  0  0  0
  153.4716  141.2722  160.6716 C   0  0  2  0  0  0  0  0  0  0  0  0
  154.6459  140.3272  160.3948 C   0  0  0  0  0  0  0  0  0  0  0  0
  153.2579  142.2864  159.5298 C   0  0  0  0  0  0  0  0  0  0  0  0
  147.2838  140.3832  153.5707 C   0  0  0  0  0  0  0  0  0  0  0  0
  146.1770  137.4138  152.2516 H   0  0  0  0  0  0  0  0  0  0  0  0
  147.2180  138.5434  151.4061 H   0  0  0  0  0  0  0  0  0  0  0  0
  145.5031  138.8799  151.5634 H   0  0  0  0  0  0  0  0  0  0  0  0
  145.6902  137.9394  154.9974 H   0  0  0  0  0  0  0  0  0  0  0  0
  148.2093  142.4852  154.8814 H   0  0  0  0  0  0  0  0  0  0  0  0
  147.0472  143.4800  156.8025 H   0  0  0  0  0  0  0  0  0  0  0  0
  146.2991  141.9365  157.2050 H   0  0  0  0  0  0  0  0  0  0  0  0
  145.8684  142.7713  155.7154 H   0  0  0  0  0  0  0  0  0  0  0  0
  148.6456  140.6279  157.2543 H   0  0  0  0  0  0  0  0  0  0  0  0
  149.9022  139.8360  155.2935 H   0  0  0  0  0  0  0  0  0  0  0  0
  151.0079  140.5375  156.4575 H   0  0  0  0  0  0  0  0  0  0  0  0
  150.5552  141.4494  155.0200 H   0  0  0  0  0  0  0  0  0  0  0  0
  149.5678  143.3385  156.6858 H   0  0  0  0  0  0  0  0  0  0  0  0
  150.9354  141.3221  158.2317 H   0  0  0  0  0  0  0  0  0  0  0  0
  151.5941  142.6232  157.2363 H   0  0  0  0  0  0  0  0  0  0  0  0
  153.3739  144.4981  160.9782 H   0  0  0  0  0  0  0  0  0  0  0  0
  151.7018  144.6111  161.4415 H   0  0  0  0  0  0  0  0  0  0  0  0
  152.9896  143.3844  163.1773 H   0  0  0  0  0  0  0  0  0  0  0  0
  151.7879  142.3221  162.4674 H   0  0  0  0  0  0  0  0  0  0  0  0
  152.5681  140.6750  160.8071 H   0  0  0  0  0  0  0  0  0  0  0  0
  154.4771  139.7460  159.4879 H   0  0  0  0  0  0  0  0  0  0  0  0
  154.7833  139.6253  161.2177 H   0  0  0  0  0  0  0  0  0  0  0  0
  155.5771  140.8801  160.2695 H   0  0  0  0  0  0  0  0  0  0  0  0
  153.0778  141.7556  158.5938 H   0  0  0  0  0  0  0  0  0  0  0  0
  154.1616  142.8770  159.3720 H   0  0  0  0  0  0  0  0  0  0  0  0
  147.7555  141.0499  152.8638 H   0  0  0  0  0  0  0  0  0  0  0  0
  148.8172  142.7882  158.0310 H   0  0  0  0  0  0  0  0  0  0  0  0
  1  2  1  0  0  0  0
  1 22  1  0  0  0  0
  1 23  1  0  0  0  0
  1 24  1  0  0  0  0
  2 21  2  0  0  0  0
  2  3  1  0  0  0  0
  3  4  2  0  0  0  0
  3 25  1  0  0  0  0
  4  5  1  0  0  0  0
  5  6  1  0  0  0  0
  5 21  1  0  0  0  0
  6  7  1  0  0  0  0
  6  8  1  0  0  0  0
  6 26  1  0  0  0  0
  7 27  1  0  0  0  0
  7 28  1  0  0  0  0
  7 29  1  0  0  0  0
  8  9  1  0  0  0  0
  8 10  1  0  0  0  0
  8 30  1  0  0  0  0
  9 31  1  0  0  0  0
  9 32  1  0  0  0  0
  9 33  1  0  0  0  0
 10 11  1  0  0  0  0
 10 34  1  0  0  0  0
 10 48  1  0  0  0  0
 11 12  1  0  0  0  0
 11 35  1  0  0  0  0
 11 36  1  0  0  0  0
 12 13  2  0  0  0  0
 12 14  1  0  0  0  0
 14 20  1  0  0  0  0
 14 15  1  0  0  0  0
 15 16  1  0  0  0  0
 15 37  1  0  0  0  0
 15 38  1  0  0  0  0
 16 17  1  0  0  0  0
 16 39  1  0  0  0  0
 16 40  1  0  0  0  0
 17 18  1  0  0  0  0
 18 19  1  0  0  0  0
 18 20  1  0  0  0  0
 18 41  1  0  0  0  0
 19 42  1  0  0  0  0
 19 43  1  0  0  0  0
 19 44  1  0  0  0  0
 20 45  1  0  0  0  0
 20 46  1  0  0  0  0
 21 47  1  0  0  0  0
M  CHG  1  10   1
M  END
> <s_m_source_file>
AV-unprocessed.smi

> <i_m_source_file_index>
3056

> <i_lp_mmshare_version>
43012

> <i_f3d_flags>
0

> <s_epik_input>
W0NIM11jMVtjSF1ubihbY0hdMSlbQ0BIXShbQ0gzXSlbQ0BIXShbQ0gzXSlbTkhdW0NIMl1DKD1PKU4yW0NIMl1bQ0gyXU9bQ0BASF0oW0NIM10pW0NIMl0y

> <s_epik_cmdline>
J2VwaWtfcHl0aG9uJywgJy1waCcsICc3LjAnLCAnLXRuJywgJzgnLCAnLW1hJywgJzIwMCcsICctbWV0YWxfYmluZGluZycsICctaW1hZScsICc8aW5maWxlLm1hZT4nLCAnLW9tYWUnLCAnPG91dGZpbGUubWFlPic=

> <r_lp_tautomer_probability>
1

> <r_epik_Ionization_Penalty>
0.233715

> <r_epik_Ionization_Penalty_Charging>
0.233698

> <r_epik_Ionization_Penalty_Neutral>
1.68157e-05

> <r_epik_State_Penalty>
0.225221

> <r_epik_Charging_Adjusted_Penalty>
0.458919

> <i_epik_Tot_Q>
1

> <i_epik_Tot_abs_Q>
1

> <r_epik_Metal_State_Penalty>
0.225535

> <b_epik_Metal_Only>
0

> <s_lp_Force_Field>
OPLS_2005

> <r_lp_Energy>
28.8948

> <b_lp_Chiralities_Consistent>
1

> <s_lp_Variant>
AV-unprocessed.smi:3056-8

> <Gold.Version>
5.8.1

> <Gold.Id.Protein>
6NUR|6NUR_protein|mol2

> <Gold.PLP.Fitness>
51.0131

> <Gold.PLP.PLP>
-44.5344

> <Gold.PLP.part.hbond>
-2.4358

> <Gold.PLP.part.metal>
0.0000

> <Gold.PLP.part.buried>
-0.2051

> <Gold.PLP.part.nonpolar>
-40.0567

> <Gold.PLP.part.repulsive>
0.1823

> <Gold.PLP.ligand.clash>
0.0000

> <Gold.PLP.ligand.torsion>
0.3804

> <Gold.PLP.Chemscore.Hbond>
2.0000

> <Gold.PLP.Chemscore.CHOScore>
0.3793

> <Gold.PLP.Chemscore.Metal>
0.0000

> <Gold.Chemscore.Hbonds>
donor molecule, donor type, donor heavy atom, donor atom, acceptor molecule, acceptor atom, score
      L1  H    10    34       P1  8028  2.00
      L1  C    21    47       P1  7957  0.46

> <Gold.PLP.Chemscore.Internal.Correction>
0.1016

> <Gold.Rescore>
     Score         DG    S(hbond)    S(metal)    S(lipo)     H(rot)  DE(clash)    DE(int)     intcor
     16.72     -17.23       0.98        0.00     110.34       1.74       0.22       0.29       ----

> <Gold.Chemscore.Fitness>
16.7217

> <Gold.Chemscore.DG>
-17.2316

> <Gold.Chemscore.ZeroCoef>
-5.4800

> <Gold.Chemscore.Hbond>
0.9832

> <Gold.Chemscore.Metal>
0.0000

> <Gold.Chemscore.Lipo>
110.3444

> <Gold.Chemscore.Internal_Hbond>
0.0000

> <Gold.Chemscore.DEClash>
0.2242

> <Gold.Chemscore.DEInternal>
0.2857

> <Gold.Chemscore.Rot>
1.7354

> <Gold.Chemscore.Internal.Correction>
   9.000000E+99

> <Gold.Chemscore.Hbonds>
donor molecule, donor type, donor heavy atom, donor atom, acceptor molecule, acceptor atom, score
      L1  H    10    34       P1  8028  0.97

> <Gold.Chemscore.Hbond.Weighted>
-3.2839

> <Gold.Chemscore.Metal.Weighted>
-0.0000

> <Gold.Chemscore.Lipo.Weighted>
-12.9103

> <Gold.Chemscore.Internal_Hbond.Weighted>
0.0000

> <Gold.Chemscore.DEClash.Weighted>
0.2242

> <Gold.Chemscore.DEInternal.Weighted>
0.2857

> <Gold.Chemscore.Rot.Weighted>
4.4426

> <Gold.Chemscore.Internal.Correction.Weighted>
   9.000000E+99

> <Gold.Protein.RotatedTorsions>
[ 6907 6896 6895 6894 ] final  -85.52 input  -60.11 | X-H torsion
[ 7974 7965 7964 7962 ] final   36.17 input  175.53 | X-H torsion
[ 8008 7997 7996 7995 ] final   78.77 input   59.86 | X-H torsion
[ 10167 10162 10161 10158 ] final    5.10 input  -65.29 | X-H torsion
[ 10718 10713 10712 10709 ] final  -36.33 input   66.30 | X-H torsion
[ 10763 10752 10751 10750 ] final   22.59 input  -60.55 | X-H torsion
[ 11005 11000 10999 10996 ] final  -49.86 input  -57.11 | X-H torsion

> <Gold.Protein.ActiveResidues>
 VAL166  LYS551  ARG553  GLY616  TRP617  ASP618  TYR619  PRO620  LYS621  CYS622 
 ASP623  PHE694  ASN695  SER759  ASP760  ASP761  ALA762  ILE779  LEU786  VAL792 
 PHE793  MET794  SER795  GLU796  ALA797  LYS798  CYS799  TRP800  GLU811  SER814 

> <Gold.Protein.RotatedAtoms>
  150.6870  134.3192  159.4779 H   0  0  0  0  0  0  0  0  0  0  0  0  # atno 6907 bound_to 6896
  152.1069  134.9299  160.0577 H   0  0  0  0  0  0  0  0  0  0  0  0  # atno 6908 bound_to 6896
  152.0556  133.4004  159.4433 H   0  0  0  0  0  0  0  0  0  0  0  0  # atno 6909 bound_to 6896
  146.1230  139.6051  142.9277 H   0  0  0  0  0  0  0  0  0  0  0  0  # atno 7974 bound_to 7965
  155.8604  140.3454  155.5752 H   0  0  0  0  0  0  0  0  0  0  0  0  # atno 8008 bound_to 7997
  155.7939  140.0875  157.2013 H   0  0  0  0  0  0  0  0  0  0  0  0  # atno 8009 bound_to 7997
  154.4011  140.1478  156.3183 H   0  0  0  0  0  0  0  0  0  0  0  0  # atno 8010 bound_to 7997
  140.6500  143.7568  150.7559 H   0  0  0  0  0  0  0  0  0  0  0  0  # atno 10167 bound_to 10162
  156.3282  130.4275  149.7897 H   0  0  0  0  0  0  0  0  0  0  0  0  # atno 10718 bound_to 10713
  153.0904  135.6645  153.9866 H   0  0  0  0  0  0  0  0  0  0  0  0  # atno 10763 bound_to 10752
  153.9464  135.2988  155.3442 H   0  0  0  0  0  0  0  0  0  0  0  0  # atno 10764 bound_to 10752
  154.7317  135.5120  153.9048 H   0  0  0  0  0  0  0  0  0  0  0  0  # atno 10765 bound_to 10752
  141.0783  133.6660  156.3647 H   0  0  0  0  0  0  0  0  0  0  0  0  # atno 11005 bound_to 11000
  145.5425  141.0420  143.2323 LP  0  0  0  0  0  0  0  0  0  0  0  0  # atno 17320 bound_to 7965
  144.7615  139.6945  143.7232 LP  0  0  0  0  0  0  0  0  0  0  0  0  # atno 17321 bound_to 7965
  140.1217  143.4606  152.2309 LP  0  0  0  0  0  0  0  0  0  0  0  0  # atno 17342 bound_to 10162
  139.5714  144.7464  151.3881 LP  0  0  0  0  0  0  0  0  0  0  0  0  # atno 17343 bound_to 10162
  156.5180  130.8202  151.3193 LP  0  0  0  0  0  0  0  0  0  0  0  0  # atno 17370 bound_to 10713
  157.7425  130.9892  150.2523 LP  0  0  0  0  0  0  0  0  0  0  0  0  # atno 17371 bound_to 10713
  140.5524  134.6015  157.5411 LP  0  0  0  0  0  0  0  0  0  0  0  0  # atno 17394 bound_to 11000
  139.9596  134.7475  156.0266 LP  0  0  0  0  0  0  0  0  0  0  0  0  # atno 17395 bound_to 11000

$$$$
