AV-unprocessed.smi:1776|AV-procd|sdf|7174|dock8
  -GOLD-   22720 8413D 1   1.00000     0.00000
 Structure written by MMmdl.
 31 32  0  0  0  0  0  0  0  0  1 V2000
  150.7151  142.4417  159.0315 O   0  0  0  0  0  0  0  0  0  0  0  0
  151.7506  141.8136  158.8118 C   0  0  0  0  0  0  0  0  0  0  0  0
  151.9589  141.0083  157.7503 N   0  0  0  0  0  0  0  0  0  0  0  0
  151.1155  140.6896  156.6712 C   0  0  0  0  0  0  0  0  0  0  0  0
  149.8511  141.1567  156.4954 C   0  0  0  0  0  0  0  0  0  0  0  0
  149.0434  140.7849  155.3456 C   0  0  0  0  0  0  0  0  0  0  0  0
  147.6050  141.2575  155.2001 C   0  0  0  0  0  0  0  0  0  0  0  0
  146.7651  140.2288  155.0764 F   0  0  0  0  0  0  0  0  0  0  0  0
  147.2310  141.9781  156.2575 F   0  0  0  0  0  0  0  0  0  0  0  0
  147.4879  142.0225  154.1157 F   0  0  0  0  0  0  0  0  0  0  0  0
  149.6073  139.9396  154.4633 C   0  0  0  0  0  0  0  0  0  0  0  0
  150.9110  139.4674  154.6274 N   0  0  0  0  0  0  0  0  0  0  0  0
  151.7082  139.7842  155.6721 C   0  0  0  0  0  0  0  0  0  0  0  0
  152.8473  139.3243  155.7442 O   0  0  0  0  0  0  0  0  0  0  0  0
  152.9348  141.9261  159.7838 C   0  0  1  0  0  0  0  0  0  0  0  0
  152.5116  142.3094  161.2213 C   0  0  0  0  0  0  0  0  0  0  0  0
  153.6626  142.3507  162.0554 O   0  0  0  0  0  0  0  0  0  0  0  0
  154.3194  141.0914  162.0940 C   0  0  0  0  0  0  0  0  0  0  0  0
  154.7527  140.7126  160.6685 C   0  0  0  0  0  0  0  0  0  0  0  0
  153.6049  140.6687  159.8317 O   0  0  0  0  0  0  0  0  0  0  0  0
  151.2674  138.8471  153.9146 H   0  0  0  0  0  0  0  0  0  0  0  0
  152.8536  140.5395  157.7287 H   0  0  0  0  0  0  0  0  0  0  0  0
  149.3998  141.8354  157.1988 H   0  0  0  0  0  0  0  0  0  0  0  0
  149.1134  139.5611  153.5806 H   0  0  0  0  0  0  0  0  0  0  0  0
  153.6155  142.6820  159.3880 H   0  0  0  0  0  0  0  0  0  0  0  0
  152.0425  143.2939  161.2357 H   0  0  0  0  0  0  0  0  0  0  0  0
  151.7859  141.6003  161.6240 H   0  0  0  0  0  0  0  0  0  0  0  0
  155.1879  141.1613  162.7490 H   0  0  0  0  0  0  0  0  0  0  0  0
  153.6582  140.3323  162.5154 H   0  0  0  0  0  0  0  0  0  0  0  0
  155.4779  141.4283  160.2780 H   0  0  0  0  0  0  0  0  0  0  0  0
  155.2322  139.7337  160.6658 H   0  0  0  0  0  0  0  0  0  0  0  0
  1  2  2  0  0  0  0
  2  3  1  0  0  0  0
  2 15  1  0  0  0  0
  3  4  1  0  0  0  0
  3 22  1  0  0  0  0
  4 13  1  0  0  0  0
  4  5  2  0  0  0  0
  5  6  1  0  0  0  0
  5 23  1  0  0  0  0
  6  7  1  0  0  0  0
  6 11  2  0  0  0  0
  7  8  1  0  0  0  0
  7  9  1  0  0  0  0
  7 10  1  0  0  0  0
 11 12  1  0  0  0  0
 11 24  1  0  0  0  0
 12 21  1  0  0  0  0
 12 13  1  0  0  0  0
 13 14  2  0  0  0  0
 15 20  1  0  0  0  0
 15 16  1  0  0  0  0
 15 25  1  0  0  0  0
 16 17  1  0  0  0  0
 16 26  1  0  0  0  0
 16 27  1  0  0  0  0
 17 18  1  0  0  0  0
 18 19  1  0  0  0  0
 18 28  1  0  0  0  0
 18 29  1  0  0  0  0
 19 20  1  0  0  0  0
 19 30  1  0  0  0  0
 19 31  1  0  0  0  0
M  END
> <s_m_source_file>
AV-unprocessed.smi

> <i_m_source_file_index>
1776

> <i_lp_mmshare_version>
43012

> <i_f3d_flags>
0

> <s_epik_input>
TzFbQ0gyXVtDSDJdT1tDSDJdW0NASF0xQyg9TylbTkhdYzJbY0hdYyhDKEYpKEYpRilbY0hdW25IXWMyPU8=

> <s_epik_cmdline>
J2VwaWtfcHl0aG9uJywgJy1waCcsICc3LjAnLCAnLXRuJywgJzgnLCAnLW1hJywgJzIwMCcsICctbWV0YWxfYmluZGluZycsICctaW1hZScsICc8aW5maWxlLm1hZT4nLCAnLW9tYWUnLCAnPG91dGZpbGUubWFlPic=

> <r_lp_tautomer_probability>
0.999

> <r_epik_Ionization_Penalty>
0.0100875

> <r_epik_Ionization_Penalty_Charging>
0.0100873

> <r_epik_Ionization_Penalty_Neutral>
1.79075e-07

> <r_epik_State_Penalty>
0.00769562

> <r_epik_Charging_Adjusted_Penalty>
0.017783

> <i_epik_Tot_Q>
0

> <i_epik_Tot_abs_Q>
0

> <r_epik_Metal_State_Penalty>
0.325451

> <b_epik_Metal_Only>
0

> <s_lp_Force_Field>
OPLS_2005

> <r_lp_Energy>
23.697

> <b_lp_Chiralities_Consistent>
1

> <s_lp_Variant>
AV-unprocessed.smi:1776-2

> <Gold.Version>
5.8.1

> <Gold.Id.Protein>
6NUR|6NUR_protein|mol2

> <Gold.PLP.Fitness>
40.0623

> <Gold.PLP.PLP>
-35.5978

> <Gold.PLP.part.hbond>
-1.6053

> <Gold.PLP.part.metal>
0.0000

> <Gold.PLP.part.buried>
-4.3320

> <Gold.PLP.part.nonpolar>
-29.8221

> <Gold.PLP.part.repulsive>
1.6453

> <Gold.PLP.ligand.clash>
0.0000

> <Gold.PLP.ligand.torsion>
0.7830

> <Gold.PLP.Chemscore.Hbond>
1.0000

> <Gold.PLP.Chemscore.CHOScore>
1.0000

> <Gold.PLP.Chemscore.Metal>
0.0000

> <Gold.Chemscore.Hbonds>
donor molecule, donor type, donor heavy atom, donor atom, acceptor molecule, acceptor atom, score
      P1  H  7997  8009       L1    14  1.00
      L1  C    11    24       P1  7957  0.98

> <Gold.PLP.Chemscore.Internal.Correction>
0.0305

> <Gold.Rescore>
     Score         DG    S(hbond)    S(metal)    S(lipo)     H(rot)  DE(clash)    DE(int)     intcor
     12.83     -14.63       1.00        0.00      71.59       1.00       0.10       1.70       ----

> <Gold.Chemscore.Fitness>
12.8307

> <Gold.Chemscore.DG>
-14.6301

> <Gold.Chemscore.ZeroCoef>
-5.4800

> <Gold.Chemscore.Hbond>
0.9982

> <Gold.Chemscore.Metal>
0.0000

> <Gold.Chemscore.Lipo>
71.5890

> <Gold.Chemscore.Internal_Hbond>
0.0000

> <Gold.Chemscore.DEClash>
0.1013

> <Gold.Chemscore.DEInternal>
1.6981

> <Gold.Chemscore.Rot>
1.0000

> <Gold.Chemscore.Internal.Correction>
   9.000000E+99

> <Gold.Chemscore.Hbonds>
donor molecule, donor type, donor heavy atom, donor atom, acceptor molecule, acceptor atom, score
      P1  H  7997  8009       L1    14  1.00

> <Gold.Chemscore.Hbond.Weighted>
-3.3341

> <Gold.Chemscore.Metal.Weighted>
-0.0000

> <Gold.Chemscore.Lipo.Weighted>
-8.3759

> <Gold.Chemscore.Internal_Hbond.Weighted>
0.0000

> <Gold.Chemscore.DEClash.Weighted>
0.1013

> <Gold.Chemscore.DEInternal.Weighted>
1.6981

> <Gold.Chemscore.Rot.Weighted>
2.5600

> <Gold.Chemscore.Internal.Correction.Weighted>
   9.000000E+99

> <Gold.Protein.RotatedTorsions>
[ 6907 6896 6895 6894 ] final   52.02 input  -60.11 | X-H torsion
[ 7974 7965 7964 7962 ] final  145.19 input  175.53 | X-H torsion
[ 8008 7997 7996 7995 ] final -153.33 input   59.86 | X-H torsion
[ 10167 10162 10161 10158 ] final  153.07 input  -65.29 | X-H torsion
[ 10718 10713 10712 10709 ] final -170.24 input   66.30 | X-H torsion
[ 10763 10752 10751 10750 ] final   34.24 input  -60.55 | X-H torsion
[ 11005 11000 10999 10996 ] final  170.87 input  -57.11 | X-H torsion

> <Gold.Protein.ActiveResidues>
 VAL166  LYS551  ARG553  GLY616  TRP617  ASP618  TYR619  PRO620  LYS621  CYS622 
 ASP623  PHE694  ASN695  SER759  ASP760  ASP761  ALA762  ILE779  LEU786  VAL792 
 PHE793  MET794  SER795  GLU796  ALA797  LYS798  CYS799  TRP800  GLU811  SER814 

> <Gold.Protein.RotatedAtoms>
  152.3188  134.7406  160.0318 H   0  0  0  0  0  0  0  0  0  0  0  0  # atno 6907 bound_to 6896
  151.7861  133.3349  159.3493 H   0  0  0  0  0  0  0  0  0  0  0  0  # atno 6908 bound_to 6896
  150.7359  134.5817  159.5986 H   0  0  0  0  0  0  0  0  0  0  0  0  # atno 6909 bound_to 6896
  144.8773  139.5753  143.5859 H   0  0  0  0  0  0  0  0  0  0  0  0  # atno 7974 bound_to 7965
  155.6691  140.0731  157.2526 H   0  0  0  0  0  0  0  0  0  0  0  0  # atno 8008 bound_to 7997
  154.4127  140.1702  156.1910 H   0  0  0  0  0  0  0  0  0  0  0  0  # atno 8009 bound_to 7997
  155.9632  140.3368  155.6512 H   0  0  0  0  0  0  0  0  0  0  0  0  # atno 8010 bound_to 7997
  139.4829  144.5304  151.7731 H   0  0  0  0  0  0  0  0  0  0  0  0  # atno 10167 bound_to 10162
  156.7233  130.9278  151.3099 H   0  0  0  0  0  0  0  0  0  0  0  0  # atno 10718 bound_to 10713
  153.0173  135.6366  154.1637 H   0  0  0  0  0  0  0  0  0  0  0  0  # atno 10763 bound_to 10752
  154.1375  135.2836  155.3171 H   0  0  0  0  0  0  0  0  0  0  0  0  # atno 10764 bound_to 10752
  154.6149  135.5544  153.7574 H   0  0  0  0  0  0  0  0  0  0  0  0  # atno 10765 bound_to 10752
  140.3129  134.7501  157.4005 H   0  0  0  0  0  0  0  0  0  0  0  0  # atno 11005 bound_to 11000
  146.2971  139.7311  142.9119 LP  0  0  0  0  0  0  0  0  0  0  0  0  # atno 17320 bound_to 7965
  145.4019  141.0386  143.3065 LP  0  0  0  0  0  0  0  0  0  0  0  0  # atno 17321 bound_to 7965
  140.4830  144.1422  150.5936 LP  0  0  0  0  0  0  0  0  0  0  0  0  # atno 17342 bound_to 10162
  140.4257  143.2591  151.9660 LP  0  0  0  0  0  0  0  0  0  0  0  0  # atno 17343 bound_to 10162
  157.6889  130.9213  150.0460 LP  0  0  0  0  0  0  0  0  0  0  0  0  # atno 17370 bound_to 10713
  156.1579  130.3643  149.9342 LP  0  0  0  0  0  0  0  0  0  0  0  0  # atno 17371 bound_to 10713
  140.1009  134.5474  155.8354 LP  0  0  0  0  0  0  0  0  0  0  0  0  # atno 17394 bound_to 11000
  141.2104  133.6694  156.6507 LP  0  0  0  0  0  0  0  0  0  0  0  0  # atno 17395 bound_to 11000

$$$$
