AV-unprocessed.smi:3350|AV-procd|sdf|12942|dock10
  -GOLD-   2272019373D 1   1.00000     0.00000
 Structure written by MMmdl.
 41 42  0  0  0  0  0  0  0  0  1 V2000
  144.5308  137.0835  153.6379 C   0  0  0  0  0  0  0  0  0  0  0  0
  145.3331  135.9037  153.0730 C   0  0  1  0  0  0  0  0  0  0  0  0
  145.0977  135.7390  151.5572 C   0  0  0  0  0  0  0  0  0  0  0  0
  145.0232  134.3467  151.1496 N   0  0  0  0  0  0  0  0  0  0  0  0
  143.9349  133.6534  150.6633 C   0  0  0  0  0  0  0  0  0  0  0  0
  144.3428  132.3723  150.4253 C   0  0  0  0  0  0  0  0  0  0  0  0
  145.7154  132.3795  150.8006 C   0  0  0  0  0  0  0  0  0  0  0  0
  146.1207  133.5632  151.2308 N   0  0  0  0  0  0  0  0  0  0  0  0
  146.7514  136.1137  153.3607 N   0  0  0  0  0  0  0  0  0  0  0  0
  147.2822  136.3009  154.5779 C   0  0  0  0  0  0  0  0  0  0  0  0
  146.6290  136.3267  155.6213 O   0  0  0  0  0  0  0  0  0  0  0  0
  148.6130  136.4491  154.5178 N   0  0  0  0  0  0  0  0  0  0  0  0
  149.4967  136.6615  155.6614 C   0  0  1  0  0  0  0  0  0  0  0  0
  150.3869  135.4198  155.8234 C   0  0  0  0  0  0  0  0  0  0  0  0
  150.3204  137.9501  155.4573 C   0  0  2  0  0  0  0  0  0  0  0  0
  151.2894  137.9091  154.2735 C   0  0  0  0  0  0  0  0  0  0  0  0
  152.3776  138.9011  154.6568 C   0  0  0  0  0  0  0  0  0  0  0  0
  152.1327  139.1671  156.1440 C   0  0  0  0  0  0  0  0  0  0  0  0
  151.2053  138.1697  156.5458 O   0  0  0  0  0  0  0  0  0  0  0  0
  143.4617  136.9442  153.4756 H   0  0  0  0  0  0  0  0  0  0  0  0
  144.8188  138.0232  153.1654 H   0  0  0  0  0  0  0  0  0  0  0  0
  144.6890  137.1880  154.7120 H   0  0  0  0  0  0  0  0  0  0  0  0
  144.9799  135.0036  153.5796 H   0  0  0  0  0  0  0  0  0  0  0  0
  144.1600  136.2174  151.2718 H   0  0  0  0  0  0  0  0  0  0  0  0
  145.8848  136.2389  150.9899 H   0  0  0  0  0  0  0  0  0  0  0  0
  142.9710  134.1231  150.5337 H   0  0  0  0  0  0  0  0  0  0  0  0
  143.7506  131.5542  150.0432 H   0  0  0  0  0  0  0  0  0  0  0  0
  146.4250  131.5660  150.7716 H   0  0  0  0  0  0  0  0  0  0  0  0
  147.3786  136.1035  152.5700 H   0  0  0  0  0  0  0  0  0  0  0  0
  149.0516  136.4115  153.6095 H   0  0  0  0  0  0  0  0  0  0  0  0
  148.9023  136.7626  156.5715 H   0  0  0  0  0  0  0  0  0  0  0  0
  151.0230  135.4985  156.7052 H   0  0  0  0  0  0  0  0  0  0  0  0
  151.0344  135.2790  154.9574 H   0  0  0  0  0  0  0  0  0  0  0  0
  149.7839  134.5184  155.9387 H   0  0  0  0  0  0  0  0  0  0  0  0
  149.6591  138.8141  155.3639 H   0  0  0  0  0  0  0  0  0  0  0  0
  151.7247  136.9133  154.1772 H   0  0  0  0  0  0  0  0  0  0  0  0
  150.8068  138.1572  153.3277 H   0  0  0  0  0  0  0  0  0  0  0  0
  153.3664  138.4757  154.4827 H   0  0  0  0  0  0  0  0  0  0  0  0
  152.3035  139.8245  154.0814 H   0  0  0  0  0  0  0  0  0  0  0  0
  153.0471  139.1181  156.7357 H   0  0  0  0  0  0  0  0  0  0  0  0
  151.6849  140.1513  156.2893 H   0  0  0  0  0  0  0  0  0  0  0  0
  1  2  1  0  0  0  0
  1 20  1  0  0  0  0
  1 21  1  0  0  0  0
  1 22  1  0  0  0  0
  2  3  1  0  0  0  0
  2  9  1  0  0  0  0
  2 23  1  0  0  0  0
  3  4  1  0  0  0  0
  3 24  1  0  0  0  0
  3 25  1  0  0  0  0
  4  8  1  0  0  0  0
  4  5  1  0  0  0  0
  5  6  2  0  0  0  0
  5 26  1  0  0  0  0
  6  7  1  0  0  0  0
  6 27  1  0  0  0  0
  7  8  2  0  0  0  0
  7 28  1  0  0  0  0
  9 10  1  0  0  0  0
  9 29  1  0  0  0  0
 10 11  2  0  0  0  0
 10 12  1  0  0  0  0
 12 13  1  0  0  0  0
 12 30  1  0  0  0  0
 13 14  1  0  0  0  0
 13 15  1  0  0  0  0
 13 31  1  0  0  0  0
 14 32  1  0  0  0  0
 14 33  1  0  0  0  0
 14 34  1  0  0  0  0
 15 19  1  0  0  0  0
 15 16  1  0  0  0  0
 15 35  1  0  0  0  0
 16 17  1  0  0  0  0
 16 36  1  0  0  0  0
 16 37  1  0  0  0  0
 17 18  1  0  0  0  0
 17 38  1  0  0  0  0
 17 39  1  0  0  0  0
 18 19  1  0  0  0  0
 18 40  1  0  0  0  0
 18 41  1  0  0  0  0
M  END
> <s_m_source_file>
AV-unprocessed.smi

> <i_m_source_file_index>
3350

> <i_lp_mmshare_version>
43012

> <i_f3d_flags>
0

> <s_epik_input>
bjFbY0hdW2NIXVtjSF1uMVtDSDJdW0NAQEhdKFtDSDNdKVtOSF1DKD1PKVtOSF1bQ0BIXShbQ0gzXSlbQ0BASF0yW0NIMl1bQ0gyXVtDSDJdTzI=

> <s_epik_cmdline>
J2VwaWtfcHl0aG9uJywgJy1waCcsICc3LjAnLCAnLXRuJywgJzgnLCAnLW1hJywgJzIwMCcsICctbWV0YWxfYmluZGluZycsICctaW1hZScsICc8aW5maWxlLm1hZT4nLCAnLW9tYWUnLCAnPG91dGZpbGUubWFlPic=

> <r_lp_tautomer_probability>
1

> <r_epik_Ionization_Penalty>
6.42349e-05

> <r_epik_Ionization_Penalty_Charging>
0

> <r_epik_Ionization_Penalty_Neutral>
6.42349e-05

> <r_epik_State_Penalty>
-0

> <r_epik_Charging_Adjusted_Penalty>
0

> <i_epik_Tot_Q>
0

> <i_epik_Tot_abs_Q>
0

> <r_epik_Metal_State_Penalty>
-0

> <b_epik_Metal_Only>
0

> <s_lp_Force_Field>
OPLS_2005

> <r_lp_Energy>
15.8996

> <b_lp_Chiralities_Consistent>
1

> <s_lp_Variant>
AV-unprocessed.smi:3350-4

> <Gold.Version>
5.8.1

> <Gold.Id.Protein>
6NUR|6NUR_protein|mol2

> <Gold.PLP.Fitness>
41.2526

> <Gold.PLP.PLP>
-30.4518

> <Gold.PLP.part.hbond>
-2.0000

> <Gold.PLP.part.metal>
0.0000

> <Gold.PLP.part.buried>
-3.8241

> <Gold.PLP.part.nonpolar>
-25.4241

> <Gold.PLP.part.repulsive>
0.2247

> <Gold.PLP.ligand.clash>
0.0000

> <Gold.PLP.ligand.torsion>
0.6235

> <Gold.PLP.Chemscore.Hbond>
1.9920

> <Gold.PLP.Chemscore.CHOScore>
2.0000

> <Gold.PLP.Chemscore.Metal>
0.0000

> <Gold.Chemscore.Hbonds>
donor molecule, donor type, donor heavy atom, donor atom, acceptor molecule, acceptor atom, score
      L1  H     9    29       P1  7948  1.00
      L1  H    12    30       P1  7948  1.00
      L1  C     5    26       P1 10186  1.00
      L1  C     7    28       P1 10747  0.60

> <Gold.PLP.Chemscore.Internal.Correction>
0.0718

> <Gold.Rescore>
     Score         DG    S(hbond)    S(metal)    S(lipo)     H(rot)  DE(clash)    DE(int)     intcor
     15.06     -15.66       1.90        0.00      72.61       1.82       0.00       0.59       ----

> <Gold.Chemscore.Fitness>
15.0617

> <Gold.Chemscore.DG>
-15.6592

> <Gold.Chemscore.ZeroCoef>
-5.4800

> <Gold.Chemscore.Hbond>
1.8987

> <Gold.Chemscore.Metal>
0.0000

> <Gold.Chemscore.Lipo>
72.6140

> <Gold.Chemscore.Internal_Hbond>
0.0000

> <Gold.Chemscore.DEClash>
0.0038

> <Gold.Chemscore.DEInternal>
0.5937

> <Gold.Chemscore.Rot>
1.8197

> <Gold.Chemscore.Internal.Correction>
   9.000000E+99

> <Gold.Chemscore.Hbonds>
donor molecule, donor type, donor heavy atom, donor atom, acceptor molecule, acceptor atom, score
      L1  H     9    29       P1  7948  0.97
      L1  H    12    30       P1  7948  0.95

> <Gold.Chemscore.Hbond.Weighted>
-6.3417

> <Gold.Chemscore.Metal.Weighted>
-0.0000

> <Gold.Chemscore.Lipo.Weighted>
-8.4958

> <Gold.Chemscore.Internal_Hbond.Weighted>
0.0000

> <Gold.Chemscore.DEClash.Weighted>
0.0038

> <Gold.Chemscore.DEInternal.Weighted>
0.5937

> <Gold.Chemscore.Rot.Weighted>
4.6583

> <Gold.Chemscore.Internal.Correction.Weighted>
   9.000000E+99

> <Gold.Protein.RotatedTorsions>
[ 6907 6896 6895 6894 ] final  -29.60 input  -60.11 | X-H torsion
[ 7974 7965 7964 7962 ] final   88.65 input  175.53 | X-H torsion
[ 8008 7997 7996 7995 ] final  -82.03 input   59.86 | X-H torsion
[ 10167 10162 10161 10158 ] final -118.81 input  -65.29 | X-H torsion
[ 10718 10713 10712 10709 ] final   14.53 input   66.30 | X-H torsion
[ 10763 10752 10751 10750 ] final    5.95 input  -60.55 | X-H torsion
[ 11005 11000 10999 10996 ] final -155.48 input  -57.11 | X-H torsion

> <Gold.Protein.ActiveResidues>
 VAL166  LYS551  ARG553  GLY616  TRP617  ASP618  TYR619  PRO620  LYS621  CYS622 
 ASP623  PHE694  ASN695  SER759  ASP760  ASP761  ALA762  ILE779  LEU786  VAL792 
 PHE793  MET794  SER795  GLU796  ALA797  LYS798  CYS799  TRP800  GLU811  SER814 

> <Gold.Protein.RotatedAtoms>
  151.1169  135.0058  159.8520 H   0  0  0  0  0  0  0  0  0  0  0  0  # atno 6907 bound_to 6896
  152.5446  134.1769  159.8629 H   0  0  0  0  0  0  0  0  0  0  0  0  # atno 6908 bound_to 6896
  151.1824  133.4672  159.2627 H   0  0  0  0  0  0  0  0  0  0  0  0  # atno 6909 bound_to 6896
  145.5429  139.2290  143.2555 H   0  0  0  0  0  0  0  0  0  0  0  0  # atno 7974 bound_to 7965
  154.6044  140.0639  156.9412 H   0  0  0  0  0  0  0  0  0  0  0  0  # atno 8008 bound_to 7997
  155.2077  140.3320  155.4315 H   0  0  0  0  0  0  0  0  0  0  0  0  # atno 8009 bound_to 7997
  156.2338  140.1853  156.7156 H   0  0  0  0  0  0  0  0  0  0  0  0  # atno 8010 bound_to 7997
  140.0535  143.5037  152.2069 H   0  0  0  0  0  0  0  0  0  0  0  0  # atno 10167 bound_to 10162
  157.0404  130.6229  149.5750 H   0  0  0  0  0  0  0  0  0  0  0  0  # atno 10718 bound_to 10713
  153.2535  135.6916  153.7654 H   0  0  0  0  0  0  0  0  0  0  0  0  # atno 10763 bound_to 10752
  153.6740  135.3339  155.3162 H   0  0  0  0  0  0  0  0  0  0  0  0  # atno 10764 bound_to 10752
  154.8403  135.4506  154.1500 H   0  0  0  0  0  0  0  0  0  0  0  0  # atno 10765 bound_to 10752
  140.6860  134.4093  157.5223 H   0  0  0  0  0  0  0  0  0  0  0  0  # atno 11005 bound_to 11000
  146.1969  140.6250  142.9120 LP  0  0  0  0  0  0  0  0  0  0  0  0  # atno 17320 bound_to 7965
  144.7568  140.5326  143.6763 LP  0  0  0  0  0  0  0  0  0  0  0  0  # atno 17321 bound_to 7965
  139.5938  144.7560  151.3336 LP  0  0  0  0  0  0  0  0  0  0  0  0  # atno 17342 bound_to 10162
  140.7205  143.7147  150.7742 LP  0  0  0  0  0  0  0  0  0  0  0  0  # atno 17343 bound_to 10162
  156.0040  130.5124  150.7764 LP  0  0  0  0  0  0  0  0  0  0  0  0  # atno 17370 bound_to 10713
  157.5109  131.0925  151.0199 LP  0  0  0  0  0  0  0  0  0  0  0  0  # atno 17371 bound_to 10713
  139.8937  134.8723  156.2209 LP  0  0  0  0  0  0  0  0  0  0  0  0  # atno 17394 bound_to 11000
  141.0280  133.7004  156.1380 LP  0  0  0  0  0  0  0  0  0  0  0  0  # atno 17395 bound_to 11000

$$$$
