AV-unprocessed.smi:3002|AV-procd|sdf|11434|dock1
  -GOLD-   2272016363D 1   1.00000     0.00000
 Structure written by MMmdl.
 34 35  0  0  0  0  0  0  0  0  1 V2000
  152.2195  144.8127  159.1593 C   0  0  0  0  0  0  0  0  0  0  0  0
  151.6552  143.4087  159.4569 C   0  0  1  0  0  0  0  0  0  0  0  0
  151.0460  142.7446  158.2123 C   0  0  0  0  0  0  0  0  0  0  0  0
  151.2828  143.1843  157.0867 O   0  0  0  0  0  0  0  0  0  0  0  0
  150.2571  141.6805  158.4305 N   0  0  0  0  0  0  0  0  0  0  0  0
  149.5859  140.9071  157.3911 C   0  0  0  0  0  0  0  0  0  0  0  0
  150.5625  140.3951  156.3129 C   0  0  2  0  0  0  0  0  0  0  0  0
  149.8697  139.6236  155.1695 C   0  0  0  0  0  0  0  0  0  0  0  0
  150.9437  138.9213  154.3335 C   0  0  0  0  0  0  0  0  0  0  0  0
  152.2473  138.4310  155.5217 S   0  0  0  0  0  0  0  0  0  0  0  0
  152.0646  137.0198  155.8933 O   0  0  0  0  0  0  0  0  0  0  0  0
  153.5463  138.9260  155.0415 O   0  0  0  0  0  0  0  0  0  0  0  0
  151.6559  139.4872  156.8994 C   0  0  0  0  0  0  0  0  0  0  0  0
  152.6488  142.5298  160.0620 N   0  0  0  0  0  0  0  0  0  0  0  0
  153.2652  142.6179  161.2428 C   0  0  0  0  0  0  0  0  0  0  0  0
  154.0874  141.6101  161.4989 N   0  0  0  0  0  0  0  0  0  0  0  0
  153.9106  140.8771  160.3597 C   0  0  0  0  0  0  0  0  0  0  0  0
  153.0519  141.3769  159.4714 N   0  0  0  0  0  0  0  0  0  0  0  0
  151.4472  145.4685  158.7560 H   0  0  0  0  0  0  0  0  0  0  0  0
  153.0370  144.7838  158.4378 H   0  0  0  0  0  0  0  0  0  0  0  0
  152.6000  145.2782  160.0689 H   0  0  0  0  0  0  0  0  0  0  0  0
  150.8542  143.5346  160.1874 H   0  0  0  0  0  0  0  0  0  0  0  0
  150.1145  141.3824  159.3844 H   0  0  0  0  0  0  0  0  0  0  0  0
  149.0502  140.0706  157.8435 H   0  0  0  0  0  0  0  0  0  0  0  0
  148.8283  141.5451  156.9353 H   0  0  0  0  0  0  0  0  0  0  0  0
  151.0676  141.2514  155.8632 H   0  0  0  0  0  0  0  0  0  0  0  0
  149.2056  138.8707  155.5957 H   0  0  0  0  0  0  0  0  0  0  0  0
  149.2549  140.2776  154.5504 H   0  0  0  0  0  0  0  0  0  0  0  0
  150.5704  138.0484  153.7979 H   0  0  0  0  0  0  0  0  0  0  0  0
  151.3855  139.6111  153.6140 H   0  0  0  0  0  0  0  0  0  0  0  0
  152.4875  140.0488  157.3252 H   0  0  0  0  0  0  0  0  0  0  0  0
  151.2527  138.8298  157.6701 H   0  0  0  0  0  0  0  0  0  0  0  0
  153.1069  143.4349  161.9314 H   0  0  0  0  0  0  0  0  0  0  0  0
  154.4252  139.9440  160.1828 H   0  0  0  0  0  0  0  0  0  0  0  0
  1  2  1  0  0  0  0
  1 19  1  0  0  0  0
  1 20  1  0  0  0  0
  1 21  1  0  0  0  0
  2  3  1  0  0  0  0
  2 14  1  0  0  0  0
  2 22  1  0  0  0  0
  3  4  2  0  0  0  0
  3  5  1  0  0  0  0
  5  6  1  0  0  0  0
  5 23  1  0  0  0  0
  6  7  1  0  0  0  0
  6 24  1  0  0  0  0
  6 25  1  0  0  0  0
  7 13  1  0  0  0  0
  7  8  1  0  0  0  0
  7 26  1  0  0  0  0
  8  9  1  0  0  0  0
  8 27  1  0  0  0  0
  8 28  1  0  0  0  0
  9 10  1  0  0  0  0
  9 29  1  0  0  0  0
  9 30  1  0  0  0  0
 10 11  2  0  0  0  0
 10 12  2  0  0  0  0
 10 13  1  0  0  0  0
 13 31  1  0  0  0  0
 13 32  1  0  0  0  0
 14 18  1  0  0  0  0
 14 15  1  0  0  0  0
 15 16  2  0  0  0  0
 15 33  1  0  0  0  0
 16 17  1  0  0  0  0
 17 18  2  0  0  0  0
 17 34  1  0  0  0  0
M  END
> <s_m_source_file>
AV-unprocessed.smi

> <i_m_source_file_index>
3002

> <i_lp_mmshare_version>
43012

> <i_f3d_flags>
0

> <s_epik_input>
bjFbY0hdbltjSF1uMVtDQEhdKFtDSDNdKUMoPU8pW05IXVtDSDJdW0NAQEhdKFtDSDJdMilbQ0gyXVtDSDJdUzIoPU8pPU8=

> <s_epik_cmdline>
J2VwaWtfcHl0aG9uJywgJy1waCcsICc3LjAnLCAnLXRuJywgJzgnLCAnLW1hJywgJzIwMCcsICctbWV0YWxfYmluZGluZycsICctaW1hZScsICc8aW5maWxlLm1hZT4nLCAnLW9tYWUnLCAnPG91dGZpbGUubWFlPic=

> <r_lp_tautomer_probability>
1

> <r_epik_Ionization_Penalty>
1.1748e-05

> <r_epik_Ionization_Penalty_Charging>
0

> <r_epik_Ionization_Penalty_Neutral>
1.1748e-05

> <r_epik_State_Penalty>
-0

> <r_epik_Charging_Adjusted_Penalty>
0

> <i_epik_Tot_Q>
0

> <i_epik_Tot_abs_Q>
0

> <r_epik_Metal_State_Penalty>
-0

> <b_epik_Metal_Only>
0

> <s_lp_Force_Field>
OPLS_2005

> <r_lp_Energy>
11.4636

> <b_lp_Chiralities_Consistent>
1

> <s_lp_Variant>
AV-unprocessed.smi:3002-2

> <Gold.Version>
5.8.1

> <Gold.Id.Protein>
6NUR|6NUR_protein|mol2

> <Gold.PLP.Fitness>
41.4149

> <Gold.PLP.PLP>
-36.0584

> <Gold.PLP.part.hbond>
-2.5143

> <Gold.PLP.part.metal>
0.0000

> <Gold.PLP.part.buried>
-5.5554

> <Gold.PLP.part.nonpolar>
-28.8228

> <Gold.PLP.part.repulsive>
0.3065

> <Gold.PLP.ligand.clash>
0.0000

> <Gold.PLP.ligand.torsion>
0.3910

> <Gold.PLP.Chemscore.Hbond>
1.9920

> <Gold.PLP.Chemscore.CHOScore>
0.0000

> <Gold.PLP.Chemscore.Metal>
0.0000

> <Gold.Chemscore.Hbonds>
donor molecule, donor type, donor heavy atom, donor atom, acceptor molecule, acceptor atom, score
      P1  H  7997  8009       L1    12  1.00
      P1  H 10752 10765       L1    11  0.98

> <Gold.PLP.Chemscore.Internal.Correction>
0.1625

> <Gold.Rescore>
     Score         DG    S(hbond)    S(metal)    S(lipo)     H(rot)  DE(clash)    DE(int)     intcor
      9.76     -11.55       1.89        0.00      50.42       2.39       0.06       1.74       ----

> <Gold.Chemscore.Fitness>
9.7559

> <Gold.Chemscore.DG>
-11.5493

> <Gold.Chemscore.ZeroCoef>
-5.4800

> <Gold.Chemscore.Hbond>
1.8862

> <Gold.Chemscore.Metal>
0.0000

> <Gold.Chemscore.Lipo>
50.4232

> <Gold.Chemscore.Internal_Hbond>
0.0000

> <Gold.Chemscore.DEClash>
0.0580

> <Gold.Chemscore.DEInternal>
1.7355

> <Gold.Chemscore.Rot>
2.3946

> <Gold.Chemscore.Internal.Correction>
   9.000000E+99

> <Gold.Chemscore.Hbonds>
donor molecule, donor type, donor heavy atom, donor atom, acceptor molecule, acceptor atom, score
      P1  H  7997  8009       L1    12  0.96
      P1  H 10752 10765       L1    11  0.86

> <Gold.Chemscore.Hbond.Weighted>
-6.2999

> <Gold.Chemscore.Metal.Weighted>
-0.0000

> <Gold.Chemscore.Lipo.Weighted>
-5.8995

> <Gold.Chemscore.Internal_Hbond.Weighted>
0.0000

> <Gold.Chemscore.DEClash.Weighted>
0.0580

> <Gold.Chemscore.DEInternal.Weighted>
1.7355

> <Gold.Chemscore.Rot.Weighted>
6.1301

> <Gold.Chemscore.Internal.Correction.Weighted>
   9.000000E+99

> <Gold.Protein.RotatedTorsions>
[ 6907 6896 6895 6894 ] final   68.86 input  -60.11 | X-H torsion
[ 7974 7965 7964 7962 ] final   90.47 input  175.53 | X-H torsion
[ 8008 7997 7996 7995 ] final -133.54 input   59.86 | X-H torsion
[ 10167 10162 10161 10158 ] final -142.61 input  -65.29 | X-H torsion
[ 10718 10713 10712 10709 ] final -139.05 input   66.30 | X-H torsion
[ 10763 10752 10751 10750 ] final -162.68 input  -60.55 | X-H torsion
[ 11005 11000 10999 10996 ] final  -40.26 input  -57.11 | X-H torsion

> <Gold.Protein.ActiveResidues>
 VAL166  LYS551  ARG553  GLY616  TRP617  ASP618  TYR619  PRO620  LYS621  CYS622 
 ASP623  PHE694  ASN695  SER759  ASP760  ASP761  ALA762  ILE779  LEU786  VAL792 
 PHE793  MET794  SER795  GLU796  ALA797  LYS798  CYS799  TRP800  GLU811  SER814 

> <Gold.Protein.RotatedAtoms>
  152.4648  134.5100  159.9750 H   0  0  0  0  0  0  0  0  0  0  0  0  # atno 6907 bound_to 6896
  151.5141  133.3473  159.2898 H   0  0  0  0  0  0  0  0  0  0  0  0  # atno 6908 bound_to 6896
  150.8628  134.8012  159.7157 H   0  0  0  0  0  0  0  0  0  0  0  0  # atno 6909 bound_to 6896
  145.5185  139.2278  143.2685 H   0  0  0  0  0  0  0  0  0  0  0  0  # atno 7974 bound_to 7965
  155.3472  140.0475  157.3046 H   0  0  0  0  0  0  0  0  0  0  0  0  # atno 8008 bound_to 7997
  154.5246  140.2236  155.8878 H   0  0  0  0  0  0  0  0  0  0  0  0  # atno 8009 bound_to 7997
  156.1726  140.3092  155.9007 H   0  0  0  0  0  0  0  0  0  0  0  0  # atno 8010 bound_to 7997
  139.8072  143.7753  152.2661 H   0  0  0  0  0  0  0  0  0  0  0  0  # atno 10167 bound_to 10162
  156.3064  130.7457  151.1522 H   0  0  0  0  0  0  0  0  0  0  0  0  # atno 10718 bound_to 10713
  154.7192  135.3022  154.9074 H   0  0  0  0  0  0  0  0  0  0  0  0  # atno 10763 bound_to 10752
  153.9952  135.6714  153.4760 H   0  0  0  0  0  0  0  0  0  0  0  0  # atno 10764 bound_to 10752
  153.0819  135.5004  154.8437 H   0  0  0  0  0  0  0  0  0  0  0  0  # atno 10765 bound_to 10752
  141.0161  133.6884  156.2297 H   0  0  0  0  0  0  0  0  0  0  0  0  # atno 11005 bound_to 11000
  146.2121  140.5996  142.9055 LP  0  0  0  0  0  0  0  0  0  0  0  0  # atno 17320 bound_to 7965
  144.7688  140.5592  143.6684 LP  0  0  0  0  0  0  0  0  0  0  0  0  # atno 17321 bound_to 7965
  139.7891  144.7417  150.9981 LP  0  0  0  0  0  0  0  0  0  0  0  0  # atno 17342 bound_to 10162
  140.7819  143.4461  151.0480 LP  0  0  0  0  0  0  0  0  0  0  0  0  # atno 17343 bound_to 10162
  157.7380  131.0545  150.5318 LP  0  0  0  0  0  0  0  0  0  0  0  0  # atno 17370 bound_to 10713
  156.5452  130.4218  149.6134 LP  0  0  0  0  0  0  0  0  0  0  0  0  # atno 17371 bound_to 10713
  140.6652  134.4926  157.5585 LP  0  0  0  0  0  0  0  0  0  0  0  0  # atno 17394 bound_to 11000
  139.9118  134.8329  156.1502 LP  0  0  0  0  0  0  0  0  0  0  0  0  # atno 17395 bound_to 11000

$$$$
