AV-unprocessed.smi:1316|AV-procd|sdf|5455|dock3
  -GOLD-   22720 5 23D 1   1.00000     0.00000
 Structure written by MMmdl.
 21 21  0  0  0  0  0  0  0  0  1 V2000
  152.9182  141.0819  159.9986 C   0  0  0  0  0  0  0  0  0  0  0  0
  152.1356  141.3857  158.8103 N   0  0  0  0  0  0  0  0  0  0  0  0
  152.1901  140.6811  157.6712 C   0  0  0  0  0  0  0  0  0  0  0  0
  152.9201  139.6992  157.5252 O   0  0  0  0  0  0  0  0  0  0  0  0
  151.2830  141.1763  156.5370 C   0  0  0  0  0  0  0  0  0  0  0  0
  150.8262  140.1048  155.6663 N   0  0  0  0  0  0  0  0  0  0  0  0
  150.9686  138.7429  155.8364 C   0  0  0  0  0  0  0  0  0  0  0  0
  150.3751  138.1361  154.7670 C   0  0  0  0  0  0  0  0  0  0  0  0
  150.2795  136.7516  154.5316 N   0  0  0  0  0  0  0  0  0  0  0  0
  149.8947  139.2231  153.9837 C   0  0  0  0  0  0  0  0  0  0  0  0
  150.1677  140.4002  154.5238 N   0  0  0  0  0  0  0  0  0  0  0  0
  152.7180  141.8199  160.7751 H   0  0  0  0  0  0  0  0  0  0  0  0
  153.9861  141.1017  159.7770 H   0  0  0  0  0  0  0  0  0  0  0  0
  152.6616  140.0966  160.3902 H   0  0  0  0  0  0  0  0  0  0  0  0
  151.5136  142.1798  158.8564 H   0  0  0  0  0  0  0  0  0  0  0  0
  150.4175  141.6905  156.9585 H   0  0  0  0  0  0  0  0  0  0  0  0
  151.8263  141.9036  155.9328 H   0  0  0  0  0  0  0  0  0  0  0  0
  151.4702  138.3265  156.6976 H   0  0  0  0  0  0  0  0  0  0  0  0
  150.6653  136.0743  155.1741 H   0  0  0  0  0  0  0  0  0  0  0  0
  149.8845  136.3813  153.6790 H   0  0  0  0  0  0  0  0  0  0  0  0
  149.3591  139.1928  153.0462 H   0  0  0  0  0  0  0  0  0  0  0  0
  1  2  1  0  0  0  0
  1 12  1  0  0  0  0
  1 13  1  0  0  0  0
  1 14  1  0  0  0  0
  2  3  1  0  0  0  0
  2 15  1  0  0  0  0
  3  4  2  0  0  0  0
  3  5  1  0  0  0  0
  5  6  1  0  0  0  0
  5 16  1  0  0  0  0
  5 17  1  0  0  0  0
  6 11  1  0  0  0  0
  6  7  1  0  0  0  0
  7  8  2  0  0  0  0
  7 18  1  0  0  0  0
  8  9  1  0  0  0  0
  8 10  1  0  0  0  0
  9 19  1  0  0  0  0
  9 20  1  0  0  0  0
 10 11  2  0  0  0  0
 10 21  1  0  0  0  0
M  END
> <s_m_source_file>
AV-unprocessed.smi

> <i_m_source_file_index>
1316

> <i_lp_mmshare_version>
43012

> <i_f3d_flags>
0

> <s_epik_input>
W0NIM11bTkhdQyg9TylbQ0gyXW4xW2NIXWMoW05IMl0pW2NIXW4x

> <s_epik_cmdline>
J2VwaWtfcHl0aG9uJywgJy1waCcsICc3LjAnLCAnLXRuJywgJzgnLCAnLW1hJywgJzIwMCcsICctbWV0YWxfYmluZGluZycsICctaW1hZScsICc8aW5maWxlLm1hZT4nLCAnLW9tYWUnLCAnPG91dGZpbGUubWFlPic=

> <r_epik_Ionization_Penalty>
0.000718132

> <r_epik_Ionization_Penalty_Charging>
0

> <r_epik_Ionization_Penalty_Neutral>
0.000718132

> <r_epik_State_Penalty>
0.00299677

> <r_epik_Charging_Adjusted_Penalty>
0.00299677

> <i_epik_Tot_Q>
0

> <i_epik_Tot_abs_Q>
0

> <r_epik_Metal_State_Penalty>
-0

> <b_epik_Metal_Only>
0

> <s_lp_Force_Field>
OPLS_2005

> <r_lp_Energy>
5.45355

> <b_lp_Chiralities_Consistent>
1

> <s_lp_Variant>
AV-unprocessed.smi:1316-1

> <Gold.Version>
5.8.1

> <Gold.Id.Protein>
6NUR|6NUR_protein|mol2

> <Gold.PLP.Fitness>
29.2056

> <Gold.PLP.PLP>
-18.1721

> <Gold.PLP.part.hbond>
-3.2091

> <Gold.PLP.part.metal>
0.0000

> <Gold.PLP.part.buried>
-1.8080

> <Gold.PLP.part.nonpolar>
-13.6779

> <Gold.PLP.part.repulsive>
0.2710

> <Gold.PLP.ligand.clash>
0.0000

> <Gold.PLP.ligand.torsion>
0.4474

> <Gold.PLP.Chemscore.Hbond>
2.9760

> <Gold.PLP.Chemscore.CHOScore>
1.0000

> <Gold.PLP.Chemscore.Metal>
0.0000

> <Gold.Chemscore.Hbonds>
donor molecule, donor type, donor heavy atom, donor atom, acceptor molecule, acceptor atom, score
      L1  H     9    20       P1  7948  0.95
      P1  H  7989  7998       L1    11  0.91
      P1  H  7997  8008       L1     4  1.00
      L1  C    10    21       P1  7957  1.00

> <Gold.PLP.Chemscore.Internal.Correction>
0.0003

> <Gold.Rescore>
     Score         DG    S(hbond)    S(metal)    S(lipo)     H(rot)  DE(clash)    DE(int)     intcor
     10.18     -12.06       1.94        0.00      32.37       1.44       0.00       1.88       ----

> <Gold.Chemscore.Fitness>
10.1788

> <Gold.Chemscore.DG>
-12.0570

> <Gold.Chemscore.ZeroCoef>
-5.4800

> <Gold.Chemscore.Hbond>
1.9366

> <Gold.Chemscore.Metal>
0.0000

> <Gold.Chemscore.Lipo>
32.3732

> <Gold.Chemscore.Internal_Hbond>
0.0000

> <Gold.Chemscore.DEClash>
0.0000

> <Gold.Chemscore.DEInternal>
1.8782

> <Gold.Chemscore.Rot>
1.4371

> <Gold.Chemscore.Internal.Correction>
   9.000000E+99

> <Gold.Chemscore.Hbonds>
donor molecule, donor type, donor heavy atom, donor atom, acceptor molecule, acceptor atom, score
      L1  H     9    20       P1  7948  0.21
      P1  H  7989  7998       L1    11  0.05
      P1  H  7997  8008       L1     4  0.82

> <Gold.Chemscore.Hbond.Weighted>
-6.4682

> <Gold.Chemscore.Metal.Weighted>
-0.0000

> <Gold.Chemscore.Lipo.Weighted>
-3.7877

> <Gold.Chemscore.Internal_Hbond.Weighted>
0.0000

> <Gold.Chemscore.DEClash.Weighted>
0.0000

> <Gold.Chemscore.DEInternal.Weighted>
1.8782

> <Gold.Chemscore.Rot.Weighted>
3.6789

> <Gold.Chemscore.Internal.Correction.Weighted>
   9.000000E+99

> <Gold.Protein.RotatedTorsions>
[ 6907 6896 6895 6894 ] final   20.23 input  -60.11 | X-H torsion
[ 7974 7965 7964 7962 ] final   70.85 input  175.53 | X-H torsion
[ 8008 7997 7996 7995 ] final  -61.22 input   59.86 | X-H torsion
[ 10167 10162 10161 10158 ] final  -14.24 input  -65.29 | X-H torsion
[ 10718 10713 10712 10709 ] final -134.03 input   66.30 | X-H torsion
[ 10763 10752 10751 10750 ] final  165.66 input  -60.55 | X-H torsion
[ 11005 11000 10999 10996 ] final  -50.64 input  -57.11 | X-H torsion

> <Gold.Protein.ActiveResidues>
 VAL166  LYS551  ARG553  GLY616  TRP617  ASP618  TYR619  PRO620  LYS621  CYS622 
 ASP623  PHE694  ASN695  SER759  ASP760  ASP761  ALA762  ILE779  LEU786  VAL792 
 PHE793  MET794  SER795  GLU796  ALA797  LYS798  CYS799  TRP800  GLU811  SER814 

> <Gold.Protein.RotatedAtoms>
  151.8932  135.0408  160.0499 H   0  0  0  0  0  0  0  0  0  0  0  0  # atno 6907 bound_to 6896
  152.2419  133.5138  159.5283 H   0  0  0  0  0  0  0  0  0  0  0  0  # atno 6908 bound_to 6896
  150.7056  134.0994  159.4003 H   0  0  0  0  0  0  0  0  0  0  0  0  # atno 6909 bound_to 6896
  145.7731  139.2852  143.1309 H   0  0  0  0  0  0  0  0  0  0  0  0  # atno 7974 bound_to 7965
  154.4437  140.1022  156.6396 H   0  0  0  0  0  0  0  0  0  0  0  0  # atno 8008 bound_to 7997
  155.5516  140.3485  155.4451 H   0  0  0  0  0  0  0  0  0  0  0  0  # atno 8009 bound_to 7997
  156.0525  140.1307  157.0023 H   0  0  0  0  0  0  0  0  0  0  0  0  # atno 8010 bound_to 7997
  140.7197  143.5342  150.9484 H   0  0  0  0  0  0  0  0  0  0  0  0  # atno 10167 bound_to 10162
  156.2512  130.7154  151.1054 H   0  0  0  0  0  0  0  0  0  0  0  0  # atno 10718 bound_to 10713
  154.3273  135.2755  155.2489 H   0  0  0  0  0  0  0  0  0  0  0  0  # atno 10763 bound_to 10752
  154.4817  135.5857  153.6397 H   0  0  0  0  0  0  0  0  0  0  0  0  # atno 10764 bound_to 10752
  152.9870  135.6113  154.3463 H   0  0  0  0  0  0  0  0  0  0  0  0  # atno 10765 bound_to 10752
  141.0827  133.6649  156.3761 H   0  0  0  0  0  0  0  0  0  0  0  0  # atno 11005 bound_to 11000
  146.0149  140.8401  142.9952 LP  0  0  0  0  0  0  0  0  0  0  0  0  # atno 17320 bound_to 7965
  144.6809  140.2544  143.7327 LP  0  0  0  0  0  0  0  0  0  0  0  0  # atno 17321 bound_to 7965
  139.9063  143.6774  152.3123 LP  0  0  0  0  0  0  0  0  0  0  0  0  # atno 17342 bound_to 10162
  139.7142  144.7615  151.1062 LP  0  0  0  0  0  0  0  0  0  0  0  0  # atno 17343 bound_to 10162
  157.7215  131.0678  150.6115 LP  0  0  0  0  0  0  0  0  0  0  0  0  # atno 17370 bound_to 10713
  156.6196  130.4402  149.5827 LP  0  0  0  0  0  0  0  0  0  0  0  0  # atno 17371 bound_to 10713
  140.5432  134.6100  157.5386 LP  0  0  0  0  0  0  0  0  0  0  0  0  # atno 17394 bound_to 11000
  139.9642  134.7401  156.0172 LP  0  0  0  0  0  0  0  0  0  0  0  0  # atno 17395 bound_to 11000

$$$$
