AV-unprocessed.smi:1451|AV-procd|sdf|5899|dock4
  -GOLD-   22720 5583D 1   1.00000     0.00000
 Structure written by MMmdl.
 47 48  0  0  0  0  0  0  0  0  2 V2000
  144.4492  135.1576  151.2772 C   0  0  0  0  0  0  0  0  0  0  0  0
  145.8216  134.7092  151.7999 C   0  0  2  0  0  0  0  0  0  0  0  0
  145.9397  133.1761  151.8256 C   0  0  0  0  0  0  0  0  0  0  0  0
  147.3095  132.7583  152.3745 C   0  0  0  0  0  0  0  0  0  0  0  0
  147.5640  133.3864  153.7540 C   0  0  0  0  0  0  0  0  0  0  0  0
  147.4462  134.8668  153.7000 N   0  3  2  0  0  0  0  0  0  0  0  0
  147.8177  135.5037  154.9888 C   0  0  0  0  0  0  0  0  0  0  0  0
  149.3438  135.5773  155.1928 C   0  0  0  0  0  0  0  0  0  0  0  0
  149.9102  136.7555  154.5470 N   0  0  0  0  0  0  0  0  0  0  0  0
  151.1906  137.1437  154.6442 C   0  0  0  0  0  0  0  0  0  0  0  0
  152.0360  136.5169  155.2842 O   0  0  0  0  0  0  0  0  0  0  0  0
  151.5666  138.4285  153.8922 C   0  0  0  0  0  0  0  0  0  0  0  0
  150.8265  139.6123  154.3613 N   0  0  0  0  0  0  0  0  0  0  0  0
  149.5861  139.8804  153.7493 C   0  0  0  0  0  0  0  0  0  0  0  0
  148.8209  140.9392  154.0770 C   0  0  0  0  0  0  0  0  0  0  0  0
  147.4627  141.1721  153.4338 C   0  0  0  0  0  0  0  0  0  0  0  0
  147.2580  140.3279  152.4224 F   0  0  0  0  0  0  0  0  0  0  0  0
  146.4974  140.9854  154.3330 F   0  0  0  0  0  0  0  0  0  0  0  0
  147.3597  142.4173  152.9673 F   0  0  0  0  0  0  0  0  0  0  0  0
  149.3217  141.7948  155.1349 C   0  0  0  0  0  0  0  0  0  0  0  0
  150.5028  141.5492  155.7351 C   0  0  0  0  0  0  0  0  0  0  0  0
  151.3352  140.4072  155.3503 C   0  0  0  0  0  0  0  0  0  0  0  0
  152.4223  140.1788  155.8821 O   0  0  0  0  0  0  0  0  0  0  0  0
  146.1107  135.2903  153.1989 C   0  0  0  0  0  0  0  0  0  0  0  0
  143.6436  134.8076  151.9236 H   0  0  0  0  0  0  0  0  0  0  0  0
  144.2645  134.7686  150.2752 H   0  0  0  0  0  0  0  0  0  0  0  0
  144.3853  136.2449  151.2240 H   0  0  0  0  0  0  0  0  0  0  0  0
  146.5758  135.0952  151.1121 H   0  0  0  0  0  0  0  0  0  0  0  0
  145.1504  132.7518  152.4479 H   0  0  0  0  0  0  0  0  0  0  0  0
  145.8012  132.7679  150.8239 H   0  0  0  0  0  0  0  0  0  0  0  0
  147.3670  131.6715  152.4436 H   0  0  0  0  0  0  0  0  0  0  0  0
  148.0930  133.0663  151.6807 H   0  0  0  0  0  0  0  0  0  0  0  0
  146.8578  132.9903  154.4856 H   0  0  0  0  0  0  0  0  0  0  0  0
  148.5624  133.1063  154.0924 H   0  0  0  0  0  0  0  0  0  0  0  0
  147.3682  136.4959  155.0555 H   0  0  0  0  0  0  0  0  0  0  0  0
  147.3915  134.9201  155.8061 H   0  0  0  0  0  0  0  0  0  0  0  0
  149.5888  135.5807  156.2563 H   0  0  0  0  0  0  0  0  0  0  0  0
  149.8373  134.7066  154.7635 H   0  0  0  0  0  0  0  0  0  0  0  0
  149.2831  137.3215  153.9933 H   0  0  0  0  0  0  0  0  0  0  0  0
  152.6421  138.5787  153.9944 H   0  0  0  0  0  0  0  0  0  0  0  0
  151.3990  138.2878  152.8224 H   0  0  0  0  0  0  0  0  0  0  0  0
  149.2952  139.1699  152.9892 H   0  0  0  0  0  0  0  0  0  0  0  0
  148.7431  142.6509  155.4491 H   0  0  0  0  0  0  0  0  0  0  0  0
  150.8461  142.2098  156.5180 H   0  0  0  0  0  0  0  0  0  0  0  0
  146.0593  136.3771  153.1456 H   0  0  0  0  0  0  0  0  0  0  0  0
  145.3416  134.9739  153.9055 H   0  0  0  0  0  0  0  0  0  0  0  0
  148.1284  135.1762  153.0223 H   0  0  0  0  0  0  0  0  0  0  0  0
  1  2  1  0  0  0  0
  1 25  1  0  0  0  0
  1 26  1  0  0  0  0
  1 27  1  0  0  0  0
  2 24  1  0  0  0  0
  2  3  1  0  0  0  0
  2 28  1  0  0  0  0
  3  4  1  0  0  0  0
  3 29  1  0  0  0  0
  3 30  1  0  0  0  0
  4  5  1  0  0  0  0
  4 31  1  0  0  0  0
  4 32  1  0  0  0  0
  5  6  1  0  0  0  0
  5 33  1  0  0  0  0
  5 34  1  0  0  0  0
  6  7  1  0  0  0  0
  6 24  1  0  0  0  0
  6 47  1  0  0  0  0
  7  8  1  0  0  0  0
  7 35  1  0  0  0  0
  7 36  1  0  0  0  0
  8  9  1  0  0  0  0
  8 37  1  0  0  0  0
  8 38  1  0  0  0  0
  9 10  1  0  0  0  0
  9 39  1  0  0  0  0
 10 11  2  0  0  0  0
 10 12  1  0  0  0  0
 12 13  1  0  0  0  0
 12 40  1  0  0  0  0
 12 41  1  0  0  0  0
 13 22  1  0  0  0  0
 13 14  1  0  0  0  0
 14 15  2  0  0  0  0
 14 42  1  0  0  0  0
 15 16  1  0  0  0  0
 15 20  1  0  0  0  0
 16 17  1  0  0  0  0
 16 18  1  0  0  0  0
 16 19  1  0  0  0  0
 20 21  2  0  0  0  0
 20 43  1  0  0  0  0
 21 22  1  0  0  0  0
 21 44  1  0  0  0  0
 22 23  2  0  0  0  0
 24 45  1  0  0  0  0
 24 46  1  0  0  0  0
M  CHG  1   6   1
M  END
> <s_m_source_file>
AV-unprocessed.smi

> <i_m_source_file_index>
1451

> <i_lp_mmshare_version>
43012

> <i_f3d_flags>
0

> <s_epik_input>
W0NIM11bQ0BASF0xW0NIMl1bQ0gyXVtDSDJdTihbQ0gyXTEpW0NIMl1bQ0gyXVtOSF1DKD1PKVtDSDJdbjJbY0hdYyhDKEYpKEYpRilbY0hdW2NIXWMyPU8=

> <s_epik_cmdline>
J2VwaWtfcHl0aG9uJywgJy1waCcsICc3LjAnLCAnLXRuJywgJzgnLCAnLW1hJywgJzIwMCcsICctbWV0YWxfYmluZGluZycsICctaW1hZScsICc8aW5maWxlLm1hZT4nLCAnLW9tYWUnLCAnPG91dGZpbGUubWFlPic=

> <r_lp_tautomer_probability>
1

> <r_epik_Ionization_Penalty>
0.00192452

> <r_epik_Ionization_Penalty_Charging>
0.00192444

> <r_epik_Ionization_Penalty_Neutral>
8.16761e-08

> <r_epik_State_Penalty>
0.00131115

> <r_epik_Charging_Adjusted_Penalty>
0.00323559

> <i_epik_Tot_Q>
1

> <i_epik_Tot_abs_Q>
1

> <r_epik_Metal_State_Penalty>
-0

> <b_epik_Metal_Only>
0

> <s_lp_Force_Field>
OPLS_2005

> <r_lp_Energy>
28.0939

> <b_lp_Chiralities_Consistent>
1

> <s_lp_Variant>
AV-unprocessed.smi:1451-1

> <Gold.Version>
5.8.1

> <Gold.Id.Protein>
6NUR|6NUR_protein|mol2

> <Gold.PLP.Fitness>
55.1413

> <Gold.PLP.PLP>
-43.2809

> <Gold.PLP.part.hbond>
-3.8263

> <Gold.PLP.part.metal>
0.0000

> <Gold.PLP.part.buried>
-1.3713

> <Gold.PLP.part.nonpolar>
-37.5401

> <Gold.PLP.part.repulsive>
0.1006

> <Gold.PLP.ligand.clash>
1.2007

> <Gold.PLP.ligand.torsion>
0.8991

> <Gold.PLP.Chemscore.Hbond>
4.0000

> <Gold.PLP.Chemscore.CHOScore>
0.9193

> <Gold.PLP.Chemscore.Metal>
0.0000

> <Gold.Chemscore.Hbonds>
donor molecule, donor type, donor heavy atom, donor atom, acceptor molecule, acceptor atom, score
      L1  H     6    47       P1  7948  2.00
      L1  H     9    39       P1  7948  0.01
      P1  H  7997  8009       L1    23  1.00
      P1  H 10752 10763       L1    11  0.78
      L1  C    14    42       P1  7957  0.57

> <Gold.PLP.Chemscore.Internal.Correction>
0.1014

> <Gold.Rescore>
     Score         DG    S(hbond)    S(metal)    S(lipo)     H(rot)  DE(clash)    DE(int)     intcor
     14.50     -15.30       1.98        0.00      72.81       2.08       0.04       0.76       ----

> <Gold.Chemscore.Fitness>
14.4964

> <Gold.Chemscore.DG>
-15.3006

> <Gold.Chemscore.ZeroCoef>
-5.4800

> <Gold.Chemscore.Hbond>
1.9809

> <Gold.Chemscore.Metal>
0.0000

> <Gold.Chemscore.Lipo>
72.8149

> <Gold.Chemscore.Internal_Hbond>
0.0000

> <Gold.Chemscore.DEClash>
0.0419

> <Gold.Chemscore.DEInternal>
0.7623

> <Gold.Chemscore.Rot>
2.0762

> <Gold.Chemscore.Internal.Correction>
   9.000000E+99

> <Gold.Chemscore.Hbonds>
donor molecule, donor type, donor heavy atom, donor atom, acceptor molecule, acceptor atom, score
      L1  H     6    47       P1  7948  0.97
      L1  H     9    39       P1  7948  0.02
      P1  H  7997  8009       L1    23  0.97
      P1  H 10752 10763       L1    11  0.78

> <Gold.Chemscore.Hbond.Weighted>
-6.6162

> <Gold.Chemscore.Metal.Weighted>
-0.0000

> <Gold.Chemscore.Lipo.Weighted>
-8.5193

> <Gold.Chemscore.Internal_Hbond.Weighted>
0.0000

> <Gold.Chemscore.DEClash.Weighted>
0.0419

> <Gold.Chemscore.DEInternal.Weighted>
0.7623

> <Gold.Chemscore.Rot.Weighted>
5.3150

> <Gold.Chemscore.Internal.Correction.Weighted>
   9.000000E+99

> <Gold.Protein.RotatedTorsions>
[ 6907 6896 6895 6894 ] final  -11.25 input  -60.11 | X-H torsion
[ 7974 7965 7964 7962 ] final    7.78 input  175.53 | X-H torsion
[ 8008 7997 7996 7995 ] final -161.60 input   59.86 | X-H torsion
[ 10167 10162 10161 10158 ] final -139.25 input  -65.29 | X-H torsion
[ 10718 10713 10712 10709 ] final   32.70 input   66.30 | X-H torsion
[ 10763 10752 10751 10750 ] final   64.70 input  -60.55 | X-H torsion
[ 11005 11000 10999 10996 ] final   98.96 input  -57.11 | X-H torsion

> <Gold.Protein.ActiveResidues>
 VAL166  LYS551  ARG553  GLY616  TRP617  ASP618  TYR619  PRO620  LYS621  CYS622 
 ASP623  PHE694  ASN695  SER759  ASP760  ASP761  ALA762  ILE779  LEU786  VAL792 
 PHE793  MET794  SER795  GLU796  ALA797  LYS798  CYS799  TRP800  GLU811  SER814 

> <Gold.Protein.RotatedAtoms>
  151.3891  135.0953  159.9520 H   0  0  0  0  0  0  0  0  0  0  0  0  # atno 6907 bound_to 6896
  152.5085  133.8997  159.7445 H   0  0  0  0  0  0  0  0  0  0  0  0  # atno 6908 bound_to 6896
  150.9447  133.6561  159.2812 H   0  0  0  0  0  0  0  0  0  0  0  0  # atno 6909 bound_to 6896
  146.2423  140.0032  142.8414 H   0  0  0  0  0  0  0  0  0  0  0  0  # atno 7974 bound_to 7965
  155.7946  140.0883  157.1990 H   0  0  0  0  0  0  0  0  0  0  0  0  # atno 8008 bound_to 7997
  154.3984  140.1483  156.3261 H   0  0  0  0  0  0  0  0  0  0  0  0  # atno 8009 bound_to 7997
  155.8524  140.3434  155.5705 H   0  0  0  0  0  0  0  0  0  0  0  0  # atno 8010 bound_to 7997
  139.8398  143.7337  152.2663 H   0  0  0  0  0  0  0  0  0  0  0  0  # atno 10167 bound_to 10162
  157.2885  130.7290  149.6597 H   0  0  0  0  0  0  0  0  0  0  0  0  # atno 10718 bound_to 10713
  153.0066  135.5383  154.6551 H   0  0  0  0  0  0  0  0  0  0  0  0  # atno 10763 bound_to 10752
  154.5774  135.2847  155.0769 H   0  0  0  0  0  0  0  0  0  0  0  0  # atno 10764 bound_to 10752
  154.1912  135.6500  153.5113 H   0  0  0  0  0  0  0  0  0  0  0  0  # atno 10765 bound_to 10752
  139.8771  134.9073  156.4534 H   0  0  0  0  0  0  0  0  0  0  0  0  # atno 11005 bound_to 11000
  145.1396  140.9564  143.4496 LP  0  0  0  0  0  0  0  0  0  0  0  0  # atno 17320 bound_to 7965
  145.0309  139.3342  143.6025 LP  0  0  0  0  0  0  0  0  0  0  0  0  # atno 17321 bound_to 7965
  139.7570  144.7517  151.0420 LP  0  0  0  0  0  0  0  0  0  0  0  0  # atno 17342 bound_to 10162
  140.7799  143.4794  151.0039 LP  0  0  0  0  0  0  0  0  0  0  0  0  # atno 17343 bound_to 10162
  155.9666  130.4316  150.4927 LP  0  0  0  0  0  0  0  0  0  0  0  0  # atno 17370 bound_to 10713
  157.2885  131.0621  151.2150 LP  0  0  0  0  0  0  0  0  0  0  0  0  # atno 17371 bound_to 10713
  140.8915  133.7844  155.9577 LP  0  0  0  0  0  0  0  0  0  0  0  0  # atno 17394 bound_to 11000
  140.8748  134.2683  157.5173 LP  0  0  0  0  0  0  0  0  0  0  0  0  # atno 17395 bound_to 11000

$$$$
