AV-unprocessed.smi:1665|AV-procd|sdf|6670|dock4
  -GOLD-   22720 7383D 1   1.00000     0.00000
 Structure written by MMmdl.
 37 38  0  0  0  0  0  0  0  0  1 V2000
  145.8178  137.2613  152.0823 C   0  0  0  0  0  0  0  0  0  0  0  0
  145.5224  135.7526  152.0680 C   0  0  1  0  0  0  0  0  0  0  0  0
  144.9189  135.2594  150.7351 C   0  0  0  0  0  0  0  0  0  0  0  0
  144.9108  133.8123  150.6181 N   0  0  0  0  0  0  0  0  0  0  0  0
  143.8424  132.9479  150.7339 C   0  0  0  0  0  0  0  0  0  0  0  0
  144.3202  131.6834  150.5395 C   0  0  0  0  0  0  0  0  0  0  0  0
  145.7098  131.8796  150.3040 C   0  0  0  0  0  0  0  0  0  0  0  0
  146.0594  133.1551  150.3481 N   0  0  0  0  0  0  0  0  0  0  0  0
  146.7532  135.0252  152.3604 N   0  0  0  0  0  0  0  0  0  0  0  0
  146.8216  133.8113  152.9285 C   0  0  0  0  0  0  0  0  0  0  0  0
  145.8342  133.1329  153.2098 O   0  0  0  0  0  0  0  0  0  0  0  0
  148.2236  133.2880  153.2468 C   0  0  0  0  0  0  0  0  0  0  0  0
  148.2224  131.8605  153.8354 C   0  0  0  0  0  0  0  0  0  0  0  0
  149.5047  131.5018  154.4469 N   0  0  0  0  0  0  0  0  0  0  0  0
  150.2981  132.5379  155.0920 C   0  0  0  0  0  0  0  0  0  0  0  0
  151.3551  131.8405  155.9503 C   0  0  0  0  0  0  0  0  0  0  0  0
  151.6325  130.2028  155.2449 S   0  0  0  0  0  0  0  0  0  0  0  0
  150.0764  130.2393  154.3487 C   0  0  0  0  0  0  0  0  0  0  0  0
  149.6344  129.2530  153.7625 O   0  0  0  0  0  0  0  0  0  0  0  0
  144.9077  137.8482  151.9557 H   0  0  0  0  0  0  0  0  0  0  0  0
  146.5077  137.5384  151.2847 H   0  0  0  0  0  0  0  0  0  0  0  0
  146.2661  137.5618  153.0303 H   0  0  0  0  0  0  0  0  0  0  0  0
  144.8051  135.5591  152.8680 H   0  0  0  0  0  0  0  0  0  0  0  0
  143.8936  135.6176  150.6311 H   0  0  0  0  0  0  0  0  0  0  0  0
  145.4772  135.6655  149.8901 H   0  0  0  0  0  0  0  0  0  0  0  0
  142.8432  133.3002  150.9442 H   0  0  0  0  0  0  0  0  0  0  0  0
  143.7621  130.7592  150.5608 H   0  0  0  0  0  0  0  0  0  0  0  0
  146.4695  131.1389  150.1017 H   0  0  0  0  0  0  0  0  0  0  0  0
  147.6200  135.5030  152.1618 H   0  0  0  0  0  0  0  0  0  0  0  0
  148.7989  133.2933  152.3205 H   0  0  0  0  0  0  0  0  0  0  0  0
  148.7352  133.9743  153.9237 H   0  0  0  0  0  0  0  0  0  0  0  0
  147.4135  131.7507  154.5602 H   0  0  0  0  0  0  0  0  0  0  0  0
  148.0020  131.1455  153.0417 H   0  0  0  0  0  0  0  0  0  0  0  0
  150.7752  133.1391  154.3167 H   0  0  0  0  0  0  0  0  0  0  0  0
  149.6755  133.2029  155.6918 H   0  0  0  0  0  0  0  0  0  0  0  0
  152.2831  132.4100  156.0071 H   0  0  0  0  0  0  0  0  0  0  0  0
  150.9814  131.7092  156.9664 H   0  0  0  0  0  0  0  0  0  0  0  0
  1  2  1  0  0  0  0
  1 20  1  0  0  0  0
  1 21  1  0  0  0  0
  1 22  1  0  0  0  0
  2  3  1  0  0  0  0
  2  9  1  0  0  0  0
  2 23  1  0  0  0  0
  3  4  1  0  0  0  0
  3 24  1  0  0  0  0
  3 25  1  0  0  0  0
  4  8  1  0  0  0  0
  4  5  1  0  0  0  0
  5  6  2  0  0  0  0
  5 26  1  0  0  0  0
  6  7  1  0  0  0  0
  6 27  1  0  0  0  0
  7  8  2  0  0  0  0
  7 28  1  0  0  0  0
  9 10  1  0  0  0  0
  9 29  1  0  0  0  0
 10 11  2  0  0  0  0
 10 12  1  0  0  0  0
 12 13  1  0  0  0  0
 12 30  1  0  0  0  0
 12 31  1  0  0  0  0
 13 14  1  0  0  0  0
 13 32  1  0  0  0  0
 13 33  1  0  0  0  0
 14 18  1  0  0  0  0
 14 15  1  0  0  0  0
 15 16  1  0  0  0  0
 15 34  1  0  0  0  0
 15 35  1  0  0  0  0
 16 17  1  0  0  0  0
 16 36  1  0  0  0  0
 16 37  1  0  0  0  0
 17 18  1  0  0  0  0
 18 19  2  0  0  0  0
M  END
> <s_m_source_file>
AV-unprocessed.smi

> <i_m_source_file_index>
1665

> <i_lp_mmshare_version>
43012

> <i_f3d_flags>
0

> <s_epik_input>
bjFbY0hdW2NIXVtjSF1uMVtDSDJdW0NAQEhdKFtDSDNdKVtOSF1DKD1PKVtDSDJdW0NIMl1OMltDSDJdW0NIMl1TQzI9Tw==

> <s_epik_cmdline>
J2VwaWtfcHl0aG9uJywgJy1waCcsICc3LjAnLCAnLXRuJywgJzgnLCAnLW1hJywgJzIwMCcsICctbWV0YWxfYmluZGluZycsICctaW1hZScsICc8aW5maWxlLm1hZT4nLCAnLW9tYWUnLCAnPG91dGZpbGUubWFlPic=

> <r_lp_tautomer_probability>
1

> <r_epik_Ionization_Penalty>
0.000300775

> <r_epik_Ionization_Penalty_Charging>
0

> <r_epik_Ionization_Penalty_Neutral>
0.000300775

> <r_epik_State_Penalty>
-0

> <r_epik_Charging_Adjusted_Penalty>
0

> <i_epik_Tot_Q>
0

> <i_epik_Tot_abs_Q>
0

> <r_epik_Metal_State_Penalty>
-0

> <b_epik_Metal_Only>
0

> <s_lp_Force_Field>
OPLS_2005

> <r_lp_Energy>
3.63181

> <b_lp_Chiralities_Consistent>
1

> <s_lp_Variant>
AV-unprocessed.smi:1665-2

> <Gold.Version>
5.8.1

> <Gold.Id.Protein>
6NUR|6NUR_protein|mol2

> <Gold.PLP.Fitness>
44.4268

> <Gold.PLP.PLP>
-37.4459

> <Gold.PLP.part.hbond>
-1.0000

> <Gold.PLP.part.metal>
0.0000

> <Gold.PLP.part.buried>
-5.1201

> <Gold.PLP.part.nonpolar>
-33.1193

> <Gold.PLP.part.repulsive>
0.4522

> <Gold.PLP.ligand.clash>
0.0000

> <Gold.PLP.ligand.torsion>
1.0262

> <Gold.PLP.Chemscore.Hbond>
0.9913

> <Gold.PLP.Chemscore.CHOScore>
1.9998

> <Gold.PLP.Chemscore.Metal>
0.0000

> <Gold.Chemscore.Hbonds>
donor molecule, donor type, donor heavy atom, donor atom, acceptor molecule, acceptor atom, score
      L1  H     9    29       P1  7948  0.98
      L1  C     5    26       P1 10186  0.93
      L1  C     7    28       P1 10747  1.00

> <Gold.PLP.Chemscore.Internal.Correction>
0.0601

> <Gold.Rescore>
     Score         DG    S(hbond)    S(metal)    S(lipo)     H(rot)  DE(clash)    DE(int)     intcor
      9.83     -11.88       0.98        0.00      74.93       2.20       0.11       1.95       ----

> <Gold.Chemscore.Fitness>
9.8258

> <Gold.Chemscore.DG>
-11.8836

> <Gold.Chemscore.ZeroCoef>
-5.4800

> <Gold.Chemscore.Hbond>
0.9806

> <Gold.Chemscore.Metal>
0.0000

> <Gold.Chemscore.Lipo>
74.9328

> <Gold.Chemscore.Internal_Hbond>
0.0000

> <Gold.Chemscore.DEClash>
0.1080

> <Gold.Chemscore.DEInternal>
1.9498

> <Gold.Chemscore.Rot>
2.2026

> <Gold.Chemscore.Internal.Correction>
   9.000000E+99

> <Gold.Chemscore.Hbonds>
donor molecule, donor type, donor heavy atom, donor atom, acceptor molecule, acceptor atom, score
      L1  H     9    29       P1  7948  0.91

> <Gold.Chemscore.Hbond.Weighted>
-3.2751

> <Gold.Chemscore.Metal.Weighted>
-0.0000

> <Gold.Chemscore.Lipo.Weighted>
-8.7671

> <Gold.Chemscore.Internal_Hbond.Weighted>
0.0000

> <Gold.Chemscore.DEClash.Weighted>
0.1080

> <Gold.Chemscore.DEInternal.Weighted>
1.9498

> <Gold.Chemscore.Rot.Weighted>
5.6387

> <Gold.Chemscore.Internal.Correction.Weighted>
   9.000000E+99

> <Gold.Protein.RotatedTorsions>
[ 6907 6896 6895 6894 ] final   62.13 input  -60.11 | X-H torsion
[ 7974 7965 7964 7962 ] final  170.35 input  175.53 | X-H torsion
[ 8008 7997 7996 7995 ] final   39.64 input   59.86 | X-H torsion
[ 10167 10162 10161 10158 ] final  153.40 input  -65.29 | X-H torsion
[ 10718 10713 10712 10709 ] final  175.81 input   66.30 | X-H torsion
[ 10763 10752 10751 10750 ] final  -55.68 input  -60.55 | X-H torsion
[ 11005 11000 10999 10996 ] final  -77.60 input  -57.11 | X-H torsion

> <Gold.Protein.ActiveResidues>
 VAL166  LYS551  ARG553  GLY616  TRP617  ASP618  TYR619  PRO620  LYS621  CYS622 
 ASP623  PHE694  ASN695  SER759  ASP760  ASP761  ALA762  ILE779  LEU786  VAL792 
 PHE793  MET794  SER795  GLU796  ALA797  LYS798  CYS799  TRP800  GLU811  SER814 

> <Gold.Protein.RotatedAtoms>
  152.4147  134.6063  160.0013 H   0  0  0  0  0  0  0  0  0  0  0  0  # atno 6907 bound_to 6896
  151.6230  133.3332  159.3100 H   0  0  0  0  0  0  0  0  0  0  0  0  # atno 6908 bound_to 6896
  150.8036  134.7185  159.6689 H   0  0  0  0  0  0  0  0  0  0  0  0  # atno 6909 bound_to 6896
  144.7326  139.9189  143.6419 H   0  0  0  0  0  0  0  0  0  0  0  0  # atno 7974 bound_to 7965
  155.2400  140.3344  155.4293 H   0  0  0  0  0  0  0  0  0  0  0  0  # atno 8008 bound_to 7997
  156.2260  140.1829  156.7407 H   0  0  0  0  0  0  0  0  0  0  0  0  # atno 8009 bound_to 7997
  154.5899  140.0639  156.9209 H   0  0  0  0  0  0  0  0  0  0  0  0  # atno 8010 bound_to 7997
  139.4827  144.5276  151.7776 H   0  0  0  0  0  0  0  0  0  0  0  0  # atno 10167 bound_to 10162
  156.9294  130.9966  151.2990 H   0  0  0  0  0  0  0  0  0  0  0  0  # atno 10718 bound_to 10713
  154.1947  135.6421  153.5070 H   0  0  0  0  0  0  0  0  0  0  0  0  # atno 10763 bound_to 10752
  153.0026  135.5437  154.6378 H   0  0  0  0  0  0  0  0  0  0  0  0  # atno 10764 bound_to 10752
  154.5776  135.2922  155.0738 H   0  0  0  0  0  0  0  0  0  0  0  0  # atno 10765 bound_to 10752
  141.1661  133.7029  156.7845 H   0  0  0  0  0  0  0  0  0  0  0  0  # atno 11005 bound_to 11000
  146.0944  139.3936  143.0385 LP  0  0  0  0  0  0  0  0  0  0  0  0  # atno 17320 bound_to 7965
  145.7666  140.9914  143.1172 LP  0  0  0  0  0  0  0  0  0  0  0  0  # atno 17321 bound_to 7965
  140.4798  144.1467  150.5930 LP  0  0  0  0  0  0  0  0  0  0  0  0  # atno 17342 bound_to 10162
  140.4291  143.2576  151.9619 LP  0  0  0  0  0  0  0  0  0  0  0  0  # atno 17343 bound_to 10162
  157.5857  130.8408  149.8585 LP  0  0  0  0  0  0  0  0  0  0  0  0  # atno 17370 bound_to 10713
  156.0454  130.3729  150.1330 LP  0  0  0  0  0  0  0  0  0  0  0  0  # atno 17371 bound_to 10713
  140.2370  134.8642  157.3535 LP  0  0  0  0  0  0  0  0  0  0  0  0  # atno 17394 bound_to 11000
  140.1834  134.4461  155.7758 LP  0  0  0  0  0  0  0  0  0  0  0  0  # atno 17395 bound_to 11000

$$$$
