AV-unprocessed.smi:763|AV-procd|sdf|3637|dock2
  -GOLD-   22720 1 33D 1   1.00000     0.00000
 Structure written by MMmdl.
 44 45  0  0  0  0  0  0  0  0  1 V2000
  146.8812  136.4079  162.2697 C   0  0  0  0  0  0  0  0  0  0  0  0
  147.5192  137.1571  161.2476 O   0  0  0  0  0  0  0  0  0  0  0  0
  148.0928  136.3619  160.2192 C   0  0  0  0  0  0  0  0  0  0  0  0
  147.5131  136.7003  158.8380 C   0  0  0  0  0  0  0  0  0  0  0  0
  148.1735  137.8602  158.3414 O   0  0  0  0  0  0  0  0  0  0  0  0
  148.2891  138.0235  156.9742 C   0  0  0  0  0  0  0  0  0  0  0  0
  147.3395  137.4790  156.1723 N   0  0  0  0  0  0  0  0  0  0  0  0
  147.4527  137.6475  154.8381 C   0  0  0  0  0  0  0  0  0  0  0  0
  148.5067  138.3610  154.2371 C   0  0  0  0  0  0  0  0  0  0  0  0
  149.4926  138.9243  155.0683 C   0  0  0  0  0  0  0  0  0  0  0  0
  149.3872  138.7534  156.4658 C   0  0  0  0  0  0  0  0  0  0  0  0
  150.3341  139.2860  157.3455 N   0  0  0  0  0  0  0  0  0  0  0  0
  151.7543  140.2088  156.9757 S   0  0  0  0  0  0  0  0  0  0  0  0
  152.8932  139.3525  157.3408 O   0  0  0  0  0  0  0  0  0  0  0  0
  151.5694  140.6761  155.5931 O   0  0  0  0  0  0  0  0  0  0  0  0
  151.6259  141.6463  158.1448 C   0  0  1  0  0  0  0  0  0  0  0  0
  152.8948  141.7202  159.0198 C   0  0  0  0  0  0  0  0  0  0  0  0
  152.8576  142.9150  159.9843 C   0  0  0  0  0  0  0  0  0  0  0  0
  152.6383  144.2308  159.2245 C   0  0  0  0  0  0  0  0  0  0  0  0
  151.3499  144.1730  158.3921 C   0  0  0  0  0  0  0  0  0  0  0  0
  151.3626  142.9855  157.4116 C   0  0  2  0  0  0  0  0  0  0  0  0
  150.1144  142.9652  156.7501 O   0  0  0  0  0  0  0  0  0  0  0  0
  146.4185  137.0896  162.9833 H   0  0  0  0  0  0  0  0  0  0  0  0
  147.5890  135.7871  162.8188 H   0  0  0  0  0  0  0  0  0  0  0  0
  146.0968  135.7695  161.8615 H   0  0  0  0  0  0  0  0  0  0  0  0
  149.1810  136.4416  160.2208 H   0  0  0  0  0  0  0  0  0  0  0  0
  147.8593  135.3229  160.4538 H   0  0  0  0  0  0  0  0  0  0  0  0
  147.6772  135.8631  158.1576 H   0  0  0  0  0  0  0  0  0  0  0  0
  146.4389  136.8755  158.9105 H   0  0  0  0  0  0  0  0  0  0  0  0
  146.6790  137.2008  154.2314 H   0  0  0  0  0  0  0  0  0  0  0  0
  148.5581  138.4730  153.1641 H   0  0  0  0  0  0  0  0  0  0  0  0
  150.3107  139.4757  154.6295 H   0  0  0  0  0  0  0  0  0  0  0  0
  150.1507  139.1198  158.3243 H   0  0  0  0  0  0  0  0  0  0  0  0
  150.7799  141.4326  158.7993 H   0  0  0  0  0  0  0  0  0  0  0  0
  153.0119  140.7976  159.5890 H   0  0  0  0  0  0  0  0  0  0  0  0
  153.7776  141.8028  158.3848 H   0  0  0  0  0  0  0  0  0  0  0  0
  152.0582  142.7734  160.7128 H   0  0  0  0  0  0  0  0  0  0  0  0
  153.7879  142.9636  160.5506 H   0  0  0  0  0  0  0  0  0  0  0  0
  152.5892  145.0628  159.9276 H   0  0  0  0  0  0  0  0  0  0  0  0
  153.4897  144.4260  158.5711 H   0  0  0  0  0  0  0  0  0  0  0  0
  150.4937  144.0898  159.0634 H   0  0  0  0  0  0  0  0  0  0  0  0
  151.2233  145.1084  157.8456 H   0  0  0  0  0  0  0  0  0  0  0  0
  152.1382  143.1549  156.6641 H   0  0  0  0  0  0  0  0  0  0  0  0
  149.9844  143.7975  156.3220 H   0  0  0  0  0  0  0  0  0  0  0  0
  1  2  1  0  0  0  0
  1 23  1  0  0  0  0
  1 24  1  0  0  0  0
  1 25  1  0  0  0  0
  2  3  1  0  0  0  0
  3  4  1  0  0  0  0
  3 26  1  0  0  0  0
  3 27  1  0  0  0  0
  4  5  1  0  0  0  0
  4 28  1  0  0  0  0
  4 29  1  0  0  0  0
  5  6  1  0  0  0  0
  6 11  1  0  0  0  0
  6  7  2  0  0  0  0
  7  8  1  0  0  0  0
  8  9  2  0  0  0  0
  8 30  1  0  0  0  0
  9 10  1  0  0  0  0
  9 31  1  0  0  0  0
 10 11  2  0  0  0  0
 10 32  1  0  0  0  0
 11 12  1  0  0  0  0
 12 13  1  0  0  0  0
 12 33  1  0  0  0  0
 13 14  2  0  0  0  0
 13 15  2  0  0  0  0
 13 16  1  0  0  0  0
 16 21  1  0  0  0  0
 16 17  1  0  0  0  0
 16 34  1  0  0  0  0
 17 18  1  0  0  0  0
 17 35  1  0  0  0  0
 17 36  1  0  0  0  0
 18 19  1  0  0  0  0
 18 37  1  0  0  0  0
 18 38  1  0  0  0  0
 19 20  1  0  0  0  0
 19 39  1  0  0  0  0
 19 40  1  0  0  0  0
 20 21  1  0  0  0  0
 20 41  1  0  0  0  0
 20 42  1  0  0  0  0
 21 22  1  0  0  0  0
 21 43  1  0  0  0  0
 22 44  1  0  0  0  0
M  END
> <s_m_source_file>
AV-unprocessed.smi

> <i_m_source_file_index>
763

> <i_lp_mmshare_version>
43012

> <i_f3d_flags>
0

> <s_epik_input>
W0NIM11PW0NIMl1bQ0gyXU9jMW5bY0hdW2NIXVtjSF1jMVtOSF1TKD1PKSg9TylbQ0BASF0yW0NIMl1bQ0gyXVtDSDJdW0NIMl1bQ0BIXTJbT0hd

> <s_epik_cmdline>
J2VwaWtfcHl0aG9uJywgJy1waCcsICc3LjAnLCAnLXRuJywgJzgnLCAnLW1hJywgJzIwMCcsICctbWV0YWxfYmluZGluZycsICctaW1hZScsICc8aW5maWxlLm1hZT4nLCAnLW9tYWUnLCAnPG91dGZpbGUubWFlPic=

> <r_epik_Ionization_Penalty>
0.124685

> <r_epik_Ionization_Penalty_Charging>
0

> <r_epik_Ionization_Penalty_Neutral>
0.124685

> <r_epik_State_Penalty>
0.114154

> <r_epik_Charging_Adjusted_Penalty>
0.114154

> <i_epik_Tot_Q>
0

> <i_epik_Tot_abs_Q>
0

> <r_epik_Metal_State_Penalty>
0.443785

> <b_epik_Metal_Only>
0

> <s_lp_Force_Field>
OPLS_2005

> <r_lp_Energy>
9.80168

> <b_lp_Chiralities_Consistent>
1

> <s_lp_Variant>
AV-unprocessed.smi:763-4

> <Gold.Version>
5.8.1

> <Gold.Id.Protein>
6NUR|6NUR_protein|mol2

> <Gold.PLP.Fitness>
47.1853

> <Gold.PLP.PLP>
-36.2610

> <Gold.PLP.part.hbond>
-4.5534

> <Gold.PLP.part.metal>
0.0000

> <Gold.PLP.part.buried>
-3.9792

> <Gold.PLP.part.nonpolar>
-26.8397

> <Gold.PLP.part.repulsive>
0.0418

> <Gold.PLP.ligand.clash>
0.0000

> <Gold.PLP.ligand.torsion>
1.7844

> <Gold.PLP.Chemscore.Hbond>
4.3825

> <Gold.PLP.Chemscore.CHOScore>
0.0000

> <Gold.PLP.Chemscore.Metal>
0.0000

> <Gold.Chemscore.Hbonds>
donor molecule, donor type, donor heavy atom, donor atom, acceptor molecule, acceptor atom, score
      L1  H    22    44       P1  8028  0.88
      P1  H  6931  6943       L1     2  0.93
      P1  H  6934  6947       L1     2  0.93
      P1  H  7989  7998       L1    15  0.61
      P1  H  7997  8008       L1    14  1.00

> <Gold.PLP.Chemscore.Internal.Correction>
1.3457

> <Gold.Rescore>
     Score         DG    S(hbond)    S(metal)    S(lipo)     H(rot)  DE(clash)    DE(int)     intcor
     20.13     -23.75       4.07        0.00      92.48       2.41       0.45       3.17       ----

> <Gold.Chemscore.Fitness>
20.1323

> <Gold.Chemscore.DG>
-23.7462

> <Gold.Chemscore.ZeroCoef>
-5.4800

> <Gold.Chemscore.Hbond>
4.0729

> <Gold.Chemscore.Metal>
0.0000

> <Gold.Chemscore.Lipo>
92.4791

> <Gold.Chemscore.Internal_Hbond>
0.0000

> <Gold.Chemscore.DEClash>
0.4484

> <Gold.Chemscore.DEInternal>
3.1654

> <Gold.Chemscore.Rot>
2.4052

> <Gold.Chemscore.Internal.Correction>
   9.000000E+99

> <Gold.Chemscore.Hbonds>
donor molecule, donor type, donor heavy atom, donor atom, acceptor molecule, acceptor atom, score
      L1  H    22    44       P1  8028  0.84
      P1  H  6931  6943       L1     2  0.33
      P1  H  6934  6947       L1     2  0.88
      P1  H  7989  7998       L1    15  0.60
      P1  H  7997  8008       L1    14  0.85

> <Gold.Chemscore.Hbond.Weighted>
-13.6036

> <Gold.Chemscore.Metal.Weighted>
-0.0000

> <Gold.Chemscore.Lipo.Weighted>
-10.8201

> <Gold.Chemscore.Internal_Hbond.Weighted>
0.0000

> <Gold.Chemscore.DEClash.Weighted>
0.4484

> <Gold.Chemscore.DEInternal.Weighted>
3.1654

> <Gold.Chemscore.Rot.Weighted>
6.1574

> <Gold.Chemscore.Internal.Correction.Weighted>
   9.000000E+99

> <Gold.Protein.RotatedTorsions>
[ 6907 6896 6895 6894 ] final  101.57 input  -60.11 | X-H torsion
[ 7974 7965 7964 7962 ] final -143.46 input  175.53 | X-H torsion
[ 8008 7997 7996 7995 ] final  -73.76 input   59.86 | X-H torsion
[ 10167 10162 10161 10158 ] final -109.32 input  -65.29 | X-H torsion
[ 10718 10713 10712 10709 ] final   98.84 input   66.30 | X-H torsion
[ 10763 10752 10751 10750 ] final -153.45 input  -60.55 | X-H torsion
[ 11005 11000 10999 10996 ] final  142.71 input  -57.11 | X-H torsion

> <Gold.Protein.ActiveResidues>
 VAL166  LYS551  ARG553  GLY616  TRP617  ASP618  TYR619  PRO620  LYS621  CYS622 
 ASP623  PHE694  ASN695  SER759  ASP760  ASP761  ALA762  ILE779  LEU786  VAL792 
 PHE793  MET794  SER795  GLU796  ALA797  LYS798  CYS799  TRP800  GLU811  SER814 

> <Gold.Protein.RotatedAtoms>
  152.5346  134.0106  159.7936 H   0  0  0  0  0  0  0  0  0  0  0  0  # atno 6907 bound_to 6896
  151.0309  133.5784  159.2668 H   0  0  0  0  0  0  0  0  0  0  0  0  # atno 6908 bound_to 6896
  151.2789  135.0715  159.9215 H   0  0  0  0  0  0  0  0  0  0  0  0  # atno 6909 bound_to 6896
  144.8368  140.5832  143.5479 H   0  0  0  0  0  0  0  0  0  0  0  0  # atno 7974 bound_to 7965
  154.5274  140.0773  156.8283 H   0  0  0  0  0  0  0  0  0  0  0  0  # atno 8008 bound_to 7997
  155.3447  140.3409  155.4221 H   0  0  0  0  0  0  0  0  0  0  0  0  # atno 8009 bound_to 7997
  156.1746  140.1631  156.8373 H   0  0  0  0  0  0  0  0  0  0  0  0  # atno 8010 bound_to 7997
  140.1566  143.4155  152.1456 H   0  0  0  0  0  0  0  0  0  0  0  0  # atno 10167 bound_to 10162
  157.6888  131.0652  150.4857 H   0  0  0  0  0  0  0  0  0  0  0  0  # atno 10718 bound_to 10713
  154.7926  135.3212  154.7741 H   0  0  0  0  0  0  0  0  0  0  0  0  # atno 10763 bound_to 10752
  153.8426  135.6869  153.4805 H   0  0  0  0  0  0  0  0  0  0  0  0  # atno 10764 bound_to 10752
  153.1603  135.4663  154.9704 H   0  0  0  0  0  0  0  0  0  0  0  0  # atno 10765 bound_to 10752
  140.0498  134.9261  157.0996 H   0  0  0  0  0  0  0  0  0  0  0  0  # atno 11005 bound_to 11000
  145.4778  139.1498  143.3778 LP  0  0  0  0  0  0  0  0  0  0  0  0  # atno 17320 bound_to 7965
  146.2665  140.4913  142.8832 LP  0  0  0  0  0  0  0  0  0  0  0  0  # atno 17321 bound_to 7965
  139.5400  144.7248  151.4764 LP  0  0  0  0  0  0  0  0  0  0  0  0  # atno 17342 bound_to 10162
  140.6669  143.8378  150.6953 LP  0  0  0  0  0  0  0  0  0  0  0  0  # atno 17343 bound_to 10162
  156.5186  130.4156  149.6262 LP  0  0  0  0  0  0  0  0  0  0  0  0  # atno 17370 bound_to 10713
  156.3175  130.7262  151.2167 LP  0  0  0  0  0  0  0  0  0  0  0  0  # atno 17371 bound_to 10713
  140.3935  134.2159  155.7165 LP  0  0  0  0  0  0  0  0  0  0  0  0  # atno 17394 bound_to 11000
  141.1925  133.8172  157.0838 LP  0  0  0  0  0  0  0  0  0  0  0  0  # atno 17395 bound_to 11000

$$$$
