AV-unprocessed.smi:458|AV-procd|sdf|2622|dock3
  -GOLD-   2262023 23D 1   1.00000     0.00000
 Structure written by MMmdl.
 37 39  0  0  0  0  0  0  0  0  2 V2000
  151.3316  140.2922  155.3149 O   0  0  0  0  0  0  0  0  0  0  0  0
  150.2893  141.0289  155.9150 C   0  0  0  0  0  0  0  0  0  0  0  0
  150.7651  141.8377  157.0765 C   0  0  0  0  0  0  0  0  0  0  0  0
  150.6971  143.1948  157.1776 N   0  3  0  0  0  0  0  0  0  0  0  0
  151.2567  143.6080  158.3864 C   0  0  0  0  0  0  0  0  0  0  0  0
  151.4183  144.8808  158.9249 C   0  0  0  0  0  0  0  0  0  0  0  0
  152.0413  144.9594  160.1874 C   0  0  0  0  0  0  0  0  0  0  0  0
  152.4755  143.8018  160.8644 C   0  0  0  0  0  0  0  0  0  0  0  0
  152.3030  142.5168  160.3097 C   0  0  0  0  0  0  0  0  0  0  0  0
  151.6863  142.4458  159.0599 C   0  0  0  0  0  0  0  0  0  0  0  0
  151.3634  141.3763  158.2134 N   0  0  0  0  0  0  0  0  0  0  0  0
  151.7006  139.9996  158.6145 C   0  0  0  0  0  0  0  0  0  0  0  0
  153.2191  139.7884  158.7791 C   0  0  2  0  0  0  0  0  0  0  0  0
  153.6857  139.0565  157.6647 O   0  0  0  0  0  0  0  0  0  0  0  0
  153.5711  139.1193  160.1006 C   0  0  0  0  0  0  0  0  0  0  0  0
  153.1137  137.8110  160.3685 C   0  0  0  0  0  0  0  0  0  0  0  0
  153.4610  137.1698  161.5732 C   0  0  0  0  0  0  0  0  0  0  0  0
  154.2663  137.8338  162.5182 C   0  0  0  0  0  0  0  0  0  0  0  0
  154.6031  137.2160  163.6749 F   0  0  0  0  0  0  0  0  0  0  0  0
  154.7237  139.1398  162.2580 C   0  0  0  0  0  0  0  0  0  0  0  0
  154.3777  139.7811  161.0528 C   0  0  0  0  0  0  0  0  0  0  0  0
  151.0552  139.3919  155.2328 H   0  0  0  0  0  0  0  0  0  0  0  0
  149.8488  141.6921  155.1702 H   0  0  0  0  0  0  0  0  0  0  0  0
  149.5047  140.3439  156.2350 H   0  0  0  0  0  0  0  0  0  0  0  0
  151.0883  145.7693  158.4068 H   0  0  0  0  0  0  0  0  0  0  0  0
  152.1901  145.9268  160.6449 H   0  0  0  0  0  0  0  0  0  0  0  0
  152.9517  143.9006  161.8293 H   0  0  0  0  0  0  0  0  0  0  0  0
  152.6454  141.6407  160.8397 H   0  0  0  0  0  0  0  0  0  0  0  0
  151.1610  139.7356  159.5237 H   0  0  0  0  0  0  0  0  0  0  0  0
  151.3140  139.3388  157.8381 H   0  0  0  0  0  0  0  0  0  0  0  0
  153.7185  140.7569  158.7380 H   0  0  0  0  0  0  0  0  0  0  0  0
  153.1573  138.2780  157.5743 H   0  0  0  0  0  0  0  0  0  0  0  0
  152.5031  137.2907  159.6449 H   0  0  0  0  0  0  0  0  0  0  0  0
  153.1111  136.1673  161.7712 H   0  0  0  0  0  0  0  0  0  0  0  0
  155.3428  139.6491  162.9818 H   0  0  0  0  0  0  0  0  0  0  0  0
  154.7425  140.7791  160.8578 H   0  0  0  0  0  0  0  0  0  0  0  0
  150.3022  143.7934  156.4637 H   0  0  0  0  0  0  0  0  0  0  0  0
  1  2  1  0  0  0  0
  1 22  1  0  0  0  0
  2  3  1  0  0  0  0
  2 23  1  0  0  0  0
  2 24  1  0  0  0  0
  3 11  1  0  0  0  0
  3  4  2  0  0  0  0
  4  5  1  0  0  0  0
  4 37  1  0  0  0  0
  5 10  2  0  0  0  0
  5  6  1  0  0  0  0
  6  7  2  0  0  0  0
  6 25  1  0  0  0  0
  7  8  1  0  0  0  0
  7 26  1  0  0  0  0
  8  9  2  0  0  0  0
  8 27  1  0  0  0  0
  9 10  1  0  0  0  0
  9 28  1  0  0  0  0
 10 11  1  0  0  0  0
 11 12  1  0  0  0  0
 12 13  1  0  0  0  0
 12 29  1  0  0  0  0
 12 30  1  0  0  0  0
 13 14  1  0  0  0  0
 13 15  1  0  0  0  0
 13 31  1  0  0  0  0
 14 32  1  0  0  0  0
 15 21  1  0  0  0  0
 15 16  2  0  0  0  0
 16 17  1  0  0  0  0
 16 33  1  0  0  0  0
 17 18  2  0  0  0  0
 17 34  1  0  0  0  0
 18 19  1  0  0  0  0
 18 20  1  0  0  0  0
 20 21  2  0  0  0  0
 20 35  1  0  0  0  0
 21 36  1  0  0  0  0
M  CHG  1   4   1
M  END
> <s_m_source_file>
AV-unprocessed.smi

> <i_m_source_file_index>
458

> <i_lp_mmshare_version>
43012

> <i_f3d_flags>
0

> <s_epik_input>
W2NIXTFbY0hdW2NIXVtjSF1jKGMxMiluKGMobjIpW0NIMl1bT0hdKVtDSDJdW0NASF0oW09IXSljM1tjSF1bY0hdYyhGKVtjSF1bY0hdMw==

> <s_epik_cmdline>
J2VwaWtfcHl0aG9uJywgJy1waCcsICc3LjAnLCAnLXRuJywgJzgnLCAnLW1hJywgJzIwMCcsICctbWV0YWxfYmluZGluZycsICctaW1hZScsICc8aW5maWxlLm1hZT4nLCAnLW9tYWUnLCAnPG91dGZpbGUubWFlPic=

> <r_epik_Ionization_Penalty>
1.35643

> <r_epik_Ionization_Penalty_Charging>
1.35557

> <r_epik_Ionization_Penalty_Neutral>
0.00085758

> <r_epik_State_Penalty>
1.43401

> <r_epik_Charging_Adjusted_Penalty>
2.78958

> <i_epik_Tot_Q>
1

> <i_epik_Tot_abs_Q>
1

> <r_epik_Metal_State_Penalty>
5.47166

> <b_epik_Metal_Only>
0

> <s_lp_Force_Field>
OPLS_2005

> <r_lp_Energy>
15.2314

> <b_lp_Chiralities_Consistent>
1

> <s_lp_Variant>
AV-unprocessed.smi:458-3

> <Gold.Version>
5.8.1

> <Gold.Id.Protein>
6NUR|6NUR_protein|mol2

> <Gold.PLP.Fitness>
59.1222

> <Gold.PLP.PLP>
-48.4920

> <Gold.PLP.part.hbond>
-2.7302

> <Gold.PLP.part.metal>
0.0000

> <Gold.PLP.part.buried>
-6.3280

> <Gold.PLP.part.nonpolar>
-40.3234

> <Gold.PLP.part.repulsive>
0.0078

> <Gold.PLP.ligand.clash>
0.0000

> <Gold.PLP.ligand.torsion>
0.6820

> <Gold.PLP.Chemscore.Hbond>
3.9833

> <Gold.PLP.Chemscore.CHOScore>
0.0000

> <Gold.PLP.Chemscore.Metal>
0.0000

> <Gold.Chemscore.Hbonds>
donor molecule, donor type, donor heavy atom, donor atom, acceptor molecule, acceptor atom, score
      L1  H     4    37       P1  8028  2.00
      P1  H  7989  7998       L1     1  0.99
      P1  H  7997  8010       L1    14  1.00

> <Gold.PLP.Chemscore.Internal.Correction>
0.0446

> <Gold.Rescore>
     Score         DG    S(hbond)    S(metal)    S(lipo)     H(rot)  DE(clash)    DE(int)     intcor
     21.05     -21.81       2.71        0.00     123.89       2.82       0.10       0.66       ----

> <Gold.Chemscore.Fitness>
21.0457

> <Gold.Chemscore.DG>
-21.8061

> <Gold.Chemscore.ZeroCoef>
-5.4800

> <Gold.Chemscore.Hbond>
2.7112

> <Gold.Chemscore.Metal>
0.0000

> <Gold.Chemscore.Lipo>
123.8862

> <Gold.Chemscore.Internal_Hbond>
0.0000

> <Gold.Chemscore.DEClash>
0.0998

> <Gold.Chemscore.DEInternal>
0.6606

> <Gold.Chemscore.Rot>
2.8219

> <Gold.Chemscore.Internal.Correction>
   9.000000E+99

> <Gold.Chemscore.Hbonds>
donor molecule, donor type, donor heavy atom, donor atom, acceptor molecule, acceptor atom, score
      L1  H     4    37       P1  8028  0.97
      P1  H  7989  7998       L1     1  0.37
      P1  H  7997  8010       L1    14  0.23

> <Gold.Chemscore.Hbond.Weighted>
-9.0555

> <Gold.Chemscore.Metal.Weighted>
-0.0000

> <Gold.Chemscore.Lipo.Weighted>
-14.4947

> <Gold.Chemscore.Internal_Hbond.Weighted>
0.0000

> <Gold.Chemscore.DEClash.Weighted>
0.0998

> <Gold.Chemscore.DEInternal.Weighted>
0.6606

> <Gold.Chemscore.Rot.Weighted>
7.2240

> <Gold.Chemscore.Internal.Correction.Weighted>
   9.000000E+99

> <Gold.Protein.RotatedTorsions>
[ 6907 6896 6895 6894 ] final   43.98 input  -60.11 | X-H torsion
[ 7974 7965 7964 7962 ] final  -78.94 input  175.53 | X-H torsion
[ 8008 7997 7996 7995 ] final   18.52 input   59.86 | X-H torsion
[ 10167 10162 10161 10158 ] final  111.93 input  -65.29 | X-H torsion
[ 10718 10713 10712 10709 ] final   68.73 input   66.30 | X-H torsion
[ 10763 10752 10751 10750 ] final  -65.23 input  -60.55 | X-H torsion
[ 11005 11000 10999 10996 ] final  168.50 input  -57.11 | X-H torsion

> <Gold.Protein.ActiveResidues>
 VAL166  LYS551  ARG553  GLY616  TRP617  ASP618  TYR619  PRO620  LYS621  CYS622 
 ASP623  PHE694  ASN695  SER759  ASP760  ASP761  ALA762  ILE779  LEU786  VAL792 
 PHE793  MET794  SER795  GLU796  ALA797  LYS798  CYS799  TRP800  GLU811  SER814 

> <Gold.Protein.RotatedAtoms>
  152.2269  134.8360  160.0478 H   0  0  0  0  0  0  0  0  0  0  0  0  # atno 6907 bound_to 6896
  151.9123  133.3559  159.3876 H   0  0  0  0  0  0  0  0  0  0  0  0  # atno 6908 bound_to 6896
  150.7015  134.4645  159.5440 H   0  0  0  0  0  0  0  0  0  0  0  0  # atno 6909 bound_to 6896
  145.5799  140.9450  143.1350 H   0  0  0  0  0  0  0  0  0  0  0  0  # atno 7974 bound_to 7965
  154.9073  140.3009  155.5285 H   0  0  0  0  0  0  0  0  0  0  0  0  # atno 8008 bound_to 7997
  156.3016  140.2395  156.4043 H   0  0  0  0  0  0  0  0  0  0  0  0  # atno 8009 bound_to 7997
  154.8461  140.0411  157.1562 H   0  0  0  0  0  0  0  0  0  0  0  0  # atno 8010 bound_to 7997
  139.6574  144.7129  151.1931 H   0  0  0  0  0  0  0  0  0  0  0  0  # atno 10167 bound_to 10162
  157.6306  130.9389  150.0417 H   0  0  0  0  0  0  0  0  0  0  0  0  # atno 10718 bound_to 10713
  154.3419  135.6155  153.5600 H   0  0  0  0  0  0  0  0  0  0  0  0  # atno 10763 bound_to 10752
  152.9803  135.5771  154.4843 H   0  0  0  0  0  0  0  0  0  0  0  0  # atno 10764 bound_to 10752
  154.4549  135.2854  155.1732 H   0  0  0  0  0  0  0  0  0  0  0  0  # atno 10765 bound_to 10752
  140.2879  134.7697  157.3813 H   0  0  0  0  0  0  0  0  0  0  0  0  # atno 11005 bound_to 11000
  144.7399  139.7479  143.7315 LP  0  0  0  0  0  0  0  0  0  0  0  0  # atno 17320 bound_to 7965
  146.1724  139.4880  142.9919 LP  0  0  0  0  0  0  0  0  0  0  0  0  # atno 17321 bound_to 7965
  140.7565  143.6050  150.8661 LP  0  0  0  0  0  0  0  0  0  0  0  0  # atno 17342 bound_to 10162
  139.9705  143.6062  152.2975 LP  0  0  0  0  0  0  0  0  0  0  0  0  # atno 17343 bound_to 10162
  156.1507  130.3642  149.9443 LP  0  0  0  0  0  0  0  0  0  0  0  0  # atno 17370 bound_to 10713
  156.7463  130.9098  151.3635 LP  0  0  0  0  0  0  0  0  0  0  0  0  # atno 17371 bound_to 10713
  140.1223  134.5203  155.8173 LP  0  0  0  0  0  0  0  0  0  0  0  0  # atno 17394 bound_to 11000
  141.2151  133.6760  156.6888 LP  0  0  0  0  0  0  0  0  0  0  0  0  # atno 17395 bound_to 11000

$$$$
