AV-unprocessed.smi:1208|AV-procd|sdf|5067|dock5
  -GOLD-   22720 4103D 1   1.00000     0.00000
 Structure written by MMmdl.
 36 37  0  0  0  0  0  0  0  0  1 V2000
  152.1058  143.8204  158.3442 C   0  0  0  0  0  0  0  0  0  0  0  0
  152.8038  142.5598  158.8800 C   0  0  2  0  0  0  0  0  0  0  0  0
  151.8487  141.4596  158.9615 N   0  0  0  0  0  0  0  0  0  0  0  0
  151.8745  140.3307  158.2334 C   0  0  0  0  0  0  0  0  0  0  0  0
  152.7236  140.1120  157.3704 O   0  0  0  0  0  0  0  0  0  0  0  0
  150.7928  139.2706  158.5068 C   0  0  0  0  0  0  0  0  0  0  0  0
  150.0345  138.8437  157.3191 N   0  0  0  0  0  0  0  0  0  0  0  0
  150.6144  139.2151  156.1153 N   0  0  0  0  0  0  0  0  0  0  0  0
  150.0600  138.8769  155.0007 C   0  0  0  0  0  0  0  0  0  0  0  0
  150.6705  139.2608  153.8321 O   0  0  0  0  0  0  0  0  0  0  0  0
  148.8307  138.1151  154.9773 C   0  0  0  0  0  0  0  0  0  0  0  0
  148.2730  137.7585  156.1550 C   0  0  0  0  0  0  0  0  0  0  0  0
  148.8799  138.1187  157.4376 C   0  0  0  0  0  0  0  0  0  0  0  0
  148.4046  137.7898  158.5238 O   0  0  0  0  0  0  0  0  0  0  0  0
  153.4312  142.7958  160.2674 C   0  0  1  0  0  0  0  0  0  0  0  0
  152.4221  143.0087  161.3979 C   0  0  0  0  0  0  0  0  0  0  0  0
  153.2430  142.6356  162.6105 C   0  0  0  0  0  0  0  0  0  0  0  0
  154.0678  141.4635  162.0853 C   0  0  0  0  0  0  0  0  0  0  0  0
  154.1889  141.6605  160.6782 O   0  0  0  0  0  0  0  0  0  0  0  0
  149.9849  139.2766  153.1824 H   0  0  0  0  0  0  0  0  0  0  0  0
  152.8056  144.6522  158.2616 H   0  0  0  0  0  0  0  0  0  0  0  0
  151.2930  144.1334  159.0002 H   0  0  0  0  0  0  0  0  0  0  0  0
  151.6858  143.6486  157.3527 H   0  0  0  0  0  0  0  0  0  0  0  0
  153.6034  142.2832  158.1903 H   0  0  0  0  0  0  0  0  0  0  0  0
  151.1123  141.5541  159.6458 H   0  0  0  0  0  0  0  0  0  0  0  0
  151.2604  138.4120  158.9914 H   0  0  0  0  0  0  0  0  0  0  0  0
  150.1060  139.6790  159.2501 H   0  0  0  0  0  0  0  0  0  0  0  0
  148.3755  137.8429  154.0364 H   0  0  0  0  0  0  0  0  0  0  0  0
  147.3547  137.1902  156.1528 H   0  0  0  0  0  0  0  0  0  0  0  0
  154.1064  143.6528  160.2335 H   0  0  0  0  0  0  0  0  0  0  0  0
  152.0368  144.0280  161.4413 H   0  0  0  0  0  0  0  0  0  0  0  0
  151.5772  142.3265  161.2940 H   0  0  0  0  0  0  0  0  0  0  0  0
  153.8981  143.4632  162.8856 H   0  0  0  0  0  0  0  0  0  0  0  0
  152.6363  142.3762  163.4782 H   0  0  0  0  0  0  0  0  0  0  0  0
  155.0460  141.4018  162.5626 H   0  0  0  0  0  0  0  0  0  0  0  0
  153.5471  140.5207  162.2578 H   0  0  0  0  0  0  0  0  0  0  0  0
  1  2  1  0  0  0  0
  1 21  1  0  0  0  0
  1 22  1  0  0  0  0
  1 23  1  0  0  0  0
  2  3  1  0  0  0  0
  2 15  1  0  0  0  0
  2 24  1  0  0  0  0
  3  4  1  0  0  0  0
  3 25  1  0  0  0  0
  4  5  2  0  0  0  0
  4  6  1  0  0  0  0
  6 26  1  0  0  0  0
  6 27  1  0  0  0  0
  6  7  1  0  0  0  0
  7  8  1  0  0  0  0
  7 13  1  0  0  0  0
  8  9  2  0  0  0  0
  9 10  1  0  0  0  0
  9 11  1  0  0  0  0
 10 20  1  0  0  0  0
 11 28  1  0  0  0  0
 11 12  2  0  0  0  0
 12 29  1  0  0  0  0
 12 13  1  0  0  0  0
 13 14  2  0  0  0  0
 15 19  1  0  0  0  0
 15 16  1  0  0  0  0
 15 30  1  0  0  0  0
 16 17  1  0  0  0  0
 16 31  1  0  0  0  0
 16 32  1  0  0  0  0
 17 18  1  0  0  0  0
 17 33  1  0  0  0  0
 17 34  1  0  0  0  0
 18 19  1  0  0  0  0
 18 35  1  0  0  0  0
 18 36  1  0  0  0  0
M  END
> <s_m_source_file>
AV-unprocessed.smi

> <i_m_source_file_index>
1208

> <i_lp_mmshare_version>
43012

> <i_f3d_flags>
0

> <s_epik_input>
TzFbQ0gyXVtDSDJdW0NIMl1bQ0BIXTFbQ0BIXShbQ0gzXSlbTkhdQyg9TylbQ0gyXW4yW25IXWMoPU8pW2NIXVtjSF1jMj1P

> <s_epik_cmdline>
J2VwaWtfcHl0aG9uJywgJy1waCcsICc3LjAnLCAnLXRuJywgJzgnLCAnLW1hJywgJzIwMCcsICctbWV0YWxfYmluZGluZycsICctaW1hZScsICc8aW5maWxlLm1hZT4nLCAnLW9tYWUnLCAnPG91dGZpbGUubWFlPic=

> <r_lp_tautomer_probability>
0.9996

> <r_epik_Ionization_Penalty>
2.12735

> <r_epik_Ionization_Penalty_Charging>
3.86665e-08

> <r_epik_Ionization_Penalty_Neutral>
2.12735

> <r_epik_State_Penalty>
1.70441

> <r_epik_Charging_Adjusted_Penalty>
1.70441

> <i_epik_Tot_Q>
0

> <i_epik_Tot_abs_Q>
0

> <r_epik_Metal_State_Penalty>
1.70441

> <b_epik_Metal_Only>
0

> <s_lp_Force_Field>
OPLS_2005

> <r_lp_Energy>
27.2877

> <b_lp_Chiralities_Consistent>
1

> <s_lp_Variant>
AV-unprocessed.smi:1208-7

> <Gold.Version>
5.8.1

> <Gold.Id.Protein>
6NUR|6NUR_protein|mol2

> <Gold.PLP.Fitness>
42.0853

> <Gold.PLP.PLP>
-34.4600

> <Gold.PLP.part.hbond>
-3.7323

> <Gold.PLP.part.metal>
0.0000

> <Gold.PLP.part.buried>
-3.3466

> <Gold.PLP.part.nonpolar>
-26.2009

> <Gold.PLP.part.repulsive>
0.1160

> <Gold.PLP.ligand.clash>
0.0000

> <Gold.PLP.ligand.torsion>
0.2624

> <Gold.PLP.Chemscore.Hbond>
2.7120

> <Gold.PLP.Chemscore.CHOScore>
0.0000

> <Gold.PLP.Chemscore.Metal>
0.0000

> <Gold.Chemscore.Hbonds>
donor molecule, donor type, donor heavy atom, donor atom, acceptor molecule, acceptor atom, score
      L1  H    10    20       P1  7957  0.48
      P1  H  7989  7998       L1    10  1.00
      P1  H  7997  8009       L1     5  1.00

> <Gold.PLP.Chemscore.Internal.Correction>
0.0141

> <Gold.Rescore>
     Score         DG    S(hbond)    S(metal)    S(lipo)     H(rot)  DE(clash)    DE(int)     intcor
     13.57     -15.54       2.35        0.00      76.42       2.63       0.03       1.93       ----

> <Gold.Chemscore.Fitness>
13.5663

> <Gold.Chemscore.DG>
-15.5354

> <Gold.Chemscore.ZeroCoef>
-5.4800

> <Gold.Chemscore.Hbond>
2.3466

> <Gold.Chemscore.Metal>
0.0000

> <Gold.Chemscore.Lipo>
76.4218

> <Gold.Chemscore.Internal_Hbond>
0.0000

> <Gold.Chemscore.DEClash>
0.0348

> <Gold.Chemscore.DEInternal>
1.9344

> <Gold.Chemscore.Rot>
2.6264

> <Gold.Chemscore.Internal.Correction>
   9.000000E+99

> <Gold.Chemscore.Hbonds>
donor molecule, donor type, donor heavy atom, donor atom, acceptor molecule, acceptor atom, score
      L1  H    10    20       P1  7957  0.46
      P1  H  7989  7998       L1    10  0.38
      P1  H  7997  8009       L1     5  0.97

> <Gold.Chemscore.Hbond.Weighted>
-7.8377

> <Gold.Chemscore.Metal.Weighted>
-0.0000

> <Gold.Chemscore.Lipo.Weighted>
-8.9414

> <Gold.Chemscore.Internal_Hbond.Weighted>
0.0000

> <Gold.Chemscore.DEClash.Weighted>
0.0348

> <Gold.Chemscore.DEInternal.Weighted>
1.9344

> <Gold.Chemscore.Rot.Weighted>
6.7237

> <Gold.Chemscore.Internal.Correction.Weighted>
   9.000000E+99

> <Gold.Protein.RotatedTorsions>
[ 6907 6896 6895 6894 ] final  -20.49 input  -60.11 | X-H torsion
[ 7974 7965 7964 7962 ] final  112.45 input  175.53 | X-H torsion
[ 8008 7997 7996 7995 ] final -179.07 input   59.86 | X-H torsion
[ 10167 10162 10161 10158 ] final  -34.78 input  -65.29 | X-H torsion
[ 10718 10713 10712 10709 ] final  143.33 input   66.30 | X-H torsion
[ 10763 10752 10751 10750 ] final   36.19 input  -60.55 | X-H torsion
[ 11005 11000 10999 10996 ] final  107.91 input  -57.11 | X-H torsion

> <Gold.Protein.ActiveResidues>
 VAL166  LYS551  ARG553  GLY616  TRP617  ASP618  TYR619  PRO620  LYS621  CYS622 
 ASP623  PHE694  ASN695  SER759  ASP760  ASP761  ALA762  ILE779  LEU786  VAL792 
 PHE793  MET794  SER795  GLU796  ALA797  LYS798  CYS799  TRP800  GLU811  SER814 

> <Gold.Protein.RotatedAtoms>
  151.2475  135.0610  159.9048 H   0  0  0  0  0  0  0  0  0  0  0  0  # atno 6907 bound_to 6896
  152.5385  134.0368  159.8060 H   0  0  0  0  0  0  0  0  0  0  0  0  # atno 6908 bound_to 6896
  151.0571  133.5526  159.2668 H   0  0  0  0  0  0  0  0  0  0  0  0  # atno 6909 bound_to 6896
  145.2294  139.2826  143.4176 H   0  0  0  0  0  0  0  0  0  0  0  0  # atno 7974 bound_to 7965
  156.0262  140.1272  157.0306 H   0  0  0  0  0  0  0  0  0  0  0  0  # atno 8008 bound_to 7997
  154.4331  140.1058  156.6105 H   0  0  0  0  0  0  0  0  0  0  0  0  # atno 8009 bound_to 7997
  155.5873  140.3469  155.4559 H   0  0  0  0  0  0  0  0  0  0  0  0  # atno 8010 bound_to 7997
  140.7179  143.3523  151.2129 H   0  0  0  0  0  0  0  0  0  0  0  0  # atno 10167 bound_to 10162
  157.3702  131.0978  151.0835 H   0  0  0  0  0  0  0  0  0  0  0  0  # atno 10718 bound_to 10713
  153.0087  135.6312  154.1946 H   0  0  0  0  0  0  0  0  0  0  0  0  # atno 10763 bound_to 10752
  154.1689  135.2819  155.3088 H   0  0  0  0  0  0  0  0  0  0  0  0  # atno 10764 bound_to 10752
  154.5924  135.5613  153.7352 H   0  0  0  0  0  0  0  0  0  0  0  0  # atno 10765 bound_to 10752
  139.8835  134.9415  156.5891 H   0  0  0  0  0  0  0  0  0  0  0  0  # atno 11005 bound_to 11000
  146.3357  140.2624  142.8602 LP  0  0  0  0  0  0  0  0  0  0  0  0  # atno 17320 bound_to 7965
  144.9691  140.8351  143.5466 LP  0  0  0  0  0  0  0  0  0  0  0  0  # atno 17321 bound_to 7965
  139.7057  143.9459  152.2925 LP  0  0  0  0  0  0  0  0  0  0  0  0  # atno 17342 bound_to 10162
  139.9167  144.6824  150.8504 LP  0  0  0  0  0  0  0  0  0  0  0  0  # atno 17343 bound_to 10162
  157.1942  130.6365  149.5715 LP  0  0  0  0  0  0  0  0  0  0  0  0  # atno 17370 bound_to 10713
  155.9754  130.4712  150.6456 LP  0  0  0  0  0  0  0  0  0  0  0  0  # atno 17371 bound_to 10713
  140.7969  133.8537  155.8693 LP  0  0  0  0  0  0  0  0  0  0  0  0  # atno 17394 bound_to 11000
  140.9627  134.1634  157.4641 LP  0  0  0  0  0  0  0  0  0  0  0  0  # atno 17395 bound_to 11000

$$$$
