AV-unprocessed.smi:2039|AV-procd|sdf|8282|dock2
  -GOLD-   2272010553D 1   1.00000     0.00000
 Structure written by MMmdl.
 33 34  0  0  0  0  0  0  0  0  1 V2000
  152.6364  131.8766  156.7001 C   0  0  0  0  0  0  0  0  0  0  0  0
  151.6936  132.7339  155.9268 C   0  0  0  0  0  0  0  0  0  0  0  0
  151.6694  134.0681  156.0349 N   0  0  0  0  0  0  0  0  0  0  0  0
  150.7080  134.6451  155.2168 N   0  0  0  0  0  0  0  0  0  0  0  0
  150.0335  133.7253  154.5132 C   0  0  0  0  0  0  0  0  0  0  0  0
  148.9934  134.0378  153.5983 N   0  0  0  0  0  0  0  0  0  0  0  0
  147.8826  133.3308  153.3256 C   0  0  0  0  0  0  0  0  0  0  0  0
  147.5761  132.2571  153.8449 O   0  0  0  0  0  0  0  0  0  0  0  0
  147.1301  133.9472  152.4023 N   0  0  0  0  0  0  0  0  0  0  0  0
  145.8611  133.4493  151.8794 C   0  0  2  0  0  0  0  0  0  0  0  0
  146.1050  132.1572  151.0770 C   0  0  0  0  0  0  0  0  0  0  0  0
  144.8027  131.6259  150.4569 C   0  0  0  0  0  0  0  0  0  0  0  0
  144.1323  132.6961  149.5788 C   0  0  1  0  0  0  0  0  0  0  0  0
  142.9086  132.1992  149.0796 O   0  0  0  0  0  0  0  0  0  0  0  0
  143.8765  133.9858  150.3771 C   0  0  0  0  0  0  0  0  0  0  0  0
  145.1760  134.5185  151.0022 C   0  0  0  0  0  0  0  0  0  0  0  0
  150.5237  132.0636  154.7967 S   0  0  0  0  0  0  0  0  0  0  0  0
  153.2311  132.4798  157.3868 H   0  0  0  0  0  0  0  0  0  0  0  0
  153.3098  131.3560  156.0192 H   0  0  0  0  0  0  0  0  0  0  0  0
  152.0803  131.1375  157.2769 H   0  0  0  0  0  0  0  0  0  0  0  0
  149.1087  134.9033  153.0923 H   0  0  0  0  0  0  0  0  0  0  0  0
  147.4592  134.8262  152.0306 H   0  0  0  0  0  0  0  0  0  0  0  0
  145.2038  133.2068  152.7169 H   0  0  0  0  0  0  0  0  0  0  0  0
  146.8305  132.3449  150.2838 H   0  0  0  0  0  0  0  0  0  0  0  0
  146.5423  131.3933  151.7210 H   0  0  0  0  0  0  0  0  0  0  0  0
  145.0126  130.7332  149.8664 H   0  0  0  0  0  0  0  0  0  0  0  0
  144.1227  131.3186  151.2530 H   0  0  0  0  0  0  0  0  0  0  0  0
  144.7755  132.9196  148.7266 H   0  0  0  0  0  0  0  0  0  0  0  0
  142.2203  132.8017  149.3171 H   0  0  0  0  0  0  0  0  0  0  0  0
  143.4396  134.7475  149.7302 H   0  0  0  0  0  0  0  0  0  0  0  0
  143.1485  133.7956  151.1673 H   0  0  0  0  0  0  0  0  0  0  0  0
  144.9561  135.4078  151.5941 H   0  0  0  0  0  0  0  0  0  0  0  0
  145.8544  134.8359  150.2088 H   0  0  0  0  0  0  0  0  0  0  0  0
  1  2  1  0  0  0  0
  1 18  1  0  0  0  0
  1 19  1  0  0  0  0
  1 20  1  0  0  0  0
  2 17  1  0  0  0  0
  2  3  2  0  0  0  0
  3  4  1  0  0  0  0
  4  5  2  0  0  0  0
  5  6  1  0  0  0  0
  5 17  1  0  0  0  0
  6  7  1  0  0  0  0
  6 21  1  0  0  0  0
  7  8  2  0  0  0  0
  7  9  1  0  0  0  0
  9 10  1  0  0  0  0
  9 22  1  0  0  0  0
 10 16  1  0  0  0  0
 10 11  1  0  0  0  0
 10 23  1  0  0  0  0
 11 12  1  0  0  0  0
 11 24  1  0  0  0  0
 11 25  1  0  0  0  0
 12 13  1  0  0  0  0
 12 26  1  0  0  0  0
 12 27  1  0  0  0  0
 13 14  1  0  0  0  0
 13 15  1  0  0  0  0
 13 28  1  0  0  0  0
 14 29  1  0  0  0  0
 15 16  1  0  0  0  0
 15 30  1  0  0  0  0
 15 31  1  0  0  0  0
 16 32  1  0  0  0  0
 16 33  1  0  0  0  0
M  END
> <s_m_source_file>
AV-unprocessed.smi

> <i_m_source_file_index>
2039

> <i_lp_mmshare_version>
43012

> <i_f3d_flags>
0

> <s_epik_input>
W0NIM11jMW5uYyhzMSlbTkhdQyg9TylbTkhdW0NAQEhdMltDSDJdW0NIMl1bQ0BASF0oW09IXSlbQ0gyXVtDSDJdMg==

> <s_epik_cmdline>
J2VwaWtfcHl0aG9uJywgJy1waCcsICc3LjAnLCAnLXRuJywgJzgnLCAnLW1hJywgJzIwMCcsICctbWV0YWxfYmluZGluZycsICctaW1hZScsICc8aW5maWxlLm1hZT4nLCAnLW9tYWUnLCAnPG91dGZpbGUubWFlPic=

> <r_lp_tautomer_probability>
1

> <r_epik_Ionization_Penalty>
0.000385244

> <r_epik_Ionization_Penalty_Charging>
0

> <r_epik_Ionization_Penalty_Neutral>
0.000385244

> <r_epik_State_Penalty>
-0

> <r_epik_Charging_Adjusted_Penalty>
0

> <i_epik_Tot_Q>
0

> <i_epik_Tot_abs_Q>
0

> <r_epik_Metal_State_Penalty>
0.189642

> <b_epik_Metal_Only>
0

> <s_lp_Force_Field>
OPLS_2005

> <r_lp_Energy>
6.55666

> <b_lp_Chiralities_Consistent>
1

> <s_lp_Variant>
AV-unprocessed.smi:2039-1

> <Gold.Version>
5.8.1

> <Gold.Id.Protein>
6NUR|6NUR_protein|mol2

> <Gold.PLP.Fitness>
40.7178

> <Gold.PLP.PLP>
-30.2153

> <Gold.PLP.part.hbond>
-4.9930

> <Gold.PLP.part.metal>
0.0000

> <Gold.PLP.part.buried>
-4.1641

> <Gold.PLP.part.nonpolar>
-22.1098

> <Gold.PLP.part.repulsive>
0.1541

> <Gold.PLP.ligand.clash>
0.0000

> <Gold.PLP.ligand.torsion>
0.2948

> <Gold.PLP.Chemscore.Hbond>
3.6963

> <Gold.PLP.Chemscore.CHOScore>
0.0000

> <Gold.PLP.Chemscore.Metal>
0.0000

> <Gold.Chemscore.Hbonds>
donor molecule, donor type, donor heavy atom, donor atom, acceptor molecule, acceptor atom, score
      L1  H     6    21       P1  7948  0.65
      L1  H     9    22       P1  7948  0.99
      L1  H    14    29       P1 10186  1.00
      P1  H 10752 10765       L1     3  0.03
      P1  H 10785 10796       L1    14  0.81

> <Gold.PLP.Chemscore.Internal.Correction>
0.0033

> <Gold.Rescore>
     Score         DG    S(hbond)    S(metal)    S(lipo)     H(rot)  DE(clash)    DE(int)     intcor
     16.97     -17.34       2.58        0.00      60.67       1.50       0.07       0.31       ----

> <Gold.Chemscore.Fitness>
16.9673

> <Gold.Chemscore.DG>
-17.3420

> <Gold.Chemscore.ZeroCoef>
-5.4800

> <Gold.Chemscore.Hbond>
2.5763

> <Gold.Chemscore.Metal>
0.0000

> <Gold.Chemscore.Lipo>
60.6676

> <Gold.Chemscore.Internal_Hbond>
0.0000

> <Gold.Chemscore.DEClash>
0.0679

> <Gold.Chemscore.DEInternal>
0.3067

> <Gold.Chemscore.Rot>
1.5004

> <Gold.Chemscore.Internal.Correction>
   9.000000E+99

> <Gold.Chemscore.Hbonds>
donor molecule, donor type, donor heavy atom, donor atom, acceptor molecule, acceptor atom, score
      L1  H     6    21       P1  7948  0.06
      L1  H     9    22       P1  7948  0.75
      L1  H    14    29       P1 10186  0.93
      P1  H 10785 10796       L1    14  0.48

> <Gold.Chemscore.Hbond.Weighted>
-8.6048

> <Gold.Chemscore.Metal.Weighted>
-0.0000

> <Gold.Chemscore.Lipo.Weighted>
-7.0981

> <Gold.Chemscore.Internal_Hbond.Weighted>
0.0000

> <Gold.Chemscore.DEClash.Weighted>
0.0679

> <Gold.Chemscore.DEInternal.Weighted>
0.3067

> <Gold.Chemscore.Rot.Weighted>
3.8409

> <Gold.Chemscore.Internal.Correction.Weighted>
   9.000000E+99

> <Gold.Protein.RotatedTorsions>
[ 6907 6896 6895 6894 ] final -148.11 input  -60.11 | X-H torsion
[ 7974 7965 7964 7962 ] final  -78.91 input  175.53 | X-H torsion
[ 8008 7997 7996 7995 ] final  -78.42 input   59.86 | X-H torsion
[ 10167 10162 10161 10158 ] final   75.57 input  -65.29 | X-H torsion
[ 10718 10713 10712 10709 ] final  -60.18 input   66.30 | X-H torsion
[ 10763 10752 10751 10750 ] final -160.75 input  -60.55 | X-H torsion
[ 11005 11000 10999 10996 ] final   21.66 input  -57.11 | X-H torsion

> <Gold.Protein.ActiveResidues>
 VAL166  LYS551  ARG553  GLY616  TRP617  ASP618  TYR619  PRO620  LYS621  CYS622 
 ASP623  PHE694  ASN695  SER759  ASP760  ASP761  ALA762  ILE779  LEU786  VAL792 
 PHE793  MET794  SER795  GLU796  ALA797  LYS798  CYS799  TRP800  GLU811  SER814 

> <Gold.Protein.RotatedAtoms>
  151.1652  133.4819  159.2593 H   0  0  0  0  0  0  0  0  0  0  0  0  # atno 6907 bound_to 6896
  151.1412  135.0180  159.8637 H   0  0  0  0  0  0  0  0  0  0  0  0  # atno 6908 bound_to 6896
  152.5462  134.1546  159.8585 H   0  0  0  0  0  0  0  0  0  0  0  0  # atno 6909 bound_to 6896
  145.5802  140.9450  143.1348 H   0  0  0  0  0  0  0  0  0  0  0  0  # atno 7974 bound_to 7965
  154.5687  140.0694  156.8932 H   0  0  0  0  0  0  0  0  0  0  0  0  # atno 8008 bound_to 7997
  155.2674  140.3363  155.4250 H   0  0  0  0  0  0  0  0  0  0  0  0  # atno 8009 bound_to 7997
  156.2101  140.1756  156.7698 H   0  0  0  0  0  0  0  0  0  0  0  0  # atno 8010 bound_to 7997
  140.0015  144.5682  150.7733 H   0  0  0  0  0  0  0  0  0  0  0  0  # atno 10167 bound_to 10162
  156.1008  130.4186  150.0819 H   0  0  0  0  0  0  0  0  0  0  0  0  # atno 10718 bound_to 10713
  154.7364  135.3058  154.8805 H   0  0  0  0  0  0  0  0  0  0  0  0  # atno 10763 bound_to 10752
  153.9632  135.6750  153.4749 H   0  0  0  0  0  0  0  0  0  0  0  0  # atno 10764 bound_to 10752
  153.0966  135.4932  154.8713 H   0  0  0  0  0  0  0  0  0  0  0  0  # atno 10765 bound_to 10752
  140.3892  134.1838  155.7662 H   0  0  0  0  0  0  0  0  0  0  0  0  # atno 11005 bound_to 11000
  144.7397  139.7483  143.7315 LP  0  0  0  0  0  0  0  0  0  0  0  0  # atno 17320 bound_to 7965
  146.1722  139.4877  142.9920 LP  0  0  0  0  0  0  0  0  0  0  0  0  # atno 17321 bound_to 7965
  140.7417  143.2821  151.3568 LP  0  0  0  0  0  0  0  0  0  0  0  0  # atno 17342 bound_to 10162
  139.6268  144.0798  152.2441 LP  0  0  0  0  0  0  0  0  0  0  0  0  # atno 17343 bound_to 10162
  156.8806  130.9555  151.3600 LP  0  0  0  0  0  0  0  0  0  0  0  0  # atno 17370 bound_to 10713
  157.6178  130.8632  149.9058 LP  0  0  0  0  0  0  0  0  0  0  0  0  # atno 17371 bound_to 10713
  141.1897  133.8233  157.0947 LP  0  0  0  0  0  0  0  0  0  0  0  0  # atno 17394 bound_to 11000
  140.0420  134.9849  157.0979 LP  0  0  0  0  0  0  0  0  0  0  0  0  # atno 17395 bound_to 11000

$$$$
