AV-unprocessed.smi:148|AV-procd|sdf|1223|dock1
  -GOLD-   2262018413D 1   1.00000     0.00000
 Structure written by MMmdl.
 63 67  0  0  0  0  0  0  0  0  1 V2000
  149.0581  140.9122  153.6346 O   0  0  0  0  0  0  0  0  0  0  0  0
  148.5409  141.4290  154.8431 C   0  0  0  0  0  0  0  0  0  0  0  0
  147.2445  140.6919  155.2643 C   0  0  1  0  0  0  0  0  0  0  0  0
  147.5297  139.3078  155.9089 C   0  0  0  0  0  0  0  0  0  0  0  0
  148.6544  139.3273  156.8269 N   0  0  0  0  0  0  0  0  0  0  0  0
  148.5989  139.2738  158.2013 C   0  0  0  0  0  0  0  0  0  0  0  0
  149.7529  139.3416  158.8067 N   0  0  0  0  0  0  0  0  0  0  0  0
  150.6723  139.4404  157.7692 C   0  0  0  0  0  0  0  0  0  0  0  0
  152.0868  139.5842  157.7028 C   0  0  0  0  0  0  0  0  0  0  0  0
  152.9013  139.6732  158.7759 N   0  0  0  0  0  0  0  0  0  0  0  0
  153.0687  138.3383  159.3545 C   0  0  0  0  0  0  0  0  0  0  0  0
  154.1896  138.3146  160.3977 C   0  0  0  0  0  0  0  0  0  0  0  0
  153.9168  139.3659  161.4737 C   0  0  0  0  0  0  0  0  0  0  0  0
  153.7523  140.7448  160.8232 C   0  0  0  0  0  0  0  0  0  0  0  0
  152.6437  140.7703  159.7348 C   0  0  1  0  0  0  0  0  0  0  0  0
  152.5709  142.1945  159.0772 C   0  0  1  0  0  0  0  0  0  0  0  0
  151.3807  142.4841  158.1353 C   0  0  0  0  0  0  0  0  0  0  0  0
  151.1870  144.0068  158.1040 C   0  0  0  0  0  0  0  0  0  0  0  0
  152.1075  144.5764  159.1866 C   0  0  0  0  0  0  0  0  0  0  0  0
  152.4910  143.3819  160.0612 C   0  0  1  0  0  0  0  0  0  0  0  0
  151.4719  143.1855  161.0256 O   0  0  0  0  0  0  0  0  0  0  0  0
  152.6671  139.6306  156.4782 N   0  0  0  0  0  0  0  0  0  0  0  0
  151.9089  139.5721  155.3791 C   0  0  0  0  0  0  0  0  0  0  0  0
  150.5809  139.4717  155.2845 N   0  0  0  0  0  0  0  0  0  0  0  0
  149.9994  139.4081  156.5166 C   0  0  0  0  0  0  0  0  0  0  0  0
  146.3244  141.6003  156.1274 C   0  0  1  0  0  0  0  0  0  0  0  0
  145.6323  142.7466  155.4120 C   0  0  0  0  0  0  0  0  0  0  0  0
  144.5890  143.1504  156.4464 C   0  0  0  0  0  0  0  0  0  0  0  0
  144.1574  141.9247  157.0270 O   0  0  0  0  0  0  0  0  0  0  0  0
  145.1510  140.9180  156.8428 C   0  0  0  0  0  0  0  0  0  0  0  0
  149.6236  140.1826  153.8367 H   0  0  0  0  0  0  0  0  0  0  0  0
  149.3258  141.3137  155.5903 H   0  0  0  0  0  0  0  0  0  0  0  0
  148.3627  142.4988  154.7322 H   0  0  0  0  0  0  0  0  0  0  0  0
  146.6954  140.4879  154.3437 H   0  0  0  0  0  0  0  0  0  0  0  0
  146.6594  138.9452  156.4545 H   0  0  0  0  0  0  0  0  0  0  0  0
  147.7515  138.5631  155.1454 H   0  0  0  0  0  0  0  0  0  0  0  0
  147.6680  139.2007  158.7450 H   0  0  0  0  0  0  0  0  0  0  0  0
  152.1334  138.0217  159.8187 H   0  0  0  0  0  0  0  0  0  0  0  0
  153.2934  137.6144  158.5692 H   0  0  0  0  0  0  0  0  0  0  0  0
  154.2626  137.3244  160.8479 H   0  0  0  0  0  0  0  0  0  0  0  0
  155.1485  138.5130  159.9169 H   0  0  0  0  0  0  0  0  0  0  0  0
  153.0125  139.1076  162.0258 H   0  0  0  0  0  0  0  0  0  0  0  0
  154.7327  139.3850  162.1967 H   0  0  0  0  0  0  0  0  0  0  0  0
  153.5406  141.4604  161.6163 H   0  0  0  0  0  0  0  0  0  0  0  0
  154.7029  141.0476  160.3816 H   0  0  0  0  0  0  0  0  0  0  0  0
  151.6931  140.5671  160.2291 H   0  0  0  0  0  0  0  0  0  0  0  0
  153.4849  142.3336  158.4965 H   0  0  0  0  0  0  0  0  0  0  0  0
  151.5414  142.1048  157.1271 H   0  0  0  0  0  0  0  0  0  0  0  0
  150.4737  142.0190  158.5228 H   0  0  0  0  0  0  0  0  0  0  0  0
  151.4371  144.4228  157.1274 H   0  0  0  0  0  0  0  0  0  0  0  0
  150.1451  144.2572  158.3074 H   0  0  0  0  0  0  0  0  0  0  0  0
  153.0059  144.9774  158.7154 H   0  0  0  0  0  0  0  0  0  0  0  0
  151.6473  145.3907  159.7479 H   0  0  0  0  0  0  0  0  0  0  0  0
  153.4370  143.5621  160.5726 H   0  0  0  0  0  0  0  0  0  0  0  0
  151.6548  143.7377  161.7704 H   0  0  0  0  0  0  0  0  0  0  0  0
  152.4418  139.6215  154.4409 H   0  0  0  0  0  0  0  0  0  0  0  0
  146.9415  142.0619  156.9000 H   0  0  0  0  0  0  0  0  0  0  0  0
  146.3092  143.5605  155.1509 H   0  0  0  0  0  0  0  0  0  0  0  0
  145.1255  142.4155  154.5066 H   0  0  0  0  0  0  0  0  0  0  0  0
  145.0408  143.7686  157.2234 H   0  0  0  0  0  0  0  0  0  0  0  0
  143.7562  143.7036  156.0118 H   0  0  0  0  0  0  0  0  0  0  0  0
  144.7124  140.1186  156.2475 H   0  0  0  0  0  0  0  0  0  0  0  0
  145.4537  140.4909  157.7993 H   0  0  0  0  0  0  0  0  0  0  0  0
  1  2  1  0  0  0  0
  1 31  1  0  0  0  0
  2  3  1  0  0  0  0
  2 32  1  0  0  0  0
  2 33  1  0  0  0  0
  3  4  1  0  0  0  0
  3 26  1  0  0  0  0
  3 34  1  0  0  0  0
  4  5  1  0  0  0  0
  4 35  1  0  0  0  0
  4 36  1  0  0  0  0
  5 25  1  0  0  0  0
  5  6  1  0  0  0  0
  6  7  2  0  0  0  0
  6 37  1  0  0  0  0
  7  8  1  0  0  0  0
  8 25  2  0  0  0  0
  8  9  1  0  0  0  0
  9 10  1  0  0  0  0
  9 22  2  0  0  0  0
 10 15  1  0  0  0  0
 10 11  1  0  0  0  0
 11 12  1  0  0  0  0
 11 38  1  0  0  0  0
 11 39  1  0  0  0  0
 12 13  1  0  0  0  0
 12 40  1  0  0  0  0
 12 41  1  0  0  0  0
 13 14  1  0  0  0  0
 13 42  1  0  0  0  0
 13 43  1  0  0  0  0
 14 15  1  0  0  0  0
 14 44  1  0  0  0  0
 14 45  1  0  0  0  0
 15 16  1  0  0  0  0
 15 46  1  0  0  0  0
 16 20  1  0  0  0  0
 16 17  1  0  0  0  0
 16 47  1  0  0  0  0
 17 18  1  0  0  0  0
 17 48  1  0  0  0  0
 17 49  1  0  0  0  0
 18 19  1  0  0  0  0
 18 50  1  0  0  0  0
 18 51  1  0  0  0  0
 19 20  1  0  0  0  0
 19 52  1  0  0  0  0
 19 53  1  0  0  0  0
 20 21  1  0  0  0  0
 20 54  1  0  0  0  0
 21 55  1  0  0  0  0
 22 23  1  0  0  0  0
 23 24  2  0  0  0  0
 23 56  1  0  0  0  0
 24 25  1  0  0  0  0
 26 30  1  0  0  0  0
 26 27  1  0  0  0  0
 26 57  1  0  0  0  0
 27 28  1  0  0  0  0
 27 58  1  0  0  0  0
 27 59  1  0  0  0  0
 28 29  1  0  0  0  0
 28 60  1  0  0  0  0
 28 61  1  0  0  0  0
 29 30  1  0  0  0  0
 30 62  1  0  0  0  0
 30 63  1  0  0  0  0
M  END
> <s_m_source_file>
AV-unprocessed.smi

> <i_m_source_file_index>
148

> <i_lp_mmshare_version>
43012

> <i_f3d_flags>
0

> <s_epik_input>
W0NIMl0xT1tDSDJdW0NIMl1bQ0BIXTFbQ0BIXShbQ0gyXVtPSF0pW0NIMl1uKFtjSF1uMiljKGMyMyluW2NIXW5jM040W0NIMl1bQ0gyXVtDSDJdW0NIMl1bQ0BIXTRbQ0BASF01W0NIMl1bQ0gyXVtDSDJdW0NASF01W09IXQ==

> <s_epik_cmdline>
J2VwaWtfcHl0aG9uJywgJy1waCcsICc3LjAnLCAnLXRuJywgJzgnLCAnLW1hJywgJzIwMCcsICctbWV0YWxfYmluZGluZycsICctaW1hZScsICc8aW5maWxlLm1hZT4nLCAnLW9tYWUnLCAnPG91dGZpbGUubWFlPic=

> <r_lp_tautomer_probability>
1

> <r_epik_Ionization_Penalty>
0.00556303

> <r_epik_Ionization_Penalty_Charging>
0

> <r_epik_Ionization_Penalty_Neutral>
0.00556303

> <r_epik_State_Penalty>
0.00401767

> <r_epik_Charging_Adjusted_Penalty>
0.00401767

> <i_epik_Tot_Q>
0

> <i_epik_Tot_abs_Q>
0

> <r_epik_Metal_State_Penalty>
-0

> <b_epik_Metal_Only>
0

> <s_lp_Force_Field>
OPLS_2005

> <r_lp_Energy>
70.5845

> <b_lp_Chiralities_Consistent>
1

> <s_lp_Variant>
AV-unprocessed.smi:148-22

> <Gold.Version>
5.8.1

> <Gold.Id.Protein>
6NUR|6NUR_protein|mol2

> <Gold.PLP.Fitness>
53.1290

> <Gold.PLP.PLP>
-48.7138

> <Gold.PLP.part.hbond>
-4.0395

> <Gold.PLP.part.metal>
0.0000

> <Gold.PLP.part.buried>
-6.5004

> <Gold.PLP.part.nonpolar>
-39.4627

> <Gold.PLP.part.repulsive>
0.0924

> <Gold.PLP.ligand.clash>
0.0000

> <Gold.PLP.ligand.torsion>
1.1757

> <Gold.PLP.Chemscore.Hbond>
2.0000

> <Gold.PLP.Chemscore.CHOScore>
0.0000

> <Gold.PLP.Chemscore.Metal>
0.0000

> <Gold.Chemscore.Hbonds>
donor molecule, donor type, donor heavy atom, donor atom, acceptor molecule, acceptor atom, score
      P1  H  6933  6945       L1    21  0.05
      P1  H  7997  8010       L1    22  1.00
      P1  H  8011  8017       L1     1  0.78

> <Gold.PLP.Chemscore.Internal.Correction>
0.7665

> <Gold.Rescore>
     Score         DG    S(hbond)    S(metal)    S(lipo)     H(rot)  DE(clash)    DE(int)     intcor
     14.90     -16.39       1.68        0.00     117.82       3.32       0.05       1.44       ----

> <Gold.Chemscore.Fitness>
14.9016

> <Gold.Chemscore.DG>
-16.3928

> <Gold.Chemscore.ZeroCoef>
-5.4800

> <Gold.Chemscore.Hbond>
1.6849

> <Gold.Chemscore.Metal>
0.0000

> <Gold.Chemscore.Lipo>
117.8221

> <Gold.Chemscore.Internal_Hbond>
0.0000

> <Gold.Chemscore.DEClash>
0.0498

> <Gold.Chemscore.DEInternal>
1.4414

> <Gold.Chemscore.Rot>
3.3203

> <Gold.Chemscore.Internal.Correction>
   9.000000E+99

> <Gold.Chemscore.Hbonds>
donor molecule, donor type, donor heavy atom, donor atom, acceptor molecule, acceptor atom, score
      P1  H  6933  6945       L1    21  0.01
      P1  H  7997  8010       L1    22  0.82
      P1  H  8011  8017       L1     1  0.61

> <Gold.Chemscore.Hbond.Weighted>
-5.6276

> <Gold.Chemscore.Metal.Weighted>
-0.0000

> <Gold.Chemscore.Lipo.Weighted>
-13.7852

> <Gold.Chemscore.Internal_Hbond.Weighted>
0.0000

> <Gold.Chemscore.DEClash.Weighted>
0.0498

> <Gold.Chemscore.DEInternal.Weighted>
1.4414

> <Gold.Chemscore.Rot.Weighted>
8.5000

> <Gold.Chemscore.Internal.Correction.Weighted>
   9.000000E+99

> <Gold.Protein.RotatedTorsions>
[ 6907 6896 6895 6894 ] final  -55.55 input  -60.11 | X-H torsion
[ 7974 7965 7964 7962 ] final  -33.31 input  175.53 | X-H torsion
[ 8008 7997 7996 7995 ] final   91.16 input   59.86 | X-H torsion
[ 10167 10162 10161 10158 ] final  108.93 input  -65.29 | X-H torsion
[ 10718 10713 10712 10709 ] final  131.77 input   66.30 | X-H torsion
[ 10763 10752 10751 10750 ] final  179.39 input  -60.55 | X-H torsion
[ 11005 11000 10999 10996 ] final  -35.76 input  -57.11 | X-H torsion

> <Gold.Protein.ActiveResidues>
 VAL166  LYS551  ARG553  GLY616  TRP617  ASP618  TYR619  PRO620  LYS621  CYS622 
 ASP623  PHE694  ASN695  SER759  ASP760  ASP761  ALA762  ILE779  LEU786  VAL792 
 PHE793  MET794  SER795  GLU796  ALA797  LYS798  CYS799  TRP800  GLU811  SER814 

> <Gold.Protein.RotatedAtoms>
  150.8242  134.7465  159.6798 H   0  0  0  0  0  0  0  0  0  0  0  0  # atno 6907 bound_to 6896
  152.4355  134.5692  159.9926 H   0  0  0  0  0  0  0  0  0  0  0  0  # atno 6908 bound_to 6896
  151.5869  133.3333  159.3055 H   0  0  0  0  0  0  0  0  0  0  0  0  # atno 6909 bound_to 6896
  146.0921  140.5900  142.8860 H   0  0  0  0  0  0  0  0  0  0  0  0  # atno 7974 bound_to 7965
  156.0205  140.3341  155.7034 H   0  0  0  0  0  0  0  0  0  0  0  0  # atno 8008 bound_to 7997
  155.6028  140.0657  157.2746 H   0  0  0  0  0  0  0  0  0  0  0  0  # atno 8009 bound_to 7997
  154.4314  140.1807  156.1179 H   0  0  0  0  0  0  0  0  0  0  0  0  # atno 8010 bound_to 7997
  139.6806  144.7118  151.1522 H   0  0  0  0  0  0  0  0  0  0  0  0  # atno 10167 bound_to 10162
  157.4936  131.1091  150.9523 H   0  0  0  0  0  0  0  0  0  0  0  0  # atno 10718 bound_to 10713
  154.5200  135.2793  155.1270 H   0  0  0  0  0  0  0  0  0  0  0  0  # atno 10763 bound_to 10752
  154.2831  135.6281  153.5359 H   0  0  0  0  0  0  0  0  0  0  0  0  # atno 10764 bound_to 10752
  152.9935  135.5656  154.5687 H   0  0  0  0  0  0  0  0  0  0  0  0  # atno 10765 bound_to 10752
  140.9821  133.7050  156.1702 H   0  0  0  0  0  0  0  0  0  0  0  0  # atno 11005 bound_to 11000
  144.7368  140.4830  143.6898 LP  0  0  0  0  0  0  0  0  0  0  0  0  # atno 17320 bound_to 7965
  145.6019  139.1504  143.3124 LP  0  0  0  0  0  0  0  0  0  0  0  0  # atno 17321 bound_to 7965
  140.7651  143.5704  150.9002 LP  0  0  0  0  0  0  0  0  0  0  0  0  # atno 17342 bound_to 10162
  139.9376  143.6420  152.3061 LP  0  0  0  0  0  0  0  0  0  0  0  0  # atno 17343 bound_to 10162
  157.0217  130.5676  149.5332 LP  0  0  0  0  0  0  0  0  0  0  0  0  # atno 17370 bound_to 10713
  156.0187  130.5282  150.8213 LP  0  0  0  0  0  0  0  0  0  0  0  0  # atno 17371 bound_to 10713
  140.7170  134.4399  157.5577 LP  0  0  0  0  0  0  0  0  0  0  0  0  # atno 17394 bound_to 11000
  139.8955  134.8682  156.2130 LP  0  0  0  0  0  0  0  0  0  0  0  0  # atno 17395 bound_to 11000

$$$$
