AV-unprocessed.smi:1605|AV-procd|sdf|6452|dock4
  -GOLD-   22720 7103D 1   1.00000     0.00000
 Structure written by MMmdl.
 51 53  0  0  0  0  0  0  0  0  2 V2000
  143.2842  136.4890  152.5594 C   0  0  0  0  0  0  0  0  0  0  0  0
  144.5621  135.9544  152.8678 O   0  0  0  0  0  0  0  0  0  0  0  0
  145.5702  136.9317  153.0886 C   0  0  2  0  0  0  0  0  0  0  0  0
  145.0843  137.8492  154.2202 C   0  0  0  0  0  0  0  0  0  0  0  0
  146.0646  139.0091  154.4592 C   0  0  0  0  0  0  0  0  0  0  0  0
  146.2758  139.7950  153.2161 N   0  3  1  0  0  0  0  0  0  0  0  0
  147.1007  141.0081  153.4526 C   0  0  0  0  0  0  0  0  0  0  0  0
  148.3940  140.7162  154.2472 C   0  0  1  0  0  0  0  0  0  0  0  0
  149.5106  141.0169  153.4322 O   0  0  0  0  0  0  0  0  0  0  0  0
  148.4981  141.5227  155.5613 C   0  0  0  0  0  0  0  0  0  0  0  0
  149.3499  140.9045  156.5653 N   0  0  0  0  0  0  0  0  0  0  0  0
  149.3219  139.6214  156.9753 C   0  0  0  0  0  0  0  0  0  0  0  0
  150.1873  139.2633  157.9187 N   0  0  0  0  0  0  0  0  0  0  0  0
  150.8682  140.4488  158.1371 C   0  0  0  0  0  0  0  0  0  0  0  0
  151.9252  140.7491  159.0240 C   0  0  0  0  0  0  0  0  0  0  0  0
  152.4785  142.0483  159.0791 C   0  0  0  0  0  0  0  0  0  0  0  0
  153.6139  142.3275  160.0484 C   0  0  0  0  0  0  0  0  0  0  0  0
  151.9755  143.0707  158.2351 C   0  0  0  0  0  0  0  0  0  0  0  0
  152.5559  144.4734  158.2733 C   0  0  0  0  0  0  0  0  0  0  0  0
  150.9183  142.7884  157.3453 C   0  0  0  0  0  0  0  0  0  0  0  0
  150.3730  141.4931  157.3021 C   0  0  0  0  0  0  0  0  0  0  0  0
  146.7865  138.9366  152.1137 C   0  0  0  0  0  0  0  0  0  0  0  0
  145.8223  137.7739  151.8239 C   0  0  0  0  0  0  0  0  0  0  0  0
  142.5891  135.6727  152.3635 H   0  0  0  0  0  0  0  0  0  0  0  0
  143.3221  137.1149  151.6671 H   0  0  0  0  0  0  0  0  0  0  0  0
  142.8793  137.0760  153.3836 H   0  0  0  0  0  0  0  0  0  0  0  0
  146.4960  136.4481  153.4067 H   0  0  0  0  0  0  0  0  0  0  0  0
  144.1007  138.2510  153.9726 H   0  0  0  0  0  0  0  0  0  0  0  0
  144.9603  137.2737  155.1382 H   0  0  0  0  0  0  0  0  0  0  0  0
  145.6648  139.6547  155.2422 H   0  0  0  0  0  0  0  0  0  0  0  0
  147.0218  138.6283  154.8193 H   0  0  0  0  0  0  0  0  0  0  0  0
  147.3740  141.4498  152.4932 H   0  0  0  0  0  0  0  0  0  0  0  0
  146.4960  141.7556  153.9685 H   0  0  0  0  0  0  0  0  0  0  0  0
  148.4539  139.6607  154.5092 H   0  0  0  0  0  0  0  0  0  0  0  0
  149.6862  140.2823  152.8648 H   0  0  0  0  0  0  0  0  0  0  0  0
  148.8904  142.5184  155.3504 H   0  0  0  0  0  0  0  0  0  0  0  0
  147.5076  141.6724  155.9933 H   0  0  0  0  0  0  0  0  0  0  0  0
  148.6188  138.9119  156.5639 H   0  0  0  0  0  0  0  0  0  0  0  0
  152.3103  139.9693  159.6643 H   0  0  0  0  0  0  0  0  0  0  0  0
  154.5199  142.5977  159.5057 H   0  0  0  0  0  0  0  0  0  0  0  0
  153.8380  141.4542  160.6617 H   0  0  0  0  0  0  0  0  0  0  0  0
  153.3535  143.1465  160.7193 H   0  0  0  0  0  0  0  0  0  0  0  0
  152.0916  145.1165  157.5252 H   0  0  0  0  0  0  0  0  0  0  0  0
  153.6278  144.4510  158.0750 H   0  0  0  0  0  0  0  0  0  0  0  0
  152.3933  144.9262  159.2516 H   0  0  0  0  0  0  0  0  0  0  0  0
  150.5239  143.5590  156.6995 H   0  0  0  0  0  0  0  0  0  0  0  0
  146.9157  139.5189  151.2024 H   0  0  0  0  0  0  0  0  0  0  0  0
  147.7710  138.5483  152.3793 H   0  0  0  0  0  0  0  0  0  0  0  0
  146.2358  137.1569  151.0264 H   0  0  0  0  0  0  0  0  0  0  0  0
  144.8763  138.1691  151.4507 H   0  0  0  0  0  0  0  0  0  0  0  0
  145.3624  140.1242  152.9380 H   0  0  0  0  0  0  0  0  0  0  0  0
  1  2  1  0  0  0  0
  1 24  1  0  0  0  0
  1 25  1  0  0  0  0
  1 26  1  0  0  0  0
  2  3  1  0  0  0  0
  3 23  1  0  0  0  0
  3  4  1  0  0  0  0
  3 27  1  0  0  0  0
  4  5  1  0  0  0  0
  4 28  1  0  0  0  0
  4 29  1  0  0  0  0
  5  6  1  0  0  0  0
  5 30  1  0  0  0  0
  5 31  1  0  0  0  0
  6  7  1  0  0  0  0
  6 22  1  0  0  0  0
  6 51  1  0  0  0  0
  7  8  1  0  0  0  0
  7 32  1  0  0  0  0
  7 33  1  0  0  0  0
  8  9  1  0  0  0  0
  8 10  1  0  0  0  0
  8 34  1  0  0  0  0
  9 35  1  0  0  0  0
 10 11  1  0  0  0  0
 10 36  1  0  0  0  0
 10 37  1  0  0  0  0
 11 21  1  0  0  0  0
 11 12  1  0  0  0  0
 12 13  2  0  0  0  0
 12 38  1  0  0  0  0
 13 14  1  0  0  0  0
 14 21  2  0  0  0  0
 14 15  1  0  0  0  0
 15 16  2  0  0  0  0
 15 39  1  0  0  0  0
 16 17  1  0  0  0  0
 16 18  1  0  0  0  0
 17 40  1  0  0  0  0
 17 41  1  0  0  0  0
 17 42  1  0  0  0  0
 18 19  1  0  0  0  0
 18 20  2  0  0  0  0
 19 43  1  0  0  0  0
 19 44  1  0  0  0  0
 19 45  1  0  0  0  0
 20 21  1  0  0  0  0
 20 46  1  0  0  0  0
 22 23  1  0  0  0  0
 22 47  1  0  0  0  0
 22 48  1  0  0  0  0
 23 49  1  0  0  0  0
 23 50  1  0  0  0  0
M  CHG  1   6   1
M  END
> <s_m_source_file>
AV-unprocessed.smi

> <i_m_source_file_index>
1605

> <i_lp_mmshare_version>
43012

> <i_f3d_flags>
0

> <s_epik_input>
W0NIM11PW0NIXTFbQ0gyXVtDSDJdTihbQ0gyXVtDSDJdMSlbQ0gyXVtDQEhdKFtPSF0pW0NIMl1uKFtjSF1uMiljKGMyMylbY0hdYyhbQ0gzXSljKFtjSF0zKVtDSDNd

> <s_epik_cmdline>
J2VwaWtfcHl0aG9uJywgJy1waCcsICc3LjAnLCAnLXRuJywgJzgnLCAnLW1hJywgJzIwMCcsICctbWV0YWxfYmluZGluZycsICctaW1hZScsICc8aW5maWxlLm1hZT4nLCAnLW9tYWUnLCAnPG91dGZpbGUubWFlPic=

> <r_epik_Ionization_Penalty>
0.110943

> <r_epik_Ionization_Penalty_Charging>
0.0229283

> <r_epik_Ionization_Penalty_Neutral>
0.0880146

> <r_epik_State_Penalty>
0.0947554

> <r_epik_Charging_Adjusted_Penalty>
0.117684

> <i_epik_Tot_Q>
1

> <i_epik_Tot_abs_Q>
1

> <r_epik_Metal_State_Penalty>
0.0192456

> <b_epik_Metal_Only>
0

> <s_lp_Force_Field>
OPLS_2005

> <r_lp_Energy>
23.4204

> <b_lp_Chiralities_Consistent>
1

> <s_lp_Variant>
AV-unprocessed.smi:1605-2

> <Gold.Version>
5.8.1

> <Gold.Id.Protein>
6NUR|6NUR_protein|mol2

> <Gold.PLP.Fitness>
53.2424

> <Gold.PLP.PLP>
-44.4516

> <Gold.PLP.part.hbond>
-3.8381

> <Gold.PLP.part.metal>
0.0000

> <Gold.PLP.part.buried>
-1.7581

> <Gold.PLP.part.nonpolar>
-39.5567

> <Gold.PLP.part.repulsive>
0.0917

> <Gold.PLP.ligand.clash>
0.0000

> <Gold.PLP.ligand.torsion>
1.2275

> <Gold.PLP.Chemscore.Hbond>
3.7360

> <Gold.PLP.Chemscore.CHOScore>
0.0000

> <Gold.PLP.Chemscore.Metal>
0.0000

> <Gold.Chemscore.Hbonds>
donor molecule, donor type, donor heavy atom, donor atom, acceptor molecule, acceptor atom, score
      L1  H     6    51       P1 10175  2.00
      L1  H     9    35       P1  7957  0.67
      P1  H  8011  8017       L1     9  1.00

> <Gold.PLP.Chemscore.Internal.Correction>
0.0379

> <Gold.Rescore>
     Score         DG    S(hbond)    S(metal)    S(lipo)     H(rot)  DE(clash)    DE(int)     intcor
     20.42     -21.87       2.33        0.00     121.92       2.22       0.20       1.25       ----

> <Gold.Chemscore.Fitness>
20.4230

> <Gold.Chemscore.DG>
-21.8657

> <Gold.Chemscore.ZeroCoef>
-5.4800

> <Gold.Chemscore.Hbond>
2.3342

> <Gold.Chemscore.Metal>
0.0000

> <Gold.Chemscore.Lipo>
121.9201

> <Gold.Chemscore.Internal_Hbond>
0.0000

> <Gold.Chemscore.DEClash>
0.1959

> <Gold.Chemscore.DEInternal>
1.2468

> <Gold.Chemscore.Rot>
2.2169

> <Gold.Chemscore.Internal.Correction>
   9.000000E+99

> <Gold.Chemscore.Hbonds>
donor molecule, donor type, donor heavy atom, donor atom, acceptor molecule, acceptor atom, score
      L1  H     6    51       P1 10175  0.99
      L1  H     9    35       P1  7957  0.68
      P1  H  8011  8017       L1     9  0.34

> <Gold.Chemscore.Hbond.Weighted>
-7.7963

> <Gold.Chemscore.Metal.Weighted>
-0.0000

> <Gold.Chemscore.Lipo.Weighted>
-14.2647

> <Gold.Chemscore.Internal_Hbond.Weighted>
0.0000

> <Gold.Chemscore.DEClash.Weighted>
0.1959

> <Gold.Chemscore.DEInternal.Weighted>
1.2468

> <Gold.Chemscore.Rot.Weighted>
5.6753

> <Gold.Chemscore.Internal.Correction.Weighted>
   9.000000E+99

> <Gold.Protein.RotatedTorsions>
[ 6907 6896 6895 6894 ] final  -56.25 input  -60.11 | X-H torsion
[ 7974 7965 7964 7962 ] final  -80.97 input  175.53 | X-H torsion
[ 8008 7997 7996 7995 ] final  103.85 input   59.86 | X-H torsion
[ 10167 10162 10161 10158 ] final -160.94 input  -65.29 | X-H torsion
[ 10718 10713 10712 10709 ] final  173.26 input   66.30 | X-H torsion
[ 10763 10752 10751 10750 ] final  138.94 input  -60.55 | X-H torsion
[ 11005 11000 10999 10996 ] final -104.44 input  -57.11 | X-H torsion

> <Gold.Protein.ActiveResidues>
 VAL166  LYS551  ARG553  GLY616  TRP617  ASP618  TYR619  PRO620  LYS621  CYS622 
 ASP623  PHE694  ASN695  SER759  ASP760  ASP761  ALA762  ILE779  LEU786  VAL792 
 PHE793  MET794  SER795  GLU796  ALA797  LYS798  CYS799  TRP800  GLU811  SER814 

> <Gold.Protein.RotatedAtoms>
  150.8183  134.7377  159.6749 H   0  0  0  0  0  0  0  0  0  0  0  0  # atno 6907 bound_to 6896
  152.4300  134.5792  159.9953 H   0  0  0  0  0  0  0  0  0  0  0  0  # atno 6908 bound_to 6896
  151.5982  133.3322  159.3078 H   0  0  0  0  0  0  0  0  0  0  0  0  # atno 6909 bound_to 6896
  145.5529  140.9494  143.1489 H   0  0  0  0  0  0  0  0  0  0  0  0  # atno 7974 bound_to 7965
  156.1521  140.3158  155.8665 H   0  0  0  0  0  0  0  0  0  0  0  0  # atno 8008 bound_to 7997
  155.3951  140.0496  157.3056 H   0  0  0  0  0  0  0  0  0  0  0  0  # atno 8009 bound_to 7997
  154.5068  140.2150  155.9247 H   0  0  0  0  0  0  0  0  0  0  0  0  # atno 8010 bound_to 7997
  139.6502  144.0098  152.2156 H   0  0  0  0  0  0  0  0  0  0  0  0  # atno 10167 bound_to 10162
  156.9669  131.0078  151.2914 H   0  0  0  0  0  0  0  0  0  0  0  0  # atno 10718 bound_to 10713
  153.8979  135.3025  155.3448 H   0  0  0  0  0  0  0  0  0  0  0  0  # atno 10763 bound_to 10752
  154.7685  135.4898  153.9604 H   0  0  0  0  0  0  0  0  0  0  0  0  # atno 10764 bound_to 10752
  153.1261  135.6793  153.9354 H   0  0  0  0  0  0  0  0  0  0  0  0  # atno 10765 bound_to 10752
  141.1100  133.8724  157.1611 H   0  0  0  0  0  0  0  0  0  0  0  0  # atno 11005 bound_to 11000
  144.7520  139.7169  143.7269 LP  0  0  0  0  0  0  0  0  0  0  0  0  # atno 17320 bound_to 7965
  146.1904  139.5141  142.9809 LP  0  0  0  0  0  0  0  0  0  0  0  0  # atno 17321 bound_to 7965
  139.9810  144.6428  150.7901 LP  0  0  0  0  0  0  0  0  0  0  0  0  # atno 17342 bound_to 10162
  140.7534  143.3008  151.3086 LP  0  0  0  0  0  0  0  0  0  0  0  0  # atno 17343 bound_to 10162
  157.5619  130.8251  149.8277 LP  0  0  0  0  0  0  0  0  0  0  0  0  # atno 17370 bound_to 10713
  156.0299  130.3768  150.1718 LP  0  0  0  0  0  0  0  0  0  0  0  0  # atno 17371 bound_to 10713
  139.9989  135.0035  157.0146 LP  0  0  0  0  0  0  0  0  0  0  0  0  # atno 17394 bound_to 11000
  140.4800  134.1299  155.7215 LP  0  0  0  0  0  0  0  0  0  0  0  0  # atno 17395 bound_to 11000

$$$$
