AV-unprocessed.smi:3336|AV-procd|sdf|12854|dock8
  -GOLD-   2272019243D 1   1.00000     0.00000
 Structure written by MMmdl.
 42 43  0  0  0  0  0  0  0  0  2 V2000
  145.6299  136.4293  151.6660 C   0  0  0  0  0  0  0  0  0  0  0  0
  145.7239  135.4267  152.8321 C   0  0  1  0  0  0  0  0  0  0  0  0
  144.6219  134.3492  152.7687 C   0  0  0  0  0  0  0  0  0  0  0  0
  144.8414  133.3709  151.7183 N   0  0  0  0  0  0  0  0  0  0  0  0
  144.0222  133.0522  150.6553 C   0  0  0  0  0  0  0  0  0  0  0  0
  144.6555  132.0832  149.9310 C   0  0  0  0  0  0  0  0  0  0  0  0
  145.8758  131.8784  150.6339 C   0  0  0  0  0  0  0  0  0  0  0  0
  145.9852  132.6528  151.7015 N   0  0  0  0  0  0  0  0  0  0  0  0
  147.0508  134.7662  152.8542 N   0  3  0  0  0  0  0  0  0  0  0  0
  147.4872  134.2155  154.1615 C   0  0  2  0  0  0  0  0  0  0  0  0
  148.1024  135.3473  155.0017 C   0  0  0  0  0  0  0  0  0  0  0  0
  148.5043  133.0668  153.9839 C   0  0  0  0  0  0  0  0  0  0  0  0
  148.8648  132.7880  152.8386 O   0  0  0  0  0  0  0  0  0  0  0  0
  148.9791  132.3992  155.0655 N   0  0  0  0  0  0  0  0  0  0  0  0
  149.9335  131.2902  154.9575 C   0  0  0  0  0  0  0  0  0  0  0  0
  151.2414  131.6963  155.6580 C   0  0  0  0  0  0  0  0  0  0  0  0
  150.9715  132.0171  157.0195 O   0  0  0  0  0  0  0  0  0  0  0  0
  150.0308  133.0772  157.1645 C   0  0  0  0  0  0  0  0  0  0  0  0
  148.7059  132.6984  156.4766 C   0  0  0  0  0  0  0  0  0  0  0  0
  144.6757  136.9567  151.6708 H   0  0  0  0  0  0  0  0  0  0  0  0
  145.7236  135.9250  150.7037 H   0  0  0  0  0  0  0  0  0  0  0  0
  146.4092  137.1889  151.7186 H   0  0  0  0  0  0  0  0  0  0  0  0
  145.5958  135.9741  153.7671 H   0  0  0  0  0  0  0  0  0  0  0  0
  144.5533  133.8221  153.7214 H   0  0  0  0  0  0  0  0  0  0  0  0
  143.6493  134.8138  152.5992 H   0  0  0  0  0  0  0  0  0  0  0  0
  143.0671  133.5338  150.5044 H   0  0  0  0  0  0  0  0  0  0  0  0
  144.3028  131.5971  149.0336 H   0  0  0  0  0  0  0  0  0  0  0  0
  146.6803  131.1961  150.4009 H   0  0  0  0  0  0  0  0  0  0  0  0
  147.0296  133.9936  152.2033 H   0  0  0  0  0  0  0  0  0  0  0  0
  146.5938  133.8494  154.6633 H   0  0  0  0  0  0  0  0  0  0  0  0
  148.4095  135.0006  155.9885 H   0  0  0  0  0  0  0  0  0  0  0  0
  147.3840  136.1536  155.1528 H   0  0  0  0  0  0  0  0  0  0  0  0
  148.9804  135.7741  154.5150 H   0  0  0  0  0  0  0  0  0  0  0  0
  149.5118  130.4040  155.4340 H   0  0  0  0  0  0  0  0  0  0  0  0
  150.1453  131.0036  153.9267 H   0  0  0  0  0  0  0  0  0  0  0  0
  151.9586  130.8762  155.6235 H   0  0  0  0  0  0  0  0  0  0  0  0
  151.7035  132.5482  155.1568 H   0  0  0  0  0  0  0  0  0  0  0  0
  149.8663  133.2595  158.2268 H   0  0  0  0  0  0  0  0  0  0  0  0
  150.4402  133.9967  156.7433 H   0  0  0  0  0  0  0  0  0  0  0  0
  147.9887  133.4999  156.6348 H   0  0  0  0  0  0  0  0  0  0  0  0
  148.2768  131.8159  156.9533 H   0  0  0  0  0  0  0  0  0  0  0  0
  147.7364  135.4347  152.5339 H   0  0  0  0  0  0  0  0  0  0  0  0
  1  2  1  0  0  0  0
  1 20  1  0  0  0  0
  1 21  1  0  0  0  0
  1 22  1  0  0  0  0
  2  3  1  0  0  0  0
  2  9  1  0  0  0  0
  2 23  1  0  0  0  0
  3  4  1  0  0  0  0
  3 24  1  0  0  0  0
  3 25  1  0  0  0  0
  4  8  1  0  0  0  0
  4  5  1  0  0  0  0
  5  6  2  0  0  0  0
  5 26  1  0  0  0  0
  6  7  1  0  0  0  0
  6 27  1  0  0  0  0
  7  8  2  0  0  0  0
  7 28  1  0  0  0  0
  9 10  1  0  0  0  0
  9 29  1  0  0  0  0
  9 42  1  0  0  0  0
 10 11  1  0  0  0  0
 10 12  1  0  0  0  0
 10 30  1  0  0  0  0
 11 31  1  0  0  0  0
 11 32  1  0  0  0  0
 11 33  1  0  0  0  0
 12 13  2  0  0  0  0
 12 14  1  0  0  0  0
 14 19  1  0  0  0  0
 14 15  1  0  0  0  0
 15 16  1  0  0  0  0
 15 34  1  0  0  0  0
 15 35  1  0  0  0  0
 16 17  1  0  0  0  0
 16 36  1  0  0  0  0
 16 37  1  0  0  0  0
 17 18  1  0  0  0  0
 18 19  1  0  0  0  0
 18 38  1  0  0  0  0
 18 39  1  0  0  0  0
 19 40  1  0  0  0  0
 19 41  1  0  0  0  0
M  CHG  1   9   1
M  END
> <s_m_source_file>
AV-unprocessed.smi

> <i_m_source_file_index>
3336

> <i_lp_mmshare_version>
43012

> <i_f3d_flags>
0

> <s_epik_input>
bjFbY0hdW2NIXVtjSF1uMVtDSDJdW0NAQEhdKFtDSDNdKVtOSF1bQ0BIXShbQ0gzXSlDKD1PKU4yW0NIMl1bQ0gyXU9bQ0gyXVtDSDJdMg==

> <s_epik_cmdline>
J2VwaWtfcHl0aG9uJywgJy1waCcsICc3LjAnLCAnLXRuJywgJzgnLCAnLW1hJywgJzIwMCcsICctbWV0YWxfYmluZGluZycsICctaW1hZScsICc8aW5maWxlLm1hZT4nLCAnLW9tYWUnLCAnPG91dGZpbGUubWFlPic=

> <r_lp_tautomer_probability>
1

> <r_epik_Ionization_Penalty>
0.200288

> <r_epik_Ionization_Penalty_Charging>
0.200285

> <r_epik_Ionization_Penalty_Neutral>
3.37705e-06

> <r_epik_State_Penalty>
0.190126

> <r_epik_Charging_Adjusted_Penalty>
0.39041

> <i_epik_Tot_Q>
1

> <i_epik_Tot_abs_Q>
1

> <r_epik_Metal_State_Penalty>
0.190133

> <b_epik_Metal_Only>
0

> <s_lp_Force_Field>
OPLS_2005

> <r_lp_Energy>
27.5118

> <b_lp_Chiralities_Consistent>
1

> <s_lp_Variant>
AV-unprocessed.smi:3336-2

> <Gold.Version>
5.8.1

> <Gold.Id.Protein>
6NUR|6NUR_protein|mol2

> <Gold.PLP.Fitness>
38.1217

> <Gold.PLP.PLP>
-27.1395

> <Gold.PLP.part.hbond>
-1.0000

> <Gold.PLP.part.metal>
0.0000

> <Gold.PLP.part.buried>
-4.1852

> <Gold.PLP.part.nonpolar>
-22.8766

> <Gold.PLP.part.repulsive>
0.3472

> <Gold.PLP.ligand.clash>
0.0000

> <Gold.PLP.ligand.torsion>
0.5501

> <Gold.PLP.Chemscore.Hbond>
2.0000

> <Gold.PLP.Chemscore.CHOScore>
2.0000

> <Gold.PLP.Chemscore.Metal>
0.0000

> <Gold.Chemscore.Hbonds>
donor molecule, donor type, donor heavy atom, donor atom, acceptor molecule, acceptor atom, score
      L1  H     9    42       P1  7948  2.00
      L1  C     5    26       P1 10186  1.00
      L1  C     7    28       P1 10747  1.00

> <Gold.PLP.Chemscore.Internal.Correction>
0.0824

> <Gold.Rescore>
     Score         DG    S(hbond)    S(metal)    S(lipo)     H(rot)  DE(clash)    DE(int)     intcor
     11.28     -11.80       1.05        0.00      64.72       1.85       0.04       0.47       ----

> <Gold.Chemscore.Fitness>
11.2845

> <Gold.Chemscore.DG>
-11.8002

> <Gold.Chemscore.ZeroCoef>
-5.4800

> <Gold.Chemscore.Hbond>
1.0462

> <Gold.Chemscore.Metal>
0.0000

> <Gold.Chemscore.Lipo>
64.7224

> <Gold.Chemscore.Internal_Hbond>
0.0000

> <Gold.Chemscore.DEClash>
0.0424

> <Gold.Chemscore.DEInternal>
0.4733

> <Gold.Chemscore.Rot>
1.8541

> <Gold.Chemscore.Internal.Correction>
   9.000000E+99

> <Gold.Chemscore.Hbonds>
donor molecule, donor type, donor heavy atom, donor atom, acceptor molecule, acceptor atom, score
      L1  H     9    42       P1  7948  0.97

> <Gold.Chemscore.Hbond.Weighted>
-3.4942

> <Gold.Chemscore.Metal.Weighted>
-0.0000

> <Gold.Chemscore.Lipo.Weighted>
-7.5725

> <Gold.Chemscore.Internal_Hbond.Weighted>
0.0000

> <Gold.Chemscore.DEClash.Weighted>
0.0424

> <Gold.Chemscore.DEInternal.Weighted>
0.4733

> <Gold.Chemscore.Rot.Weighted>
4.7465

> <Gold.Chemscore.Internal.Correction.Weighted>
   9.000000E+99

> <Gold.Protein.RotatedTorsions>
[ 6907 6896 6895 6894 ] final  161.73 input  -60.11 | X-H torsion
[ 7974 7965 7964 7962 ] final -136.66 input  175.53 | X-H torsion
[ 8008 7997 7996 7995 ] final  163.17 input   59.86 | X-H torsion
[ 10167 10162 10161 10158 ] final  158.83 input  -65.29 | X-H torsion
[ 10718 10713 10712 10709 ] final  -92.04 input   66.30 | X-H torsion
[ 10763 10752 10751 10750 ] final  130.98 input  -60.55 | X-H torsion
[ 11005 11000 10999 10996 ] final  -75.74 input  -57.11 | X-H torsion

> <Gold.Protein.ActiveResidues>
 VAL166  LYS551  ARG553  GLY616  TRP617  ASP618  TYR619  PRO620  LYS621  CYS622 
 ASP623  PHE694  ASN695  SER759  ASP760  ASP761  ALA762  ILE779  LEU786  VAL792 
 PHE793  MET794  SER795  GLU796  ALA797  LYS798  CYS799  TRP800  GLU811  SER814 

> <Gold.Protein.RotatedAtoms>
  151.9512  133.3666  159.4000 H   0  0  0  0  0  0  0  0  0  0  0  0  # atno 6907 bound_to 6896
  150.6980  134.4338  159.5270 H   0  0  0  0  0  0  0  0  0  0  0  0  # atno 6908 bound_to 6896
  152.2011  134.8586  160.0558 H   0  0  0  0  0  0  0  0  0  0  0  0  # atno 6909 bound_to 6896
  144.8908  140.6639  143.5147 H   0  0  0  0  0  0  0  0  0  0  0  0  # atno 7974 bound_to 7965
  156.1977  140.1730  156.7964 H   0  0  0  0  0  0  0  0  0  0  0  0  # atno 8008 bound_to 7997
  154.5551  140.0710  156.8761 H   0  0  0  0  0  0  0  0  0  0  0  0  # atno 8009 bound_to 7997
  155.2955  140.3358  155.4252 H   0  0  0  0  0  0  0  0  0  0  0  0  # atno 8010 bound_to 7997
  139.4829  144.4787  151.8474 H   0  0  0  0  0  0  0  0  0  0  0  0  # atno 10167 bound_to 10162
  155.9998  130.4971  150.5565 H   0  0  0  0  0  0  0  0  0  0  0  0  # atno 10718 bound_to 10713
  153.7668  135.3188  155.3346 H   0  0  0  0  0  0  0  0  0  0  0  0  # atno 10763 bound_to 10752
  154.8210  135.4603  154.0783 H   0  0  0  0  0  0  0  0  0  0  0  0  # atno 10764 bound_to 10752
  153.2031  135.6925  153.8290 H   0  0  0  0  0  0  0  0  0  0  0  0  # atno 10765 bound_to 10752
  141.1648  133.6957  156.7563 H   0  0  0  0  0  0  0  0  0  0  0  0  # atno 11005 bound_to 11000
  145.3787  139.1642  143.4292 LP  0  0  0  0  0  0  0  0  0  0  0  0  # atno 17320 bound_to 7965
  146.3052  140.3866  142.8689 LP  0  0  0  0  0  0  0  0  0  0  0  0  # atno 17321 bound_to 7965
  140.4262  144.2178  150.5887 LP  0  0  0  0  0  0  0  0  0  0  0  0  # atno 17342 bound_to 10162
  140.4825  143.2374  151.8934 LP  0  0  0  0  0  0  0  0  0  0  0  0  # atno 17343 bound_to 10162
  157.3481  131.0728  151.1735 LP  0  0  0  0  0  0  0  0  0  0  0  0  # atno 17370 bound_to 10713
  157.2561  130.6637  149.5953 LP  0  0  0  0  0  0  0  0  0  0  0  0  # atno 17371 bound_to 10713
  140.2567  134.8498  157.3719 LP  0  0  0  0  0  0  0  0  0  0  0  0  # atno 17394 bound_to 11000
  140.1650  134.4680  155.7869 LP  0  0  0  0  0  0  0  0  0  0  0  0  # atno 17395 bound_to 11000

$$$$
