AV-unprocessed.smi:636|AV-procd|sdf|3140|dock5
  -GOLD-   22720 0 63D 1   1.00000     0.00000
 Structure written by MMmdl.
 39 41  0  0  0  0  0  0  0  0  1 V2000
  149.2052  140.0123  156.7393 O   0  0  0  0  0  0  0  0  0  0  0  0
  149.5361  140.9637  156.0329 C   0  0  0  0  0  0  0  0  0  0  0  0
  151.0006  141.4353  156.0573 C   0  0  0  0  0  0  0  0  0  0  0  0
  151.5558  141.6656  157.4038 N   0  0  0  0  0  0  0  0  0  0  0  0
  151.2320  142.8871  158.0241 C   0  0  0  0  0  0  0  0  0  0  0  0
  151.6722  143.2243  159.2502 C   0  0  0  0  0  0  0  0  0  0  0  0
  151.3632  144.5796  159.8664 C   0  0  0  0  0  0  0  0  0  0  0  0
  150.0448  144.7440  159.9601 F   0  0  0  0  0  0  0  0  0  0  0  0
  151.8826  144.6794  161.0901 F   0  0  0  0  0  0  0  0  0  0  0  0
  151.8536  145.5707  159.1213 F   0  0  0  0  0  0  0  0  0  0  0  0
  152.5366  142.2668  159.9100 C   0  0  0  0  0  0  0  0  0  0  0  0
  152.8723  141.0968  159.3299 C   0  0  0  0  0  0  0  0  0  0  0  0
  153.9072  139.9924  160.1624 Cl  0  0  0  0  0  0  0  0  0  0  0  0
  152.3717  140.7423  157.9957 C   0  0  0  0  0  0  0  0  0  0  0  0
  152.6706  139.6862  157.4367 O   0  0  0  0  0  0  0  0  0  0  0  0
  148.6724  141.6170  155.2366 N   0  0  0  0  0  0  0  0  0  0  0  0
  147.2542  141.3190  155.0787 C   0  0  0  0  0  0  0  0  0  0  0  0
  146.9631  140.5321  153.8113 C   0  0  0  0  0  0  0  0  0  0  0  0
  146.2254  139.2144  153.8548 C   0  0  0  0  0  0  0  0  0  0  0  0
  147.6932  139.2478  153.4963 C   0  0  0  0  0  0  0  0  0  0  0  0
  146.4189  142.5853  155.1161 C   0  0  0  0  0  0  0  0  0  0  0  0
  144.9199  142.5345  154.9443 C   0  0  0  0  0  0  0  0  0  0  0  0
  145.7850  143.1507  153.8674 C   0  0  0  0  0  0  0  0  0  0  0  0
  151.6014  140.6920  155.5313 H   0  0  0  0  0  0  0  0  0  0  0  0
  151.0831  142.3383  155.4499 H   0  0  0  0  0  0  0  0  0  0  0  0
  150.6109  143.5409  157.4291 H   0  0  0  0  0  0  0  0  0  0  0  0
  152.9211  142.4924  160.8939 H   0  0  0  0  0  0  0  0  0  0  0  0
  149.0303  142.3886  154.6929 H   0  0  0  0  0  0  0  0  0  0  0  0
  146.9393  140.7073  155.9266 H   0  0  0  0  0  0  0  0  0  0  0  0
  146.7339  141.1648  152.9556 H   0  0  0  0  0  0  0  0  0  0  0  0
  145.9606  138.8077  154.8284 H   0  0  0  0  0  0  0  0  0  0  0  0
  145.5164  139.0100  153.0553 H   0  0  0  0  0  0  0  0  0  0  0  0
  147.9637  139.0672  152.4581 H   0  0  0  0  0  0  0  0  0  0  0  0
  148.3962  138.8662  154.2340 H   0  0  0  0  0  0  0  0  0  0  0  0
  146.7837  143.3215  155.8304 H   0  0  0  0  0  0  0  0  0  0  0  0
  144.4662  141.5686  154.7314 H   0  0  0  0  0  0  0  0  0  0  0  0
  144.3218  143.2063  155.5564 H   0  0  0  0  0  0  0  0  0  0  0  0
  145.7640  144.2333  153.7618 H   0  0  0  0  0  0  0  0  0  0  0  0
  145.8971  142.5938  152.9395 H   0  0  0  0  0  0  0  0  0  0  0  0
  1  2  2  0  0  0  0
  2  3  1  0  0  0  0
  2 16  1  0  0  0  0
  3  4  1  0  0  0  0
  3 24  1  0  0  0  0
  3 25  1  0  0  0  0
  4 14  1  0  0  0  0
  4  5  1  0  0  0  0
  5  6  2  0  0  0  0
  5 26  1  0  0  0  0
  6  7  1  0  0  0  0
  6 11  1  0  0  0  0
  7  8  1  0  0  0  0
  7  9  1  0  0  0  0
  7 10  1  0  0  0  0
 11 12  2  0  0  0  0
 11 27  1  0  0  0  0
 12 13  1  0  0  0  0
 12 14  1  0  0  0  0
 14 15  2  0  0  0  0
 16 17  1  0  0  0  0
 16 28  1  0  0  0  0
 17 18  1  0  0  0  0
 17 21  1  0  0  0  0
 17 29  1  0  0  0  0
 18 20  1  0  0  0  0
 18 19  1  0  0  0  0
 18 30  1  0  0  0  0
 19 20  1  0  0  0  0
 19 31  1  0  0  0  0
 19 32  1  0  0  0  0
 20 33  1  0  0  0  0
 20 34  1  0  0  0  0
 21 23  1  0  0  0  0
 21 22  1  0  0  0  0
 21 35  1  0  0  0  0
 22 23  1  0  0  0  0
 22 36  1  0  0  0  0
 22 37  1  0  0  0  0
 23 38  1  0  0  0  0
 23 39  1  0  0  0  0
M  END
> <s_m_source_file>
AV-unprocessed.smi

> <i_m_source_file_index>
636

> <i_lp_mmshare_version>
43012

> <i_f3d_flags>
0

> <s_epik_input>
W0NIMl0xW0NIMl1bQ0hdMVtDSF0oW0NIXTJbQ0gyXVtDSDJdMilbTkhdQyg9TylbQ0gyXW4zW2NIXWMoQyhGKShGKUYpW2NIXWMoQ2wpYzM9Tw==

> <s_epik_cmdline>
J2VwaWtfcHl0aG9uJywgJy1waCcsICc3LjAnLCAnLXRuJywgJzgnLCAnLW1hJywgJzIwMCcsICctbWV0YWxfYmluZGluZycsICctaW1hZScsICc8aW5maWxlLm1hZT4nLCAnLW9tYWUnLCAnPG91dGZpbGUubWFlPic=

> <r_lp_tautomer_probability>
1

> <r_epik_Ionization_Penalty>
2.07964e-08

> <r_epik_Ionization_Penalty_Charging>
3.83819e-10

> <r_epik_Ionization_Penalty_Neutral>
2.04126e-08

> <r_epik_State_Penalty>
-0

> <r_epik_Charging_Adjusted_Penalty>
3.83819e-10

> <i_epik_Tot_Q>
0

> <i_epik_Tot_abs_Q>
0

> <r_epik_Metal_State_Penalty>
-0

> <b_epik_Metal_Only>
0

> <s_lp_Force_Field>
OPLS_2005

> <r_lp_Energy>
34.6708

> <b_lp_Chiralities_Consistent>
1

> <s_lp_Variant>
AV-unprocessed.smi:636-1

> <Gold.Version>
5.8.1

> <Gold.Id.Protein>
6NUR|6NUR_protein|mol2

> <Gold.PLP.Fitness>
50.8173

> <Gold.PLP.PLP>
-48.0018

> <Gold.PLP.part.hbond>
-1.6675

> <Gold.PLP.part.metal>
0.0000

> <Gold.PLP.part.buried>
-3.3720

> <Gold.PLP.part.nonpolar>
-42.5853

> <Gold.PLP.part.repulsive>
0.1431

> <Gold.PLP.ligand.clash>
0.0000

> <Gold.PLP.ligand.torsion>
1.9992

> <Gold.PLP.Chemscore.Hbond>
1.0000

> <Gold.PLP.Chemscore.CHOScore>
0.5178

> <Gold.PLP.Chemscore.Metal>
0.0000

> <Gold.Chemscore.Hbonds>
donor molecule, donor type, donor heavy atom, donor atom, acceptor molecule, acceptor atom, score
      P1  H  7997  8009       L1    15  1.00
      L1  C     5    26       P1  8028  0.52

> <Gold.PLP.Chemscore.Internal.Correction>
2.2605

> <Gold.Rescore>
     Score         DG    S(hbond)    S(metal)    S(lipo)     H(rot)  DE(clash)    DE(int)     intcor
     13.11     -15.53       0.85        0.00     103.03       1.90       0.58       1.83       ----

> <Gold.Chemscore.Fitness>
13.1130

> <Gold.Chemscore.DG>
-15.5264

> <Gold.Chemscore.ZeroCoef>
-5.4800

> <Gold.Chemscore.Hbond>
0.8536

> <Gold.Chemscore.Metal>
0.0000

> <Gold.Chemscore.Lipo>
103.0261

> <Gold.Chemscore.Internal_Hbond>
0.0000

> <Gold.Chemscore.DEClash>
0.5817

> <Gold.Chemscore.DEInternal>
1.8317

> <Gold.Chemscore.Rot>
1.8979

> <Gold.Chemscore.Internal.Correction>
   9.000000E+99

> <Gold.Chemscore.Hbonds>
donor molecule, donor type, donor heavy atom, donor atom, acceptor molecule, acceptor atom, score
      P1  H  7997  8009       L1    15  0.35

> <Gold.Chemscore.Hbond.Weighted>
-2.8509

> <Gold.Chemscore.Metal.Weighted>
-0.0000

> <Gold.Chemscore.Lipo.Weighted>
-12.0541

> <Gold.Chemscore.Internal_Hbond.Weighted>
0.0000

> <Gold.Chemscore.DEClash.Weighted>
0.5817

> <Gold.Chemscore.DEInternal.Weighted>
1.8317

> <Gold.Chemscore.Rot.Weighted>
4.8586

> <Gold.Chemscore.Internal.Correction.Weighted>
   9.000000E+99

> <Gold.Protein.RotatedTorsions>
[ 6907 6896 6895 6894 ] final   36.21 input  -60.11 | X-H torsion
[ 7974 7965 7964 7962 ] final -124.93 input  175.53 | X-H torsion
[ 8008 7997 7996 7995 ] final  170.32 input   59.86 | X-H torsion
[ 10167 10162 10161 10158 ] final   43.03 input  -65.29 | X-H torsion
[ 10718 10713 10712 10709 ] final -130.73 input   66.30 | X-H torsion
[ 10763 10752 10751 10750 ] final  -42.52 input  -60.55 | X-H torsion
[ 11005 11000 10999 10996 ] final -119.59 input  -57.11 | X-H torsion

> <Gold.Protein.ActiveResidues>
 VAL166  LYS551  ARG553  GLY616  TRP617  ASP618  TYR619  PRO620  LYS621  CYS622 
 ASP623  PHE694  ASN695  SER759  ASP760  ASP761  ALA762  ILE779  LEU786  VAL792 
 PHE793  MET794  SER795  GLU796  ALA797  LYS798  CYS799  TRP800  GLU811  SER814 

> <Gold.Protein.RotatedAtoms>
  152.1267  134.9165  160.0560 H   0  0  0  0  0  0  0  0  0  0  0  0  # atno 6907 bound_to 6896
  152.0286  133.3923  159.4296 H   0  0  0  0  0  0  0  0  0  0  0  0  # atno 6908 bound_to 6896
  150.6853  134.3468  159.4935 H   0  0  0  0  0  0  0  0  0  0  0  0  # atno 6909 bound_to 6896
  145.0029  140.7837  143.4485 H   0  0  0  0  0  0  0  0  0  0  0  0  # atno 7974 bound_to 7965
  156.1376  140.1541  156.8971 H   0  0  0  0  0  0  0  0  0  0  0  0  # atno 8008 bound_to 7997
  154.4960  140.0838  156.7736 H   0  0  0  0  0  0  0  0  0  0  0  0  # atno 8009 bound_to 7997
  155.4140  140.3420  155.4268 H   0  0  0  0  0  0  0  0  0  0  0  0  # atno 8010 bound_to 7997
  140.3485  144.2380  150.6148 H   0  0  0  0  0  0  0  0  0  0  0  0  # atno 10167 bound_to 10162
  156.2174  130.6957  151.0718 H   0  0  0  0  0  0  0  0  0  0  0  0  # atno 10718 bound_to 10713
  153.9804  135.6717  153.4750 H   0  0  0  0  0  0  0  0  0  0  0  0  # atno 10763 bound_to 10752
  153.0751  135.4953  154.8384 H   0  0  0  0  0  0  0  0  0  0  0  0  # atno 10764 bound_to 10752
  154.7168  135.3108  154.9073 H   0  0  0  0  0  0  0  0  0  0  0  0  # atno 10765 bound_to 10752
  141.0204  134.0132  157.3290 H   0  0  0  0  0  0  0  0  0  0  0  0  # atno 11005 bound_to 11000
  145.2128  139.2196  143.5134 LP  0  0  0  0  0  0  0  0  0  0  0  0  # atno 17320 bound_to 7965
  146.3455  140.1969  142.8589 LP  0  0  0  0  0  0  0  0  0  0  0  0  # atno 17321 bound_to 7965
  140.5241  143.2258  151.8342 LP  0  0  0  0  0  0  0  0  0  0  0  0  # atno 17342 bound_to 10162
  139.4830  144.4800  151.9318 LP  0  0  0  0  0  0  0  0  0  0  0  0  # atno 17343 bound_to 10162
  157.7070  131.0752  150.6633 LP  0  0  0  0  0  0  0  0  0  0  0  0  # atno 17370 bound_to 10713
  156.6695  130.4535  149.5662 LP  0  0  0  0  0  0  0  0  0  0  0  0  # atno 17371 bound_to 10713
  139.9143  135.0195  156.7817 LP  0  0  0  0  0  0  0  0  0  0  0  0  # atno 17394 bound_to 11000
  140.6582  133.9669  155.7791 LP  0  0  0  0  0  0  0  0  0  0  0  0  # atno 17395 bound_to 11000

$$$$
