AV-unprocessed.smi:1841|AV-procd|sdf|7497|dock8
  -GOLD-   22720 9203D 1   1.00000     0.00000
 Structure written by MMmdl.
 40 41  0  0  0  0  0  0  0  0  1 V2000
  145.0481  135.6699  151.2832 C   0  0  0  0  0  0  0  0  0  0  0  0
  145.8910  136.2830  152.2429 O   0  0  0  0  0  0  0  0  0  0  0  0
  145.3997  137.5415  152.6731 C   0  0  0  0  0  0  0  0  0  0  0  0
  146.5836  138.4655  152.9734 C   0  0  0  0  0  0  0  0  0  0  0  0
  146.6108  138.7336  154.3721 O   0  0  0  0  0  0  0  0  0  0  0  0
  147.6565  139.4751  154.8819 C   0  0  0  0  0  0  0  0  0  0  0  0
  148.8258  139.6096  154.1076 C   0  0  0  0  0  0  0  0  0  0  0  0
  149.9014  140.3587  154.6216 C   0  0  0  0  0  0  0  0  0  0  0  0
  149.7758  140.9449  155.9037 C   0  0  0  0  0  0  0  0  0  0  0  0
  150.7820  141.7323  156.5259 N   0  0  0  0  0  0  0  0  0  0  0  0
  150.7116  142.4260  157.6772 C   0  0  0  0  0  0  0  0  0  0  0  0
  149.7116  142.4931  158.3920 O   0  0  0  0  0  0  0  0  0  0  0  0
  151.9834  143.1919  158.0775 C   0  0  1  0  0  0  0  0  0  0  0  0
  151.7337  144.7135  158.1248 C   0  0  0  0  0  0  0  0  0  0  0  0
  151.8530  145.0612  159.5993 C   0  0  0  0  0  0  0  0  0  0  0  0
  151.6135  146.1833  160.0425 O   0  0  0  0  0  0  0  0  0  0  0  0
  152.2320  143.9969  160.3122 N   0  0  0  0  0  0  0  0  0  0  0  0
  152.4158  143.9589  161.7567 C   0  0  0  0  0  0  0  0  0  0  0  0
  152.4737  142.8204  159.4949 C   0  0  0  0  0  0  0  0  0  0  0  0
  148.5566  140.7661  156.5897 C   0  0  0  0  0  0  0  0  0  0  0  0
  147.5219  140.0491  156.1030 N   0  0  0  0  0  0  0  0  0  0  0  0
  145.4660  134.7066  150.9910 H   0  0  0  0  0  0  0  0  0  0  0  0
  144.9605  136.2847  150.3863 H   0  0  0  0  0  0  0  0  0  0  0  0
  144.0503  135.4957  151.6878 H   0  0  0  0  0  0  0  0  0  0  0  0
  144.7488  137.9876  151.9195 H   0  0  0  0  0  0  0  0  0  0  0  0
  144.8070  137.4035  153.5785 H   0  0  0  0  0  0  0  0  0  0  0  0
  147.5102  137.9675  152.6831 H   0  0  0  0  0  0  0  0  0  0  0  0
  146.4992  139.3851  152.3917 H   0  0  0  0  0  0  0  0  0  0  0  0
  148.8960  139.1469  153.1341 H   0  0  0  0  0  0  0  0  0  0  0  0
  150.7892  140.4768  154.0201 H   0  0  0  0  0  0  0  0  0  0  0  0
  151.6374  141.8356  155.9993 H   0  0  0  0  0  0  0  0  0  0  0  0
  152.7726  142.9740  157.3557 H   0  0  0  0  0  0  0  0  0  0  0  0
  152.4937  145.2550  157.5608 H   0  0  0  0  0  0  0  0  0  0  0  0
  150.7557  145.0103  157.7419 H   0  0  0  0  0  0  0  0  0  0  0  0
  153.0073  144.8100  162.0969 H   0  0  0  0  0  0  0  0  0  0  0  0
  152.9312  143.0477  162.0615 H   0  0  0  0  0  0  0  0  0  0  0  0
  151.4495  143.9882  162.2610 H   0  0  0  0  0  0  0  0  0  0  0  0
  151.9598  141.9527  159.9129 H   0  0  0  0  0  0  0  0  0  0  0  0
  153.5418  142.5984  159.4891 H   0  0  0  0  0  0  0  0  0  0  0  0
  148.4067  141.2065  157.5647 H   0  0  0  0  0  0  0  0  0  0  0  0
  1  2  1  0  0  0  0
  1 22  1  0  0  0  0
  1 23  1  0  0  0  0
  1 24  1  0  0  0  0
  2  3  1  0  0  0  0
  3  4  1  0  0  0  0
  3 25  1  0  0  0  0
  3 26  1  0  0  0  0
  4  5  1  0  0  0  0
  4 27  1  0  0  0  0
  4 28  1  0  0  0  0
  5  6  1  0  0  0  0
  6 21  1  0  0  0  0
  6  7  2  0  0  0  0
  7  8  1  0  0  0  0
  7 29  1  0  0  0  0
  8  9  2  0  0  0  0
  8 30  1  0  0  0  0
  9 10  1  0  0  0  0
  9 20  1  0  0  0  0
 10 11  1  0  0  0  0
 10 31  1  0  0  0  0
 11 12  2  0  0  0  0
 11 13  1  0  0  0  0
 13 19  1  0  0  0  0
 13 14  1  0  0  0  0
 13 32  1  0  0  0  0
 14 15  1  0  0  0  0
 14 33  1  0  0  0  0
 14 34  1  0  0  0  0
 15 16  2  0  0  0  0
 15 17  1  0  0  0  0
 17 18  1  0  0  0  0
 17 19  1  0  0  0  0
 18 35  1  0  0  0  0
 18 36  1  0  0  0  0
 18 37  1  0  0  0  0
 19 38  1  0  0  0  0
 19 39  1  0  0  0  0
 20 21  2  0  0  0  0
 20 40  1  0  0  0  0
M  END
> <s_m_source_file>
AV-unprocessed.smi

> <i_m_source_file_index>
1841

> <i_lp_mmshare_version>
43012

> <i_f3d_flags>
0

> <s_epik_input>
W0NIM11PW0NIMl1bQ0gyXU9jMVtjSF1bY0hdYyhbY0hdbjEpW05IXUMoPU8pW0NAQEhdMltDSDJdQyg9TylOKFtDSDNdKVtDSDJdMg==

> <s_epik_cmdline>
J2VwaWtfcHl0aG9uJywgJy1waCcsICc3LjAnLCAnLXRuJywgJzgnLCAnLW1hJywgJzIwMCcsICctbWV0YWxfYmluZGluZycsICctaW1hZScsICc8aW5maWxlLm1hZT4nLCAnLW9tYWUnLCAnPG91dGZpbGUubWFlPic=

> <r_lp_tautomer_probability>
1

> <r_epik_Ionization_Penalty>
1.70347e-05

> <r_epik_Ionization_Penalty_Charging>
0

> <r_epik_Ionization_Penalty_Neutral>
1.70347e-05

> <r_epik_State_Penalty>
-0

> <r_epik_Charging_Adjusted_Penalty>
0

> <i_epik_Tot_Q>
0

> <i_epik_Tot_abs_Q>
0

> <r_epik_Metal_State_Penalty>
-0

> <b_epik_Metal_Only>
0

> <s_lp_Force_Field>
OPLS_2005

> <r_lp_Energy>
17.1342

> <b_lp_Chiralities_Consistent>
1

> <s_lp_Variant>
AV-unprocessed.smi:1841-2

> <Gold.Version>
5.8.1

> <Gold.Id.Protein>
6NUR|6NUR_protein|mol2

> <Gold.PLP.Fitness>
39.0312

> <Gold.PLP.PLP>
-40.7331

> <Gold.PLP.part.hbond>
-1.9017

> <Gold.PLP.part.metal>
0.0000

> <Gold.PLP.part.buried>
-4.1810

> <Gold.PLP.part.nonpolar>
-35.2302

> <Gold.PLP.part.repulsive>
1.1748

> <Gold.PLP.ligand.clash>
0.0000

> <Gold.PLP.ligand.torsion>
0.8684

> <Gold.PLP.Chemscore.Hbond>
0.0000

> <Gold.PLP.Chemscore.CHOScore>
0.0000

> <Gold.PLP.Chemscore.Metal>
0.0000

> <Gold.PLP.Chemscore.Internal.Correction>
0.0350

> <Gold.Rescore>
     Score         DG    S(hbond)    S(metal)    S(lipo)     H(rot)  DE(clash)    DE(int)     intcor
      8.50     -10.53       0.00        0.00      85.73       1.95       0.08       1.95       ----

> <Gold.Chemscore.Fitness>
8.4995

> <Gold.Chemscore.DG>
-10.5269

> <Gold.Chemscore.ZeroCoef>
-5.4800

> <Gold.Chemscore.Hbond>
0.0000

> <Gold.Chemscore.Metal>
0.0000

> <Gold.Chemscore.Lipo>
85.7328

> <Gold.Chemscore.Internal_Hbond>
0.0000

> <Gold.Chemscore.DEClash>
0.0791

> <Gold.Chemscore.DEInternal>
1.9482

> <Gold.Chemscore.Rot>
1.9468

> <Gold.Chemscore.Internal.Correction>
   9.000000E+99

> <Gold.Chemscore.Hbond.Weighted>
-0.0000

> <Gold.Chemscore.Metal.Weighted>
-0.0000

> <Gold.Chemscore.Lipo.Weighted>
-10.0307

> <Gold.Chemscore.Internal_Hbond.Weighted>
0.0000

> <Gold.Chemscore.DEClash.Weighted>
0.0791

> <Gold.Chemscore.DEInternal.Weighted>
1.9482

> <Gold.Chemscore.Rot.Weighted>
4.9839

> <Gold.Chemscore.Internal.Correction.Weighted>
   9.000000E+99

> <Gold.Protein.RotatedTorsions>
[ 6907 6896 6895 6894 ] final   95.07 input  -60.11 | X-H torsion
[ 7974 7965 7964 7962 ] final   11.10 input  175.53 | X-H torsion
[ 8008 7997 7996 7995 ] final -160.95 input   59.86 | X-H torsion
[ 10167 10162 10161 10158 ] final  162.96 input  -65.29 | X-H torsion
[ 10718 10713 10712 10709 ] final  132.55 input   66.30 | X-H torsion
[ 10763 10752 10751 10750 ] final   94.88 input  -60.55 | X-H torsion
[ 11005 11000 10999 10996 ] final   53.74 input  -57.11 | X-H torsion

> <Gold.Protein.ActiveResidues>
 VAL166  LYS551  ARG553  GLY616  TRP617  ASP618  TYR619  PRO620  LYS621  CYS622 
 ASP623  PHE694  ASN695  SER759  ASP760  ASP761  ALA762  ILE779  LEU786  VAL792 
 PHE793  MET794  SER795  GLU796  ALA797  LYS798  CYS799  TRP800  GLU811  SER814 

> <Gold.Protein.RotatedAtoms>
  152.5446  134.1097  159.8352 H   0  0  0  0  0  0  0  0  0  0  0  0  # atno 6907 bound_to 6896
  151.1165  133.5128  159.2611 H   0  0  0  0  0  0  0  0  0  0  0  0  # atno 6908 bound_to 6896
  151.1827  135.0377  159.8853 H   0  0  0  0  0  0  0  0  0  0  0  0  # atno 6909 bound_to 6896
  146.2377  139.9535  142.8467 H   0  0  0  0  0  0  0  0  0  0  0  0  # atno 7974 bound_to 7965
  155.7850  140.0870  157.2039 H   0  0  0  0  0  0  0  0  0  0  0  0  # atno 8008 bound_to 7997
  154.3988  140.1500  156.3154 H   0  0  0  0  0  0  0  0  0  0  0  0  # atno 8009 bound_to 7997
  155.8616  140.3430  155.5762 H   0  0  0  0  0  0  0  0  0  0  0  0  # atno 8010 bound_to 7997
  139.4867  144.4385  151.8981 H   0  0  0  0  0  0  0  0  0  0  0  0  # atno 10167 bound_to 10162
  157.4860  131.1088  150.9619 H   0  0  0  0  0  0  0  0  0  0  0  0  # atno 10718 bound_to 10713
  153.2467  135.4274  155.0755 H   0  0  0  0  0  0  0  0  0  0  0  0  # atno 10763 bound_to 10752
  154.8364  135.3416  154.6571 H   0  0  0  0  0  0  0  0  0  0  0  0  # atno 10764 bound_to 10752
  153.6993  135.7029  153.5124 H   0  0  0  0  0  0  0  0  0  0  0  0  # atno 10765 bound_to 10752
  140.0742  134.5427  155.9014 H   0  0  0  0  0  0  0  0  0  0  0  0  # atno 11005 bound_to 11000
  145.1838  140.9780  143.4250 LP  0  0  0  0  0  0  0  0  0  0  0  0  # atno 17320 bound_to 7965
  144.9918  139.3682  143.6211 LP  0  0  0  0  0  0  0  0  0  0  0  0  # atno 17321 bound_to 7965
  140.3836  144.2705  150.5906 LP  0  0  0  0  0  0  0  0  0  0  0  0  # atno 17342 bound_to 10162
  140.5211  143.2265  151.8387 LP  0  0  0  0  0  0  0  0  0  0  0  0  # atno 17343 bound_to 10162
  157.0337  130.5721  149.5346 LP  0  0  0  0  0  0  0  0  0  0  0  0  # atno 17370 bound_to 10713
  156.0147  130.5241  150.8098 LP  0  0  0  0  0  0  0  0  0  0  0  0  # atno 17371 bound_to 10713
  141.2023  133.6624  156.6000 LP  0  0  0  0  0  0  0  0  0  0  0  0  # atno 17394 bound_to 11000
  140.3582  134.7710  157.4515 LP  0  0  0  0  0  0  0  0  0  0  0  0  # atno 17395 bound_to 11000

$$$$
