AV-unprocessed.smi:2997|AV-procd|sdf|11415|dock3
  -GOLD-   2272016333D 1   1.00000     0.00000
 Structure written by MMmdl.
 39 41  0  0  0  0  0  0  0  0  2 V2000
  151.9193  144.4244  160.5603 C   0  0  0  0  0  0  0  0  0  0  0  0
  151.8323  143.3554  159.4843 C   0  0  0  0  0  0  0  0  0  0  0  0
  150.9529  143.5626  158.3973 C   0  0  0  0  0  0  0  0  0  0  0  0
  150.8935  142.5655  157.4309 C   0  0  0  0  0  0  0  0  0  0  0  0
  150.1389  142.4687  156.2595 N   0  3  0  0  0  0  0  0  0  0  0  0
  150.4215  141.2929  155.6327 C   0  0  0  0  0  0  0  0  0  0  0  0
  151.3462  140.6388  156.3866 N   0  0  0  0  0  0  0  0  0  0  0  0
  151.9886  139.3348  156.1775 C   0  0  0  0  0  0  0  0  0  0  0  0
  151.6439  138.7163  154.8094 C   0  0  1  0  0  0  0  0  0  0  0  0
  152.6075  137.7328  154.4791 O   0  0  0  0  0  0  0  0  0  0  0  0
  150.2331  138.0976  154.7942 C   0  0  0  0  0  0  0  0  0  0  0  0
  150.1583  136.8594  155.5488 N   0  0  0  0  0  0  0  0  0  0  0  0
  149.7838  135.6071  155.1091 C   0  0  0  0  0  0  0  0  0  0  0  0
  149.8707  134.7594  156.1760 C   0  0  0  0  0  0  0  0  0  0  0  0
  150.3150  135.5966  157.2375 C   0  0  0  0  0  0  0  0  0  0  0  0
  150.4900  136.8522  156.8582 N   0  0  0  0  0  0  0  0  0  0  0  0
  151.6706  141.3945  157.5178 C   0  0  0  0  0  0  0  0  0  0  0  0
  152.5422  141.1740  158.5812 C   0  0  0  0  0  0  0  0  0  0  0  0
  152.6167  142.1761  159.5749 C   0  0  0  0  0  0  0  0  0  0  0  0
  153.5573  141.9629  160.7490 C   0  0  0  0  0  0  0  0  0  0  0  0
  151.2798  145.2767  160.3284 H   0  0  0  0  0  0  0  0  0  0  0  0
  152.9413  144.7920  160.6550 H   0  0  0  0  0  0  0  0  0  0  0  0
  151.6039  144.0224  161.5234 H   0  0  0  0  0  0  0  0  0  0  0  0
  150.3518  144.4569  158.3224 H   0  0  0  0  0  0  0  0  0  0  0  0
  149.9867  140.9411  154.7084 H   0  0  0  0  0  0  0  0  0  0  0  0
  153.0660  139.4788  156.2705 H   0  0  0  0  0  0  0  0  0  0  0  0
  151.6931  138.6721  156.9918 H   0  0  0  0  0  0  0  0  0  0  0  0
  151.6948  139.4936  154.0460 H   0  0  0  0  0  0  0  0  0  0  0  0
  153.4529  138.1496  154.4138 H   0  0  0  0  0  0  0  0  0  0  0  0
  149.5038  138.7989  155.2022 H   0  0  0  0  0  0  0  0  0  0  0  0
  149.9245  137.8898  153.7685 H   0  0  0  0  0  0  0  0  0  0  0  0
  149.4880  135.4256  154.0864 H   0  0  0  0  0  0  0  0  0  0  0  0
  149.6503  133.7024  156.1955 H   0  0  0  0  0  0  0  0  0  0  0  0
  150.5155  135.3307  158.2650 H   0  0  0  0  0  0  0  0  0  0  0  0
  153.1367  140.2750  158.6504 H   0  0  0  0  0  0  0  0  0  0  0  0
  154.0844  141.0116  160.6704 H   0  0  0  0  0  0  0  0  0  0  0  0
  153.0028  141.9594  161.6877 H   0  0  0  0  0  0  0  0  0  0  0  0
  154.3053  142.7549  160.7901 H   0  0  0  0  0  0  0  0  0  0  0  0
  149.4771  143.1512  155.9127 H   0  0  0  0  0  0  0  0  0  0  0  0
  1  2  1  0  0  0  0
  1 21  1  0  0  0  0
  1 22  1  0  0  0  0
  1 23  1  0  0  0  0
  2 19  1  0  0  0  0
  2  3  2  0  0  0  0
  3  4  1  0  0  0  0
  3 24  1  0  0  0  0
  4 17  2  0  0  0  0
  4  5  1  0  0  0  0
  5  6  2  0  0  0  0
  5 39  1  0  0  0  0
  6  7  1  0  0  0  0
  6 25  1  0  0  0  0
  7  8  1  0  0  0  0
  7 17  1  0  0  0  0
  8  9  1  0  0  0  0
  8 26  1  0  0  0  0
  8 27  1  0  0  0  0
  9 10  1  0  0  0  0
  9 11  1  0  0  0  0
  9 28  1  0  0  0  0
 10 29  1  0  0  0  0
 11 12  1  0  0  0  0
 11 30  1  0  0  0  0
 11 31  1  0  0  0  0
 12 16  1  0  0  0  0
 12 13  1  0  0  0  0
 13 14  2  0  0  0  0
 13 32  1  0  0  0  0
 14 15  1  0  0  0  0
 14 33  1  0  0  0  0
 15 16  2  0  0  0  0
 15 34  1  0  0  0  0
 17 18  1  0  0  0  0
 18 19  2  0  0  0  0
 18 35  1  0  0  0  0
 19 20  1  0  0  0  0
 20 36  1  0  0  0  0
 20 37  1  0  0  0  0
 20 38  1  0  0  0  0
M  CHG  1   5   1
M  END
> <s_m_source_file>
AV-unprocessed.smi

> <i_m_source_file_index>
2997

> <i_lp_mmshare_version>
43012

> <i_f3d_flags>
0

> <s_epik_input>
W0NIM11jKFtjSF0xKWMoW0NIM10pW2NIXWMoYzEyKW4oW2NIXW4yKVtDSDJdW0NASF0oW09IXSlbQ0gyXW4zW2NIXVtjSF1bY0hdbjM=

> <s_epik_cmdline>
J2VwaWtfcHl0aG9uJywgJy1waCcsICc3LjAnLCAnLXRuJywgJzgnLCAnLW1hJywgJzIwMCcsICctbWV0YWxfYmluZGluZycsICctaW1hZScsICc8aW5maWxlLm1hZT4nLCAnLW9tYWUnLCAnPG91dGZpbGUubWFlPic=

> <r_lp_tautomer_probability>
1

> <r_epik_Ionization_Penalty>
1.09215

> <r_epik_Ionization_Penalty_Charging>
1.09214

> <r_epik_Ionization_Penalty_Neutral>
1.42327e-05

> <r_epik_State_Penalty>
1.14852

> <r_epik_Charging_Adjusted_Penalty>
2.24066

> <i_epik_Tot_Q>
1

> <i_epik_Tot_abs_Q>
1

> <r_epik_Metal_State_Penalty>
1.23686

> <b_epik_Metal_Only>
0

> <s_lp_Force_Field>
OPLS_2005

> <r_lp_Energy>
12.1799

> <b_lp_Chiralities_Consistent>
1

> <s_lp_Variant>
AV-unprocessed.smi:2997-4

> <Gold.Version>
5.8.1

> <Gold.Id.Protein>
6NUR|6NUR_protein|mol2

> <Gold.PLP.Fitness>
52.8939

> <Gold.PLP.PLP>
-43.2717

> <Gold.PLP.part.hbond>
-2.0000

> <Gold.PLP.part.metal>
0.0000

> <Gold.PLP.part.buried>
-5.6712

> <Gold.PLP.part.nonpolar>
-35.8967

> <Gold.PLP.part.repulsive>
0.1017

> <Gold.PLP.ligand.clash>
0.0000

> <Gold.PLP.ligand.torsion>
0.2845

> <Gold.PLP.Chemscore.Hbond>
2.3890

> <Gold.PLP.Chemscore.CHOScore>
1.0000

> <Gold.PLP.Chemscore.Metal>
0.0000

> <Gold.Chemscore.Hbonds>
donor molecule, donor type, donor heavy atom, donor atom, acceptor molecule, acceptor atom, score
      L1  H     5    39       P1  8028  2.00
      P1  H 10752 10765       L1    10  0.47
      L1  C    13    32       P1  7948  1.00

> <Gold.PLP.Chemscore.Internal.Correction>
0.0243

> <Gold.Rescore>
     Score         DG    S(hbond)    S(metal)    S(lipo)     H(rot)  DE(clash)    DE(int)     intcor
     16.84     -17.54       1.30        0.00     114.46       2.21       0.26       0.44       ----

> <Gold.Chemscore.Fitness>
16.8365

> <Gold.Chemscore.DG>
-17.5423

> <Gold.Chemscore.ZeroCoef>
-5.4800

> <Gold.Chemscore.Hbond>
1.2980

> <Gold.Chemscore.Metal>
0.0000

> <Gold.Chemscore.Lipo>
114.4605

> <Gold.Chemscore.Internal_Hbond>
0.0000

> <Gold.Chemscore.DEClash>
0.2619

> <Gold.Chemscore.DEInternal>
0.4439

> <Gold.Chemscore.Rot>
2.2129

> <Gold.Chemscore.Internal.Correction>
   9.000000E+99

> <Gold.Chemscore.Hbonds>
donor molecule, donor type, donor heavy atom, donor atom, acceptor molecule, acceptor atom, score
      L1  H     5    39       P1  8028  0.98
      P1  H 10752 10765       L1    10  0.20

> <Gold.Chemscore.Hbond.Weighted>
-4.3353

> <Gold.Chemscore.Metal.Weighted>
-0.0000

> <Gold.Chemscore.Lipo.Weighted>
-13.3919

> <Gold.Chemscore.Internal_Hbond.Weighted>
0.0000

> <Gold.Chemscore.DEClash.Weighted>
0.2619

> <Gold.Chemscore.DEInternal.Weighted>
0.4439

> <Gold.Chemscore.Rot.Weighted>
5.6649

> <Gold.Chemscore.Internal.Correction.Weighted>
   9.000000E+99

> <Gold.Protein.RotatedTorsions>
[ 6907 6896 6895 6894 ] final  133.36 input  -60.11 | X-H torsion
[ 7974 7965 7964 7962 ] final -106.22 input  175.53 | X-H torsion
[ 8008 7997 7996 7995 ] final -115.42 input   59.86 | X-H torsion
[ 10167 10162 10161 10158 ] final   -3.09 input  -65.29 | X-H torsion
[ 10718 10713 10712 10709 ] final  -20.87 input   66.30 | X-H torsion
[ 10763 10752 10751 10750 ] final  154.52 input  -60.55 | X-H torsion
[ 11005 11000 10999 10996 ] final  -84.60 input  -57.11 | X-H torsion

> <Gold.Protein.ActiveResidues>
 VAL166  LYS551  ARG553  GLY616  TRP617  ASP618  TYR619  PRO620  LYS621  CYS622 
 ASP623  PHE694  ASN695  SER759  ASP760  ASP761  ALA762  ILE779  LEU786  VAL792 
 PHE793  MET794  SER795  GLU796  ALA797  LYS798  CYS799  TRP800  GLU811  SER814 

> <Gold.Protein.RotatedAtoms>
  152.3228  133.5872  159.5755 H   0  0  0  0  0  0  0  0  0  0  0  0  # atno 6907 bound_to 6896
  150.7380  133.9986  159.3639 H   0  0  0  0  0  0  0  0  0  0  0  0  # atno 6908 bound_to 6896
  151.7869  135.0747  160.0432 H   0  0  0  0  0  0  0  0  0  0  0  0  # atno 6909 bound_to 6896
  145.2206  140.9133  143.3261 H   0  0  0  0  0  0  0  0  0  0  0  0  # atno 7974 bound_to 7965
  155.0518  140.0393  157.2546 H   0  0  0  0  0  0  0  0  0  0  0  0  # atno 8008 bound_to 7997
  154.7131  140.2697  155.6586 H   0  0  0  0  0  0  0  0  0  0  0  0  # atno 8009 bound_to 7997
  156.2795  140.2717  156.1779 H   0  0  0  0  0  0  0  0  0  0  0  0  # atno 8010 bound_to 7997
  140.6877  143.6581  150.8291 H   0  0  0  0  0  0  0  0  0  0  0  0  # atno 10167 bound_to 10162
  156.5259  130.4643  149.6572 H   0  0  0  0  0  0  0  0  0  0  0  0  # atno 10718 bound_to 10713
  154.1537  135.2813  155.3128 H   0  0  0  0  0  0  0  0  0  0  0  0  # atno 10763 bound_to 10752
  154.6199  135.5471  153.7567 H   0  0  0  0  0  0  0  0  0  0  0  0  # atno 10764 bound_to 10752
  153.0213  135.6436  154.1680 H   0  0  0  0  0  0  0  0  0  0  0  0  # atno 10765 bound_to 10752
  141.1649  133.7354  156.8891 H   0  0  0  0  0  0  0  0  0  0  0  0  # atno 11005 bound_to 11000
  144.9769  139.3823  143.6281 LP  0  0  0  0  0  0  0  0  0  0  0  0  # atno 17320 bound_to 7965
  146.3377  139.8892  142.8812 LP  0  0  0  0  0  0  0  0  0  0  0  0  # atno 17321 bound_to 7965
  140.0289  143.5464  152.2768 LP  0  0  0  0  0  0  0  0  0  0  0  0  # atno 17342 bound_to 10162
  139.6249  144.7635  151.2659 LP  0  0  0  0  0  0  0  0  0  0  0  0  # atno 17343 bound_to 10162
  156.3105  130.7226  151.2118 LP  0  0  0  0  0  0  0  0  0  0  0  0  # atno 17370 bound_to 10713
  157.7429  131.0482  150.4985 LP  0  0  0  0  0  0  0  0  0  0  0  0  # atno 17371 bound_to 10713
  140.1661  134.9132  157.2775 LP  0  0  0  0  0  0  0  0  0  0  0  0  # atno 17394 bound_to 11000
  140.2555  134.3632  155.7426 LP  0  0  0  0  0  0  0  0  0  0  0  0  # atno 17395 bound_to 11000

$$$$
