AV-unprocessed.smi:3340|AV-procd|sdf|12879|dock2
  -GOLD-   2272019283D 1   1.00000     0.00000
 Structure written by MMmdl.
 42 43  0  0  0  0  0  0  0  0  2 V2000
  150.8244  145.2883  159.9951 C   0  0  0  0  0  0  0  0  0  0  0  0
  150.7563  144.0054  159.1636 C   0  0  0  0  0  0  0  0  0  0  0  0
  149.6928  143.7358  158.6050 O   0  0  0  0  0  0  0  0  0  0  0  0
  151.8541  143.2173  159.0674 N   0  0  0  0  0  0  0  0  0  0  0  0
  153.1052  143.5046  159.7840 C   0  0  0  0  0  0  0  0  0  0  0  0
  153.3592  142.3858  160.8144 C   0  0  0  0  0  0  0  0  0  0  0  0
  153.4273  141.0908  160.1092 N   0  0  0  0  0  0  0  0  0  0  0  0
  154.5354  140.3243  159.9519 C   0  0  0  0  0  0  0  0  0  0  0  0
  154.6084  139.3973  159.1440 O   0  0  0  0  0  0  0  0  0  0  0  0
  155.5420  140.6166  160.7934 N   0  0  0  0  0  0  0  0  0  0  0  0
  156.8234  139.9206  160.8615 C   0  0  2  0  0  0  0  0  0  0  0  0
  157.7093  140.3824  159.6929 C   0  0  0  0  0  0  0  0  0  0  0  0
  156.5958  138.3937  160.8866 C   0  0  0  0  0  0  0  0  0  0  0  0
  155.6882  137.9699  161.9567 N   0  0  0  0  0  0  0  0  0  0  0  0
  154.5010  137.2984  161.8168 C   0  0  0  0  0  0  0  0  0  0  0  0
  154.0036  137.1163  163.0816 C   0  0  0  0  0  0  0  0  0  0  0  0
  154.9090  137.6815  163.9394 N   0  3  0  0  0  0  0  0  0  0  0  0
  155.9346  138.1970  163.2536 C   0  0  0  0  0  0  0  0  0  0  0  0
  152.1765  140.8106  159.3870 C   0  0  0  0  0  0  0  0  0  0  0  0
  151.9220  141.9305  158.3586 C   0  0  0  0  0  0  0  0  0  0  0  0
  151.5840  145.9642  159.6011 H   0  0  0  0  0  0  0  0  0  0  0  0
  151.0540  145.0626  161.0367 H   0  0  0  0  0  0  0  0  0  0  0  0
  149.8688  145.8131  159.9710 H   0  0  0  0  0  0  0  0  0  0  0  0
  153.9274  143.5545  159.0685 H   0  0  0  0  0  0  0  0  0  0  0  0
  153.0903  144.4705  160.2903 H   0  0  0  0  0  0  0  0  0  0  0  0
  154.2542  142.6280  161.3868 H   0  0  0  0  0  0  0  0  0  0  0  0
  152.5457  142.3530  161.5407 H   0  0  0  0  0  0  0  0  0  0  0  0
  155.4017  141.3759  161.4442 H   0  0  0  0  0  0  0  0  0  0  0  0
  157.3275  140.2128  161.7846 H   0  0  0  0  0  0  0  0  0  0  0  0
  158.7122  139.9610  159.7601 H   0  0  0  0  0  0  0  0  0  0  0  0
  157.8164  141.4676  159.6889 H   0  0  0  0  0  0  0  0  0  0  0  0
  157.2857  140.0865  158.7326 H   0  0  0  0  0  0  0  0  0  0  0  0
  156.1648  138.0527  159.9442 H   0  0  0  0  0  0  0  0  0  0  0  0
  157.5431  137.8658  161.0093 H   0  0  0  0  0  0  0  0  0  0  0  0
  154.1088  137.0094  160.8522 H   0  0  0  0  0  0  0  0  0  0  0  0
  153.0975  136.6393  163.4261 H   0  0  0  0  0  0  0  0  0  0  0  0
  156.7895  138.7021  163.6667 H   0  0  0  0  0  0  0  0  0  0  0  0
  152.1884  139.8434  158.8831 H   0  0  0  0  0  0  0  0  0  0  0  0
  151.3537  140.7613  160.1019 H   0  0  0  0  0  0  0  0  0  0  0  0
  151.0262  141.6984  157.7850 H   0  0  0  0  0  0  0  0  0  0  0  0
  152.7354  141.9652  157.6325 H   0  0  0  0  0  0  0  0  0  0  0  0
  154.8183  137.7068  164.9473 H   0  0  0  0  0  0  0  0  0  0  0  0
  1  2  1  0  0  0  0
  1 21  1  0  0  0  0
  1 22  1  0  0  0  0
  1 23  1  0  0  0  0
  2  3  2  0  0  0  0
  2  4  1  0  0  0  0
  4 20  1  0  0  0  0
  4  5  1  0  0  0  0
  5  6  1  0  0  0  0
  5 24  1  0  0  0  0
  5 25  1  0  0  0  0
  6  7  1  0  0  0  0
  6 26  1  0  0  0  0
  6 27  1  0  0  0  0
  7  8  1  0  0  0  0
  7 19  1  0  0  0  0
  8  9  2  0  0  0  0
  8 10  1  0  0  0  0
 10 11  1  0  0  0  0
 10 28  1  0  0  0  0
 11 12  1  0  0  0  0
 11 13  1  0  0  0  0
 11 29  1  0  0  0  0
 12 30  1  0  0  0  0
 12 31  1  0  0  0  0
 12 32  1  0  0  0  0
 13 14  1  0  0  0  0
 13 33  1  0  0  0  0
 13 34  1  0  0  0  0
 14 18  1  0  0  0  0
 14 15  1  0  0  0  0
 15 16  2  0  0  0  0
 15 35  1  0  0  0  0
 16 17  1  0  0  0  0
 16 36  1  0  0  0  0
 17 18  2  0  0  0  0
 17 42  1  0  0  0  0
 18 37  1  0  0  0  0
 19 20  1  0  0  0  0
 19 38  1  0  0  0  0
 19 39  1  0  0  0  0
 20 40  1  0  0  0  0
 20 41  1  0  0  0  0
M  CHG  1  17   1
M  END
> <s_m_source_file>
AV-unprocessed.smi

> <i_m_source_file_index>
3340

> <i_lp_mmshare_version>
43012

> <i_f3d_flags>
0

> <s_epik_input>
W0NIM11DKD1PKU4xW0NIMl1bQ0gyXU4oW0NIMl1bQ0gyXTEpQyg9TylbTkhdW0NASF0oW0NIM10pW0NIMl1uMltjSF1bY0hdbltjSF0y

> <s_epik_cmdline>
J2VwaWtfcHl0aG9uJywgJy1waCcsICc3LjAnLCAnLXRuJywgJzgnLCAnLW1hJywgJzIwMCcsICctbWV0YWxfYmluZGluZycsICctaW1hZScsICc8aW5maWxlLm1hZT4nLCAnLW9tYWUnLCAnPG91dGZpbGUubWFlPic=

> <r_lp_tautomer_probability>
1

> <r_epik_Ionization_Penalty>
0.254791

> <r_epik_Ionization_Penalty_Charging>
0

> <r_epik_Ionization_Penalty_Neutral>
0.254791

> <r_epik_State_Penalty>
0.246235

> <r_epik_Charging_Adjusted_Penalty>
0.246235

> <i_epik_Tot_Q>
1

> <i_epik_Tot_abs_Q>
1

> <r_epik_Metal_State_Penalty>
0.536161

> <b_epik_Metal_Only>
0

> <s_lp_Force_Field>
OPLS_2005

> <r_lp_Energy>
50.8971

> <b_lp_Chiralities_Consistent>
1

> <s_lp_Variant>
AV-unprocessed.smi:3340-1

> <Gold.Version>
5.8.1

> <Gold.Id.Protein>
6NUR|6NUR_protein|mol2

> <Gold.PLP.Fitness>
40.8396

> <Gold.PLP.PLP>
-38.2922

> <Gold.PLP.part.hbond>
-1.9218

> <Gold.PLP.part.metal>
0.0000

> <Gold.PLP.part.buried>
-5.9857

> <Gold.PLP.part.nonpolar>
-31.5742

> <Gold.PLP.part.repulsive>
0.2678

> <Gold.PLP.ligand.clash>
0.0000

> <Gold.PLP.ligand.torsion>
0.2668

> <Gold.PLP.Chemscore.Hbond>
1.0000

> <Gold.PLP.Chemscore.CHOScore>
0.0000

> <Gold.PLP.Chemscore.Metal>
0.0000

> <Gold.Chemscore.Hbonds>
donor molecule, donor type, donor heavy atom, donor atom, acceptor molecule, acceptor atom, score
      P1  H  7997  8008       L1     9  1.00

> <Gold.PLP.Chemscore.Internal.Correction>
0.0810

> <Gold.Rescore>
     Score         DG    S(hbond)    S(metal)    S(lipo)     H(rot)  DE(clash)    DE(int)     intcor
     12.07     -13.74       0.97        0.00      80.14       1.70       0.09       1.58       ----

> <Gold.Chemscore.Fitness>
12.0696

> <Gold.Chemscore.DG>
-13.7396

> <Gold.Chemscore.ZeroCoef>
-5.4800

> <Gold.Chemscore.Hbond>
0.9666

> <Gold.Chemscore.Metal>
0.0000

> <Gold.Chemscore.Lipo>
80.1440

> <Gold.Chemscore.Internal_Hbond>
0.0000

> <Gold.Chemscore.DEClash>
0.0942

> <Gold.Chemscore.DEInternal>
1.5759

> <Gold.Chemscore.Rot>
1.6975

> <Gold.Chemscore.Internal.Correction>
   9.000000E+99

> <Gold.Chemscore.Hbonds>
donor molecule, donor type, donor heavy atom, donor atom, acceptor molecule, acceptor atom, score
      P1  H  7997  8008       L1     9  0.81

> <Gold.Chemscore.Hbond.Weighted>
-3.2283

> <Gold.Chemscore.Metal.Weighted>
-0.0000

> <Gold.Chemscore.Lipo.Weighted>
-9.3769

> <Gold.Chemscore.Internal_Hbond.Weighted>
0.0000

> <Gold.Chemscore.DEClash.Weighted>
0.0942

> <Gold.Chemscore.DEInternal.Weighted>
1.5759

> <Gold.Chemscore.Rot.Weighted>
4.3455

> <Gold.Chemscore.Internal.Correction.Weighted>
   9.000000E+99

> <Gold.Protein.RotatedTorsions>
[ 6907 6896 6895 6894 ] final -117.70 input  -60.11 | X-H torsion
[ 7974 7965 7964 7962 ] final  145.67 input  175.53 | X-H torsion
[ 8008 7997 7996 7995 ] final -106.03 input   59.86 | X-H torsion
[ 10167 10162 10161 10158 ] final  135.48 input  -65.29 | X-H torsion
[ 10718 10713 10712 10709 ] final  -49.85 input   66.30 | X-H torsion
[ 10763 10752 10751 10750 ] final  166.21 input  -60.55 | X-H torsion
[ 11005 11000 10999 10996 ] final  112.86 input  -57.11 | X-H torsion

> <Gold.Protein.ActiveResidues>
 VAL166  LYS551  ARG553  GLY616  TRP617  ASP618  TYR619  PRO620  LYS621  CYS622 
 ASP623  PHE694  ASN695  SER759  ASP760  ASP761  ALA762  ILE779  LEU786  VAL792 
 PHE793  MET794  SER795  GLU796  ALA797  LYS798  CYS799  TRP800  GLU811  SER814 

> <Gold.Protein.RotatedAtoms>
  150.8158  133.8339  159.3160 H   0  0  0  0  0  0  0  0  0  0  0  0  # atno 6907 bound_to 6896
  151.6112  135.1038  160.0091 H   0  0  0  0  0  0  0  0  0  0  0  0  # atno 6908 bound_to 6896
  152.4250  133.7139  159.6551 H   0  0  0  0  0  0  0  0  0  0  0  0  # atno 6909 bound_to 6896
  144.8733  139.5812  143.5877 H   0  0  0  0  0  0  0  0  0  0  0  0  # atno 7974 bound_to 7965
  154.9086  140.0410  157.1933 H   0  0  0  0  0  0  0  0  0  0  0  0  # atno 8008 bound_to 7997
  154.8371  140.2908  155.5662 H   0  0  0  0  0  0  0  0  0  0  0  0  # atno 8009 bound_to 7997
  156.2990  140.2489  156.3307 H   0  0  0  0  0  0  0  0  0  0  0  0  # atno 8010 bound_to 7997
  139.5216  144.6515  151.5288 H   0  0  0  0  0  0  0  0  0  0  0  0  # atno 10167 bound_to 10162
  156.1854  130.4151  149.9446 H   0  0  0  0  0  0  0  0  0  0  0  0  # atno 10718 bound_to 10713
  154.3356  135.2754  155.2449 H   0  0  0  0  0  0  0  0  0  0  0  0  # atno 10763 bound_to 10752
  154.4742  135.5875  153.6346 H   0  0  0  0  0  0  0  0  0  0  0  0  # atno 10764 bound_to 10752
  152.9862  135.6095  154.3553 H   0  0  0  0  0  0  0  0  0  0  0  0  # atno 10765 bound_to 10752
  139.8938  134.9538  156.6651 H   0  0  0  0  0  0  0  0  0  0  0  0  # atno 11005 bound_to 11000
  146.2945  139.7238  142.9136 LP  0  0  0  0  0  0  0  0  0  0  0  0  # atno 17320 bound_to 7965
  145.4089  141.0394  143.3028 LP  0  0  0  0  0  0  0  0  0  0  0  0  # atno 17321 bound_to 7965
  140.6322  143.9054  150.6615 LP  0  0  0  0  0  0  0  0  0  0  0  0  # atno 17342 bound_to 10162
  140.2362  143.3698  152.1525 LP  0  0  0  0  0  0  0  0  0  0  0  0  # atno 17343 bound_to 10162
  156.7203  130.9004  151.3617 LP  0  0  0  0  0  0  0  0  0  0  0  0  # atno 17370 bound_to 10713
  157.6895  130.9219  150.0477 LP  0  0  0  0  0  0  0  0  0  0  0  0  # atno 17371 bound_to 10713
  140.7417  133.8972  155.8282 LP  0  0  0  0  0  0  0  0  0  0  0  0  # atno 17394 bound_to 11000
  141.0072  134.1069  157.4258 LP  0  0  0  0  0  0  0  0  0  0  0  0  # atno 17395 bound_to 11000

$$$$
