AV-unprocessed.smi:2761|AV-procd|sdf|10635|dock10
  -GOLD-   2272015 83D 1   1.00000     0.00000
 Structure written by MMmdl.
 26 27  0  0  0  0  0  0  0  0  2 V2000
  153.0693  139.7215  158.0388 O   0  0  0  0  0  0  0  0  0  0  0  0
  152.2963  140.6680  157.8750 C   0  0  0  0  0  0  0  0  0  0  0  0
  152.0992  141.6716  158.7569 N   0  0  0  0  0  0  0  0  0  0  0  0
  152.6904  141.8506  160.0115 C   0  0  0  0  0  0  0  0  0  0  0  0
  152.2093  143.0320  160.6809 C   0  0  0  0  0  0  0  0  0  0  0  0
  152.7120  143.3037  161.9055 C   0  0  0  0  0  0  0  0  0  0  0  0
  153.7084  142.4295  162.5301 C   0  0  0  0  0  0  0  0  0  0  0  0
  154.1372  142.7151  163.6458 O   0  0  0  0  0  0  0  0  0  0  0  0
  154.1203  141.3225  161.8339 N   0  5  0  0  0  0  0  0  0  0  0  0
  153.5717  141.0448  160.5214 N   0  0  0  0  0  0  0  0  0  0  0  0
  151.4852  140.7769  156.5753 C   0  0  1  0  0  0  0  0  0  0  0  0
  151.7118  139.5872  155.6130 C   0  0  0  0  0  0  0  0  0  0  0  0
  150.8943  139.7517  154.4614 O   0  0  0  0  0  0  0  0  0  0  0  0
  149.5174  139.8028  154.8076 C   0  0  0  0  0  0  0  0  0  0  0  0
  149.2852  140.9919  155.7534 C   0  0  0  0  0  0  0  0  0  0  0  0
  150.0996  140.8320  156.9071 O   0  0  0  0  0  0  0  0  0  0  0  0
  151.4366  142.3747  158.4656 H   0  0  0  0  0  0  0  0  0  0  0  0
  151.4762  143.6996  160.2523 H   0  0  0  0  0  0  0  0  0  0  0  0
  152.3736  144.1819  162.4353 H   0  0  0  0  0  0  0  0  0  0  0  0
  151.7747  141.7071  156.0831 H   0  0  0  0  0  0  0  0  0  0  0  0
  152.7526  139.5450  155.2904 H   0  0  0  0  0  0  0  0  0  0  0  0
  151.4852  138.6356  156.0974 H   0  0  0  0  0  0  0  0  0  0  0  0
  148.9253  139.9190  153.8998 H   0  0  0  0  0  0  0  0  0  0  0  0
  149.2100  138.8663  155.2757 H   0  0  0  0  0  0  0  0  0  0  0  0
  149.5152  141.9357  155.2569 H   0  0  0  0  0  0  0  0  0  0  0  0
  148.2397  141.0349  156.0587 H   0  0  0  0  0  0  0  0  0  0  0  0
  1  2  2  0  0  0  0
  2  3  1  0  0  0  0
  2 11  1  0  0  0  0
  3 17  1  0  0  0  0
  3  4  1  0  0  0  0
  4  5  1  0  0  0  0
  4 10  2  0  0  0  0
  5  6  2  0  0  0  0
  5 18  1  0  0  0  0
  6  7  1  0  0  0  0
  6 19  1  0  0  0  0
  7  8  2  0  0  0  0
  7  9  1  0  0  0  0
  9 10  1  0  0  0  0
 11 16  1  0  0  0  0
 11 12  1  0  0  0  0
 11 20  1  0  0  0  0
 12 13  1  0  0  0  0
 12 21  1  0  0  0  0
 12 22  1  0  0  0  0
 13 14  1  0  0  0  0
 14 15  1  0  0  0  0
 14 23  1  0  0  0  0
 14 24  1  0  0  0  0
 15 16  1  0  0  0  0
 15 25  1  0  0  0  0
 15 26  1  0  0  0  0
M  CHG  1   9  -1
M  END
> <s_m_source_file>
AV-unprocessed.smi

> <i_m_source_file_index>
2761

> <i_lp_mmshare_version>
43012

> <i_f3d_flags>
0

> <s_epik_input>
TzFbQ0gyXVtDSDJdT1tDSDJdW0NASF0xQyg9TylbTkhdYzJbY0hdW2NIXWMoW09IXSlubjI=

> <s_epik_cmdline>
J2VwaWtfcHl0aG9uJywgJy1waCcsICc3LjAnLCAnLXRuJywgJzgnLCAnLW1hJywgJzIwMCcsICctbWV0YWxfYmluZGluZycsICctaW1hZScsICc8aW5maWxlLm1hZT4nLCAnLW9tYWUnLCAnPG91dGZpbGUubWFlPic=

> <r_lp_tautomer_probability>
1

> <r_epik_Ionization_Penalty>
4.21844

> <r_epik_Ionization_Penalty_Charging>
0.119247

> <r_epik_Ionization_Penalty_Neutral>
4.0992

> <r_epik_State_Penalty>
4.09486

> <r_epik_Charging_Adjusted_Penalty>
4.2141

> <i_epik_Tot_Q>
-1

> <i_epik_Tot_abs_Q>
1

> <r_epik_Metal_State_Penalty>
0.651223

> <b_epik_Metal_Only>
1

> <s_lp_Force_Field>
OPLS_2005

> <r_lp_Energy>
28.3135

> <b_lp_Chiralities_Consistent>
1

> <s_lp_Variant>
AV-unprocessed.smi:2761-4

> <Gold.Version>
5.8.1

> <Gold.Id.Protein>
6NUR|6NUR_protein|mol2

> <Gold.PLP.Fitness>
37.8230

> <Gold.PLP.PLP>
-31.8447

> <Gold.PLP.part.hbond>
-2.9683

> <Gold.PLP.part.metal>
0.0000

> <Gold.PLP.part.buried>
-5.5403

> <Gold.PLP.part.nonpolar>
-22.3042

> <Gold.PLP.part.repulsive>
0.2912

> <Gold.PLP.ligand.clash>
0.0000

> <Gold.PLP.ligand.torsion>
0.0115

> <Gold.PLP.Chemscore.Hbond>
2.0000

> <Gold.PLP.Chemscore.CHOScore>
0.0000

> <Gold.PLP.Chemscore.Metal>
0.0000

> <Gold.Chemscore.Hbonds>
donor molecule, donor type, donor heavy atom, donor atom, acceptor molecule, acceptor atom, score
      P1  H  7989  7998       L1    13  1.00
      P1  H  7997  8010       L1     1  1.00

> <Gold.PLP.Chemscore.Internal.Correction>
0.0013

> <Gold.Rescore>
     Score         DG    S(hbond)    S(metal)    S(lipo)     H(rot)  DE(clash)    DE(int)     intcor
     13.32     -14.71       1.83        0.00      48.40       1.00       0.08       1.32       ----

> <Gold.Chemscore.Fitness>
13.3182

> <Gold.Chemscore.DG>
-14.7099

> <Gold.Chemscore.ZeroCoef>
-5.4800

> <Gold.Chemscore.Hbond>
1.8344

> <Gold.Chemscore.Metal>
0.0000

> <Gold.Chemscore.Lipo>
48.4025

> <Gold.Chemscore.Internal_Hbond>
0.0000

> <Gold.Chemscore.DEClash>
0.0762

> <Gold.Chemscore.DEInternal>
1.3155

> <Gold.Chemscore.Rot>
1.0000

> <Gold.Chemscore.Internal.Correction>
   9.000000E+99

> <Gold.Chemscore.Hbonds>
donor molecule, donor type, donor heavy atom, donor atom, acceptor molecule, acceptor atom, score
      P1  H  7989  7998       L1    13  0.60
      P1  H  7997  8010       L1     1  0.60

> <Gold.Chemscore.Hbond.Weighted>
-6.1268

> <Gold.Chemscore.Metal.Weighted>
-0.0000

> <Gold.Chemscore.Lipo.Weighted>
-5.6631

> <Gold.Chemscore.Internal_Hbond.Weighted>
0.0000

> <Gold.Chemscore.DEClash.Weighted>
0.0762

> <Gold.Chemscore.DEInternal.Weighted>
1.3155

> <Gold.Chemscore.Rot.Weighted>
2.5600

> <Gold.Chemscore.Internal.Correction.Weighted>
   9.000000E+99

> <Gold.Protein.RotatedTorsions>
[ 6907 6896 6895 6894 ] final   62.87 input  -60.11 | X-H torsion
[ 7974 7965 7964 7962 ] final  172.84 input  175.53 | X-H torsion
[ 8008 7997 7996 7995 ] final   37.64 input   59.86 | X-H torsion
[ 10167 10162 10161 10158 ] final  -41.71 input  -65.29 | X-H torsion
[ 10718 10713 10712 10709 ] final  109.18 input   66.30 | X-H torsion
[ 10763 10752 10751 10750 ] final -129.80 input  -60.55 | X-H torsion
[ 11005 11000 10999 10996 ] final -157.92 input  -57.11 | X-H torsion

> <Gold.Protein.ActiveResidues>
 VAL166  LYS551  ARG553  GLY616  TRP617  ASP618  TYR619  PRO620  LYS621  CYS622 
 ASP623  PHE694  ASN695  SER759  ASP760  ASP761  ALA762  ILE779  LEU786  VAL792 
 PHE793  MET794  SER795  GLU796  ALA797  LYS798  CYS799  TRP800  GLU811  SER814 

> <Gold.Protein.RotatedAtoms>
  152.4208  134.5959  159.9986 H   0  0  0  0  0  0  0  0  0  0  0  0  # atno 6907 bound_to 6896
  151.6110  133.3341  159.3075 H   0  0  0  0  0  0  0  0  0  0  0  0  # atno 6908 bound_to 6896
  150.8096  134.7280  159.6741 H   0  0  0  0  0  0  0  0  0  0  0  0  # atno 6909 bound_to 6896
  144.7258  139.9558  143.6433 H   0  0  0  0  0  0  0  0  0  0  0  0  # atno 7974 bound_to 7965
  155.2071  140.3320  155.4334 H   0  0  0  0  0  0  0  0  0  0  0  0  # atno 8008 bound_to 7997
  156.2385  140.1883  156.7104 H   0  0  0  0  0  0  0  0  0  0  0  0  # atno 8009 bound_to 7997
  154.6102  140.0610  156.9470 H   0  0  0  0  0  0  0  0  0  0  0  0  # atno 8010 bound_to 7997
  140.6993  143.3079  151.3105 H   0  0  0  0  0  0  0  0  0  0  0  0  # atno 10167 bound_to 10162
  157.6553  131.0908  150.6415 H   0  0  0  0  0  0  0  0  0  0  0  0  # atno 10718 bound_to 10713
  154.8757  135.3883  154.3978 H   0  0  0  0  0  0  0  0  0  0  0  0  # atno 10763 bound_to 10752
  153.4706  135.7030  153.6001 H   0  0  0  0  0  0  0  0  0  0  0  0  # atno 10764 bound_to 10752
  153.4459  135.3845  155.2223 H   0  0  0  0  0  0  0  0  0  0  0  0  # atno 10765 bound_to 10752
  140.6593  134.4366  157.5234 H   0  0  0  0  0  0  0  0  0  0  0  0  # atno 11005 bound_to 11000
  146.0676  139.3666  143.0543 LP  0  0  0  0  0  0  0  0  0  0  0  0  # atno 17320 bound_to 7965
  145.8011  140.9770  143.0998 LP  0  0  0  0  0  0  0  0  0  0  0  0  # atno 17321 bound_to 7965
  139.6491  144.0395  152.2613 LP  0  0  0  0  0  0  0  0  0  0  0  0  # atno 17342 bound_to 10162
  139.9926  144.6351  150.7801 LP  0  0  0  0  0  0  0  0  0  0  0  0  # atno 17343 bound_to 10162
  156.6722  130.4543  149.5653 LP  0  0  0  0  0  0  0  0  0  0  0  0  # atno 17370 bound_to 10713
  156.1989  130.6607  151.1145 LP  0  0  0  0  0  0  0  0  0  0  0  0  # atno 17371 bound_to 10713
  139.9018  134.8538  156.1864 LP  0  0  0  0  0  0  0  0  0  0  0  0  # atno 17394 bound_to 11000
  141.0477  133.6905  156.1714 LP  0  0  0  0  0  0  0  0  0  0  0  0  # atno 17395 bound_to 11000

$$$$
