AV-unprocessed.smi:66|AV-procd|sdf|622|dock8
  -GOLD-   2262016513D 1   1.00000     0.00000
 Structure written by MMmdl.
 28 30  0  0  0  0  0  0  0  0  2 V2000
  149.7542  138.0724  159.0934 O   0  0  0  0  0  0  0  0  0  0  0  0
  150.9930  137.9505  158.9780 C   0  0  0  0  0  0  0  0  0  0  0  0
  151.7100  137.1708  159.6450 O   0  5  0  0  0  0  0  0  0  0  0  0
  151.6792  138.8323  157.9273 C   0  0  1  0  0  0  0  0  0  0  0  0
  151.4484  138.3408  156.4925 C   0  0  0  0  0  0  0  0  0  0  0  0
  151.6159  139.6266  155.6893 C   0  0  1  0  0  0  0  0  0  0  0  0
  151.0022  139.5608  154.4194 O   0  0  0  0  0  0  0  0  0  0  0  0
  150.9818  140.6851  156.5950 C   0  0  0  0  0  0  0  0  0  0  0  0
  151.1638  140.2017  157.9587 N   0  0  0  0  0  0  0  0  0  0  0  0
  151.7865  141.1048  158.8328 C   0  0  0  0  0  0  0  0  0  0  0  0
  152.7559  140.6858  159.6797 N   0  0  0  0  0  0  0  0  0  0  0  0
  153.3254  141.6039  160.4736 C   0  0  0  0  0  0  0  0  0  0  0  0
  153.0838  142.9236  160.5558 N   0  0  0  0  0  0  0  0  0  0  0  0
  152.1296  143.3460  159.7140 C   0  0  0  0  0  0  0  0  0  0  0  0
  151.6712  144.6491  159.5723 N   0  0  0  0  0  0  0  0  0  0  0  0
  150.7433  144.5140  158.6240 C   0  0  0  0  0  0  0  0  0  0  0  0
  150.5573  143.2748  158.1388 N   0  0  0  0  0  0  0  0  0  0  0  0
  151.4476  142.4670  158.8237 C   0  0  0  0  0  0  0  0  0  0  0  0
  149.8880  143.0098  157.4302 H   0  0  0  0  0  0  0  0  0  0  0  0
  152.7527  138.8351  158.1212 H   0  0  0  0  0  0  0  0  0  0  0  0
  152.1525  137.5632  156.1948 H   0  0  0  0  0  0  0  0  0  0  0  0
  150.4369  137.9486  156.3687 H   0  0  0  0  0  0  0  0  0  0  0  0
  152.6788  139.8402  155.5663 H   0  0  0  0  0  0  0  0  0  0  0  0
  150.0893  139.7845  154.5177 H   0  0  0  0  0  0  0  0  0  0  0  0
  151.4149  141.6719  156.4220 H   0  0  0  0  0  0  0  0  0  0  0  0
  149.9087  140.7603  156.4143 H   0  0  0  0  0  0  0  0  0  0  0  0
  154.0901  141.2304  161.1384 H   0  0  0  0  0  0  0  0  0  0  0  0
  150.1701  145.3564  158.2655 H   0  0  0  0  0  0  0  0  0  0  0  0
  1  2  2  0  0  0  0
  2  3  1  0  0  0  0
  2  4  1  0  0  0  0
  4  9  1  0  0  0  0
  4  5  1  0  0  0  0
  4 20  1  0  0  0  0
  5  6  1  0  0  0  0
  5 21  1  0  0  0  0
  5 22  1  0  0  0  0
  6  7  1  0  0  0  0
  6  8  1  0  0  0  0
  6 23  1  0  0  0  0
  7 24  1  0  0  0  0
  8  9  1  0  0  0  0
  8 25  1  0  0  0  0
  8 26  1  0  0  0  0
  9 10  1  0  0  0  0
 10 18  1  0  0  0  0
 10 11  2  0  0  0  0
 11 12  1  0  0  0  0
 12 13  2  0  0  0  0
 12 27  1  0  0  0  0
 13 14  1  0  0  0  0
 14 18  2  0  0  0  0
 14 15  1  0  0  0  0
 15 16  2  0  0  0  0
 16 17  1  0  0  0  0
 16 28  1  0  0  0  0
 17 19  1  0  0  0  0
 17 18  1  0  0  0  0
M  CHG  1   3  -1
M  END
> <s_m_source_file>
AV-unprocessed.smi

> <i_m_source_file_index>
66

> <i_lp_mmshare_version>
43012

> <i_f3d_flags>
0

> <s_epik_input>
Tz1DKFtPSF0pW0NAQEhdMVtDSDJdW0NAQEhdKFtPSF0pW0NIMl1OMWMobltjSF1uMiljKGMyMylbbkhdW2NIXW4z

> <s_epik_cmdline>
J2VwaWtfcHl0aG9uJywgJy1waCcsICc3LjAnLCAnLXRuJywgJzgnLCAnLW1hJywgJzIwMCcsICctbWV0YWxfYmluZGluZycsICctaW1hZScsICc8aW5maWxlLm1hZT4nLCAnLW9tYWUnLCAnPG91dGZpbGUubWFlPic=

> <r_lp_tautomer_probability>
0.0419193

> <r_epik_Ionization_Penalty>
0.0157405

> <r_epik_Ionization_Penalty_Charging>
0.000248217

> <r_epik_Ionization_Penalty_Neutral>
0.0154923

> <r_epik_State_Penalty>
1.99742

> <r_epik_Charging_Adjusted_Penalty>
1.99767

> <i_epik_Tot_Q>
-1

> <i_epik_Tot_abs_Q>
1

> <r_epik_Metal_State_Penalty>
2.31035

> <b_epik_Metal_Only>
0

> <s_lp_Force_Field>
OPLS_2005

> <r_lp_Energy>
24.7496

> <b_lp_Chiralities_Consistent>
1

> <s_lp_Variant>
AV-unprocessed.smi:66-6

> <Gold.Version>
5.8.1

> <Gold.Id.Protein>
6NUR|6NUR_protein|mol2

> <Gold.PLP.Fitness>
40.1325

> <Gold.PLP.PLP>
-29.3681

> <Gold.PLP.part.hbond>
-2.8784

> <Gold.PLP.part.metal>
0.0000

> <Gold.PLP.part.buried>
-7.2192

> <Gold.PLP.part.nonpolar>
-20.2156

> <Gold.PLP.part.repulsive>
0.1052

> <Gold.PLP.ligand.clash>
0.0000

> <Gold.PLP.ligand.torsion>
0.6821

> <Gold.PLP.Chemscore.Hbond>
3.0000

> <Gold.PLP.Chemscore.CHOScore>
0.9996

> <Gold.PLP.Chemscore.Metal>
0.0000

> <Gold.Chemscore.Hbonds>
donor molecule, donor type, donor heavy atom, donor atom, acceptor molecule, acceptor atom, score
      P1  H  6896  6909       L1     3  2.00
      P1  H  7989  7998       L1     7  1.00
      L1  C    16    28       P1  8029  1.00

> <Gold.PLP.Chemscore.Internal.Correction>
0.1297

> <Gold.Rescore>
     Score         DG    S(hbond)    S(metal)    S(lipo)     H(rot)  DE(clash)    DE(int)     intcor
      8.67      -8.85       1.93        0.00      27.90       2.48       0.00       0.18       ----

> <Gold.Chemscore.Fitness>
8.6722

> <Gold.Chemscore.DG>
-8.8547

> <Gold.Chemscore.ZeroCoef>
-5.4800

> <Gold.Chemscore.Hbond>
1.9310

> <Gold.Chemscore.Metal>
0.0000

> <Gold.Chemscore.Lipo>
27.8977

> <Gold.Chemscore.Internal_Hbond>
0.0000

> <Gold.Chemscore.DEClash>
0.0009

> <Gold.Chemscore.DEInternal>
0.1816

> <Gold.Chemscore.Rot>
2.4762

> <Gold.Chemscore.Internal.Correction>
   9.000000E+99

> <Gold.Chemscore.Hbonds>
donor molecule, donor type, donor heavy atom, donor atom, acceptor molecule, acceptor atom, score
      P1  H  6896  6909       L1     3  0.93
      P1  H  7989  7998       L1     7  0.27

> <Gold.Chemscore.Hbond.Weighted>
-6.4497

> <Gold.Chemscore.Metal.Weighted>
-0.0000

> <Gold.Chemscore.Lipo.Weighted>
-3.2640

> <Gold.Chemscore.Internal_Hbond.Weighted>
0.0000

> <Gold.Chemscore.DEClash.Weighted>
0.0009

> <Gold.Chemscore.DEInternal.Weighted>
0.1816

> <Gold.Chemscore.Rot.Weighted>
6.3391

> <Gold.Chemscore.Internal.Correction.Weighted>
   9.000000E+99

> <Gold.Protein.RotatedTorsions>
[ 6907 6896 6895 6894 ] final  119.74 input  -60.11 | X-H torsion
[ 7974 7965 7964 7962 ] final  168.60 input  175.53 | X-H torsion
[ 8008 7997 7996 7995 ] final   51.49 input   59.86 | X-H torsion
[ 10167 10162 10161 10158 ] final   75.27 input  -65.29 | X-H torsion
[ 10718 10713 10712 10709 ] final -143.83 input   66.30 | X-H torsion
[ 10763 10752 10751 10750 ] final  -21.05 input  -60.55 | X-H torsion
[ 11005 11000 10999 10996 ] final -146.00 input  -57.11 | X-H torsion

> <Gold.Protein.ActiveResidues>
 VAL166  LYS551  ARG553  GLY616  TRP617  ASP618  TYR619  PRO620  LYS621  CYS622 
 ASP623  PHE694  ASN695  SER759  ASP760  ASP761  ALA762  ILE779  LEU786  VAL792 
 PHE793  MET794  SER795  GLU796  ALA797  LYS798  CYS799  TRP800  GLU811  SER814 

> <Gold.Protein.RotatedAtoms>
  152.4450  133.7519  159.6698 H   0  0  0  0  0  0  0  0  0  0  0  0  # atno 6907 bound_to 6896
  150.8348  133.8022  159.3090 H   0  0  0  0  0  0  0  0  0  0  0  0  # atno 6908 bound_to 6896
  151.5665  135.1066  160.0036 H   0  0  0  0  0  0  0  0  0  0  0  0  # atno 6909 bound_to 6896
  144.7383  139.8931  143.6404 H   0  0  0  0  0  0  0  0  0  0  0  0  # atno 7974 bound_to 7965
  155.4361  140.3452  155.4285 H   0  0  0  0  0  0  0  0  0  0  0  0  # atno 8008 bound_to 7997
  156.1307  140.1513  156.9100 H   0  0  0  0  0  0  0  0  0  0  0  0  # atno 8009 bound_to 7997
  154.4892  140.0846  156.7536 H   0  0  0  0  0  0  0  0  0  0  0  0  # atno 8010 bound_to 7997
  140.0047  144.5659  150.7708 H   0  0  0  0  0  0  0  0  0  0  0  0  # atno 10167 bound_to 10162
  156.3627  130.7747  151.1916 H   0  0  0  0  0  0  0  0  0  0  0  0  # atno 10718 bound_to 10713
  153.6300  135.6989  153.5279 H   0  0  0  0  0  0  0  0  0  0  0  0  # atno 10763 bound_to 10752
  153.2867  135.4169  155.1129 H   0  0  0  0  0  0  0  0  0  0  0  0  # atno 10764 bound_to 10752
  154.8524  135.3615  154.5843 H   0  0  0  0  0  0  0  0  0  0  0  0  # atno 10765 bound_to 10752
  140.7865  134.3018  157.5028 H   0  0  0  0  0  0  0  0  0  0  0  0  # atno 11005 bound_to 11000
  146.1127  139.4134  143.0277 LP  0  0  0  0  0  0  0  0  0  0  0  0  # atno 17320 bound_to 7965
  145.7419  141.0005  143.1296 LP  0  0  0  0  0  0  0  0  0  0  0  0  # atno 17321 bound_to 7965
  140.7405  143.2805  151.3612 LP  0  0  0  0  0  0  0  0  0  0  0  0  # atno 17342 bound_to 10162
  139.6247  144.0838  152.2423 LP  0  0  0  0  0  0  0  0  0  0  0  0  # atno 17343 bound_to 10162
  157.7475  131.0395  150.4554 LP  0  0  0  0  0  0  0  0  0  0  0  0  # atno 17370 bound_to 10713
  156.4768  130.4065  149.6485 LP  0  0  0  0  0  0  0  0  0  0  0  0  # atno 17371 bound_to 10713
  139.8736  134.9349  156.3620 LP  0  0  0  0  0  0  0  0  0  0  0  0  # atno 17394 bound_to 11000
  140.9432  133.7501  156.0173 LP  0  0  0  0  0  0  0  0  0  0  0  0  # atno 17395 bound_to 11000

$$$$
