AV-unprocessed.smi:2698|AV-procd|sdf|10419|dock10
  -GOLD-   2272014453D 1   1.00000     0.00000
 Structure written by MMmdl.
 33 33  0  0  0  0  0  0  0  0  2 V2000
  152.6161  142.6345  160.7719 C   0  0  0  0  0  0  0  0  0  0  0  0
  152.5716  142.5090  159.2377 C   0  0  0  0  0  0  0  0  0  0  0  0
  152.2595  143.8693  158.5963 C   0  0  0  0  0  0  0  0  0  0  0  0
  151.5767  141.4350  158.7404 C   0  0  0  0  0  0  0  0  0  0  0  0
  152.2600  140.2544  158.0471 C   0  0  0  0  0  0  0  0  0  0  0  0
  153.3534  139.8539  158.4463 O   0  0  0  0  0  0  0  0  0  0  0  0
  151.6016  139.7174  157.0089 N   0  0  0  0  0  0  0  0  0  0  0  0
  152.0584  138.6045  156.1772 C   0  0  2  0  0  0  0  0  0  0  0  0
  151.8015  138.9415  154.6915 C   0  0  0  0  0  0  0  0  0  0  0  0
  150.5547  139.7511  154.4129 C   0  0  0  0  0  0  0  0  0  0  0  0
  149.3843  139.4559  153.7449 C   0  0  0  0  0  0  0  0  0  0  0  0
  148.5258  140.5574  153.7774 N   0  0  0  0  0  0  0  0  0  0  0  0
  149.1974  141.4687  154.4708 C   0  0  0  0  0  0  0  0  0  0  0  0
  150.3975  141.0457  154.8763 N   0  0  0  0  0  0  0  0  0  0  0  0
  151.3034  137.3304  156.5795 C   0  0  0  0  0  0  0  0  0  0  0  0
  150.4520  137.4238  157.4923 O   0  0  0  0  0  0  0  0  0  0  0  0
  151.5913  136.2802  155.9648 O   0  5  0  0  0  0  0  0  0  0  0  0
  151.0692  141.5739  155.4149 H   0  0  0  0  0  0  0  0  0  0  0  0
  151.6335  142.8772  161.1776 H   0  0  0  0  0  0  0  0  0  0  0  0
  153.3060  143.4207  161.0796 H   0  0  0  0  0  0  0  0  0  0  0  0
  152.9541  141.7124  161.2444 H   0  0  0  0  0  0  0  0  0  0  0  0
  153.5705  142.2215  158.9053 H   0  0  0  0  0  0  0  0  0  0  0  0
  151.2697  144.2248  158.8842 H   0  0  0  0  0  0  0  0  0  0  0  0
  152.2876  143.8070  157.5080 H   0  0  0  0  0  0  0  0  0  0  0  0
  152.9857  144.6241  158.8995 H   0  0  0  0  0  0  0  0  0  0  0  0
  150.9844  141.0583  159.5755 H   0  0  0  0  0  0  0  0  0  0  0  0
  150.8657  141.8807  158.0430 H   0  0  0  0  0  0  0  0  0  0  0  0
  150.6994  140.1037  156.7726 H   0  0  0  0  0  0  0  0  0  0  0  0
  153.1260  138.4243  156.3175 H   0  0  0  0  0  0  0  0  0  0  0  0
  152.6478  139.4988  154.2874 H   0  0  0  0  0  0  0  0  0  0  0  0
  151.7385  138.0198  154.1103 H   0  0  0  0  0  0  0  0  0  0  0  0
  149.0940  138.5431  153.2460 H   0  0  0  0  0  0  0  0  0  0  0  0
  148.8105  142.4535  154.6876 H   0  0  0  0  0  0  0  0  0  0  0  0
  1  2  1  0  0  0  0
  1 19  1  0  0  0  0
  1 20  1  0  0  0  0
  1 21  1  0  0  0  0
  2  3  1  0  0  0  0
  2  4  1  0  0  0  0
  2 22  1  0  0  0  0
  3 23  1  0  0  0  0
  3 24  1  0  0  0  0
  3 25  1  0  0  0  0
  4  5  1  0  0  0  0
  4 26  1  0  0  0  0
  4 27  1  0  0  0  0
  5  6  2  0  0  0  0
  5  7  1  0  0  0  0
  7  8  1  0  0  0  0
  7 28  1  0  0  0  0
  8  9  1  0  0  0  0
  8 15  1  0  0  0  0
  8 29  1  0  0  0  0
  9 30  1  0  0  0  0
  9 31  1  0  0  0  0
  9 10  1  0  0  0  0
 10 11  2  0  0  0  0
 10 14  1  0  0  0  0
 11 32  1  0  0  0  0
 11 12  1  0  0  0  0
 12 13  2  0  0  0  0
 13 14  1  0  0  0  0
 13 33  1  0  0  0  0
 14 18  1  0  0  0  0
 15 16  2  0  0  0  0
 15 17  1  0  0  0  0
M  CHG  1  17  -1
M  END
> <s_m_source_file>
AV-unprocessed.smi

> <i_m_source_file_index>
2698

> <i_lp_mmshare_version>
43012

> <i_f3d_flags>
0

> <s_epik_input>
W0NIM11bQ0hdKFtDSDNdKVtDSDJdQyg9TylbTkhdW0NAQEhdKEMoPU8pW09IXSlbQ0gyXWMxW2NIXVtuSF1bY0hdbjE=

> <s_epik_cmdline>
J2VwaWtfcHl0aG9uJywgJy1waCcsICc3LjAnLCAnLXRuJywgJzgnLCAnLW1hJywgJzIwMCcsICctbWV0YWxfYmluZGluZycsICctaW1hZScsICc8aW5maWxlLm1hZT4nLCAnLW9tYWUnLCAnPG91dGZpbGUubWFlPic=

> <r_lp_tautomer_probability>
0.5

> <r_epik_Ionization_Penalty>
0.536153

> <r_epik_Ionization_Penalty_Charging>
0.536153

> <r_epik_Ionization_Penalty_Neutral>
4.95393e-08

> <r_epik_State_Penalty>
0.778213

> <r_epik_Charging_Adjusted_Penalty>
1.31437

> <i_epik_Tot_Q>
-1

> <i_epik_Tot_abs_Q>
1

> <r_epik_Metal_State_Penalty>
0.658344

> <b_epik_Metal_Only>
0

> <s_lp_Force_Field>
OPLS_2005

> <r_lp_Energy>
3.7745

> <b_lp_Chiralities_Consistent>
1

> <s_lp_Variant>
AV-unprocessed.smi:2698-3

> <Gold.Version>
5.8.1

> <Gold.Id.Protein>
6NUR|6NUR_protein|mol2

> <Gold.PLP.Fitness>
40.7483

> <Gold.PLP.PLP>
-30.2955

> <Gold.PLP.part.hbond>
-2.0000

> <Gold.PLP.part.metal>
0.0000

> <Gold.PLP.part.buried>
-0.3114

> <Gold.PLP.part.nonpolar>
-27.4634

> <Gold.PLP.part.repulsive>
1.4568

> <Gold.PLP.ligand.clash>
0.0000

> <Gold.PLP.ligand.torsion>
1.6077

> <Gold.PLP.Chemscore.Hbond>
3.0000

> <Gold.PLP.Chemscore.CHOScore>
1.5355

> <Gold.PLP.Chemscore.Metal>
0.0000

> <Gold.Chemscore.Hbonds>
donor molecule, donor type, donor heavy atom, donor atom, acceptor molecule, acceptor atom, score
      P1  H  7997  8008       L1     6  1.00
      P1  H 10752 10764       L1    17  2.00
      L1  C    11    32       P1  7948  0.66
      L1  C    11    32       P1  7957  0.02
      L1  C    13    33       P1  8028  1.00

> <Gold.PLP.Chemscore.Internal.Correction>
0.0616

> <Gold.Rescore>
     Score         DG    S(hbond)    S(metal)    S(lipo)     H(rot)  DE(clash)    DE(int)     intcor
      9.76     -12.66       1.98        0.00      70.79       3.01       0.05       2.85       ----

> <Gold.Chemscore.Fitness>
9.7571

> <Gold.Chemscore.DG>
-12.6605

> <Gold.Chemscore.ZeroCoef>
-5.4800

> <Gold.Chemscore.Hbond>
1.9807

> <Gold.Chemscore.Metal>
0.0000

> <Gold.Chemscore.Lipo>
70.7861

> <Gold.Chemscore.Internal_Hbond>
0.0000

> <Gold.Chemscore.DEClash>
0.0489

> <Gold.Chemscore.DEInternal>
2.8544

> <Gold.Chemscore.Rot>
3.0145

> <Gold.Chemscore.Internal.Correction>
   9.000000E+99

> <Gold.Chemscore.Hbonds>
donor molecule, donor type, donor heavy atom, donor atom, acceptor molecule, acceptor atom, score
      P1  H  7997  8008       L1     6  0.54
      P1  H 10752 10764       L1    17  0.99

> <Gold.Chemscore.Hbond.Weighted>
-6.6156

> <Gold.Chemscore.Metal.Weighted>
-0.0000

> <Gold.Chemscore.Lipo.Weighted>
-8.2820

> <Gold.Chemscore.Internal_Hbond.Weighted>
0.0000

> <Gold.Chemscore.DEClash.Weighted>
0.0489

> <Gold.Chemscore.DEInternal.Weighted>
2.8544

> <Gold.Chemscore.Rot.Weighted>
7.7171

> <Gold.Chemscore.Internal.Correction.Weighted>
   9.000000E+99

> <Gold.Protein.RotatedTorsions>
[ 6907 6896 6895 6894 ] final -164.95 input  -60.11 | X-H torsion
[ 7974 7965 7964 7962 ] final  117.80 input  175.53 | X-H torsion
[ 8008 7997 7996 7995 ] final  -81.09 input   59.86 | X-H torsion
[ 10167 10162 10161 10158 ] final  142.19 input  -65.29 | X-H torsion
[ 10718 10713 10712 10709 ] final  175.35 input   66.30 | X-H torsion
[ 10763 10752 10751 10750 ] final  -40.77 input  -60.55 | X-H torsion
[ 11005 11000 10999 10996 ] final  117.08 input  -57.11 | X-H torsion

> <Gold.Protein.ActiveResidues>
 VAL166  LYS551  ARG553  GLY616  TRP617  ASP618  TYR619  PRO620  LYS621  CYS622 
 ASP623  PHE694  ASN695  SER759  ASP760  ASP761  ALA762  ILE779  LEU786  VAL792 
 PHE793  MET794  SER795  GLU796  ALA797  LYS798  CYS799  TRP800  GLU811  SER814 

> <Gold.Protein.RotatedAtoms>
  151.4199  133.3701  159.2754 H   0  0  0  0  0  0  0  0  0  0  0  0  # atno 6907 bound_to 6896
  150.9301  134.8717  159.7556 H   0  0  0  0  0  0  0  0  0  0  0  0  # atno 6908 bound_to 6896
  152.5024  134.4144  159.9511 H   0  0  0  0  0  0  0  0  0  0  0  0  # atno 6909 bound_to 6896
  145.1630  139.3144  143.4507 H   0  0  0  0  0  0  0  0  0  0  0  0  # atno 7974 bound_to 7965
  154.5948  140.0653  156.9289 H   0  0  0  0  0  0  0  0  0  0  0  0  # atno 8008 bound_to 7997
  155.2232  140.3332  155.4294 H   0  0  0  0  0  0  0  0  0  0  0  0  # atno 8009 bound_to 7997
  156.2280  140.1828  156.7299 H   0  0  0  0  0  0  0  0  0  0  0  0  # atno 8010 bound_to 7997
  139.5001  144.6123  151.6243 H   0  0  0  0  0  0  0  0  0  0  0  0  # atno 10167 bound_to 10162
  156.9361  130.9986  151.2978 H   0  0  0  0  0  0  0  0  0  0  0  0  # atno 10718 bound_to 10713
  153.9515  135.6750  153.4744 H   0  0  0  0  0  0  0  0  0  0  0  0  # atno 10763 bound_to 10752
  153.0882  135.4888  154.8635 H   0  0  0  0  0  0  0  0  0  0  0  0  # atno 10764 bound_to 10752
  154.7323  135.3141  154.8830 H   0  0  0  0  0  0  0  0  0  0  0  0  # atno 10765 bound_to 10752
  139.9062  134.9606  156.7296 H   0  0  0  0  0  0  0  0  0  0  0  0  # atno 11005 bound_to 11000
  146.3480  140.1747  142.8589 LP  0  0  0  0  0  0  0  0  0  0  0  0  # atno 17320 bound_to 7965
  145.0311  140.8871  143.5109 LP  0  0  0  0  0  0  0  0  0  0  0  0  # atno 17321 bound_to 7965
  140.5801  143.9960  150.6263 LP  0  0  0  0  0  0  0  0  0  0  0  0  # atno 17342 bound_to 10162
  140.3106  143.3200  152.0882 LP  0  0  0  0  0  0  0  0  0  0  0  0  # atno 17343 bound_to 10162
  157.5815  130.8380  149.8530 LP  0  0  0  0  0  0  0  0  0  0  0  0  # atno 17370 bound_to 10713
  156.0425  130.3735  150.1399 LP  0  0  0  0  0  0  0  0  0  0  0  0  # atno 17371 bound_to 10713
  140.6936  133.9368  155.7981 LP  0  0  0  0  0  0  0  0  0  0  0  0  # atno 17394 bound_to 11000
  141.0423  134.0603  157.3886 LP  0  0  0  0  0  0  0  0  0  0  0  0  # atno 17395 bound_to 11000

$$$$
