AV-unprocessed.smi:1898|AV-procd|sdf|7700|dock2
  -GOLD-   22720 9433D 1   1.00000     0.00000
 Structure written by MMmdl.
 46 47  0  0  0  0  0  0  0  0  1 V2000
  153.2791  141.9790  160.0189 C   0  0  0  0  0  0  0  0  0  0  0  0
  152.3014  142.0575  158.9449 N   0  0  0  0  0  0  0  0  0  0  0  0
  152.1383  141.1175  158.0027 C   0  0  0  0  0  0  0  0  0  0  0  0
  152.7982  140.0795  157.9612 O   0  0  0  0  0  0  0  0  0  0  0  0
  151.0615  141.3855  156.9444 C   0  0  0  0  0  0  0  0  0  0  0  0
  150.6471  140.1967  156.1621 N   0  0  0  0  0  0  0  0  0  0  0  0
  150.0192  139.2241  157.0631 C   0  0  0  0  0  0  0  0  0  0  0  0
  149.4655  138.0249  156.2730 C   0  0  0  0  0  0  0  0  0  0  0  0
  150.5728  137.3361  155.4635 C   0  0  0  0  0  0  0  0  0  0  0  0
  150.0022  136.2752  154.6384 N   0  0  0  0  0  0  0  0  0  0  0  0
  150.1218  134.9616  154.8782 C   0  0  0  0  0  0  0  0  0  0  0  0
  150.7345  134.5009  155.8411 O   0  0  0  0  0  0  0  0  0  0  0  0
  149.5084  134.2377  153.9268 N   0  0  0  0  0  0  0  0  0  0  0  0
  149.4284  132.8232  153.7988 C   0  0  0  0  0  0  0  0  0  0  0  0
  150.3509  131.9263  154.3906 C   0  0  0  0  0  0  0  0  0  0  0  0
  150.1675  130.5424  154.2141 C   0  0  0  0  0  0  0  0  0  0  0  0
  149.0641  130.1034  153.4601 C   0  0  0  0  0  0  0  0  0  0  0  0
  148.1690  130.9443  152.9028 N   0  0  0  0  0  0  0  0  0  0  0  0
  148.3439  132.2794  153.0712 C   0  0  0  0  0  0  0  0  0  0  0  0
  147.4229  133.1392  152.5032 O   0  0  0  0  0  0  0  0  0  0  0  0
  146.3231  132.5836  151.7907 C   0  0  0  0  0  0  0  0  0  0  0  0
  151.2804  138.3892  154.5954 C   0  0  0  0  0  0  0  0  0  0  0  0
  151.7703  139.5749  155.4448 C   0  0  0  0  0  0  0  0  0  0  0  0
  153.2158  142.8678  160.6464 H   0  0  0  0  0  0  0  0  0  0  0  0
  154.2911  141.9175  159.6169 H   0  0  0  0  0  0  0  0  0  0  0  0
  153.0996  141.1046  160.6456 H   0  0  0  0  0  0  0  0  0  0  0  0
  151.7192  142.8819  158.9049 H   0  0  0  0  0  0  0  0  0  0  0  0
  150.1899  141.8262  157.4322 H   0  0  0  0  0  0  0  0  0  0  0  0
  151.4550  142.1461  156.2683 H   0  0  0  0  0  0  0  0  0  0  0  0
  150.7355  138.8828  157.8129 H   0  0  0  0  0  0  0  0  0  0  0  0
  149.1982  139.6983  157.6027 H   0  0  0  0  0  0  0  0  0  0  0  0
  149.0077  137.3121  156.9601 H   0  0  0  0  0  0  0  0  0  0  0  0
  148.6715  138.3658  155.6068 H   0  0  0  0  0  0  0  0  0  0  0  0
  151.2923  136.9026  156.1610 H   0  0  0  0  0  0  0  0  0  0  0  0
  149.4845  136.5640  153.8212 H   0  0  0  0  0  0  0  0  0  0  0  0
  149.1136  134.7598  153.1580 H   0  0  0  0  0  0  0  0  0  0  0  0
  151.1835  132.2674  154.9855 H   0  0  0  0  0  0  0  0  0  0  0  0
  150.8548  129.8338  154.6521 H   0  0  0  0  0  0  0  0  0  0  0  0
  148.8920  129.0485  153.3060 H   0  0  0  0  0  0  0  0  0  0  0  0
  145.6913  133.3896  151.4181 H   0  0  0  0  0  0  0  0  0  0  0  0
  145.7080  131.9528  152.4340 H   0  0  0  0  0  0  0  0  0  0  0  0
  146.6578  132.0012  150.9310 H   0  0  0  0  0  0  0  0  0  0  0  0
  152.1267  137.9410  154.0738 H   0  0  0  0  0  0  0  0  0  0  0  0
  150.6010  138.7541  153.8234 H   0  0  0  0  0  0  0  0  0  0  0  0
  152.2509  140.2889  154.7762 H   0  0  0  0  0  0  0  0  0  0  0  0
  152.5323  139.2445  156.1529 H   0  0  0  0  0  0  0  0  0  0  0  0
  1  2  1  0  0  0  0
  1 24  1  0  0  0  0
  1 25  1  0  0  0  0
  1 26  1  0  0  0  0
  2  3  1  0  0  0  0
  2 27  1  0  0  0  0
  3  4  2  0  0  0  0
  3  5  1  0  0  0  0
  5  6  1  0  0  0  0
  5 28  1  0  0  0  0
  5 29  1  0  0  0  0
  6 23  1  0  0  0  0
  6  7  1  0  0  0  0
  7  8  1  0  0  0  0
  7 30  1  0  0  0  0
  7 31  1  0  0  0  0
  8  9  1  0  0  0  0
  8 32  1  0  0  0  0
  8 33  1  0  0  0  0
  9 10  1  0  0  0  0
  9 22  1  0  0  0  0
  9 34  1  0  0  0  0
 10 11  1  0  0  0  0
 10 35  1  0  0  0  0
 11 12  2  0  0  0  0
 11 13  1  0  0  0  0
 13 14  1  0  0  0  0
 13 36  1  0  0  0  0
 14 19  1  0  0  0  0
 14 15  2  0  0  0  0
 15 16  1  0  0  0  0
 15 37  1  0  0  0  0
 16 17  2  0  0  0  0
 16 38  1  0  0  0  0
 17 18  1  0  0  0  0
 17 39  1  0  0  0  0
 18 19  2  0  0  0  0
 19 20  1  0  0  0  0
 20 21  1  0  0  0  0
 21 40  1  0  0  0  0
 21 41  1  0  0  0  0
 21 42  1  0  0  0  0
 22 23  1  0  0  0  0
 22 43  1  0  0  0  0
 22 44  1  0  0  0  0
 23 45  1  0  0  0  0
 23 46  1  0  0  0  0
M  END
> <s_m_source_file>
AV-unprocessed.smi

> <i_m_source_file_index>
1898

> <i_lp_mmshare_version>
43012

> <i_f3d_flags>
0

> <s_epik_input>
W0NIM11bTkhdQyg9TylbQ0gyXU4xW0NIMl1bQ0gyXVtDSF0oW0NIMl1bQ0gyXTEpW05IXUMoPU8pW05IXWMyW2NIXVtjSF1bY0hdbmMyT1tDSDNd

> <s_epik_cmdline>
J2VwaWtfcHl0aG9uJywgJy1waCcsICc3LjAnLCAnLXRuJywgJzgnLCAnLW1hJywgJzIwMCcsICctbWV0YWxfYmluZGluZycsICctaW1hZScsICc8aW5maWxlLm1hZT4nLCAnLW9tYWUnLCAnPG91dGZpbGUubWFlPic=

> <r_lp_tautomer_probability>
1

> <r_epik_Ionization_Penalty>
0.16483

> <r_epik_Ionization_Penalty_Charging>
0

> <r_epik_Ionization_Penalty_Neutral>
0.16483

> <r_epik_State_Penalty>
0.154069

> <r_epik_Charging_Adjusted_Penalty>
0.154069

> <i_epik_Tot_Q>
0

> <i_epik_Tot_abs_Q>
0

> <r_epik_Metal_State_Penalty>
0.158584

> <b_epik_Metal_Only>
0

> <s_lp_Force_Field>
OPLS_2005

> <r_lp_Energy>
15.9116

> <b_lp_Chiralities_Consistent>
1

> <s_lp_Variant>
AV-unprocessed.smi:1898-1

> <Gold.Version>
5.8.1

> <Gold.Id.Protein>
6NUR|6NUR_protein|mol2

> <Gold.PLP.Fitness>
43.7805

> <Gold.PLP.PLP>
-36.6943

> <Gold.PLP.part.hbond>
-3.0000

> <Gold.PLP.part.metal>
0.0000

> <Gold.PLP.part.buried>
-6.3680

> <Gold.PLP.part.nonpolar>
-27.7267

> <Gold.PLP.part.repulsive>
1.1400

> <Gold.PLP.ligand.clash>
0.0000

> <Gold.PLP.ligand.torsion>
0.4983

> <Gold.PLP.Chemscore.Hbond>
2.6913

> <Gold.PLP.Chemscore.CHOScore>
0.0000

> <Gold.PLP.Chemscore.Metal>
0.0000

> <Gold.Chemscore.Hbonds>
donor molecule, donor type, donor heavy atom, donor atom, acceptor molecule, acceptor atom, score
      L1  H    10    35       P1  7948  0.96
      L1  H    13    36       P1  7948  0.60
      P1  H  7997  8010       L1     4  1.00

> <Gold.PLP.Chemscore.Internal.Correction>
0.0089

> <Gold.Rescore>
     Score         DG    S(hbond)    S(metal)    S(lipo)     H(rot)  DE(clash)    DE(int)     intcor
     11.69     -15.58       2.08        0.00      69.95       1.96       0.10       3.79       ----

> <Gold.Chemscore.Fitness>
11.6916

> <Gold.Chemscore.DG>
-15.5805

> <Gold.Chemscore.ZeroCoef>
-5.4800

> <Gold.Chemscore.Hbond>
2.0795

> <Gold.Chemscore.Metal>
0.0000

> <Gold.Chemscore.Lipo>
69.9494

> <Gold.Chemscore.Internal_Hbond>
0.0000

> <Gold.Chemscore.DEClash>
0.1033

> <Gold.Chemscore.DEInternal>
3.7856

> <Gold.Chemscore.Rot>
1.9645

> <Gold.Chemscore.Internal.Correction>
   9.000000E+99

> <Gold.Chemscore.Hbonds>
donor molecule, donor type, donor heavy atom, donor atom, acceptor molecule, acceptor atom, score
      L1  H    10    35       P1  7948  0.71
      L1  H    13    36       P1  7948  0.04
      P1  H  7997  8010       L1     4  0.90

> <Gold.Chemscore.Hbond.Weighted>
-6.9454

> <Gold.Chemscore.Metal.Weighted>
-0.0000

> <Gold.Chemscore.Lipo.Weighted>
-8.1841

> <Gold.Chemscore.Internal_Hbond.Weighted>
0.0000

> <Gold.Chemscore.DEClash.Weighted>
0.1033

> <Gold.Chemscore.DEInternal.Weighted>
3.7856

> <Gold.Chemscore.Rot.Weighted>
5.0290

> <Gold.Chemscore.Internal.Correction.Weighted>
   9.000000E+99

> <Gold.Protein.RotatedTorsions>
[ 6907 6896 6895 6894 ] final   -8.06 input  -60.11 | X-H torsion
[ 7974 7965 7964 7962 ] final -123.80 input  175.53 | X-H torsion
[ 8008 7997 7996 7995 ] final   42.09 input   59.86 | X-H torsion
[ 10167 10162 10161 10158 ] final   89.64 input  -65.29 | X-H torsion
[ 10718 10713 10712 10709 ] final  -94.69 input   66.30 | X-H torsion
[ 10763 10752 10751 10750 ] final   78.06 input  -60.55 | X-H torsion
[ 11005 11000 10999 10996 ] final  145.72 input  -57.11 | X-H torsion

> <Gold.Protein.ActiveResidues>
 VAL166  LYS551  ARG553  GLY616  TRP617  ASP618  TYR619  PRO620  LYS621  CYS622 
 ASP623  PHE694  ASN695  SER759  ASP760  ASP761  ALA762  ILE779  LEU786  VAL792 
 PHE793  MET794  SER795  GLU796  ALA797  LYS798  CYS799  TRP800  GLU811  SER814 

> <Gold.Protein.RotatedAtoms>
  151.4396  135.1019  159.9665 H   0  0  0  0  0  0  0  0  0  0  0  0  # atno 6907 bound_to 6896
  152.4927  133.8541  159.7227 H   0  0  0  0  0  0  0  0  0  0  0  0  # atno 6908 bound_to 6896
  150.9097  133.6954  159.2885 H   0  0  0  0  0  0  0  0  0  0  0  0  # atno 6909 bound_to 6896
  145.0149  140.7938  143.4416 H   0  0  0  0  0  0  0  0  0  0  0  0  # atno 7974 bound_to 7965
  155.2804  140.3372  155.4259 H   0  0  0  0  0  0  0  0  0  0  0  0  # atno 8008 bound_to 7997
  156.2092  140.1763  156.7773 H   0  0  0  0  0  0  0  0  0  0  0  0  # atno 8009 bound_to 7997
  154.5663  140.0678  156.8881 H   0  0  0  0  0  0  0  0  0  0  0  0  # atno 8010 bound_to 7997
  139.8552  144.6573  150.9122 H   0  0  0  0  0  0  0  0  0  0  0  0  # atno 10167 bound_to 10162
  156.0031  130.5078  150.5964 H   0  0  0  0  0  0  0  0  0  0  0  0  # atno 10718 bound_to 10713
  153.0845  135.4891  154.8569 H   0  0  0  0  0  0  0  0  0  0  0  0  # atno 10763 bound_to 10752
  154.7193  135.3036  154.9075 H   0  0  0  0  0  0  0  0  0  0  0  0  # atno 10764 bound_to 10752
  153.9744  135.6797  153.4801 H   0  0  0  0  0  0  0  0  0  0  0  0  # atno 10765 bound_to 10752
  140.0735  134.9138  157.1384 H   0  0  0  0  0  0  0  0  0  0  0  0  # atno 11005 bound_to 11000
  145.1974  139.2270  143.5211 LP  0  0  0  0  0  0  0  0  0  0  0  0  # atno 17320 bound_to 7965
  146.3476  140.1783  142.8589 LP  0  0  0  0  0  0  0  0  0  0  0  0  # atno 17321 bound_to 7965
  140.7782  143.3792  151.1508 LP  0  0  0  0  0  0  0  0  0  0  0  0  # atno 17342 bound_to 10162
  139.7426  143.8900  152.3054 LP  0  0  0  0  0  0  0  0  0  0  0  0  # atno 17343 bound_to 10162
  157.3820  131.0782  151.1468 LP  0  0  0  0  0  0  0  0  0  0  0  0  # atno 17370 bound_to 10713
  157.2188  130.6471  149.5803 LP  0  0  0  0  0  0  0  0  0  0  0  0  # atno 17371 bound_to 10713
  140.3592  134.2512  155.7189 LP  0  0  0  0  0  0  0  0  0  0  0  0  # atno 17394 bound_to 11000
  141.2021  133.7947  157.0409 LP  0  0  0  0  0  0  0  0  0  0  0  0  # atno 17395 bound_to 11000

$$$$
