AV-unprocessed.smi:1456|AV-procd|sdf|5918|dock9
  -GOLD-   22720 6 03D 1   1.00000     0.00000
 Structure written by MMmdl.
 41 42  0  0  0  0  0  0  0  0  3 V2000
  147.6499  139.3621  155.5985 C   0  0  0  0  0  0  0  0  0  0  0  0
  148.4183  138.9806  154.3135 C   0  0  0  0  0  0  0  0  0  0  0  0
  147.3804  138.9572  153.1741 C   0  0  0  0  0  0  0  0  0  0  0  0
  149.5088  140.0193  153.9426 C   0  0  0  0  0  0  0  0  0  0  0  0
  150.8171  139.9040  154.7406 C   0  0  0  0  0  0  0  0  0  0  0  0
  150.6754  140.4426  156.0907 N   0  0  0  0  0  0  0  0  0  0  0  0
  151.6187  140.4794  157.0418 C   0  0  0  0  0  0  0  0  0  0  0  0
  152.7521  140.0573  156.8039 O   0  0  0  0  0  0  0  0  0  0  0  0
  151.1802  140.9936  158.2124 N   0  5  0  0  0  0  0  0  0  0  0  0
  152.0532  141.5363  159.0763 C   0  0  0  0  0  0  0  0  0  0  0  0
  151.7414  142.5550  159.8854 N   0  0  0  0  0  0  0  0  0  0  0  0
  152.7980  142.9555  160.7055 C   0  0  0  0  0  0  0  0  0  0  0  0
  153.9378  142.2179  160.5231 C   0  0  0  0  0  0  0  0  0  0  0  0
  153.7168  140.9906  159.3089 S   0  0  0  0  0  0  0  0  0  0  0  0
  151.3287  138.4509  154.7078 C   0  0  0  0  0  0  0  0  0  0  0  0
  150.2835  137.3766  155.1010 C   0  0  0  0  0  0  0  0  0  0  0  0
  150.8078  136.0089  154.6219 C   0  0  0  0  0  0  0  0  0  0  0  0
  150.0984  137.2646  156.6309 C   0  0  0  0  0  0  0  0  0  0  0  0
  148.9857  137.6053  154.4050 N   0  3  0  0  0  0  0  0  0  0  0  0
  147.1177  140.3049  155.4664 H   0  0  0  0  0  0  0  0  0  0  0  0
  148.2847  139.4946  156.4681 H   0  0  0  0  0  0  0  0  0  0  0  0
  146.9070  138.6059  155.8541 H   0  0  0  0  0  0  0  0  0  0  0  0
  146.9261  139.9382  153.0285 H   0  0  0  0  0  0  0  0  0  0  0  0
  146.5749  138.2513  153.3813 H   0  0  0  0  0  0  0  0  0  0  0  0
  147.8317  138.6636  152.2254 H   0  0  0  0  0  0  0  0  0  0  0  0
  149.7683  139.8909  152.8904 H   0  0  0  0  0  0  0  0  0  0  0  0
  149.1101  141.0321  154.0185 H   0  0  0  0  0  0  0  0  0  0  0  0
  151.5558  140.5308  154.2374 H   0  0  0  0  0  0  0  0  0  0  0  0
  149.7696  140.8136  156.3378 H   0  0  0  0  0  0  0  0  0  0  0  0
  152.6494  143.7756  161.3920 H   0  0  0  0  0  0  0  0  0  0  0  0
  154.8877  142.3192  161.0257 H   0  0  0  0  0  0  0  0  0  0  0  0
  151.6563  138.2571  153.6852 H   0  0  0  0  0  0  0  0  0  0  0  0
  152.2270  138.3432  155.3170 H   0  0  0  0  0  0  0  0  0  0  0  0
  151.7768  135.7764  155.0655 H   0  0  0  0  0  0  0  0  0  0  0  0
  150.9319  135.9835  153.5385 H   0  0  0  0  0  0  0  0  0  0  0  0
  150.1238  135.2021  154.8892 H   0  0  0  0  0  0  0  0  0  0  0  0
  151.0224  136.9378  157.1096 H   0  0  0  0  0  0  0  0  0  0  0  0
  149.3278  136.5356  156.8844 H   0  0  0  0  0  0  0  0  0  0  0  0
  149.8289  138.1993  157.1110 H   0  0  0  0  0  0  0  0  0  0  0  0
  148.2897  136.9887  154.7989 H   0  0  0  0  0  0  0  0  0  0  0  0
  149.1436  137.3191  153.4496 H   0  0  0  0  0  0  0  0  0  0  0  0
  1  2  1  0  0  0  0
  1 20  1  0  0  0  0
  1 21  1  0  0  0  0
  1 22  1  0  0  0  0
  2 19  1  0  0  0  0
  2  3  1  0  0  0  0
  2  4  1  0  0  0  0
  3 23  1  0  0  0  0
  3 24  1  0  0  0  0
  3 25  1  0  0  0  0
  4  5  1  0  0  0  0
  4 26  1  0  0  0  0
  4 27  1  0  0  0  0
  5  6  1  0  0  0  0
  5 15  1  0  0  0  0
  5 28  1  0  0  0  0
  6  7  1  0  0  0  0
  6 29  1  0  0  0  0
  7  8  2  0  0  0  0
  7  9  1  0  0  0  0
  9 10  1  0  0  0  0
 10 14  1  0  0  0  0
 10 11  2  0  0  0  0
 11 12  1  0  0  0  0
 12 13  2  0  0  0  0
 12 30  1  0  0  0  0
 13 14  1  0  0  0  0
 13 31  1  0  0  0  0
 15 16  1  0  0  0  0
 15 32  1  0  0  0  0
 15 33  1  0  0  0  0
 16 17  1  0  0  0  0
 16 18  1  0  0  0  0
 16 19  1  0  0  0  0
 17 34  1  0  0  0  0
 17 35  1  0  0  0  0
 17 36  1  0  0  0  0
 18 37  1  0  0  0  0
 18 38  1  0  0  0  0
 18 39  1  0  0  0  0
 19 40  1  0  0  0  0
 19 41  1  0  0  0  0
M  CHG  1   9  -1
M  CHG  1  19   1
M  END
> <s_m_source_file>
AV-unprocessed.smi

> <i_m_source_file_index>
1456

> <i_lp_mmshare_version>
43012

> <i_f3d_flags>
0

> <s_epik_input>
W0NIM11DMShbQ0gzXSlbQ0gyXVtDSF0oW0NIMl1DKFtDSDNdKShbQ0gzXSlbTkhdMSlbTkhdQyg9TylbTkhdYzJuW2NIXVtjSF1zMg==

> <s_epik_cmdline>
J2VwaWtfcHl0aG9uJywgJy1waCcsICc3LjAnLCAnLXRuJywgJzgnLCAnLW1hJywgJzIwMCcsICctbWV0YWxfYmluZGluZycsICctaW1hZScsICc8aW5maWxlLm1hZT4nLCAnLW9tYWUnLCAnPG91dGZpbGUubWFlPic=

> <r_lp_tautomer_probability>
1

> <r_epik_Ionization_Penalty>
7.98581

> <r_epik_Ionization_Penalty_Charging>
6.48842

> <r_epik_Ionization_Penalty_Neutral>
1.49739

> <r_epik_State_Penalty>
6.48831

> <r_epik_Charging_Adjusted_Penalty>
12.9767

> <i_epik_Tot_Q>
0

> <i_epik_Tot_abs_Q>
2

> <r_epik_Metal_State_Penalty>
2.41622

> <b_epik_Metal_Only>
1

> <s_lp_Force_Field>
OPLS_2005

> <r_lp_Energy>
15.6093

> <b_lp_Chiralities_Consistent>
1

> <s_lp_Variant>
AV-unprocessed.smi:1456-2

> <Gold.Version>
5.8.1

> <Gold.Id.Protein>
6NUR|6NUR_protein|mol2

> <Gold.PLP.Fitness>
39.1100

> <Gold.PLP.PLP>
-30.8169

> <Gold.PLP.part.hbond>
-3.0000

> <Gold.PLP.part.metal>
0.0000

> <Gold.PLP.part.buried>
1.5308

> <Gold.PLP.part.nonpolar>
-27.2386

> <Gold.PLP.part.repulsive>
0.0919

> <Gold.PLP.ligand.clash>
0.0000

> <Gold.PLP.ligand.torsion>
0.3606

> <Gold.PLP.Chemscore.Hbond>
3.0000

> <Gold.PLP.Chemscore.CHOScore>
0.0000

> <Gold.PLP.Chemscore.Metal>
0.0000

> <Gold.Chemscore.Hbonds>
donor molecule, donor type, donor heavy atom, donor atom, acceptor molecule, acceptor atom, score
      L1  H    19    41       P1  7948  2.00
      P1  H  7997  8010       L1     8  1.00

> <Gold.PLP.Chemscore.Internal.Correction>
0.0142

> <Gold.Rescore>
     Score         DG    S(hbond)    S(metal)    S(lipo)     H(rot)  DE(clash)    DE(int)     intcor
     15.53     -18.86       2.00        0.00      79.21       1.00       1.37       1.96       ----

> <Gold.Chemscore.Fitness>
15.5317

> <Gold.Chemscore.DG>
-18.8606

> <Gold.Chemscore.ZeroCoef>
-5.4800

> <Gold.Chemscore.Hbond>
1.9978

> <Gold.Chemscore.Metal>
0.0000

> <Gold.Chemscore.Lipo>
79.2140

> <Gold.Chemscore.Internal_Hbond>
0.0000

> <Gold.Chemscore.DEClash>
1.3735

> <Gold.Chemscore.DEInternal>
1.9554

> <Gold.Chemscore.Rot>
1.0000

> <Gold.Chemscore.Internal.Correction>
   9.000000E+99

> <Gold.Chemscore.Hbonds>
donor molecule, donor type, donor heavy atom, donor atom, acceptor molecule, acceptor atom, score
      L1  H    19    41       P1  7948  0.99
      P1  H  7997  8010       L1     8  0.98

> <Gold.Chemscore.Hbond.Weighted>
-6.6726

> <Gold.Chemscore.Metal.Weighted>
-0.0000

> <Gold.Chemscore.Lipo.Weighted>
-9.2680

> <Gold.Chemscore.Internal_Hbond.Weighted>
0.0000

> <Gold.Chemscore.DEClash.Weighted>
1.3735

> <Gold.Chemscore.DEInternal.Weighted>
1.9554

> <Gold.Chemscore.Rot.Weighted>
2.5600

> <Gold.Chemscore.Internal.Correction.Weighted>
   9.000000E+99

> <Gold.Protein.RotatedTorsions>
[ 6907 6896 6895 6894 ] final  155.19 input  -60.11 | X-H torsion
[ 7974 7965 7964 7962 ] final  102.77 input  175.53 | X-H torsion
[ 8008 7997 7996 7995 ] final   67.32 input   59.86 | X-H torsion
[ 10167 10162 10161 10158 ] final   32.12 input  -65.29 | X-H torsion
[ 10718 10713 10712 10709 ] final  -67.16 input   66.30 | X-H torsion
[ 10763 10752 10751 10750 ] final  -94.43 input  -60.55 | X-H torsion
[ 11005 11000 10999 10996 ] final  161.86 input  -57.11 | X-H torsion

> <Gold.Protein.ActiveResidues>
 VAL166  LYS551  ARG553  GLY616  TRP617  ASP618  TYR619  PRO620  LYS621  CYS622 
 ASP623  PHE694  ASN695  SER759  ASP760  ASP761  ALA762  ILE779  LEU786  VAL792 
 PHE793  MET794  SER795  GLU796  ALA797  LYS798  CYS799  TRP800  GLU811  SER814 

> <Gold.Protein.RotatedAtoms>
  152.0476  133.4005  159.4363 H   0  0  0  0  0  0  0  0  0  0  0  0  # atno 6907 bound_to 6896
  150.6872  134.3344  159.4850 H   0  0  0  0  0  0  0  0  0  0  0  0  # atno 6908 bound_to 6896
  152.1150  134.9247  160.0616 H   0  0  0  0  0  0  0  0  0  0  0  0  # atno 6909 bound_to 6896
  145.3547  139.2431  143.3539 H   0  0  0  0  0  0  0  0  0  0  0  0  # atno 7974 bound_to 7965
  155.6910  140.3496  155.4893 H   0  0  0  0  0  0  0  0  0  0  0  0  # atno 8008 bound_to 7997
  155.9524  140.1122  157.0988 H   0  0  0  0  0  0  0  0  0  0  0  0  # atno 8009 bound_to 7997
  154.4125  140.1191  156.5057 H   0  0  0  0  0  0  0  0  0  0  0  0  # atno 8010 bound_to 7997
  140.4527  144.1024  150.6195 H   0  0  0  0  0  0  0  0  0  0  0  0  # atno 10167 bound_to 10162
  156.0573  130.4273  150.1813 H   0  0  0  0  0  0  0  0  0  0  0  0  # atno 10718 bound_to 10713
  154.7054  135.5158  153.8587 H   0  0  0  0  0  0  0  0  0  0  0  0  # atno 10763 bound_to 10752
  153.0737  135.6609  154.0201 H   0  0  0  0  0  0  0  0  0  0  0  0  # atno 10764 bound_to 10752
  154.0053  135.3007  155.3378 H   0  0  0  0  0  0  0  0  0  0  0  0  # atno 10765 bound_to 10752
  140.2200  134.8203  157.3210 H   0  0  0  0  0  0  0  0  0  0  0  0  # atno 11005 bound_to 11000
  146.2953  140.4170  142.8724 LP  0  0  0  0  0  0  0  0  0  0  0  0  # atno 17320 bound_to 7965
  144.8691  140.7248  143.6058 LP  0  0  0  0  0  0  0  0  0  0  0  0  # atno 17321 bound_to 7965
  140.4188  143.2621  151.9742 LP  0  0  0  0  0  0  0  0  0  0  0  0  # atno 17342 bound_to 10162
  139.4798  144.5850  151.7869 LP  0  0  0  0  0  0  0  0  0  0  0  0  # atno 17343 bound_to 10162
  156.9887  130.9887  151.3420 LP  0  0  0  0  0  0  0  0  0  0  0  0  # atno 17370 bound_to 10713
  157.5553  130.8209  149.8196 LP  0  0  0  0  0  0  0  0  0  0  0  0  # atno 17371 bound_to 10713
  140.1860  134.4430  155.7743 LP  0  0  0  0  0  0  0  0  0  0  0  0  # atno 17394 bound_to 11000
  141.2223  133.7005  156.7948 LP  0  0  0  0  0  0  0  0  0  0  0  0  # atno 17395 bound_to 11000

$$$$
