AV-unprocessed.smi:1775|AV-procd|sdf|7172|dock6
  -GOLD-   22720 8413D 1   1.00000     0.00000
 Structure written by MMmdl.
 37 39  0  0  0  0  0  0  0  0  2 V2000
  147.4287  131.9924  154.3605 O   0  0  0  0  0  0  0  0  0  0  0  0
  148.0987  132.9550  153.9865 C   0  0  0  0  0  0  0  0  0  0  0  0
  149.3545  133.2388  154.3762 N   0  0  0  0  0  0  0  0  0  0  0  0
  150.2030  132.5197  155.2345 C   0  0  0  0  0  0  0  0  0  0  0  0
  150.8206  131.3491  154.9134 C   0  0  0  0  0  0  0  0  0  0  0  0
  151.7042  130.6534  155.8406 C   0  0  0  0  0  0  0  0  0  0  0  0
  152.3291  129.2996  155.5538 C   0  0  0  0  0  0  0  0  0  0  0  0
  153.2131  129.3801  154.5591 F   0  0  0  0  0  0  0  0  0  0  0  0
  152.9510  128.8218  156.6318 F   0  0  0  0  0  0  0  0  0  0  0  0
  151.3839  128.4301  155.2001 F   0  0  0  0  0  0  0  0  0  0  0  0
  151.8197  131.3129  157.0491 C   0  0  0  0  0  0  0  0  0  0  0  0
  151.2688  132.4844  157.4351 N   0  5  0  0  0  0  0  0  0  0  0  0
  150.4467  133.1280  156.5588 C   0  0  0  0  0  0  0  0  0  0  0  0
  149.9089  134.1979  156.8470 O   0  0  0  0  0  0  0  0  0  0  0  0
  147.6467  133.8868  153.1330 N   0  0  0  0  0  0  0  0  0  0  0  0
  146.3259  133.9378  152.5094 C   0  0  0  0  0  0  0  0  0  0  0  0
  146.1633  132.9785  151.3398 C   0  0  0  0  0  0  0  0  0  0  0  0
  144.8132  132.4069  150.9770 C   0  0  0  0  0  0  0  0  0  0  0  0
  145.8814  131.5130  151.5661 C   0  0  0  0  0  0  0  0  0  0  0  0
  145.8785  135.3413  152.1283 C   0  0  0  0  0  0  0  0  0  0  0  0
  144.4146  135.6822  151.9901 C   0  0  0  0  0  0  0  0  0  0  0  0
  145.3004  135.6376  150.7648 C   0  0  0  0  0  0  0  0  0  0  0  0
  149.7422  134.1097  154.0445 H   0  0  0  0  0  0  0  0  0  0  0  0
  150.6902  130.9056  153.9400 H   0  0  0  0  0  0  0  0  0  0  0  0
  152.4470  130.8230  157.8240 H   0  0  0  0  0  0  0  0  0  0  0  0
  148.2776  134.6381  152.8954 H   0  0  0  0  0  0  0  0  0  0  0  0
  145.6464  133.5954  153.2912 H   0  0  0  0  0  0  0  0  0  0  0  0
  146.8115  133.2061  150.4955 H   0  0  0  0  0  0  0  0  0  0  0  0
  143.9652  132.6550  151.6119 H   0  0  0  0  0  0  0  0  0  0  0  0
  144.5858  132.2904  149.9193 H   0  0  0  0  0  0  0  0  0  0  0  0
  146.3667  130.8010  150.9016 H   0  0  0  0  0  0  0  0  0  0  0  0
  145.7455  131.1758  152.5918 H   0  0  0  0  0  0  0  0  0  0  0  0
  146.5064  136.1277  152.5434 H   0  0  0  0  0  0  0  0  0  0  0  0
  143.6929  134.8780  152.1180 H   0  0  0  0  0  0  0  0  0  0  0  0
  144.0926  136.6589  152.3455 H   0  0  0  0  0  0  0  0  0  0  0  0
  145.5679  136.5855  150.3023 H   0  0  0  0  0  0  0  0  0  0  0  0
  145.1600  134.8062  150.0771 H   0  0  0  0  0  0  0  0  0  0  0  0
  1  2  2  0  0  0  0
  2  3  1  0  0  0  0
  2 15  1  0  0  0  0
  3  4  1  0  0  0  0
  3 23  1  0  0  0  0
  4 13  1  0  0  0  0
  4  5  2  0  0  0  0
  5  6  1  0  0  0  0
  5 24  1  0  0  0  0
  6  7  1  0  0  0  0
  6 11  2  0  0  0  0
  7  8  1  0  0  0  0
  7  9  1  0  0  0  0
  7 10  1  0  0  0  0
 11 12  1  0  0  0  0
 11 25  1  0  0  0  0
 12 13  1  0  0  0  0
 13 14  2  0  0  0  0
 15 16  1  0  0  0  0
 15 26  1  0  0  0  0
 16 17  1  0  0  0  0
 16 20  1  0  0  0  0
 16 27  1  0  0  0  0
 17 19  1  0  0  0  0
 17 18  1  0  0  0  0
 17 28  1  0  0  0  0
 18 19  1  0  0  0  0
 18 29  1  0  0  0  0
 18 30  1  0  0  0  0
 19 31  1  0  0  0  0
 19 32  1  0  0  0  0
 20 22  1  0  0  0  0
 20 21  1  0  0  0  0
 20 33  1  0  0  0  0
 21 22  1  0  0  0  0
 21 34  1  0  0  0  0
 21 35  1  0  0  0  0
 22 36  1  0  0  0  0
 22 37  1  0  0  0  0
M  CHG  1  12  -1
M  END
> <s_m_source_file>
AV-unprocessed.smi

> <i_m_source_file_index>
1775

> <i_lp_mmshare_version>
43012

> <i_f3d_flags>
0

> <s_epik_input>
W0NIMl0xW0NIMl1bQ0hdMVtDSF0oW0NIXTJbQ0gyXVtDSDJdMilbTkhdQyg9TylbTkhdYzNbY0hdYyhDKEYpKEYpRilbY0hdW25IXWMzPU8=

> <s_epik_cmdline>
J2VwaWtfcHl0aG9uJywgJy1waCcsICc3LjAnLCAnLXRuJywgJzgnLCAnLW1hJywgJzIwMCcsICctbWV0YWxfYmluZGluZycsICctaW1hZScsICc8aW5maWxlLm1hZT4nLCAnLW9tYWUnLCAnPG91dGZpbGUubWFlPic=

> <r_lp_tautomer_probability>
1

> <r_epik_Ionization_Penalty>
3.19177

> <r_epik_Ionization_Penalty_Charging>
0.180322

> <r_epik_Ionization_Penalty_Neutral>
3.01145

> <r_epik_State_Penalty>
3.00772

> <r_epik_Charging_Adjusted_Penalty>
3.18804

> <i_epik_Tot_Q>
-1

> <i_epik_Tot_abs_Q>
1

> <r_epik_Metal_State_Penalty>
0.454354

> <b_epik_Metal_Only>
1

> <s_lp_Force_Field>
OPLS_2005

> <r_lp_Energy>
38.3623

> <b_lp_Chiralities_Consistent>
1

> <s_lp_Variant>
AV-unprocessed.smi:1775-2

> <Gold.Version>
5.8.1

> <Gold.Id.Protein>
6NUR|6NUR_protein|mol2

> <Gold.PLP.Fitness>
40.4438

> <Gold.PLP.PLP>
-34.1965

> <Gold.PLP.part.hbond>
-2.0000

> <Gold.PLP.part.metal>
0.0000

> <Gold.PLP.part.buried>
-5.2368

> <Gold.PLP.part.nonpolar>
-27.1950

> <Gold.PLP.part.repulsive>
0.0455

> <Gold.PLP.ligand.clash>
0.0000

> <Gold.PLP.ligand.torsion>
2.4916

> <Gold.PLP.Chemscore.Hbond>
3.0000

> <Gold.PLP.Chemscore.CHOScore>
0.0000

> <Gold.PLP.Chemscore.Metal>
0.0000

> <Gold.Chemscore.Hbonds>
donor molecule, donor type, donor heavy atom, donor atom, acceptor molecule, acceptor atom, score
      L1  H    15    26       P1  7948  1.00
      P1  H  6896  6907       L1    12  2.00

> <Gold.PLP.Chemscore.Internal.Correction>
2.2306

> <Gold.Rescore>
     Score         DG    S(hbond)    S(metal)    S(lipo)     H(rot)  DE(clash)    DE(int)     intcor
     12.42     -14.89       1.58        0.00      67.88       1.49       0.05       2.43       ----

> <Gold.Chemscore.Fitness>
12.4156

> <Gold.Chemscore.DG>
-14.8869

> <Gold.Chemscore.ZeroCoef>
-5.4800

> <Gold.Chemscore.Hbond>
1.5778

> <Gold.Chemscore.Metal>
0.0000

> <Gold.Chemscore.Lipo>
67.8825

> <Gold.Chemscore.Internal_Hbond>
0.0000

> <Gold.Chemscore.DEClash>
0.0456

> <Gold.Chemscore.DEInternal>
2.4257

> <Gold.Chemscore.Rot>
1.4864

> <Gold.Chemscore.Internal.Correction>
   9.000000E+99

> <Gold.Chemscore.Hbonds>
donor molecule, donor type, donor heavy atom, donor atom, acceptor molecule, acceptor atom, score
      L1  H    15    26       P1  7948  0.48
      P1  H  6896  6907       L1    12  0.89

> <Gold.Chemscore.Hbond.Weighted>
-5.2698

> <Gold.Chemscore.Metal.Weighted>
-0.0000

> <Gold.Chemscore.Lipo.Weighted>
-7.9422

> <Gold.Chemscore.Internal_Hbond.Weighted>
0.0000

> <Gold.Chemscore.DEClash.Weighted>
0.0456

> <Gold.Chemscore.DEInternal.Weighted>
2.4257

> <Gold.Chemscore.Rot.Weighted>
3.8052

> <Gold.Chemscore.Internal.Correction.Weighted>
   9.000000E+99

> <Gold.Protein.RotatedTorsions>
[ 6907 6896 6895 6894 ] final -168.73 input  -60.11 | X-H torsion
[ 7974 7965 7964 7962 ] final   64.44 input  175.53 | X-H torsion
[ 8008 7997 7996 7995 ] final  -50.19 input   59.86 | X-H torsion
[ 10167 10162 10161 10158 ] final  154.76 input  -65.29 | X-H torsion
[ 10718 10713 10712 10709 ] final   37.74 input   66.30 | X-H torsion
[ 10763 10752 10751 10750 ] final  134.16 input  -60.55 | X-H torsion
[ 11005 11000 10999 10996 ] final  -43.94 input  -57.11 | X-H torsion

> <Gold.Protein.ActiveResidues>
 VAL166  LYS551  ARG553  GLY616  TRP617  ASP618  TYR619  PRO620  LYS621  CYS622 
 ASP623  PHE694  ASN695  SER759  ASP760  ASP761  ALA762  ILE779  LEU786  VAL792 
 PHE793  MET794  SER795  GLU796  ALA797  LYS798  CYS799  TRP800  GLU811  SER814 

> <Gold.Protein.RotatedAtoms>
  151.4802  133.3548  159.2836 H   0  0  0  0  0  0  0  0  0  0  0  0  # atno 6907 bound_to 6896
  150.8902  134.8307  159.7299 H   0  0  0  0  0  0  0  0  0  0  0  0  # atno 6908 bound_to 6896
  152.4818  134.4711  159.9687 H   0  0  0  0  0  0  0  0  0  0  0  0  # atno 6909 bound_to 6896
  145.8502  139.3249  143.0880 H   0  0  0  0  0  0  0  0  0  0  0  0  # atno 7974 bound_to 7965
  154.4057  140.1278  156.4626 H   0  0  0  0  0  0  0  0  0  0  0  0  # atno 8008 bound_to 7997
  155.7258  140.3492  155.5017 H   0  0  0  0  0  0  0  0  0  0  0  0  # atno 8009 bound_to 7997
  155.9173  140.1046  157.1224 H   0  0  0  0  0  0  0  0  0  0  0  0  # atno 8010 bound_to 7997
  139.4822  144.5158  151.7954 H   0  0  0  0  0  0  0  0  0  0  0  0  # atno 10167 bound_to 10162
  157.3505  130.7596  149.6975 H   0  0  0  0  0  0  0  0  0  0  0  0  # atno 10718 bound_to 10713
  153.8191  135.3118  155.3408 H   0  0  0  0  0  0  0  0  0  0  0  0  # atno 10763 bound_to 10752
  154.8020  135.4721  154.0302 H   0  0  0  0  0  0  0  0  0  0  0  0  # atno 10764 bound_to 10752
  153.1705  135.6877  153.8704 H   0  0  0  0  0  0  0  0  0  0  0  0  # atno 10765 bound_to 10752
  141.0417  133.6777  156.2803 H   0  0  0  0  0  0  0  0  0  0  0  0  # atno 11005 bound_to 11000
  145.9367  140.9010  143.0329 LP  0  0  0  0  0  0  0  0  0  0  0  0  # atno 17320 bound_to 7965
  144.6729  140.1492  143.7431 LP  0  0  0  0  0  0  0  0  0  0  0  0  # atno 17321 bound_to 7965
  140.4666  144.1646  150.5912 LP  0  0  0  0  0  0  0  0  0  0  0  0  # atno 17342 bound_to 10162
  140.4427  143.2519  151.9451 LP  0  0  0  0  0  0  0  0  0  0  0  0  # atno 17343 bound_to 10162
  155.9721  130.4142  150.4120 LP  0  0  0  0  0  0  0  0  0  0  0  0  # atno 17370 bound_to 10713
  157.2182  131.0476  151.2561 LP  0  0  0  0  0  0  0  0  0  0  0  0  # atno 17371 bound_to 10713
  140.6221  134.5350  157.5549 LP  0  0  0  0  0  0  0  0  0  0  0  0  # atno 17394 bound_to 11000
  139.9281  134.8017  156.1010 LP  0  0  0  0  0  0  0  0  0  0  0  0  # atno 17395 bound_to 11000

$$$$
