AV-unprocessed.smi:667|AV-procd|sdf|3257|dock7
  -GOLD-   22720 0213D 1   1.00000     0.00000
 Structure written by MMmdl.
 48 49  0  0  0  0  0  0  0  0  1 V2000
  153.3683  138.6492  154.4399 C   0  0  0  0  0  0  0  0  0  0  0  0
  152.0048  138.0690  154.6860 C   0  0  0  0  0  0  0  0  0  0  0  0
  151.8101  136.7725  154.5111 N   0  0  0  0  0  0  0  0  0  0  0  0
  150.5125  136.5742  154.8185 N   0  0  0  0  0  0  0  0  0  0  0  0
  149.9595  135.2364  154.7340 C   0  0  0  0  0  0  0  0  0  0  0  0
  149.8844  137.7496  155.1823 C   0  0  0  0  0  0  0  0  0  0  0  0
  148.4416  137.7968  155.5710 C   0  0  0  0  0  0  0  0  0  0  0  0
  150.8236  138.7439  155.1132 C   0  0  0  0  0  0  0  0  0  0  0  0
  150.6655  140.2112  155.4206 C   0  0  0  0  0  0  0  0  0  0  0  0
  151.2927  140.5188  156.7798 C   0  0  0  0  0  0  0  0  0  0  0  0
  152.3597  139.9940  157.0983 O   0  0  0  0  0  0  0  0  0  0  0  0
  150.6242  141.3752  157.5677 N   0  0  0  0  0  0  0  0  0  0  0  0
  151.0627  141.8159  158.8874 C   0  0  0  0  0  0  0  0  0  0  0  0
  152.5961  142.0262  158.9607 C   0  0  2  0  0  0  0  0  0  0  0  0
  153.2550  141.1472  160.0153 C   0  0  0  0  0  0  0  0  0  0  0  0
  153.1598  141.9868  161.2920 C   0  0  0  0  0  0  0  0  0  0  0  0
  152.8433  143.3110  160.8719 O   0  0  0  0  0  0  0  0  0  0  0  0
  153.0273  143.4136  159.4659 C   0  0  2  0  0  0  0  0  0  0  0  0
  152.2947  144.6441  158.8842 C   0  0  0  0  0  0  0  0  0  0  0  0
  150.9884  144.9412  159.6406 C   0  0  0  0  0  0  0  0  0  0  0  0
  152.0012  144.4534  157.3873 C   0  0  0  0  0  0  0  0  0  0  0  0
  153.8282  138.9698  155.3749 H   0  0  0  0  0  0  0  0  0  0  0  0
  153.3108  139.5169  153.7824 H   0  0  0  0  0  0  0  0  0  0  0  0
  154.0378  137.9263  153.9719 H   0  0  0  0  0  0  0  0  0  0  0  0
  149.3398  135.1533  153.8411 H   0  0  0  0  0  0  0  0  0  0  0  0
  149.3481  135.0325  155.6135 H   0  0  0  0  0  0  0  0  0  0  0  0
  150.7572  134.4937  154.6837 H   0  0  0  0  0  0  0  0  0  0  0  0
  148.0769  138.8227  155.6130 H   0  0  0  0  0  0  0  0  0  0  0  0
  148.2934  137.3493  156.5537 H   0  0  0  0  0  0  0  0  0  0  0  0
  147.8249  137.2551  154.8538 H   0  0  0  0  0  0  0  0  0  0  0  0
  151.1344  140.8339  154.6578 H   0  0  0  0  0  0  0  0  0  0  0  0
  149.6154  140.5038  155.4396 H   0  0  0  0  0  0  0  0  0  0  0  0
  149.7566  141.7596  157.2225 H   0  0  0  0  0  0  0  0  0  0  0  0
  150.5284  142.7322  159.1396 H   0  0  0  0  0  0  0  0  0  0  0  0
  150.7462  141.0693  159.6163 H   0  0  0  0  0  0  0  0  0  0  0  0
  153.0315  141.8337  157.9794 H   0  0  0  0  0  0  0  0  0  0  0  0
  152.8014  140.1617  160.1231 H   0  0  0  0  0  0  0  0  0  0  0  0
  154.3041  140.9957  159.7576 H   0  0  0  0  0  0  0  0  0  0  0  0
  152.3691  141.6245  161.9494 H   0  0  0  0  0  0  0  0  0  0  0  0
  154.0976  141.9718  161.8480 H   0  0  0  0  0  0  0  0  0  0  0  0
  154.0985  143.5290  159.2864 H   0  0  0  0  0  0  0  0  0  0  0  0
  152.9440  145.5151  158.9723 H   0  0  0  0  0  0  0  0  0  0  0  0
  150.2974  144.0997  159.5807 H   0  0  0  0  0  0  0  0  0  0  0  0
  150.4846  145.8139  159.2246 H   0  0  0  0  0  0  0  0  0  0  0  0
  151.1684  145.1455  160.6959 H   0  0  0  0  0  0  0  0  0  0  0  0
  151.3601  143.5880  157.2158 H   0  0  0  0  0  0  0  0  0  0  0  0
  152.9194  144.3048  156.8184 H   0  0  0  0  0  0  0  0  0  0  0  0
  151.4992  145.3270  156.9703 H   0  0  0  0  0  0  0  0  0  0  0  0
  1  2  1  0  0  0  0
  1 22  1  0  0  0  0
  1 23  1  0  0  0  0
  1 24  1  0  0  0  0
  2  8  1  0  0  0  0
  2  3  2  0  0  0  0
  3  4  1  0  0  0  0
  4  5  1  0  0  0  0
  4  6  1  0  0  0  0
  5 25  1  0  0  0  0
  5 26  1  0  0  0  0
  5 27  1  0  0  0  0
  6  7  1  0  0  0  0
  6  8  2  0  0  0  0
  7 28  1  0  0  0  0
  7 29  1  0  0  0  0
  7 30  1  0  0  0  0
  8  9  1  0  0  0  0
  9 10  1  0  0  0  0
  9 31  1  0  0  0  0
  9 32  1  0  0  0  0
 10 11  2  0  0  0  0
 10 12  1  0  0  0  0
 12 13  1  0  0  0  0
 12 33  1  0  0  0  0
 13 14  1  0  0  0  0
 13 34  1  0  0  0  0
 13 35  1  0  0  0  0
 14 18  1  0  0  0  0
 14 15  1  0  0  0  0
 14 36  1  0  0  0  0
 15 16  1  0  0  0  0
 15 37  1  0  0  0  0
 15 38  1  0  0  0  0
 16 17  1  0  0  0  0
 16 39  1  0  0  0  0
 16 40  1  0  0  0  0
 17 18  1  0  0  0  0
 18 19  1  0  0  0  0
 18 41  1  0  0  0  0
 19 20  1  0  0  0  0
 19 21  1  0  0  0  0
 19 42  1  0  0  0  0
 20 43  1  0  0  0  0
 20 44  1  0  0  0  0
 20 45  1  0  0  0  0
 21 46  1  0  0  0  0
 21 47  1  0  0  0  0
 21 48  1  0  0  0  0
M  END
> <s_m_source_file>
AV-unprocessed.smi

> <i_m_source_file_index>
667

> <i_lp_mmshare_version>
43012

> <i_f3d_flags>
0

> <s_epik_input>
W0NIM11jMW5uKFtDSDNdKWMoW0NIM10pYzFbQ0gyXUMoPU8pW05IXVtDSDJdW0NAQEhdMltDSDJdW0NIMl1PW0NASF0yW0NIXShbQ0gzXSlbQ0gzXQ==

> <s_epik_cmdline>
J2VwaWtfcHl0aG9uJywgJy1waCcsICc3LjAnLCAnLXRuJywgJzgnLCAnLW1hJywgJzIwMCcsICctbWV0YWxfYmluZGluZycsICctaW1hZScsICc8aW5maWxlLm1hZT4nLCAnLW9tYWUnLCAnPG91dGZpbGUubWFlPic=

> <r_lp_tautomer_probability>
1

> <r_epik_Ionization_Penalty>
0.00315488

> <r_epik_Ionization_Penalty_Charging>
0

> <r_epik_Ionization_Penalty_Neutral>
0.00315488

> <r_epik_State_Penalty>
0.00222269

> <r_epik_Charging_Adjusted_Penalty>
0.00222269

> <i_epik_Tot_Q>
0

> <i_epik_Tot_abs_Q>
0

> <r_epik_Metal_State_Penalty>
-0

> <b_epik_Metal_Only>
0

> <s_lp_Force_Field>
OPLS_2005

> <r_lp_Energy>
17.3848

> <b_lp_Chiralities_Consistent>
1

> <s_lp_Variant>
AV-unprocessed.smi:667-3

> <Gold.Version>
5.8.1

> <Gold.Id.Protein>
6NUR|6NUR_protein|mol2

> <Gold.PLP.Fitness>
50.5021

> <Gold.PLP.PLP>
-48.2418

> <Gold.PLP.part.hbond>
-1.9007

> <Gold.PLP.part.metal>
0.0000

> <Gold.PLP.part.buried>
-5.5292

> <Gold.PLP.part.nonpolar>
-41.2694

> <Gold.PLP.part.repulsive>
0.2415

> <Gold.PLP.ligand.clash>
0.0000

> <Gold.PLP.ligand.torsion>
1.8996

> <Gold.PLP.Chemscore.Hbond>
2.0000

> <Gold.PLP.Chemscore.CHOScore>
0.0000

> <Gold.PLP.Chemscore.Metal>
0.0000

> <Gold.Chemscore.Hbonds>
donor molecule, donor type, donor heavy atom, donor atom, acceptor molecule, acceptor atom, score
      P1  H  7997  8010       L1    11  0.91
      P1  H 10752 10765       L1     3  1.00

> <Gold.PLP.Chemscore.Internal.Correction>
0.0595

> <Gold.Rescore>
     Score         DG    S(hbond)    S(metal)    S(lipo)     H(rot)  DE(clash)    DE(int)     intcor
     19.94     -23.42       1.92        0.00     131.86       1.52       0.14       3.34       ----

> <Gold.Chemscore.Fitness>
19.9391

> <Gold.Chemscore.DG>
-23.4173

> <Gold.Chemscore.ZeroCoef>
-5.4800

> <Gold.Chemscore.Hbond>
1.9173

> <Gold.Chemscore.Metal>
0.0000

> <Gold.Chemscore.Lipo>
131.8637

> <Gold.Chemscore.Internal_Hbond>
0.0000

> <Gold.Chemscore.DEClash>
0.1370

> <Gold.Chemscore.DEInternal>
3.3412

> <Gold.Chemscore.Rot>
1.5213

> <Gold.Chemscore.Internal.Correction>
   9.000000E+99

> <Gold.Chemscore.Hbonds>
donor molecule, donor type, donor heavy atom, donor atom, acceptor molecule, acceptor atom, score
      P1  H  7997  8010       L1    11  0.86
      P1  H 10752 10765       L1     3  0.97

> <Gold.Chemscore.Hbond.Weighted>
-6.4038

> <Gold.Chemscore.Metal.Weighted>
-0.0000

> <Gold.Chemscore.Lipo.Weighted>
-15.4281

> <Gold.Chemscore.Internal_Hbond.Weighted>
0.0000

> <Gold.Chemscore.DEClash.Weighted>
0.1370

> <Gold.Chemscore.DEInternal.Weighted>
3.3412

> <Gold.Chemscore.Rot.Weighted>
3.8945

> <Gold.Chemscore.Internal.Correction.Weighted>
   9.000000E+99

> <Gold.Protein.RotatedTorsions>
[ 6907 6896 6895 6894 ] final  -55.42 input  -60.11 | X-H torsion
[ 7974 7965 7964 7962 ] final -132.29 input  175.53 | X-H torsion
[ 8008 7997 7996 7995 ] final   65.53 input   59.86 | X-H torsion
[ 10167 10162 10161 10158 ] final -155.60 input  -65.29 | X-H torsion
[ 10718 10713 10712 10709 ] final  124.83 input   66.30 | X-H torsion
[ 10763 10752 10751 10750 ] final  178.85 input  -60.55 | X-H torsion
[ 11005 11000 10999 10996 ] final  -45.28 input  -57.11 | X-H torsion

> <Gold.Protein.ActiveResidues>
 VAL166  LYS551  ARG553  GLY616  TRP617  ASP618  TYR619  PRO620  LYS621  CYS622 
 ASP623  PHE694  ASN695  SER759  ASP760  ASP761  ALA762  ILE779  LEU786  VAL792 
 PHE793  MET794  SER795  GLU796  ALA797  LYS798  CYS799  TRP800  GLU811  SER814 

> <Gold.Protein.RotatedAtoms>
  150.8253  134.7481  159.6807 H   0  0  0  0  0  0  0  0  0  0  0  0  # atno 6907 bound_to 6896
  152.4364  134.5674  159.9921 H   0  0  0  0  0  0  0  0  0  0  0  0  # atno 6908 bound_to 6896
  151.5848  133.3336  159.3051 H   0  0  0  0  0  0  0  0  0  0  0  0  # atno 6909 bound_to 6896
  144.9299  140.7116  143.4912 H   0  0  0  0  0  0  0  0  0  0  0  0  # atno 7974 bound_to 7965
  155.6633  140.3497  155.4790 H   0  0  0  0  0  0  0  0  0  0  0  0  # atno 8008 bound_to 7997
  155.9750  140.1163  157.0801 H   0  0  0  0  0  0  0  0  0  0  0  0  # atno 8009 bound_to 7997
  154.4176  140.1149  156.5345 H   0  0  0  0  0  0  0  0  0  0  0  0  # atno 8010 bound_to 7997
  139.6918  143.9408  152.2388 H   0  0  0  0  0  0  0  0  0  0  0  0  # atno 10167 bound_to 10162
  157.5553  131.1092  150.8632 H   0  0  0  0  0  0  0  0  0  0  0  0  # atno 10718 bound_to 10713
  154.5130  135.2789  155.1326 H   0  0  0  0  0  0  0  0  0  0  0  0  # atno 10763 bound_to 10752
  154.2914  135.6266  153.5390 H   0  0  0  0  0  0  0  0  0  0  0  0  # atno 10764 bound_to 10752
  152.9922  135.5675  154.5601 H   0  0  0  0  0  0  0  0  0  0  0  0  # atno 10765 bound_to 10752
  141.0505  133.6745  156.2991 H   0  0  0  0  0  0  0  0  0  0  0  0  # atno 11005 bound_to 11000
  145.3158  139.1804  143.4614 LP  0  0  0  0  0  0  0  0  0  0  0  0  # atno 17320 bound_to 7965
  146.3242  140.3169  142.8630 LP  0  0  0  0  0  0  0  0  0  0  0  0  # atno 17321 bound_to 7965
  139.9226  144.6790  150.8446 LP  0  0  0  0  0  0  0  0  0  0  0  0  # atno 17342 bound_to 10162
  140.7685  143.3364  151.2299 LP  0  0  0  0  0  0  0  0  0  0  0  0  # atno 17343 bound_to 10162
  156.9145  130.5292  149.5280 LP  0  0  0  0  0  0  0  0  0  0  0  0  # atno 17370 bound_to 10713
  156.0613  130.5665  150.9198 LP  0  0  0  0  0  0  0  0  0  0  0  0  # atno 17371 bound_to 10713
  140.6064  134.5503  157.5526 LP  0  0  0  0  0  0  0  0  0  0  0  0  # atno 17394 bound_to 11000
  139.9346  134.7898  156.0836 LP  0  0  0  0  0  0  0  0  0  0  0  0  # atno 17395 bound_to 11000

$$$$
