AV-unprocessed.smi:986|AV-procd|sdf|4320|dock7
  -GOLD-   22720 2223D 1   1.00000     0.00000
 Structure written by MMmdl.
 31 31  0  0  0  0  0  0  0  0  1 V2000
  144.8061  135.1887  150.5011 C   0  0  0  0  0  0  0  0  0  0  0  0
  146.0560  134.4681  151.0311 C   0  0  0  0  0  0  0  0  0  0  0  0
  145.7385  133.0275  151.4533 C   0  0  0  0  0  0  0  0  0  0  0  0
  146.6176  135.1872  152.1689 N   0  0  0  0  0  0  0  0  0  0  0  0
  145.9953  135.4323  153.3359 C   0  0  0  0  0  0  0  0  0  0  0  0
  144.8446  135.0635  153.5682 O   0  0  0  0  0  0  0  0  0  0  0  0
  146.7625  136.2115  154.4178 C   0  0  0  0  0  0  0  0  0  0  0  0
  147.7196  137.1847  153.8921 N   0  0  0  0  0  0  0  0  0  0  0  0
  148.2241  138.2255  154.5747 C   0  0  0  0  0  0  0  0  0  0  0  0
  147.8735  138.5238  155.7157 O   0  0  0  0  0  0  0  0  0  0  0  0
  149.3138  139.0341  153.8715 C   0  0  0  0  0  0  0  0  0  0  0  0
  150.6218  138.7051  154.4101 N   0  0  0  0  0  0  0  0  0  0  0  0
  151.2646  137.5375  154.4779 C   0  0  0  0  0  0  0  0  0  0  0  0
  152.4506  137.6120  155.0652 N   0  0  0  0  0  0  0  0  0  0  0  0
  152.4793  138.9475  155.3524 C   0  0  0  0  0  0  0  0  0  0  0  0
  151.4063  139.6476  154.9840 N   0  0  0  0  0  0  0  0  0  0  0  0
  144.3789  134.6561  149.6512 H   0  0  0  0  0  0  0  0  0  0  0  0
  145.0415  136.1998  150.1674 H   0  0  0  0  0  0  0  0  0  0  0  0
  144.0354  135.2625  151.2691 H   0  0  0  0  0  0  0  0  0  0  0  0
  146.8021  134.4284  150.2354 H   0  0  0  0  0  0  0  0  0  0  0  0
  145.3498  132.4497  150.6144 H   0  0  0  0  0  0  0  0  0  0  0  0
  144.9918  133.0028  152.2478 H   0  0  0  0  0  0  0  0  0  0  0  0
  146.6305  132.5177  151.8190 H   0  0  0  0  0  0  0  0  0  0  0  0
  147.5653  135.5202  152.0673 H   0  0  0  0  0  0  0  0  0  0  0  0
  146.0395  136.7476  155.0330 H   0  0  0  0  0  0  0  0  0  0  0  0
  147.2650  135.5035  155.0789 H   0  0  0  0  0  0  0  0  0  0  0  0
  148.0618  137.0212  152.9566 H   0  0  0  0  0  0  0  0  0  0  0  0
  149.3074  138.8237  152.8011 H   0  0  0  0  0  0  0  0  0  0  0  0
  149.1300  140.1027  153.9932 H   0  0  0  0  0  0  0  0  0  0  0  0
  150.8538  136.6138  154.0975 H   0  0  0  0  0  0  0  0  0  0  0  0
  153.3145  139.4172  155.8510 H   0  0  0  0  0  0  0  0  0  0  0  0
  1  2  1  0  0  0  0
  1 17  1  0  0  0  0
  1 18  1  0  0  0  0
  1 19  1  0  0  0  0
  2  3  1  0  0  0  0
  2  4  1  0  0  0  0
  2 20  1  0  0  0  0
  3 21  1  0  0  0  0
  3 22  1  0  0  0  0
  3 23  1  0  0  0  0
  4  5  1  0  0  0  0
  4 24  1  0  0  0  0
  5  6  2  0  0  0  0
  5  7  1  0  0  0  0
  7  8  1  0  0  0  0
  7 25  1  0  0  0  0
  7 26  1  0  0  0  0
  8  9  1  0  0  0  0
  8 27  1  0  0  0  0
  9 10  2  0  0  0  0
  9 11  1  0  0  0  0
 11 12  1  0  0  0  0
 11 28  1  0  0  0  0
 11 29  1  0  0  0  0
 12 16  1  0  0  0  0
 12 13  1  0  0  0  0
 13 14  2  0  0  0  0
 13 30  1  0  0  0  0
 14 15  1  0  0  0  0
 15 16  2  0  0  0  0
 15 31  1  0  0  0  0
M  END
> <s_m_source_file>
AV-unprocessed.smi

> <i_m_source_file_index>
986

> <i_lp_mmshare_version>
43012

> <i_f3d_flags>
0

> <s_epik_input>
W0NIM11bQ0hdKFtDSDNdKVtOSF1DKD1PKVtDSDJdW05IXUMoPU8pW0NIMl1uMVtjSF1uW2NIXW4x

> <s_epik_cmdline>
J2VwaWtfcHl0aG9uJywgJy1waCcsICc3LjAnLCAnLXRuJywgJzgnLCAnLW1hJywgJzIwMCcsICctbWV0YWxfYmluZGluZycsICctaW1hZScsICc8aW5maWxlLm1hZT4nLCAnLW9tYWUnLCAnPG91dGZpbGUubWFlPic=

> <r_lp_tautomer_probability>
1

> <r_epik_Ionization_Penalty>
7.25916e-06

> <r_epik_Ionization_Penalty_Charging>
0

> <r_epik_Ionization_Penalty_Neutral>
7.25916e-06

> <r_epik_State_Penalty>
-0

> <r_epik_Charging_Adjusted_Penalty>
0

> <i_epik_Tot_Q>
0

> <i_epik_Tot_abs_Q>
0

> <r_epik_Metal_State_Penalty>
-0

> <b_epik_Metal_Only>
0

> <s_lp_Force_Field>
OPLS_2005

> <r_lp_Energy>
0.116245

> <b_lp_Chiralities_Consistent>
1

> <s_lp_Variant>
AV-unprocessed.smi:986-1

> <Gold.Version>
5.8.1

> <Gold.Id.Protein>
6NUR|6NUR_protein|mol2

> <Gold.PLP.Fitness>
37.0019

> <Gold.PLP.PLP>
-25.8238

> <Gold.PLP.part.hbond>
-4.0000

> <Gold.PLP.part.metal>
0.0000

> <Gold.PLP.part.buried>
-3.9139

> <Gold.PLP.part.nonpolar>
-19.3335

> <Gold.PLP.part.repulsive>
0.2207

> <Gold.PLP.ligand.clash>
0.0000

> <Gold.PLP.ligand.torsion>
0.7176

> <Gold.PLP.Chemscore.Hbond>
3.1733

> <Gold.PLP.Chemscore.CHOScore>
1.0225

> <Gold.PLP.Chemscore.Metal>
0.0000

> <Gold.Chemscore.Hbonds>
donor molecule, donor type, donor heavy atom, donor atom, acceptor molecule, acceptor atom, score
      L1  H     4    24       P1  7948  1.00
      L1  H     8    27       P1  7948  1.00
      P1  H  7989  7998       L1    16  1.00
      P1  H 10752 10763       L1    14  0.33
      L1  C    13    30       P1  7948  0.02
      L1  C    13    30       P1  7949  0.42

> <Gold.PLP.Chemscore.Internal.Correction>
0.0260

> <Gold.Rescore>
     Score         DG    S(hbond)    S(metal)    S(lipo)     H(rot)  DE(clash)    DE(int)     intcor
      9.20     -11.08       3.18        0.00      23.51       3.03       0.03       1.85       ----

> <Gold.Chemscore.Fitness>
9.2006

> <Gold.Chemscore.DG>
-11.0763

> <Gold.Chemscore.ZeroCoef>
-5.4800

> <Gold.Chemscore.Hbond>
3.1765

> <Gold.Chemscore.Metal>
0.0000

> <Gold.Chemscore.Lipo>
23.5149

> <Gold.Chemscore.Internal_Hbond>
0.0000

> <Gold.Chemscore.DEClash>
0.0263

> <Gold.Chemscore.DEInternal>
1.8494

> <Gold.Chemscore.Rot>
3.0329

> <Gold.Chemscore.Internal.Correction>
   9.000000E+99

> <Gold.Chemscore.Hbonds>
donor molecule, donor type, donor heavy atom, donor atom, acceptor molecule, acceptor atom, score
      L1  H     4    24       P1  7948  0.94
      L1  H     8    27       P1  7948  0.97
      P1  H  7989  7998       L1    16  0.28
      P1  H 10752 10763       L1    14  0.03

> <Gold.Chemscore.Hbond.Weighted>
-10.6094

> <Gold.Chemscore.Metal.Weighted>
-0.0000

> <Gold.Chemscore.Lipo.Weighted>
-2.7512

> <Gold.Chemscore.Internal_Hbond.Weighted>
0.0000

> <Gold.Chemscore.DEClash.Weighted>
0.0263

> <Gold.Chemscore.DEInternal.Weighted>
1.8494

> <Gold.Chemscore.Rot.Weighted>
7.7643

> <Gold.Chemscore.Internal.Correction.Weighted>
   9.000000E+99

> <Gold.Protein.RotatedTorsions>
[ 6907 6896 6895 6894 ] final    2.45 input  -60.11 | X-H torsion
[ 7974 7965 7964 7962 ] final  -27.02 input  175.53 | X-H torsion
[ 8008 7997 7996 7995 ] final   83.82 input   59.86 | X-H torsion
[ 10167 10162 10161 10158 ] final  143.29 input  -65.29 | X-H torsion
[ 10718 10713 10712 10709 ] final   27.66 input   66.30 | X-H torsion
[ 10763 10752 10751 10750 ] final   61.50 input  -60.55 | X-H torsion
[ 11005 11000 10999 10996 ] final  -56.41 input  -57.11 | X-H torsion

> <Gold.Protein.ActiveResidues>
 VAL166  LYS551  ARG553  GLY616  TRP617  ASP618  TYR619  PRO620  LYS621  CYS622 
 ASP623  PHE694  ASN695  SER759  ASP760  ASP761  ALA762  ILE779  LEU786  VAL792 
 PHE793  MET794  SER795  GLU796  ALA797  LYS798  CYS799  TRP800  GLU811  SER814 

> <Gold.Protein.RotatedAtoms>
  151.6090  135.1041  160.0076 H   0  0  0  0  0  0  0  0  0  0  0  0  # atno 6907 bound_to 6896
  152.4218  133.7125  159.6497 H   0  0  0  0  0  0  0  0  0  0  0  0  # atno 6908 bound_to 6896
  150.8106  133.8356  159.3206 H   0  0  0  0  0  0  0  0  0  0  0  0  # atno 6909 bound_to 6896
  146.1386  140.5097  142.8662 H   0  0  0  0  0  0  0  0  0  0  0  0  # atno 7974 bound_to 7965
  155.9290  140.3416  155.6233 H   0  0  0  0  0  0  0  0  0  0  0  0  # atno 8008 bound_to 7997
  155.7181  140.0780  157.2361 H   0  0  0  0  0  0  0  0  0  0  0  0  # atno 8009 bound_to 7997
  154.4082  140.1610  156.2358 H   0  0  0  0  0  0  0  0  0  0  0  0  # atno 8010 bound_to 7997
  139.4973  144.6050  151.6398 H   0  0  0  0  0  0  0  0  0  0  0  0  # atno 10167 bound_to 10162
  157.2232  130.6988  149.6279 H   0  0  0  0  0  0  0  0  0  0  0  0  # atno 10718 bound_to 10713
  152.9952  135.5498  154.6043 H   0  0  0  0  0  0  0  0  0  0  0  0  # atno 10763 bound_to 10752
  154.5378  135.2818  155.1125 H   0  0  0  0  0  0  0  0  0  0  0  0  # atno 10764 bound_to 10752
  154.2415  135.6415  153.5261 H   0  0  0  0  0  0  0  0  0  0  0  0  # atno 10765 bound_to 10752
  141.1119  133.6610  156.4616 H   0  0  0  0  0  0  0  0  0  0  0  0  # atno 11005 bound_to 11000
  144.7767  140.5754  143.6633 LP  0  0  0  0  0  0  0  0  0  0  0  0  # atno 17320 bound_to 7965
  145.5099  139.1480  143.3610 LP  0  0  0  0  0  0  0  0  0  0  0  0  # atno 17321 bound_to 7965
  140.5709  144.0110  150.6216 LP  0  0  0  0  0  0  0  0  0  0  0  0  # atno 17342 bound_to 10162
  140.3227  143.3127  152.0767 LP  0  0  0  0  0  0  0  0  0  0  0  0  # atno 17343 bound_to 10162
  155.9680  130.4513  150.5730 LP  0  0  0  0  0  0  0  0  0  0  0  0  # atno 17370 bound_to 10713
  157.3555  131.0741  151.1679 LP  0  0  0  0  0  0  0  0  0  0  0  0  # atno 17371 bound_to 10713
  140.4752  134.6716  157.5147 LP  0  0  0  0  0  0  0  0  0  0  0  0  # atno 17394 bound_to 11000
  140.0018  134.6825  155.9519 LP  0  0  0  0  0  0  0  0  0  0  0  0  # atno 17395 bound_to 11000

$$$$
