AV-unprocessed.smi:2975|AV-procd|sdf|11357|dock3
  -GOLD-   2272016273D 1   1.00000     0.00000
 Structure written by MMmdl.
 40 42  0  0  0  0  0  0  0  0  2 V2000
  153.0186  138.4610  154.3066 C   0  0  0  0  0  0  0  0  0  0  0  0
  151.6901  137.8173  154.7236 C   0  0  2  0  0  0  0  0  0  0  0  0
  151.5366  136.5998  154.0238 O   0  0  0  0  0  0  0  0  0  0  0  0
  150.5457  138.7538  154.4872 C   0  0  0  0  0  0  0  0  0  0  0  0
  149.4692  138.5186  153.6832 N   0  3  0  0  0  0  0  0  0  0  0  0
  148.6109  139.6184  153.7061 C   0  0  0  0  0  0  0  0  0  0  0  0
  147.3991  139.8424  153.0601 C   0  0  0  0  0  0  0  0  0  0  0  0
  146.7719  141.0818  153.3042 C   0  0  0  0  0  0  0  0  0  0  0  0
  147.3491  142.0405  154.1624 C   0  0  0  0  0  0  0  0  0  0  0  0
  148.5789  141.8023  154.8110 C   0  0  0  0  0  0  0  0  0  0  0  0
  149.1942  140.5758  154.5610 C   0  0  0  0  0  0  0  0  0  0  0  0
  150.3908  140.0051  155.0085 N   0  0  0  0  0  0  0  0  0  0  0  0
  151.2552  140.7664  155.9194 C   0  0  0  0  0  0  0  0  0  0  0  0
  151.0337  140.3666  157.3827 C   0  0  0  0  0  0  0  0  0  0  0  0
  152.0640  140.9500  158.1659 O   0  0  0  0  0  0  0  0  0  0  0  0
  151.9765  142.2928  158.4667 C   0  0  0  0  0  0  0  0  0  0  0  0
  151.3513  143.2557  157.6335 C   0  0  0  0  0  0  0  0  0  0  0  0
  151.3053  144.6098  158.0185 C   0  0  0  0  0  0  0  0  0  0  0  0
  151.8807  145.0186  159.2358 C   0  0  0  0  0  0  0  0  0  0  0  0
  152.5036  144.0710  160.0684 C   0  0  0  0  0  0  0  0  0  0  0  0
  152.5512  142.7169  159.6840 C   0  0  0  0  0  0  0  0  0  0  0  0
  153.1533  141.8143  160.4950 F   0  0  0  0  0  0  0  0  0  0  0  0
  153.1995  139.3817  154.8624 H   0  0  0  0  0  0  0  0  0  0  0  0
  153.0259  138.7066  153.2439 H   0  0  0  0  0  0  0  0  0  0  0  0
  153.8570  137.7908  154.4995 H   0  0  0  0  0  0  0  0  0  0  0  0
  151.7298  137.5739  155.7857 H   0  0  0  0  0  0  0  0  0  0  0  0
  151.4746  136.7900  153.0999 H   0  0  0  0  0  0  0  0  0  0  0  0
  146.9542  139.1087  152.4037 H   0  0  0  0  0  0  0  0  0  0  0  0
  145.8289  141.3011  152.8244 H   0  0  0  0  0  0  0  0  0  0  0  0
  146.8384  142.9786  154.3260 H   0  0  0  0  0  0  0  0  0  0  0  0
  149.0111  142.5432  155.4672 H   0  0  0  0  0  0  0  0  0  0  0  0
  152.2894  140.5773  155.6303 H   0  0  0  0  0  0  0  0  0  0  0  0
  151.0857  141.8330  155.7701 H   0  0  0  0  0  0  0  0  0  0  0  0
  150.0566  140.7140  157.7219 H   0  0  0  0  0  0  0  0  0  0  0  0
  151.0622  139.2794  157.4735 H   0  0  0  0  0  0  0  0  0  0  0  0
  150.8995  142.9817  156.6924 H   0  0  0  0  0  0  0  0  0  0  0  0
  150.8269  145.3362  157.3780 H   0  0  0  0  0  0  0  0  0  0  0  0
  151.8442  146.0570  159.5303 H   0  0  0  0  0  0  0  0  0  0  0  0
  152.9455  144.3817  161.0038 H   0  0  0  0  0  0  0  0  0  0  0  0
  149.3367  137.6623  153.1605 H   0  0  0  0  0  0  0  0  0  0  0  0
  1  2  1  0  0  0  0
  1 23  1  0  0  0  0
  1 24  1  0  0  0  0
  1 25  1  0  0  0  0
  2  3  1  0  0  0  0
  2  4  1  0  0  0  0
  2 26  1  0  0  0  0
  3 27  1  0  0  0  0
  4 12  1  0  0  0  0
  4  5  2  0  0  0  0
  5  6  1  0  0  0  0
  5 40  1  0  0  0  0
  6 11  2  0  0  0  0
  6  7  1  0  0  0  0
  7  8  2  0  0  0  0
  7 28  1  0  0  0  0
  8  9  1  0  0  0  0
  8 29  1  0  0  0  0
  9 10  2  0  0  0  0
  9 30  1  0  0  0  0
 10 11  1  0  0  0  0
 10 31  1  0  0  0  0
 11 12  1  0  0  0  0
 12 13  1  0  0  0  0
 13 14  1  0  0  0  0
 13 32  1  0  0  0  0
 13 33  1  0  0  0  0
 14 15  1  0  0  0  0
 14 34  1  0  0  0  0
 14 35  1  0  0  0  0
 15 16  1  0  0  0  0
 16 21  1  0  0  0  0
 16 17  2  0  0  0  0
 17 18  1  0  0  0  0
 17 36  1  0  0  0  0
 18 19  2  0  0  0  0
 18 37  1  0  0  0  0
 19 20  1  0  0  0  0
 19 38  1  0  0  0  0
 20 21  2  0  0  0  0
 20 39  1  0  0  0  0
 21 22  1  0  0  0  0
M  CHG  1   5   1
M  END
> <s_m_source_file>
AV-unprocessed.smi

> <i_m_source_file_index>
2975

> <i_lp_mmshare_version>
43012

> <i_f3d_flags>
0

> <s_epik_input>
W2NIXTFbY0hdW2NIXVtjSF1jKGMxMiluKGMobjIpW0NASF0oW0NIM10pW09IXSlbQ0gyXVtDSDJdT2MzW2NIXVtjSF1bY0hdW2NIXWMzRg==

> <s_epik_cmdline>
J2VwaWtfcHl0aG9uJywgJy1waCcsICc3LjAnLCAnLXRuJywgJzgnLCAnLW1hJywgJzIwMCcsICctbWV0YWxfYmluZGluZycsICctaW1hZScsICc8aW5maWxlLm1hZT4nLCAnLW9tYWUnLCAnPG91dGZpbGUubWFlPic=

> <r_lp_tautomer_probability>
1

> <r_epik_Ionization_Penalty>
1.61121

> <r_epik_Ionization_Penalty_Charging>
1.61119

> <r_epik_Ionization_Penalty_Neutral>
2.92192e-05

> <r_epik_State_Penalty>
1.71016

> <r_epik_Charging_Adjusted_Penalty>
3.32134

> <i_epik_Tot_Q>
1

> <i_epik_Tot_abs_Q>
1

> <r_epik_Metal_State_Penalty>
5.76893

> <b_epik_Metal_Only>
0

> <s_lp_Force_Field>
OPLS_2005

> <r_lp_Energy>
21.0124

> <b_lp_Chiralities_Consistent>
1

> <s_lp_Variant>
AV-unprocessed.smi:2975-3

> <Gold.Version>
5.8.1

> <Gold.Id.Protein>
6NUR|6NUR_protein|mol2

> <Gold.PLP.Fitness>
67.4145

> <Gold.PLP.PLP>
-57.2599

> <Gold.PLP.part.hbond>
-4.0000

> <Gold.PLP.part.metal>
0.0000

> <Gold.PLP.part.buried>
0.0591

> <Gold.PLP.part.nonpolar>
-53.1276

> <Gold.PLP.part.repulsive>
0.0616

> <Gold.PLP.ligand.clash>
0.0000

> <Gold.PLP.ligand.torsion>
0.7957

> <Gold.PLP.Chemscore.Hbond>
3.8960

> <Gold.PLP.Chemscore.CHOScore>
0.0000

> <Gold.PLP.Chemscore.Metal>
0.0000

> <Gold.Chemscore.Hbonds>
donor molecule, donor type, donor heavy atom, donor atom, acceptor molecule, acceptor atom, score
      L1  H     3    27       P1  7949  0.83
      L1  H     5    40       P1  7948  2.00
      P1  H 10752 10765       L1     3  1.00

> <Gold.PLP.Chemscore.Internal.Correction>
0.0580

> <Gold.Rescore>
     Score         DG    S(hbond)    S(metal)    S(lipo)     H(rot)  DE(clash)    DE(int)     intcor
     22.70     -23.76       2.50        0.00     134.84       2.28       0.39       0.67       ----

> <Gold.Chemscore.Fitness>
22.7031

> <Gold.Chemscore.DG>
-23.7600

> <Gold.Chemscore.ZeroCoef>
-5.4800

> <Gold.Chemscore.Hbond>
2.4950

> <Gold.Chemscore.Metal>
0.0000

> <Gold.Chemscore.Lipo>
134.8445

> <Gold.Chemscore.Internal_Hbond>
0.0000

> <Gold.Chemscore.DEClash>
0.3880

> <Gold.Chemscore.DEInternal>
0.6690

> <Gold.Chemscore.Rot>
2.2774

> <Gold.Chemscore.Internal.Correction>
   9.000000E+99

> <Gold.Chemscore.Hbonds>
donor molecule, donor type, donor heavy atom, donor atom, acceptor molecule, acceptor atom, score
      L1  H     3    27       P1  7949  0.73
      L1  H     5    40       P1  7948  0.96
      P1  H 10752 10765       L1     3  0.35

> <Gold.Chemscore.Hbond.Weighted>
-8.3334

> <Gold.Chemscore.Metal.Weighted>
-0.0000

> <Gold.Chemscore.Lipo.Weighted>
-15.7768

> <Gold.Chemscore.Internal_Hbond.Weighted>
0.0000

> <Gold.Chemscore.DEClash.Weighted>
0.3880

> <Gold.Chemscore.DEInternal.Weighted>
0.6690

> <Gold.Chemscore.Rot.Weighted>
5.8302

> <Gold.Chemscore.Internal.Correction.Weighted>
   9.000000E+99

> <Gold.Protein.RotatedTorsions>
[ 6907 6896 6895 6894 ] final -177.36 input  -60.11 | X-H torsion
[ 7974 7965 7964 7962 ] final  -64.41 input  175.53 | X-H torsion
[ 8008 7997 7996 7995 ] final  -12.86 input   59.86 | X-H torsion
[ 10167 10162 10161 10158 ] final  173.90 input  -65.29 | X-H torsion
[ 10718 10713 10712 10709 ] final   60.56 input   66.30 | X-H torsion
[ 10763 10752 10751 10750 ] final  157.16 input  -60.55 | X-H torsion
[ 11005 11000 10999 10996 ] final   36.65 input  -57.11 | X-H torsion

> <Gold.Protein.ActiveResidues>
 VAL166  LYS551  ARG553  GLY616  TRP617  ASP618  TYR619  PRO620  LYS621  CYS622 
 ASP623  PHE694  ASN695  SER759  ASP760  ASP761  ALA762  ILE779  LEU786  VAL792 
 PHE793  MET794  SER795  GLU796  ALA797  LYS798  CYS799  TRP800  GLU811  SER814 

> <Gold.Protein.RotatedAtoms>
  151.6198  133.3340  159.3085 H   0  0  0  0  0  0  0  0  0  0  0  0  # atno 6907 bound_to 6896
  150.8112  134.7271  159.6701 H   0  0  0  0  0  0  0  0  0  0  0  0  # atno 6908 bound_to 6896
  152.4208  134.5963  160.0039 H   0  0  0  0  0  0  0  0  0  0  0  0  # atno 6909 bound_to 6896
  145.7671  140.8832  143.0399 H   0  0  0  0  0  0  0  0  0  0  0  0  # atno 7974 bound_to 7965
  154.5341  140.2265  155.8753 H   0  0  0  0  0  0  0  0  0  0  0  0  # atno 8008 bound_to 7997
  156.1793  140.3104  155.9082 H   0  0  0  0  0  0  0  0  0  0  0  0  # atno 8009 bound_to 7997
  155.3391  140.0449  157.3035 H   0  0  0  0  0  0  0  0  0  0  0  0  # atno 8010 bound_to 7997
  139.5124  144.3208  152.0205 H   0  0  0  0  0  0  0  0  0  0  0  0  # atno 10167 bound_to 10162
  157.5762  130.8945  149.9351 H   0  0  0  0  0  0  0  0  0  0  0  0  # atno 10718 bound_to 10713
  154.1958  135.2792  155.3007 H   0  0  0  0  0  0  0  0  0  0  0  0  # atno 10763 bound_to 10752
  154.5893  135.5565  153.7266 H   0  0  0  0  0  0  0  0  0  0  0  0  # atno 10764 bound_to 10752
  153.0100  135.6364  154.2096 H   0  0  0  0  0  0  0  0  0  0  0  0  # atno 10765 bound_to 10752
  140.2304  134.3534  155.7966 H   0  0  0  0  0  0  0  0  0  0  0  0  # atno 11005 bound_to 11000
  144.6819  139.9804  143.7483 LP  0  0  0  0  0  0  0  0  0  0  0  0  # atno 17320 bound_to 7965
  146.0207  139.3248  143.0815 LP  0  0  0  0  0  0  0  0  0  0  0  0  # atno 17321 bound_to 7965
  140.2649  144.4027  150.6172 LP  0  0  0  0  0  0  0  0  0  0  0  0  # atno 17342 bound_to 10162
  140.6130  143.2170  151.6848 LP  0  0  0  0  0  0  0  0  0  0  0  0  # atno 17343 bound_to 10162
  156.0806  130.3673  150.0587 LP  0  0  0  0  0  0  0  0  0  0  0  0  # atno 17370 bound_to 10713
  156.8733  130.9532  151.3607 LP  0  0  0  0  0  0  0  0  0  0  0  0  # atno 17371 bound_to 10713
  141.2218  133.7242  156.8723 LP  0  0  0  0  0  0  0  0  0  0  0  0  # atno 17394 bound_to 11000
  140.1756  134.9069  157.2886 LP  0  0  0  0  0  0  0  0  0  0  0  0  # atno 17395 bound_to 11000

$$$$
