AV-unprocessed.smi:841|AV-procd|sdf|3916|dock4
  -GOLD-   22720 1383D 1   1.00000     0.00000
 Structure written by MMmdl.
 30 31  0  0  0  0  0  0  0  0  1 V2000
  149.1438  140.5800  157.9647 O   0  0  0  0  0  0  0  0  0  0  0  0
  149.2466  141.7338  157.5481 C   0  0  0  0  0  0  0  0  0  0  0  0
  149.1507  142.9130  158.5197 C   0  0  0  0  0  0  0  0  0  0  0  0
  150.4662  143.3989  158.9000 N   0  0  0  0  0  0  0  0  0  0  0  0
  151.4067  144.0352  158.1157 C   0  0  0  0  0  0  0  0  0  0  0  0
  152.4904  144.2915  158.9059 C   0  0  0  0  0  0  0  0  0  0  0  0
  152.1167  143.7632  160.1730 C   0  0  0  0  0  0  0  0  0  0  0  0
  150.9070  143.2268  160.1655 N   0  0  0  0  0  0  0  0  0  0  0  0
  149.4470  142.0391  156.2563 N   0  0  0  0  0  0  0  0  0  0  0  0
  149.5717  141.0768  155.1659 C   0  0  0  0  0  0  0  0  0  0  0  0
  150.4987  139.9042  155.5378 C   0  0  1  0  0  0  0  0  0  0  0  0
  150.8911  138.9989  154.3856 C   0  0  0  0  0  0  0  0  0  0  0  0
  152.1306  138.3002  154.9363 C   0  0  0  0  0  0  0  0  0  0  0  0
  152.7346  139.2255  155.8360 O   0  0  0  0  0  0  0  0  0  0  0  0
  151.8739  140.3418  156.0404 C   0  0  0  0  0  0  0  0  0  0  0  0
  148.5823  143.7184  158.0517 H   0  0  0  0  0  0  0  0  0  0  0  0
  148.6145  142.6266  159.4256 H   0  0  0  0  0  0  0  0  0  0  0  0
  151.2269  144.2511  157.0728 H   0  0  0  0  0  0  0  0  0  0  0  0
  153.4105  144.7802  158.6219 H   0  0  0  0  0  0  0  0  0  0  0  0
  152.6856  143.7510  161.0910 H   0  0  0  0  0  0  0  0  0  0  0  0
  149.5215  143.0153  156.0090 H   0  0  0  0  0  0  0  0  0  0  0  0
  148.5918  140.7100  154.8557 H   0  0  0  0  0  0  0  0  0  0  0  0
  149.9834  141.6054  154.3058 H   0  0  0  0  0  0  0  0  0  0  0  0
  150.0249  139.2984  156.3124 H   0  0  0  0  0  0  0  0  0  0  0  0
  150.1051  138.2997  154.0988 H   0  0  0  0  0  0  0  0  0  0  0  0
  151.1563  139.5923  153.5095 H   0  0  0  0  0  0  0  0  0  0  0  0
  151.8478  137.4076  155.4957 H   0  0  0  0  0  0  0  0  0  0  0  0
  152.8219  138.0007  154.1485 H   0  0  0  0  0  0  0  0  0  0  0  0
  152.2528  141.1793  155.4531 H   0  0  0  0  0  0  0  0  0  0  0  0
  151.8587  140.6438  157.0878 H   0  0  0  0  0  0  0  0  0  0  0  0
  1  2  2  0  0  0  0
  2  3  1  0  0  0  0
  2  9  1  0  0  0  0
  3  4  1  0  0  0  0
  3 16  1  0  0  0  0
  3 17  1  0  0  0  0
  4  8  1  0  0  0  0
  4  5  1  0  0  0  0
  5  6  2  0  0  0  0
  5 18  1  0  0  0  0
  6  7  1  0  0  0  0
  6 19  1  0  0  0  0
  7  8  2  0  0  0  0
  7 20  1  0  0  0  0
  9 10  1  0  0  0  0
  9 21  1  0  0  0  0
 10 11  1  0  0  0  0
 10 22  1  0  0  0  0
 10 23  1  0  0  0  0
 11 15  1  0  0  0  0
 11 12  1  0  0  0  0
 11 24  1  0  0  0  0
 12 13  1  0  0  0  0
 12 25  1  0  0  0  0
 12 26  1  0  0  0  0
 13 14  1  0  0  0  0
 13 27  1  0  0  0  0
 13 28  1  0  0  0  0
 14 15  1  0  0  0  0
 15 29  1  0  0  0  0
 15 30  1  0  0  0  0
M  END
> <s_m_source_file>
AV-unprocessed.smi

> <i_m_source_file_index>
841

> <i_lp_mmshare_version>
43012

> <i_f3d_flags>
0

> <s_epik_input>
bjFbY0hdW2NIXVtjSF1uMVtDSDJdQyg9TylbTkhdW0NIMl1bQ0BASF0yW0NIMl1bQ0gyXU9bQ0gyXTI=

> <s_epik_cmdline>
J2VwaWtfcHl0aG9uJywgJy1waCcsICc3LjAnLCAnLXRuJywgJzgnLCAnLW1hJywgJzIwMCcsICctbWV0YWxfYmluZGluZycsICctaW1hZScsICc8aW5maWxlLm1hZT4nLCAnLW9tYWUnLCAnPG91dGZpbGUubWFlPic=

> <r_lp_tautomer_probability>
1

> <r_epik_Ionization_Penalty>
1.49823e-05

> <r_epik_Ionization_Penalty_Charging>
0

> <r_epik_Ionization_Penalty_Neutral>
1.49823e-05

> <r_epik_State_Penalty>
-0

> <r_epik_Charging_Adjusted_Penalty>
0

> <i_epik_Tot_Q>
0

> <i_epik_Tot_abs_Q>
0

> <r_epik_Metal_State_Penalty>
-0

> <b_epik_Metal_Only>
0

> <s_lp_Force_Field>
OPLS_2005

> <r_lp_Energy>
18.8738

> <b_lp_Chiralities_Consistent>
1

> <s_lp_Variant>
AV-unprocessed.smi:841-2

> <Gold.Version>
5.8.1

> <Gold.Id.Protein>
6NUR|6NUR_protein|mol2

> <Gold.PLP.Fitness>
41.8346

> <Gold.PLP.PLP>
-33.8361

> <Gold.PLP.part.hbond>
-2.2731

> <Gold.PLP.part.metal>
0.0000

> <Gold.PLP.part.buried>
-3.5600

> <Gold.PLP.part.nonpolar>
-27.9995

> <Gold.PLP.part.repulsive>
0.1425

> <Gold.PLP.ligand.clash>
0.0000

> <Gold.PLP.ligand.torsion>
0.5057

> <Gold.PLP.Chemscore.Hbond>
2.0000

> <Gold.PLP.Chemscore.CHOScore>
1.0000

> <Gold.PLP.Chemscore.Metal>
0.0000

> <Gold.Chemscore.Hbonds>
donor molecule, donor type, donor heavy atom, donor atom, acceptor molecule, acceptor atom, score
      L1  H     9    21       P1  8028  1.00
      P1  H  7997  8009       L1    14  0.80
      L1  C     5    18       P1  8028  0.47

> <Gold.PLP.Chemscore.Internal.Correction>
0.0100

> <Gold.Rescore>
     Score         DG    S(hbond)    S(metal)    S(lipo)     H(rot)  DE(clash)    DE(int)     intcor
     15.04     -16.95       1.93        0.00      79.74       1.68       0.04       1.87       ----

> <Gold.Chemscore.Fitness>
15.0422

> <Gold.Chemscore.DG>
-16.9503

> <Gold.Chemscore.ZeroCoef>
-5.4800

> <Gold.Chemscore.Hbond>
1.9264

> <Gold.Chemscore.Metal>
0.0000

> <Gold.Chemscore.Lipo>
79.7381

> <Gold.Chemscore.Internal_Hbond>
0.0000

> <Gold.Chemscore.DEClash>
0.0427

> <Gold.Chemscore.DEInternal>
1.8654

> <Gold.Chemscore.Rot>
1.6771

> <Gold.Chemscore.Internal.Correction>
   9.000000E+99

> <Gold.Chemscore.Hbonds>
donor molecule, donor type, donor heavy atom, donor atom, acceptor molecule, acceptor atom, score
      L1  H     9    21       P1  8028  0.98
      P1  H  7997  8009       L1    14  0.12

> <Gold.Chemscore.Hbond.Weighted>
-6.4343

> <Gold.Chemscore.Metal.Weighted>
-0.0000

> <Gold.Chemscore.Lipo.Weighted>
-9.3294

> <Gold.Chemscore.Internal_Hbond.Weighted>
0.0000

> <Gold.Chemscore.DEClash.Weighted>
0.0427

> <Gold.Chemscore.DEInternal.Weighted>
1.8654

> <Gold.Chemscore.Rot.Weighted>
4.2934

> <Gold.Chemscore.Internal.Correction.Weighted>
   9.000000E+99

> <Gold.Protein.RotatedTorsions>
[ 6907 6896 6895 6894 ] final   84.04 input  -60.11 | X-H torsion
[ 7974 7965 7964 7962 ] final   61.78 input  175.53 | X-H torsion
[ 8008 7997 7996 7995 ] final -161.78 input   59.86 | X-H torsion
[ 10167 10162 10161 10158 ] final  -58.27 input  -65.29 | X-H torsion
[ 10718 10713 10712 10709 ] final -158.16 input   66.30 | X-H torsion
[ 10763 10752 10751 10750 ] final -109.20 input  -60.55 | X-H torsion
[ 11005 11000 10999 10996 ] final -149.01 input  -57.11 | X-H torsion

> <Gold.Protein.ActiveResidues>
 VAL166  LYS551  ARG553  GLY616  TRP617  ASP618  TYR619  PRO620  LYS621  CYS622 
 ASP623  PHE694  ASN695  SER759  ASP760  ASP761  ALA762  ILE779  LEU786  VAL792 
 PHE793  MET794  SER795  GLU796  ALA797  LYS798  CYS799  TRP800  GLU811  SER814 

> <Gold.Protein.RotatedAtoms>
  152.5342  134.2802  159.9004 H   0  0  0  0  0  0  0  0  0  0  0  0  # atno 6907 bound_to 6896
  151.2756  133.4227  159.2631 H   0  0  0  0  0  0  0  0  0  0  0  0  # atno 6908 bound_to 6896
  151.0329  134.9567  159.8177 H   0  0  0  0  0  0  0  0  0  0  0  0  # atno 6909 bound_to 6896
  145.8809  139.3442  143.0707 H   0  0  0  0  0  0  0  0  0  0  0  0  # atno 7974 bound_to 7965
  155.7972  140.0886  157.1977 H   0  0  0  0  0  0  0  0  0  0  0  0  # atno 8008 bound_to 7997
  154.3983  140.1479  156.3291 H   0  0  0  0  0  0  0  0  0  0  0  0  # atno 8009 bound_to 7997
  155.8499  140.3435  155.5689 H   0  0  0  0  0  0  0  0  0  0  0  0  # atno 8010 bound_to 7997
  140.6207  143.2418  151.5487 H   0  0  0  0  0  0  0  0  0  0  0  0  # atno 10167 bound_to 10162
  156.5503  130.8602  151.2777 H   0  0  0  0  0  0  0  0  0  0  0  0  # atno 10718 bound_to 10713
  154.8179  135.4610  154.0696 H   0  0  0  0  0  0  0  0  0  0  0  0  # atno 10763 bound_to 10752
  153.2073  135.6877  153.8163 H   0  0  0  0  0  0  0  0  0  0  0  0  # atno 10764 bound_to 10752
  153.7627  135.3282  155.3316 H   0  0  0  0  0  0  0  0  0  0  0  0  # atno 10765 bound_to 10752
  140.7552  134.3361  157.5116 H   0  0  0  0  0  0  0  0  0  0  0  0  # atno 11005 bound_to 11000
  145.9025  140.9233  143.0495 LP  0  0  0  0  0  0  0  0  0  0  0  0  # atno 17320 bound_to 7965
  144.6727  140.1051  143.7458 LP  0  0  0  0  0  0  0  0  0  0  0  0  # atno 17321 bound_to 7965
  139.5436  144.2580  152.1400 LP  0  0  0  0  0  0  0  0  0  0  0  0  # atno 17342 bound_to 10162
  140.1800  144.4854  150.6533 LP  0  0  0  0  0  0  0  0  0  0  0  0  # atno 17343 bound_to 10162
  157.7389  130.9821  150.2279 LP  0  0  0  0  0  0  0  0  0  0  0  0  # atno 17370 bound_to 10713
  156.2891  130.3743  149.7859 LP  0  0  0  0  0  0  0  0  0  0  0  0  # atno 17371 bound_to 10713
  139.8780  134.9167  156.3162 LP  0  0  0  0  0  0  0  0  0  0  0  0  # atno 17394 bound_to 11000
  140.9714  133.7325  156.0540 LP  0  0  0  0  0  0  0  0  0  0  0  0  # atno 17395 bound_to 11000

$$$$
