AV-unprocessed.smi:2671|AV-procd|sdf|10348|dock9
  -GOLD-   2272014373D 1   1.00000     0.00000
 Structure written by MMmdl.
 29 30  0  0  0  0  0  0  0  0  1 V2000
  151.7738  137.0255  159.6713 O   0  0  0  0  0  0  0  0  0  0  0  0
  152.8388  137.5930  159.4398 C   0  0  0  0  0  0  0  0  0  0  0  0
  153.9523  136.9826  158.7147 C   0  0  0  0  0  0  0  0  0  0  0  0
  155.0950  137.6781  158.4967 C   0  0  0  0  0  0  0  0  0  0  0  0
  156.2650  137.0584  157.7495 C   0  0  0  0  0  0  0  0  0  0  0  0
  157.3322  137.8538  157.8210 F   0  0  0  0  0  0  0  0  0  0  0  0
  156.5862  135.8838  158.2914 F   0  0  0  0  0  0  0  0  0  0  0  0
  155.9770  136.8602  156.4621 F   0  0  0  0  0  0  0  0  0  0  0  0
  155.2321  138.9930  158.9666 N   0  0  0  0  0  0  0  0  0  0  0  0
  154.2592  139.5552  159.6137 C   0  0  0  0  0  0  0  0  0  0  0  0
  154.1666  141.2236  160.3237 S   0  0  0  0  0  0  0  0  0  0  0  0
  152.8931  141.9849  159.2766 C   0  0  0  0  0  0  0  0  0  0  0  0
  152.7554  143.4901  159.5430 C   0  0  2  0  0  0  0  0  0  0  0  0
  152.0001  143.8425  160.8250 C   0  0  0  0  0  0  0  0  0  0  0  0
  151.4905  145.2285  160.5049 C   0  0  0  0  0  0  0  0  0  0  0  0
  151.1251  145.0905  159.0304 C   0  0  0  0  0  0  0  0  0  0  0  0
  152.0091  144.1074  158.4968 O   0  0  0  0  0  0  0  0  0  0  0  0
  153.0673  138.8615  159.8505 N   0  0  0  0  0  0  0  0  0  0  0  0
  152.3301  139.3291  160.3576 H   0  0  0  0  0  0  0  0  0  0  0  0
  153.8594  135.9693  158.3518 H   0  0  0  0  0  0  0  0  0  0  0  0
  151.9397  141.4821  159.4427 H   0  0  0  0  0  0  0  0  0  0  0  0
  153.1624  141.8216  158.2325 H   0  0  0  0  0  0  0  0  0  0  0  0
  153.7403  143.9595  159.5613 H   0  0  0  0  0  0  0  0  0  0  0  0
  151.1605  143.1629  160.9790 H   0  0  0  0  0  0  0  0  0  0  0  0
  152.6312  143.8146  161.7139 H   0  0  0  0  0  0  0  0  0  0  0  0
  150.6487  145.5332  161.1273 H   0  0  0  0  0  0  0  0  0  0  0  0
  152.2911  145.9590  160.6283 H   0  0  0  0  0  0  0  0  0  0  0  0
  150.1018  144.7282  158.9239 H   0  0  0  0  0  0  0  0  0  0  0  0
  151.2070  146.0351  158.4923 H   0  0  0  0  0  0  0  0  0  0  0  0
  1  2  2  0  0  0  0
  2 18  1  0  0  0  0
  2  3  1  0  0  0  0
  3 20  1  0  0  0  0
  3  4  2  0  0  0  0
  4  5  1  0  0  0  0
  4  9  1  0  0  0  0
  5  6  1  0  0  0  0
  5  7  1  0  0  0  0
  5  8  1  0  0  0  0
  9 10  2  0  0  0  0
 10 11  1  0  0  0  0
 10 18  1  0  0  0  0
 11 12  1  0  0  0  0
 12 13  1  0  0  0  0
 12 21  1  0  0  0  0
 12 22  1  0  0  0  0
 13 17  1  0  0  0  0
 13 14  1  0  0  0  0
 13 23  1  0  0  0  0
 14 15  1  0  0  0  0
 14 24  1  0  0  0  0
 14 25  1  0  0  0  0
 15 16  1  0  0  0  0
 15 26  1  0  0  0  0
 15 27  1  0  0  0  0
 16 17  1  0  0  0  0
 16 28  1  0  0  0  0
 16 29  1  0  0  0  0
 18 19  1  0  0  0  0
M  END
> <s_m_source_file>
AV-unprocessed.smi

> <i_m_source_file_index>
2671

> <i_lp_mmshare_version>
43012

> <i_f3d_flags>
0

> <s_epik_input>
W09IXWMxW2NIXWMoQyhGKShGKUYpbmMobjEpU1tDSDJdW0NAQEhdMltDSDJdW0NIMl1bQ0gyXU8y

> <s_epik_cmdline>
J2VwaWtfcHl0aG9uJywgJy1waCcsICc3LjAnLCAnLXRuJywgJzgnLCAnLW1hJywgJzIwMCcsICctbWV0YWxfYmluZGluZycsICctaW1hZScsICc8aW5maWxlLm1hZT4nLCAnLW9tYWUnLCAnPG91dGZpbGUubWFlPic=

> <r_lp_tautomer_probability>
0.660323

> <r_epik_Ionization_Penalty>
0.14469

> <r_epik_Ionization_Penalty_Charging>
0.14469

> <r_epik_Ionization_Penalty_Neutral>
3.1007e-10

> <r_epik_State_Penalty>
0.804349

> <r_epik_Charging_Adjusted_Penalty>
0.949039

> <i_epik_Tot_Q>
0

> <i_epik_Tot_abs_Q>
0

> <r_epik_Metal_State_Penalty>
1.52783

> <b_epik_Metal_Only>
0

> <s_lp_Force_Field>
OPLS_2005

> <r_lp_Energy>
21.2239

> <b_lp_Chiralities_Consistent>
1

> <s_lp_Variant>
AV-unprocessed.smi:2671-3

> <Gold.Version>
5.8.1

> <Gold.Id.Protein>
6NUR|6NUR_protein|mol2

> <Gold.PLP.Fitness>
36.2218

> <Gold.PLP.PLP>
-30.9765

> <Gold.PLP.part.hbond>
-2.0000

> <Gold.PLP.part.metal>
0.0000

> <Gold.PLP.part.buried>
-4.3286

> <Gold.PLP.part.nonpolar>
-25.3283

> <Gold.PLP.part.repulsive>
0.1124

> <Gold.PLP.ligand.clash>
0.0000

> <Gold.PLP.ligand.torsion>
0.3672

> <Gold.PLP.Chemscore.Hbond>
1.9913

> <Gold.PLP.Chemscore.CHOScore>
0.0000

> <Gold.PLP.Chemscore.Metal>
0.0000

> <Gold.Chemscore.Hbonds>
donor molecule, donor type, donor heavy atom, donor atom, acceptor molecule, acceptor atom, score
      P1  H  6896  6909       L1     1  1.00
      P1  H  7997  8010       L1     9  1.00

> <Gold.PLP.Chemscore.Internal.Correction>
0.0059

> <Gold.Rescore>
     Score         DG    S(hbond)    S(metal)    S(lipo)     H(rot)  DE(clash)    DE(int)     intcor
     14.63     -15.06       1.42        0.00      78.39       1.69       0.04       0.39       ----

> <Gold.Chemscore.Fitness>
14.6273

> <Gold.Chemscore.DG>
-15.0618

> <Gold.Chemscore.ZeroCoef>
-5.4800

> <Gold.Chemscore.Hbond>
1.4201

> <Gold.Chemscore.Metal>
0.0000

> <Gold.Chemscore.Lipo>
78.3863

> <Gold.Chemscore.Internal_Hbond>
0.0000

> <Gold.Chemscore.DEClash>
0.0445

> <Gold.Chemscore.DEInternal>
0.3901

> <Gold.Chemscore.Rot>
1.6924

> <Gold.Chemscore.Internal.Correction>
   9.000000E+99

> <Gold.Chemscore.Hbonds>
donor molecule, donor type, donor heavy atom, donor atom, acceptor molecule, acceptor atom, score
      P1  H  6896  6909       L1     1  1.00
      P1  H  7997  8010       L1     9  0.25

> <Gold.Chemscore.Hbond.Weighted>
-4.7431

> <Gold.Chemscore.Metal.Weighted>
-0.0000

> <Gold.Chemscore.Lipo.Weighted>
-9.1712

> <Gold.Chemscore.Internal_Hbond.Weighted>
0.0000

> <Gold.Chemscore.DEClash.Weighted>
0.0445

> <Gold.Chemscore.DEInternal.Weighted>
0.3901

> <Gold.Chemscore.Rot.Weighted>
4.3324

> <Gold.Chemscore.Internal.Correction.Weighted>
   9.000000E+99

> <Gold.Protein.RotatedTorsions>
[ 6907 6896 6895 6894 ] final  112.71 input  -60.11 | X-H torsion
[ 7974 7965 7964 7962 ] final   16.14 input  175.53 | X-H torsion
[ 8008 7997 7996 7995 ] final  -27.14 input   59.86 | X-H torsion
[ 10167 10162 10161 10158 ] final -163.25 input  -65.29 | X-H torsion
[ 10718 10713 10712 10709 ] final   61.54 input   66.30 | X-H torsion
[ 10763 10752 10751 10750 ] final  -18.62 input  -60.55 | X-H torsion
[ 11005 11000 10999 10996 ] final  -53.48 input  -57.11 | X-H torsion

> <Gold.Protein.ActiveResidues>
 VAL166  LYS551  ARG553  GLY616  TRP617  ASP618  TYR619  PRO620  LYS621  CYS622 
 ASP623  PHE694  ASN695  SER759  ASP760  ASP761  ALA762  ILE779  LEU786  VAL792 
 PHE793  MET794  SER795  GLU796  ALA797  LYS798  CYS799  TRP800  GLU811  SER814 

> <Gold.Protein.RotatedAtoms>
  152.4901  133.8477  159.7185 H   0  0  0  0  0  0  0  0  0  0  0  0  # atno 6907 bound_to 6896
  150.9023  133.7094  159.2882 H   0  0  0  0  0  0  0  0  0  0  0  0  # atno 6908 bound_to 6896
  151.4531  135.1035  159.9755 H   0  0  0  0  0  0  0  0  0  0  0  0  # atno 6909 bound_to 6896
  146.2258  139.8791  142.8574 H   0  0  0  0  0  0  0  0  0  0  0  0  # atno 7974 bound_to 7965
  154.4391  140.1880  156.0886 H   0  0  0  0  0  0  0  0  0  0  0  0  # atno 8008 bound_to 7997
  156.0383  140.3322  155.7189 H   0  0  0  0  0  0  0  0  0  0  0  0  # atno 8009 bound_to 7997
  155.5737  140.0615  157.2791 H   0  0  0  0  0  0  0  0  0  0  0  0  # atno 8010 bound_to 7997
  139.6334  144.0396  152.2034 H   0  0  0  0  0  0  0  0  0  0  0  0  # atno 10167 bound_to 10162
  157.5835  130.9000  149.9474 H   0  0  0  0  0  0  0  0  0  0  0  0  # atno 10718 bound_to 10713
  153.5921  135.7002  153.5419 H   0  0  0  0  0  0  0  0  0  0  0  0  # atno 10763 bound_to 10752
  153.3169  135.4085  155.1383 H   0  0  0  0  0  0  0  0  0  0  0  0  # atno 10764 bound_to 10752
  154.8598  135.3686  154.5454 H   0  0  0  0  0  0  0  0  0  0  0  0  # atno 10765 bound_to 10752
  141.0978  133.6622  156.4178 H   0  0  0  0  0  0  0  0  0  0  0  0  # atno 11005 bound_to 11000
  145.2531  141.0051  143.3870 LP  0  0  0  0  0  0  0  0  0  0  0  0  # atno 17320 bound_to 7965
  144.9359  139.4245  143.6473 LP  0  0  0  0  0  0  0  0  0  0  0  0  # atno 17321 bound_to 7965
  140.0067  144.6254  150.7682 LP  0  0  0  0  0  0  0  0  0  0  0  0  # atno 17342 bound_to 10162
  140.7452  143.2872  151.3431 LP  0  0  0  0  0  0  0  0  0  0  0  0  # atno 17343 bound_to 10162
  156.0883  130.3666  150.0445 LP  0  0  0  0  0  0  0  0  0  0  0  0  # atno 17370 bound_to 10713
  156.8580  130.9482  151.3620 LP  0  0  0  0  0  0  0  0  0  0  0  0  # atno 17371 bound_to 10713
  140.5098  134.6406  157.5280 LP  0  0  0  0  0  0  0  0  0  0  0  0  # atno 17394 bound_to 11000
  139.9819  134.7123  155.9843 LP  0  0  0  0  0  0  0  0  0  0  0  0  # atno 17395 bound_to 11000

$$$$
