AV-unprocessed.smi:284|AV-procd|sdf|2159|dock2
  -GOLD-   2262021513D 1   1.00000     0.00000
 Structure written by MMmdl.
 60 62  0  0  0  0  0  0  0  0  1 V2000
  150.4971  133.4478  157.7583 C   0  0  0  0  0  0  0  0  0  0  0  0
  149.7149  134.4948  156.9803 C   0  0  0  0  0  0  0  0  0  0  0  0
  148.3653  134.5705  157.0325 C   0  0  0  0  0  0  0  0  0  0  0  0
  147.6220  135.5010  156.3320 N   0  0  0  0  0  0  0  0  0  0  0  0
  146.1157  135.5136  156.4825 C   0  0  2  0  0  0  0  0  0  0  0  0
  145.5989  134.5588  157.5684 C   0  0  0  0  0  0  0  0  0  0  0  0
  144.2463  134.1759  157.0025 C   0  0  2  0  0  0  0  0  0  0  0  0
  143.8341  132.9143  157.4871 O   0  0  0  0  0  0  0  0  0  0  0  0
  144.5306  134.1588  155.4944 C   0  0  1  0  0  0  0  0  0  0  0  0
  143.3299  134.3792  154.5572 C   0  0  0  0  0  0  0  0  0  0  0  0
  142.6758  133.1667  154.2433 O   0  0  0  0  0  0  0  0  0  0  0  0
  145.5362  135.1430  155.2664 O   0  0  0  0  0  0  0  0  0  0  0  0
  148.2831  136.4703  155.5451 C   0  0  0  0  0  0  0  0  0  0  0  0
  147.6519  137.3389  154.9401 O   0  0  0  0  0  0  0  0  0  0  0  0
  149.6935  136.4184  155.4689 N   0  0  0  0  0  0  0  0  0  0  0  0
  150.3968  137.3985  154.6104 C   0  0  0  0  0  0  0  0  0  0  0  0
  150.3320  138.8385  155.1445 C   0  0  0  0  0  0  0  0  0  0  0  0
  149.7571  139.7185  154.5018 O   0  0  0  0  0  0  0  0  0  0  0  0
  150.9089  139.0297  156.3450 N   0  0  0  0  0  0  0  0  0  0  0  0
  151.0291  140.2371  157.0847 C   0  0  0  0  0  0  0  0  0  0  0  0
  151.8218  140.2118  158.2484 C   0  0  0  0  0  0  0  0  0  0  0  0
  151.9980  141.3740  159.0236 C   0  0  0  0  0  0  0  0  0  0  0  0
  151.3918  142.5976  158.6458 C   0  0  0  0  0  0  0  0  0  0  0  0
  151.5550  143.8898  159.4693 C   0  0  0  0  0  0  0  0  0  0  0  0
  152.4959  143.6276  160.6635 C   0  0  0  0  0  0  0  0  0  0  0  0
  150.2171  144.4189  160.0334 C   0  0  0  0  0  0  0  0  0  0  0  0
  152.1578  144.9978  158.5802 C   0  0  0  0  0  0  0  0  0  0  0  0
  150.6153  142.6184  157.4632 C   0  0  0  0  0  0  0  0  0  0  0  0
  150.4378  141.4578  156.6867 C   0  0  0  0  0  0  0  0  0  0  0  0
  150.4622  135.4460  156.1548 C   0  0  0  0  0  0  0  0  0  0  0  0
  151.6894  135.4222  156.0426 O   0  0  0  0  0  0  0  0  0  0  0  0
  149.8394  132.7866  158.3232 H   0  0  0  0  0  0  0  0  0  0  0  0
  151.1766  133.9263  158.4645 H   0  0  0  0  0  0  0  0  0  0  0  0
  151.0868  132.8295  157.0803 H   0  0  0  0  0  0  0  0  0  0  0  0
  147.8421  133.8561  157.6521 H   0  0  0  0  0  0  0  0  0  0  0  0
  145.8325  136.5464  156.6875 H   0  0  0  0  0  0  0  0  0  0  0  0
  146.2441  133.6865  157.6674 H   0  0  0  0  0  0  0  0  0  0  0  0
  145.5431  135.0592  158.5353 H   0  0  0  0  0  0  0  0  0  0  0  0
  143.5130  134.9381  157.2674 H   0  0  0  0  0  0  0  0  0  0  0  0
  144.3439  132.7068  158.2555 H   0  0  0  0  0  0  0  0  0  0  0  0
  144.9934  133.2050  155.2364 H   0  0  0  0  0  0  0  0  0  0  0  0
  142.6175  135.0739  155.0029 H   0  0  0  0  0  0  0  0  0  0  0  0
  143.6710  134.8265  153.6232 H   0  0  0  0  0  0  0  0  0  0  0  0
  142.6405  132.6337  155.0229 H   0  0  0  0  0  0  0  0  0  0  0  0
  151.4458  137.1297  154.4770 H   0  0  0  0  0  0  0  0  0  0  0  0
  149.9927  137.3825  153.5967 H   0  0  0  0  0  0  0  0  0  0  0  0
  151.2489  138.2003  156.8095 H   0  0  0  0  0  0  0  0  0  0  0  0
  152.2963  139.2921  158.5592 H   0  0  0  0  0  0  0  0  0  0  0  0
  152.6082  141.2943  159.9096 H   0  0  0  0  0  0  0  0  0  0  0  0
  152.6163  144.5212  161.2770 H   0  0  0  0  0  0  0  0  0  0  0  0
  153.4930  143.3248  160.3431 H   0  0  0  0  0  0  0  0  0  0  0  0
  152.1050  142.8390  161.3075 H   0  0  0  0  0  0  0  0  0  0  0  0
  149.7478  143.6971  160.7031 H   0  0  0  0  0  0  0  0  0  0  0  0
  149.5088  144.6549  159.2384 H   0  0  0  0  0  0  0  0  0  0  0  0
  150.3655  145.3339  160.6080 H   0  0  0  0  0  0  0  0  0  0  0  0
  152.2659  145.9334  159.1302 H   0  0  0  0  0  0  0  0  0  0  0  0
  151.5235  145.1981  157.7157 H   0  0  0  0  0  0  0  0  0  0  0  0
  153.1469  144.7325  158.2067 H   0  0  0  0  0  0  0  0  0  0  0  0
  150.1466  143.5337  157.1344 H   0  0  0  0  0  0  0  0  0  0  0  0
  149.8538  141.5319  155.7822 H   0  0  0  0  0  0  0  0  0  0  0  0
  1  2  1  0  0  0  0
  1 32  1  0  0  0  0
  1 33  1  0  0  0  0
  1 34  1  0  0  0  0
  2 30  1  0  0  0  0
  2  3  2  0  0  0  0
  3  4  1  0  0  0  0
  3 35  1  0  0  0  0
  4  5  1  0  0  0  0
  4 13  1  0  0  0  0
  5 12  1  0  0  0  0
  5  6  1  0  0  0  0
  5 36  1  0  0  0  0
  6  7  1  0  0  0  0
  6 37  1  0  0  0  0
  6 38  1  0  0  0  0
  7  8  1  0  0  0  0
  7  9  1  0  0  0  0
  7 39  1  0  0  0  0
  8 40  1  0  0  0  0
  9 10  1  0  0  0  0
  9 12  1  0  0  0  0
  9 41  1  0  0  0  0
 10 11  1  0  0  0  0
 10 42  1  0  0  0  0
 10 43  1  0  0  0  0
 11 44  1  0  0  0  0
 13 14  2  0  0  0  0
 13 15  1  0  0  0  0
 15 16  1  0  0  0  0
 15 30  1  0  0  0  0
 16 17  1  0  0  0  0
 16 45  1  0  0  0  0
 16 46  1  0  0  0  0
 17 18  2  0  0  0  0
 17 19  1  0  0  0  0
 19 20  1  0  0  0  0
 19 47  1  0  0  0  0
 20 29  1  0  0  0  0
 20 21  2  0  0  0  0
 21 22  1  0  0  0  0
 21 48  1  0  0  0  0
 22 23  2  0  0  0  0
 22 49  1  0  0  0  0
 23 24  1  0  0  0  0
 23 28  1  0  0  0  0
 24 25  1  0  0  0  0
 24 26  1  0  0  0  0
 24 27  1  0  0  0  0
 25 50  1  0  0  0  0
 25 51  1  0  0  0  0
 25 52  1  0  0  0  0
 26 53  1  0  0  0  0
 26 54  1  0  0  0  0
 26 55  1  0  0  0  0
 27 56  1  0  0  0  0
 27 57  1  0  0  0  0
 27 58  1  0  0  0  0
 28 29  2  0  0  0  0
 28 59  1  0  0  0  0
 29 60  1  0  0  0  0
 30 31  2  0  0  0  0
M  END
> <s_m_source_file>
AV-unprocessed.smi

> <i_m_source_file_index>
284

> <i_lp_mmshare_version>
43012

> <i_f3d_flags>
0

> <s_epik_input>
W09IXVtDSDJdW0NAQEhdKE8xKVtDQEhdKFtPSF0pW0NIMl1bQ0BIXTFuKFtjSF1jMltDSDNdKWMoPU8pbihjMj1PKVtDSDJdQyg9TylbTkhdYzNbY0hdW2NIXWMoQyhbQ0gzXSkoW0NIM10pW0NIM10pW2NIXVtjSF0z

> <s_epik_cmdline>
J2VwaWtfcHl0aG9uJywgJy1waCcsICc3LjAnLCAnLXRuJywgJzgnLCAnLW1hJywgJzIwMCcsICctbWV0YWxfYmluZGluZycsICctaW1hZScsICc8aW5maWxlLm1hZT4nLCAnLW9tYWUnLCAnPG91dGZpbGUubWFlPic=

> <r_lp_tautomer_probability>
1

> <r_epik_Ionization_Penalty>
4.92358e-06

> <r_epik_Ionization_Penalty_Charging>
1.29777e-07

> <r_epik_Ionization_Penalty_Neutral>
4.79381e-06

> <r_epik_State_Penalty>
-0

> <r_epik_Charging_Adjusted_Penalty>
1.29777e-07

> <i_epik_Tot_Q>
0

> <i_epik_Tot_abs_Q>
0

> <r_epik_Metal_State_Penalty>
-0

> <b_epik_Metal_Only>
0

> <s_epik_Chemistry_Notes>
This compound contains an acetal/aminal-like group ( X-CH(R)-Y where X, Y are N, S, or O) that may be acid/base labile, releasing an aldehyde.

> <s_lp_Force_Field>
OPLS_2005

> <r_lp_Energy>
37.3901

> <b_lp_Chiralities_Consistent>
1

> <s_lp_Variant>
AV-unprocessed.smi:284-3

> <Gold.Version>
5.8.1

> <Gold.Id.Protein>
6NUR|6NUR_protein|mol2

> <Gold.PLP.Fitness>
52.5086

> <Gold.PLP.PLP>
-42.2265

> <Gold.PLP.part.hbond>
-5.0000

> <Gold.PLP.part.metal>
0.0000

> <Gold.PLP.part.buried>
-5.6031

> <Gold.PLP.part.nonpolar>
-34.3720

> <Gold.PLP.part.repulsive>
0.5445

> <Gold.PLP.ligand.clash>
0.0000

> <Gold.PLP.ligand.torsion>
0.6076

> <Gold.PLP.Chemscore.Hbond>
3.7846

> <Gold.PLP.Chemscore.CHOScore>
0.0000

> <Gold.PLP.Chemscore.Metal>
0.0000

> <Gold.Chemscore.Hbonds>
donor molecule, donor type, donor heavy atom, donor atom, acceptor molecule, acceptor atom, score
      P1  H  7989  7998       L1    18  0.05
      P1  H 10752 10764       L1    31  0.98

> <Gold.PLP.Chemscore.Internal.Correction>
0.1435

> <Gold.Rescore>
     Score         DG    S(hbond)    S(metal)    S(lipo)     H(rot)  DE(clash)    DE(int)     intcor
     19.49     -21.67       3.49        0.00     110.33       3.27       0.14       2.05       ----

> <Gold.Chemscore.Fitness>
19.4856

> <Gold.Chemscore.DG>
-21.6741

> <Gold.Chemscore.ZeroCoef>
-5.4800

> <Gold.Chemscore.Hbond>
3.4925

> <Gold.Chemscore.Metal>
0.0000

> <Gold.Chemscore.Lipo>
110.3342

> <Gold.Chemscore.Internal_Hbond>
0.0000

> <Gold.Chemscore.DEClash>
0.1409

> <Gold.Chemscore.DEInternal>
2.0475

> <Gold.Chemscore.Rot>
3.2735

> <Gold.Chemscore.Internal.Correction>
   9.000000E+99

> <Gold.Chemscore.Hbonds>
donor molecule, donor type, donor heavy atom, donor atom, acceptor molecule, acceptor atom, score
      P1  H  7989  7998       L1    18  0.03
      P1  H 10752 10764       L1    31  0.93

> <Gold.Chemscore.Hbond.Weighted>
-11.6650

> <Gold.Chemscore.Metal.Weighted>
-0.0000

> <Gold.Chemscore.Lipo.Weighted>
-12.9091

> <Gold.Chemscore.Internal_Hbond.Weighted>
0.0000

> <Gold.Chemscore.DEClash.Weighted>
0.1409

> <Gold.Chemscore.DEInternal.Weighted>
2.0475

> <Gold.Chemscore.Rot.Weighted>
8.3801

> <Gold.Chemscore.Internal.Correction.Weighted>
   9.000000E+99

> <Gold.Protein.RotatedTorsions>
[ 6907 6896 6895 6894 ] final  -34.15 input  -60.11 | X-H torsion
[ 7974 7965 7964 7962 ] final   36.06 input  175.53 | X-H torsion
[ 8008 7997 7996 7995 ] final   52.48 input   59.86 | X-H torsion
[ 10167 10162 10161 10158 ] final  121.99 input  -65.29 | X-H torsion
[ 10718 10713 10712 10709 ] final  -68.62 input   66.30 | X-H torsion
[ 10763 10752 10751 10750 ] final  -50.04 input  -60.55 | X-H torsion
[ 11005 11000 10999 10996 ] final  -81.68 input  -57.11 | X-H torsion

> <Gold.Protein.ActiveResidues>
 VAL166  LYS551  ARG553  GLY616  TRP617  ASP618  TYR619  PRO620  LYS621  CYS622 
 ASP623  PHE694  ASN695  SER759  ASP760  ASP761  ALA762  ILE779  LEU786  VAL792 
 PHE793  MET794  SER795  GLU796  ALA797  LYS798  CYS799  TRP800  GLU811  SER814 

> <Gold.Protein.RotatedAtoms>
  151.0563  134.9707  159.8237 H   0  0  0  0  0  0  0  0  0  0  0  0  # atno 6907 bound_to 6896
  152.5389  134.2473  159.8895 H   0  0  0  0  0  0  0  0  0  0  0  0  # atno 6908 bound_to 6896
  151.2491  133.4316  159.2644 H   0  0  0  0  0  0  0  0  0  0  0  0  # atno 6909 bound_to 6896
  146.1238  139.6064  142.9272 H   0  0  0  0  0  0  0  0  0  0  0  0  # atno 7974 bound_to 7965
  155.4525  140.3458  155.4302 H   0  0  0  0  0  0  0  0  0  0  0  0  # atno 8008 bound_to 7997
  156.1211  140.1487  156.9232 H   0  0  0  0  0  0  0  0  0  0  0  0  # atno 8009 bound_to 7997
  154.4824  140.0865  156.7388 H   0  0  0  0  0  0  0  0  0  0  0  0  # atno 8010 bound_to 7997
  139.5886  144.7016  151.3347 H   0  0  0  0  0  0  0  0  0  0  0  0  # atno 10167 bound_to 10162
  156.0496  130.4298  150.2027 H   0  0  0  0  0  0  0  0  0  0  0  0  # atno 10718 bound_to 10713
  154.1040  135.6559  153.4873 H   0  0  0  0  0  0  0  0  0  0  0  0  # atno 10763 bound_to 10752
  153.0279  135.5232  154.7258 H   0  0  0  0  0  0  0  0  0  0  0  0  # atno 10764 bound_to 10752
  154.6419  135.2989  155.0063 H   0  0  0  0  0  0  0  0  0  0  0  0  # atno 10765 bound_to 10752
  141.1666  133.7208  156.8458 H   0  0  0  0  0  0  0  0  0  0  0  0  # atno 11005 bound_to 11000
  145.5408  141.0421  143.2331 LP  0  0  0  0  0  0  0  0  0  0  0  0  # atno 17320 bound_to 7965
  144.7623  139.6928  143.7229 LP  0  0  0  0  0  0  0  0  0  0  0  0  # atno 17321 bound_to 7965
  140.7153  143.7282  150.7643 LP  0  0  0  0  0  0  0  0  0  0  0  0  # atno 17342 bound_to 10162
  140.0833  143.4948  152.2518 LP  0  0  0  0  0  0  0  0  0  0  0  0  # atno 17343 bound_to 10162
  157.0112  130.9951  151.3365 LP  0  0  0  0  0  0  0  0  0  0  0  0  # atno 17370 bound_to 10713
  157.5409  130.8119  149.8027 LP  0  0  0  0  0  0  0  0  0  0  0  0  # atno 17371 bound_to 10713
  140.1951  134.8938  157.3105 LP  0  0  0  0  0  0  0  0  0  0  0  0  # atno 17394 bound_to 11000
  140.2248  134.3980  155.7549 LP  0  0  0  0  0  0  0  0  0  0  0  0  # atno 17395 bound_to 11000

$$$$
