AV-unprocessed.smi:1724|AV-procd|sdf|6952|dock8
  -GOLD-   22720 8163D 1   1.00000     0.00000
 Structure written by MMmdl.
 37 38  0  0  0  0  0  0  0  0  2 V2000
  154.7136  140.9168  162.4668 O   0  0  0  0  0  0  0  0  0  0  0  0
  155.0282  140.2189  161.5033 C   0  0  0  0  0  0  0  0  0  0  0  0
  155.9764  139.2725  161.5615 N   0  0  0  0  0  0  0  0  0  0  0  0
  156.7603  138.9234  162.7428 C   0  0  0  0  0  0  0  0  0  0  0  0
  156.1137  137.7887  163.5635 C   0  0  1  0  0  0  0  0  0  0  0  0
  154.5819  137.7275  163.4101 C   0  0  0  0  0  0  0  0  0  0  0  0
  154.0192  136.5229  164.1728 C   0  0  0  0  0  0  0  0  0  0  0  0
  154.7441  135.2356  163.7536 C   0  0  0  0  0  0  0  0  0  0  0  0
  156.1434  135.3827  163.9653 O   0  0  0  0  0  0  0  0  0  0  0  0
  156.7188  136.4226  163.1809 C   0  0  0  0  0  0  0  0  0  0  0  0
  154.4942  140.2783  160.2695 N   0  0  0  0  0  0  0  0  0  0  0  0
  153.4848  141.1131  159.7572 C   0  0  0  0  0  0  0  0  0  0  0  0
  153.1201  142.3179  160.2785 C   0  0  0  0  0  0  0  0  0  0  0  0
  152.0634  143.1329  159.6911 C   0  0  0  0  0  0  0  0  0  0  0  0
  151.6188  144.4794  160.2322 C   0  0  0  0  0  0  0  0  0  0  0  0
  152.1972  144.7168  161.4090 F   0  0  0  0  0  0  0  0  0  0  0  0
  151.9751  145.4521  159.3943 F   0  0  0  0  0  0  0  0  0  0  0  0
  150.2966  144.5280  160.3956 F   0  0  0  0  0  0  0  0  0  0  0  0
  151.5062  142.5464  158.5728 C   0  0  0  0  0  0  0  0  0  0  0  0
  151.8093  141.3657  157.9913 N   0  5  0  0  0  0  0  0  0  0  0  0
  152.7967  140.6098  158.5492 C   0  0  0  0  0  0  0  0  0  0  0  0
  153.1237  139.5238  158.0687 O   0  0  0  0  0  0  0  0  0  0  0  0
  156.1676  138.7464  160.7212 H   0  0  0  0  0  0  0  0  0  0  0  0
  157.7848  138.6613  162.4732 H   0  0  0  0  0  0  0  0  0  0  0  0
  156.8323  139.8210  163.3576 H   0  0  0  0  0  0  0  0  0  0  0  0
  156.3399  137.9651  164.6164 H   0  0  0  0  0  0  0  0  0  0  0  0
  154.1164  138.6411  163.7807 H   0  0  0  0  0  0  0  0  0  0  0  0
  154.3187  137.6484  162.3544 H   0  0  0  0  0  0  0  0  0  0  0  0
  154.1436  136.6776  165.2454 H   0  0  0  0  0  0  0  0  0  0  0  0
  152.9482  136.4290  163.9921 H   0  0  0  0  0  0  0  0  0  0  0  0
  154.3852  134.3929  164.3443 H   0  0  0  0  0  0  0  0  0  0  0  0
  154.5454  134.9990  162.7071 H   0  0  0  0  0  0  0  0  0  0  0  0
  156.5723  136.2130  162.1201 H   0  0  0  0  0  0  0  0  0  0  0  0
  157.7949  136.4268  163.3560 H   0  0  0  0  0  0  0  0  0  0  0  0
  154.8543  139.6154  159.5987 H   0  0  0  0  0  0  0  0  0  0  0  0
  153.6102  142.7181  161.1492 H   0  0  0  0  0  0  0  0  0  0  0  0
  150.6935  143.1142  158.0710 H   0  0  0  0  0  0  0  0  0  0  0  0
  1  2  2  0  0  0  0
  2  3  1  0  0  0  0
  2 11  1  0  0  0  0
  3  4  1  0  0  0  0
  3 23  1  0  0  0  0
  4  5  1  0  0  0  0
  4 24  1  0  0  0  0
  4 25  1  0  0  0  0
  5 10  1  0  0  0  0
  5  6  1  0  0  0  0
  5 26  1  0  0  0  0
  6  7  1  0  0  0  0
  6 27  1  0  0  0  0
  6 28  1  0  0  0  0
  7  8  1  0  0  0  0
  7 29  1  0  0  0  0
  7 30  1  0  0  0  0
  8  9  1  0  0  0  0
  8 31  1  0  0  0  0
  8 32  1  0  0  0  0
  9 10  1  0  0  0  0
 10 33  1  0  0  0  0
 10 34  1  0  0  0  0
 11 12  1  0  0  0  0
 11 35  1  0  0  0  0
 12 21  1  0  0  0  0
 12 13  2  0  0  0  0
 13 14  1  0  0  0  0
 13 36  1  0  0  0  0
 14 15  1  0  0  0  0
 14 19  2  0  0  0  0
 15 16  1  0  0  0  0
 15 17  1  0  0  0  0
 15 18  1  0  0  0  0
 19 20  1  0  0  0  0
 19 37  1  0  0  0  0
 20 21  1  0  0  0  0
 21 22  2  0  0  0  0
M  CHG  1  20  -1
M  END
> <s_m_source_file>
AV-unprocessed.smi

> <i_m_source_file_index>
1724

> <i_lp_mmshare_version>
43012

> <i_f3d_flags>
0

> <s_epik_input>
Tz1jMVtuSF1bY0hdYyhDKEYpKEYpRilbY0hdYzFbTkhdQyg9TylbTkhdW0NIMl1bQ0BASF0yW0NIMl1bQ0gyXVtDSDJdT1tDSDJdMg==

> <s_epik_cmdline>
J2VwaWtfcHl0aG9uJywgJy1waCcsICc3LjAnLCAnLXRuJywgJzgnLCAnLW1hJywgJzIwMCcsICctbWV0YWxfYmluZGluZycsICctaW1hZScsICc8aW5maWxlLm1hZT4nLCAnLW9tYWUnLCAnPG91dGZpbGUubWFlPic=

> <r_lp_tautomer_probability>
1

> <r_epik_Ionization_Penalty>
3.16025

> <r_epik_Ionization_Penalty_Charging>
0.171172

> <r_epik_Ionization_Penalty_Neutral>
2.98908

> <r_epik_State_Penalty>
2.98521

> <r_epik_Charging_Adjusted_Penalty>
3.15638

> <i_epik_Tot_Q>
-1

> <i_epik_Tot_abs_Q>
1

> <r_epik_Metal_State_Penalty>
0.452642

> <b_epik_Metal_Only>
1

> <s_lp_Force_Field>
OPLS_2005

> <r_lp_Energy>
24.0618

> <b_lp_Chiralities_Consistent>
1

> <s_lp_Variant>
AV-unprocessed.smi:1724-4

> <Gold.Version>
5.8.1

> <Gold.Id.Protein>
6NUR|6NUR_protein|mol2

> <Gold.PLP.Fitness>
42.2025

> <Gold.PLP.PLP>
-41.1296

> <Gold.PLP.part.hbond>
-2.0000

> <Gold.PLP.part.metal>
0.0000

> <Gold.PLP.part.buried>
-4.6627

> <Gold.PLP.part.nonpolar>
-34.7194

> <Gold.PLP.part.repulsive>
0.1073

> <Gold.PLP.ligand.clash>
0.0000

> <Gold.PLP.ligand.torsion>
0.9693

> <Gold.PLP.Chemscore.Hbond>
1.0000

> <Gold.PLP.Chemscore.CHOScore>
0.0000

> <Gold.PLP.Chemscore.Metal>
0.0000

> <Gold.Chemscore.Hbonds>
donor molecule, donor type, donor heavy atom, donor atom, acceptor molecule, acceptor atom, score
      P1  H  7997  8009       L1    22  1.00

> <Gold.PLP.Chemscore.Internal.Correction>
0.0114

> <Gold.Rescore>
     Score         DG    S(hbond)    S(metal)    S(lipo)     H(rot)  DE(clash)    DE(int)     intcor
     12.67     -15.27       0.93        0.00      85.98       1.32       0.71       1.89       ----

> <Gold.Chemscore.Fitness>
12.6672

> <Gold.Chemscore.DG>
-15.2710

> <Gold.Chemscore.ZeroCoef>
-5.4800

> <Gold.Chemscore.Hbond>
0.9350

> <Gold.Chemscore.Metal>
0.0000

> <Gold.Chemscore.Lipo>
85.9810

> <Gold.Chemscore.Internal_Hbond>
0.0000

> <Gold.Chemscore.DEClash>
0.7122

> <Gold.Chemscore.DEInternal>
1.8916

> <Gold.Chemscore.Rot>
1.3248

> <Gold.Chemscore.Internal.Correction>
   9.000000E+99

> <Gold.Chemscore.Hbonds>
donor molecule, donor type, donor heavy atom, donor atom, acceptor molecule, acceptor atom, score
      P1  H  7997  8009       L1    22  0.30

> <Gold.Chemscore.Hbond.Weighted>
-3.1227

> <Gold.Chemscore.Metal.Weighted>
-0.0000

> <Gold.Chemscore.Lipo.Weighted>
-10.0598

> <Gold.Chemscore.Internal_Hbond.Weighted>
0.0000

> <Gold.Chemscore.DEClash.Weighted>
0.7122

> <Gold.Chemscore.DEInternal.Weighted>
1.8916

> <Gold.Chemscore.Rot.Weighted>
3.3915

> <Gold.Chemscore.Internal.Correction.Weighted>
   9.000000E+99

> <Gold.Protein.RotatedTorsions>
[ 6907 6896 6895 6894 ] final    6.86 input  -60.11 | X-H torsion
[ 7974 7965 7964 7962 ] final  124.53 input  175.53 | X-H torsion
[ 8008 7997 7996 7995 ] final  166.54 input   59.86 | X-H torsion
[ 10167 10162 10161 10158 ] final  161.20 input  -65.29 | X-H torsion
[ 10718 10713 10712 10709 ] final  122.57 input   66.30 | X-H torsion
[ 10763 10752 10751 10750 ] final  -31.64 input  -60.55 | X-H torsion
[ 11005 11000 10999 10996 ] final -122.58 input  -57.11 | X-H torsion

> <Gold.Protein.ActiveResidues>
 VAL166  LYS551  ARG553  GLY616  TRP617  ASP618  TYR619  PRO620  LYS621  CYS622 
 ASP623  PHE694  ASN695  SER759  ASP760  ASP761  ALA762  ILE779  LEU786  VAL792 
 PHE793  MET794  SER795  GLU796  ALA797  LYS798  CYS799  TRP800  GLU811  SER814 

> <Gold.Protein.RotatedAtoms>
  151.6806  135.0962  160.0215 H   0  0  0  0  0  0  0  0  0  0  0  0  # atno 6907 bound_to 6896
  152.3838  133.6578  159.6190 H   0  0  0  0  0  0  0  0  0  0  0  0  # atno 6908 bound_to 6896
  150.7768  133.8986  159.3376 H   0  0  0  0  0  0  0  0  0  0  0  0  # atno 6909 bound_to 6896
  145.0833  139.3641  143.4898 H   0  0  0  0  0  0  0  0  0  0  0  0  # atno 7974 bound_to 7965
  156.1710  140.1641  156.8447 H   0  0  0  0  0  0  0  0  0  0  0  0  # atno 8008 bound_to 7997
  154.5257  140.0768  156.8287 H   0  0  0  0  0  0  0  0  0  0  0  0  # atno 8009 bound_to 7997
  155.3513  140.3390  155.4241 H   0  0  0  0  0  0  0  0  0  0  0  0  # atno 8010 bound_to 7997
  139.4847  144.4559  151.8768 H   0  0  0  0  0  0  0  0  0  0  0  0  # atno 10167 bound_to 10162
  157.5732  131.1081  150.8329 H   0  0  0  0  0  0  0  0  0  0  0  0  # atno 10718 bound_to 10713
  153.8007  135.6890  153.4856 H   0  0  0  0  0  0  0  0  0  0  0  0  # atno 10763 bound_to 10752
  153.1690  135.4550  154.9875 H   0  0  0  0  0  0  0  0  0  0  0  0  # atno 10764 bound_to 10752
  154.8007  135.3337  154.7496 H   0  0  0  0  0  0  0  0  0  0  0  0  # atno 10765 bound_to 10752
  140.9984  134.0438  157.3568 H   0  0  0  0  0  0  0  0  0  0  0  0  # atno 11005 bound_to 11000
  146.3531  140.0634  142.8628 LP  0  0  0  0  0  0  0  0  0  0  0  0  # atno 17320 bound_to 7965
  145.1152  140.9429  143.4633 LP  0  0  0  0  0  0  0  0  0  0  0  0  # atno 17321 bound_to 7965
  140.4019  144.2482  150.5892 LP  0  0  0  0  0  0  0  0  0  0  0  0  # atno 17342 bound_to 10162
  140.5049  143.2307  151.8623 LP  0  0  0  0  0  0  0  0  0  0  0  0  # atno 17343 bound_to 10162
  156.8795  130.5174  149.5292 LP  0  0  0  0  0  0  0  0  0  0  0  0  # atno 17370 bound_to 10713
  156.0777  130.5795  150.9504 LP  0  0  0  0  0  0  0  0  0  0  0  0  # atno 17371 bound_to 10713
  139.9026  135.0170  156.7340 LP  0  0  0  0  0  0  0  0  0  0  0  0  # atno 17394 bound_to 11000
  140.6928  133.9374  155.7977 LP  0  0  0  0  0  0  0  0  0  0  0  0  # atno 17395 bound_to 11000

$$$$
