AV-unprocessed.smi:48|AV-procd|sdf|450|dock5
  -GOLD-   2262016313D 1   1.00000     0.00000
 Structure written by MMmdl.
 30 32  0  0  0  0  0  0  0  0  1 V2000
  146.5154  140.3991  152.8096 O   0  0  0  0  0  0  0  0  0  0  0  0
  146.7229  140.7233  154.1680 C   0  0  0  0  0  0  0  0  0  0  0  0
  147.8265  139.8332  154.7668 C   0  0  2  0  0  0  0  0  0  0  0  0
  148.1575  140.2508  156.0843 O   0  0  0  0  0  0  0  0  0  0  0  0
  149.3902  139.7054  156.4376 C   0  0  2  0  0  0  0  0  0  0  0  0
  150.1284  140.7060  157.2717 N   0  0  0  0  0  0  0  0  0  0  0  0
  149.8696  142.0252  157.3807 C   0  0  0  0  0  0  0  0  0  0  0  0
  150.6529  142.7411  158.1864 N   0  0  0  0  0  0  0  0  0  0  0  0
  151.5235  141.7720  158.6567 C   0  0  0  0  0  0  0  0  0  0  0  0
  152.6177  141.8206  159.5542 C   0  0  0  0  0  0  0  0  0  0  0  0
  153.0929  143.3039  160.2973 Cl  0  0  0  0  0  0  0  0  0  0  0  0
  153.2870  140.6732  159.8186 N   0  0  0  0  0  0  0  0  0  0  0  0
  152.8984  139.5369  159.2274 C   0  0  0  0  0  0  0  0  0  0  0  0
  151.8950  139.3391  158.3651 N   0  0  0  0  0  0  0  0  0  0  0  0
  151.2193  140.4964  158.1007 C   0  0  0  0  0  0  0  0  0  0  0  0
  150.1317  139.3332  155.1346 C   0  0  2  0  0  0  0  0  0  0  0  0
  151.4454  139.8495  155.0041 O   0  0  0  0  0  0  0  0  0  0  0  0
  149.1791  139.8081  154.0385 C   0  0  2  0  0  0  0  0  0  0  0  0
  149.5190  141.0890  153.5355 O   0  0  0  0  0  0  0  0  0  0  0  0
  147.4544  138.8098  154.8447 H   0  0  0  0  0  0  0  0  0  0  0  0
  149.2468  138.8482  157.0972 H   0  0  0  0  0  0  0  0  0  0  0  0
  150.1916  138.2444  155.1061 H   0  0  0  0  0  0  0  0  0  0  0  0
  149.1645  139.1148  153.1968 H   0  0  0  0  0  0  0  0  0  0  0  0
  145.6228  140.1063  152.7037 H   0  0  0  0  0  0  0  0  0  0  0  0
  146.9632  141.7826  154.2631 H   0  0  0  0  0  0  0  0  0  0  0  0
  145.7877  140.5631  154.7048 H   0  0  0  0  0  0  0  0  0  0  0  0
  149.0565  142.4865  156.8394 H   0  0  0  0  0  0  0  0  0  0  0  0
  153.4742  138.6591  159.4807 H   0  0  0  0  0  0  0  0  0  0  0  0
  152.0390  139.1195  154.9108 H   0  0  0  0  0  0  0  0  0  0  0  0
  149.5406  141.0422  152.5918 H   0  0  0  0  0  0  0  0  0  0  0  0
  1  2  1  0  0  0  0
  1 24  1  0  0  0  0
  2  3  1  0  0  0  0
  2 25  1  0  0  0  0
  2 26  1  0  0  0  0
  3 20  1  0  0  0  0
  3 18  1  0  0  0  0
  3  4  1  0  0  0  0
  4  5  1  0  0  0  0
  5 21  1  0  0  0  0
  5  6  1  0  0  0  0
  5 16  1  0  0  0  0
  6 15  1  0  0  0  0
  6  7  1  0  0  0  0
  7  8  2  0  0  0  0
  7 27  1  0  0  0  0
  8  9  1  0  0  0  0
  9 15  2  0  0  0  0
  9 10  1  0  0  0  0
 10 11  1  0  0  0  0
 10 12  2  0  0  0  0
 12 13  1  0  0  0  0
 13 14  2  0  0  0  0
 13 28  1  0  0  0  0
 14 15  1  0  0  0  0
 16 22  1  0  0  0  0
 16 17  1  0  0  0  0
 16 18  1  0  0  0  0
 17 29  1  0  0  0  0
 18 23  1  0  0  0  0
 18 19  1  0  0  0  0
 19 30  1  0  0  0  0
M  END
> <s_m_source_file>
AV-unprocessed.smi

> <i_m_source_file_index>
48

> <i_lp_mmshare_version>
43012

> <i_f3d_flags>
0

> <s_epik_input>
W09IXVtDSDJdW0NASF0xT1tDQEhdKFtDQEhdKFtPSF0pW0NAQEhdMVtPSF0pbihbY0hdbjIpYyhjMjMpbltjSF1uYzNDbA==

> <s_epik_cmdline>
J2VwaWtfcHl0aG9uJywgJy1waCcsICc3LjAnLCAnLXRuJywgJzgnLCAnLW1hJywgJzIwMCcsICctbWV0YWxfYmluZGluZycsICctaW1hZScsICc8aW5maWxlLm1hZT4nLCAnLW9tYWUnLCAnPG91dGZpbGUubWFlPic=

> <r_lp_tautomer_probability>
1

> <r_epik_Ionization_Penalty>
3.45505e-06

> <r_epik_Ionization_Penalty_Charging>
0

> <r_epik_Ionization_Penalty_Neutral>
3.45505e-06

> <r_epik_State_Penalty>
-0

> <r_epik_Charging_Adjusted_Penalty>
0

> <i_epik_Tot_Q>
0

> <i_epik_Tot_abs_Q>
0

> <r_epik_Metal_State_Penalty>
-0

> <b_epik_Metal_Only>
0

> <s_epik_Chemistry_Notes>
This compound contains an acetal/aminal-like group ( X-CH(R)-Y where X, Y are N, S, or O) that may be acid/base labile, releasing an aldehyde.

> <s_lp_Force_Field>
OPLS_2005

> <r_lp_Energy>
43.6519

> <b_lp_Chiralities_Consistent>
1

> <s_lp_Variant>
AV-unprocessed.smi:48-4

> <Gold.Version>
5.8.1

> <Gold.Id.Protein>
6NUR|6NUR_protein|mol2

> <Gold.PLP.Fitness>
39.1025

> <Gold.PLP.PLP>
-28.1017

> <Gold.PLP.part.hbond>
-5.0000

> <Gold.PLP.part.metal>
0.0000

> <Gold.PLP.part.buried>
-4.4611

> <Gold.PLP.part.nonpolar>
-18.5535

> <Gold.PLP.part.repulsive>
0.1275

> <Gold.PLP.ligand.clash>
0.0000

> <Gold.PLP.ligand.torsion>
0.4879

> <Gold.PLP.Chemscore.Hbond>
2.9920

> <Gold.PLP.Chemscore.CHOScore>
1.0000

> <Gold.PLP.Chemscore.Metal>
0.0000

> <Gold.Chemscore.Hbonds>
donor molecule, donor type, donor heavy atom, donor atom, acceptor molecule, acceptor atom, score
      L1  H     1    24       P1 10175  1.00
      L1  H    19    30       P1  7957  0.98
      P1  H  7989  7998       L1    17  1.00
      L1  C     7    27       P1  8028  1.00

> <Gold.PLP.Chemscore.Internal.Correction>
0.0006

> <Gold.Rescore>
     Score         DG    S(hbond)    S(metal)    S(lipo)     H(rot)  DE(clash)    DE(int)     intcor
     10.94     -11.41       2.87        0.00      51.99       3.80       0.15       0.31       ----

> <Gold.Chemscore.Fitness>
10.9431

> <Gold.Chemscore.DG>
-11.4080

> <Gold.Chemscore.ZeroCoef>
-5.4800

> <Gold.Chemscore.Hbond>
2.8675

> <Gold.Chemscore.Metal>
0.0000

> <Gold.Chemscore.Lipo>
51.9910

> <Gold.Chemscore.Internal_Hbond>
0.0000

> <Gold.Chemscore.DEClash>
0.1529

> <Gold.Chemscore.DEInternal>
0.3120

> <Gold.Chemscore.Rot>
3.8017

> <Gold.Chemscore.Internal.Correction>
   9.000000E+99

> <Gold.Chemscore.Hbonds>
donor molecule, donor type, donor heavy atom, donor atom, acceptor molecule, acceptor atom, score
      L1  H     1    24       P1 10175  0.88
      L1  H    19    30       P1  7957  0.93
      P1  H  7989  7998       L1    17  0.47

> <Gold.Chemscore.Hbond.Weighted>
-9.5775

> <Gold.Chemscore.Metal.Weighted>
-0.0000

> <Gold.Chemscore.Lipo.Weighted>
-6.0829

> <Gold.Chemscore.Internal_Hbond.Weighted>
0.0000

> <Gold.Chemscore.DEClash.Weighted>
0.1529

> <Gold.Chemscore.DEInternal.Weighted>
0.3120

> <Gold.Chemscore.Rot.Weighted>
9.7324

> <Gold.Chemscore.Internal.Correction.Weighted>
   9.000000E+99

> <Gold.Protein.RotatedTorsions>
[ 6907 6896 6895 6894 ] final   60.53 input  -60.11 | X-H torsion
[ 7974 7965 7964 7962 ] final -140.63 input  175.53 | X-H torsion
[ 8008 7997 7996 7995 ] final -104.70 input   59.86 | X-H torsion
[ 10167 10162 10161 10158 ] final  132.29 input  -65.29 | X-H torsion
[ 10718 10713 10712 10709 ] final  143.39 input   66.30 | X-H torsion
[ 10763 10752 10751 10750 ] final -101.74 input  -60.55 | X-H torsion
[ 11005 11000 10999 10996 ] final  -94.35 input  -57.11 | X-H torsion

> <Gold.Protein.ActiveResidues>
 VAL166  LYS551  ARG553  GLY616  TRP617  ASP618  TYR619  PRO620  LYS621  CYS622 
 ASP623  PHE694  ASN695  SER759  ASP760  ASP761  ALA762  ILE779  LEU786  VAL792 
 PHE793  MET794  SER795  GLU796  ALA797  LYS798  CYS799  TRP800  GLU811  SER814 

> <Gold.Protein.RotatedAtoms>
  152.4011  134.6285  160.0069 H   0  0  0  0  0  0  0  0  0  0  0  0  # atno 6907 bound_to 6896
  151.6490  133.3316  159.3155 H   0  0  0  0  0  0  0  0  0  0  0  0  # atno 6908 bound_to 6896
  150.7911  134.6978  159.6578 H   0  0  0  0  0  0  0  0  0  0  0  0  # atno 6909 bound_to 6896
  144.8582  140.6177  143.5345 H   0  0  0  0  0  0  0  0  0  0  0  0  # atno 7974 bound_to 7965
  154.8891  140.0416  157.1828 H   0  0  0  0  0  0  0  0  0  0  0  0  # atno 8008 bound_to 7997
  154.8559  140.2936  155.5548 H   0  0  0  0  0  0  0  0  0  0  0  0  # atno 8009 bound_to 7997
  156.2997  140.2456  156.3525 H   0  0  0  0  0  0  0  0  0  0  0  0  # atno 8010 bound_to 7997
  139.5346  144.6668  151.4830 H   0  0  0  0  0  0  0  0  0  0  0  0  # atno 10167 bound_to 10162
  157.3695  131.0977  151.0841 H   0  0  0  0  0  0  0  0  0  0  0  0  # atno 10718 bound_to 10713
  154.7681  135.4886  153.9593 H   0  0  0  0  0  0  0  0  0  0  0  0  # atno 10763 bound_to 10752
  153.1333  135.6757  153.9151 H   0  0  0  0  0  0  0  0  0  0  0  0  # atno 10764 bound_to 10752
  153.8848  135.3128  155.3425 H   0  0  0  0  0  0  0  0  0  0  0  0  # atno 10765 bound_to 10752
  141.1473  133.7950  157.0286 H   0  0  0  0  0  0  0  0  0  0  0  0  # atno 11005 bound_to 11000
  145.4364  139.1542  143.3994 LP  0  0  0  0  0  0  0  0  0  0  0  0  # atno 17320 bound_to 7965
  146.2840  140.4483  142.8765 LP  0  0  0  0  0  0  0  0  0  0  0  0  # atno 17321 bound_to 7965
  140.6545  143.8628  150.6820 LP  0  0  0  0  0  0  0  0  0  0  0  0  # atno 17342 bound_to 10162
  140.2003  143.3965  152.1797 LP  0  0  0  0  0  0  0  0  0  0  0  0  # atno 17343 bound_to 10162
  157.1950  130.6369  149.5718 LP  0  0  0  0  0  0  0  0  0  0  0  0  # atno 17370 bound_to 10713
  155.9753  130.4709  150.6447 LP  0  0  0  0  0  0  0  0  0  0  0  0  # atno 17371 bound_to 10713
  140.0769  134.9670  157.1560 LP  0  0  0  0  0  0  0  0  0  0  0  0  # atno 17394 bound_to 11000
  140.3632  134.2472  155.7185 LP  0  0  0  0  0  0  0  0  0  0  0  0  # atno 17395 bound_to 11000

$$$$
