AV-unprocessed.smi:928|AV-procd|sdf|4192|dock7
  -GOLD-   22720 2 93D 1   1.00000     0.00000
 Structure written by MMmdl.
 43 44  0  0  0  0  0  0  0  0  1 V2000
  152.4274  138.8593  155.4420 C   0  0  0  0  0  0  0  0  0  0  0  0
  151.7870  140.2046  155.8048 C   0  0  0  0  0  0  0  0  0  0  0  0
  150.4150  140.3645  155.2394 C   0  0  0  0  0  0  0  0  0  0  0  0
  149.6205  141.4843  155.2670 C   0  0  0  0  0  0  0  0  0  0  0  0
  148.4062  141.3327  154.5938 N   0  0  0  0  0  0  0  0  0  0  0  0
  148.2686  140.1168  154.0602 C   0  0  0  0  0  0  0  0  0  0  0  0
  147.1257  139.7285  153.1771 C   0  0  0  0  0  0  0  0  0  0  0  0
  146.2723  138.5679  153.7332 C   0  0  0  0  0  0  0  0  0  0  0  0
  146.6182  137.2804  153.1322 N   0  0  0  0  0  0  0  0  0  0  0  0
  145.8264  136.1977  153.1153 C   0  0  0  0  0  0  0  0  0  0  0  0
  144.7462  136.1209  153.7008 O   0  0  0  0  0  0  0  0  0  0  0  0
  146.3238  135.2301  152.3338 N   0  0  0  0  0  0  0  0  0  0  0  0
  145.6208  133.9994  151.9788 C   0  0  1  0  0  0  0  0  0  0  0  0
  145.1588  134.0459  150.5102 C   0  0  0  0  0  0  0  0  0  0  0  0
  144.3885  132.7697  150.1360 C   0  0  0  0  0  0  0  0  0  0  0  0
  145.2295  131.5116  150.4059 C   0  0  0  0  0  0  0  0  0  0  0  0
  145.7168  131.4593  151.8660 C   0  0  0  0  0  0  0  0  0  0  0  0
  146.4693  132.7402  152.2777 C   0  0  1  0  0  0  0  0  0  0  0  0
  147.7064  132.7926  151.5917 O   0  0  0  0  0  0  0  0  0  0  0  0
  149.6295  139.0525  154.4014 S   0  0  0  0  0  0  0  0  0  0  0  0
  153.4311  138.7809  155.8599 H   0  0  0  0  0  0  0  0  0  0  0  0
  152.5056  138.7402  154.3609 H   0  0  0  0  0  0  0  0  0  0  0  0
  151.8407  138.0250  155.8273 H   0  0  0  0  0  0  0  0  0  0  0  0
  151.7460  140.3057  156.8897 H   0  0  0  0  0  0  0  0  0  0  0  0
  152.4250  141.0143  155.4491 H   0  0  0  0  0  0  0  0  0  0  0  0
  149.8511  142.4375  155.7191 H   0  0  0  0  0  0  0  0  0  0  0  0
  146.4963  140.6065  153.0284 H   0  0  0  0  0  0  0  0  0  0  0  0
  147.5167  139.4619  152.1947 H   0  0  0  0  0  0  0  0  0  0  0  0
  146.4154  138.4924  154.8111 H   0  0  0  0  0  0  0  0  0  0  0  0
  145.2128  138.7832  153.5837 H   0  0  0  0  0  0  0  0  0  0  0  0
  147.4885  137.2380  152.6225 H   0  0  0  0  0  0  0  0  0  0  0  0
  147.2190  135.3847  151.8936 H   0  0  0  0  0  0  0  0  0  0  0  0
  144.7179  133.9451  152.5909 H   0  0  0  0  0  0  0  0  0  0  0  0
  144.5230  134.9169  150.3464 H   0  0  0  0  0  0  0  0  0  0  0  0
  146.0182  134.1625  149.8484 H   0  0  0  0  0  0  0  0  0  0  0  0
  143.4625  132.7211  150.7108 H   0  0  0  0  0  0  0  0  0  0  0  0
  144.0987  132.8051  149.0856 H   0  0  0  0  0  0  0  0  0  0  0  0
  144.6452  130.6195  150.1792 H   0  0  0  0  0  0  0  0  0  0  0  0
  146.0867  131.4951  149.7317 H   0  0  0  0  0  0  0  0  0  0  0  0
  144.8547  131.3286  152.5213 H   0  0  0  0  0  0  0  0  0  0  0  0
  146.3490  130.5838  152.0192 H   0  0  0  0  0  0  0  0  0  0  0  0
  146.6908  132.6907  153.3444 H   0  0  0  0  0  0  0  0  0  0  0  0
  147.8753  131.9404  151.2196 H   0  0  0  0  0  0  0  0  0  0  0  0
  1  2  1  0  0  0  0
  1 21  1  0  0  0  0
  1 22  1  0  0  0  0
  1 23  1  0  0  0  0
  2  3  1  0  0  0  0
  2 24  1  0  0  0  0
  2 25  1  0  0  0  0
  3 20  1  0  0  0  0
  3  4  2  0  0  0  0
  4  5  1  0  0  0  0
  4 26  1  0  0  0  0
  5  6  2  0  0  0  0
  6  7  1  0  0  0  0
  6 20  1  0  0  0  0
  7  8  1  0  0  0  0
  7 27  1  0  0  0  0
  7 28  1  0  0  0  0
  8  9  1  0  0  0  0
  8 29  1  0  0  0  0
  8 30  1  0  0  0  0
  9 10  1  0  0  0  0
  9 31  1  0  0  0  0
 10 11  2  0  0  0  0
 10 12  1  0  0  0  0
 12 13  1  0  0  0  0
 12 32  1  0  0  0  0
 13 18  1  0  0  0  0
 13 14  1  0  0  0  0
 13 33  1  0  0  0  0
 14 15  1  0  0  0  0
 14 34  1  0  0  0  0
 14 35  1  0  0  0  0
 15 16  1  0  0  0  0
 15 36  1  0  0  0  0
 15 37  1  0  0  0  0
 16 17  1  0  0  0  0
 16 38  1  0  0  0  0
 16 39  1  0  0  0  0
 17 18  1  0  0  0  0
 17 40  1  0  0  0  0
 17 41  1  0  0  0  0
 18 19  1  0  0  0  0
 18 42  1  0  0  0  0
 19 43  1  0  0  0  0
M  END
> <s_m_source_file>
AV-unprocessed.smi

> <i_m_source_file_index>
928

> <i_lp_mmshare_version>
43012

> <i_f3d_flags>
0

> <s_epik_input>
W0NIM11bQ0gyXWMxW2NIXW5jKHMxKVtDSDJdW0NIMl1bTkhdQyg9TylbTkhdW0NAQEhdMltDSDJdW0NIMl1bQ0gyXVtDSDJdW0NASF0yW09IXQ==

> <s_epik_cmdline>
J2VwaWtfcHl0aG9uJywgJy1waCcsICc3LjAnLCAnLXRuJywgJzgnLCAnLW1hJywgJzIwMCcsICctbWV0YWxfYmluZGluZycsICctaW1hZScsICc8aW5maWxlLm1hZT4nLCAnLW9tYWUnLCAnPG91dGZpbGUubWFlPic=

> <r_epik_Ionization_Penalty>
0.000957396

> <r_epik_Ionization_Penalty_Charging>
0

> <r_epik_Ionization_Penalty_Neutral>
0.000957396

> <r_epik_State_Penalty>
0.000586538

> <r_epik_Charging_Adjusted_Penalty>
0.000586538

> <i_epik_Tot_Q>
0

> <i_epik_Tot_abs_Q>
0

> <r_epik_Metal_State_Penalty>
-0

> <b_epik_Metal_Only>
0

> <s_lp_Force_Field>
OPLS_2005

> <r_lp_Energy>
0.733769

> <b_lp_Chiralities_Consistent>
1

> <s_lp_Variant>
AV-unprocessed.smi:928-2

> <Gold.Version>
5.8.1

> <Gold.Id.Protein>
6NUR|6NUR_protein|mol2

> <Gold.PLP.Fitness>
47.5534

> <Gold.PLP.PLP>
-36.7247

> <Gold.PLP.part.hbond>
-3.0000

> <Gold.PLP.part.metal>
0.0000

> <Gold.PLP.part.buried>
-2.5947

> <Gold.PLP.part.nonpolar>
-30.9681

> <Gold.PLP.part.repulsive>
0.2004

> <Gold.PLP.ligand.clash>
0.0000

> <Gold.PLP.ligand.torsion>
0.5765

> <Gold.PLP.Chemscore.Hbond>
2.9760

> <Gold.PLP.Chemscore.CHOScore>
1.0000

> <Gold.PLP.Chemscore.Metal>
0.0000

> <Gold.Chemscore.Hbonds>
donor molecule, donor type, donor heavy atom, donor atom, acceptor molecule, acceptor atom, score
      L1  H     9    31       P1  7948  1.00
      L1  H    12    32       P1  7948  1.00
      L1  H    19    43       P1 10747  0.96
      L1  C     4    26       P1  8028  1.00

> <Gold.PLP.Chemscore.Internal.Correction>
0.0537

> <Gold.Rescore>
     Score         DG    S(hbond)    S(metal)    S(lipo)     H(rot)  DE(clash)    DE(int)     intcor
     20.28     -20.95       2.90        0.00      97.87       2.21       0.12       0.55       ----

> <Gold.Chemscore.Fitness>
20.2810

> <Gold.Chemscore.DG>
-20.9531

> <Gold.Chemscore.ZeroCoef>
-5.4800

> <Gold.Chemscore.Hbond>
2.8969

> <Gold.Chemscore.Metal>
0.0000

> <Gold.Chemscore.Lipo>
97.8712

> <Gold.Chemscore.Internal_Hbond>
0.0000

> <Gold.Chemscore.DEClash>
0.1199

> <Gold.Chemscore.DEInternal>
0.5521

> <Gold.Chemscore.Rot>
2.2084

> <Gold.Chemscore.Internal.Correction>
   9.000000E+99

> <Gold.Chemscore.Hbonds>
donor molecule, donor type, donor heavy atom, donor atom, acceptor molecule, acceptor atom, score
      L1  H     9    31       P1  7948  0.96
      L1  H    12    32       P1  7948  0.96
      L1  H    19    43       P1 10747  0.92

> <Gold.Chemscore.Hbond.Weighted>
-9.6757

> <Gold.Chemscore.Metal.Weighted>
-0.0000

> <Gold.Chemscore.Lipo.Weighted>
-11.4509

> <Gold.Chemscore.Internal_Hbond.Weighted>
0.0000

> <Gold.Chemscore.DEClash.Weighted>
0.1199

> <Gold.Chemscore.DEInternal.Weighted>
0.5521

> <Gold.Chemscore.Rot.Weighted>
5.6535

> <Gold.Chemscore.Internal.Correction.Weighted>
   9.000000E+99

> <Gold.Protein.RotatedTorsions>
[ 6907 6896 6895 6894 ] final -125.38 input  -60.11 | X-H torsion
[ 7974 7965 7964 7962 ] final  160.84 input  175.53 | X-H torsion
[ 8008 7997 7996 7995 ] final   52.23 input   59.86 | X-H torsion
[ 10167 10162 10161 10158 ] final  113.65 input  -65.29 | X-H torsion
[ 10718 10713 10712 10709 ] final  115.90 input   66.30 | X-H torsion
[ 10763 10752 10751 10750 ] final  -65.78 input  -60.55 | X-H torsion
[ 11005 11000 10999 10996 ] final -104.34 input  -57.11 | X-H torsion

> <Gold.Protein.ActiveResidues>
 VAL166  LYS551  ARG553  GLY616  TRP617  ASP618  TYR619  PRO620  LYS621  CYS622 
 ASP623  PHE694  ASN695  SER759  ASP760  ASP761  ALA762  ILE779  LEU786  VAL792 
 PHE793  MET794  SER795  GLU796  ALA797  LYS798  CYS799  TRP800  GLU811  SER814 

> <Gold.Protein.RotatedAtoms>
  150.8862  133.7305  159.2917 H   0  0  0  0  0  0  0  0  0  0  0  0  # atno 6907 bound_to 6896
  151.4870  135.1054  159.9803 H   0  0  0  0  0  0  0  0  0  0  0  0  # atno 6908 bound_to 6896
  152.4791  133.8164  159.7086 H   0  0  0  0  0  0  0  0  0  0  0  0  # atno 6909 bound_to 6896
  144.7716  139.7814  143.6295 H   0  0  0  0  0  0  0  0  0  0  0  0  # atno 7974 bound_to 7965
  155.4483  140.3457  155.4298 H   0  0  0  0  0  0  0  0  0  0  0  0  # atno 8008 bound_to 7997
  156.1236  140.1494  156.9199 H   0  0  0  0  0  0  0  0  0  0  0  0  # atno 8009 bound_to 7997
  154.4841  140.0860  156.7426 H   0  0  0  0  0  0  0  0  0  0  0  0  # atno 8010 bound_to 7997
  139.6446  144.7126  151.2169 H   0  0  0  0  0  0  0  0  0  0  0  0  # atno 10167 bound_to 10162
  157.6194  131.1018  150.7395 H   0  0  0  0  0  0  0  0  0  0  0  0  # atno 10718 bound_to 10713
  154.3500  135.6138  153.5638 H   0  0  0  0  0  0  0  0  0  0  0  0  # atno 10763 bound_to 10752
  152.9799  135.5790  154.4754 H   0  0  0  0  0  0  0  0  0  0  0  0  # atno 10764 bound_to 10752
  154.4473  135.2852  155.1783 H   0  0  0  0  0  0  0  0  0  0  0  0  # atno 10765 bound_to 10752
  141.1105  133.8715  157.1599 H   0  0  0  0  0  0  0  0  0  0  0  0  # atno 11005 bound_to 11000
  146.1866  139.5085  142.9832 LP  0  0  0  0  0  0  0  0  0  0  0  0  # atno 17320 bound_to 7965
  145.6307  141.0304  143.1864 LP  0  0  0  0  0  0  0  0  0  0  0  0  # atno 17321 bound_to 7965
  140.7508  143.6254  150.8473 LP  0  0  0  0  0  0  0  0  0  0  0  0  # atno 17342 bound_to 10162
  139.9895  143.5862  152.2915 LP  0  0  0  0  0  0  0  0  0  0  0  0  # atno 17343 bound_to 10162
  156.7756  130.4843  149.5410 LP  0  0  0  0  0  0  0  0  0  0  0  0  # atno 17370 bound_to 10713
  156.1331  130.6192  151.0362 LP  0  0  0  0  0  0  0  0  0  0  0  0  # atno 17371 bound_to 10713
  139.9996  135.0033  157.0160 LP  0  0  0  0  0  0  0  0  0  0  0  0  # atno 17394 bound_to 11000
  140.4788  134.1310  155.7214 LP  0  0  0  0  0  0  0  0  0  0  0  0  # atno 17395 bound_to 11000

$$$$
