AV-unprocessed.smi:2058|AV-procd|sdf|8345|dock5
  -GOLD-   2272011 13D 1   1.00000     0.00000
 Structure written by MMmdl.
 42 43  0  0  0  0  0  0  0  0  1 V2000
  145.8935  136.4396  150.7779 C   0  0  0  0  0  0  0  0  0  0  0  0
  145.7933  137.6327  151.7405 C   0  0  1  0  0  0  0  0  0  0  0  0
  144.7508  137.4010  152.8527 C   0  0  0  0  0  0  0  0  0  0  0  0
  143.4423  137.4809  152.3288 O   0  0  0  0  0  0  0  0  0  0  0  0
  147.1091  137.8872  152.3212 N   0  0  0  0  0  0  0  0  0  0  0  0
  147.3930  138.8457  153.2147 C   0  0  0  0  0  0  0  0  0  0  0  0
  146.5541  139.6271  153.6622 O   0  0  0  0  0  0  0  0  0  0  0  0
  148.6913  138.8156  153.5601 N   0  0  0  0  0  0  0  0  0  0  0  0
  149.3797  139.6494  154.4817 C   0  0  0  0  0  0  0  0  0  0  0  0
  150.7296  139.3583  154.7568 C   0  0  0  0  0  0  0  0  0  0  0  0
  151.4401  140.1738  155.6572 C   0  0  0  0  0  0  0  0  0  0  0  0
  150.7833  141.2733  156.2572 C   0  0  0  0  0  0  0  0  0  0  0  0
  151.4755  142.0981  157.1698 N   0  0  0  0  0  0  0  0  0  0  0  0
  151.7870  141.4745  158.4575 C   0  0  0  0  0  0  0  0  0  0  0  0
  152.8630  142.2713  159.2145 C   0  0  0  0  0  0  0  0  0  0  0  0
  152.4623  143.7471  159.3551 C   0  0  0  0  0  0  0  0  0  0  0  0
  152.1549  144.3421  157.9731 C   0  0  0  0  0  0  0  0  0  0  0  0
  151.0903  143.5101  157.2374 C   0  0  0  0  0  0  0  0  0  0  0  0
  149.4907  141.5676  155.9742 N   0  0  0  0  0  0  0  0  0  0  0  0
  148.8113  140.7811  155.1130 C   0  0  0  0  0  0  0  0  0  0  0  0
  144.9391  136.2469  150.2873 H   0  0  0  0  0  0  0  0  0  0  0  0
  146.1876  135.5296  151.3017 H   0  0  0  0  0  0  0  0  0  0  0  0
  146.6299  136.6270  149.9957 H   0  0  0  0  0  0  0  0  0  0  0  0
  145.5019  138.5105  151.1599 H   0  0  0  0  0  0  0  0  0  0  0  0
  144.8956  136.4321  153.3319 H   0  0  0  0  0  0  0  0  0  0  0  0
  144.8395  138.1600  153.6309 H   0  0  0  0  0  0  0  0  0  0  0  0
  143.4922  137.8151  151.4464 H   0  0  0  0  0  0  0  0  0  0  0  0
  147.8611  137.2879  152.0147 H   0  0  0  0  0  0  0  0  0  0  0  0
  149.2383  138.0657  153.1635 H   0  0  0  0  0  0  0  0  0  0  0  0
  151.2188  138.5170  154.2875 H   0  0  0  0  0  0  0  0  0  0  0  0
  152.4773  139.9581  155.8669 H   0  0  0  0  0  0  0  0  0  0  0  0
  150.8729  141.4295  159.0511 H   0  0  0  0  0  0  0  0  0  0  0  0
  152.1289  140.4475  158.3357 H   0  0  0  0  0  0  0  0  0  0  0  0
  153.0277  141.8326  160.1990 H   0  0  0  0  0  0  0  0  0  0  0  0
  153.8116  142.1998  158.6807 H   0  0  0  0  0  0  0  0  0  0  0  0
  151.5839  143.8310  159.9960 H   0  0  0  0  0  0  0  0  0  0  0  0
  153.2602  144.3103  159.8401 H   0  0  0  0  0  0  0  0  0  0  0  0
  151.8163  145.3733  158.0754 H   0  0  0  0  0  0  0  0  0  0  0  0
  153.0683  144.3735  157.3778 H   0  0  0  0  0  0  0  0  0  0  0  0
  150.9562  143.9119  156.2322 H   0  0  0  0  0  0  0  0  0  0  0  0
  150.1310  143.5952  157.7500 H   0  0  0  0  0  0  0  0  0  0  0  0
  147.7966  141.0941  154.9231 H   0  0  0  0  0  0  0  0  0  0  0  0
  1  2  1  0  0  0  0
  1 21  1  0  0  0  0
  1 22  1  0  0  0  0
  1 23  1  0  0  0  0
  2  3  1  0  0  0  0
  2  5  1  0  0  0  0
  2 24  1  0  0  0  0
  3  4  1  0  0  0  0
  3 25  1  0  0  0  0
  3 26  1  0  0  0  0
  4 27  1  0  0  0  0
  5  6  1  0  0  0  0
  5 28  1  0  0  0  0
  6  7  2  0  0  0  0
  6  8  1  0  0  0  0
  8  9  1  0  0  0  0
  8 29  1  0  0  0  0
  9 20  1  0  0  0  0
  9 10  2  0  0  0  0
 10 11  1  0  0  0  0
 10 30  1  0  0  0  0
 11 12  2  0  0  0  0
 11 31  1  0  0  0  0
 12 13  1  0  0  0  0
 12 19  1  0  0  0  0
 13 18  1  0  0  0  0
 13 14  1  0  0  0  0
 14 15  1  0  0  0  0
 14 32  1  0  0  0  0
 14 33  1  0  0  0  0
 15 16  1  0  0  0  0
 15 34  1  0  0  0  0
 15 35  1  0  0  0  0
 16 17  1  0  0  0  0
 16 36  1  0  0  0  0
 16 37  1  0  0  0  0
 17 18  1  0  0  0  0
 17 38  1  0  0  0  0
 17 39  1  0  0  0  0
 18 40  1  0  0  0  0
 18 41  1  0  0  0  0
 19 20  2  0  0  0  0
 20 42  1  0  0  0  0
M  END
> <s_m_source_file>
AV-unprocessed.smi

> <i_m_source_file_index>
2058

> <i_lp_mmshare_version>
43012

> <i_f3d_flags>
0

> <s_epik_input>
W09IXVtDSDJdW0NAQEhdKFtDSDNdKVtOSF1DKD1PKVtOSF1jMVtjSF1bY0hdYyhuW2NIXTEpTjJbQ0gyXVtDSDJdW0NIMl1bQ0gyXVtDSDJdMg==

> <s_epik_cmdline>
J2VwaWtfcHl0aG9uJywgJy1waCcsICc3LjAnLCAnLXRuJywgJzgnLCAnLW1hJywgJzIwMCcsICctbWV0YWxfYmluZGluZycsICctaW1hZScsICc8aW5maWxlLm1hZT4nLCAnLW9tYWUnLCAnPG91dGZpbGUubWFlPic=

> <r_lp_tautomer_probability>
1

> <r_epik_Ionization_Penalty>
0.104828

> <r_epik_Ionization_Penalty_Charging>
0

> <r_epik_Ionization_Penalty_Neutral>
0.104828

> <r_epik_State_Penalty>
0.0887547

> <r_epik_Charging_Adjusted_Penalty>
0.0887547

> <i_epik_Tot_Q>
0

> <i_epik_Tot_abs_Q>
0

> <r_epik_Metal_State_Penalty>
0.0759464

> <b_epik_Metal_Only>
0

> <s_lp_Force_Field>
OPLS_2005

> <r_lp_Energy>
18.2312

> <b_lp_Chiralities_Consistent>
1

> <s_lp_Variant>
AV-unprocessed.smi:2058-2

> <Gold.Version>
5.8.1

> <Gold.Id.Protein>
6NUR|6NUR_protein|mol2

> <Gold.PLP.Fitness>
46.1300

> <Gold.PLP.PLP>
-39.7844

> <Gold.PLP.part.hbond>
-4.7528

> <Gold.PLP.part.metal>
0.0000

> <Gold.PLP.part.buried>
3.9760

> <Gold.PLP.part.nonpolar>
-39.6952

> <Gold.PLP.part.repulsive>
0.4633

> <Gold.PLP.ligand.clash>
0.0000

> <Gold.PLP.ligand.torsion>
0.5724

> <Gold.PLP.Chemscore.Hbond>
2.3566

> <Gold.PLP.Chemscore.CHOScore>
0.0000

> <Gold.PLP.Chemscore.Metal>
0.0000

> <Gold.Chemscore.Hbonds>
donor molecule, donor type, donor heavy atom, donor atom, acceptor molecule, acceptor atom, score
      L1  H     4    27       P1 10171  1.00
      L1  H     5    28       P1  7948  0.94
      L1  H     8    29       P1  7948  0.39

> <Gold.PLP.Chemscore.Internal.Correction>
0.4208

> <Gold.Rescore>
     Score         DG    S(hbond)    S(metal)    S(lipo)     H(rot)  DE(clash)    DE(int)     intcor
     15.74     -20.42       2.40        0.00     103.97       2.05       2.06       2.61       ----

> <Gold.Chemscore.Fitness>
15.7443

> <Gold.Chemscore.DG>
-20.4171

> <Gold.Chemscore.ZeroCoef>
-5.4800

> <Gold.Chemscore.Hbond>
2.3977

> <Gold.Chemscore.Metal>
0.0000

> <Gold.Chemscore.Lipo>
103.9710

> <Gold.Chemscore.Internal_Hbond>
0.0000

> <Gold.Chemscore.DEClash>
2.0604

> <Gold.Chemscore.DEInternal>
2.6124

> <Gold.Chemscore.Rot>
2.0453

> <Gold.Chemscore.Internal.Correction>
   9.000000E+99

> <Gold.Chemscore.Hbonds>
donor molecule, donor type, donor heavy atom, donor atom, acceptor molecule, acceptor atom, score
      L1  H     4    27       P1 10171  0.93
      L1  H     5    28       P1  7948  0.90
      L1  H     8    29       P1  7948  0.37

> <Gold.Chemscore.Hbond.Weighted>
-8.0085

> <Gold.Chemscore.Metal.Weighted>
-0.0000

> <Gold.Chemscore.Lipo.Weighted>
-12.1646

> <Gold.Chemscore.Internal_Hbond.Weighted>
0.0000

> <Gold.Chemscore.DEClash.Weighted>
2.0604

> <Gold.Chemscore.DEInternal.Weighted>
2.6124

> <Gold.Chemscore.Rot.Weighted>
5.2360

> <Gold.Chemscore.Internal.Correction.Weighted>
   9.000000E+99

> <Gold.Protein.RotatedTorsions>
[ 6907 6896 6895 6894 ] final  -14.56 input  -60.11 | X-H torsion
[ 7974 7965 7964 7962 ] final    1.67 input  175.53 | X-H torsion
[ 8008 7997 7996 7995 ] final  114.46 input   59.86 | X-H torsion
[ 10167 10162 10161 10158 ] final   96.35 input  -65.29 | X-H torsion
[ 10718 10713 10712 10709 ] final -142.16 input   66.30 | X-H torsion
[ 10763 10752 10751 10750 ] final  146.53 input  -60.55 | X-H torsion
[ 11005 11000 10999 10996 ] final  -58.82 input  -57.11 | X-H torsion

> <Gold.Protein.ActiveResidues>
 VAL166  LYS551  ARG553  GLY616  TRP617  ASP618  TYR619  PRO620  LYS621  CYS622 
 ASP623  PHE694  ASN695  SER759  ASP760  ASP761  ALA762  ILE779  LEU786  VAL792 
 PHE793  MET794  SER795  GLU796  ALA797  LYS798  CYS799  TRP800  GLU811  SER814 

> <Gold.Protein.RotatedAtoms>
  151.3374  135.0856  159.9359 H   0  0  0  0  0  0  0  0  0  0  0  0  # atno 6907 bound_to 6896
  152.5220  133.9481  159.7669 H   0  0  0  0  0  0  0  0  0  0  0  0  # atno 6908 bound_to 6896
  150.9831  133.6171  159.2749 H   0  0  0  0  0  0  0  0  0  0  0  0  # atno 6909 bound_to 6896
  146.2441  140.0952  142.8350 H   0  0  0  0  0  0  0  0  0  0  0  0  # atno 7974 bound_to 7965
  156.2322  140.2959  156.0218 H   0  0  0  0  0  0  0  0  0  0  0  0  # atno 8008 bound_to 7997
  155.2192  140.0415  157.2963 H   0  0  0  0  0  0  0  0  0  0  0  0  # atno 8009 bound_to 7997
  154.6016  140.2428  155.7793 H   0  0  0  0  0  0  0  0  0  0  0  0  # atno 8010 bound_to 7997
  139.7903  144.6855  150.9902 H   0  0  0  0  0  0  0  0  0  0  0  0  # atno 10167 bound_to 10162
  156.3426  130.7645  151.1784 H   0  0  0  0  0  0  0  0  0  0  0  0  # atno 10718 bound_to 10713
  154.0234  135.2904  155.3378 H   0  0  0  0  0  0  0  0  0  0  0  0  # atno 10763 bound_to 10752
  154.7032  135.5180  153.8560 H   0  0  0  0  0  0  0  0  0  0  0  0  # atno 10764 bound_to 10752
  153.0671  135.6635  154.0454 H   0  0  0  0  0  0  0  0  0  0  0  0  # atno 10765 bound_to 10752
  141.1223  133.6613  156.4978 H   0  0  0  0  0  0  0  0  0  0  0  0  # atno 11005 bound_to 11000
  145.0616  140.9091  143.4935 LP  0  0  0  0  0  0  0  0  0  0  0  0  # atno 17320 bound_to 7965
  145.1069  139.2784  143.5657 LP  0  0  0  0  0  0  0  0  0  0  0  0  # atno 17321 bound_to 7965
  140.7820  143.4388  151.0583 LP  0  0  0  0  0  0  0  0  0  0  0  0  # atno 17342 bound_to 10162
  139.8065  143.8010  152.3168 LP  0  0  0  0  0  0  0  0  0  0  0  0  # atno 17343 bound_to 10162
  157.7449  131.0450  150.4822 LP  0  0  0  0  0  0  0  0  0  0  0  0  # atno 17370 bound_to 10713
  156.5005  130.4116  149.6356 LP  0  0  0  0  0  0  0  0  0  0  0  0  # atno 17371 bound_to 10713
  140.4471  134.6963  157.5021 LP  0  0  0  0  0  0  0  0  0  0  0  0  # atno 17394 bound_to 11000
  140.0190  134.6575  155.9267 LP  0  0  0  0  0  0  0  0  0  0  0  0  # atno 17395 bound_to 11000

$$$$
