AV-unprocessed.smi:2895|AV-procd|sdf|11131|dock5
  -GOLD-   2272016 03D 1   1.00000     0.00000
 Structure written by MMmdl.
 53 56  0  0  0  0  0  0  0  0  2 V2000
  144.9265  136.9270  154.4399 O   0  0  0  0  0  0  0  0  0  0  0  0
  145.8239  137.4795  153.8024 C   0  0  0  0  0  0  0  0  0  0  0  0
  146.0859  137.1649  152.5224 N   0  0  0  0  0  0  0  0  0  0  0  0
  145.3860  136.1482  151.7453 C   0  0  0  0  0  0  0  0  0  0  0  0
  145.5781  134.7441  152.3429 C   0  0  0  0  0  0  0  0  0  0  0  0
  145.1864  133.6482  151.3710 C   0  0  0  0  0  0  0  0  0  0  0  0
  146.1578  132.7667  150.8537 C   0  0  0  0  0  0  0  0  0  0  0  0
  145.7443  131.7638  149.9541 C   0  0  0  0  0  0  0  0  0  0  0  0
  144.4623  131.6032  149.5608 N   0  0  0  0  0  0  0  0  0  0  0  0
  143.5378  132.4514  150.0607 C   0  0  0  0  0  0  0  0  0  0  0  0
  143.8455  133.4871  150.9656 C   0  0  0  0  0  0  0  0  0  0  0  0
  146.6007  138.4661  154.3180 N   0  0  0  0  0  0  0  0  0  0  0  0
  147.6894  139.1700  153.6219 C   0  0  0  0  0  0  0  0  0  0  0  0
  149.0372  138.7216  154.2210 C   0  0  0  0  0  0  0  0  0  0  0  0
  149.0990  138.9516  155.6933 N   0  3  0  0  0  0  0  0  0  0  0  0
  149.3621  140.3683  156.0901 C   0  0  1  0  0  0  0  0  0  0  0  0
  149.4418  140.5881  157.6209 C   0  0  0  0  0  0  0  0  0  0  0  0
  150.7500  141.3818  157.7960 C   0  0  1  0  0  0  0  0  0  0  0  0
  151.9390  140.4210  157.6260 C   0  0  0  0  0  0  0  0  0  0  0  0
  151.9094  140.1172  156.1176 C   0  0  0  0  0  0  0  0  0  0  0  0
  150.7151  140.9589  155.6172 C   0  0  2  0  0  0  0  0  0  0  0  0
  150.8195  142.1925  156.5079 C   0  0  0  0  0  0  0  0  0  0  0  0
  147.9204  138.3546  156.3861 C   0  0  0  0  0  0  0  0  0  0  0  0
  146.5867  138.7949  155.7477 C   0  0  0  0  0  0  0  0  0  0  0  0
  146.8225  137.6692  152.0509 H   0  0  0  0  0  0  0  0  0  0  0  0
  144.3255  136.3969  151.6780 H   0  0  0  0  0  0  0  0  0  0  0  0
  145.7764  136.1738  150.7276 H   0  0  0  0  0  0  0  0  0  0  0  0
  146.6180  134.6058  152.6429 H   0  0  0  0  0  0  0  0  0  0  0  0
  144.9797  134.6303  153.2478 H   0  0  0  0  0  0  0  0  0  0  0  0
  147.1962  132.8539  151.1392 H   0  0  0  0  0  0  0  0  0  0  0  0
  146.4626  131.0719  149.5401 H   0  0  0  0  0  0  0  0  0  0  0  0
  142.5211  132.3008  149.7294 H   0  0  0  0  0  0  0  0  0  0  0  0
  143.0680  134.1393  151.3354 H   0  0  0  0  0  0  0  0  0  0  0  0
  147.7041  139.0093  152.5442 H   0  0  0  0  0  0  0  0  0  0  0  0
  147.5572  140.2450  153.7486 H   0  0  0  0  0  0  0  0  0  0  0  0
  149.1617  137.6520  154.0466 H   0  0  0  0  0  0  0  0  0  0  0  0
  149.8678  139.1942  153.6995 H   0  0  0  0  0  0  0  0  0  0  0  0
  148.5659  140.9958  155.6881 H   0  0  0  0  0  0  0  0  0  0  0  0
  148.5830  141.1639  157.9678 H   0  0  0  0  0  0  0  0  0  0  0  0
  149.4704  139.6596  158.1929 H   0  0  0  0  0  0  0  0  0  0  0  0
  150.7893  141.9666  158.7155 H   0  0  0  0  0  0  0  0  0  0  0  0
  152.8750  140.9096  157.9003 H   0  0  0  0  0  0  0  0  0  0  0  0
  151.8407  139.5222  158.2358 H   0  0  0  0  0  0  0  0  0  0  0  0
  152.8362  140.4484  155.6469 H   0  0  0  0  0  0  0  0  0  0  0  0
  151.7983  139.0530  155.9099 H   0  0  0  0  0  0  0  0  0  0  0  0
  150.7515  141.1862  154.5515 H   0  0  0  0  0  0  0  0  0  0  0  0
  149.9871  142.8885  156.3888 H   0  0  0  0  0  0  0  0  0  0  0  0
  151.7589  142.7357  156.3882 H   0  0  0  0  0  0  0  0  0  0  0  0
  148.0055  137.2693  156.3168 H   0  0  0  0  0  0  0  0  0  0  0  0
  147.9218  138.5835  157.4512 H   0  0  0  0  0  0  0  0  0  0  0  0
  146.4379  139.8685  155.8667 H   0  0  0  0  0  0  0  0  0  0  0  0
  145.7560  138.3300  156.2802 H   0  0  0  0  0  0  0  0  0  0  0  0
  149.9069  138.4399  156.0186 H   0  0  0  0  0  0  0  0  0  0  0  0
  1  2  2  0  0  0  0
  2  3  1  0  0  0  0
  2 12  1  0  0  0  0
  3  4  1  0  0  0  0
  3 25  1  0  0  0  0
  4  5  1  0  0  0  0
  4 26  1  0  0  0  0
  4 27  1  0  0  0  0
  5  6  1  0  0  0  0
  5 28  1  0  0  0  0
  5 29  1  0  0  0  0
  6 11  1  0  0  0  0
  6  7  2  0  0  0  0
  7  8  1  0  0  0  0
  7 30  1  0  0  0  0
  8  9  2  0  0  0  0
  8 31  1  0  0  0  0
  9 10  1  0  0  0  0
 10 11  2  0  0  0  0
 10 32  1  0  0  0  0
 11 33  1  0  0  0  0
 12 24  1  0  0  0  0
 12 13  1  0  0  0  0
 13 14  1  0  0  0  0
 13 34  1  0  0  0  0
 13 35  1  0  0  0  0
 14 15  1  0  0  0  0
 14 36  1  0  0  0  0
 14 37  1  0  0  0  0
 15 16  1  0  0  0  0
 15 23  1  0  0  0  0
 15 53  1  0  0  0  0
 16 21  1  0  0  0  0
 16 17  1  0  0  0  0
 16 38  1  0  0  0  0
 17 18  1  0  0  0  0
 17 39  1  0  0  0  0
 17 40  1  0  0  0  0
 18 22  1  0  0  0  0
 18 19  1  0  0  0  0
 18 41  1  0  0  0  0
 19 20  1  0  0  0  0
 19 42  1  0  0  0  0
 19 43  1  0  0  0  0
 20 21  1  0  0  0  0
 20 44  1  0  0  0  0
 20 45  1  0  0  0  0
 21 22  1  0  0  0  0
 21 46  1  0  0  0  0
 22 47  1  0  0  0  0
 22 48  1  0  0  0  0
 23 24  1  0  0  0  0
 23 49  1  0  0  0  0
 23 50  1  0  0  0  0
 24 51  1  0  0  0  0
 24 52  1  0  0  0  0
M  CHG  1  15   1
M  END
> <s_m_source_file>
AV-unprocessed.smi

> <i_m_source_file_index>
2895

> <i_lp_mmshare_version>
43012

> <i_f3d_flags>
0

> <s_epik_input>
W0NIMl0xW0NIMl1bQ0BASF0oW0NIMl0yKVtDQEBIXShbQ0gyXVtDQEhdMTIpTihbQ0gyXVtDSDJdMylbQ0gyXVtDSDJdTjNDKD1PKVtOSF1bQ0gyXVtDSDJdYzRbY0hdW2NIXW5bY0hdW2NIXTQ=

> <s_epik_cmdline>
J2VwaWtfcHl0aG9uJywgJy1waCcsICc3LjAnLCAnLXRuJywgJzgnLCAnLW1hJywgJzIwMCcsICctbWV0YWxfYmluZGluZycsICctaW1hZScsICc8aW5maWxlLm1hZT4nLCAnLW9tYWUnLCAnPG91dGZpbGUubWFlPic=

> <r_epik_Ionization_Penalty>
0.0566172

> <r_epik_Ionization_Penalty_Charging>
0.00262064

> <r_epik_Ionization_Penalty_Neutral>
0.0539965

> <r_epik_State_Penalty>
0.0463959

> <r_epik_Charging_Adjusted_Penalty>
0.0490165

> <i_epik_Tot_Q>
1

> <i_epik_Tot_abs_Q>
1

> <r_epik_Metal_State_Penalty>
0.0424856

> <b_epik_Metal_Only>
0

> <s_lp_Force_Field>
OPLS_2005

> <r_lp_Energy>
99.8283

> <b_lp_Chiralities_Consistent>
1

> <s_lp_Variant>
AV-unprocessed.smi:2895-4

> <Gold.Version>
5.8.1

> <Gold.Id.Protein>
6NUR|6NUR_protein|mol2

> <Gold.PLP.Fitness>
42.4827

> <Gold.PLP.PLP>
-34.7060

> <Gold.PLP.part.hbond>
-1.8195

> <Gold.PLP.part.metal>
0.0000

> <Gold.PLP.part.buried>
-3.6667

> <Gold.PLP.part.nonpolar>
-30.9954

> <Gold.PLP.part.repulsive>
0.2298

> <Gold.PLP.ligand.clash>
0.0000

> <Gold.PLP.ligand.torsion>
0.1741

> <Gold.PLP.Chemscore.Hbond>
0.4433

> <Gold.PLP.Chemscore.CHOScore>
2.2379

> <Gold.PLP.Chemscore.Metal>
0.0000

> <Gold.Chemscore.Hbonds>
donor molecule, donor type, donor heavy atom, donor atom, acceptor molecule, acceptor atom, score
      P1  H 10785 10796       L1     9  0.40
      L1  C     8    31       P1 10747  0.76
      L1  C    10    32       P1 10186  0.62
      L1  C    10    32       P1 10952  0.86

> <Gold.PLP.Chemscore.Internal.Correction>
0.0811

> <Gold.Rescore>
     Score         DG    S(hbond)    S(metal)    S(lipo)     H(rot)  DE(clash)    DE(int)     intcor
     15.87     -16.21       0.71        0.00     101.47       1.37       0.23       0.11       ----

> <Gold.Chemscore.Fitness>
15.8715

> <Gold.Chemscore.DG>
-16.2068

> <Gold.Chemscore.ZeroCoef>
-5.4800

> <Gold.Chemscore.Hbond>
0.7096

> <Gold.Chemscore.Metal>
0.0000

> <Gold.Chemscore.Lipo>
101.4696

> <Gold.Chemscore.Internal_Hbond>
0.0000

> <Gold.Chemscore.DEClash>
0.2287

> <Gold.Chemscore.DEInternal>
0.1066

> <Gold.Chemscore.Rot>
1.3731

> <Gold.Chemscore.Internal.Correction>
   9.000000E+99

> <Gold.Chemscore.Hbonds>
donor molecule, donor type, donor heavy atom, donor atom, acceptor molecule, acceptor atom, score
      P1  H 10785 10796       L1     9  0.12

> <Gold.Chemscore.Hbond.Weighted>
-2.3700

> <Gold.Chemscore.Metal.Weighted>
-0.0000

> <Gold.Chemscore.Lipo.Weighted>
-11.8719

> <Gold.Chemscore.Internal_Hbond.Weighted>
0.0000

> <Gold.Chemscore.DEClash.Weighted>
0.2287

> <Gold.Chemscore.DEInternal.Weighted>
0.1066

> <Gold.Chemscore.Rot.Weighted>
3.5152

> <Gold.Chemscore.Internal.Correction.Weighted>
   9.000000E+99

> <Gold.Protein.RotatedTorsions>
[ 6907 6896 6895 6894 ] final  -98.31 input  -60.11 | X-H torsion
[ 7974 7965 7964 7962 ] final  -91.46 input  175.53 | X-H torsion
[ 8008 7997 7996 7995 ] final   71.19 input   59.86 | X-H torsion
[ 10167 10162 10161 10158 ] final -106.56 input  -65.29 | X-H torsion
[ 10718 10713 10712 10709 ] final -102.61 input   66.30 | X-H torsion
[ 10763 10752 10751 10750 ] final -141.92 input  -60.55 | X-H torsion
[ 11005 11000 10999 10996 ] final -147.26 input  -57.11 | X-H torsion

> <Gold.Protein.ActiveResidues>
 VAL166  LYS551  ARG553  GLY616  TRP617  ASP618  TYR619  PRO620  LYS621  CYS622 
 ASP623  PHE694  ASN695  SER759  ASP760  ASP761  ALA762  ILE779  LEU786  VAL792 
 PHE793  MET794  SER795  GLU796  ALA797  LYS798  CYS799  TRP800  GLU811  SER814 

> <Gold.Protein.RotatedAtoms>
  150.7043  134.1213  159.4035 H   0  0  0  0  0  0  0  0  0  0  0  0  # atno 6907 bound_to 6896
  151.9200  135.0300  160.0530 H   0  0  0  0  0  0  0  0  0  0  0  0  # atno 6908 bound_to 6896
  152.2264  133.4988  159.5228 H   0  0  0  0  0  0  0  0  0  0  0  0  # atno 6909 bound_to 6896
  145.4128  140.9546  143.2224 H   0  0  0  0  0  0  0  0  0  0  0  0  # atno 7974 bound_to 7965
  155.7501  140.3488  155.5146 H   0  0  0  0  0  0  0  0  0  0  0  0  # atno 8008 bound_to 7997
  155.9012  140.1034  157.1369 H   0  0  0  0  0  0  0  0  0  0  0  0  # atno 8009 bound_to 7997
  154.4044  140.1285  156.4426 H   0  0  0  0  0  0  0  0  0  0  0  0  # atno 8010 bound_to 7997
  140.1864  143.3926  152.1241 H   0  0  0  0  0  0  0  0  0  0  0  0  # atno 10167 bound_to 10162
  156.0235  130.5428  150.7134 H   0  0  0  0  0  0  0  0  0  0  0  0  # atno 10718 bound_to 10713
  154.8528  135.3510  154.5945 H   0  0  0  0  0  0  0  0  0  0  0  0  # atno 10763 bound_to 10752
  153.6554  135.6992  153.5199 H   0  0  0  0  0  0  0  0  0  0  0  0  # atno 10764 bound_to 10752
  153.2860  135.4249  155.1081 H   0  0  0  0  0  0  0  0  0  0  0  0  # atno 10765 bound_to 10752
  140.7735  134.3161  157.5067 H   0  0  0  0  0  0  0  0  0  0  0  0  # atno 11005 bound_to 11000
  144.8297  139.5649  143.6949 LP  0  0  0  0  0  0  0  0  0  0  0  0  # atno 17320 bound_to 7965
  146.2696  139.6603  142.9305 LP  0  0  0  0  0  0  0  0  0  0  0  0  # atno 17321 bound_to 7965
  139.5274  144.7119  151.5179 LP  0  0  0  0  0  0  0  0  0  0  0  0  # atno 17342 bound_to 10162
  140.6485  143.8745  150.6761 LP  0  0  0  0  0  0  0  0  0  0  0  0  # atno 17343 bound_to 10162
  157.4766  131.0898  151.0583 LP  0  0  0  0  0  0  0  0  0  0  0  0  # atno 17370 bound_to 10713
  157.1028  130.5989  149.5464 LP  0  0  0  0  0  0  0  0  0  0  0  0  # atno 17371 bound_to 10713
  139.8752  134.9275  156.3428 LP  0  0  0  0  0  0  0  0  0  0  0  0  # atno 17394 bound_to 11000
  140.9551  133.7425  156.0324 LP  0  0  0  0  0  0  0  0  0  0  0  0  # atno 17395 bound_to 11000

$$$$
