AV-unprocessed.smi:1107|AV-procd|sdf|4784|dock7
  -GOLD-   22720 3323D 1   1.00000     0.00000
 Structure written by MMmdl.
 49 50  0  0  0  0  0  0  0  0  2 V2000
  151.0916  143.7386  157.6610 C   0  0  0  0  0  0  0  0  0  0  0  0
  151.0420  142.3839  156.9896 C   0  0  0  0  0  0  0  0  0  0  0  0
  150.1144  142.3049  155.9646 N   0  0  0  0  0  0  0  0  0  0  0  0
  149.9848  141.0989  155.2989 C   0  0  0  0  0  0  0  0  0  0  0  0
  148.9330  141.0969  154.2040 C   0  0  0  0  0  0  0  0  0  0  0  0
  150.7464  140.0264  155.6344 C   0  0  0  0  0  0  0  0  0  0  0  0
  150.6201  138.6675  154.9484 C   0  0  0  0  0  0  0  0  0  0  0  0
  149.2814  137.9715  155.1849 C   0  0  0  0  0  0  0  0  0  0  0  0
  148.3485  138.5843  155.7018 O   0  0  0  0  0  0  0  0  0  0  0  0
  149.2266  136.6736  154.8473 N   0  0  0  0  0  0  0  0  0  0  0  0
  148.1389  135.7499  155.1665 C   0  0  1  0  0  0  0  0  0  0  0  0
  147.9733  135.6489  156.6887 C   0  0  0  0  0  0  0  0  0  0  0  0
  146.8320  136.1962  154.4713 C   0  0  0  0  0  0  0  0  0  0  0  0
  146.6228  135.5735  153.1364 N   0  3  0  0  0  0  0  0  0  0  0  0
  145.4575  136.1522  152.4190 C   0  0  0  0  0  0  0  0  0  0  0  0
  145.3615  135.6094  150.9830 C   0  0  0  0  0  0  0  0  0  0  0  0
  145.3169  134.0759  150.9689 C   0  0  0  0  0  0  0  0  0  0  0  0
  146.5055  133.5061  151.7536 C   0  0  0  0  0  0  0  0  0  0  0  0
  146.5568  134.0884  153.1753 C   0  0  0  0  0  0  0  0  0  0  0  0
  151.7201  140.1719  156.7424 C   0  0  0  0  0  0  0  0  0  0  0  0
  152.4212  139.2300  157.1101 O   0  0  0  0  0  0  0  0  0  0  0  0
  151.8135  141.4169  157.3837 N   0  0  0  0  0  0  0  0  0  0  0  0
  149.5286  143.0781  155.6826 H   0  0  0  0  0  0  0  0  0  0  0  0
  151.8630  143.7651  158.4317 H   0  0  0  0  0  0  0  0  0  0  0  0
  150.1334  143.9638  158.1307 H   0  0  0  0  0  0  0  0  0  0  0  0
  151.3126  144.5179  156.9311 H   0  0  0  0  0  0  0  0  0  0  0  0
  148.1689  140.3472  154.4089 H   0  0  0  0  0  0  0  0  0  0  0  0
  149.3871  140.8741  153.2384 H   0  0  0  0  0  0  0  0  0  0  0  0
  148.4359  142.0644  154.1227 H   0  0  0  0  0  0  0  0  0  0  0  0
  151.4329  138.0075  155.2547 H   0  0  0  0  0  0  0  0  0  0  0  0
  150.7562  138.7905  153.8739 H   0  0  0  0  0  0  0  0  0  0  0  0
  150.0407  136.2746  154.4014 H   0  0  0  0  0  0  0  0  0  0  0  0
  148.3850  134.7489  154.8092 H   0  0  0  0  0  0  0  0  0  0  0  0
  147.1773  134.9512  156.9503 H   0  0  0  0  0  0  0  0  0  0  0  0
  147.7266  136.6158  157.1286 H   0  0  0  0  0  0  0  0  0  0  0  0
  148.8901  135.2930  157.1602 H   0  0  0  0  0  0  0  0  0  0  0  0
  145.9705  136.0021  155.1121 H   0  0  0  0  0  0  0  0  0  0  0  0
  146.8757  137.2783  154.3376 H   0  0  0  0  0  0  0  0  0  0  0  0
  144.5425  135.9280  152.9696 H   0  0  0  0  0  0  0  0  0  0  0  0
  145.5481  137.2387  152.3819 H   0  0  0  0  0  0  0  0  0  0  0  0
  144.4762  136.0124  150.4900 H   0  0  0  0  0  0  0  0  0  0  0  0
  146.2175  135.9553  150.4052 H   0  0  0  0  0  0  0  0  0  0  0  0
  144.3826  133.7306  151.4134 H   0  0  0  0  0  0  0  0  0  0  0  0
  145.3311  133.7080  149.9425 H   0  0  0  0  0  0  0  0  0  0  0  0
  146.4369  132.4188  151.7974 H   0  0  0  0  0  0  0  0  0  0  0  0
  147.4347  133.7361  151.2316 H   0  0  0  0  0  0  0  0  0  0  0  0
  147.4268  133.6803  153.6878 H   0  0  0  0  0  0  0  0  0  0  0  0
  145.6802  133.7748  153.7446 H   0  0  0  0  0  0  0  0  0  0  0  0
  147.4361  135.8121  152.5871 H   0  0  0  0  0  0  0  0  0  0  0  0
  1 24  1  0  0  0  0
  1 25  1  0  0  0  0
  1 26  1  0  0  0  0
  1  2  1  0  0  0  0
  2  3  1  0  0  0  0
  2 22  2  0  0  0  0
  3  4  1  0  0  0  0
  3 23  1  0  0  0  0
  4  6  2  0  0  0  0
  4  5  1  0  0  0  0
  5 27  1  0  0  0  0
  5 28  1  0  0  0  0
  5 29  1  0  0  0  0
  6 20  1  0  0  0  0
  6  7  1  0  0  0  0
  7  8  1  0  0  0  0
  7 30  1  0  0  0  0
  7 31  1  0  0  0  0
  8  9  2  0  0  0  0
  8 10  1  0  0  0  0
 10 11  1  0  0  0  0
 10 32  1  0  0  0  0
 11 12  1  0  0  0  0
 11 13  1  0  0  0  0
 11 33  1  0  0  0  0
 12 34  1  0  0  0  0
 12 35  1  0  0  0  0
 12 36  1  0  0  0  0
 13 14  1  0  0  0  0
 13 37  1  0  0  0  0
 13 38  1  0  0  0  0
 14 19  1  0  0  0  0
 14 15  1  0  0  0  0
 14 49  1  0  0  0  0
 15 16  1  0  0  0  0
 15 39  1  0  0  0  0
 15 40  1  0  0  0  0
 16 17  1  0  0  0  0
 16 41  1  0  0  0  0
 16 42  1  0  0  0  0
 17 18  1  0  0  0  0
 17 43  1  0  0  0  0
 17 44  1  0  0  0  0
 18 19  1  0  0  0  0
 18 45  1  0  0  0  0
 18 46  1  0  0  0  0
 19 47  1  0  0  0  0
 19 48  1  0  0  0  0
 20 21  2  0  0  0  0
 20 22  1  0  0  0  0
M  CHG  1  14   1
M  END
> <s_m_source_file>
AV-unprocessed.smi

> <i_m_source_file_index>
1107

> <i_lp_mmshare_version>
43012

> <i_f3d_flags>
0

> <s_epik_input>
W0NIM11jMW5jKFtDSDNdKWMoYyg9TylbbkhdMSlbQ0gyXUMoPU8pW05IXVtDQEhdKFtDSDNdKVtDSDJdTjJbQ0gyXVtDSDJdW0NIMl1bQ0gyXVtDSDJdMg==

> <s_epik_cmdline>
J2VwaWtfcHl0aG9uJywgJy1waCcsICc3LjAnLCAnLXRuJywgJzgnLCAnLW1hJywgJzIwMCcsICctbWV0YWxfYmluZGluZycsICctaW1hZScsICc8aW5maWxlLm1hZT4nLCAnLW9tYWUnLCAnPG91dGZpbGUubWFlPic=

> <r_lp_tautomer_probability>
0.156392

> <r_epik_Ionization_Penalty>
0.0190033

> <r_epik_Ionization_Penalty_Charging>
0.0189172

> <r_epik_Ionization_Penalty_Neutral>
8.60838e-05

> <r_epik_State_Penalty>
1.15342

> <r_epik_Charging_Adjusted_Penalty>
1.17233

> <i_epik_Tot_Q>
1

> <i_epik_Tot_abs_Q>
1

> <r_epik_Metal_State_Penalty>
1.34593

> <b_epik_Metal_Only>
0

> <s_lp_Force_Field>
OPLS_2005

> <r_lp_Energy>
24.7354

> <b_lp_Chiralities_Consistent>
1

> <s_lp_Variant>
AV-unprocessed.smi:1107-4

> <Gold.Version>
5.8.1

> <Gold.Id.Protein>
6NUR|6NUR_protein|mol2

> <Gold.PLP.Fitness>
44.8222

> <Gold.PLP.PLP>
-34.0337

> <Gold.PLP.part.hbond>
-3.9732

> <Gold.PLP.part.metal>
0.0000

> <Gold.PLP.part.buried>
-0.7940

> <Gold.PLP.part.nonpolar>
-28.7475

> <Gold.PLP.part.repulsive>
0.1629

> <Gold.PLP.ligand.clash>
0.0000

> <Gold.PLP.ligand.torsion>
0.6402

> <Gold.PLP.Chemscore.Hbond>
4.0000

> <Gold.PLP.Chemscore.CHOScore>
0.0000

> <Gold.PLP.Chemscore.Metal>
0.0000

> <Gold.Chemscore.Hbonds>
donor molecule, donor type, donor heavy atom, donor atom, acceptor molecule, acceptor atom, score
      L1  H     3    23       P1  8028  1.00
      L1  H    14    49       P1  7948  2.00
      P1  H  7997  8010       L1    21  0.59

> <Gold.PLP.Chemscore.Internal.Correction>
0.0690

> <Gold.Rescore>
     Score         DG    S(hbond)    S(metal)    S(lipo)     H(rot)  DE(clash)    DE(int)     intcor
     15.59     -17.35       2.61        0.00      70.34       1.98       0.30       1.46       ----

> <Gold.Chemscore.Fitness>
15.5925

> <Gold.Chemscore.DG>
-17.3521

> <Gold.Chemscore.ZeroCoef>
-5.4800

> <Gold.Chemscore.Hbond>
2.6109

> <Gold.Chemscore.Metal>
0.0000

> <Gold.Chemscore.Lipo>
70.3435

> <Gold.Chemscore.Internal_Hbond>
0.0000

> <Gold.Chemscore.DEClash>
0.2964

> <Gold.Chemscore.DEInternal>
1.4633

> <Gold.Chemscore.Rot>
1.9837

> <Gold.Chemscore.Internal.Correction>
   9.000000E+99

> <Gold.Chemscore.Hbonds>
donor molecule, donor type, donor heavy atom, donor atom, acceptor molecule, acceptor atom, score
      L1  H     3    23       P1  8028  0.99
      L1  H    14    49       P1  7948  1.00
      P1  H  7997  8010       L1    21  0.13

> <Gold.Chemscore.Hbond.Weighted>
-8.7203

> <Gold.Chemscore.Metal.Weighted>
-0.0000

> <Gold.Chemscore.Lipo.Weighted>
-8.2302

> <Gold.Chemscore.Internal_Hbond.Weighted>
0.0000

> <Gold.Chemscore.DEClash.Weighted>
0.2964

> <Gold.Chemscore.DEInternal.Weighted>
1.4633

> <Gold.Chemscore.Rot.Weighted>
5.0783

> <Gold.Chemscore.Internal.Correction.Weighted>
   9.000000E+99

> <Gold.Protein.RotatedTorsions>
[ 6907 6896 6895 6894 ] final   62.38 input  -60.11 | X-H torsion
[ 7974 7965 7964 7962 ] final -155.10 input  175.53 | X-H torsion
[ 8008 7997 7996 7995 ] final   56.47 input   59.86 | X-H torsion
[ 10167 10162 10161 10158 ] final  152.77 input  -65.29 | X-H torsion
[ 10718 10713 10712 10709 ] final -140.14 input   66.30 | X-H torsion
[ 10763 10752 10751 10750 ] final  137.37 input  -60.55 | X-H torsion
[ 11005 11000 10999 10996 ] final   80.24 input  -57.11 | X-H torsion

> <Gold.Protein.ActiveResidues>
 VAL166  LYS551  ARG553  GLY616  TRP617  ASP618  TYR619  PRO620  LYS621  CYS622 
 ASP623  PHE694  ASN695  SER759  ASP760  ASP761  ALA762  ILE779  LEU786  VAL792 
 PHE793  MET794  SER795  GLU796  ALA797  LYS798  CYS799  TRP800  GLU811  SER814 

> <Gold.Protein.RotatedAtoms>
  152.4167  134.6028  160.0004 H   0  0  0  0  0  0  0  0  0  0  0  0  # atno 6907 bound_to 6896
  151.6190  133.3335  159.3092 H   0  0  0  0  0  0  0  0  0  0  0  0  # atno 6908 bound_to 6896
  150.8056  134.7217  159.6707 H   0  0  0  0  0  0  0  0  0  0  0  0  # atno 6909 bound_to 6896
  144.7657  140.4297  143.5944 H   0  0  0  0  0  0  0  0  0  0  0  0  # atno 7974 bound_to 7965
  155.5180  140.3479  155.4401 H   0  0  0  0  0  0  0  0  0  0  0  0  # atno 8008 bound_to 7997
  156.0804  140.1385  156.9746 H   0  0  0  0  0  0  0  0  0  0  0  0  # atno 8009 bound_to 7997
  154.4576  140.0947  156.6779 H   0  0  0  0  0  0  0  0  0  0  0  0  # atno 8010 bound_to 7997
  139.4831  144.5330  151.7691 H   0  0  0  0  0  0  0  0  0  0  0  0  # atno 10167 bound_to 10162
  156.3189  130.7523  151.1616 H   0  0  0  0  0  0  0  0  0  0  0  0  # atno 10718 bound_to 10713
  153.8720  135.3054  155.3442 H   0  0  0  0  0  0  0  0  0  0  0  0  # atno 10763 bound_to 10752
  154.7801  135.4840  153.9830 H   0  0  0  0  0  0  0  0  0  0  0  0  # atno 10764 bound_to 10752
  153.1401  135.6822  153.9137 H   0  0  0  0  0  0  0  0  0  0  0  0  # atno 10765 bound_to 10752
  139.9142  134.7905  156.1884 H   0  0  0  0  0  0  0  0  0  0  0  0  # atno 11005 bound_to 11000
  145.6479  139.1560  143.2879 LP  0  0  0  0  0  0  0  0  0  0  0  0  # atno 17320 bound_to 7965
  146.1761  140.6570  142.9210 LP  0  0  0  0  0  0  0  0  0  0  0  0  # atno 17321 bound_to 7965
  140.4859  144.1382  150.5941 LP  0  0  0  0  0  0  0  0  0  0  0  0  # atno 17342 bound_to 10162
  140.4226  143.2605  151.9696 LP  0  0  0  0  0  0  0  0  0  0  0  0  # atno 17343 bound_to 10162
  157.7407  131.0513  150.5145 LP  0  0  0  0  0  0  0  0  0  0  0  0  # atno 17370 bound_to 10713
  156.5294  130.4181  149.6209 LP  0  0  0  0  0  0  0  0  0  0  0  0  # atno 17371 bound_to 10713
  141.0599  133.6847  156.1932 LP  0  0  0  0  0  0  0  0  0  0  0  0  # atno 17394 bound_to 11000
  140.6677  134.4901  157.5586 LP  0  0  0  0  0  0  0  0  0  0  0  0  # atno 17395 bound_to 11000

$$$$
