AV-unprocessed.smi:686|AV-procd|sdf|3346|dock3
  -GOLD-   22720 0323D 1   1.00000     0.00000
 Structure written by MMmdl.
 40 41  0  0  0  0  0  0  0  0  3 V2000
  149.8652  132.9544  155.9197 C   0  0  0  0  0  0  0  0  0  0  0  0
  149.2495  134.0477  155.0205 C   0  0  1  0  0  0  0  0  0  0  0  0
  148.3535  133.5240  153.8973 C   0  0  0  0  0  0  0  0  0  0  0  0
  147.6355  134.7183  153.3960 N   0  3  1  0  0  0  0  0  0  0  0  0
  146.3479  134.4490  152.6940 C   0  0  0  0  0  0  0  0  0  0  0  0
  146.5045  133.3726  151.6024 C   0  0  0  0  0  0  0  0  0  0  0  0
  145.7812  135.7355  152.0637 C   0  0  0  0  0  0  0  0  0  0  0  0
  147.5566  135.6922  154.5186 C   0  0  0  0  0  0  0  0  0  0  0  0
  148.3824  135.1283  155.6935 C   0  0  1  0  0  0  0  0  0  0  0  0
  147.4871  134.5377  156.6870 N   0  5  0  0  0  0  0  0  0  0  0  0
  147.9448  134.3473  158.2371 S   0  0  0  0  0  0  0  0  0  0  0  0
  148.3566  132.9726  158.5690 O   0  0  0  0  0  0  0  0  0  0  0  0
  148.8587  135.4236  158.6487 O   0  0  0  0  0  0  0  0  0  0  0  0
  146.3670  134.6615  159.1521 C   0  0  0  0  0  0  0  0  0  0  0  0
  146.6010  135.6615  160.2490 C   0  0  0  0  0  0  0  0  0  0  0  0
  146.5552  135.4579  161.6562 C   0  0  0  0  0  0  0  0  0  0  0  0
  146.8469  136.6898  162.1664 C   0  0  0  0  0  0  0  0  0  0  0  0
  147.0642  137.5796  161.1654 O   0  0  0  0  0  0  0  0  0  0  0  0
  146.9087  136.9129  159.9448 N   0  0  0  0  0  0  0  0  0  0  0  0
  149.1074  132.3238  156.3877 H   0  0  0  0  0  0  0  0  0  0  0  0
  150.4830  133.3806  156.7119 H   0  0  0  0  0  0  0  0  0  0  0  0
  150.5054  132.2965  155.3318 H   0  0  0  0  0  0  0  0  0  0  0  0
  150.0820  134.5691  154.5447 H   0  0  0  0  0  0  0  0  0  0  0  0
  148.9341  133.0518  153.1041 H   0  0  0  0  0  0  0  0  0  0  0  0
  147.6447  132.7820  154.2756 H   0  0  0  0  0  0  0  0  0  0  0  0
  145.6322  134.0808  153.4310 H   0  0  0  0  0  0  0  0  0  0  0  0
  145.5679  133.2249  151.0637 H   0  0  0  0  0  0  0  0  0  0  0  0
  146.7824  132.4040  152.0177 H   0  0  0  0  0  0  0  0  0  0  0  0
  147.2632  133.6555  150.8718 H   0  0  0  0  0  0  0  0  0  0  0  0
  144.8496  135.5324  151.5343 H   0  0  0  0  0  0  0  0  0  0  0  0
  146.4804  136.1654  151.3459 H   0  0  0  0  0  0  0  0  0  0  0  0
  145.5598  136.4985  152.8092 H   0  0  0  0  0  0  0  0  0  0  0  0
  147.9811  136.6362  154.1764 H   0  0  0  0  0  0  0  0  0  0  0  0
  146.5252  135.8977  154.8094 H   0  0  0  0  0  0  0  0  0  0  0  0
  149.0193  135.8996  156.1271 H   0  0  0  0  0  0  0  0  0  0  0  0
  145.6290  135.0324  158.4415 H   0  0  0  0  0  0  0  0  0  0  0  0
  145.9962  133.7188  159.5542 H   0  0  0  0  0  0  0  0  0  0  0  0
  146.3353  134.5525  162.2021 H   0  0  0  0  0  0  0  0  0  0  0  0
  146.9355  137.0747  163.1716 H   0  0  0  0  0  0  0  0  0  0  0  0
  148.2539  135.1393  152.7179 H   0  0  0  0  0  0  0  0  0  0  0  0
  1  2  1  0  0  0  0
  1 20  1  0  0  0  0
  1 21  1  0  0  0  0
  1 22  1  0  0  0  0
  2  9  1  0  0  0  0
  2  3  1  0  0  0  0
  2 23  1  0  0  0  0
  3  4  1  0  0  0  0
  3 24  1  0  0  0  0
  3 25  1  0  0  0  0
  4  5  1  0  0  0  0
  4  8  1  0  0  0  0
  4 40  1  0  0  0  0
  5  6  1  0  0  0  0
  5  7  1  0  0  0  0
  5 26  1  0  0  0  0
  6 27  1  0  0  0  0
  6 28  1  0  0  0  0
  6 29  1  0  0  0  0
  7 30  1  0  0  0  0
  7 31  1  0  0  0  0
  7 32  1  0  0  0  0
  8  9  1  0  0  0  0
  8 33  1  0  0  0  0
  8 34  1  0  0  0  0
  9 10  1  0  0  0  0
  9 35  1  0  0  0  0
 10 11  1  0  0  0  0
 11 12  2  0  0  0  0
 11 13  2  0  0  0  0
 11 14  1  0  0  0  0
 14 15  1  0  0  0  0
 14 36  1  0  0  0  0
 14 37  1  0  0  0  0
 15 19  2  0  0  0  0
 15 16  1  0  0  0  0
 16 17  2  0  0  0  0
 16 38  1  0  0  0  0
 17 18  1  0  0  0  0
 17 39  1  0  0  0  0
 18 19  1  0  0  0  0
M  CHG  1   4   1
M  CHG  1  10  -1
M  END
> <s_m_source_file>
AV-unprocessed.smi

> <i_m_source_file_index>
686

> <i_lp_mmshare_version>
43012

> <i_f3d_flags>
0

> <s_epik_input>
W0NIM11bQ0BASF0xW0NIMl1OKFtDSF0oW0NIM10pW0NIM10pW0NIMl1bQ0BIXTFbTkhdUyg9TykoPU8pW0NIMl1jMltjSF1bY0hdb24y

> <s_epik_cmdline>
J2VwaWtfcHl0aG9uJywgJy1waCcsICc3LjAnLCAnLXRuJywgJzgnLCAnLW1hJywgJzIwMCcsICctbWV0YWxfYmluZGluZycsICctaW1hZScsICc8aW5maWxlLm1hZT4nLCAnLW9tYWUnLCAnPG91dGZpbGUubWFlPic=

> <r_epik_Ionization_Penalty>
3.62478

> <r_epik_Ionization_Penalty_Charging>
3.62478

> <r_epik_Ionization_Penalty_Neutral>
2.03645e-10

> <r_epik_State_Penalty>
3.6247

> <r_epik_Charging_Adjusted_Penalty>
7.24949

> <i_epik_Tot_Q>
0

> <i_epik_Tot_abs_Q>
2

> <r_epik_Metal_State_Penalty>
0.530836

> <b_epik_Metal_Only>
1

> <s_lp_Force_Field>
OPLS_2005

> <r_lp_Energy>
19.0269

> <b_lp_Chiralities_Consistent>
1

> <s_lp_Variant>
AV-unprocessed.smi:686-10

> <Gold.Version>
5.8.1

> <Gold.Id.Protein>
6NUR|6NUR_protein|mol2

> <Gold.PLP.Fitness>
42.1679

> <Gold.PLP.PLP>
-28.9122

> <Gold.PLP.part.hbond>
-5.0000

> <Gold.PLP.part.metal>
0.0000

> <Gold.PLP.part.buried>
-3.4751

> <Gold.PLP.part.nonpolar>
-20.5003

> <Gold.PLP.part.repulsive>
0.0000

> <Gold.PLP.ligand.clash>
0.0000

> <Gold.PLP.ligand.torsion>
1.2033

> <Gold.PLP.Chemscore.Hbond>
4.8720

> <Gold.PLP.Chemscore.CHOScore>
0.0000

> <Gold.PLP.Chemscore.Metal>
0.0000

> <Gold.Chemscore.Hbonds>
donor molecule, donor type, donor heavy atom, donor atom, acceptor molecule, acceptor atom, score
      L1  H     4    40       P1  7948  1.95
      P1  H  6896  6908       L1    13  0.60
      P1  H  6931  6943       L1    18  0.29
      P1  H  6934  6947       L1    18  0.83

> <Gold.PLP.Chemscore.Internal.Correction>
1.0463

> <Gold.Rescore>
     Score         DG    S(hbond)    S(metal)    S(lipo)     H(rot)  DE(clash)    DE(int)     intcor
     16.29     -19.05       3.34        0.00      55.81       1.61       0.00       2.76       ----

> <Gold.Chemscore.Fitness>
16.2893

> <Gold.Chemscore.DG>
-19.0477

> <Gold.Chemscore.ZeroCoef>
-5.4800

> <Gold.Chemscore.Hbond>
3.3449

> <Gold.Chemscore.Metal>
0.0000

> <Gold.Chemscore.Lipo>
55.8104

> <Gold.Chemscore.Internal_Hbond>
0.0000

> <Gold.Chemscore.DEClash>
0.0000

> <Gold.Chemscore.DEInternal>
2.7583

> <Gold.Chemscore.Rot>
1.6149

> <Gold.Chemscore.Internal.Correction>
   9.000000E+99

> <Gold.Chemscore.Hbonds>
donor molecule, donor type, donor heavy atom, donor atom, acceptor molecule, acceptor atom, score
      L1  H     4    40       P1  7948  0.81
      P1  H  6896  6908       L1    13  0.39
      P1  H  6931  6943       L1    18  0.04
      P1  H  6934  6947       L1    18  0.61

> <Gold.Chemscore.Hbond.Weighted>
-11.1720

> <Gold.Chemscore.Metal.Weighted>
-0.0000

> <Gold.Chemscore.Lipo.Weighted>
-6.5298

> <Gold.Chemscore.Internal_Hbond.Weighted>
0.0000

> <Gold.Chemscore.DEClash.Weighted>
0.0000

> <Gold.Chemscore.DEInternal.Weighted>
2.7583

> <Gold.Chemscore.Rot.Weighted>
4.1341

> <Gold.Chemscore.Internal.Correction.Weighted>
   9.000000E+99

> <Gold.Protein.RotatedTorsions>
[ 6907 6896 6895 6894 ] final  165.12 input  -60.11 | X-H torsion
[ 7974 7965 7964 7962 ] final  -85.76 input  175.53 | X-H torsion
[ 8008 7997 7996 7995 ] final   59.35 input   59.86 | X-H torsion
[ 10167 10162 10161 10158 ] final   23.18 input  -65.29 | X-H torsion
[ 10718 10713 10712 10709 ] final  171.00 input   66.30 | X-H torsion
[ 10763 10752 10751 10750 ] final   98.98 input  -60.55 | X-H torsion
[ 11005 11000 10999 10996 ] final  -44.69 input  -57.11 | X-H torsion

> <Gold.Protein.ActiveResidues>
 VAL166  LYS551  ARG553  GLY616  TRP617  ASP618  TYR619  PRO620  LYS621  CYS622 
 ASP623  PHE694  ASN695  SER759  ASP760  ASP761  ALA762  ILE779  LEU786  VAL792 
 PHE793  MET794  SER795  GLU796  ALA797  LYS798  CYS799  TRP800  GLU811  SER814 

> <Gold.Protein.RotatedAtoms>
  151.8994  133.3534  159.3825 H   0  0  0  0  0  0  0  0  0  0  0  0  # atno 6907 bound_to 6896
  150.7084  134.4844  159.5495 H   0  0  0  0  0  0  0  0  0  0  0  0  # atno 6908 bound_to 6896
  152.2429  134.8210  160.0508 H   0  0  0  0  0  0  0  0  0  0  0  0  # atno 6909 bound_to 6896
  145.4889  140.9553  143.1823 H   0  0  0  0  0  0  0  0  0  0  0  0  # atno 7974 bound_to 7965
  155.5648  140.3489  155.4500 H   0  0  0  0  0  0  0  0  0  0  0  0  # atno 8008 bound_to 7997
  156.0488  140.1313  157.0099 H   0  0  0  0  0  0  0  0  0  0  0  0  # atno 8009 bound_to 7997
  154.4424  140.1009  156.6330 H   0  0  0  0  0  0  0  0  0  0  0  0  # atno 8010 bound_to 7997
  140.5290  143.9874  150.6455 H   0  0  0  0  0  0  0  0  0  0  0  0  # atno 10167 bound_to 10162
  157.0000  131.0173  151.2833 H   0  0  0  0  0  0  0  0  0  0  0  0  # atno 10718 bound_to 10713
  153.2957  135.4129  155.1207 H   0  0  0  0  0  0  0  0  0  0  0  0  # atno 10763 bound_to 10752
  154.8534  135.3529  154.5920 H   0  0  0  0  0  0  0  0  0  0  0  0  # atno 10764 bound_to 10752
  153.6344  135.7059  153.5322 H   0  0  0  0  0  0  0  0  0  0  0  0  # atno 10765 bound_to 10752
  141.0467  133.6758  156.2908 H   0  0  0  0  0  0  0  0  0  0  0  0  # atno 11005 bound_to 11000
  144.7845  139.6455  143.7140 LP  0  0  0  0  0  0  0  0  0  0  0  0  # atno 17320 bound_to 7965
  146.2296  139.5788  142.9564 LP  0  0  0  0  0  0  0  0  0  0  0  0  # atno 17321 bound_to 7965
  140.3244  143.3117  152.0751 LP  0  0  0  0  0  0  0  0  0  0  0  0  # atno 17342 bound_to 10162
  139.4948  144.6552  151.6589 LP  0  0  0  0  0  0  0  0  0  0  0  0  # atno 17343 bound_to 10162
  157.5397  130.8112  149.8014 LP  0  0  0  0  0  0  0  0  0  0  0  0  # atno 17370 bound_to 10713
  156.0175  130.3808  150.2066 LP  0  0  0  0  0  0  0  0  0  0  0  0  # atno 17371 bound_to 10713
  140.6134  134.5436  157.5537 LP  0  0  0  0  0  0  0  0  0  0  0  0  # atno 17394 bound_to 11000
  139.9317  134.7951  156.0912 LP  0  0  0  0  0  0  0  0  0  0  0  0  # atno 17395 bound_to 11000

$$$$
