AV-unprocessed.smi:55|AV-procd|sdf|575|dock6
  -GOLD-   2262016483D 1   1.00000     0.00000
 Structure written by MMmdl.
 30 31  0  0  0  0  0  0  0  0  2 V2000
  148.5391  135.2440  155.8967 C   0  0  0  0  0  0  0  0  0  0  0  0
  149.8018  136.0682  156.0781 C   0  0  0  0  0  0  0  0  0  0  0  0
  149.9375  137.3057  155.5512 C   0  0  0  0  0  0  0  0  0  0  0  0
  151.0910  138.0536  155.7205 N   0  0  0  0  0  0  0  0  0  0  0  0
  151.2370  139.4414  155.1293 C   0  0  2  0  0  0  0  0  0  0  0  0
  151.2478  140.5031  156.2398 C   0  0  0  0  0  0  0  0  0  0  0  0
  150.2458  141.5192  155.7268 C   0  0  2  0  0  0  0  0  0  0  0  0
  149.6297  142.2090  156.7952 O   0  0  0  0  0  0  0  0  0  0  0  0
  149.2640  140.6389  154.9541 C   0  0  1  0  0  0  0  0  0  0  0  0
  148.4392  141.4063  153.9098 C   0  0  0  0  0  0  0  0  0  0  0  0
  147.9420  140.5170  152.9326 O   0  0  0  0  0  0  0  0  0  0  0  0
  150.1438  139.7264  154.3032 O   0  0  0  0  0  0  0  0  0  0  0  0
  152.1712  137.5141  156.4670 C   0  0  0  0  0  0  0  0  0  0  0  0
  153.1818  138.2046  156.6020 O   0  0  0  0  0  0  0  0  0  0  0  0
  152.0438  136.2660  157.0009 N   0  5  0  0  0  0  0  0  0  0  0  0
  150.9187  135.5103  156.8502 C   0  0  0  0  0  0  0  0  0  0  0  0
  150.8165  134.3856  157.3396 O   0  0  0  0  0  0  0  0  0  0  0  0
  152.1445  139.4156  154.5238 H   0  0  0  0  0  0  0  0  0  0  0  0
  150.7385  142.2247  155.0563 H   0  0  0  0  0  0  0  0  0  0  0  0
  148.6204  140.1019  155.6540 H   0  0  0  0  0  0  0  0  0  0  0  0
  147.7964  135.7807  155.3056 H   0  0  0  0  0  0  0  0  0  0  0  0
  148.0953  135.0097  156.8646 H   0  0  0  0  0  0  0  0  0  0  0  0
  148.7657  134.3080  155.3853 H   0  0  0  0  0  0  0  0  0  0  0  0
  149.1136  137.7100  154.9838 H   0  0  0  0  0  0  0  0  0  0  0  0
  150.9088  140.0585  157.1775 H   0  0  0  0  0  0  0  0  0  0  0  0
  152.2481  140.9123  156.3840 H   0  0  0  0  0  0  0  0  0  0  0  0
  149.3246  143.0444  156.4756 H   0  0  0  0  0  0  0  0  0  0  0  0
  147.5804  141.8806  154.3854 H   0  0  0  0  0  0  0  0  0  0  0  0
  149.0275  142.1962  153.4419 H   0  0  0  0  0  0  0  0  0  0  0  0
  148.6735  140.1543  152.4570 H   0  0  0  0  0  0  0  0  0  0  0  0
  1  2  1  0  0  0  0
  1 21  1  0  0  0  0
  1 22  1  0  0  0  0
  1 23  1  0  0  0  0
  2 16  1  0  0  0  0
  2  3  2  0  0  0  0
  3  4  1  0  0  0  0
  3 24  1  0  0  0  0
  4  5  1  0  0  0  0
  4 13  1  0  0  0  0
  5 18  1  0  0  0  0
  5 12  1  0  0  0  0
  5  6  1  0  0  0  0
  6  7  1  0  0  0  0
  6 25  1  0  0  0  0
  6 26  1  0  0  0  0
  7 19  1  0  0  0  0
  7  8  1  0  0  0  0
  7  9  1  0  0  0  0
  8 27  1  0  0  0  0
  9 20  1  0  0  0  0
  9 10  1  0  0  0  0
  9 12  1  0  0  0  0
 10 11  1  0  0  0  0
 10 28  1  0  0  0  0
 10 29  1  0  0  0  0
 11 30  1  0  0  0  0
 13 14  2  0  0  0  0
 13 15  1  0  0  0  0
 15 16  1  0  0  0  0
 16 17  2  0  0  0  0
M  CHG  1  15  -1
M  END
> <s_m_source_file>
AV-unprocessed.smi

> <i_m_source_file_index>
55

> <i_lp_mmshare_version>
43012

> <i_f3d_flags>
0

> <s_epik_input>
Tz1jMVtuSF1jKD1PKW4oW2NIXWMxW0NIM10pW0NAQEhdMltDSDJdW0NAQEhdKFtPSF0pW0NAQEhdKE8yKVtDSDJdW09IXQ==

> <s_epik_cmdline>
J2VwaWtfcHl0aG9uJywgJy1waCcsICc3LjAnLCAnLXRuJywgJzgnLCAnLW1hJywgJzIwMCcsICctbWV0YWxfYmluZGluZycsICctaW1hZScsICc8aW5maWxlLm1hZT4nLCAnLW9tYWUnLCAnPG91dGZpbGUubWFlPic=

> <r_lp_tautomer_probability>
0.999537

> <r_epik_Ionization_Penalty>
3.66603

> <r_epik_Ionization_Penalty_Charging>
1.09773e-07

> <r_epik_Ionization_Penalty_Neutral>
3.66603

> <r_epik_State_Penalty>
3.66562

> <r_epik_Charging_Adjusted_Penalty>
3.66562

> <i_epik_Tot_Q>
-1

> <i_epik_Tot_abs_Q>
1

> <r_epik_Metal_State_Penalty>
0.234536

> <b_epik_Metal_Only>
1

> <s_epik_Chemistry_Notes>
This compound contains an acetal/aminal-like group ( X-CH(R)-Y where X, Y are N, S, or O) that may be acid/base labile, releasing an aldehyde.

> <s_lp_Force_Field>
OPLS_2005

> <r_lp_Energy>
36.1714

> <b_lp_Chiralities_Consistent>
1

> <s_lp_Variant>
AV-unprocessed.smi:55-15

> <Gold.Version>
5.8.1

> <Gold.Id.Protein>
6NUR|6NUR_protein|mol2

> <Gold.PLP.Fitness>
41.0276

> <Gold.PLP.PLP>
-27.1517

> <Gold.PLP.part.hbond>
-6.0000

> <Gold.PLP.part.metal>
0.0000

> <Gold.PLP.part.buried>
-2.0770

> <Gold.PLP.part.nonpolar>
-19.4291

> <Gold.PLP.part.repulsive>
0.9538

> <Gold.PLP.ligand.clash>
0.0000

> <Gold.PLP.ligand.torsion>
0.2882

> <Gold.PLP.Chemscore.Hbond>
4.8120

> <Gold.PLP.Chemscore.CHOScore>
0.0000

> <Gold.PLP.Chemscore.Metal>
0.0000

> <Gold.Chemscore.Hbonds>
donor molecule, donor type, donor heavy atom, donor atom, acceptor molecule, acceptor atom, score
      L1  H     8    27       P1  8028  1.00
      L1  H    11    30       P1  7957  1.00
      P1  H  6896  6907       L1    17  0.43
      P1  H  7997  8008       L1    14  0.36
      P1  H 10752 10763       L1    15  0.11

> <Gold.PLP.Chemscore.Internal.Correction>
0.0163

> <Gold.Rescore>
     Score         DG    S(hbond)    S(metal)    S(lipo)     H(rot)  DE(clash)    DE(int)     intcor
     11.76     -12.84       2.94        0.00      37.83       2.69       0.57       0.51       ----

> <Gold.Chemscore.Fitness>
11.7559

> <Gold.Chemscore.DG>
-12.8390

> <Gold.Chemscore.ZeroCoef>
-5.4800

> <Gold.Chemscore.Hbond>
2.9378

> <Gold.Chemscore.Metal>
0.0000

> <Gold.Chemscore.Lipo>
37.8280

> <Gold.Chemscore.Internal_Hbond>
0.0000

> <Gold.Chemscore.DEClash>
0.5699

> <Gold.Chemscore.DEInternal>
0.5132

> <Gold.Chemscore.Rot>
2.6871

> <Gold.Chemscore.Internal.Correction>
   9.000000E+99

> <Gold.Chemscore.Hbonds>
donor molecule, donor type, donor heavy atom, donor atom, acceptor molecule, acceptor atom, score
      L1  H     8    27       P1  8028  1.00
      L1  H    11    30       P1  7957  0.95
      P1  H  6896  6907       L1    17  0.42
      P1  H  7997  8008       L1    14  0.35

> <Gold.Chemscore.Hbond.Weighted>
-9.8122

> <Gold.Chemscore.Metal.Weighted>
-0.0000

> <Gold.Chemscore.Lipo.Weighted>
-4.4259

> <Gold.Chemscore.Internal_Hbond.Weighted>
0.0000

> <Gold.Chemscore.DEClash.Weighted>
0.5699

> <Gold.Chemscore.DEInternal.Weighted>
0.5132

> <Gold.Chemscore.Rot.Weighted>
6.8791

> <Gold.Chemscore.Internal.Correction.Weighted>
   9.000000E+99

> <Gold.Protein.RotatedTorsions>
[ 6907 6896 6895 6894 ] final -129.91 input  -60.11 | X-H torsion
[ 7974 7965 7964 7962 ] final   95.67 input  175.53 | X-H torsion
[ 8008 7997 7996 7995 ] final  -38.91 input   59.86 | X-H torsion
[ 10167 10162 10161 10158 ] final  -70.96 input  -65.29 | X-H torsion
[ 10718 10713 10712 10709 ] final   38.57 input   66.30 | X-H torsion
[ 10763 10752 10751 10750 ] final  115.47 input  -60.55 | X-H torsion
[ 11005 11000 10999 10996 ] final  -64.74 input  -57.11 | X-H torsion

> <Gold.Protein.ActiveResidues>
 VAL166  LYS551  ARG553  GLY616  TRP617  ASP618  TYR619  PRO620  LYS621  CYS622 
 ASP623  PHE694  ASN695  SER759  ASP760  ASP761  ALA762  ILE779  LEU786  VAL792 
 PHE793  MET794  SER795  GLU796  ALA797  LYS798  CYS799  TRP800  GLU811  SER814 

> <Gold.Protein.RotatedAtoms>
  150.9339  133.6735  159.2804 H   0  0  0  0  0  0  0  0  0  0  0  0  # atno 6907 bound_to 6896
  151.4147  135.0988  159.9605 H   0  0  0  0  0  0  0  0  0  0  0  0  # atno 6908 bound_to 6896
  152.5038  133.8804  159.7398 H   0  0  0  0  0  0  0  0  0  0  0  0  # atno 6909 bound_to 6896
  145.4491  139.2295  143.3049 H   0  0  0  0  0  0  0  0  0  0  0  0  # atno 7974 bound_to 7965
  154.4030  140.1565  156.2778 H   0  0  0  0  0  0  0  0  0  0  0  0  # atno 8008 bound_to 7997
  155.8896  140.3439  155.5925 H   0  0  0  0  0  0  0  0  0  0  0  0  # atno 8009 bound_to 7997
  155.7573  140.0813  157.2163 H   0  0  0  0  0  0  0  0  0  0  0  0  # atno 8010 bound_to 7997
  140.5311  143.2321  151.7260 H   0  0  0  0  0  0  0  0  0  0  0  0  # atno 10167 bound_to 10162
  157.3604  130.7646  149.7043 H   0  0  0  0  0  0  0  0  0  0  0  0  # atno 10718 bound_to 10713
  153.5228  135.3594  155.2639 H   0  0  0  0  0  0  0  0  0  0  0  0  # atno 10763 bound_to 10752
  154.8733  135.4049  154.3241 H   0  0  0  0  0  0  0  0  0  0  0  0  # atno 10764 bound_to 10752
  153.3914  135.7072  153.6559 H   0  0  0  0  0  0  0  0  0  0  0  0  # atno 10765 bound_to 10752
  141.1434  133.6670  156.5879 H   0  0  0  0  0  0  0  0  0  0  0  0  # atno 11005 bound_to 11000
  146.2514  140.5248  142.8892 LP  0  0  0  0  0  0  0  0  0  0  0  0  # atno 17320 bound_to 7965
  144.8073  140.6322  143.6439 LP  0  0  0  0  0  0  0  0  0  0  0  0  # atno 17321 bound_to 7965
  139.4954  144.4113  152.0078 LP  0  0  0  0  0  0  0  0  0  0  0  0  # atno 17342 bound_to 10162
  140.3215  144.3422  150.6008 LP  0  0  0  0  0  0  0  0  0  0  0  0  # atno 17343 bound_to 10162
  155.9736  130.4115  150.3986 LP  0  0  0  0  0  0  0  0  0  0  0  0  # atno 17370 bound_to 10713
  157.2062  131.0450  151.2624 LP  0  0  0  0  0  0  0  0  0  0  0  0  # atno 17371 bound_to 10713
  140.3786  134.7543  157.4646 LP  0  0  0  0  0  0  0  0  0  0  0  0  # atno 17394 bound_to 11000
  140.0655  134.5936  155.8700 LP  0  0  0  0  0  0  0  0  0  0  0  0  # atno 17395 bound_to 11000

$$$$
