AV-unprocessed.smi:1559|AV-procd|sdf|6274|dock5
  -GOLD-   22720 6463D 1   1.00000     0.00000
 Structure written by MMmdl.
 51 52  0  0  0  0  0  0  0  0  2 V2000
  146.3875  134.4596  153.4692 C   0  0  0  0  0  0  0  0  0  0  0  0
  146.4764  135.0082  152.0911 N   0  3  0  0  0  0  0  0  0  0  0  0
  146.4628  133.9081  151.0922 C   0  0  0  0  0  0  0  0  0  0  0  0
  145.5544  136.1607  151.7867 C   0  0  0  0  0  0  0  0  0  0  0  0
  145.9195  136.8453  150.4487 C   0  0  0  0  0  0  0  0  0  0  0  0
  144.0887  135.6715  151.6781 C   0  0  0  0  0  0  0  0  0  0  0  0
  145.6211  137.2297  152.9177 C   0  0  0  0  0  0  0  0  0  0  0  0
  146.9816  137.6541  153.2508 N   0  0  0  0  0  0  0  0  0  0  0  0
  147.3111  138.5395  154.2021 C   0  0  0  0  0  0  0  0  0  0  0  0
  146.4865  139.0934  154.9281 O   0  0  0  0  0  0  0  0  0  0  0  0
  148.6390  138.7418  154.2383 N   0  0  0  0  0  0  0  0  0  0  0  0
  149.3795  139.5806  155.1141 C   0  0  0  0  0  0  0  0  0  0  0  0
  150.7860  139.7230  155.0823 C   0  0  0  0  0  0  0  0  0  0  0  0
  151.4035  140.6007  155.9937 C   0  0  0  0  0  0  0  0  0  0  0  0
  150.6042  141.3248  156.9096 C   0  0  0  0  0  0  0  0  0  0  0  0
  151.2040  142.2085  157.8330 N   0  0  0  0  0  0  0  0  0  0  0  0
  151.6110  143.5286  157.3545 C   0  0  0  0  0  0  0  0  0  0  0  0
  151.9625  144.4435  158.5397 C   0  0  0  0  0  0  0  0  0  0  0  0
  152.9567  143.8216  159.3468 O   0  0  0  0  0  0  0  0  0  0  0  0
  152.4990  142.5894  159.8934 C   0  0  0  0  0  0  0  0  0  0  0  0
  152.1623  141.6075  158.7577 C   0  0  0  0  0  0  0  0  0  0  0  0
  149.2552  141.1919  156.9300 N   0  0  0  0  0  0  0  0  0  0  0  0
  148.6672  140.3505  156.0546 C   0  0  0  0  0  0  0  0  0  0  0  0
  145.3885  134.0829  153.6893 H   0  0  0  0  0  0  0  0  0  0  0  0
  146.6555  135.1995  154.2223 H   0  0  0  0  0  0  0  0  0  0  0  0
  147.0865  133.6322  153.5963 H   0  0  0  0  0  0  0  0  0  0  0  0
  145.5239  133.3547  151.1186 H   0  0  0  0  0  0  0  0  0  0  0  0
  147.2648  133.2000  151.3031 H   0  0  0  0  0  0  0  0  0  0  0  0
  146.6247  134.2652  150.0766 H   0  0  0  0  0  0  0  0  0  0  0  0
  145.2198  137.6506  150.2211 H   0  0  0  0  0  0  0  0  0  0  0  0
  145.8873  136.1507  149.6097 H   0  0  0  0  0  0  0  0  0  0  0  0
  146.9131  137.2927  150.4706 H   0  0  0  0  0  0  0  0  0  0  0  0
  143.3939  136.5104  151.6227 H   0  0  0  0  0  0  0  0  0  0  0  0
  143.7976  135.0650  152.5361 H   0  0  0  0  0  0  0  0  0  0  0  0
  143.9192  135.0757  150.7808 H   0  0  0  0  0  0  0  0  0  0  0  0
  145.0731  138.1258  152.6265 H   0  0  0  0  0  0  0  0  0  0  0  0
  145.1042  136.8735  153.8110 H   0  0  0  0  0  0  0  0  0  0  0  0
  147.7274  137.2662  152.6919 H   0  0  0  0  0  0  0  0  0  0  0  0
  149.1802  138.2862  153.5180 H   0  0  0  0  0  0  0  0  0  0  0  0
  151.4015  139.1885  154.3756 H   0  0  0  0  0  0  0  0  0  0  0  0
  152.4788  140.6977  155.9867 H   0  0  0  0  0  0  0  0  0  0  0  0
  152.4739  143.4234  156.6958 H   0  0  0  0  0  0  0  0  0  0  0  0
  150.8088  143.9842  156.7724 H   0  0  0  0  0  0  0  0  0  0  0  0
  152.3445  145.3975  158.1765 H   0  0  0  0  0  0  0  0  0  0  0  0
  151.0768  144.6624  159.1383 H   0  0  0  0  0  0  0  0  0  0  0  0
  153.2795  142.1729  160.5301 H   0  0  0  0  0  0  0  0  0  0  0  0
  151.6286  142.7618  160.5288 H   0  0  0  0  0  0  0  0  0  0  0  0
  151.7831  140.6829  159.1901 H   0  0  0  0  0  0  0  0  0  0  0  0
  153.0679  141.3513  158.2067 H   0  0  0  0  0  0  0  0  0  0  0  0
  147.5902  140.2870  156.1129 H   0  0  0  0  0  0  0  0  0  0  0  0
  147.4039  135.4040  152.0328 H   0  0  0  0  0  0  0  0  0  0  0  0
  1  2  1  0  0  0  0
  1 24  1  0  0  0  0
  1 25  1  0  0  0  0
  1 26  1  0  0  0  0
  2  3  1  0  0  0  0
  2  4  1  0  0  0  0
  2 51  1  0  0  0  0
  3 27  1  0  0  0  0
  3 28  1  0  0  0  0
  3 29  1  0  0  0  0
  4  5  1  0  0  0  0
  4  6  1  0  0  0  0
  4  7  1  0  0  0  0
  5 30  1  0  0  0  0
  5 31  1  0  0  0  0
  5 32  1  0  0  0  0
  6 33  1  0  0  0  0
  6 34  1  0  0  0  0
  6 35  1  0  0  0  0
  7  8  1  0  0  0  0
  7 36  1  0  0  0  0
  7 37  1  0  0  0  0
  8  9  1  0  0  0  0
  8 38  1  0  0  0  0
  9 10  2  0  0  0  0
  9 11  1  0  0  0  0
 11 12  1  0  0  0  0
 11 39  1  0  0  0  0
 12 23  1  0  0  0  0
 12 13  2  0  0  0  0
 13 14  1  0  0  0  0
 13 40  1  0  0  0  0
 14 15  2  0  0  0  0
 14 41  1  0  0  0  0
 15 16  1  0  0  0  0
 15 22  1  0  0  0  0
 16 21  1  0  0  0  0
 16 17  1  0  0  0  0
 17 18  1  0  0  0  0
 17 42  1  0  0  0  0
 17 43  1  0  0  0  0
 18 19  1  0  0  0  0
 18 44  1  0  0  0  0
 18 45  1  0  0  0  0
 19 20  1  0  0  0  0
 20 21  1  0  0  0  0
 20 46  1  0  0  0  0
 20 47  1  0  0  0  0
 21 48  1  0  0  0  0
 21 49  1  0  0  0  0
 22 23  2  0  0  0  0
 23 50  1  0  0  0  0
M  CHG  1   2   1
M  END
> <s_m_source_file>
AV-unprocessed.smi

> <i_m_source_file_index>
1559

> <i_lp_mmshare_version>
43012

> <i_f3d_flags>
0

> <s_epik_input>
W0NIM11OKFtDSDNdKUMoW0NIM10pKFtDSDNdKVtDSDJdW05IXUMoPU8pW05IXWMxW2NIXVtjSF1jKG5bY0hdMSlOMltDSDJdW0NIMl1PW0NIMl1bQ0gyXTI=

> <s_epik_cmdline>
J2VwaWtfcHl0aG9uJywgJy1waCcsICc3LjAnLCAnLXRuJywgJzgnLCAnLW1hJywgJzIwMCcsICctbWV0YWxfYmluZGluZycsICctaW1hZScsICc8aW5maWxlLm1hZT4nLCAnLW9tYWUnLCAnPG91dGZpbGUubWFlPic=

> <r_lp_tautomer_probability>
1

> <r_epik_Ionization_Penalty>
0.00606683

> <r_epik_Ionization_Penalty_Charging>
0.00433655

> <r_epik_Ionization_Penalty_Neutral>
0.00173028

> <r_epik_State_Penalty>
-0

> <r_epik_Charging_Adjusted_Penalty>
0.00433655

> <i_epik_Tot_Q>
1

> <i_epik_Tot_abs_Q>
1

> <r_epik_Metal_State_Penalty>
-0

> <b_epik_Metal_Only>
0

> <s_lp_Force_Field>
OPLS_2005

> <r_lp_Energy>
39.7319

> <b_lp_Chiralities_Consistent>
1

> <s_lp_Variant>
AV-unprocessed.smi:1559-1

> <Gold.Version>
5.8.1

> <Gold.Id.Protein>
6NUR|6NUR_protein|mol2

> <Gold.PLP.Fitness>
45.1974

> <Gold.PLP.PLP>
-36.6082

> <Gold.PLP.part.hbond>
-2.0000

> <Gold.PLP.part.metal>
0.0000

> <Gold.PLP.part.buried>
-3.2170

> <Gold.PLP.part.nonpolar>
-32.1833

> <Gold.PLP.part.repulsive>
0.2376

> <Gold.PLP.ligand.clash>
0.0000

> <Gold.PLP.ligand.torsion>
0.4414

> <Gold.PLP.Chemscore.Hbond>
3.0000

> <Gold.PLP.Chemscore.CHOScore>
0.0000

> <Gold.PLP.Chemscore.Metal>
0.0000

> <Gold.Chemscore.Hbonds>
donor molecule, donor type, donor heavy atom, donor atom, acceptor molecule, acceptor atom, score
      L1  H     2    51       P1  7948  2.00
      L1  H     8    38       P1  7948  1.00

> <Gold.PLP.Chemscore.Internal.Correction>
0.4720

> <Gold.Rescore>
     Score         DG    S(hbond)    S(metal)    S(lipo)     H(rot)  DE(clash)    DE(int)     intcor
     17.02     -19.27       2.00        0.00      96.71       1.64       0.36       1.88       ----

> <Gold.Chemscore.Fitness>
17.0236

> <Gold.Chemscore.DG>
-19.2668

> <Gold.Chemscore.ZeroCoef>
-5.4800

> <Gold.Chemscore.Hbond>
1.9980

> <Gold.Chemscore.Metal>
0.0000

> <Gold.Chemscore.Lipo>
96.7147

> <Gold.Chemscore.Internal_Hbond>
0.0000

> <Gold.Chemscore.DEClash>
0.3588

> <Gold.Chemscore.DEInternal>
1.8844

> <Gold.Chemscore.Rot>
1.6414

> <Gold.Chemscore.Internal.Correction>
   9.000000E+99

> <Gold.Chemscore.Hbonds>
donor molecule, donor type, donor heavy atom, donor atom, acceptor molecule, acceptor atom, score
      L1  H     2    51       P1  7948  1.00
      L1  H     8    38       P1  7948  1.00

> <Gold.Chemscore.Hbond.Weighted>
-6.6733

> <Gold.Chemscore.Metal.Weighted>
-0.0000

> <Gold.Chemscore.Lipo.Weighted>
-11.3156

> <Gold.Chemscore.Internal_Hbond.Weighted>
0.0000

> <Gold.Chemscore.DEClash.Weighted>
0.3588

> <Gold.Chemscore.DEInternal.Weighted>
1.8844

> <Gold.Chemscore.Rot.Weighted>
4.2021

> <Gold.Chemscore.Internal.Correction.Weighted>
   9.000000E+99

> <Gold.Protein.RotatedTorsions>
[ 6907 6896 6895 6894 ] final   39.89 input  -60.11 | X-H torsion
[ 7974 7965 7964 7962 ] final   78.15 input  175.53 | X-H torsion
[ 8008 7997 7996 7995 ] final  -20.79 input   59.86 | X-H torsion
[ 10167 10162 10161 10158 ] final -115.33 input  -65.29 | X-H torsion
[ 10718 10713 10712 10709 ] final  173.60 input   66.30 | X-H torsion
[ 10763 10752 10751 10750 ] final  170.36 input  -60.55 | X-H torsion
[ 11005 11000 10999 10996 ] final  -61.28 input  -57.11 | X-H torsion

> <Gold.Protein.ActiveResidues>
 VAL166  LYS551  ARG553  GLY616  TRP617  ASP618  TYR619  PRO620  LYS621  CYS622 
 ASP623  PHE694  ASN695  SER759  ASP760  ASP761  ALA762  ILE779  LEU786  VAL792 
 PHE793  MET794  SER795  GLU796  ALA797  LYS798  CYS799  TRP800  GLU811  SER814 

> <Gold.Protein.RotatedAtoms>
  152.1754  134.8799  160.0530 H   0  0  0  0  0  0  0  0  0  0  0  0  # atno 6907 bound_to 6896
  151.9743  133.3731  159.4091 H   0  0  0  0  0  0  0  0  0  0  0  0  # atno 6908 bound_to 6896
  150.6908  134.4029  159.5171 H   0  0  0  0  0  0  0  0  0  0  0  0  # atno 6909 bound_to 6896
  145.6809  139.2523  143.1815 H   0  0  0  0  0  0  0  0  0  0  0  0  # atno 7974 bound_to 7965
  154.4747  140.2052  155.9907 H   0  0  0  0  0  0  0  0  0  0  0  0  # atno 8008 bound_to 7997
  156.1070  140.3235  155.7989 H   0  0  0  0  0  0  0  0  0  0  0  0  # atno 8009 bound_to 7997
  155.4701  140.0530  157.2971 H   0  0  0  0  0  0  0  0  0  0  0  0  # atno 8010 bound_to 7997
  140.0912  143.4698  152.1868 H   0  0  0  0  0  0  0  0  0  0  0  0  # atno 10167 bound_to 10162
  156.9618  131.0063  151.2925 H   0  0  0  0  0  0  0  0  0  0  0  0  # atno 10718 bound_to 10713
  154.3965  135.2754  155.2123 H   0  0  0  0  0  0  0  0  0  0  0  0  # atno 10763 bound_to 10752
  154.4167  135.6010  153.5988 H   0  0  0  0  0  0  0  0  0  0  0  0  # atno 10764 bound_to 10752
  152.9831  135.5962  154.4227 H   0  0  0  0  0  0  0  0  0  0  0  0  # atno 10765 bound_to 10752
  141.1318  133.6629  156.5351 H   0  0  0  0  0  0  0  0  0  0  0  0  # atno 11005 bound_to 11000
  146.0965  140.7594  142.9570 LP  0  0  0  0  0  0  0  0  0  0  0  0  # atno 17320 bound_to 7965
  144.7026  140.3720  143.7143 LP  0  0  0  0  0  0  0  0  0  0  0  0  # atno 17321 bound_to 7965
  139.5723  144.7469  151.3857 LP  0  0  0  0  0  0  0  0  0  0  0  0  # atno 17342 bound_to 10162
  140.7027  143.7591  150.7430 LP  0  0  0  0  0  0  0  0  0  0  0  0  # atno 17343 bound_to 10162
  157.5652  130.8273  149.8318 LP  0  0  0  0  0  0  0  0  0  0  0  0  # atno 17370 bound_to 10713
  156.0319  130.3762  150.1665 LP  0  0  0  0  0  0  0  0  0  0  0  0  # atno 17371 bound_to 10713
  140.4184  134.7209  157.4876 LP  0  0  0  0  0  0  0  0  0  0  0  0  # atno 17394 bound_to 11000
  140.0377  134.6313  155.9021 LP  0  0  0  0  0  0  0  0  0  0  0  0  # atno 17395 bound_to 11000

$$$$
