AV-unprocessed.smi:11|AV-procd|sdf|58|dock1
  -GOLD-   2262015173D 1   1.00000     0.00000
 Structure written by MMmdl.
 34 36  0  0  0  0  0  0  0  0  2 V2000
  151.7862  138.9372  159.2473 C   0  0  0  0  0  0  0  0  0  0  0  0
  151.0011  138.7950  157.9322 C   0  0  0  0  0  0  0  0  0  0  0  0
  151.5868  139.5677  156.7241 C   0  0  2  0  0  0  0  0  0  0  0  0
  152.9561  139.2379  156.5972 O   0  0  0  0  0  0  0  0  0  0  0  0
  151.4348  141.0853  156.9000 C   0  0  0  0  0  0  0  0  0  0  0  0
  150.0474  141.3689  156.3280 C   0  0  0  0  0  0  0  0  0  0  0  0
  149.8864  140.4009  155.2526 N   0  0  0  0  0  0  0  0  0  0  0  0
  148.6377  140.1967  154.6315 C   0  0  0  0  0  0  0  0  0  0  0  0
  148.4961  139.1048  153.8303 N   0  0  0  0  0  0  0  0  0  0  0  0
  147.3527  138.8229  153.1899 C   0  0  0  0  0  0  0  0  0  0  0  0
  146.2606  139.5865  153.2913 N   0  3  0  0  0  0  0  0  0  0  0  0
  146.3513  140.6787  154.0914 C   0  0  0  0  0  0  0  0  0  0  0  0
  145.3826  141.6177  154.3773 N   0  0  0  0  0  0  0  0  0  0  0  0
  145.8859  142.5651  155.2518 C   0  0  0  0  0  0  0  0  0  0  0  0
  147.1902  142.2545  155.5447 C   0  0  0  0  0  0  0  0  0  0  0  0
  147.5156  141.0578  154.8086 C   0  0  0  0  0  0  0  0  0  0  0  0
  150.8334  139.3045  155.4057 C   0  0  0  0  0  0  0  0  0  0  0  0
  144.4365  141.6376  154.0235 H   0  0  0  0  0  0  0  0  0  0  0  0
  151.2891  138.3894  160.0480 H   0  0  0  0  0  0  0  0  0  0  0  0
  151.8568  139.9786  159.5620 H   0  0  0  0  0  0  0  0  0  0  0  0
  152.7979  138.5418  159.1656 H   0  0  0  0  0  0  0  0  0  0  0  0
  150.9250  137.7352  157.6869 H   0  0  0  0  0  0  0  0  0  0  0  0
  149.9786  139.1319  158.1082 H   0  0  0  0  0  0  0  0  0  0  0  0
  153.0527  138.3048  156.7108 H   0  0  0  0  0  0  0  0  0  0  0  0
  151.5467  141.4205  157.9317 H   0  0  0  0  0  0  0  0  0  0  0  0
  152.1790  141.6123  156.2999 H   0  0  0  0  0  0  0  0  0  0  0  0
  149.2830  141.2104  157.0900 H   0  0  0  0  0  0  0  0  0  0  0  0
  149.9630  142.3928  155.9624 H   0  0  0  0  0  0  0  0  0  0  0  0
  147.2809  137.9494  152.5586 H   0  0  0  0  0  0  0  0  0  0  0  0
  145.2725  143.3845  155.5985 H   0  0  0  0  0  0  0  0  0  0  0  0
  147.8486  142.8022  156.2024 H   0  0  0  0  0  0  0  0  0  0  0  0
  151.5172  139.3316  154.5563 H   0  0  0  0  0  0  0  0  0  0  0  0
  150.3379  138.3348  155.4043 H   0  0  0  0  0  0  0  0  0  0  0  0
  145.3955  139.3624  152.7998 H   0  0  0  0  0  0  0  0  0  0  0  0
  1  2  1  0  0  0  0
  1 19  1  0  0  0  0
  1 20  1  0  0  0  0
  1 21  1  0  0  0  0
  2  3  1  0  0  0  0
  2 22  1  0  0  0  0
  2 23  1  0  0  0  0
  3 17  1  0  0  0  0
  3  4  1  0  0  0  0
  3  5  1  0  0  0  0
  4 24  1  0  0  0  0
  5  6  1  0  0  0  0
  5 25  1  0  0  0  0
  5 26  1  0  0  0  0
  6  7  1  0  0  0  0
  6 27  1  0  0  0  0
  6 28  1  0  0  0  0
  7  8  1  0  0  0  0
  7 17  1  0  0  0  0
  8 16  1  0  0  0  0
  8  9  2  0  0  0  0
  9 10  1  0  0  0  0
 10 11  2  0  0  0  0
 10 29  1  0  0  0  0
 11 12  1  0  0  0  0
 11 34  1  0  0  0  0
 12 16  2  0  0  0  0
 12 13  1  0  0  0  0
 13 18  1  0  0  0  0
 13 14  1  0  0  0  0
 14 15  2  0  0  0  0
 14 30  1  0  0  0  0
 15 16  1  0  0  0  0
 15 31  1  0  0  0  0
 17 32  1  0  0  0  0
 17 33  1  0  0  0  0
M  CHG  1  11   1
M  END
> <s_m_source_file>
AV-unprocessed.smi

> <i_m_source_file_index>
11

> <i_lp_mmshare_version>
43012

> <i_f3d_flags>
0

> <s_epik_input>
W0NIM11bQ0gyXVtDQEBdMShbT0hdKVtDSDJdW0NIMl1OKFtDSDJdMSljKG5bY0hdbjIpYyhjMjMpW2NIXVtjSF1bbkhdMw==

> <s_epik_cmdline>
J2VwaWtfcHl0aG9uJywgJy1waCcsICc3LjAnLCAnLXRuJywgJzgnLCAnLW1hJywgJzIwMCcsICctbWV0YWxfYmluZGluZycsICctaW1hZScsICc8aW5maWxlLm1hZT4nLCAnLW9tYWUnLCAnPG91dGZpbGUubWFlPic=

> <r_lp_tautomer_probability>
1.75997e-05

> <r_epik_Ionization_Penalty>
1.53257

> <r_epik_Ionization_Penalty_Charging>
1.53255

> <r_epik_Ionization_Penalty_Neutral>
1.78556e-05

> <r_epik_State_Penalty>
1.6253

> <r_epik_Charging_Adjusted_Penalty>
3.15785

> <i_epik_Tot_Q>
1

> <i_epik_Tot_abs_Q>
1

> <r_epik_Metal_State_Penalty>
1.66891

> <b_epik_Metal_Only>
0

> <s_lp_Force_Field>
OPLS_2005

> <r_lp_Energy>
33.3454

> <b_lp_Chiralities_Consistent>
1

> <s_lp_Variant>
AV-unprocessed.smi:11-4

> <Gold.Version>
5.8.1

> <Gold.Id.Protein>
6NUR|6NUR_protein|mol2

> <Gold.PLP.Fitness>
36.1049

> <Gold.PLP.PLP>
-23.9066

> <Gold.PLP.part.hbond>
-2.9383

> <Gold.PLP.part.metal>
0.0000

> <Gold.PLP.part.buried>
-0.3282

> <Gold.PLP.part.nonpolar>
-22.6597

> <Gold.PLP.part.repulsive>
1.8854

> <Gold.PLP.ligand.clash>
0.0000

> <Gold.PLP.ligand.torsion>
0.1693

> <Gold.PLP.Chemscore.Hbond>
3.1108

> <Gold.PLP.Chemscore.CHOScore>
0.9871

> <Gold.PLP.Chemscore.Metal>
0.0000

> <Gold.Chemscore.Hbonds>
donor molecule, donor type, donor heavy atom, donor atom, acceptor molecule, acceptor atom, score
      L1  H    11    34       P1 10175  1.16
      L1  H    13    18       P1 10175  0.87
      P1  H  7997  8008       L1     4  1.00
      L1  C    10    29       P1  7948  1.00

> <Gold.PLP.Chemscore.Internal.Correction>
0.2432

> <Gold.Rescore>
     Score         DG    S(hbond)    S(metal)    S(lipo)     H(rot)  DE(clash)    DE(int)     intcor
     12.13     -13.99       1.93        0.00      49.19       1.44       1.72       0.14       ----

> <Gold.Chemscore.Fitness>
12.1318

> <Gold.Chemscore.DG>
-13.9892

> <Gold.Chemscore.ZeroCoef>
-5.4800

> <Gold.Chemscore.Hbond>
1.9277

> <Gold.Chemscore.Metal>
0.0000

> <Gold.Chemscore.Lipo>
49.1895

> <Gold.Chemscore.Internal_Hbond>
0.0000

> <Gold.Chemscore.DEClash>
1.7155

> <Gold.Chemscore.DEInternal>
0.1418

> <Gold.Chemscore.Rot>
1.4392

> <Gold.Chemscore.Internal.Correction>
   9.000000E+99

> <Gold.Chemscore.Hbonds>
donor molecule, donor type, donor heavy atom, donor atom, acceptor molecule, acceptor atom, score
      L1  H    11    34       P1 10175  0.56
      L1  H    13    18       P1 10175  0.06
      P1  H  7997  8008       L1     4  0.90

> <Gold.Chemscore.Hbond.Weighted>
-6.4385

> <Gold.Chemscore.Metal.Weighted>
-0.0000

> <Gold.Chemscore.Lipo.Weighted>
-5.7552

> <Gold.Chemscore.Internal_Hbond.Weighted>
0.0000

> <Gold.Chemscore.DEClash.Weighted>
1.7155

> <Gold.Chemscore.DEInternal.Weighted>
0.1418

> <Gold.Chemscore.Rot.Weighted>
3.6844

> <Gold.Chemscore.Internal.Correction.Weighted>
   9.000000E+99

> <Gold.Protein.RotatedTorsions>
[ 6907 6896 6895 6894 ] final  128.64 input  -60.11 | X-H torsion
[ 7974 7965 7964 7962 ] final  178.30 input  175.53 | X-H torsion
[ 8008 7997 7996 7995 ] final  -54.51 input   59.86 | X-H torsion
[ 10167 10162 10161 10158 ] final -162.34 input  -65.29 | X-H torsion
[ 10718 10713 10712 10709 ] final -151.25 input   66.30 | X-H torsion
[ 10763 10752 10751 10750 ] final   29.51 input  -60.55 | X-H torsion
[ 11005 11000 10999 10996 ] final   16.71 input  -57.11 | X-H torsion

> <Gold.Protein.ActiveResidues>
 VAL166  LYS551  ARG553  GLY616  TRP617  ASP618  TYR619  PRO620  LYS621  CYS622 
 ASP623  PHE694  ASN695  SER759  ASP760  ASP761  ALA762  ILE779  LEU786  VAL792 
 PHE793  MET794  SER795  GLU796  ALA797  LYS798  CYS799  TRP800  GLU811  SER814 

> <Gold.Protein.RotatedAtoms>
  152.3700  133.6406  159.6079 H   0  0  0  0  0  0  0  0  0  0  0  0  # atno 6907 bound_to 6896
  150.7662  133.9286  159.3428 H   0  0  0  0  0  0  0  0  0  0  0  0  # atno 6908 bound_to 6896
  151.7110  135.0914  160.0319 H   0  0  0  0  0  0  0  0  0  0  0  0  # atno 6909 bound_to 6896
  144.7158  140.0376  143.6438 H   0  0  0  0  0  0  0  0  0  0  0  0  # atno 7974 bound_to 7965
  154.4165  140.1174  156.5327 H   0  0  0  0  0  0  0  0  0  0  0  0  # atno 8008 bound_to 7997
  155.6589  140.3496  155.4756 H   0  0  0  0  0  0  0  0  0  0  0  0  # atno 8009 bound_to 7997
  155.9730  140.1145  157.0785 H   0  0  0  0  0  0  0  0  0  0  0  0  # atno 8010 bound_to 7997
  139.6399  144.0279  152.2084 H   0  0  0  0  0  0  0  0  0  0  0  0  # atno 10167 bound_to 10162
  156.4568  130.8194  151.2425 H   0  0  0  0  0  0  0  0  0  0  0  0  # atno 10718 bound_to 10713
  153.0426  135.6487  154.0902 H   0  0  0  0  0  0  0  0  0  0  0  0  # atno 10763 bound_to 10752
  154.0606  135.2888  155.3327 H   0  0  0  0  0  0  0  0  0  0  0  0  # atno 10764 bound_to 10752
  154.6660  135.5374  153.8142 H   0  0  0  0  0  0  0  0  0  0  0  0  # atno 10765 bound_to 10752
  140.4441  134.1292  155.7694 H   0  0  0  0  0  0  0  0  0  0  0  0  # atno 11005 bound_to 11000
  146.0050  139.3122  143.0905 LP  0  0  0  0  0  0  0  0  0  0  0  0  # atno 17320 bound_to 7965
  145.8749  140.9398  143.0631 LP  0  0  0  0  0  0  0  0  0  0  0  0  # atno 17321 bound_to 7965
  139.9966  144.6324  150.7767 LP  0  0  0  0  0  0  0  0  0  0  0  0  # atno 17342 bound_to 10162
  140.7485  143.2924  151.3295 LP  0  0  0  0  0  0  0  0  0  0  0  0  # atno 17343 bound_to 10162
  157.7500  131.0120  150.3368 LP  0  0  0  0  0  0  0  0  0  0  0  0  # atno 17370 bound_to 10713
  156.3758  130.3871  149.7139 LP  0  0  0  0  0  0  0  0  0  0  0  0  # atno 17371 bound_to 10713
  141.1693  133.8641  157.1620 LP  0  0  0  0  0  0  0  0  0  0  0  0  # atno 17394 bound_to 11000
  140.0050  135.0012  157.0273 LP  0  0  0  0  0  0  0  0  0  0  0  0  # atno 17395 bound_to 11000

$$$$
