AV-unprocessed.smi:220|AV-procd|sdf|1684|dock1
  -GOLD-   2262020123D 1   1.00000     0.00000
 Structure written by MMmdl.
 51 55  0  0  0  0  0  0  0  0  1 V2000
  149.4601  141.5886  155.8525 N   0  0  0  0  0  0  0  0  0  0  0  0
  150.5946  140.9531  156.1548 C   0  0  0  0  0  0  0  0  0  0  0  0
  151.3470  140.5123  155.2873 O   0  0  0  0  0  0  0  0  0  0  0  0
  150.9240  140.8017  157.6523 C   0  0  2  0  0  0  0  0  0  0  0  0
  150.9830  142.1544  158.4018 C   0  0  2  0  0  0  0  0  0  0  0  0
  151.5422  143.3794  157.6573 C   0  0  0  0  0  0  0  0  0  0  0  0
  152.0907  144.2741  158.7693 C   0  0  0  0  0  0  0  0  0  0  0  0
  152.6027  143.3151  159.8527 C   0  0  0  0  0  0  0  0  0  0  0  0
  151.9982  141.9395  159.5216 C   0  0  2  0  0  0  0  0  0  0  0  0
  152.9877  140.9378  158.9129 C   0  0  0  0  0  0  0  0  0  0  0  0
  152.2268  140.1894  157.9196 N   0  0  0  0  0  0  0  0  0  0  0  0
  152.5714  138.9110  157.6035 C   0  0  0  0  0  0  0  0  0  0  0  0
  153.8977  138.6212  157.5364 N   0  0  0  0  0  0  0  0  0  0  0  0
  154.3127  137.3932  157.2171 C   0  0  0  0  0  0  0  0  0  0  0  0
  153.5820  136.3153  156.9346 N   0  0  0  0  0  0  0  0  0  0  0  0
  152.2485  136.5879  157.0081 C   0  0  0  0  0  0  0  0  0  0  0  0
  151.6592  137.8459  157.3305 C   0  0  0  0  0  0  0  0  0  0  0  0
  150.2739  137.7223  157.3079 N   0  0  0  0  0  0  0  0  0  0  0  0
  150.0595  136.4786  156.9804 C   0  0  0  0  0  0  0  0  0  0  0  0
  151.1909  135.7185  156.7969 N   0  0  0  0  0  0  0  0  0  0  0  0
  151.2484  134.3091  156.4343 C   0  0  0  0  0  0  0  0  0  0  0  0
  149.8683  133.6524  156.2136 C   0  0  0  0  0  0  0  0  0  0  0  0
  149.0293  133.7071  157.5016 C   0  0  0  0  0  0  0  0  0  0  0  0
  149.6429  132.9727  158.5412 O   0  0  0  0  0  0  0  0  0  0  0  0
  149.1273  134.0823  154.9385 C   0  0  0  0  0  0  0  0  0  0  0  0
  149.3605  132.8149  154.2901 O   0  0  0  0  0  0  0  0  0  0  0  0
  149.9075  132.2859  155.5159 C   0  0  0  0  0  0  0  0  0  0  0  0
  149.2001  141.7147  154.8849 H   0  0  0  0  0  0  0  0  0  0  0  0
  148.8675  141.9417  156.5896 H   0  0  0  0  0  0  0  0  0  0  0  0
  150.1614  140.1861  158.1306 H   0  0  0  0  0  0  0  0  0  0  0  0
  150.0077  142.4079  158.8201 H   0  0  0  0  0  0  0  0  0  0  0  0
  152.3607  143.0894  156.9963 H   0  0  0  0  0  0  0  0  0  0  0  0
  150.7883  143.8833  157.0515 H   0  0  0  0  0  0  0  0  0  0  0  0
  152.8668  144.9510  158.4111 H   0  0  0  0  0  0  0  0  0  0  0  0
  151.2831  144.8850  159.1751 H   0  0  0  0  0  0  0  0  0  0  0  0
  153.6926  143.2773  159.8620 H   0  0  0  0  0  0  0  0  0  0  0  0
  152.2862  143.6556  160.8392 H   0  0  0  0  0  0  0  0  0  0  0  0
  151.5116  141.4933  160.3901 H   0  0  0  0  0  0  0  0  0  0  0  0
  153.8097  141.4416  158.4027 H   0  0  0  0  0  0  0  0  0  0  0  0
  153.4118  140.2969  159.6874 H   0  0  0  0  0  0  0  0  0  0  0  0
  155.3832  137.2555  157.1822 H   0  0  0  0  0  0  0  0  0  0  0  0
  149.0611  136.0842  156.8649 H   0  0  0  0  0  0  0  0  0  0  0  0
  151.8549  134.2266  155.5315 H   0  0  0  0  0  0  0  0  0  0  0  0
  151.8069  133.7779  157.2059 H   0  0  0  0  0  0  0  0  0  0  0  0
  148.8611  134.7312  157.8341 H   0  0  0  0  0  0  0  0  0  0  0  0
  148.0402  133.2793  157.3346 H   0  0  0  0  0  0  0  0  0  0  0  0
  148.9823  132.7371  159.1746 H   0  0  0  0  0  0  0  0  0  0  0  0
  148.0633  134.2723  155.0862 H   0  0  0  0  0  0  0  0  0  0  0  0
  149.5931  134.9059  154.3988 H   0  0  0  0  0  0  0  0  0  0  0  0
  150.9132  131.8855  155.3830 H   0  0  0  0  0  0  0  0  0  0  0  0
  149.2504  131.5395  155.9646 H   0  0  0  0  0  0  0  0  0  0  0  0
  1  2  1  0  0  0  0
  1 28  1  0  0  0  0
  1 29  1  0  0  0  0
  2  3  2  0  0  0  0
  2  4  1  0  0  0  0
  4 11  1  0  0  0  0
  4  5  1  0  0  0  0
  4 30  1  0  0  0  0
  5  9  1  0  0  0  0
  5  6  1  0  0  0  0
  5 31  1  0  0  0  0
  6  7  1  0  0  0  0
  6 32  1  0  0  0  0
  6 33  1  0  0  0  0
  7  8  1  0  0  0  0
  7 34  1  0  0  0  0
  7 35  1  0  0  0  0
  8  9  1  0  0  0  0
  8 36  1  0  0  0  0
  8 37  1  0  0  0  0
  9 10  1  0  0  0  0
  9 38  1  0  0  0  0
 10 11  1  0  0  0  0
 10 39  1  0  0  0  0
 10 40  1  0  0  0  0
 11 12  1  0  0  0  0
 12 17  1  0  0  0  0
 12 13  2  0  0  0  0
 13 14  1  0  0  0  0
 14 15  2  0  0  0  0
 14 41  1  0  0  0  0
 15 16  1  0  0  0  0
 16 20  1  0  0  0  0
 16 17  2  0  0  0  0
 17 18  1  0  0  0  0
 18 19  2  0  0  0  0
 19 20  1  0  0  0  0
 19 42  1  0  0  0  0
 20 21  1  0  0  0  0
 21 22  1  0  0  0  0
 21 43  1  0  0  0  0
 21 44  1  0  0  0  0
 22 27  1  0  0  0  0
 22 23  1  0  0  0  0
 22 25  1  0  0  0  0
 23 24  1  0  0  0  0
 23 45  1  0  0  0  0
 23 46  1  0  0  0  0
 24 47  1  0  0  0  0
 25 26  1  0  0  0  0
 25 48  1  0  0  0  0
 25 49  1  0  0  0  0
 26 27  1  0  0  0  0
 27 50  1  0  0  0  0
 27 51  1  0  0  0  0
M  END
> <s_m_source_file>
AV-unprocessed.smi

> <i_m_source_file_index>
220

> <i_lp_mmshare_version>
43012

> <i_f3d_flags>
0

> <s_epik_input>
W0NIMl0xW0NIMl1bQ0gyXVtDQEhdKFtDQEhdMTIpW0NIMl1OKFtDQEBIXTJDKD1PKVtOSDJdKWMobltjSF1uMyljKGMzNCluW2NIXW40W0NIMl1DNShbQ0gyXVtPSF0pW0NIMl1PW0NIMl01

> <s_epik_cmdline>
J2VwaWtfcHl0aG9uJywgJy1waCcsICc3LjAnLCAnLXRuJywgJzgnLCAnLW1hJywgJzIwMCcsICctbWV0YWxfYmluZGluZycsICctaW1hZScsICc8aW5maWxlLm1hZT4nLCAnLW9tYWUnLCAnPG91dGZpbGUubWFlPic=

> <r_lp_tautomer_probability>
1

> <r_epik_Ionization_Penalty>
0.00118987

> <r_epik_Ionization_Penalty_Charging>
0

> <r_epik_Ionization_Penalty_Neutral>
0.00118987

> <r_epik_State_Penalty>
0.000654261

> <r_epik_Charging_Adjusted_Penalty>
0.000654261

> <i_epik_Tot_Q>
0

> <i_epik_Tot_abs_Q>
0

> <r_epik_Metal_State_Penalty>
-0

> <b_epik_Metal_Only>
0

> <s_lp_Force_Field>
OPLS_2005

> <r_lp_Energy>
60.6153

> <b_lp_Chiralities_Consistent>
1

> <s_lp_Variant>
AV-unprocessed.smi:220-3

> <Gold.Version>
5.8.1

> <Gold.Id.Protein>
6NUR|6NUR_protein|mol2

> <Gold.PLP.Fitness>
51.5784

> <Gold.PLP.PLP>
-40.8101

> <Gold.PLP.part.hbond>
-4.5900

> <Gold.PLP.part.metal>
0.0000

> <Gold.PLP.part.buried>
-6.1293

> <Gold.PLP.part.nonpolar>
-30.6670

> <Gold.PLP.part.repulsive>
0.2733

> <Gold.PLP.ligand.clash>
0.0000

> <Gold.PLP.ligand.torsion>
0.5728

> <Gold.PLP.Chemscore.Hbond>
3.8320

> <Gold.PLP.Chemscore.CHOScore>
0.0000

> <Gold.PLP.Chemscore.Metal>
0.0000

> <Gold.Chemscore.Hbonds>
donor molecule, donor type, donor heavy atom, donor atom, acceptor molecule, acceptor atom, score
      P1  H  6896  6908       L1    24  1.00
      P1  H  7989  7998       L1     3  0.88
      P1  H  7997  8010       L1    13  0.96
      P1  H 10752 10764       L1    15  1.00

> <Gold.PLP.Chemscore.Internal.Correction>
0.4179

> <Gold.Rescore>
     Score         DG    S(hbond)    S(metal)    S(lipo)     H(rot)  DE(clash)    DE(int)     intcor
     18.29     -19.90       3.43        0.00      88.59       2.89       0.04       1.57       ----

> <Gold.Chemscore.Fitness>
18.2920

> <Gold.Chemscore.DG>
-19.8969

> <Gold.Chemscore.ZeroCoef>
-5.4800

> <Gold.Chemscore.Hbond>
3.4259

> <Gold.Chemscore.Metal>
0.0000

> <Gold.Chemscore.Lipo>
88.5897

> <Gold.Chemscore.Internal_Hbond>
0.0000

> <Gold.Chemscore.DEClash>
0.0383

> <Gold.Chemscore.DEInternal>
1.5667

> <Gold.Chemscore.Rot>
2.8869

> <Gold.Chemscore.Internal.Correction>
   9.000000E+99

> <Gold.Chemscore.Hbonds>
donor molecule, donor type, donor heavy atom, donor atom, acceptor molecule, acceptor atom, score
      P1  H  6896  6908       L1    24  0.80
      P1  H  7989  7998       L1     3  0.87
      P1  H  7997  8010       L1    13  0.64
      P1  H 10752 10764       L1    15  0.54

> <Gold.Chemscore.Hbond.Weighted>
-11.4425

> <Gold.Chemscore.Metal.Weighted>
-0.0000

> <Gold.Chemscore.Lipo.Weighted>
-10.3650

> <Gold.Chemscore.Internal_Hbond.Weighted>
0.0000

> <Gold.Chemscore.DEClash.Weighted>
0.0383

> <Gold.Chemscore.DEInternal.Weighted>
1.5667

> <Gold.Chemscore.Rot.Weighted>
7.3905

> <Gold.Chemscore.Internal.Correction.Weighted>
   9.000000E+99

> <Gold.Protein.RotatedTorsions>
[ 6907 6896 6895 6894 ] final   99.67 input  -60.11 | X-H torsion
[ 7974 7965 7964 7962 ] final    4.86 input  175.53 | X-H torsion
[ 8008 7997 7996 7995 ] final   25.14 input   59.86 | X-H torsion
[ 10167 10162 10161 10158 ] final   88.25 input  -65.29 | X-H torsion
[ 10718 10713 10712 10709 ] final  -84.64 input   66.30 | X-H torsion
[ 10763 10752 10751 10750 ] final   15.71 input  -60.55 | X-H torsion
[ 11005 11000 10999 10996 ] final   66.34 input  -57.11 | X-H torsion

> <Gold.Protein.ActiveResidues>
 VAL166  LYS551  ARG553  GLY616  TRP617  ASP618  TYR619  PRO620  LYS621  CYS622 
 ASP623  PHE694  ASN695  SER759  ASP760  ASP761  ALA762  ILE779  LEU786  VAL792 
 PHE793  MET794  SER795  GLU796  ALA797  LYS798  CYS799  TRP800  GLU811  SER814 

> <Gold.Protein.RotatedAtoms>
  152.5387  134.0394  159.8060 H   0  0  0  0  0  0  0  0  0  0  0  0  # atno 6907 bound_to 6896
  151.0552  133.5583  159.2646 H   0  0  0  0  0  0  0  0  0  0  0  0  # atno 6908 bound_to 6896
  151.2502  135.0627  159.9112 H   0  0  0  0  0  0  0  0  0  0  0  0  # atno 6909 bound_to 6896
  146.2443  140.0471  142.8378 H   0  0  0  0  0  0  0  0  0  0  0  0  # atno 7974 bound_to 7965
  155.0071  140.3132  155.4844 H   0  0  0  0  0  0  0  0  0  0  0  0  # atno 8008 bound_to 7997
  156.2915  140.2221  156.5125 H   0  0  0  0  0  0  0  0  0  0  0  0  # atno 8009 bound_to 7997
  154.7567  140.0462  157.0927 H   0  0  0  0  0  0  0  0  0  0  0  0  # atno 8010 bound_to 7997
  139.8692  144.6502  150.8969 H   0  0  0  0  0  0  0  0  0  0  0  0  # atno 10167 bound_to 10162
  156.0004  130.4704  150.4441 H   0  0  0  0  0  0  0  0  0  0  0  0  # atno 10718 bound_to 10713
  153.1500  135.6776  153.8897 H   0  0  0  0  0  0  0  0  0  0  0  0  # atno 10763 bound_to 10752
  153.8327  135.3115  155.3421 H   0  0  0  0  0  0  0  0  0  0  0  0  # atno 10764 bound_to 10752
  154.7854  135.4865  154.0021 H   0  0  0  0  0  0  0  0  0  0  0  0  # atno 10765 bound_to 10752
  139.9838  134.6701  156.0213 H   0  0  0  0  0  0  0  0  0  0  0  0  # atno 11005 bound_to 11000
  145.1017  140.9350  143.4709 LP  0  0  0  0  0  0  0  0  0  0  0  0  # atno 17320 bound_to 7965
  145.0666  139.3064  143.5853 LP  0  0  0  0  0  0  0  0  0  0  0  0  # atno 17321 bound_to 7965
  140.7763  143.3678  151.1706 LP  0  0  0  0  0  0  0  0  0  0  0  0  # atno 17342 bound_to 10162
  139.7300  143.9088  152.3016 LP  0  0  0  0  0  0  0  0  0  0  0  0  # atno 17343 bound_to 10162
  157.2479  131.0540  151.2397 LP  0  0  0  0  0  0  0  0  0  0  0  0  # atno 17370 bound_to 10713
  157.3556  130.7105  149.6469 LP  0  0  0  0  0  0  0  0  0  0  0  0  # atno 17371 bound_to 10713
  141.1506  133.6549  156.4002 LP  0  0  0  0  0  0  0  0  0  0  0  0  # atno 17394 bound_to 11000
  140.5043  134.6456  157.5260 LP  0  0  0  0  0  0  0  0  0  0  0  0  # atno 17395 bound_to 11000

$$$$
