AV-unprocessed.smi:3314|AV-procd|sdf|12741|dock4
  -GOLD-   2272019 83D 1   1.00000     0.00000
 Structure written by MMmdl.
 38 39  0  0  0  0  0  0  0  0  2 V2000
  153.8074  141.1863  161.4456 C   0  0  0  0  0  0  0  0  0  0  0  0
  152.9707  141.9674  160.4534 C   0  0  0  0  0  0  0  0  0  0  0  0
  152.7361  143.3459  160.6377 C   0  0  0  0  0  0  0  0  0  0  0  0
  151.9446  144.0369  159.6985 C   0  0  0  0  0  0  0  0  0  0  0  0
  151.6380  145.5139  159.8292 C   0  0  0  0  0  0  0  0  0  0  0  0
  151.4305  143.3729  158.6395 N   0  3  0  0  0  0  0  0  0  0  0  0
  151.6319  142.0551  158.4070 C   0  0  0  0  0  0  0  0  0  0  0  0
  151.0061  141.5039  157.2556 N   0  0  0  0  0  0  0  0  0  0  0  0
  151.4009  140.4740  156.4837 C   0  0  0  0  0  0  0  0  0  0  0  0
  152.4338  139.8265  156.6560 O   0  0  0  0  0  0  0  0  0  0  0  0
  150.4577  140.1356  155.3221 C   0  0  2  0  0  0  0  0  0  0  0  0
  149.3151  141.1604  155.1392 C   0  0  0  0  0  0  0  0  0  0  0  0
  148.4097  140.7688  154.0673 N   0  0  0  0  0  0  0  0  0  0  0  0
  147.3371  141.7358  153.8898 C   0  0  0  0  0  0  0  0  0  0  0  0
  147.8914  139.4331  154.3288 C   0  0  0  0  0  0  0  0  0  0  0  0
  149.0260  138.4118  154.5178 C   0  0  0  0  0  0  0  0  0  0  0  0
  149.8947  138.8459  155.5608 O   0  0  0  0  0  0  0  0  0  0  0  0
  152.4115  141.3162  159.3332 C   0  0  0  0  0  0  0  0  0  0  0  0
  154.1848  141.8286  162.2419 H   0  0  0  0  0  0  0  0  0  0  0  0
  154.6611  140.7298  160.9438 H   0  0  0  0  0  0  0  0  0  0  0  0
  153.2124  140.3940  161.9005 H   0  0  0  0  0  0  0  0  0  0  0  0
  153.1526  143.8651  161.4888 H   0  0  0  0  0  0  0  0  0  0  0  0
  152.1319  145.9419  160.7021 H   0  0  0  0  0  0  0  0  0  0  0  0
  150.5642  145.6710  159.9347 H   0  0  0  0  0  0  0  0  0  0  0  0
  151.9804  146.0538  158.9460 H   0  0  0  0  0  0  0  0  0  0  0  0
  150.1718  141.9812  156.9462 H   0  0  0  0  0  0  0  0  0  0  0  0
  151.0574  140.0956  154.4108 H   0  0  0  0  0  0  0  0  0  0  0  0
  148.7568  141.2610  156.0719 H   0  0  0  0  0  0  0  0  0  0  0  0
  149.7356  142.1427  154.9193 H   0  0  0  0  0  0  0  0  0  0  0  0
  146.6904  141.4469  153.0607 H   0  0  0  0  0  0  0  0  0  0  0  0
  147.7407  142.7240  153.6667 H   0  0  0  0  0  0  0  0  0  0  0  0
  146.7237  141.8138  154.7884 H   0  0  0  0  0  0  0  0  0  0  0  0
  147.2668  139.4476  155.2235 H   0  0  0  0  0  0  0  0  0  0  0  0
  147.2503  139.1164  153.5053 H   0  0  0  0  0  0  0  0  0  0  0  0
  148.6176  137.4349  154.7765 H   0  0  0  0  0  0  0  0  0  0  0  0
  149.5916  138.2881  153.5932 H   0  0  0  0  0  0  0  0  0  0  0  0
  152.5836  140.2576  159.2156 H   0  0  0  0  0  0  0  0  0  0  0  0
  150.8602  143.8997  157.9774 H   0  0  0  0  0  0  0  0  0  0  0  0
  1  2  1  0  0  0  0
  1 19  1  0  0  0  0
  1 20  1  0  0  0  0
  1 21  1  0  0  0  0
  2 18  1  0  0  0  0
  2  3  2  0  0  0  0
  3  4  1  0  0  0  0
  3 22  1  0  0  0  0
  4  5  1  0  0  0  0
  4  6  2  0  0  0  0
  5 23  1  0  0  0  0
  5 24  1  0  0  0  0
  5 25  1  0  0  0  0
  6  7  1  0  0  0  0
  6 38  1  0  0  0  0
  7  8  1  0  0  0  0
  7 18  2  0  0  0  0
  8  9  1  0  0  0  0
  8 26  1  0  0  0  0
  9 10  2  0  0  0  0
  9 11  1  0  0  0  0
 11 17  1  0  0  0  0
 11 12  1  0  0  0  0
 11 27  1  0  0  0  0
 12 13  1  0  0  0  0
 12 28  1  0  0  0  0
 12 29  1  0  0  0  0
 13 14  1  0  0  0  0
 13 15  1  0  0  0  0
 14 30  1  0  0  0  0
 14 31  1  0  0  0  0
 14 32  1  0  0  0  0
 15 16  1  0  0  0  0
 15 33  1  0  0  0  0
 15 34  1  0  0  0  0
 16 17  1  0  0  0  0
 16 35  1  0  0  0  0
 16 36  1  0  0  0  0
 18 37  1  0  0  0  0
M  CHG  1   6   1
M  END
> <s_m_source_file>
AV-unprocessed.smi

> <i_m_source_file_index>
3314

> <i_lp_mmshare_version>
43012

> <i_f3d_flags>
0

> <s_epik_input>
W0NIM11jMVtjSF1jKFtDSDNdKW5jKFtjSF0xKVtOSF1DKD1PKVtDQEBIXTJbQ0gyXU4oW0NIM10pW0NIMl1bQ0gyXU8y

> <s_epik_cmdline>
J2VwaWtfcHl0aG9uJywgJy1waCcsICc3LjAnLCAnLXRuJywgJzgnLCAnLW1hJywgJzIwMCcsICctbWV0YWxfYmluZGluZycsICctaW1hZScsICc8aW5maWxlLm1hZT4nLCAnLW9tYWUnLCAnPG91dGZpbGUubWFlPic=

> <r_epik_Ionization_Penalty>
2.57421

> <r_epik_Ionization_Penalty_Charging>
1.80498

> <r_epik_Ionization_Penalty_Neutral>
0.76923

> <r_epik_State_Penalty>
2.63884

> <r_epik_Charging_Adjusted_Penalty>
4.44382

> <i_epik_Tot_Q>
1

> <i_epik_Tot_abs_Q>
1

> <r_epik_Metal_State_Penalty>
6.15142

> <b_epik_Metal_Only>
0

> <s_lp_Force_Field>
OPLS_2005

> <r_lp_Energy>
30.3211

> <b_lp_Chiralities_Consistent>
1

> <s_lp_Variant>
AV-unprocessed.smi:3314-11

> <Gold.Version>
5.8.1

> <Gold.Id.Protein>
6NUR|6NUR_protein|mol2

> <Gold.PLP.Fitness>
41.6028

> <Gold.PLP.PLP>
-39.8744

> <Gold.PLP.part.hbond>
-1.0000

> <Gold.PLP.part.metal>
0.0000

> <Gold.PLP.part.buried>
-5.4023

> <Gold.PLP.part.nonpolar>
-33.8246

> <Gold.PLP.part.repulsive>
0.2824

> <Gold.PLP.ligand.clash>
0.7002

> <Gold.PLP.ligand.torsion>
0.2868

> <Gold.PLP.Chemscore.Hbond>
1.0000

> <Gold.PLP.Chemscore.CHOScore>
0.0000

> <Gold.PLP.Chemscore.Metal>
0.0000

> <Gold.Chemscore.Hbonds>
donor molecule, donor type, donor heavy atom, donor atom, acceptor molecule, acceptor atom, score
      P1  H  7997  8008       L1    10  1.00

> <Gold.PLP.Chemscore.Internal.Correction>
0.0023

> <Gold.Rescore>
     Score         DG    S(hbond)    S(metal)    S(lipo)     H(rot)  DE(clash)    DE(int)     intcor
     17.50     -17.82       1.00        0.00      98.84       1.00       0.07       0.25       ----

> <Gold.Chemscore.Fitness>
17.5040

> <Gold.Chemscore.DG>
-17.8224

> <Gold.Chemscore.ZeroCoef>
-5.4800

> <Gold.Chemscore.Hbond>
0.9994

> <Gold.Chemscore.Metal>
0.0000

> <Gold.Chemscore.Lipo>
98.8404

> <Gold.Chemscore.Internal_Hbond>
0.0000

> <Gold.Chemscore.DEClash>
0.0687

> <Gold.Chemscore.DEInternal>
0.2497

> <Gold.Chemscore.Rot>
1.0000

> <Gold.Chemscore.Internal.Correction>
   9.000000E+99

> <Gold.Chemscore.Hbonds>
donor molecule, donor type, donor heavy atom, donor atom, acceptor molecule, acceptor atom, score
      P1  H  7997  8008       L1    10  0.99

> <Gold.Chemscore.Hbond.Weighted>
-3.3380

> <Gold.Chemscore.Metal.Weighted>
-0.0000

> <Gold.Chemscore.Lipo.Weighted>
-11.5643

> <Gold.Chemscore.Internal_Hbond.Weighted>
0.0000

> <Gold.Chemscore.DEClash.Weighted>
0.0687

> <Gold.Chemscore.DEInternal.Weighted>
0.2497

> <Gold.Chemscore.Rot.Weighted>
2.5600

> <Gold.Chemscore.Internal.Correction.Weighted>
   9.000000E+99

> <Gold.Protein.RotatedTorsions>
[ 6907 6896 6895 6894 ] final  164.83 input  -60.11 | X-H torsion
[ 7974 7965 7964 7962 ] final   86.38 input  175.53 | X-H torsion
[ 8008 7997 7996 7995 ] final  -52.62 input   59.86 | X-H torsion
[ 10167 10162 10161 10158 ] final  -28.81 input  -65.29 | X-H torsion
[ 10718 10713 10712 10709 ] final  154.92 input   66.30 | X-H torsion
[ 10763 10752 10751 10750 ] final  171.87 input  -60.55 | X-H torsion
[ 11005 11000 10999 10996 ] final  129.43 input  -57.11 | X-H torsion

> <Gold.Protein.ActiveResidues>
 VAL166  LYS551  ARG553  GLY616  TRP617  ASP618  TYR619  PRO620  LYS621  CYS622 
 ASP623  PHE694  ASN695  SER759  ASP760  ASP761  ALA762  ILE779  LEU786  VAL792 
 PHE793  MET794  SER795  GLU796  ALA797  LYS798  CYS799  TRP800  GLU811  SER814 

> <Gold.Protein.RotatedAtoms>
  151.9038  133.3544  159.3839 H   0  0  0  0  0  0  0  0  0  0  0  0  # atno 6907 bound_to 6896
  150.7074  134.4801  159.5476 H   0  0  0  0  0  0  0  0  0  0  0  0  # atno 6908 bound_to 6896
  152.2395  134.8243  160.0513 H   0  0  0  0  0  0  0  0  0  0  0  0  # atno 6909 bound_to 6896
  145.5730  139.2316  143.2395 H   0  0  0  0  0  0  0  0  0  0  0  0  # atno 7974 bound_to 7965
  154.4111  140.1219  156.5022 H   0  0  0  0  0  0  0  0  0  0  0  0  # atno 8008 bound_to 7997
  155.6883  140.3495  155.4864 H   0  0  0  0  0  0  0  0  0  0  0  0  # atno 8009 bound_to 7997
  155.9491  140.1101  157.0982 H   0  0  0  0  0  0  0  0  0  0  0  0  # atno 8010 bound_to 7997
  140.7266  143.3979  151.1315 H   0  0  0  0  0  0  0  0  0  0  0  0  # atno 10167 bound_to 10162
  157.2252  131.0727  151.1887 H   0  0  0  0  0  0  0  0  0  0  0  0  # atno 10718 bound_to 10713
  154.4181  135.2757  155.1993 H   0  0  0  0  0  0  0  0  0  0  0  0  # atno 10763 bound_to 10752
  154.3951  135.6057  153.5868 H   0  0  0  0  0  0  0  0  0  0  0  0  # atno 10764 bound_to 10752
  152.9832  135.5912  154.4473 H   0  0  0  0  0  0  0  0  0  0  0  0  # atno 10765 bound_to 10752
  139.9615  134.9601  156.9147 H   0  0  0  0  0  0  0  0  0  0  0  0  # atno 11005 bound_to 11000
  146.1771  140.6556  142.9206 LP  0  0  0  0  0  0  0  0  0  0  0  0  # atno 17320 bound_to 7965
  144.7429  140.4990  143.6856 LP  0  0  0  0  0  0  0  0  0  0  0  0  # atno 17321 bound_to 7965
  139.7595  143.8657  152.3097 LP  0  0  0  0  0  0  0  0  0  0  0  0  # atno 17342 bound_to 10162
  139.8538  144.7151  150.9182 LP  0  0  0  0  0  0  0  0  0  0  0  0  # atno 17343 bound_to 10162
  157.3535  130.7094  149.6455 LP  0  0  0  0  0  0  0  0  0  0  0  0  # atno 17370 bound_to 10713
  155.9679  130.4246  150.4615 LP  0  0  0  0  0  0  0  0  0  0  0  0  # atno 17371 bound_to 10713
  140.5490  134.0646  155.7363 LP  0  0  0  0  0  0  0  0  0  0  0  0  # atno 17394 bound_to 11000
  141.1292  133.9330  157.2571 LP  0  0  0  0  0  0  0  0  0  0  0  0  # atno 17395 bound_to 11000

$$$$
