AV-unprocessed.smi:1739|AV-procd|sdf|7005|dock4
  -GOLD-   22720 8213D 1   1.00000     0.00000
 Structure written by MMmdl.
 41 42  0  0  0  0  0  0  0  0  1 V2000
  143.7377  132.7006  148.4168 C   0  0  0  0  0  0  0  0  0  0  0  0
  143.8049  132.2956  149.8947 C   0  0  0  0  0  0  0  0  0  0  0  0
  144.2108  133.4000  150.7427 N   0  0  0  0  0  0  0  0  0  0  0  0
  145.3166  134.2166  150.6101 C   0  0  0  0  0  0  0  0  0  0  0  0
  145.2492  135.1021  151.6484 C   0  0  0  0  0  0  0  0  0  0  0  0
  146.1349  136.1547  151.9926 N   0  0  0  0  0  0  0  0  0  0  0  0
  145.8153  137.3533  152.5075 C   0  0  0  0  0  0  0  0  0  0  0  0
  144.6758  137.7168  152.7994 O   0  0  0  0  0  0  0  0  0  0  0  0
  146.9039  138.1185  152.6733 N   0  0  0  0  0  0  0  0  0  0  0  0
  146.9052  139.4756  153.2112 C   0  0  0  0  0  0  0  0  0  0  0  0
  148.3267  140.0707  153.1198 C   0  0  0  0  0  0  0  0  0  0  0  0
  148.4122  141.4258  153.8452 C   0  0  0  0  0  0  0  0  0  0  0  0
  147.9808  141.2448  155.2362 N   0  0  0  0  0  0  0  0  0  0  0  0
  148.8409  141.2950  156.2818 C   0  0  0  0  0  0  0  0  0  0  0  0
  150.3097  141.6412  156.0272 C   0  0  0  0  0  0  0  0  0  0  0  0
  148.4912  141.0773  157.4420 O   0  0  0  0  0  0  0  0  0  0  0  0
  146.5647  140.8660  155.3174 C   0  0  0  0  0  0  0  0  0  0  0  0
  146.3822  139.4836  154.6660 C   0  0  0  0  0  0  0  0  0  0  0  0
  144.0757  134.7631  152.3706 C   0  0  0  0  0  0  0  0  0  0  0  0
  143.4514  133.7354  151.8155 N   0  0  0  0  0  0  0  0  0  0  0  0
  143.4119  131.8625  147.8006 H   0  0  0  0  0  0  0  0  0  0  0  0
  144.7126  133.0224  148.0491 H   0  0  0  0  0  0  0  0  0  0  0  0
  143.0340  133.5193  148.2648 H   0  0  0  0  0  0  0  0  0  0  0  0
  142.8301  131.9390  150.2292 H   0  0  0  0  0  0  0  0  0  0  0  0
  144.5077  131.4730  150.0317 H   0  0  0  0  0  0  0  0  0  0  0  0
  146.0300  134.0907  149.8091 H   0  0  0  0  0  0  0  0  0  0  0  0
  147.1140  135.9794  151.8201 H   0  0  0  0  0  0  0  0  0  0  0  0
  147.7992  137.7353  152.4073 H   0  0  0  0  0  0  0  0  0  0  0  0
  146.2479  140.1039  152.6066 H   0  0  0  0  0  0  0  0  0  0  0  0
  149.0467  139.3826  153.5662 H   0  0  0  0  0  0  0  0  0  0  0  0
  148.6176  140.1887  152.0753 H   0  0  0  0  0  0  0  0  0  0  0  0
  149.4230  141.8277  153.7641 H   0  0  0  0  0  0  0  0  0  0  0  0
  147.7641  142.1549  153.3569 H   0  0  0  0  0  0  0  0  0  0  0  0
  150.4007  142.6182  155.5513 H   0  0  0  0  0  0  0  0  0  0  0  0
  150.7792  140.8903  155.3912 H   0  0  0  0  0  0  0  0  0  0  0  0
  150.8641  141.6755  156.9656 H   0  0  0  0  0  0  0  0  0  0  0  0
  146.1733  140.8520  156.3335 H   0  0  0  0  0  0  0  0  0  0  0  0
  145.9654  141.6074  154.7869 H   0  0  0  0  0  0  0  0  0  0  0  0
  145.3294  139.1994  154.6889 H   0  0  0  0  0  0  0  0  0  0  0  0
  146.9166  138.7376  155.2565 H   0  0  0  0  0  0  0  0  0  0  0  0
  143.6636  135.2183  153.2592 H   0  0  0  0  0  0  0  0  0  0  0  0
  1  2  1  0  0  0  0
  1 21  1  0  0  0  0
  1 22  1  0  0  0  0
  1 23  1  0  0  0  0
  2  3  1  0  0  0  0
  2 24  1  0  0  0  0
  2 25  1  0  0  0  0
  3 20  1  0  0  0  0
  3  4  1  0  0  0  0
  4  5  2  0  0  0  0
  4 26  1  0  0  0  0
  5  6  1  0  0  0  0
  5 19  1  0  0  0  0
  6  7  1  0  0  0  0
  6 27  1  0  0  0  0
  7  8  2  0  0  0  0
  7  9  1  0  0  0  0
  9 10  1  0  0  0  0
  9 28  1  0  0  0  0
 10 18  1  0  0  0  0
 10 11  1  0  0  0  0
 10 29  1  0  0  0  0
 11 12  1  0  0  0  0
 11 30  1  0  0  0  0
 11 31  1  0  0  0  0
 12 13  1  0  0  0  0
 12 32  1  0  0  0  0
 12 33  1  0  0  0  0
 13 14  1  0  0  0  0
 13 17  1  0  0  0  0
 14 15  1  0  0  0  0
 14 16  2  0  0  0  0
 15 34  1  0  0  0  0
 15 35  1  0  0  0  0
 15 36  1  0  0  0  0
 17 18  1  0  0  0  0
 17 37  1  0  0  0  0
 17 38  1  0  0  0  0
 18 39  1  0  0  0  0
 18 40  1  0  0  0  0
 19 20  2  0  0  0  0
 19 41  1  0  0  0  0
M  END
> <s_m_source_file>
AV-unprocessed.smi

> <i_m_source_file_index>
1739

> <i_lp_mmshare_version>
43012

> <i_f3d_flags>
0

> <s_epik_input>
W0NIM11bQ0gyXW4xW2NIXWMoW2NIXW4xKVtOSF1DKD1PKVtOSF1bQ0hdMltDSDJdW0NIMl1OKEMoPU8pW0NIM10pW0NIMl1bQ0gyXTI=

> <s_epik_cmdline>
J2VwaWtfcHl0aG9uJywgJy1waCcsICc3LjAnLCAnLXRuJywgJzgnLCAnLW1hJywgJzIwMCcsICctbWV0YWxfYmluZGluZycsICctaW1hZScsICc8aW5maWxlLm1hZT4nLCAnLW9tYWUnLCAnPG91dGZpbGUubWFlPic=

> <r_lp_tautomer_probability>
1

> <r_epik_Ionization_Penalty>
0.000185887

> <r_epik_Ionization_Penalty_Charging>
0

> <r_epik_Ionization_Penalty_Neutral>
0.000185887

> <r_epik_State_Penalty>
-0

> <r_epik_Charging_Adjusted_Penalty>
0

> <i_epik_Tot_Q>
0

> <i_epik_Tot_abs_Q>
0

> <r_epik_Metal_State_Penalty>
-0

> <b_epik_Metal_Only>
0

> <s_lp_Force_Field>
OPLS_2005

> <r_lp_Energy>
25.6807

> <b_lp_Chiralities_Consistent>
1

> <s_lp_Variant>
AV-unprocessed.smi:1739-1

> <Gold.Version>
5.8.1

> <Gold.Id.Protein>
6NUR|6NUR_protein|mol2

> <Gold.PLP.Fitness>
39.2720

> <Gold.PLP.PLP>
-30.9821

> <Gold.PLP.part.hbond>
-2.0000

> <Gold.PLP.part.metal>
0.0000

> <Gold.PLP.part.buried>
1.1775

> <Gold.PLP.part.nonpolar>
-31.8445

> <Gold.PLP.part.repulsive>
1.8013

> <Gold.PLP.ligand.clash>
0.0000

> <Gold.PLP.ligand.torsion>
0.3398

> <Gold.PLP.Chemscore.Hbond>
2.0000

> <Gold.PLP.Chemscore.CHOScore>
0.9829

> <Gold.PLP.Chemscore.Metal>
0.0000

> <Gold.Chemscore.Hbonds>
donor molecule, donor type, donor heavy atom, donor atom, acceptor molecule, acceptor atom, score
      L1  H     6    27       P1  7948  1.00
      L1  H     9    28       P1  7948  1.00
      L1  C     4    26       P1  7921  0.98

> <Gold.PLP.Chemscore.Internal.Correction>
0.0208

> <Gold.Rescore>
     Score         DG    S(hbond)    S(metal)    S(lipo)     H(rot)  DE(clash)    DE(int)     intcor
     15.28     -17.72       1.93        0.00      76.06       1.22       2.07       0.38       ----

> <Gold.Chemscore.Fitness>
15.2765

> <Gold.Chemscore.DG>
-17.7179

> <Gold.Chemscore.ZeroCoef>
-5.4800

> <Gold.Chemscore.Hbond>
1.9321

> <Gold.Chemscore.Metal>
0.0000

> <Gold.Chemscore.Lipo>
76.0626

> <Gold.Chemscore.Internal_Hbond>
0.0000

> <Gold.Chemscore.DEClash>
2.0651

> <Gold.Chemscore.DEInternal>
0.3763

> <Gold.Chemscore.Rot>
1.2166

> <Gold.Chemscore.Internal.Correction>
   9.000000E+99

> <Gold.Chemscore.Hbonds>
donor molecule, donor type, donor heavy atom, donor atom, acceptor molecule, acceptor atom, score
      L1  H     6    27       P1  7948  1.00
      L1  H     9    28       P1  7948  0.95

> <Gold.Chemscore.Hbond.Weighted>
-6.4531

> <Gold.Chemscore.Metal.Weighted>
-0.0000

> <Gold.Chemscore.Lipo.Weighted>
-8.8993

> <Gold.Chemscore.Internal_Hbond.Weighted>
0.0000

> <Gold.Chemscore.DEClash.Weighted>
2.0651

> <Gold.Chemscore.DEInternal.Weighted>
0.3763

> <Gold.Chemscore.Rot.Weighted>
3.1145

> <Gold.Chemscore.Internal.Correction.Weighted>
   9.000000E+99

> <Gold.Protein.RotatedTorsions>
[ 6907 6896 6895 6894 ] final  103.60 input  -60.11 | X-H torsion
[ 7974 7965 7964 7962 ] final  -57.22 input  175.53 | X-H torsion
[ 8008 7997 7996 7995 ] final   48.13 input   59.86 | X-H torsion
[ 10167 10162 10161 10158 ] final  120.01 input  -65.29 | X-H torsion
[ 10718 10713 10712 10709 ] final -178.62 input   66.30 | X-H torsion
[ 10763 10752 10751 10750 ] final  144.61 input  -60.55 | X-H torsion
[ 11005 11000 10999 10996 ] final  149.29 input  -57.11 | X-H torsion

> <Gold.Protein.ActiveResidues>
 VAL166  LYS551  ARG553  GLY616  TRP617  ASP618  TYR619  PRO620  LYS621  CYS622 
 ASP623  PHE694  ASN695  SER759  ASP760  ASP761  ALA762  ILE779  LEU786  VAL792 
 PHE793  MET794  SER795  GLU796  ALA797  LYS798  CYS799  TRP800  GLU811  SER814 

> <Gold.Protein.RotatedAtoms>
  152.5290  133.9802  159.7802 H   0  0  0  0  0  0  0  0  0  0  0  0  # atno 6907 bound_to 6896
  151.0057  133.6005  159.2696 H   0  0  0  0  0  0  0  0  0  0  0  0  # atno 6908 bound_to 6896
  151.3098  135.0797  159.9321 H   0  0  0  0  0  0  0  0  0  0  0  0  # atno 6909 bound_to 6896
  145.8536  140.8335  142.9973 H   0  0  0  0  0  0  0  0  0  0  0  0  # atno 7974 bound_to 7965
  155.3805  140.3428  155.4246 H   0  0  0  0  0  0  0  0  0  0  0  0  # atno 8008 bound_to 7997
  156.1613  140.1601  156.8641 H   0  0  0  0  0  0  0  0  0  0  0  0  # atno 8009 bound_to 7997
  154.5142  140.0782  156.8031 H   0  0  0  0  0  0  0  0  0  0  0  0  # atno 8010 bound_to 7997
  139.6009  144.7056  151.3065 H   0  0  0  0  0  0  0  0  0  0  0  0  # atno 10167 bound_to 10162
  156.8470  130.9706  151.3095 H   0  0  0  0  0  0  0  0  0  0  0  0  # atno 10718 bound_to 10713
  153.9918  135.2931  155.3411 H   0  0  0  0  0  0  0  0  0  0  0  0  # atno 10763 bound_to 10752
  154.7210  135.5109  153.8815 H   0  0  0  0  0  0  0  0  0  0  0  0  # atno 10764 bound_to 10752
  153.0806  135.6678  154.0169 H   0  0  0  0  0  0  0  0  0  0  0  0  # atno 10765 bound_to 10752
  140.1032  134.8970  157.1827 H   0  0  0  0  0  0  0  0  0  0  0  0  # atno 11005 bound_to 11000
  144.6728  140.0990  143.7461 LP  0  0  0  0  0  0  0  0  0  0  0  0  # atno 17320 bound_to 7965
  145.9329  139.2618  143.1314 LP  0  0  0  0  0  0  0  0  0  0  0  0  # atno 17321 bound_to 7965
  140.7249  143.7033  150.7828 LP  0  0  0  0  0  0  0  0  0  0  0  0  # atno 17342 bound_to 10162
  140.0609  143.5156  152.2628 LP  0  0  0  0  0  0  0  0  0  0  0  0  # atno 17343 bound_to 10162
  157.6324  130.8740  149.9298 LP  0  0  0  0  0  0  0  0  0  0  0  0  # atno 17370 bound_to 10713
  156.0849  130.3669  150.0507 LP  0  0  0  0  0  0  0  0  0  0  0  0  # atno 17371 bound_to 10713
  140.3191  134.2937  155.7250 LP  0  0  0  0  0  0  0  0  0  0  0  0  # atno 17394 bound_to 11000
  141.2111  133.7698  156.9885 LP  0  0  0  0  0  0  0  0  0  0  0  0  # atno 17395 bound_to 11000

$$$$
