AV-unprocessed.smi:2269|AV-procd|sdf|9152|dock2
  -GOLD-   2272012363D 1   1.00000     0.00000
 Structure written by MMmdl.
 41 42  0  0  0  0  0  0  0  0  1 V2000
  149.8514  133.7968  154.8981 C   0  0  0  0  0  0  0  0  0  0  0  0
  149.8307  135.2623  155.2950 C   0  0  0  0  0  0  0  0  0  0  0  0
  151.0814  135.8442  155.5206 N   0  0  0  0  0  0  0  0  0  0  0  0
  151.1617  137.0896  155.8584 C   0  0  0  0  0  0  0  0  0  0  0  0
  150.0165  137.8882  156.0115 N   0  0  0  0  0  0  0  0  0  0  0  0
  150.2464  139.2935  156.3884 C   0  0  0  0  0  0  0  0  0  0  0  0
  149.7257  140.2752  155.3140 C   0  0  2  0  0  0  0  0  0  0  0  0
  150.3615  139.9581  154.0910 O   0  0  0  0  0  0  0  0  0  0  0  0
  150.0886  141.7328  155.6421 C   0  0  0  0  0  0  0  0  0  0  0  0
  150.8199  141.7610  156.8591 O   0  0  0  0  0  0  0  0  0  0  0  0
  151.6520  142.9026  157.0003 C   0  0  0  0  0  0  0  0  0  0  0  0
  151.9618  143.2251  158.4565 C   0  0  0  0  0  0  0  0  0  0  0  0
  151.7369  144.5418  158.9128 C   0  0  0  0  0  0  0  0  0  0  0  0
  152.0042  144.8922  160.2496 C   0  0  0  0  0  0  0  0  0  0  0  0
  152.4984  143.9246  161.1432 C   0  0  0  0  0  0  0  0  0  0  0  0
  152.7265  142.6093  160.6970 C   0  0  0  0  0  0  0  0  0  0  0  0
  152.4624  142.2530  159.3589 C   0  0  0  0  0  0  0  0  0  0  0  0
  152.7759  140.6265  158.8637 Cl  0  0  0  0  0  0  0  0  0  0  0  0
  148.7585  137.4013  155.8058 C   0  0  0  0  0  0  0  0  0  0  0  0
  147.7606  138.1142  155.9301 O   0  0  0  0  0  0  0  0  0  0  0  0
  148.6825  135.9815  155.4250 C   0  0  0  0  0  0  0  0  0  0  0  0
  147.2930  135.4017  155.1909 C   0  0  0  0  0  0  0  0  0  0  0  0
  149.3154  133.1945  155.6319 H   0  0  0  0  0  0  0  0  0  0  0  0
  150.8717  133.4165  154.8344 H   0  0  0  0  0  0  0  0  0  0  0  0
  149.3830  133.6587  153.9233 H   0  0  0  0  0  0  0  0  0  0  0  0
  152.1132  137.5925  156.0397 H   0  0  0  0  0  0  0  0  0  0  0  0
  149.7329  139.4796  157.3333 H   0  0  0  0  0  0  0  0  0  0  0  0
  151.2961  139.4923  156.6150 H   0  0  0  0  0  0  0  0  0  0  0  0
  148.6438  140.1855  155.2063 H   0  0  0  0  0  0  0  0  0  0  0  0
  151.2524  140.2712  154.1253 H   0  0  0  0  0  0  0  0  0  0  0  0
  150.7286  142.1440  154.8600 H   0  0  0  0  0  0  0  0  0  0  0  0
  149.1944  142.3569  155.6851 H   0  0  0  0  0  0  0  0  0  0  0  0
  152.5979  142.6804  156.5059 H   0  0  0  0  0  0  0  0  0  0  0  0
  151.2293  143.7470  156.4570 H   0  0  0  0  0  0  0  0  0  0  0  0
  151.3589  145.2905  158.2320 H   0  0  0  0  0  0  0  0  0  0  0  0
  151.8296  145.9027  160.5887 H   0  0  0  0  0  0  0  0  0  0  0  0
  152.7033  144.1910  162.1697 H   0  0  0  0  0  0  0  0  0  0  0  0
  153.1085  141.8706  161.3864 H   0  0  0  0  0  0  0  0  0  0  0  0
  146.8023  135.9234  154.3687 H   0  0  0  0  0  0  0  0  0  0  0  0
  146.6788  135.5236  156.0838 H   0  0  0  0  0  0  0  0  0  0  0  0
  147.3056  134.3408  154.9466 H   0  0  0  0  0  0  0  0  0  0  0  0
  1  2  1  0  0  0  0
  1 23  1  0  0  0  0
  1 24  1  0  0  0  0
  1 25  1  0  0  0  0
  2 21  2  0  0  0  0
  2  3  1  0  0  0  0
  3  4  2  0  0  0  0
  4  5  1  0  0  0  0
  4 26  1  0  0  0  0
  5  6  1  0  0  0  0
  5 19  1  0  0  0  0
  6  7  1  0  0  0  0
  6 27  1  0  0  0  0
  6 28  1  0  0  0  0
  7  8  1  0  0  0  0
  7  9  1  0  0  0  0
  7 29  1  0  0  0  0
  8 30  1  0  0  0  0
  9 10  1  0  0  0  0
  9 31  1  0  0  0  0
  9 32  1  0  0  0  0
 10 11  1  0  0  0  0
 11 12  1  0  0  0  0
 11 33  1  0  0  0  0
 11 34  1  0  0  0  0
 12 17  1  0  0  0  0
 12 13  2  0  0  0  0
 13 14  1  0  0  0  0
 13 35  1  0  0  0  0
 14 15  2  0  0  0  0
 14 36  1  0  0  0  0
 15 16  1  0  0  0  0
 15 37  1  0  0  0  0
 16 17  2  0  0  0  0
 16 38  1  0  0  0  0
 17 18  1  0  0  0  0
 19 20  2  0  0  0  0
 19 21  1  0  0  0  0
 21 22  1  0  0  0  0
 22 39  1  0  0  0  0
 22 40  1  0  0  0  0
 22 41  1  0  0  0  0
M  END
> <s_m_source_file>
AV-unprocessed.smi

> <i_m_source_file_index>
2269

> <i_lp_mmshare_version>
43012

> <i_f3d_flags>
0

> <s_epik_input>
W0NIM11jMW5bY0hdbihjKD1PKWMxW0NIM10pW0NIMl1bQ0BIXShbT0hdKVtDSDJdT1tDSDJdYzJbY0hdW2NIXVtjSF1bY0hdYzJDbA==

> <s_epik_cmdline>
J2VwaWtfcHl0aG9uJywgJy1waCcsICc3LjAnLCAnLXRuJywgJzgnLCAnLW1hJywgJzIwMCcsICctbWV0YWxfYmluZGluZycsICctaW1hZScsICc8aW5maWxlLm1hZT4nLCAnLW9tYWUnLCAnPG91dGZpbGUubWFlPic=

> <r_lp_tautomer_probability>
1

> <r_epik_Ionization_Penalty>
5.36022e-05

> <r_epik_Ionization_Penalty_Charging>
1.17753e-07

> <r_epik_Ionization_Penalty_Neutral>
5.34845e-05

> <r_epik_State_Penalty>
-0

> <r_epik_Charging_Adjusted_Penalty>
1.17753e-07

> <i_epik_Tot_Q>
0

> <i_epik_Tot_abs_Q>
0

> <r_epik_Metal_State_Penalty>
-0

> <b_epik_Metal_Only>
0

> <s_lp_Force_Field>
OPLS_2005

> <r_lp_Energy>
24.1822

> <b_lp_Chiralities_Consistent>
1

> <s_lp_Variant>
AV-unprocessed.smi:2269-1

> <Gold.Version>
5.8.1

> <Gold.Id.Protein>
6NUR|6NUR_protein|mol2

> <Gold.PLP.Fitness>
41.1715

> <Gold.PLP.PLP>
-40.2156

> <Gold.PLP.part.hbond>
-2.8983

> <Gold.PLP.part.metal>
0.0000

> <Gold.PLP.part.buried>
-6.4803

> <Gold.PLP.part.nonpolar>
-31.4223

> <Gold.PLP.part.repulsive>
0.1725

> <Gold.PLP.ligand.clash>
0.0000

> <Gold.PLP.ligand.torsion>
1.0893

> <Gold.PLP.Chemscore.Hbond>
1.0000

> <Gold.PLP.Chemscore.CHOScore>
0.0000

> <Gold.PLP.Chemscore.Metal>
0.0000

> <Gold.Chemscore.Hbonds>
donor molecule, donor type, donor heavy atom, donor atom, acceptor molecule, acceptor atom, score
      P1  H 10752 10763       L1     3  0.86

> <Gold.PLP.Chemscore.Internal.Correction>
0.1346

> <Gold.Rescore>
     Score         DG    S(hbond)    S(metal)    S(lipo)     H(rot)  DE(clash)    DE(int)     intcor
     13.85     -16.22       0.93        0.00     120.19       2.52       0.13       2.24       ----

> <Gold.Chemscore.Fitness>
13.8458

> <Gold.Chemscore.DG>
-16.2226

> <Gold.Chemscore.ZeroCoef>
-5.4800

> <Gold.Chemscore.Hbond>
0.9348

> <Gold.Chemscore.Metal>
0.0000

> <Gold.Chemscore.Lipo>
120.1870

> <Gold.Chemscore.Internal_Hbond>
0.0000

> <Gold.Chemscore.DEClash>
0.1321

> <Gold.Chemscore.DEInternal>
2.2447

> <Gold.Chemscore.Rot>
2.5162

> <Gold.Chemscore.Internal.Correction>
   9.000000E+99

> <Gold.Chemscore.Hbonds>
donor molecule, donor type, donor heavy atom, donor atom, acceptor molecule, acceptor atom, score
      P1  H 10752 10763       L1     3  0.21

> <Gold.Chemscore.Hbond.Weighted>
-3.1221

> <Gold.Chemscore.Metal.Weighted>
-0.0000

> <Gold.Chemscore.Lipo.Weighted>
-14.0619

> <Gold.Chemscore.Internal_Hbond.Weighted>
0.0000

> <Gold.Chemscore.DEClash.Weighted>
0.1321

> <Gold.Chemscore.DEInternal.Weighted>
2.2447

> <Gold.Chemscore.Rot.Weighted>
6.4414

> <Gold.Chemscore.Internal.Correction.Weighted>
   9.000000E+99

> <Gold.Protein.RotatedTorsions>
[ 6907 6896 6895 6894 ] final   22.51 input  -60.11 | X-H torsion
[ 7974 7965 7964 7962 ] final -118.55 input  175.53 | X-H torsion
[ 8008 7997 7996 7995 ] final -147.81 input   59.86 | X-H torsion
[ 10167 10162 10161 10158 ] final -150.80 input  -65.29 | X-H torsion
[ 10718 10713 10712 10709 ] final    3.05 input   66.30 | X-H torsion
[ 10763 10752 10751 10750 ] final   81.28 input  -60.55 | X-H torsion
[ 11005 11000 10999 10996 ] final  -68.86 input  -57.11 | X-H torsion

> <Gold.Protein.ActiveResidues>
 VAL166  LYS551  ARG553  GLY616  TRP617  ASP618  TYR619  PRO620  LYS621  CYS622 
 ASP623  PHE694  ASN695  SER759  ASP760  ASP761  ALA762  ILE779  LEU786  VAL792 
 PHE793  MET794  SER795  GLU796  ALA797  LYS798  CYS799  TRP800  GLU811  SER814 

> <Gold.Protein.RotatedAtoms>
  151.9283  135.0268  160.0527 H   0  0  0  0  0  0  0  0  0  0  0  0  # atno 6907 bound_to 6896
  152.2140  133.4928  159.5134 H   0  0  0  0  0  0  0  0  0  0  0  0  # atno 6908 bound_to 6896
  150.6983  134.1346  159.4125 H   0  0  0  0  0  0  0  0  0  0  0  0  # atno 6909 bound_to 6896
  145.0725  140.8369  143.4087 H   0  0  0  0  0  0  0  0  0  0  0  0  # atno 7974 bound_to 7965
  155.5815  140.0644  157.2782 H   0  0  0  0  0  0  0  0  0  0  0  0  # atno 8008 bound_to 7997
  154.4331  140.1851  156.1028 H   0  0  0  0  0  0  0  0  0  0  0  0  # atno 8009 bound_to 7997
  156.0301  140.3307  155.7134 H   0  0  0  0  0  0  0  0  0  0  0  0  # atno 8010 bound_to 7997
  139.7322  143.8790  152.2538 H   0  0  0  0  0  0  0  0  0  0  0  0  # atno 10167 bound_to 10162
  156.8720  130.5623  149.5657 H   0  0  0  0  0  0  0  0  0  0  0  0  # atno 10718 bound_to 10713
  153.1103  135.4771  154.9024 H   0  0  0  0  0  0  0  0  0  0  0  0  # atno 10763 bound_to 10752
  154.7474  135.3097  154.8623 H   0  0  0  0  0  0  0  0  0  0  0  0  # atno 10764 bound_to 10752
  153.9213  135.6854  153.4801 H   0  0  0  0  0  0  0  0  0  0  0  0  # atno 10765 bound_to 10752
  141.1541  133.6750  156.6510 H   0  0  0  0  0  0  0  0  0  0  0  0  # atno 11005 bound_to 11000
  145.1275  139.2653  143.5556 LP  0  0  0  0  0  0  0  0  0  0  0  0  # atno 17320 bound_to 7965
  146.3529  140.0917  142.8612 LP  0  0  0  0  0  0  0  0  0  0  0  0  # atno 17321 bound_to 7965
  139.8717  144.7065  150.8980 LP  0  0  0  0  0  0  0  0  0  0  0  0  # atno 17342 bound_to 10162
  140.7773  143.3733  151.1609 LP  0  0  0  0  0  0  0  0  0  0  0  0  # atno 17343 bound_to 10162
  156.0721  130.5752  150.9404 LP  0  0  0  0  0  0  0  0  0  0  0  0  # atno 17370 bound_to 10713
  157.6190  131.0931  150.8657 LP  0  0  0  0  0  0  0  0  0  0  0  0  # atno 17371 bound_to 10713
  140.3320  134.7921  157.4333 LP  0  0  0  0  0  0  0  0  0  0  0  0  # atno 17394 bound_to 11000
  140.1009  134.5474  155.8354 LP  0  0  0  0  0  0  0  0  0  0  0  0  # atno 17395 bound_to 11000

$$$$
