AV-unprocessed.smi:1322|AV-procd|sdf|5463|dock3
  -GOLD-   22720 5 33D 1   1.00000     0.00000
 Structure written by MMmdl.
 32 33  0  0  0  0  0  0  0  0  1 V2000
  153.8528  140.0572  160.9614 C   0  0  0  0  0  0  0  0  0  0  0  0
  153.4880  141.2906  160.1136 C   0  0  2  0  0  0  0  0  0  0  0  0
  153.3152  142.5712  160.9558 C   0  0  0  0  0  0  0  0  0  0  0  0
  152.7198  143.6661  160.2110 N   0  0  0  0  0  0  0  0  0  0  0  0
  152.8448  143.9598  158.8692 C   0  0  0  0  0  0  0  0  0  0  0  0
  152.1121  145.0869  158.6300 C   0  0  0  0  0  0  0  0  0  0  0  0
  151.5722  145.4157  159.9049 C   0  0  0  0  0  0  0  0  0  0  0  0
  151.9398  144.5650  160.8493 N   0  0  0  0  0  0  0  0  0  0  0  0
  152.2585  141.0470  159.3638 N   0  0  0  0  0  0  0  0  0  0  0  0
  152.0458  140.0219  158.5243 C   0  0  0  0  0  0  0  0  0  0  0  0
  152.8806  139.1432  158.3051 O   0  0  0  0  0  0  0  0  0  0  0  0
  150.6791  140.0002  157.8269 C   0  0  0  0  0  0  0  0  0  0  0  0
  150.7355  139.6559  156.3285 C   0  0  0  0  0  0  0  0  0  0  0  0
  149.7309  140.7839  156.0746 C   0  0  0  0  0  0  0  0  0  0  0  0
  150.1346  141.3832  157.4250 C   0  0  0  0  0  0  0  0  0  0  0  0
  154.8016  140.1959  161.4797 H   0  0  0  0  0  0  0  0  0  0  0  0
  153.9550  139.1661  160.3415 H   0  0  0  0  0  0  0  0  0  0  0  0
  153.0892  139.8539  161.7127 H   0  0  0  0  0  0  0  0  0  0  0  0
  154.2964  141.4660  159.4012 H   0  0  0  0  0  0  0  0  0  0  0  0
  152.6884  142.3709  161.8262 H   0  0  0  0  0  0  0  0  0  0  0  0
  154.2812  142.9032  161.3392 H   0  0  0  0  0  0  0  0  0  0  0  0
  153.4365  143.3484  158.2038 H   0  0  0  0  0  0  0  0  0  0  0  0
  151.9825  145.5994  157.6884 H   0  0  0  0  0  0  0  0  0  0  0  0
  150.9297  146.2422  160.1706 H   0  0  0  0  0  0  0  0  0  0  0  0
  151.5150  141.7197  159.4815 H   0  0  0  0  0  0  0  0  0  0  0  0
  149.9305  139.4060  158.3546 H   0  0  0  0  0  0  0  0  0  0  0  0
  151.7049  139.8418  155.8624 H   0  0  0  0  0  0  0  0  0  0  0  0
  150.3592  138.6630  156.0808 H   0  0  0  0  0  0  0  0  0  0  0  0
  149.9580  141.4103  155.2116 H   0  0  0  0  0  0  0  0  0  0  0  0
  148.6976  140.4335  156.0609 H   0  0  0  0  0  0  0  0  0  0  0  0
  149.2926  141.7271  158.0263 H   0  0  0  0  0  0  0  0  0  0  0  0
  150.8960  142.1594  157.3288 H   0  0  0  0  0  0  0  0  0  0  0  0
  1  2  1  0  0  0  0
  1 16  1  0  0  0  0
  1 17  1  0  0  0  0
  1 18  1  0  0  0  0
  2  3  1  0  0  0  0
  2  9  1  0  0  0  0
  2 19  1  0  0  0  0
  3  4  1  0  0  0  0
  3 20  1  0  0  0  0
  3 21  1  0  0  0  0
  4  8  1  0  0  0  0
  4  5  1  0  0  0  0
  5  6  2  0  0  0  0
  5 22  1  0  0  0  0
  6  7  1  0  0  0  0
  6 23  1  0  0  0  0
  7  8  2  0  0  0  0
  7 24  1  0  0  0  0
  9 10  1  0  0  0  0
  9 25  1  0  0  0  0
 10 11  2  0  0  0  0
 10 12  1  0  0  0  0
 12 15  1  0  0  0  0
 12 13  1  0  0  0  0
 12 26  1  0  0  0  0
 13 14  1  0  0  0  0
 13 27  1  0  0  0  0
 13 28  1  0  0  0  0
 14 15  1  0  0  0  0
 14 29  1  0  0  0  0
 14 30  1  0  0  0  0
 15 31  1  0  0  0  0
 15 32  1  0  0  0  0
M  END
> <s_m_source_file>
AV-unprocessed.smi

> <i_m_source_file_index>
1322

> <i_lp_mmshare_version>
43012

> <i_f3d_flags>
0

> <s_epik_input>
W0NIMl0xW0NIMl1bQ0gyXVtDSF0xQyg9TylbTkhdW0NASF0oW0NIM10pW0NIMl1uMltjSF1bY0hdW2NIXW4y

> <s_epik_cmdline>
J2VwaWtfcHl0aG9uJywgJy1waCcsICc3LjAnLCAnLXRuJywgJzgnLCAnLW1hJywgJzIwMCcsICctbWV0YWxfYmluZGluZycsICctaW1hZScsICc8aW5maWxlLm1hZT4nLCAnLW9tYWUnLCAnPG91dGZpbGUubWFlPic=

> <r_lp_tautomer_probability>
1

> <r_epik_Ionization_Penalty>
0.000326653

> <r_epik_Ionization_Penalty_Charging>
0

> <r_epik_Ionization_Penalty_Neutral>
0.000326653

> <r_epik_State_Penalty>
-0

> <r_epik_Charging_Adjusted_Penalty>
0

> <i_epik_Tot_Q>
0

> <i_epik_Tot_abs_Q>
0

> <r_epik_Metal_State_Penalty>
-0

> <b_epik_Metal_Only>
0

> <s_lp_Force_Field>
OPLS_2005

> <r_lp_Energy>
10.8536

> <b_lp_Chiralities_Consistent>
1

> <s_lp_Variant>
AV-unprocessed.smi:1322-1

> <Gold.Version>
5.8.1

> <Gold.Id.Protein>
6NUR|6NUR_protein|mol2

> <Gold.PLP.Fitness>
41.2394

> <Gold.PLP.PLP>
-39.8317

> <Gold.PLP.part.hbond>
-1.0000

> <Gold.PLP.part.metal>
0.0000

> <Gold.PLP.part.buried>
-4.3235

> <Gold.PLP.part.nonpolar>
-34.7516

> <Gold.PLP.part.repulsive>
0.2680

> <Gold.PLP.ligand.clash>
0.0000

> <Gold.PLP.ligand.torsion>
1.0061

> <Gold.PLP.Chemscore.Hbond>
1.0000

> <Gold.PLP.Chemscore.CHOScore>
0.0000

> <Gold.PLP.Chemscore.Metal>
0.0000

> <Gold.Chemscore.Hbonds>
donor molecule, donor type, donor heavy atom, donor atom, acceptor molecule, acceptor atom, score
      P1  H  7997  8008       L1    11  0.05

> <Gold.PLP.Chemscore.Internal.Correction>
0.4199

> <Gold.Rescore>
     Score         DG    S(hbond)    S(metal)    S(lipo)     H(rot)  DE(clash)    DE(int)     intcor
     12.78     -15.16       0.94        0.00      89.64       1.55       0.07       2.31       ----

> <Gold.Chemscore.Fitness>
12.7784

> <Gold.Chemscore.DG>
-15.1595

> <Gold.Chemscore.ZeroCoef>
-5.4800

> <Gold.Chemscore.Hbond>
0.9437

> <Gold.Chemscore.Metal>
0.0000

> <Gold.Chemscore.Lipo>
89.6430

> <Gold.Chemscore.Internal_Hbond>
0.0000

> <Gold.Chemscore.DEClash>
0.0688

> <Gold.Chemscore.DEInternal>
2.3123

> <Gold.Chemscore.Rot>
1.5471

> <Gold.Chemscore.Internal.Correction>
   9.000000E+99

> <Gold.Chemscore.Hbonds>
donor molecule, donor type, donor heavy atom, donor atom, acceptor molecule, acceptor atom, score
      P1  H  7997  8008       L1    11  0.05

> <Gold.Chemscore.Hbond.Weighted>
-3.1519

> <Gold.Chemscore.Metal.Weighted>
-0.0000

> <Gold.Chemscore.Lipo.Weighted>
-10.4882

> <Gold.Chemscore.Internal_Hbond.Weighted>
0.0000

> <Gold.Chemscore.DEClash.Weighted>
0.0688

> <Gold.Chemscore.DEInternal.Weighted>
2.3123

> <Gold.Chemscore.Rot.Weighted>
3.9606

> <Gold.Chemscore.Internal.Correction.Weighted>
   9.000000E+99

> <Gold.Protein.RotatedTorsions>
[ 6907 6896 6895 6894 ] final -172.67 input  -60.11 | X-H torsion
[ 7974 7965 7964 7962 ] final   34.66 input  175.53 | X-H torsion
[ 8008 7997 7996 7995 ] final  -61.20 input   59.86 | X-H torsion
[ 10167 10162 10161 10158 ] final   74.74 input  -65.29 | X-H torsion
[ 10718 10713 10712 10709 ] final  -14.69 input   66.30 | X-H torsion
[ 10763 10752 10751 10750 ] final -104.21 input  -60.55 | X-H torsion
[ 11005 11000 10999 10996 ] final   47.68 input  -57.11 | X-H torsion

> <Gold.Protein.ActiveResidues>
 VAL166  LYS551  ARG553  GLY616  TRP617  ASP618  TYR619  PRO620  LYS621  CYS622 
 ASP623  PHE694  ASN695  SER759  ASP760  ASP761  ALA762  ILE779  LEU786  VAL792 
 PHE793  MET794  SER795  GLU796  ALA797  LYS798  CYS799  TRP800  GLU811  SER814 

> <Gold.Protein.RotatedAtoms>
  151.5438  133.3428  159.2940 H   0  0  0  0  0  0  0  0  0  0  0  0  # atno 6907 bound_to 6896
  150.8520  134.7850  159.7027 H   0  0  0  0  0  0  0  0  0  0  0  0  # atno 6908 bound_to 6896
  152.4563  134.5292  159.9857 H   0  0  0  0  0  0  0  0  0  0  0  0  # atno 6909 bound_to 6896
  146.1337  139.6241  142.9209 H   0  0  0  0  0  0  0  0  0  0  0  0  # atno 7974 bound_to 7965
  154.4436  140.1023  156.6394 H   0  0  0  0  0  0  0  0  0  0  0  0  # atno 8008 bound_to 7997
  155.5518  140.3486  155.4452 H   0  0  0  0  0  0  0  0  0  0  0  0  # atno 8009 bound_to 7997
  156.0523  140.1307  157.0025 H   0  0  0  0  0  0  0  0  0  0  0  0  # atno 8010 bound_to 7997
  140.0105  144.5617  150.7662 H   0  0  0  0  0  0  0  0  0  0  0  0  # atno 10167 bound_to 10162
  156.6123  130.4853  149.6196 H   0  0  0  0  0  0  0  0  0  0  0  0  # atno 10718 bound_to 10713
  154.7862  135.4795  153.9951 H   0  0  0  0  0  0  0  0  0  0  0  0  # atno 10763 bound_to 10752
  153.1563  135.6800  153.8814 H   0  0  0  0  0  0  0  0  0  0  0  0  # atno 10764 bound_to 10752
  153.8442  135.3175  155.3406 H   0  0  0  0  0  0  0  0  0  0  0  0  # atno 10765 bound_to 10752
  140.1257  134.4771  155.8561 H   0  0  0  0  0  0  0  0  0  0  0  0  # atno 11005 bound_to 11000
  145.5203  141.0432  143.2439 LP  0  0  0  0  0  0  0  0  0  0  0  0  # atno 17320 bound_to 7965
  144.7717  139.6719  143.7192 LP  0  0  0  0  0  0  0  0  0  0  0  0  # atno 17321 bound_to 7965
  140.7383  143.2777  151.3693 LP  0  0  0  0  0  0  0  0  0  0  0  0  # atno 17342 bound_to 10162
  139.6208  144.0910  152.2389 LP  0  0  0  0  0  0  0  0  0  0  0  0  # atno 17343 bound_to 10162
  156.2379  130.6834  151.1528 LP  0  0  0  0  0  0  0  0  0  0  0  0  # atno 17370 bound_to 10713
  157.7251  131.0655  150.5969 LP  0  0  0  0  0  0  0  0  0  0  0  0  # atno 17371 bound_to 10713
  141.2161  133.6777  156.6974 LP  0  0  0  0  0  0  0  0  0  0  0  0  # atno 17394 bound_to 11000
  140.2906  134.8243  157.4014 LP  0  0  0  0  0  0  0  0  0  0  0  0  # atno 17395 bound_to 11000

$$$$
