AV-unprocessed.smi:676|AV-procd|sdf|3310|dock10
  -GOLD-   22720 0273D 1   1.00000     0.00000
 Structure written by MMmdl.
 42 43  0  0  0  0  0  0  0  0  1 V2000
  143.2718  143.6175  157.5136 C   0  0  0  0  0  0  0  0  0  0  0  0
  143.9966  142.8239  156.5830 O   0  0  0  0  0  0  0  0  0  0  0  0
  144.8538  141.8236  157.1356 C   0  0  2  0  0  0  0  0  0  0  0  0
  144.0157  140.7312  157.8182 C   0  0  0  0  0  0  0  0  0  0  0  0
  146.0260  142.4337  157.9262 C   0  0  0  0  0  0  0  0  0  0  0  0
  146.9143  141.4036  157.2324 C   0  0  2  0  0  0  0  0  0  0  0  0
  148.2360  141.9270  156.9052 N   0  0  0  0  0  0  0  0  0  0  0  0
  149.3884  141.3242  157.2302 C   0  0  0  0  0  0  0  0  0  0  0  0
  149.4383  140.2608  157.8505 O   0  0  0  0  0  0  0  0  0  0  0  0
  150.6688  142.0279  156.7585 C   0  0  0  0  0  0  0  0  0  0  0  0
  151.3976  142.7063  157.8432 N   0  0  0  0  0  0  0  0  0  0  0  0
  151.3405  144.1142  157.8693 C   0  0  0  0  0  0  0  0  0  0  0  0
  151.9753  144.8333  158.8086 C   0  0  0  0  0  0  0  0  0  0  0  0
  152.7325  144.1257  159.8139 C   0  0  0  0  0  0  0  0  0  0  0  0
  152.7967  142.7793  159.7959 C   0  0  0  0  0  0  0  0  0  0  0  0
  152.1079  141.9896  158.7683 C   0  0  0  0  0  0  0  0  0  0  0  0
  152.1663  140.7599  158.7410 O   0  0  0  0  0  0  0  0  0  0  0  0
  145.9045  141.4051  156.0560 C   0  0  0  0  0  0  0  0  0  0  0  0
  145.6843  140.0563  155.3638 C   0  0  0  0  0  0  0  0  0  0  0  0
  146.1571  142.4221  154.9243 C   0  0  0  0  0  0  0  0  0  0  0  0
  142.7449  144.4049  156.9749 H   0  0  0  0  0  0  0  0  0  0  0  0
  143.9274  144.0976  158.2401 H   0  0  0  0  0  0  0  0  0  0  0  0
  142.5219  143.0344  158.0478 H   0  0  0  0  0  0  0  0  0  0  0  0
  144.6291  139.8890  158.1375 H   0  0  0  0  0  0  0  0  0  0  0  0
  143.2500  140.3417  157.1472 H   0  0  0  0  0  0  0  0  0  0  0  0
  143.5157  141.1012  158.7129 H   0  0  0  0  0  0  0  0  0  0  0  0
  146.2519  143.4656  157.6505 H   0  0  0  0  0  0  0  0  0  0  0  0
  145.9583  142.3156  159.0081 H   0  0  0  0  0  0  0  0  0  0  0  0
  146.9365  140.4568  157.7767 H   0  0  0  0  0  0  0  0  0  0  0  0
  148.2750  142.7954  156.3916 H   0  0  0  0  0  0  0  0  0  0  0  0
  151.3084  141.2843  156.2807 H   0  0  0  0  0  0  0  0  0  0  0  0
  150.4173  142.7375  155.9682 H   0  0  0  0  0  0  0  0  0  0  0  0
  150.7601  144.5660  157.0779 H   0  0  0  0  0  0  0  0  0  0  0  0
  151.9248  145.9122  158.8095 H   0  0  0  0  0  0  0  0  0  0  0  0
  153.2509  144.6783  160.5836 H   0  0  0  0  0  0  0  0  0  0  0  0
  153.3689  142.2670  160.5556 H   0  0  0  0  0  0  0  0  0  0  0  0
  146.5049  139.8138  154.6877 H   0  0  0  0  0  0  0  0  0  0  0  0
  144.7641  140.0547  154.7790 H   0  0  0  0  0  0  0  0  0  0  0  0
  145.6179  139.2363  156.0786 H   0  0  0  0  0  0  0  0  0  0  0  0
  147.0286  142.1524  154.3268 H   0  0  0  0  0  0  0  0  0  0  0  0
  146.3304  143.4295  155.3034 H   0  0  0  0  0  0  0  0  0  0  0  0
  145.3069  142.4799  154.2439 H   0  0  0  0  0  0  0  0  0  0  0  0
  1  2  1  0  0  0  0
  1 21  1  0  0  0  0
  1 22  1  0  0  0  0
  1 23  1  0  0  0  0
  2  3  1  0  0  0  0
  3 18  1  0  0  0  0
  3  4  1  0  0  0  0
  3  5  1  0  0  0  0
  4 24  1  0  0  0  0
  4 25  1  0  0  0  0
  4 26  1  0  0  0  0
  5  6  1  0  0  0  0
  5 27  1  0  0  0  0
  5 28  1  0  0  0  0
  6  7  1  0  0  0  0
  6 18  1  0  0  0  0
  6 29  1  0  0  0  0
  7  8  1  0  0  0  0
  7 30  1  0  0  0  0
  8  9  2  0  0  0  0
  8 10  1  0  0  0  0
 10 11  1  0  0  0  0
 10 31  1  0  0  0  0
 10 32  1  0  0  0  0
 11 16  1  0  0  0  0
 11 12  1  0  0  0  0
 12 13  2  0  0  0  0
 12 33  1  0  0  0  0
 13 14  1  0  0  0  0
 13 34  1  0  0  0  0
 14 15  2  0  0  0  0
 14 35  1  0  0  0  0
 15 16  1  0  0  0  0
 15 36  1  0  0  0  0
 16 17  2  0  0  0  0
 18 19  1  0  0  0  0
 18 20  1  0  0  0  0
 19 37  1  0  0  0  0
 19 38  1  0  0  0  0
 19 39  1  0  0  0  0
 20 40  1  0  0  0  0
 20 41  1  0  0  0  0
 20 42  1  0  0  0  0
M  END
> <s_m_source_file>
AV-unprocessed.smi

> <i_m_source_file_index>
676

> <i_lp_mmshare_version>
43012

> <i_f3d_flags>
0

> <s_epik_input>
W0NIM11PW0NAQF0xKFtDSDNdKVtDSDJdW0NASF0oQzEoW0NIM10pW0NIM10pW05IXUMoPU8pW0NIMl1uMltjSF1bY0hdW2NIXVtjSF1jMj1P

> <s_epik_cmdline>
J2VwaWtfcHl0aG9uJywgJy1waCcsICc3LjAnLCAnLXRuJywgJzgnLCAnLW1hJywgJzIwMCcsICctbWV0YWxfYmluZGluZycsICctaW1hZScsICc8aW5maWxlLm1hZT4nLCAnLW9tYWUnLCAnPG91dGZpbGUubWFlPic=

> <r_lp_tautomer_probability>
1

> <r_epik_Ionization_Penalty>
4.09771e-07

> <r_epik_Ionization_Penalty_Charging>
3.90712e-07

> <r_epik_Ionization_Penalty_Neutral>
1.90591e-08

> <r_epik_State_Penalty>
-0

> <r_epik_Charging_Adjusted_Penalty>
3.90712e-07

> <i_epik_Tot_Q>
0

> <i_epik_Tot_abs_Q>
0

> <r_epik_Metal_State_Penalty>
-0

> <b_epik_Metal_Only>
0

> <s_lp_Force_Field>
OPLS_2005

> <r_lp_Energy>
31.4384

> <b_lp_Chiralities_Consistent>
1

> <s_lp_Variant>
AV-unprocessed.smi:676-4

> <Gold.Version>
5.8.1

> <Gold.Id.Protein>
6NUR|6NUR_protein|mol2

> <Gold.PLP.Fitness>
40.6990

> <Gold.PLP.PLP>
-35.4455

> <Gold.PLP.part.hbond>
-1.0000

> <Gold.PLP.part.metal>
0.0000

> <Gold.PLP.part.buried>
-3.5574

> <Gold.PLP.part.nonpolar>
-30.5932

> <Gold.PLP.part.repulsive>
0.1243

> <Gold.PLP.ligand.clash>
0.0000

> <Gold.PLP.ligand.torsion>
0.5597

> <Gold.PLP.Chemscore.Hbond>
1.0000

> <Gold.PLP.Chemscore.CHOScore>
1.0000

> <Gold.PLP.Chemscore.Metal>
0.0000

> <Gold.Chemscore.Hbonds>
donor molecule, donor type, donor heavy atom, donor atom, acceptor molecule, acceptor atom, score
      L1  H     7    30       P1  8028  0.73
      L1  C    12    33       P1  8028  1.00

> <Gold.PLP.Chemscore.Internal.Correction>
0.3729

> <Gold.Rescore>
     Score         DG    S(hbond)    S(metal)    S(lipo)     H(rot)  DE(clash)    DE(int)     intcor
     13.51     -14.28       0.97        0.00      82.75       1.62       0.01       0.76       ----

> <Gold.Chemscore.Fitness>
13.5082

> <Gold.Chemscore.DG>
-14.2763

> <Gold.Chemscore.ZeroCoef>
-5.4800

> <Gold.Chemscore.Hbond>
0.9747

> <Gold.Chemscore.Metal>
0.0000

> <Gold.Chemscore.Lipo>
82.7487

> <Gold.Chemscore.Internal_Hbond>
0.0000

> <Gold.Chemscore.DEClash>
0.0126

> <Gold.Chemscore.DEInternal>
0.7556

> <Gold.Chemscore.Rot>
1.6175

> <Gold.Chemscore.Internal.Correction>
   9.000000E+99

> <Gold.Chemscore.Hbonds>
donor molecule, donor type, donor heavy atom, donor atom, acceptor molecule, acceptor atom, score
      L1  H     7    30       P1  8028  0.57

> <Gold.Chemscore.Hbond.Weighted>
-3.2555

> <Gold.Chemscore.Metal.Weighted>
-0.0000

> <Gold.Chemscore.Lipo.Weighted>
-9.6816

> <Gold.Chemscore.Internal_Hbond.Weighted>
0.0000

> <Gold.Chemscore.DEClash.Weighted>
0.0126

> <Gold.Chemscore.DEInternal.Weighted>
0.7556

> <Gold.Chemscore.Rot.Weighted>
4.1408

> <Gold.Chemscore.Internal.Correction.Weighted>
   9.000000E+99

> <Gold.Protein.RotatedTorsions>
[ 6907 6896 6895 6894 ] final  -97.52 input  -60.11 | X-H torsion
[ 7974 7965 7964 7962 ] final   82.51 input  175.53 | X-H torsion
[ 8008 7997 7996 7995 ] final  114.85 input   59.86 | X-H torsion
[ 10167 10162 10161 10158 ] final   11.21 input  -65.29 | X-H torsion
[ 10718 10713 10712 10709 ] final -163.86 input   66.30 | X-H torsion
[ 10763 10752 10751 10750 ] final   91.49 input  -60.55 | X-H torsion
[ 11005 11000 10999 10996 ] final  -37.61 input  -57.11 | X-H torsion

> <Gold.Protein.ActiveResidues>
 VAL166  LYS551  ARG553  GLY616  TRP617  ASP618  TYR619  PRO620  LYS621  CYS622 
 ASP623  PHE694  ASN695  SER759  ASP760  ASP761  ALA762  ILE779  LEU786  VAL792 
 PHE793  MET794  SER795  GLU796  ALA797  LYS798  CYS799  TRP800  GLU811  SER814 

> <Gold.Protein.RotatedAtoms>
  150.7019  134.1336  159.4078 H   0  0  0  0  0  0  0  0  0  0  0  0  # atno 6907 bound_to 6896
  151.9321  135.0249  160.0539 H   0  0  0  0  0  0  0  0  0  0  0  0  # atno 6908 bound_to 6896
  152.2166  133.4916  159.5176 H   0  0  0  0  0  0  0  0  0  0  0  0  # atno 6909 bound_to 6896
  145.6241  139.2391  143.2122 H   0  0  0  0  0  0  0  0  0  0  0  0  # atno 7974 bound_to 7965
  156.2346  140.2950  156.0279 H   0  0  0  0  0  0  0  0  0  0  0  0  # atno 8008 bound_to 7997
  155.2128  140.0413  157.2953 H   0  0  0  0  0  0  0  0  0  0  0  0  # atno 8009 bound_to 7997
  154.6056  140.2438  155.7743 H   0  0  0  0  0  0  0  0  0  0  0  0  # atno 8010 bound_to 7997
  140.6146  143.8335  150.7104 H   0  0  0  0  0  0  0  0  0  0  0  0  # atno 10167 bound_to 10162
  156.6308  130.8929  151.2977 H   0  0  0  0  0  0  0  0  0  0  0  0  # atno 10718 bound_to 10713
  153.2089  135.4395  155.0356 H   0  0  0  0  0  0  0  0  0  0  0  0  # atno 10763 bound_to 10752
  154.8189  135.3328  154.7099 H   0  0  0  0  0  0  0  0  0  0  0  0  # atno 10764 bound_to 10752
  153.7538  135.6996  153.4995 H   0  0  0  0  0  0  0  0  0  0  0  0  # atno 10765 bound_to 10752
  140.9965  133.6977  156.1944 H   0  0  0  0  0  0  0  0  0  0  0  0  # atno 11005 bound_to 11000
  146.1408  140.7060  142.9368 LP  0  0  0  0  0  0  0  0  0  0  0  0  # atno 17320 bound_to 7965
  144.7219  140.4402  143.7001 LP  0  0  0  0  0  0  0  0  0  0  0  0  # atno 17321 bound_to 7965
  140.1911  143.4035  152.1862 LP  0  0  0  0  0  0  0  0  0  0  0  0  # atno 17342 bound_to 10162
  139.5388  144.7236  151.4802 LP  0  0  0  0  0  0  0  0  0  0  0  0  # atno 17343 bound_to 10162
  157.7200  130.9547  150.1403 LP  0  0  0  0  0  0  0  0  0  0  0  0  # atno 17370 bound_to 10713
  156.2236  130.3676  149.8526 LP  0  0  0  0  0  0  0  0  0  0  0  0  # atno 17371 bound_to 10713
  140.6957  134.4618  157.5587 LP  0  0  0  0  0  0  0  0  0  0  0  0  # atno 17394 bound_to 11000
  139.9017  134.8540  156.1868 LP  0  0  0  0  0  0  0  0  0  0  0  0  # atno 17395 bound_to 11000

$$$$
