AV-unprocessed.smi:713|AV-procd|sdf|3475|dock9
  -GOLD-   22720 0463D 1   1.00000     0.00000
 Structure written by MMmdl.
 41 42  0  0  0  0  0  0  0  0  1 V2000
  145.6527  135.4917  151.8575 C   0  0  0  0  0  0  0  0  0  0  0  0
  146.2915  134.1250  151.5368 C   0  0  1  0  0  0  0  0  0  0  0  0
  146.9656  133.4723  152.7568 C   0  0  0  0  0  0  0  0  0  0  0  0
  146.5838  132.3810  153.1816 O   0  0  0  0  0  0  0  0  0  0  0  0
  147.9726  134.1618  153.3183 N   0  0  0  0  0  0  0  0  0  0  0  0
  148.7553  133.7272  154.4705 C   0  0  2  0  0  0  0  0  0  0  0  0
  150.0367  134.5766  154.5623 C   0  0  0  0  0  0  0  0  0  0  0  0
  150.9595  134.1032  155.6962 C   0  0  0  0  0  0  0  0  0  0  0  0
  151.3095  132.6138  155.5439 C   0  0  0  0  0  0  0  0  0  0  0  0
  150.0595  131.7160  155.4531 C   0  0  1  0  0  0  0  0  0  0  0  0
  149.2481  131.5144  157.1168 S   0  0  0  0  0  0  0  0  0  0  0  0
  149.7471  129.8119  157.6075 C   0  0  0  0  0  0  0  0  0  0  0  0
  149.8829  132.4618  158.0454 O   0  0  0  0  0  0  0  0  0  0  0  0
  147.7853  131.5256  156.9709 O   0  0  0  0  0  0  0  0  0  0  0  0
  149.0986  132.2242  154.3550 C   0  0  0  0  0  0  0  0  0  0  0  0
  145.3337  133.2103  150.9239 N   0  0  0  0  0  0  0  0  0  0  0  0
  145.5878  131.9975  150.3156 C   0  0  0  0  0  0  0  0  0  0  0  0
  144.3891  131.4780  149.9185 C   0  0  0  0  0  0  0  0  0  0  0  0
  143.4423  132.4520  150.3400 C   0  0  0  0  0  0  0  0  0  0  0  0
  144.0079  133.4824  150.9469 N   0  0  0  0  0  0  0  0  0  0  0  0
  146.3938  136.1931  152.2423 H   0  0  0  0  0  0  0  0  0  0  0  0
  144.8593  135.4071  152.6012 H   0  0  0  0  0  0  0  0  0  0  0  0
  145.2188  135.9368  150.9618 H   0  0  0  0  0  0  0  0  0  0  0  0
  147.0797  134.3025  150.8035 H   0  0  0  0  0  0  0  0  0  0  0  0
  148.2224  135.0502  152.9090 H   0  0  0  0  0  0  0  0  0  0  0  0
  148.1595  133.9071  155.3643 H   0  0  0  0  0  0  0  0  0  0  0  0
  150.5803  134.5262  153.6175 H   0  0  0  0  0  0  0  0  0  0  0  0
  149.7791  135.6256  154.7135 H   0  0  0  0  0  0  0  0  0  0  0  0
  151.8746  134.6959  155.6949 H   0  0  0  0  0  0  0  0  0  0  0  0
  150.4858  134.2842  156.6603 H   0  0  0  0  0  0  0  0  0  0  0  0
  151.9048  132.4840  154.6393 H   0  0  0  0  0  0  0  0  0  0  0  0
  151.9452  132.2932  156.3696 H   0  0  0  0  0  0  0  0  0  0  0  0
  150.3886  130.7145  155.1751 H   0  0  0  0  0  0  0  0  0  0  0  0
  149.4407  129.6324  158.6378 H   0  0  0  0  0  0  0  0  0  0  0  0
  150.8292  129.7098  157.5305 H   0  0  0  0  0  0  0  0  0  0  0  0
  149.2612  129.0797  156.9637 H   0  0  0  0  0  0  0  0  0  0  0  0
  148.1897  131.6250  154.3401 H   0  0  0  0  0  0  0  0  0  0  0  0
  149.5723  132.0530  153.3871 H   0  0  0  0  0  0  0  0  0  0  0  0
  146.5905  131.6084  150.2173 H   0  0  0  0  0  0  0  0  0  0  0  0
  144.2148  130.5428  149.4074 H   0  0  0  0  0  0  0  0  0  0  0  0
  142.3682  132.4393  150.2274 H   0  0  0  0  0  0  0  0  0  0  0  0
  1  2  1  0  0  0  0
  1 21  1  0  0  0  0
  1 22  1  0  0  0  0
  1 23  1  0  0  0  0
  2  3  1  0  0  0  0
  2 16  1  0  0  0  0
  2 24  1  0  0  0  0
  3  4  2  0  0  0  0
  3  5  1  0  0  0  0
  5  6  1  0  0  0  0
  5 25  1  0  0  0  0
  6 15  1  0  0  0  0
  6  7  1  0  0  0  0
  6 26  1  0  0  0  0
  7  8  1  0  0  0  0
  7 27  1  0  0  0  0
  7 28  1  0  0  0  0
  8  9  1  0  0  0  0
  8 29  1  0  0  0  0
  8 30  1  0  0  0  0
  9 10  1  0  0  0  0
  9 31  1  0  0  0  0
  9 32  1  0  0  0  0
 10 11  1  0  0  0  0
 10 15  1  0  0  0  0
 10 33  1  0  0  0  0
 11 12  1  0  0  0  0
 11 13  2  0  0  0  0
 11 14  2  0  0  0  0
 12 34  1  0  0  0  0
 12 35  1  0  0  0  0
 12 36  1  0  0  0  0
 15 37  1  0  0  0  0
 15 38  1  0  0  0  0
 16 20  1  0  0  0  0
 16 17  1  0  0  0  0
 17 18  2  0  0  0  0
 17 39  1  0  0  0  0
 18 19  1  0  0  0  0
 18 40  1  0  0  0  0
 19 20  2  0  0  0  0
 19 41  1  0  0  0  0
M  END
> <s_m_source_file>
AV-unprocessed.smi

> <i_m_source_file_index>
713

> <i_lp_mmshare_version>
43012

> <i_f3d_flags>
0

> <s_epik_input>
bjFbY0hdW2NIXVtjSF1uMVtDQEhdKFtDSDNdKUMoPU8pW05IXVtDQEBIXTJbQ0gyXVtDSDJdW0NIMl1bQ0BIXShbQ0gyXTIpUyg9TykoPU8pW0NIM10=

> <s_epik_cmdline>
J2VwaWtfcHl0aG9uJywgJy1waCcsICc3LjAnLCAnLXRuJywgJzgnLCAnLW1hJywgJzIwMCcsICctbWV0YWxfYmluZGluZycsICctaW1hZScsICc8aW5maWxlLm1hZT4nLCAnLW9tYWUnLCAnPG91dGZpbGUubWFlPic=

> <r_lp_tautomer_probability>
1

> <r_epik_Ionization_Penalty>
4.07816e-05

> <r_epik_Ionization_Penalty_Charging>
0

> <r_epik_Ionization_Penalty_Neutral>
4.07816e-05

> <r_epik_State_Penalty>
-0

> <r_epik_Charging_Adjusted_Penalty>
0

> <i_epik_Tot_Q>
0

> <i_epik_Tot_abs_Q>
0

> <r_epik_Metal_State_Penalty>
-0

> <b_epik_Metal_Only>
0

> <s_lp_Force_Field>
OPLS_2005

> <r_lp_Energy>
4.9413

> <b_lp_Chiralities_Consistent>
1

> <s_lp_Variant>
AV-unprocessed.smi:713-2

> <Gold.Version>
5.8.1

> <Gold.Id.Protein>
6NUR|6NUR_protein|mol2

> <Gold.PLP.Fitness>
39.8950

> <Gold.PLP.PLP>
-27.5008

> <Gold.PLP.part.hbond>
-2.0000

> <Gold.PLP.part.metal>
0.0000

> <Gold.PLP.part.buried>
-1.9696

> <Gold.PLP.part.nonpolar>
-24.5678

> <Gold.PLP.part.repulsive>
0.2902

> <Gold.PLP.ligand.clash>
0.0000

> <Gold.PLP.ligand.torsion>
0.8912

> <Gold.PLP.Chemscore.Hbond>
2.0000

> <Gold.PLP.Chemscore.CHOScore>
2.6319

> <Gold.PLP.Chemscore.Metal>
0.0000

> <Gold.Chemscore.Hbonds>
donor molecule, donor type, donor heavy atom, donor atom, acceptor molecule, acceptor atom, score
      L1  H     5    25       P1  7948  1.00
      P1  H  6896  6908       L1    13  1.00
      L1  C    17    39       P1 10747  1.00
      L1  C    19    41       P1 10186  0.90
      L1  C    19    41       P1 10952  0.62

> <Gold.PLP.Chemscore.Internal.Correction>
0.2808

> <Gold.Rescore>
     Score         DG    S(hbond)    S(metal)    S(lipo)     H(rot)  DE(clash)    DE(int)     intcor
     12.46     -16.25       1.95        0.00      73.99       1.72       0.15       3.64       ----

> <Gold.Chemscore.Fitness>
12.4564

> <Gold.Chemscore.DG>
-16.2478

> <Gold.Chemscore.ZeroCoef>
-5.4800

> <Gold.Chemscore.Hbond>
1.9540

> <Gold.Chemscore.Metal>
0.0000

> <Gold.Chemscore.Lipo>
73.9925

> <Gold.Chemscore.Internal_Hbond>
0.0000

> <Gold.Chemscore.DEClash>
0.1480

> <Gold.Chemscore.DEInternal>
3.6434

> <Gold.Chemscore.Rot>
1.7249

> <Gold.Chemscore.Internal.Correction>
   9.000000E+99

> <Gold.Chemscore.Hbonds>
donor molecule, donor type, donor heavy atom, donor atom, acceptor molecule, acceptor atom, score
      L1  H     5    25       P1  7948  0.90
      P1  H  6896  6908       L1    13  0.99

> <Gold.Chemscore.Hbond.Weighted>
-6.5265

> <Gold.Chemscore.Metal.Weighted>
-0.0000

> <Gold.Chemscore.Lipo.Weighted>
-8.6571

> <Gold.Chemscore.Internal_Hbond.Weighted>
0.0000

> <Gold.Chemscore.DEClash.Weighted>
0.1480

> <Gold.Chemscore.DEInternal.Weighted>
3.6434

> <Gold.Chemscore.Rot.Weighted>
4.4157

> <Gold.Chemscore.Internal.Correction.Weighted>
   9.000000E+99

> <Gold.Protein.RotatedTorsions>
[ 6907 6896 6895 6894 ] final  106.34 input  -60.11 | X-H torsion
[ 7974 7965 7964 7962 ] final  -68.53 input  175.53 | X-H torsion
[ 8008 7997 7996 7995 ] final  139.02 input   59.86 | X-H torsion
[ 10167 10162 10161 10158 ] final   96.62 input  -65.29 | X-H torsion
[ 10718 10713 10712 10709 ] final   31.34 input   66.30 | X-H torsion
[ 10763 10752 10751 10750 ] final   68.56 input  -60.55 | X-H torsion
[ 11005 11000 10999 10996 ] final  161.12 input  -57.11 | X-H torsion

> <Gold.Protein.ActiveResidues>
 VAL166  LYS551  ARG553  GLY616  TRP617  ASP618  TYR619  PRO620  LYS621  CYS622 
 ASP623  PHE694  ASN695  SER759  ASP760  ASP761  ALA762  ILE779  LEU786  VAL792 
 PHE793  MET794  SER795  GLU796  ALA797  LYS798  CYS799  TRP800  GLU811  SER814 

> <Gold.Protein.RotatedAtoms>
  152.5197  133.9395  159.7619 H   0  0  0  0  0  0  0  0  0  0  0  0  # atno 6907 bound_to 6896
  150.9728  133.6318  159.2742 H   0  0  0  0  0  0  0  0  0  0  0  0  # atno 6908 bound_to 6896
  151.3523  135.0892  159.9460 H   0  0  0  0  0  0  0  0  0  0  0  0  # atno 6909 bound_to 6896
  145.7154  140.9061  143.0659 H   0  0  0  0  0  0  0  0  0  0  0  0  # atno 7974 bound_to 7965
  156.2993  140.2378  156.4168 H   0  0  0  0  0  0  0  0  0  0  0  0  # atno 8008 bound_to 7997
  154.8391  140.0429  157.1549 H   0  0  0  0  0  0  0  0  0  0  0  0  # atno 8009 bound_to 7997
  154.9122  140.2992  155.5264 H   0  0  0  0  0  0  0  0  0  0  0  0  # atno 8010 bound_to 7997
  139.7877  144.6864  150.9935 H   0  0  0  0  0  0  0  0  0  0  0  0  # atno 10167 bound_to 10162
  157.2712  130.7209  149.6505 H   0  0  0  0  0  0  0  0  0  0  0  0  # atno 10718 bound_to 10713
  153.0241  135.5243  154.7153 H   0  0  0  0  0  0  0  0  0  0  0  0  # atno 10763 bound_to 10752
  154.6223  135.2890  155.0314 H   0  0  0  0  0  0  0  0  0  0  0  0  # atno 10764 bound_to 10752
  154.1296  135.6595  153.4972 H   0  0  0  0  0  0  0  0  0  0  0  0  # atno 10765 bound_to 10752
  140.2126  134.8256  157.3137 H   0  0  0  0  0  0  0  0  0  0  0  0  # atno 11005 bound_to 11000
  144.6931  139.9130  143.7464 LP  0  0  0  0  0  0  0  0  0  0  0  0  # atno 17320 bound_to 7965
  146.0675  139.3665  143.0543 LP  0  0  0  0  0  0  0  0  0  0  0  0  # atno 17321 bound_to 7965
  140.7820  143.4414  151.0546 LP  0  0  0  0  0  0  0  0  0  0  0  0  # atno 17342 bound_to 10162
  139.8092  143.7975  152.3170 LP  0  0  0  0  0  0  0  0  0  0  0  0  # atno 17343 bound_to 10162
  155.9663  130.4367  150.5144 LP  0  0  0  0  0  0  0  0  0  0  0  0  # atno 17370 bound_to 10713
  157.3069  131.0656  151.2029 LP  0  0  0  0  0  0  0  0  0  0  0  0  # atno 17371 bound_to 10713
  140.1934  134.4343  155.7703 LP  0  0  0  0  0  0  0  0  0  0  0  0  # atno 17394 bound_to 11000
  141.2226  133.7038  156.8065 LP  0  0  0  0  0  0  0  0  0  0  0  0  # atno 17395 bound_to 11000

$$$$
