AV-unprocessed.smi:1679|AV-procd|sdf|6735|dock8
  -GOLD-   22720 7483D 1   1.00000     0.00000
 Structure written by MMmdl.
 44 45  0  0  0  0  0  0  0  0  2 V2000
  144.9568  135.6100  150.9228 C   0  0  0  0  0  0  0  0  0  0  0  0
  145.3676  134.1303  150.9257 C   0  0  2  0  0  0  0  0  0  0  0  0
  144.1431  133.2001  151.0380 C   0  0  0  0  0  0  0  0  0  0  0  0
  144.5492  131.7200  150.9766 C   0  0  0  0  0  0  0  0  0  0  0  0
  145.5992  131.3839  152.0458 C   0  0  0  0  0  0  0  0  0  0  0  0
  146.8226  132.3114  151.9409 C   0  0  0  0  0  0  0  0  0  0  0  0
  146.4229  133.7971  152.0091 C   0  0  2  0  0  0  0  0  0  0  0  0
  145.8925  134.0281  153.3078 O   0  0  0  0  0  0  0  0  0  0  0  0
  146.8054  133.8489  154.3794 C   0  0  0  0  0  0  0  0  0  0  0  0
  146.0180  133.7509  155.6956 C   0  0  0  0  0  0  0  0  0  0  0  0
  146.9092  133.6774  156.8500 N   0  0  0  0  0  0  0  0  0  0  0  0
  147.2452  134.7154  157.6322 C   0  0  0  0  0  0  0  0  0  0  0  0
  146.7819  135.8465  157.4833 O   0  0  0  0  0  0  0  0  0  0  0  0
  148.2384  134.4244  158.7652 C   0  0  0  0  0  0  0  0  0  0  0  0
  147.9847  135.2538  159.9546 N   0  0  0  0  0  0  0  0  0  0  0  0
  147.5107  134.5984  161.1046 C   0  0  0  0  0  0  0  0  0  0  0  0
  147.2770  135.2568  162.2553 C   0  0  0  0  0  0  0  0  0  0  0  0
  147.5280  136.6918  162.2913 C   0  0  0  0  0  0  0  0  0  0  0  0
  147.3334  137.3074  163.3376 O   0  0  0  0  0  0  0  0  0  0  0  0
  147.9730  137.2865  161.1461 N   0  5  0  0  0  0  0  0  0  0  0  0
  148.2030  136.6038  159.9814 C   0  0  0  0  0  0  0  0  0  0  0  0
  148.5990  137.1635  158.9590 O   0  0  0  0  0  0  0  0  0  0  0  0
  144.4497  135.8834  151.8477 H   0  0  0  0  0  0  0  0  0  0  0  0
  144.2753  135.8245  150.0994 H   0  0  0  0  0  0  0  0  0  0  0  0
  145.8249  136.2595  150.8106 H   0  0  0  0  0  0  0  0  0  0  0  0
  145.8310  133.9367  149.9573 H   0  0  0  0  0  0  0  0  0  0  0  0
  143.6132  133.3930  151.9711 H   0  0  0  0  0  0  0  0  0  0  0  0
  143.4362  133.4142  150.2360 H   0  0  0  0  0  0  0  0  0  0  0  0
  143.6694  131.0896  151.1085 H   0  0  0  0  0  0  0  0  0  0  0  0
  144.9486  131.4915  149.9879 H   0  0  0  0  0  0  0  0  0  0  0  0
  145.1514  131.4766  153.0363 H   0  0  0  0  0  0  0  0  0  0  0  0
  145.9112  130.3442  151.9456 H   0  0  0  0  0  0  0  0  0  0  0  0
  147.5321  132.0799  152.7359 H   0  0  0  0  0  0  0  0  0  0  0  0
  147.3413  132.1183  151.0012 H   0  0  0  0  0  0  0  0  0  0  0  0
  147.3201  134.3978  151.8470 H   0  0  0  0  0  0  0  0  0  0  0  0
  147.3724  132.9320  154.2143 H   0  0  0  0  0  0  0  0  0  0  0  0
  147.5232  134.6679  154.4316 H   0  0  0  0  0  0  0  0  0  0  0  0
  145.3241  134.5877  155.7926 H   0  0  0  0  0  0  0  0  0  0  0  0
  145.4106  132.8455  155.6882 H   0  0  0  0  0  0  0  0  0  0  0  0
  147.3258  132.7800  157.0499 H   0  0  0  0  0  0  0  0  0  0  0  0
  148.1848  133.3628  159.0114 H   0  0  0  0  0  0  0  0  0  0  0  0
  149.2592  134.5816  158.4125 H   0  0  0  0  0  0  0  0  0  0  0  0
  147.3572  133.5350  160.9962 H   0  0  0  0  0  0  0  0  0  0  0  0
  146.9186  134.7353  163.1303 H   0  0  0  0  0  0  0  0  0  0  0  0
  1  2  1  0  0  0  0
  1 23  1  0  0  0  0
  1 24  1  0  0  0  0
  1 25  1  0  0  0  0
  2  7  1  0  0  0  0
  2  3  1  0  0  0  0
  2 26  1  0  0  0  0
  3  4  1  0  0  0  0
  3 27  1  0  0  0  0
  3 28  1  0  0  0  0
  4  5  1  0  0  0  0
  4 29  1  0  0  0  0
  4 30  1  0  0  0  0
  5  6  1  0  0  0  0
  5 31  1  0  0  0  0
  5 32  1  0  0  0  0
  6  7  1  0  0  0  0
  6 33  1  0  0  0  0
  6 34  1  0  0  0  0
  7  8  1  0  0  0  0
  7 35  1  0  0  0  0
  8  9  1  0  0  0  0
  9 10  1  0  0  0  0
  9 36  1  0  0  0  0
  9 37  1  0  0  0  0
 10 11  1  0  0  0  0
 10 38  1  0  0  0  0
 10 39  1  0  0  0  0
 11 12  1  0  0  0  0
 11 40  1  0  0  0  0
 12 13  2  0  0  0  0
 12 14  1  0  0  0  0
 14 15  1  0  0  0  0
 14 41  1  0  0  0  0
 14 42  1  0  0  0  0
 15 21  1  0  0  0  0
 15 16  1  0  0  0  0
 16 17  2  0  0  0  0
 16 43  1  0  0  0  0
 17 18  1  0  0  0  0
 17 44  1  0  0  0  0
 18 19  2  0  0  0  0
 18 20  1  0  0  0  0
 20 21  1  0  0  0  0
 21 22  2  0  0  0  0
M  CHG  1  20  -1
M  END
> <s_m_source_file>
AV-unprocessed.smi

> <i_m_source_file_index>
1679

> <i_lp_mmshare_version>
43012

> <i_f3d_flags>
0

> <s_epik_input>
W0NIM11bQ0BASF0xW0NIMl1bQ0gyXVtDSDJdW0NIMl1bQ0BIXTFPW0NIMl1bQ0gyXVtOSF1DKD1PKVtDSDJdbjJbY0hdW2NIXWMoPU8pW25IXWMyPU8=

> <s_epik_cmdline>
J2VwaWtfcHl0aG9uJywgJy1waCcsICc3LjAnLCAnLXRuJywgJzgnLCAnLW1hJywgJzIwMCcsICctbWV0YWxfYmluZGluZycsICctaW1hZScsICc8aW5maWxlLm1hZT4nLCAnLW9tYWUnLCAnPG91dGZpbGUubWFlPic=

> <r_lp_tautomer_probability>
0.999537

> <r_epik_Ionization_Penalty>
3.07454

> <r_epik_Ionization_Penalty_Charging>
2.80088e-08

> <r_epik_Ionization_Penalty_Neutral>
3.07454

> <r_epik_State_Penalty>
3.07357

> <r_epik_Charging_Adjusted_Penalty>
3.07357

> <i_epik_Tot_Q>
-1

> <i_epik_Tot_abs_Q>
1

> <r_epik_Metal_State_Penalty>
0.45948

> <b_epik_Metal_Only>
1

> <s_lp_Force_Field>
OPLS_2005

> <r_lp_Energy>
19.9019

> <b_lp_Chiralities_Consistent>
1

> <s_lp_Variant>
AV-unprocessed.smi:1679-7

> <Gold.Version>
5.8.1

> <Gold.Id.Protein>
6NUR|6NUR_protein|mol2

> <Gold.PLP.Fitness>
42.2572

> <Gold.PLP.PLP>
-33.0116

> <Gold.PLP.part.hbond>
-2.2295

> <Gold.PLP.part.metal>
0.0000

> <Gold.PLP.part.buried>
-2.8511

> <Gold.PLP.part.nonpolar>
-27.7127

> <Gold.PLP.part.repulsive>
0.1129

> <Gold.PLP.ligand.clash>
0.0000

> <Gold.PLP.ligand.torsion>
0.6711

> <Gold.PLP.Chemscore.Hbond>
3.5040

> <Gold.PLP.Chemscore.CHOScore>
0.0000

> <Gold.PLP.Chemscore.Metal>
0.0000

> <Gold.Chemscore.Hbonds>
donor molecule, donor type, donor heavy atom, donor atom, acceptor molecule, acceptor atom, score
      P1  H  6931  6943       L1    20  1.42
      P1  H  6934  6947       L1    20  1.41

> <Gold.PLP.Chemscore.Internal.Correction>
0.0760

> <Gold.Rescore>
     Score         DG    S(hbond)    S(metal)    S(lipo)     H(rot)  DE(clash)    DE(int)     intcor
      8.80     -10.04       0.88        0.00      67.57       2.45       0.35       0.89       ----

> <Gold.Chemscore.Fitness>
8.8024

> <Gold.Chemscore.DG>
-10.0443

> <Gold.Chemscore.ZeroCoef>
-5.4800

> <Gold.Chemscore.Hbond>
0.8768

> <Gold.Chemscore.Metal>
0.0000

> <Gold.Chemscore.Lipo>
67.5660

> <Gold.Chemscore.Internal_Hbond>
0.0000

> <Gold.Chemscore.DEClash>
0.3498

> <Gold.Chemscore.DEInternal>
0.8921

> <Gold.Chemscore.Rot>
2.4490

> <Gold.Chemscore.Internal.Correction>
   9.000000E+99

> <Gold.Chemscore.Hbonds>
donor molecule, donor type, donor heavy atom, donor atom, acceptor molecule, acceptor atom, score
      P1  H  6931  6943       L1    20  0.08
      P1  H  6934  6947       L1    20  0.50

> <Gold.Chemscore.Hbond.Weighted>
-2.9285

> <Gold.Chemscore.Metal.Weighted>
-0.0000

> <Gold.Chemscore.Lipo.Weighted>
-7.9052

> <Gold.Chemscore.Internal_Hbond.Weighted>
0.0000

> <Gold.Chemscore.DEClash.Weighted>
0.3498

> <Gold.Chemscore.DEInternal.Weighted>
0.8921

> <Gold.Chemscore.Rot.Weighted>
6.2694

> <Gold.Chemscore.Internal.Correction.Weighted>
   9.000000E+99

> <Gold.Protein.RotatedTorsions>
[ 6907 6896 6895 6894 ] final   78.09 input  -60.11 | X-H torsion
[ 7974 7965 7964 7962 ] final   95.68 input  175.53 | X-H torsion
[ 8008 7997 7996 7995 ] final  -97.39 input   59.86 | X-H torsion
[ 10167 10162 10161 10158 ] final   43.70 input  -65.29 | X-H torsion
[ 10718 10713 10712 10709 ] final   91.03 input   66.30 | X-H torsion
[ 10763 10752 10751 10750 ] final -179.55 input  -60.55 | X-H torsion
[ 11005 11000 10999 10996 ] final -149.97 input  -57.11 | X-H torsion

> <Gold.Protein.ActiveResidues>
 VAL166  LYS551  ARG553  GLY616  TRP617  ASP618  TYR619  PRO620  LYS621  CYS622 
 ASP623  PHE694  ASN695  SER759  ASP760  ASP761  ALA762  ILE779  LEU786  VAL792 
 PHE793  MET794  SER795  GLU796  ALA797  LYS798  CYS799  TRP800  GLU811  SER814 

> <Gold.Protein.RotatedAtoms>
  152.5145  134.3717  159.9320 H   0  0  0  0  0  0  0  0  0  0  0  0  # atno 6907 bound_to 6896
  151.3672  133.3861  159.2703 H   0  0  0  0  0  0  0  0  0  0  0  0  # atno 6908 bound_to 6896
  150.9606  134.9014  159.7786 H   0  0  0  0  0  0  0  0  0  0  0  0  # atno 6909 bound_to 6896
  145.4490  139.2295  143.3050 H   0  0  0  0  0  0  0  0  0  0  0  0  # atno 7974 bound_to 7965
  154.7871  140.0463  157.1172 H   0  0  0  0  0  0  0  0  0  0  0  0  # atno 8008 bound_to 7997
  154.9635  140.3080  155.5000 H   0  0  0  0  0  0  0  0  0  0  0  0  # atno 8009 bound_to 7997
  156.2945  140.2266  156.4722 H   0  0  0  0  0  0  0  0  0  0  0  0  # atno 8010 bound_to 7997
  140.3418  144.2461  150.6155 H   0  0  0  0  0  0  0  0  0  0  0  0  # atno 10167 bound_to 10162
  157.6960  131.0392  150.3667 H   0  0  0  0  0  0  0  0  0  0  0  0  # atno 10718 bound_to 10713
  154.5337  135.2801  155.1158 H   0  0  0  0  0  0  0  0  0  0  0  0  # atno 10763 bound_to 10752
  154.2668  135.6311  153.5298 H   0  0  0  0  0  0  0  0  0  0  0  0  # atno 10764 bound_to 10752
  152.9962  135.5618  154.5857 H   0  0  0  0  0  0  0  0  0  0  0  0  # atno 10765 bound_to 10752
  140.7451  134.3470  157.5139 H   0  0  0  0  0  0  0  0  0  0  0  0  # atno 11005 bound_to 11000
  146.2515  140.5246  142.8891 LP  0  0  0  0  0  0  0  0  0  0  0  0  # atno 17320 bound_to 7965
  144.8074  140.6324  143.6438 LP  0  0  0  0  0  0  0  0  0  0  0  0  # atno 17321 bound_to 7965
  140.5302  143.2245  151.8251 LP  0  0  0  0  0  0  0  0  0  0  0  0  # atno 17342 bound_to 10162
  139.4839  144.4730  151.9402 LP  0  0  0  0  0  0  0  0  0  0  0  0  # atno 17343 bound_to 10162
  156.4097  130.3931  149.6900 LP  0  0  0  0  0  0  0  0  0  0  0  0  # atno 17370 bound_to 10713
  156.4189  130.7759  151.2775 LP  0  0  0  0  0  0  0  0  0  0  0  0  # atno 17371 bound_to 10713
  139.8798  134.9106  156.3018 LP  0  0  0  0  0  0  0  0  0  0  0  0  # atno 17394 bound_to 11000
  140.9801  133.7272  156.0660 LP  0  0  0  0  0  0  0  0  0  0  0  0  # atno 17395 bound_to 11000

$$$$
