AV-unprocessed.smi:447|AV-procd|sdf|2602|dock3
  -GOLD-   2262022593D 1   1.00000     0.00000
 Structure written by MMmdl.
 46 48  0  0  0  0  0  0  0  0  2 V2000
  146.3850  142.9065  153.8673 C   0  0  0  0  0  0  0  0  0  0  0  0
  147.2043  141.7621  154.4524 C   0  0  0  0  0  0  0  0  0  0  0  0
  147.0317  140.6126  154.0522 O   0  0  0  0  0  0  0  0  0  0  0  0
  148.0911  142.0903  155.4043 N   0  0  0  0  0  0  0  0  0  0  0  0
  149.0223  141.1696  156.0551 C   0  0  1  0  0  0  0  0  0  0  0  0
  149.8784  140.4813  154.9826 C   0  0  0  0  0  0  0  0  0  0  0  0
  149.9011  141.8299  157.0812 C   0  0  0  0  0  0  0  0  0  0  0  0
  149.9482  143.1642  157.3647 N   0  3  0  0  0  0  0  0  0  0  0  0
  150.8991  143.4081  158.3546 C   0  0  0  0  0  0  0  0  0  0  0  0
  151.2942  144.5934  158.9668 C   0  0  0  0  0  0  0  0  0  0  0  0
  152.3088  144.4944  159.9414 C   0  0  0  0  0  0  0  0  0  0  0  0
  152.8914  143.2534  160.2711 C   0  0  0  0  0  0  0  0  0  0  0  0
  152.4825  142.0589  159.6423 C   0  0  0  0  0  0  0  0  0  0  0  0
  151.4738  142.1647  158.6849 C   0  0  0  0  0  0  0  0  0  0  0  0
  150.8256  141.2198  157.8813 N   0  0  0  0  0  0  0  0  0  0  0  0
  151.2214  139.8056  157.9858 C   0  0  0  0  0  0  0  0  0  0  0  0
  152.7343  139.5762  157.7874 C   0  0  2  0  0  0  0  0  0  0  0  0
  152.9573  139.3217  156.4166 O   0  0  0  0  0  0  0  0  0  0  0  0
  153.2869  138.4655  158.6682 C   0  0  0  0  0  0  0  0  0  0  0  0
  153.9499  137.3653  158.0832 C   0  0  0  0  0  0  0  0  0  0  0  0
  154.4479  136.3251  158.8915 C   0  0  0  0  0  0  0  0  0  0  0  0
  154.2954  136.3842  160.2901 C   0  0  0  0  0  0  0  0  0  0  0  0
  153.6429  137.4835  160.8799 C   0  0  0  0  0  0  0  0  0  0  0  0
  153.1366  138.5193  160.0713 C   0  0  0  0  0  0  0  0  0  0  0  0
  145.9016  143.4777  154.6603 H   0  0  0  0  0  0  0  0  0  0  0  0
  145.6105  142.5271  153.1998 H   0  0  0  0  0  0  0  0  0  0  0  0
  147.0270  143.5785  153.2973 H   0  0  0  0  0  0  0  0  0  0  0  0
  148.1566  143.0622  155.6702 H   0  0  0  0  0  0  0  0  0  0  0  0
  148.4280  140.4058  156.5573 H   0  0  0  0  0  0  0  0  0  0  0  0
  150.5432  139.7374  155.4216 H   0  0  0  0  0  0  0  0  0  0  0  0
  150.4973  141.2016  154.4463 H   0  0  0  0  0  0  0  0  0  0  0  0
  149.2538  139.9685  154.2505 H   0  0  0  0  0  0  0  0  0  0  0  0
  150.8519  145.5456  158.7128 H   0  0  0  0  0  0  0  0  0  0  0  0
  152.6490  145.3882  160.4442 H   0  0  0  0  0  0  0  0  0  0  0  0
  153.6681  143.2166  161.0213 H   0  0  0  0  0  0  0  0  0  0  0  0
  152.9367  141.1138  159.9004 H   0  0  0  0  0  0  0  0  0  0  0  0
  150.9027  139.4305  158.9583 H   0  0  0  0  0  0  0  0  0  0  0  0
  150.6478  139.2481  157.2439 H   0  0  0  0  0  0  0  0  0  0  0  0
  153.2737  140.4955  158.0146 H   0  0  0  0  0  0  0  0  0  0  0  0
  152.2261  138.8253  156.0814 H   0  0  0  0  0  0  0  0  0  0  0  0
  154.0764  137.3124  157.0118 H   0  0  0  0  0  0  0  0  0  0  0  0
  154.9529  135.4846  158.4393 H   0  0  0  0  0  0  0  0  0  0  0  0
  154.6833  135.5894  160.9097 H   0  0  0  0  0  0  0  0  0  0  0  0
  153.5281  137.5313  161.9526 H   0  0  0  0  0  0  0  0  0  0  0  0
  152.6342  139.3572  160.5320 H   0  0  0  0  0  0  0  0  0  0  0  0
  149.3632  143.8547  156.9124 H   0  0  0  0  0  0  0  0  0  0  0  0
  1  2  1  0  0  0  0
  1 25  1  0  0  0  0
  1 26  1  0  0  0  0
  1 27  1  0  0  0  0
  2  3  2  0  0  0  0
  2  4  1  0  0  0  0
  4  5  1  0  0  0  0
  4 28  1  0  0  0  0
  5  6  1  0  0  0  0
  5  7  1  0  0  0  0
  5 29  1  0  0  0  0
  6 30  1  0  0  0  0
  6 31  1  0  0  0  0
  6 32  1  0  0  0  0
  7 15  1  0  0  0  0
  7  8  2  0  0  0  0
  8  9  1  0  0  0  0
  8 46  1  0  0  0  0
  9 14  2  0  0  0  0
  9 10  1  0  0  0  0
 10 11  2  0  0  0  0
 10 33  1  0  0  0  0
 11 12  1  0  0  0  0
 11 34  1  0  0  0  0
 12 13  2  0  0  0  0
 12 35  1  0  0  0  0
 13 14  1  0  0  0  0
 13 36  1  0  0  0  0
 14 15  1  0  0  0  0
 15 16  1  0  0  0  0
 16 17  1  0  0  0  0
 16 37  1  0  0  0  0
 16 38  1  0  0  0  0
 17 18  1  0  0  0  0
 17 19  1  0  0  0  0
 17 39  1  0  0  0  0
 18 40  1  0  0  0  0
 19 24  1  0  0  0  0
 19 20  2  0  0  0  0
 20 21  1  0  0  0  0
 20 41  1  0  0  0  0
 21 22  2  0  0  0  0
 21 42  1  0  0  0  0
 22 23  1  0  0  0  0
 22 43  1  0  0  0  0
 23 24  2  0  0  0  0
 23 44  1  0  0  0  0
 24 45  1  0  0  0  0
M  CHG  1   8   1
M  END
> <s_m_source_file>
AV-unprocessed.smi

> <i_m_source_file_index>
447

> <i_lp_mmshare_version>
43012

> <i_f3d_flags>
0

> <s_epik_input>
W0NIM11DKD1PKVtOSF1bQ0BIXShbQ0gzXSljKG4xKW4oYyhjMTIpW2NIXVtjSF1bY0hdW2NIXTIpW0NIMl1bQ0BIXShbT0hdKWMzW2NIXVtjSF1bY0hdW2NIXVtjSF0z

> <s_epik_cmdline>
J2VwaWtfcHl0aG9uJywgJy1waCcsICc3LjAnLCAnLXRuJywgJzgnLCAnLW1hJywgJzIwMCcsICctbWV0YWxfYmluZGluZycsICctaW1hZScsICc8aW5maWxlLm1hZT4nLCAnLW9tYWUnLCAnPG91dGZpbGUubWFlPic=

> <r_epik_Ionization_Penalty>
0.950381

> <r_epik_Ionization_Penalty_Charging>
0.950379

> <r_epik_Ionization_Penalty_Neutral>
1.42115e-06

> <r_epik_State_Penalty>
0.994584

> <r_epik_Charging_Adjusted_Penalty>
1.94496

> <i_epik_Tot_Q>
1

> <i_epik_Tot_abs_Q>
1

> <r_epik_Metal_State_Penalty>
1.10485

> <b_epik_Metal_Only>
0

> <s_lp_Force_Field>
OPLS_2005

> <r_lp_Energy>
11.3805

> <b_lp_Chiralities_Consistent>
1

> <s_lp_Variant>
AV-unprocessed.smi:447-6

> <Gold.Version>
5.8.1

> <Gold.Id.Protein>
6NUR|6NUR_protein|mol2

> <Gold.PLP.Fitness>
56.2350

> <Gold.PLP.PLP>
-45.1895

> <Gold.PLP.part.hbond>
-3.0000

> <Gold.PLP.part.metal>
0.0000

> <Gold.PLP.part.buried>
-5.9799

> <Gold.PLP.part.nonpolar>
-36.7199

> <Gold.PLP.part.repulsive>
0.2471

> <Gold.PLP.ligand.clash>
0.0000

> <Gold.PLP.ligand.torsion>
0.5108

> <Gold.PLP.Chemscore.Hbond>
4.0000

> <Gold.PLP.Chemscore.CHOScore>
0.0000

> <Gold.PLP.Chemscore.Metal>
0.0000

> <Gold.Chemscore.Hbonds>
donor molecule, donor type, donor heavy atom, donor atom, acceptor molecule, acceptor atom, score
      L1  H     4    28       P1  8028  1.00
      L1  H     8    46       P1  8028  2.00
      P1  H  7997  8010       L1    18  1.00

> <Gold.PLP.Chemscore.Internal.Correction>
0.0672

> <Gold.Rescore>
     Score         DG    S(hbond)    S(metal)    S(lipo)     H(rot)  DE(clash)    DE(int)     intcor
     22.31     -22.93       2.70        0.00     124.84       2.41       0.22       0.39       ----

> <Gold.Chemscore.Fitness>
22.3127

> <Gold.Chemscore.DG>
-22.9266

> <Gold.Chemscore.ZeroCoef>
-5.4800

> <Gold.Chemscore.Hbond>
2.6984

> <Gold.Chemscore.Metal>
0.0000

> <Gold.Chemscore.Lipo>
124.8422

> <Gold.Chemscore.Internal_Hbond>
0.0000

> <Gold.Chemscore.DEClash>
0.2212

> <Gold.Chemscore.DEInternal>
0.3928

> <Gold.Chemscore.Rot>
2.4112

> <Gold.Chemscore.Internal.Correction>
   9.000000E+99

> <Gold.Chemscore.Hbonds>
donor molecule, donor type, donor heavy atom, donor atom, acceptor molecule, acceptor atom, score
      L1  H     4    28       P1  8028  0.87
      L1  H     8    46       P1  8028  0.75
      P1  H  7997  8010       L1    18  0.38

> <Gold.Chemscore.Hbond.Weighted>
-9.0128

> <Gold.Chemscore.Metal.Weighted>
-0.0000

> <Gold.Chemscore.Lipo.Weighted>
-14.6065

> <Gold.Chemscore.Internal_Hbond.Weighted>
0.0000

> <Gold.Chemscore.DEClash.Weighted>
0.2212

> <Gold.Chemscore.DEInternal.Weighted>
0.3928

> <Gold.Chemscore.Rot.Weighted>
6.1727

> <Gold.Chemscore.Internal.Correction.Weighted>
   9.000000E+99

> <Gold.Protein.RotatedTorsions>
[ 6907 6896 6895 6894 ] final  -17.74 input  -60.11 | X-H torsion
[ 7974 7965 7964 7962 ] final  122.59 input  175.53 | X-H torsion
[ 8008 7997 7996 7995 ] final   91.73 input   59.86 | X-H torsion
[ 10167 10162 10161 10158 ] final   18.10 input  -65.29 | X-H torsion
[ 10718 10713 10712 10709 ] final -107.57 input   66.30 | X-H torsion
[ 10763 10752 10751 10750 ] final  151.62 input  -60.55 | X-H torsion
[ 11005 11000 10999 10996 ] final   79.76 input  -57.11 | X-H torsion

> <Gold.Protein.ActiveResidues>
 VAL166  LYS551  ARG553  GLY616  TRP617  ASP618  TYR619  PRO620  LYS621  CYS622 
 ASP623  PHE694  ASN695  SER759  ASP760  ASP761  ALA762  ILE779  LEU786  VAL792 
 PHE793  MET794  SER795  GLU796  ALA797  LYS798  CYS799  TRP800  GLU811  SER814 

> <Gold.Protein.RotatedAtoms>
  151.2888  135.0736  159.9196 H   0  0  0  0  0  0  0  0  0  0  0  0  # atno 6907 bound_to 6896
  152.5320  133.9953  159.7880 H   0  0  0  0  0  0  0  0  0  0  0  0  # atno 6908 bound_to 6896
  151.0220  133.5817  159.2701 H   0  0  0  0  0  0  0  0  0  0  0  0  # atno 6909 bound_to 6896
  145.1058  139.3487  143.4788 H   0  0  0  0  0  0  0  0  0  0  0  0  # atno 7974 bound_to 7965
  156.0272  140.3334  155.7101 H   0  0  0  0  0  0  0  0  0  0  0  0  # atno 8008 bound_to 7997
  155.5937  140.0649  157.2769 H   0  0  0  0  0  0  0  0  0  0  0  0  # atno 8009 bound_to 7997
  154.4339  140.1822  156.1089 H   0  0  0  0  0  0  0  0  0  0  0  0  # atno 8010 bound_to 7997
  140.5678  143.9218  150.6689 H   0  0  0  0  0  0  0  0  0  0  0  0  # atno 10167 bound_to 10162
  156.0443  130.5669  150.7840 H   0  0  0  0  0  0  0  0  0  0  0  0  # atno 10718 bound_to 10713
  154.1068  135.2842  155.3239 H   0  0  0  0  0  0  0  0  0  0  0  0  # atno 10763 bound_to 10752
  154.6517  135.5366  153.7913 H   0  0  0  0  0  0  0  0  0  0  0  0  # atno 10764 bound_to 10752
  153.0359  135.6512  154.1229 H   0  0  0  0  0  0  0  0  0  0  0  0  # atno 10765 bound_to 10752
  139.9160  134.7868  156.1821 H   0  0  0  0  0  0  0  0  0  0  0  0  # atno 11005 bound_to 11000
  146.3528  140.0955  142.8610 LP  0  0  0  0  0  0  0  0  0  0  0  0  # atno 17320 bound_to 7965
  145.0903  140.9280  143.4773 LP  0  0  0  0  0  0  0  0  0  0  0  0  # atno 17321 bound_to 7965
  140.2686  143.3472  152.1258 LP  0  0  0  0  0  0  0  0  0  0  0  0  # atno 17342 bound_to 10162
  139.5102  144.6879  151.5837 LP  0  0  0  0  0  0  0  0  0  0  0  0  # atno 17343 bound_to 10162
  157.5299  131.0936  150.9968 LP  0  0  0  0  0  0  0  0  0  0  0  0  # atno 17370 bound_to 10713
  157.0277  130.5699  149.5339 LP  0  0  0  0  0  0  0  0  0  0  0  0  # atno 17371 bound_to 10713
  141.0636  133.6830  156.2000 LP  0  0  0  0  0  0  0  0  0  0  0  0  # atno 17394 bound_to 11000
  140.6622  134.4956  157.5584 LP  0  0  0  0  0  0  0  0  0  0  0  0  # atno 17395 bound_to 11000

$$$$
