AV-unprocessed.smi:1793|AV-procd|sdf|7228|dock4
  -GOLD-   22720 8473D 1   1.00000     0.00000
 Structure written by MMmdl.
 47 49  0  0  0  0  0  0  0  0  2 V2000
  147.9656  134.8367  157.9383 C   0  0  0  0  0  0  0  0  0  0  0  0
  149.3581  135.4480  157.7050 C   0  0  2  0  0  0  0  0  0  0  0  0
  149.2191  136.8098  157.1960 N   0  0  0  0  0  0  0  0  0  0  0  0
  149.8308  137.8921  157.6962 C   0  0  0  0  0  0  0  0  0  0  0  0
  150.5661  137.8673  158.6829 O   0  0  0  0  0  0  0  0  0  0  0  0
  149.5501  138.9859  156.9688 N   0  0  0  0  0  0  0  0  0  0  0  0
  150.0524  140.3066  157.1408 C   0  0  0  0  0  0  0  0  0  0  0  0
  151.1434  140.5708  158.0084 C   0  0  0  0  0  0  0  0  0  0  0  0
  151.6344  141.8830  158.1418 C   0  0  0  0  0  0  0  0  0  0  0  0
  151.0243  142.9147  157.4085 C   0  0  0  0  0  0  0  0  0  0  0  0
  149.9752  142.6353  156.6079 N   0  3  0  0  0  0  0  0  0  0  0  0
  149.4471  141.3958  156.4483 C   0  0  0  0  0  0  0  0  0  0  0  0
  148.3379  141.2602  155.5822 N   0  0  0  0  0  0  0  0  0  0  0  0
  148.5269  141.2394  154.1363 C   0  0  0  0  0  0  0  0  0  0  0  0
  147.1303  141.4307  153.5514 C   0  0  0  0  0  0  0  0  0  0  0  0
  146.4779  142.3717  154.5597 C   0  0  0  0  0  0  0  0  0  0  0  0
  147.0926  141.9523  155.8993 C   0  0  0  0  0  0  0  0  0  0  0  0
  150.1977  134.6250  156.7094 C   0  0  2  0  0  0  0  0  0  0  0  0
  149.4927  134.3000  155.3893 C   0  0  0  0  0  0  0  0  0  0  0  0
  150.0990  132.9709  154.9598 C   0  0  0  0  0  0  0  0  0  0  0  0
  150.9458  132.5396  156.1580 C   0  0  0  0  0  0  0  0  0  0  0  0
  150.4700  133.3335  157.2332 O   0  0  0  0  0  0  0  0  0  0  0  0
  148.0384  133.8301  158.3506 H   0  0  0  0  0  0  0  0  0  0  0  0
  147.3984  134.7750  157.0089 H   0  0  0  0  0  0  0  0  0  0  0  0
  147.3853  135.4327  158.6435 H   0  0  0  0  0  0  0  0  0  0  0  0
  149.8910  135.4765  158.6574 H   0  0  0  0  0  0  0  0  0  0  0  0
  148.6371  136.9261  156.3795 H   0  0  0  0  0  0  0  0  0  0  0  0
  149.0082  138.8311  156.1315 H   0  0  0  0  0  0  0  0  0  0  0  0
  151.6109  139.7839  158.5810 H   0  0  0  0  0  0  0  0  0  0  0  0
  152.4683  142.0927  158.7957 H   0  0  0  0  0  0  0  0  0  0  0  0
  151.3343  143.9491  157.4436 H   0  0  0  0  0  0  0  0  0  0  0  0
  149.1701  142.0631  153.8240 H   0  0  0  0  0  0  0  0  0  0  0  0
  148.9790  140.3035  153.8064 H   0  0  0  0  0  0  0  0  0  0  0  0
  147.1446  141.8321  152.5378 H   0  0  0  0  0  0  0  0  0  0  0  0
  146.5980  140.4784  153.5334 H   0  0  0  0  0  0  0  0  0  0  0  0
  146.7585  143.4012  154.3328 H   0  0  0  0  0  0  0  0  0  0  0  0
  145.3892  142.3118  154.5556 H   0  0  0  0  0  0  0  0  0  0  0  0
  146.4271  141.2573  156.4120 H   0  0  0  0  0  0  0  0  0  0  0  0
  147.2532  142.8141  156.5488 H   0  0  0  0  0  0  0  0  0  0  0  0
  151.1470  135.1252  156.5070 H   0  0  0  0  0  0  0  0  0  0  0  0
  148.4208  134.1744  155.5487 H   0  0  0  0  0  0  0  0  0  0  0  0
  149.6290  135.0846  154.6445 H   0  0  0  0  0  0  0  0  0  0  0  0
  149.3119  132.2445  154.7544 H   0  0  0  0  0  0  0  0  0  0  0  0
  150.7091  133.0676  154.0611 H   0  0  0  0  0  0  0  0  0  0  0  0
  150.8551  131.4756  156.3772 H   0  0  0  0  0  0  0  0  0  0  0  0
  151.9996  132.7639  155.9853 H   0  0  0  0  0  0  0  0  0  0  0  0
  149.5477  143.4071  156.0961 H   0  0  0  0  0  0  0  0  0  0  0  0
  1  2  1  0  0  0  0
  1 23  1  0  0  0  0
  1 24  1  0  0  0  0
  1 25  1  0  0  0  0
  2  3  1  0  0  0  0
  2 18  1  0  0  0  0
  2 26  1  0  0  0  0
  3  4  1  0  0  0  0
  3 27  1  0  0  0  0
  4  5  2  0  0  0  0
  4  6  1  0  0  0  0
  6  7  1  0  0  0  0
  6 28  1  0  0  0  0
  7 12  1  0  0  0  0
  7  8  2  0  0  0  0
  8  9  1  0  0  0  0
  8 29  1  0  0  0  0
  9 10  2  0  0  0  0
  9 30  1  0  0  0  0
 10 11  1  0  0  0  0
 10 31  1  0  0  0  0
 11 12  2  0  0  0  0
 11 47  1  0  0  0  0
 12 13  1  0  0  0  0
 13 17  1  0  0  0  0
 13 14  1  0  0  0  0
 14 15  1  0  0  0  0
 14 32  1  0  0  0  0
 14 33  1  0  0  0  0
 15 16  1  0  0  0  0
 15 34  1  0  0  0  0
 15 35  1  0  0  0  0
 16 17  1  0  0  0  0
 16 36  1  0  0  0  0
 16 37  1  0  0  0  0
 17 38  1  0  0  0  0
 17 39  1  0  0  0  0
 18 22  1  0  0  0  0
 18 19  1  0  0  0  0
 18 40  1  0  0  0  0
 19 20  1  0  0  0  0
 19 41  1  0  0  0  0
 19 42  1  0  0  0  0
 20 21  1  0  0  0  0
 20 43  1  0  0  0  0
 20 44  1  0  0  0  0
 21 22  1  0  0  0  0
 21 45  1  0  0  0  0
 21 46  1  0  0  0  0
M  CHG  1  11   1
M  END
> <s_m_source_file>
AV-unprocessed.smi

> <i_m_source_file_index>
1793

> <i_lp_mmshare_version>
43012

> <i_f3d_flags>
0

> <s_epik_input>
TzFbQ0gyXVtDSDJdW0NIMl1bQ0BIXTFbQ0BIXShbQ0gzXSlbTkhdQyg9TylbTkhdYzJbY0hdW2NIXVtjSF1uYzJOM1tDSDJdW0NIMl1bQ0gyXVtDSDJdMw==

> <s_epik_cmdline>
J2VwaWtfcHl0aG9uJywgJy1waCcsICc3LjAnLCAnLXRuJywgJzgnLCAnLW1hJywgJzIwMCcsICctbWV0YWxfYmluZGluZycsICctaW1hZScsICc8aW5maWxlLm1hZT4nLCAnLW9tYWUnLCAnPG91dGZpbGUubWFlPic=

> <r_lp_tautomer_probability>
0.999994

> <r_epik_Ionization_Penalty>
1.11092

> <r_epik_Ionization_Penalty_Charging>
1.1109

> <r_epik_Ionization_Penalty_Neutral>
1.9363e-05

> <r_epik_State_Penalty>
1.16888

> <r_epik_Charging_Adjusted_Penalty>
2.27978

> <i_epik_Tot_Q>
1

> <i_epik_Tot_abs_Q>
1

> <r_epik_Metal_State_Penalty>
1.25472

> <b_epik_Metal_Only>
0

> <s_lp_Force_Field>
OPLS_2005

> <r_lp_Energy>
52.5047

> <b_lp_Chiralities_Consistent>
1

> <s_lp_Variant>
AV-unprocessed.smi:1793-5

> <Gold.Version>
5.8.1

> <Gold.Id.Protein>
6NUR|6NUR_protein|mol2

> <Gold.PLP.Fitness>
39.3082

> <Gold.PLP.PLP>
-30.8023

> <Gold.PLP.part.hbond>
-2.0000

> <Gold.PLP.part.metal>
0.0000

> <Gold.PLP.part.buried>
-5.3696

> <Gold.PLP.part.nonpolar>
-23.8739

> <Gold.PLP.part.repulsive>
0.1900

> <Gold.PLP.ligand.clash>
0.0000

> <Gold.PLP.ligand.torsion>
0.4654

> <Gold.PLP.Chemscore.Hbond>
3.0000

> <Gold.PLP.Chemscore.CHOScore>
0.0000

> <Gold.PLP.Chemscore.Metal>
0.0000

> <Gold.Chemscore.Hbonds>
donor molecule, donor type, donor heavy atom, donor atom, acceptor molecule, acceptor atom, score
      L1  H    11    47       P1  8028  2.00
      P1  H  6896  6908       L1    22  0.92

> <Gold.PLP.Chemscore.Internal.Correction>
0.4367

> <Gold.Rescore>
     Score         DG    S(hbond)    S(metal)    S(lipo)     H(rot)  DE(clash)    DE(int)     intcor
     14.95     -16.72       1.83        0.00      74.16       1.38       0.01       1.77       ----

> <Gold.Chemscore.Fitness>
14.9453

> <Gold.Chemscore.DG>
-16.7240

> <Gold.Chemscore.ZeroCoef>
-5.4800

> <Gold.Chemscore.Hbond>
1.8266

> <Gold.Chemscore.Metal>
0.0000

> <Gold.Chemscore.Lipo>
74.1581

> <Gold.Chemscore.Internal_Hbond>
0.0000

> <Gold.Chemscore.DEClash>
0.0124

> <Gold.Chemscore.DEInternal>
1.7663

> <Gold.Chemscore.Rot>
1.3802

> <Gold.Chemscore.Internal.Correction>
   9.000000E+99

> <Gold.Chemscore.Hbonds>
donor molecule, donor type, donor heavy atom, donor atom, acceptor molecule, acceptor atom, score
      L1  H    11    47       P1  8028  0.93
      P1  H  6896  6908       L1    22  0.46

> <Gold.Chemscore.Hbond.Weighted>
-6.1007

> <Gold.Chemscore.Metal.Weighted>
-0.0000

> <Gold.Chemscore.Lipo.Weighted>
-8.6765

> <Gold.Chemscore.Internal_Hbond.Weighted>
0.0000

> <Gold.Chemscore.DEClash.Weighted>
0.0124

> <Gold.Chemscore.DEInternal.Weighted>
1.7663

> <Gold.Chemscore.Rot.Weighted>
3.5332

> <Gold.Chemscore.Internal.Correction.Weighted>
   9.000000E+99

> <Gold.Protein.RotatedTorsions>
[ 6907 6896 6895 6894 ] final  104.83 input  -60.11 | X-H torsion
[ 7974 7965 7964 7962 ] final  -64.93 input  175.53 | X-H torsion
[ 8008 7997 7996 7995 ] final  177.95 input   59.86 | X-H torsion
[ 10167 10162 10161 10158 ] final -162.54 input  -65.29 | X-H torsion
[ 10718 10713 10712 10709 ] final   21.04 input   66.30 | X-H torsion
[ 10763 10752 10751 10750 ] final -166.59 input  -60.55 | X-H torsion
[ 11005 11000 10999 10996 ] final   30.26 input  -57.11 | X-H torsion

> <Gold.Protein.ActiveResidues>
 VAL166  LYS551  ARG553  GLY616  TRP617  ASP618  TYR619  PRO620  LYS621  CYS622 
 ASP623  PHE694  ASN695  SER759  ASP760  ASP761  ALA762  ILE779  LEU786  VAL792 
 PHE793  MET794  SER795  GLU796  ALA797  LYS798  CYS799  TRP800  GLU811  SER814 

> <Gold.Protein.RotatedAtoms>
  152.5251  133.9619  159.7720 H   0  0  0  0  0  0  0  0  0  0  0  0  # atno 6907 bound_to 6896
  150.9908  133.6144  159.2715 H   0  0  0  0  0  0  0  0  0  0  0  0  # atno 6908 bound_to 6896
  151.3288  135.0842  159.9384 H   0  0  0  0  0  0  0  0  0  0  0  0  # atno 6909 bound_to 6896
  145.7606  140.8863  143.0432 H   0  0  0  0  0  0  0  0  0  0  0  0  # atno 7974 bound_to 7965
  156.0600  140.1345  156.9952 H   0  0  0  0  0  0  0  0  0  0  0  0  # atno 8008 bound_to 7997
  154.4477  140.0993  156.6573 H   0  0  0  0  0  0  0  0  0  0  0  0  # atno 8009 bound_to 7997
  155.5392  140.3460  155.4445 H   0  0  0  0  0  0  0  0  0  0  0  0  # atno 8010 bound_to 7997
  139.6385  144.0305  152.2073 H   0  0  0  0  0  0  0  0  0  0  0  0  # atno 10167 bound_to 10162
  157.1329  130.6598  149.5957 H   0  0  0  0  0  0  0  0  0  0  0  0  # atno 10718 bound_to 10713
  154.6817  135.2955  154.9603 H   0  0  0  0  0  0  0  0  0  0  0  0  # atno 10763 bound_to 10752
  154.0596  135.6633  153.4814 H   0  0  0  0  0  0  0  0  0  0  0  0  # atno 10764 bound_to 10752
  153.0552  135.5149  154.7864 H   0  0  0  0  0  0  0  0  0  0  0  0  # atno 10765 bound_to 10752
  140.2963  134.2808  155.7764 H   0  0  0  0  0  0  0  0  0  0  0  0  # atno 11005 bound_to 11000
  144.6831  139.9717  143.7482 LP  0  0  0  0  0  0  0  0  0  0  0  0  # atno 17320 bound_to 7965
  146.0268  139.3299  143.0780 LP  0  0  0  0  0  0  0  0  0  0  0  0  # atno 17321 bound_to 7965
  139.9988  144.6308  150.7748 LP  0  0  0  0  0  0  0  0  0  0  0  0  # atno 17342 bound_to 10162
  140.7478  143.2912  151.3326 LP  0  0  0  0  0  0  0  0  0  0  0  0  # atno 17343 bound_to 10162
  155.9804  130.4805  150.6771 LP  0  0  0  0  0  0  0  0  0  0  0  0  # atno 17370 bound_to 10713
  157.4377  131.0857  151.0975 LP  0  0  0  0  0  0  0  0  0  0  0  0  # atno 17371 bound_to 10713
  141.2137  133.7617  156.9699 LP  0  0  0  0  0  0  0  0  0  0  0  0  # atno 17394 bound_to 11000
  140.1150  134.9453  157.2121 LP  0  0  0  0  0  0  0  0  0  0  0  0  # atno 17395 bound_to 11000

$$$$
