AV-unprocessed.smi:113|AV-procd|sdf|1101|dock7
  -GOLD-   2262018213D 1   1.00000     0.00000
 Structure written by MMmdl.
 53 56  0  0  0  0  0  0  0  0  2 V2000
  146.3785  130.1834  160.5699 C   0  0  0  0  0  0  0  0  0  0  0  0
  146.8416  131.6221  160.4843 C   0  0  0  0  0  0  0  0  0  0  0  0
  147.4382  132.1488  159.3226 C   0  0  0  0  0  0  0  0  0  0  0  0
  147.8602  133.5012  159.2941 C   0  0  0  0  0  0  0  0  0  0  0  0
  148.5160  134.0992  158.0447 C   0  0  0  0  0  0  0  0  0  0  0  0
  148.6012  133.2380  156.8735 N   0  0  0  0  0  0  0  0  0  0  0  0
  149.8076  132.5294  156.6559 C   0  0  0  0  0  0  0  0  0  0  0  0
  150.7678  132.6395  157.4215 O   0  0  0  0  0  0  0  0  0  0  0  0
  149.8253  131.6872  155.4578 C   0  0  0  0  0  0  0  0  0  0  0  0
  151.0708  130.8592  155.1823 C   0  0  0  0  0  0  0  0  0  0  0  0
  148.7486  131.6645  154.6356 C   0  0  0  0  0  0  0  0  0  0  0  0
  147.6000  132.4088  154.8425 N   0  0  0  0  0  0  0  0  0  0  0  0
  146.4500  132.2855  153.8628 C   0  0  2  0  0  0  0  0  0  0  0  0
  146.7008  131.2675  152.7439 C   0  0  0  0  0  0  0  0  0  0  0  0
  145.9946  131.9331  151.5809 C   0  0  2  0  0  0  0  0  0  0  0  0
  146.5412  131.5082  150.3492 O   0  0  0  0  0  0  0  0  0  0  0  0
  146.2399  133.4224  151.8453 C   0  0  1  0  0  0  0  0  0  0  0  0
  145.1611  134.3339  151.2406 C   0  0  0  0  0  0  0  0  0  0  0  0
  144.8952  133.9542  149.9073 O   0  0  0  0  0  0  0  0  0  0  0  0
  146.2209  133.5300  153.2695 O   0  0  0  0  0  0  0  0  0  0  0  0
  147.4886  133.2069  156.0030 C   0  0  0  0  0  0  0  0  0  0  0  0
  146.4702  133.8597  156.2386 O   0  0  0  0  0  0  0  0  0  0  0  0
  147.6593  134.2942  160.4573 C   0  0  0  0  0  0  0  0  0  0  0  0
  148.0437  135.6552  160.5183 C   0  0  0  0  0  0  0  0  0  0  0  0
  147.8311  136.4064  161.6907 C   0  0  0  0  0  0  0  0  0  0  0  0
  147.2316  135.8115  162.8164 C   0  0  0  0  0  0  0  0  0  0  0  0
  146.8417  134.4603  162.7724 C   0  0  0  0  0  0  0  0  0  0  0  0
  147.0536  133.7068  161.6009 C   0  0  0  0  0  0  0  0  0  0  0  0
  146.6768  132.4113  161.5652 N   0  3  0  0  0  0  0  0  0  0  0  0
  146.1592  129.7870  159.5780 H   0  0  0  0  0  0  0  0  0  0  0  0
  145.4746  130.1011  161.1742 H   0  0  0  0  0  0  0  0  0  0  0  0
  147.1536  129.5647  161.0224 H   0  0  0  0  0  0  0  0  0  0  0  0
  147.5658  131.5044  158.4657 H   0  0  0  0  0  0  0  0  0  0  0  0
  147.9970  135.0124  157.7497 H   0  0  0  0  0  0  0  0  0  0  0  0
  149.5311  134.4300  158.2707 H   0  0  0  0  0  0  0  0  0  0  0  0
  150.9656  130.2555  154.2806 H   0  0  0  0  0  0  0  0  0  0  0  0
  151.2721  130.1823  156.0137 H   0  0  0  0  0  0  0  0  0  0  0  0
  151.9380  131.5072  155.0505 H   0  0  0  0  0  0  0  0  0  0  0  0
  148.7971  131.0304  153.7618 H   0  0  0  0  0  0  0  0  0  0  0  0
  145.5690  132.0287  154.4514 H   0  0  0  0  0  0  0  0  0  0  0  0
  147.7653  131.1504  152.5446 H   0  0  0  0  0  0  0  0  0  0  0  0
  146.2884  130.2922  153.0033 H   0  0  0  0  0  0  0  0  0  0  0  0
  144.9278  131.7068  151.6172 H   0  0  0  0  0  0  0  0  0  0  0  0
  147.4314  131.2264  150.4964 H   0  0  0  0  0  0  0  0  0  0  0  0
  147.2309  133.6983  151.4809 H   0  0  0  0  0  0  0  0  0  0  0  0
  144.2299  134.2334  151.7991 H   0  0  0  0  0  0  0  0  0  0  0  0
  145.4551  135.3828  151.2868 H   0  0  0  0  0  0  0  0  0  0  0  0
  145.4711  134.4389  149.3357 H   0  0  0  0  0  0  0  0  0  0  0  0
  148.5054  136.1462  159.6751 H   0  0  0  0  0  0  0  0  0  0  0  0
  148.1297  137.4442  161.7261 H   0  0  0  0  0  0  0  0  0  0  0  0
  147.0706  136.3921  163.7131 H   0  0  0  0  0  0  0  0  0  0  0  0
  146.3814  134.0086  163.6394 H   0  0  0  0  0  0  0  0  0  0  0  0
  146.2447  132.0093  162.3970 H   0  0  0  0  0  0  0  0  0  0  0  0
  1  2  1  0  0  0  0
  1 30  1  0  0  0  0
  1 31  1  0  0  0  0
  1 32  1  0  0  0  0
  2 29  1  0  0  0  0
  2  3  2  0  0  0  0
  3  4  1  0  0  0  0
  3 33  1  0  0  0  0
  4  5  1  0  0  0  0
  4 23  2  0  0  0  0
  5  6  1  0  0  0  0
  5 34  1  0  0  0  0
  5 35  1  0  0  0  0
  6 21  1  0  0  0  0
  6  7  1  0  0  0  0
  7  8  2  0  0  0  0
  7  9  1  0  0  0  0
  9 10  1  0  0  0  0
  9 11  2  0  0  0  0
 10 36  1  0  0  0  0
 10 37  1  0  0  0  0
 10 38  1  0  0  0  0
 11 12  1  0  0  0  0
 11 39  1  0  0  0  0
 12 13  1  0  0  0  0
 12 21  1  0  0  0  0
 13 20  1  0  0  0  0
 13 14  1  0  0  0  0
 13 40  1  0  0  0  0
 14 15  1  0  0  0  0
 14 41  1  0  0  0  0
 14 42  1  0  0  0  0
 15 16  1  0  0  0  0
 15 17  1  0  0  0  0
 15 43  1  0  0  0  0
 16 44  1  0  0  0  0
 17 18  1  0  0  0  0
 17 20  1  0  0  0  0
 17 45  1  0  0  0  0
 18 19  1  0  0  0  0
 18 46  1  0  0  0  0
 18 47  1  0  0  0  0
 19 48  1  0  0  0  0
 21 22  2  0  0  0  0
 23 28  1  0  0  0  0
 23 24  1  0  0  0  0
 24 25  2  0  0  0  0
 24 49  1  0  0  0  0
 25 26  1  0  0  0  0
 25 50  1  0  0  0  0
 26 27  2  0  0  0  0
 26 51  1  0  0  0  0
 27 28  1  0  0  0  0
 27 52  1  0  0  0  0
 28 29  2  0  0  0  0
 29 53  1  0  0  0  0
M  CHG  1  29   1
M  END
> <s_m_source_file>
AV-unprocessed.smi

> <i_m_source_file_index>
113

> <i_lp_mmshare_version>
43012

> <i_f3d_flags>
0

> <s_epik_input>
W2NIXTFbY0hdW2NIXVtjSF1jKGMxMiluYyhbQ0gzXSlbY0hdYzJbQ0gyXW4zYyg9TyljKFtDSDNdKVtjSF1uKGMzPU8pW0NAQEhdNFtDSDJdW0NAQEhdKFtPSF0pW0NASF0oTzQpW0NIMl1bT0hd

> <s_epik_cmdline>
J2VwaWtfcHl0aG9uJywgJy1waCcsICc3LjAnLCAnLXRuJywgJzgnLCAnLW1hJywgJzIwMCcsICctbWV0YWxfYmluZGluZycsICctaW1hZScsICc8aW5maWxlLm1hZT4nLCAnLW9tYWUnLCAnPG91dGZpbGUubWFlPic=

> <r_lp_tautomer_probability>
1

> <r_epik_Ionization_Penalty>
0.705471

> <r_epik_Ionization_Penalty_Charging>
0.70547

> <r_epik_Ionization_Penalty_Neutral>
1.19947e-07

> <r_epik_State_Penalty>
0.728574

> <r_epik_Charging_Adjusted_Penalty>
1.43404

> <i_epik_Tot_Q>
1

> <i_epik_Tot_abs_Q>
1

> <r_epik_Metal_State_Penalty>
4.61665

> <b_epik_Metal_Only>
0

> <s_epik_Chemistry_Notes>
This compound contains an acetal/aminal-like group ( X-CH(R)-Y where X, Y are N, S, or O) that may be acid/base labile, releasing an aldehyde.

> <s_lp_Force_Field>
OPLS_2005

> <r_lp_Energy>
36.4748

> <b_lp_Chiralities_Consistent>
1

> <s_lp_Variant>
AV-unprocessed.smi:113-11

> <Gold.Version>
5.8.1

> <Gold.Id.Protein>
6NUR|6NUR_protein|mol2

> <Gold.PLP.Fitness>
49.2155

> <Gold.PLP.PLP>
-41.2111

> <Gold.PLP.part.hbond>
-2.9743

> <Gold.PLP.part.metal>
0.0000

> <Gold.PLP.part.buried>
-5.6316

> <Gold.PLP.part.nonpolar>
-33.4319

> <Gold.PLP.part.repulsive>
0.1344

> <Gold.PLP.ligand.clash>
0.0000

> <Gold.PLP.ligand.torsion>
0.5162

> <Gold.PLP.Chemscore.Hbond>
3.0000

> <Gold.PLP.Chemscore.CHOScore>
0.0000

> <Gold.PLP.Chemscore.Metal>
0.0000

> <Gold.Chemscore.Hbonds>
donor molecule, donor type, donor heavy atom, donor atom, acceptor molecule, acceptor atom, score
      L1  H    16    44       P1 10747  1.00
      L1  H    19    48       P1  7921  1.00
      P1  H  6896  6909       L1     8  1.00

> <Gold.PLP.Chemscore.Internal.Correction>
0.0368

> <Gold.Rescore>
     Score         DG    S(hbond)    S(metal)    S(lipo)     H(rot)  DE(clash)    DE(int)     intcor
     17.79     -19.31       2.88        0.00     101.91       3.01       0.01       1.52       ----

> <Gold.Chemscore.Fitness>
17.7865

> <Gold.Chemscore.DG>
-19.3137

> <Gold.Chemscore.ZeroCoef>
-5.4800

> <Gold.Chemscore.Hbond>
2.8806

> <Gold.Chemscore.Metal>
0.0000

> <Gold.Chemscore.Lipo>
101.9076

> <Gold.Chemscore.Internal_Hbond>
0.0000

> <Gold.Chemscore.DEClash>
0.0060

> <Gold.Chemscore.DEInternal>
1.5212

> <Gold.Chemscore.Rot>
3.0120

> <Gold.Chemscore.Internal.Correction>
   9.000000E+99

> <Gold.Chemscore.Hbonds>
donor molecule, donor type, donor heavy atom, donor atom, acceptor molecule, acceptor atom, score
      L1  H    16    44       P1 10747  0.98
      L1  H    19    48       P1  7921  0.91
      P1  H  6896  6909       L1     8  0.93

> <Gold.Chemscore.Hbond.Weighted>
-9.6213

> <Gold.Chemscore.Metal.Weighted>
-0.0000

> <Gold.Chemscore.Lipo.Weighted>
-11.9232

> <Gold.Chemscore.Internal_Hbond.Weighted>
0.0000

> <Gold.Chemscore.DEClash.Weighted>
0.0060

> <Gold.Chemscore.DEInternal.Weighted>
1.5212

> <Gold.Chemscore.Rot.Weighted>
7.7108

> <Gold.Chemscore.Internal.Correction.Weighted>
   9.000000E+99

> <Gold.Protein.RotatedTorsions>
[ 6907 6896 6895 6894 ] final  -42.30 input  -60.11 | X-H torsion
[ 7974 7965 7964 7962 ] final   66.19 input  175.53 | X-H torsion
[ 8008 7997 7996 7995 ] final   53.19 input   59.86 | X-H torsion
[ 10167 10162 10161 10158 ] final   16.92 input  -65.29 | X-H torsion
[ 10718 10713 10712 10709 ] final  -38.10 input   66.30 | X-H torsion
[ 10763 10752 10751 10750 ] final -158.55 input  -60.55 | X-H torsion
[ 11005 11000 10999 10996 ] final   68.88 input  -57.11 | X-H torsion

> <Gold.Protein.ActiveResidues>
 VAL166  LYS551  ARG553  GLY616  TRP617  ASP618  TYR619  PRO620  LYS621  CYS622 
 ASP623  PHE694  ASN695  SER759  ASP760  ASP761  ALA762  ILE779  LEU786  VAL792 
 PHE793  MET794  SER795  GLU796  ALA797  LYS798  CYS799  TRP800  GLU811  SER814 

> <Gold.Protein.RotatedAtoms>
  150.9568  134.8961  159.7705 H   0  0  0  0  0  0  0  0  0  0  0  0  # atno 6907 bound_to 6896
  152.5141  134.3729  159.9334 H   0  0  0  0  0  0  0  0  0  0  0  0  # atno 6908 bound_to 6896
  151.3743  133.3803  159.2738 H   0  0  0  0  0  0  0  0  0  0  0  0  # atno 6909 bound_to 6896
  145.8295  139.3131  143.0996 H   0  0  0  0  0  0  0  0  0  0  0  0  # atno 7974 bound_to 7965
  155.4641  140.3463  155.4317 H   0  0  0  0  0  0  0  0  0  0  0  0  # atno 8008 bound_to 7997
  156.1142  140.1469  156.9325 H   0  0  0  0  0  0  0  0  0  0  0  0  # atno 8009 bound_to 7997
  154.4777  140.0879  156.7282 H   0  0  0  0  0  0  0  0  0  0  0  0  # atno 8010 bound_to 7997
  140.5763  143.9067  150.6752 H   0  0  0  0  0  0  0  0  0  0  0  0  # atno 10167 bound_to 10162
  156.3076  130.4248  149.8081 H   0  0  0  0  0  0  0  0  0  0  0  0  # atno 10718 bound_to 10713
  154.7547  135.3101  154.8492 H   0  0  0  0  0  0  0  0  0  0  0  0  # atno 10763 bound_to 10752
  153.9269  135.6789  153.4750 H   0  0  0  0  0  0  0  0  0  0  0  0  # atno 10764 bound_to 10752
  153.1144  135.4851  154.9019 H   0  0  0  0  0  0  0  0  0  0  0  0  # atno 10765 bound_to 10752
  139.9685  134.6939  156.0495 H   0  0  0  0  0  0  0  0  0  0  0  0  # atno 11005 bound_to 11000
  145.9587  140.8853  143.0222 LP  0  0  0  0  0  0  0  0  0  0  0  0  # atno 17320 bound_to 7965
  144.6741  140.1781  143.7408 LP  0  0  0  0  0  0  0  0  0  0  0  0  # atno 17321 bound_to 7965
  140.2555  143.3562  152.1369 LP  0  0  0  0  0  0  0  0  0  0  0  0  # atno 17342 bound_to 10162
  139.5144  144.6948  151.5661 LP  0  0  0  0  0  0  0  0  0  0  0  0  # atno 17343 bound_to 10162
  156.5436  130.8311  151.3277 LP  0  0  0  0  0  0  0  0  0  0  0  0  # atno 17370 bound_to 10713
  157.7383  130.9811  150.2246 LP  0  0  0  0  0  0  0  0  0  0  0  0  # atno 17371 bound_to 10713
  141.1365  133.6574  156.3609 LP  0  0  0  0  0  0  0  0  0  0  0  0  # atno 17394 bound_to 11000
  140.5343  134.6182  157.5360 LP  0  0  0  0  0  0  0  0  0  0  0  0  # atno 17395 bound_to 11000

$$$$
