AV-unprocessed.smi:2179|AV-procd|sdf|8856|dock3
  -GOLD-   2272012 53D 1   1.00000     0.00000
 Structure written by MMmdl.
 47 48  0  0  0  0  0  0  0  0  1 V2000
  144.7278  135.2804  150.1791 C   0  0  0  0  0  0  0  0  0  0  0  0
  145.5552  135.7794  151.3590 C   0  0  0  0  0  0  0  0  0  0  0  0
  146.1218  134.9737  152.0965 O   0  0  0  0  0  0  0  0  0  0  0  0
  145.6217  137.1092  151.5230 N   0  0  0  0  0  0  0  0  0  0  0  0
  146.3615  137.7849  152.5820 C   0  0  0  0  0  0  0  0  0  0  0  0
  146.9514  139.1208  152.0951 C   0  0  0  0  0  0  0  0  0  0  0  0
  147.8034  139.7286  153.1094 N   0  0  0  0  0  0  0  0  0  0  0  0
  147.4242  140.0042  154.3680 C   0  0  0  0  0  0  0  0  0  0  0  0
  146.3065  139.7440  154.8137 O   0  0  0  0  0  0  0  0  0  0  0  0
  148.4821  140.6050  155.2474 C   0  0  0  0  0  0  0  0  0  0  0  0
  149.7702  140.9112  154.7575 C   0  0  0  0  0  0  0  0  0  0  0  0
  150.7122  141.4978  155.6244 C   0  0  0  0  0  0  0  0  0  0  0  0
  150.3441  141.7707  156.9631 C   0  0  0  0  0  0  0  0  0  0  0  0
  151.2721  142.3579  157.8509 N   0  0  0  0  0  0  0  0  0  0  0  0
  151.9081  141.4471  158.7991 C   0  0  0  0  0  0  0  0  0  0  0  0
  153.1113  142.1300  159.4767 C   0  0  2  0  0  0  0  0  0  0  0  0
  153.7318  141.2514  160.5678 C   0  0  0  0  0  0  0  0  0  0  0  0
  152.6827  143.3499  160.0755 O   0  0  0  0  0  0  0  0  0  0  0  0
  152.1682  144.2734  159.1202 C   0  0  2  0  0  0  0  0  0  0  0  0
  151.8271  145.5783  159.8473 C   0  0  0  0  0  0  0  0  0  0  0  0
  150.9361  143.6551  158.4342 C   0  0  0  0  0  0  0  0  0  0  0  0
  149.1009  141.4909  157.4259 N   0  0  0  0  0  0  0  0  0  0  0  0
  148.2007  140.9298  156.5914 C   0  0  0  0  0  0  0  0  0  0  0  0
  145.3541  135.1954  149.2907 H   0  0  0  0  0  0  0  0  0  0  0  0
  143.9048  135.9612  149.9583 H   0  0  0  0  0  0  0  0  0  0  0  0
  144.3063  134.2983  150.3960 H   0  0  0  0  0  0  0  0  0  0  0  0
  145.1227  137.6944  150.8685 H   0  0  0  0  0  0  0  0  0  0  0  0
  145.6739  137.9621  153.4095 H   0  0  0  0  0  0  0  0  0  0  0  0
  147.1465  137.1304  152.9656 H   0  0  0  0  0  0  0  0  0  0  0  0
  147.5125  138.9835  151.1688 H   0  0  0  0  0  0  0  0  0  0  0  0
  146.1474  139.8219  151.8691 H   0  0  0  0  0  0  0  0  0  0  0  0
  148.7495  139.9528  152.8375 H   0  0  0  0  0  0  0  0  0  0  0  0
  150.0419  140.7114  153.7312 H   0  0  0  0  0  0  0  0  0  0  0  0
  151.6933  141.7461  155.2485 H   0  0  0  0  0  0  0  0  0  0  0  0
  151.1718  141.1537  159.5485 H   0  0  0  0  0  0  0  0  0  0  0  0
  152.2469  140.5327  158.3141 H   0  0  0  0  0  0  0  0  0  0  0  0
  153.8777  142.3477  158.7303 H   0  0  0  0  0  0  0  0  0  0  0  0
  154.0883  140.3068  160.1561 H   0  0  0  0  0  0  0  0  0  0  0  0
  153.0080  141.0241  161.3510 H   0  0  0  0  0  0  0  0  0  0  0  0
  154.5806  141.7520  161.0343 H   0  0  0  0  0  0  0  0  0  0  0  0
  152.9372  144.4832  158.3745 H   0  0  0  0  0  0  0  0  0  0  0  0
  151.4370  146.3235  159.1536 H   0  0  0  0  0  0  0  0  0  0  0  0
  152.7113  146.0002  160.3255 H   0  0  0  0  0  0  0  0  0  0  0  0
  151.0759  145.4144  160.6205 H   0  0  0  0  0  0  0  0  0  0  0  0
  150.5764  144.3340  157.6597 H   0  0  0  0  0  0  0  0  0  0  0  0
  150.1284  143.5250  159.1562 H   0  0  0  0  0  0  0  0  0  0  0  0
  147.2281  140.7323  157.0184 H   0  0  0  0  0  0  0  0  0  0  0  0
  1  2  1  0  0  0  0
  1 24  1  0  0  0  0
  1 25  1  0  0  0  0
  1 26  1  0  0  0  0
  2  3  2  0  0  0  0
  2  4  1  0  0  0  0
  4  5  1  0  0  0  0
  4 27  1  0  0  0  0
  5  6  1  0  0  0  0
  5 28  1  0  0  0  0
  5 29  1  0  0  0  0
  6  7  1  0  0  0  0
  6 30  1  0  0  0  0
  6 31  1  0  0  0  0
  7  8  1  0  0  0  0
  7 32  1  0  0  0  0
  8  9  2  0  0  0  0
  8 10  1  0  0  0  0
 10 23  1  0  0  0  0
 10 11  2  0  0  0  0
 11 12  1  0  0  0  0
 11 33  1  0  0  0  0
 12 13  2  0  0  0  0
 12 34  1  0  0  0  0
 13 14  1  0  0  0  0
 13 22  1  0  0  0  0
 14 21  1  0  0  0  0
 14 15  1  0  0  0  0
 15 16  1  0  0  0  0
 15 35  1  0  0  0  0
 15 36  1  0  0  0  0
 16 17  1  0  0  0  0
 16 18  1  0  0  0  0
 16 37  1  0  0  0  0
 17 38  1  0  0  0  0
 17 39  1  0  0  0  0
 17 40  1  0  0  0  0
 18 19  1  0  0  0  0
 19 20  1  0  0  0  0
 19 21  1  0  0  0  0
 19 41  1  0  0  0  0
 20 42  1  0  0  0  0
 20 43  1  0  0  0  0
 20 44  1  0  0  0  0
 21 45  1  0  0  0  0
 21 46  1  0  0  0  0
 22 23  2  0  0  0  0
 23 47  1  0  0  0  0
M  END
> <s_m_source_file>
AV-unprocessed.smi

> <i_m_source_file_index>
2179

> <i_lp_mmshare_version>
43012

> <i_f3d_flags>
0

> <s_epik_input>
W0NIM11DKD1PKVtOSF1bQ0gyXVtDSDJdW05IXUMoPU8pYzFbY0hdW2NIXWMobltjSF0xKU4yW0NIMl1bQ0BASF0oW0NIM10pT1tDQEBIXShbQ0gzXSlbQ0gyXTI=

> <s_epik_cmdline>
J2VwaWtfcHl0aG9uJywgJy1waCcsICc3LjAnLCAnLXRuJywgJzgnLCAnLW1hJywgJzIwMCcsICctbWV0YWxfYmluZGluZycsICctaW1hZScsICc8aW5maWxlLm1hZT4nLCAnLW9tYWUnLCAnPG91dGZpbGUubWFlPic=

> <r_lp_tautomer_probability>
1

> <r_epik_Ionization_Penalty>
2.00433e-05

> <r_epik_Ionization_Penalty_Charging>
0

> <r_epik_Ionization_Penalty_Neutral>
2.00433e-05

> <r_epik_State_Penalty>
-0

> <r_epik_Charging_Adjusted_Penalty>
0

> <i_epik_Tot_Q>
0

> <i_epik_Tot_abs_Q>
0

> <r_epik_Metal_State_Penalty>
-0

> <b_epik_Metal_Only>
0

> <s_lp_Force_Field>
OPLS_2005

> <r_lp_Energy>
13.6511

> <b_lp_Chiralities_Consistent>
1

> <s_lp_Variant>
AV-unprocessed.smi:2179-1

> <Gold.Version>
5.8.1

> <Gold.Id.Protein>
6NUR|6NUR_protein|mol2

> <Gold.PLP.Fitness>
49.9144

> <Gold.PLP.PLP>
-45.3538

> <Gold.PLP.part.hbond>
-2.0000

> <Gold.PLP.part.metal>
0.0000

> <Gold.PLP.part.buried>
-4.4960

> <Gold.PLP.part.nonpolar>
-38.4882

> <Gold.PLP.part.repulsive>
0.4518

> <Gold.PLP.ligand.clash>
0.0000

> <Gold.PLP.ligand.torsion>
0.4511

> <Gold.PLP.Chemscore.Hbond>
1.7040

> <Gold.PLP.Chemscore.CHOScore>
0.0000

> <Gold.PLP.Chemscore.Metal>
0.0000

> <Gold.Chemscore.Hbonds>
donor molecule, donor type, donor heavy atom, donor atom, acceptor molecule, acceptor atom, score
      L1  H     4    27       P1 10171  1.00
      L1  H     7    32       P1  7957  0.64

> <Gold.PLP.Chemscore.Internal.Correction>
0.3508

> <Gold.Rescore>
     Score         DG    S(hbond)    S(metal)    S(lipo)     H(rot)  DE(clash)    DE(int)     intcor
     17.41     -19.50       1.78        0.00     109.61       1.86       0.30       1.78       ----

> <Gold.Chemscore.Fitness>
17.4142

> <Gold.Chemscore.DG>
-19.4967

> <Gold.Chemscore.ZeroCoef>
-5.4800

> <Gold.Chemscore.Hbond>
1.7817

> <Gold.Chemscore.Metal>
0.0000

> <Gold.Chemscore.Lipo>
109.6054

> <Gold.Chemscore.Internal_Hbond>
0.0000

> <Gold.Chemscore.DEClash>
0.2980

> <Gold.Chemscore.DEInternal>
1.7845

> <Gold.Chemscore.Rot>
1.8586

> <Gold.Chemscore.Internal.Correction>
   9.000000E+99

> <Gold.Chemscore.Hbonds>
donor molecule, donor type, donor heavy atom, donor atom, acceptor molecule, acceptor atom, score
      L1  H     4    27       P1 10171  1.00
      L1  H     7    32       P1  7957  0.64

> <Gold.Chemscore.Hbond.Weighted>
-5.9508

> <Gold.Chemscore.Metal.Weighted>
-0.0000

> <Gold.Chemscore.Lipo.Weighted>
-12.8238

> <Gold.Chemscore.Internal_Hbond.Weighted>
0.0000

> <Gold.Chemscore.DEClash.Weighted>
0.2980

> <Gold.Chemscore.DEInternal.Weighted>
1.7845

> <Gold.Chemscore.Rot.Weighted>
4.7579

> <Gold.Chemscore.Internal.Correction.Weighted>
   9.000000E+99

> <Gold.Protein.RotatedTorsions>
[ 6907 6896 6895 6894 ] final  -44.24 input  -60.11 | X-H torsion
[ 7974 7965 7964 7962 ] final   55.37 input  175.53 | X-H torsion
[ 8008 7997 7996 7995 ] final  122.55 input   59.86 | X-H torsion
[ 10167 10162 10161 10158 ] final  175.14 input  -65.29 | X-H torsion
[ 10718 10713 10712 10709 ] final  -41.90 input   66.30 | X-H torsion
[ 10763 10752 10751 10750 ] final   73.51 input  -60.55 | X-H torsion
[ 11005 11000 10999 10996 ] final   22.27 input  -57.11 | X-H torsion

> <Gold.Protein.ActiveResidues>
 VAL166  LYS551  ARG553  GLY616  TRP617  ASP618  TYR619  PRO620  LYS621  CYS622 
 ASP623  PHE694  ASN695  SER759  ASP760  ASP761  ALA762  ILE779  LEU786  VAL792 
 PHE793  MET794  SER795  GLU796  ALA797  LYS798  CYS799  TRP800  GLU811  SER814 

> <Gold.Protein.RotatedAtoms>
  150.9350  134.8763  159.7575 H   0  0  0  0  0  0  0  0  0  0  0  0  # atno 6907 bound_to 6896
  152.5055  134.4024  159.9431 H   0  0  0  0  0  0  0  0  0  0  0  0  # atno 6908 bound_to 6896
  151.4048  133.3706  159.2771 H   0  0  0  0  0  0  0  0  0  0  0  0  # atno 6909 bound_to 6896
  145.9511  139.3973  143.0305 H   0  0  0  0  0  0  0  0  0  0  0  0  # atno 7974 bound_to 7965
  156.2732  140.2783  156.1485 H   0  0  0  0  0  0  0  0  0  0  0  0  # atno 8008 bound_to 7997
  155.0878  140.0388  157.2677 H   0  0  0  0  0  0  0  0  0  0  0  0  # atno 8009 bound_to 7997
  154.6913  140.2629  155.6815 H   0  0  0  0  0  0  0  0  0  0  0  0  # atno 8010 bound_to 7997
  139.5167  144.3065  152.0331 H   0  0  0  0  0  0  0  0  0  0  0  0  # atno 10167 bound_to 10162
  156.2654  130.4201  149.8496 H   0  0  0  0  0  0  0  0  0  0  0  0  # atno 10718 bound_to 10713
  153.0526  135.5060  154.7904 H   0  0  0  0  0  0  0  0  0  0  0  0  # atno 10763 bound_to 10752
  154.6754  135.2959  154.9687 H   0  0  0  0  0  0  0  0  0  0  0  0  # atno 10764 bound_to 10752
  154.0491  135.6706  153.4851 H   0  0  0  0  0  0  0  0  0  0  0  0  # atno 10765 bound_to 10752
  140.3825  134.1906  155.7663 H   0  0  0  0  0  0  0  0  0  0  0  0  # atno 11005 bound_to 11000
  145.8170  140.9698  143.0919 LP  0  0  0  0  0  0  0  0  0  0  0  0  # atno 17320 bound_to 7965
  144.6796  139.9993  143.7484 LP  0  0  0  0  0  0  0  0  0  0  0  0  # atno 17321 bound_to 7965
  140.2511  144.4168  150.6221 LP  0  0  0  0  0  0  0  0  0  0  0  0  # atno 17342 bound_to 10162
  140.6224  143.2177  151.6667 LP  0  0  0  0  0  0  0  0  0  0  0  0  # atno 17343 bound_to 10162
  156.5996  130.8541  151.3428 LP  0  0  0  0  0  0  0  0  0  0  0  0  # atno 17370 bound_to 10713
  157.7265  130.9631  150.1660 LP  0  0  0  0  0  0  0  0  0  0  0  0  # atno 17371 bound_to 10713
  141.1919  133.8186  157.0862 LP  0  0  0  0  0  0  0  0  0  0  0  0  # atno 17394 bound_to 11000
  140.0468  134.9826  157.1063 LP  0  0  0  0  0  0  0  0  0  0  0  0  # atno 17395 bound_to 11000

$$$$
