AV-unprocessed.smi:1715|AV-procd|sdf|6913|dock10
  -GOLD-   22720 8113D 1   1.00000     0.00000
 Structure written by MMmdl.
 41 42  0  0  0  0  0  0  0  0  2 V2000
  150.5700  134.6493  155.5549 C   0  0  0  0  0  0  0  0  0  0  0  0
  150.2273  135.8253  154.6336 C   0  0  1  0  0  0  0  0  0  0  0  0
  148.9186  136.5255  155.0452 C   0  0  0  0  0  0  0  0  0  0  0  0
  148.6603  137.6997  154.1782 N   0  3  1  0  0  0  0  0  0  0  0  0
  147.3753  138.3674  154.5035 C   0  0  0  0  0  0  0  0  0  0  0  0
  146.3007  138.1426  153.4216 C   0  0  0  0  0  0  0  0  0  0  0  0
  146.5807  136.9514  152.6278 N   0  0  0  0  0  0  0  0  0  0  0  0
  145.6649  136.0458  152.2554 C   0  0  0  0  0  0  0  0  0  0  0  0
  144.4735  136.1239  152.5559 O   0  0  0  0  0  0  0  0  0  0  0  0
  146.2162  135.0617  151.5263 N   0  0  0  0  0  0  0  0  0  0  0  0
  145.5620  133.9329  150.9709 C   0  0  0  0  0  0  0  0  0  0  0  0
  146.2044  132.7123  150.6280 C   0  0  0  0  0  0  0  0  0  0  0  0
  145.3437  131.8351  150.1321 N   0  0  0  0  0  0  0  0  0  0  0  0
  144.1577  132.4837  150.1556 N   0  0  0  0  0  0  0  0  0  0  0  0
  144.2424  133.7636  150.6575 C   0  0  0  0  0  0  0  0  0  0  0  0
  149.8271  138.6162  154.1941 C   0  0  0  0  0  0  0  0  0  0  0  0
  151.1132  137.8604  153.8082 C   0  0  1  0  0  0  0  0  0  0  0  0
  152.3565  138.7523  153.8926 C   0  0  0  0  0  0  0  0  0  0  0  0
  151.2946  136.7643  154.6976 O   0  0  0  0  0  0  0  0  0  0  0  0
  143.3086  132.0439  149.8298 H   0  0  0  0  0  0  0  0  0  0  0  0
  149.7859  133.8921  155.5341 H   0  0  0  0  0  0  0  0  0  0  0  0
  150.6913  134.9778  156.5874 H   0  0  0  0  0  0  0  0  0  0  0  0
  151.5002  134.1717  155.2465 H   0  0  0  0  0  0  0  0  0  0  0  0
  150.1393  135.4506  153.6123 H   0  0  0  0  0  0  0  0  0  0  0  0
  148.0880  135.8223  154.9709 H   0  0  0  0  0  0  0  0  0  0  0  0
  148.9737  136.8486  156.0864 H   0  0  0  0  0  0  0  0  0  0  0  0
  146.9952  137.9680  155.4450 H   0  0  0  0  0  0  0  0  0  0  0  0
  147.5506  139.4316  154.6696 H   0  0  0  0  0  0  0  0  0  0  0  0
  145.3056  138.0509  153.8580 H   0  0  0  0  0  0  0  0  0  0  0  0
  146.2668  138.9988  152.7474 H   0  0  0  0  0  0  0  0  0  0  0  0
  147.5370  136.8100  152.3359 H   0  0  0  0  0  0  0  0  0  0  0  0
  147.2081  135.1246  151.3491 H   0  0  0  0  0  0  0  0  0  0  0  0
  147.2452  132.4390  150.7205 H   0  0  0  0  0  0  0  0  0  0  0  0
  143.3814  134.4098  150.7412 H   0  0  0  0  0  0  0  0  0  0  0  0
  149.6732  139.4397  153.4975 H   0  0  0  0  0  0  0  0  0  0  0  0
  149.9320  139.0550  155.1880 H   0  0  0  0  0  0  0  0  0  0  0  0
  151.0261  137.4835  152.7874 H   0  0  0  0  0  0  0  0  0  0  0  0
  152.2757  139.6043  153.2172 H   0  0  0  0  0  0  0  0  0  0  0  0
  153.2535  138.1963  153.6196 H   0  0  0  0  0  0  0  0  0  0  0  0
  152.4985  139.1375  154.9028 H   0  0  0  0  0  0  0  0  0  0  0  0
  148.5737  137.3438  153.2369 H   0  0  0  0  0  0  0  0  0  0  0  0
  1  2  1  0  0  0  0
  1 21  1  0  0  0  0
  1 22  1  0  0  0  0
  1 23  1  0  0  0  0
  2 19  1  0  0  0  0
  2  3  1  0  0  0  0
  2 24  1  0  0  0  0
  3  4  1  0  0  0  0
  3 25  1  0  0  0  0
  3 26  1  0  0  0  0
  4  5  1  0  0  0  0
  4 16  1  0  0  0  0
  4 41  1  0  0  0  0
  5  6  1  0  0  0  0
  5 27  1  0  0  0  0
  5 28  1  0  0  0  0
  6  7  1  0  0  0  0
  6 29  1  0  0  0  0
  6 30  1  0  0  0  0
  7  8  1  0  0  0  0
  7 31  1  0  0  0  0
  8  9  2  0  0  0  0
  8 10  1  0  0  0  0
 10 11  1  0  0  0  0
 10 32  1  0  0  0  0
 11 15  2  0  0  0  0
 11 12  1  0  0  0  0
 12 13  2  0  0  0  0
 12 33  1  0  0  0  0
 13 14  1  0  0  0  0
 14 20  1  0  0  0  0
 14 15  1  0  0  0  0
 15 34  1  0  0  0  0
 16 17  1  0  0  0  0
 16 35  1  0  0  0  0
 16 36  1  0  0  0  0
 17 18  1  0  0  0  0
 17 19  1  0  0  0  0
 17 37  1  0  0  0  0
 18 38  1  0  0  0  0
 18 39  1  0  0  0  0
 18 40  1  0  0  0  0
M  CHG  1   4   1
M  END
> <s_m_source_file>
AV-unprocessed.smi

> <i_m_source_file_index>
1715

> <i_lp_mmshare_version>
43012

> <i_f3d_flags>
0

> <s_epik_input>
W0NIM11bQ0BASF0xW0NIMl1OKFtDSDJdW0NASF0oTzEpW0NIM10pW0NIMl1bQ0gyXVtOSF1DKD1PKVtOSF1jMltjSF1uW25IXVtjSF0y

> <s_epik_cmdline>
J2VwaWtfcHl0aG9uJywgJy1waCcsICc3LjAnLCAnLXRuJywgJzgnLCAnLW1hJywgJzIwMCcsICctbWV0YWxfYmluZGluZycsICctaW1hZScsICc8aW5maWxlLm1hZT4nLCAnLW9tYWUnLCAnPG91dGZpbGUubWFlPic=

> <r_lp_tautomer_probability>
0.5

> <r_epik_Ionization_Penalty>
0.646007

> <r_epik_Ionization_Penalty_Charging>
0.645968

> <r_epik_Ionization_Penalty_Neutral>
3.91671e-05

> <r_epik_State_Penalty>
0.664063

> <r_epik_Charging_Adjusted_Penalty>
1.31003

> <i_epik_Tot_Q>
1

> <i_epik_Tot_abs_Q>
1

> <r_epik_Metal_State_Penalty>
0.664064

> <b_epik_Metal_Only>
0

> <s_lp_Force_Field>
OPLS_2005

> <r_lp_Energy>
16.9027

> <b_lp_Chiralities_Consistent>
1

> <s_lp_Variant>
AV-unprocessed.smi:1715-5

> <Gold.Version>
5.8.1

> <Gold.Id.Protein>
6NUR|6NUR_protein|mol2

> <Gold.PLP.Fitness>
45.1375

> <Gold.PLP.PLP>
-27.4664

> <Gold.PLP.part.hbond>
-4.0000

> <Gold.PLP.part.metal>
0.0000

> <Gold.PLP.part.buried>
-5.2346

> <Gold.PLP.part.nonpolar>
-20.2219

> <Gold.PLP.part.repulsive>
0.6252

> <Gold.PLP.ligand.clash>
0.0000

> <Gold.PLP.ligand.torsion>
1.1999

> <Gold.PLP.Chemscore.Hbond>
4.9120

> <Gold.PLP.Chemscore.CHOScore>
1.7726

> <Gold.PLP.Chemscore.Metal>
0.0000

> <Gold.Chemscore.Hbonds>
donor molecule, donor type, donor heavy atom, donor atom, acceptor molecule, acceptor atom, score
      L1  H     4    41       P1  7948  2.00
      L1  H     7    31       P1  7948  1.00
      L1  H    10    32       P1  7948  0.80
      P1  H 10752 10765       L1    19  1.00
      L1  C    12    33       P1 10747  1.00
      L1  C    15    34       P1 10186  0.71

> <Gold.PLP.Chemscore.Internal.Correction>
0.0171

> <Gold.Rescore>
     Score         DG    S(hbond)    S(metal)    S(lipo)     H(rot)  DE(clash)    DE(int)     intcor
     19.31     -20.73       3.61        0.00      63.67       1.67       0.04       1.38       ----

> <Gold.Chemscore.Fitness>
19.3133

> <Gold.Chemscore.DG>
-20.7340

> <Gold.Chemscore.ZeroCoef>
-5.4800

> <Gold.Chemscore.Hbond>
3.6143

> <Gold.Chemscore.Metal>
0.0000

> <Gold.Chemscore.Lipo>
63.6734

> <Gold.Chemscore.Internal_Hbond>
0.0000

> <Gold.Chemscore.DEClash>
0.0417

> <Gold.Chemscore.DEInternal>
1.3789

> <Gold.Chemscore.Rot>
1.6671

> <Gold.Chemscore.Internal.Correction>
   9.000000E+99

> <Gold.Chemscore.Hbonds>
donor molecule, donor type, donor heavy atom, donor atom, acceptor molecule, acceptor atom, score
      L1  H     4    41       P1  7948  0.98
      L1  H     7    31       P1  7948  0.98
      L1  H    10    32       P1  7948  0.55
      P1  H 10752 10765       L1    19  0.37

> <Gold.Chemscore.Hbond.Weighted>
-12.0719

> <Gold.Chemscore.Metal.Weighted>
-0.0000

> <Gold.Chemscore.Lipo.Weighted>
-7.4498

> <Gold.Chemscore.Internal_Hbond.Weighted>
0.0000

> <Gold.Chemscore.DEClash.Weighted>
0.0417

> <Gold.Chemscore.DEInternal.Weighted>
1.3789

> <Gold.Chemscore.Rot.Weighted>
4.2677

> <Gold.Chemscore.Internal.Correction.Weighted>
   9.000000E+99

> <Gold.Protein.RotatedTorsions>
[ 6907 6896 6895 6894 ] final -111.28 input  -60.11 | X-H torsion
[ 7974 7965 7964 7962 ] final  127.88 input  175.53 | X-H torsion
[ 8008 7997 7996 7995 ] final  106.16 input   59.86 | X-H torsion
[ 10167 10162 10161 10158 ] final  -60.40 input  -65.29 | X-H torsion
[ 10718 10713 10712 10709 ] final  141.08 input   66.30 | X-H torsion
[ 10763 10752 10751 10750 ] final  177.84 input  -60.55 | X-H torsion
[ 11005 11000 10999 10996 ] final  -28.00 input  -57.11 | X-H torsion

> <Gold.Protein.ActiveResidues>
 VAL166  LYS551  ARG553  GLY616  TRP617  ASP618  TYR619  PRO620  LYS621  CYS622 
 ASP623  PHE694  ASN695  SER759  ASP760  ASP761  ALA762  ILE779  LEU786  VAL792 
 PHE793  MET794  SER795  GLU796  ALA797  LYS798  CYS799  TRP800  GLU811  SER814 

> <Gold.Protein.RotatedAtoms>
  150.7680  133.9259  159.3411 H   0  0  0  0  0  0  0  0  0  0  0  0  # atno 6907 bound_to 6896
  151.7152  135.0903  160.0284 H   0  0  0  0  0  0  0  0  0  0  0  0  # atno 6908 bound_to 6896
  152.3684  133.6349  159.6104 H   0  0  0  0  0  0  0  0  0  0  0  0  # atno 6909 bound_to 6896
  145.0457  139.3925  143.5079 H   0  0  0  0  0  0  0  0  0  0  0  0  # atno 7974 bound_to 7965
  156.1719  140.3118  155.8990 H   0  0  0  0  0  0  0  0  0  0  0  0  # atno 8008 bound_to 7997
  155.3568  140.0474  157.3063 H   0  0  0  0  0  0  0  0  0  0  0  0  # atno 8009 bound_to 7997
  154.5250  140.2211  155.8917 H   0  0  0  0  0  0  0  0  0  0  0  0  # atno 8010 bound_to 7997
  140.6073  143.2377  151.5791 H   0  0  0  0  0  0  0  0  0  0  0  0  # atno 10167 bound_to 10162
  157.3961  131.1011  151.0599 H   0  0  0  0  0  0  0  0  0  0  0  0  # atno 10718 bound_to 10713
  154.4998  135.2783  155.1430 H   0  0  0  0  0  0  0  0  0  0  0  0  # atno 10763 bound_to 10752
  154.3068  135.6237  153.5452 H   0  0  0  0  0  0  0  0  0  0  0  0  # atno 10764 bound_to 10752
  152.9900  135.5710  154.5438 H   0  0  0  0  0  0  0  0  0  0  0  0  # atno 10765 bound_to 10752
  140.9170  133.7423  156.0748 H   0  0  0  0  0  0  0  0  0  0  0  0  # atno 11005 bound_to 11000
  146.3513  140.0081  142.8669 LP  0  0  0  0  0  0  0  0  0  0  0  0  # atno 17320 bound_to 7965
  145.1591  140.9663  143.4388 LP  0  0  0  0  0  0  0  0  0  0  0  0  # atno 17321 bound_to 7965
  139.5335  144.2848  152.1200 LP  0  0  0  0  0  0  0  0  0  0  0  0  # atno 17342 bound_to 10162
  140.2041  144.4629  150.6417 LP  0  0  0  0  0  0  0  0  0  0  0  0  # atno 17343 bound_to 10162
  157.1615  130.6227  149.5612 LP  0  0  0  0  0  0  0  0  0  0  0  0  # atno 17370 bound_to 10713
  155.9811  130.4815  150.6807 LP  0  0  0  0  0  0  0  0  0  0  0  0  # atno 17371 bound_to 10713
  140.8037  134.3479  157.5432 LP  0  0  0  0  0  0  0  0  0  0  0  0  # atno 17394 bound_to 11000
  139.8768  134.9213  156.3272 LP  0  0  0  0  0  0  0  0  0  0  0  0  # atno 17395 bound_to 11000

$$$$
