AV-unprocessed.smi:265|AV-procd|sdf|2028|dock8
  -GOLD-   2262021233D 1   1.00000     0.00000
 Structure written by MMmdl.
 52 56  0  0  0  0  0  0  0  0  1 V2000
  147.4768  133.7562  157.1092 C   0  0  0  0  0  0  0  0  0  0  0  0
  148.9837  134.0493  157.0459 C   0  0  1  0  0  0  0  0  0  0  0  0
  149.7379  133.0202  157.6849 O   0  0  0  0  0  0  0  0  0  0  0  0
  150.8513  132.6472  156.8812 C   0  0  0  0  0  0  0  0  0  0  0  0
  151.0271  133.7860  155.8824 C   0  0  0  0  0  0  0  0  0  0  0  0
  149.5930  134.2344  155.6370 C   0  0  1  0  0  0  0  0  0  0  0  0
  148.9926  133.3371  154.7175 O   0  0  0  0  0  0  0  0  0  0  0  0
  149.4432  135.6477  155.0160 C   0  0  0  0  0  0  0  0  0  0  0  0
  149.9905  136.7327  155.8158 N   0  0  0  0  0  0  0  0  0  0  0  0
  149.5383  137.1665  157.0416 C   0  0  0  0  0  0  0  0  0  0  0  0
  150.2070  138.1583  157.5631 N   0  0  0  0  0  0  0  0  0  0  0  0
  151.2047  138.4229  156.6319 C   0  0  0  0  0  0  0  0  0  0  0  0
  152.2758  139.3586  156.5643 C   0  0  0  0  0  0  0  0  0  0  0  0
  152.5038  140.2853  157.5297 N   0  0  0  0  0  0  0  0  0  0  0  0
  152.9131  139.7322  158.8239 C   0  0  0  0  0  0  0  0  0  0  0  0
  153.5077  140.8210  159.7364 C   0  0  0  0  0  0  0  0  0  0  0  0
  152.5263  141.9935  159.8610 C   0  0  1  0  0  0  0  0  0  0  0  0
  153.0727  143.0682  160.6103 O   0  0  0  0  0  0  0  0  0  0  0  0
  152.1292  144.1113  160.8785 C   0  0  0  0  0  0  0  0  0  0  0  0
  151.3239  144.5272  159.6288 C   0  0  0  0  0  0  0  0  0  0  0  0
  150.6567  145.5590  159.6461 O   0  0  0  0  0  0  0  0  0  0  0  0
  151.3456  143.7136  158.5601 N   0  0  0  0  0  0  0  0  0  0  0  0
  152.2133  142.5474  158.4625 C   0  0  2  0  0  0  0  0  0  0  0  0
  151.6043  141.4421  157.5853 C   0  0  0  0  0  0  0  0  0  0  0  0
  153.0887  139.2995  155.4753 N   0  0  0  0  0  0  0  0  0  0  0  0
  152.8675  138.3972  154.5149 C   0  0  0  0  0  0  0  0  0  0  0  0
  151.9081  137.4729  154.4438 N   0  0  0  0  0  0  0  0  0  0  0  0
  151.0916  137.5230  155.5347 C   0  0  0  0  0  0  0  0  0  0  0  0
  151.6152  141.6386  160.3483 H   0  0  0  0  0  0  0  0  0  0  0  0
  153.1415  142.8857  157.9982 H   0  0  0  0  0  0  0  0  0  0  0  0
  146.9047  134.5414  156.6145 H   0  0  0  0  0  0  0  0  0  0  0  0
  147.1384  133.7016  158.1440 H   0  0  0  0  0  0  0  0  0  0  0  0
  147.2300  132.8066  156.6340 H   0  0  0  0  0  0  0  0  0  0  0  0
  149.1809  134.9385  157.6428 H   0  0  0  0  0  0  0  0  0  0  0  0
  151.7422  132.4795  157.4867 H   0  0  0  0  0  0  0  0  0  0  0  0
  150.6140  131.7171  156.3635 H   0  0  0  0  0  0  0  0  0  0  0  0
  151.6068  134.5753  156.3596 H   0  0  0  0  0  0  0  0  0  0  0  0
  151.5548  133.4849  154.9766 H   0  0  0  0  0  0  0  0  0  0  0  0
  149.2245  133.6034  153.8412 H   0  0  0  0  0  0  0  0  0  0  0  0
  149.9256  135.6768  154.0380 H   0  0  0  0  0  0  0  0  0  0  0  0
  148.3888  135.8628  154.8372 H   0  0  0  0  0  0  0  0  0  0  0  0
  148.6872  136.7242  157.5389 H   0  0  0  0  0  0  0  0  0  0  0  0
  152.0389  139.2881  159.3019 H   0  0  0  0  0  0  0  0  0  0  0  0
  153.6405  138.9304  158.7041 H   0  0  0  0  0  0  0  0  0  0  0  0
  153.7276  140.4063  160.7204 H   0  0  0  0  0  0  0  0  0  0  0  0
  154.4551  141.1702  159.3235 H   0  0  0  0  0  0  0  0  0  0  0  0
  151.4324  143.7752  161.6473 H   0  0  0  0  0  0  0  0  0  0  0  0
  152.6595  144.9754  161.2794 H   0  0  0  0  0  0  0  0  0  0  0  0
  150.7955  143.9601  157.7501 H   0  0  0  0  0  0  0  0  0  0  0  0
  151.4331  141.8281  156.5793 H   0  0  0  0  0  0  0  0  0  0  0  0
  150.6374  141.1320  157.9851 H   0  0  0  0  0  0  0  0  0  0  0  0
  153.5570  138.4199  153.6839 H   0  0  0  0  0  0  0  0  0  0  0  0
  1  2  1  0  0  0  0
  1 31  1  0  0  0  0
  1 32  1  0  0  0  0
  1 33  1  0  0  0  0
  2  6  1  0  0  0  0
  2  3  1  0  0  0  0
  2 34  1  0  0  0  0
  3  4  1  0  0  0  0
  4  5  1  0  0  0  0
  4 35  1  0  0  0  0
  4 36  1  0  0  0  0
  5  6  1  0  0  0  0
  5 37  1  0  0  0  0
  5 38  1  0  0  0  0
  6  7  1  0  0  0  0
  6  8  1  0  0  0  0
  7 39  1  0  0  0  0
  8  9  1  0  0  0  0
  8 40  1  0  0  0  0
  8 41  1  0  0  0  0
  9 28  1  0  0  0  0
  9 10  1  0  0  0  0
 10 11  2  0  0  0  0
 10 42  1  0  0  0  0
 11 12  1  0  0  0  0
 12 28  2  0  0  0  0
 12 13  1  0  0  0  0
 13 14  1  0  0  0  0
 13 25  2  0  0  0  0
 14 24  1  0  0  0  0
 14 15  1  0  0  0  0
 15 16  1  0  0  0  0
 15 43  1  0  0  0  0
 15 44  1  0  0  0  0
 16 17  1  0  0  0  0
 16 45  1  0  0  0  0
 16 46  1  0  0  0  0
 17 29  1  0  0  0  0
 17 23  1  0  0  0  0
 17 18  1  0  0  0  0
 18 19  1  0  0  0  0
 19 20  1  0  0  0  0
 19 47  1  0  0  0  0
 19 48  1  0  0  0  0
 20 21  2  0  0  0  0
 20 22  1  0  0  0  0
 22 23  1  0  0  0  0
 22 49  1  0  0  0  0
 23 30  1  0  0  0  0
 23 24  1  0  0  0  0
 24 50  1  0  0  0  0
 24 51  1  0  0  0  0
 25 26  1  0  0  0  0
 26 27  2  0  0  0  0
 26 52  1  0  0  0  0
 27 28  1  0  0  0  0
M  END
> <s_m_source_file>
AV-unprocessed.smi

> <i_m_source_file_index>
265

> <i_lp_mmshare_version>
43012

> <i_f3d_flags>
0

> <s_epik_input>
W0NIMl0xW0NIMl1PW0NAQEhdKFtDSDNdKVtDQEBdMShbT0hdKVtDSDJdbihbY0hdbjIpYyhjMjMpbltjSF1uYzNOKFtDSDJdW0NIMl00KVtDSDJdW0NAQEhdKFtDQEhdNDUpW05IXUMoPU8pW0NIMl1PNQ==

> <s_epik_cmdline>
J2VwaWtfcHl0aG9uJywgJy1waCcsICc3LjAnLCAnLXRuJywgJzgnLCAnLW1hJywgJzIwMCcsICctbWV0YWxfYmluZGluZycsICctaW1hZScsICc8aW5maWxlLm1hZT4nLCAnLW9tYWUnLCAnPG91dGZpbGUubWFlPic=

> <r_lp_tautomer_probability>
1

> <r_epik_Ionization_Penalty>
0.00221504

> <r_epik_Ionization_Penalty_Charging>
0

> <r_epik_Ionization_Penalty_Neutral>
0.00221504

> <r_epik_State_Penalty>
-0

> <r_epik_Charging_Adjusted_Penalty>
0

> <i_epik_Tot_Q>
0

> <i_epik_Tot_abs_Q>
0

> <r_epik_Metal_State_Penalty>
-0

> <b_epik_Metal_Only>
0

> <s_lp_Force_Field>
OPLS_2005

> <r_lp_Energy>
47.2889

> <b_lp_Chiralities_Consistent>
1

> <s_lp_Variant>
AV-unprocessed.smi:265-14

> <Gold.Version>
5.8.1

> <Gold.Id.Protein>
6NUR|6NUR_protein|mol2

> <Gold.PLP.Fitness>
47.3382

> <Gold.PLP.PLP>
-39.7531

> <Gold.PLP.part.hbond>
-5.1429

> <Gold.PLP.part.metal>
0.0000

> <Gold.PLP.part.buried>
-7.3209

> <Gold.PLP.part.nonpolar>
-27.5743

> <Gold.PLP.part.repulsive>
0.4024

> <Gold.PLP.ligand.clash>
0.0000

> <Gold.PLP.ligand.torsion>
0.2800

> <Gold.PLP.Chemscore.Hbond>
2.5733

> <Gold.PLP.Chemscore.CHOScore>
0.0000

> <Gold.PLP.Chemscore.Metal>
0.0000

> <Gold.Chemscore.Hbonds>
donor molecule, donor type, donor heavy atom, donor atom, acceptor molecule, acceptor atom, score
      P1  H  6896  6907       L1     3  0.88
      P1  H  7997  8010       L1    25  1.00
      P1  H 10752 10763       L1    27  0.57

> <Gold.PLP.Chemscore.Internal.Correction>
0.4251

> <Gold.Rescore>
     Score         DG    S(hbond)    S(metal)    S(lipo)     H(rot)  DE(clash)    DE(int)     intcor
     13.23     -13.83       1.33        0.00      82.63       2.25       0.34       0.26       ----

> <Gold.Chemscore.Fitness>
13.2305

> <Gold.Chemscore.DG>
-13.8321

> <Gold.Chemscore.ZeroCoef>
-5.4800

> <Gold.Chemscore.Hbond>
1.3272

> <Gold.Chemscore.Metal>
0.0000

> <Gold.Chemscore.Lipo>
82.6254

> <Gold.Chemscore.Internal_Hbond>
0.0000

> <Gold.Chemscore.DEClash>
0.3427

> <Gold.Chemscore.DEInternal>
0.2588

> <Gold.Chemscore.Rot>
2.2453

> <Gold.Chemscore.Internal.Correction>
   9.000000E+99

> <Gold.Chemscore.Hbonds>
donor molecule, donor type, donor heavy atom, donor atom, acceptor molecule, acceptor atom, score
      P1  H  6896  6907       L1     3  0.13
      P1  H  7997  8010       L1    25  0.67
      P1  H 10752 10763       L1    27  0.17

> <Gold.Chemscore.Hbond.Weighted>
-4.4328

> <Gold.Chemscore.Metal.Weighted>
-0.0000

> <Gold.Chemscore.Lipo.Weighted>
-9.6672

> <Gold.Chemscore.Internal_Hbond.Weighted>
0.0000

> <Gold.Chemscore.DEClash.Weighted>
0.3427

> <Gold.Chemscore.DEInternal.Weighted>
0.2588

> <Gold.Chemscore.Rot.Weighted>
5.7479

> <Gold.Chemscore.Internal.Correction.Weighted>
   9.000000E+99

> <Gold.Protein.RotatedTorsions>
[ 6907 6896 6895 6894 ] final -115.69 input  -60.11 | X-H torsion
[ 7974 7965 7964 7962 ] final -179.05 input  175.53 | X-H torsion
[ 8008 7997 7996 7995 ] final  111.73 input   59.86 | X-H torsion
[ 10167 10162 10161 10158 ] final   16.26 input  -65.29 | X-H torsion
[ 10718 10713 10712 10709 ] final   78.73 input   66.30 | X-H torsion
[ 10763 10752 10751 10750 ] final   22.34 input  -60.55 | X-H torsion
[ 11005 11000 10999 10996 ] final -136.53 input  -57.11 | X-H torsion

> <Gold.Protein.ActiveResidues>
 VAL166  LYS551  ARG553  GLY616  TRP617  ASP618  TYR619  PRO620  LYS621  CYS622 
 ASP623  PHE694  ASN695  SER759  ASP760  ASP761  ALA762  ILE779  LEU786  VAL792 
 PHE793  MET794  SER795  GLU796  ALA797  LYS798  CYS799  TRP800  GLU811  SER814 

> <Gold.Protein.RotatedAtoms>
  150.7997  133.8622  159.3234 H   0  0  0  0  0  0  0  0  0  0  0  0  # atno 6907 bound_to 6896
  151.6438  135.1008  160.0156 H   0  0  0  0  0  0  0  0  0  0  0  0  # atno 6908 bound_to 6896
  152.4083  133.6884  159.6411 H   0  0  0  0  0  0  0  0  0  0  0  0  # atno 6909 bound_to 6896
  144.7134  140.0777  143.6427 H   0  0  0  0  0  0  0  0  0  0  0  0  # atno 7974 bound_to 7965
  156.2144  140.3013  155.9805 H   0  0  0  0  0  0  0  0  0  0  0  0  # atno 8008 bound_to 7997
  155.2643  140.0431  157.3017 H   0  0  0  0  0  0  0  0  0  0  0  0  # atno 8009 bound_to 7997
  154.5746  140.2358  155.8150 H   0  0  0  0  0  0  0  0  0  0  0  0  # atno 8010 bound_to 7997
  140.5810  143.8981  150.6789 H   0  0  0  0  0  0  0  0  0  0  0  0  # atno 10167 bound_to 10162
  157.6754  130.9882  150.1829 H   0  0  0  0  0  0  0  0  0  0  0  0  # atno 10718 bound_to 10713
  153.0923  135.6650  153.9830 H   0  0  0  0  0  0  0  0  0  0  0  0  # atno 10763 bound_to 10752
  153.9423  135.2992  155.3443 H   0  0  0  0  0  0  0  0  0  0  0  0  # atno 10764 bound_to 10752
  154.7339  135.5110  153.9082 H   0  0  0  0  0  0  0  0  0  0  0  0  # atno 10765 bound_to 10752
  140.8796  134.1948  157.4599 H   0  0  0  0  0  0  0  0  0  0  0  0  # atno 11005 bound_to 11000
  145.9729  139.2883  143.1088 LP  0  0  0  0  0  0  0  0  0  0  0  0  # atno 17320 bound_to 7965
  145.9096  140.9189  143.0461 LP  0  0  0  0  0  0  0  0  0  0  0  0  # atno 17321 bound_to 7965
  140.2480  143.3614  152.1430 LP  0  0  0  0  0  0  0  0  0  0  0  0  # atno 17342 bound_to 10162
  139.5169  144.6985  151.5562 LP  0  0  0  0  0  0  0  0  0  0  0  0  # atno 17343 bound_to 10162
  156.2558  130.3705  149.8183 LP  0  0  0  0  0  0  0  0  0  0  0  0  # atno 17370 bound_to 10713
  156.5943  130.8519  151.3416 LP  0  0  0  0  0  0  0  0  0  0  0  0  # atno 17371 bound_to 10713
  139.8718  134.9811  156.5104 LP  0  0  0  0  0  0  0  0  0  0  0  0  # atno 17394 bound_to 11000
  140.8476  133.8156  155.9137 LP  0  0  0  0  0  0  0  0  0  0  0  0  # atno 17395 bound_to 11000

$$$$
