AV-unprocessed.smi:878|AV-procd|sdf|4032|dock9
  -GOLD-   22720 1523D 1   1.00000     0.00000
 Structure written by MMmdl.
 32 33  0  0  0  0  0  0  0  0  2 V2000
  151.4801  144.1439  160.8208 C   0  0  0  0  0  0  0  0  0  0  0  0
  152.6833  142.9070  160.2628 S   0  0  0  0  0  0  0  0  0  0  0  0
  152.0795  142.1875  158.7626 C   0  0  0  0  0  0  0  0  0  0  0  0
  151.5013  142.9760  157.7454 C   0  0  0  0  0  0  0  0  0  0  0  0
  151.0272  142.3711  156.5645 C   0  0  0  0  0  0  0  0  0  0  0  0
  151.1275  140.9687  156.3844 C   0  0  0  0  0  0  0  0  0  0  0  0
  150.6941  140.2973  155.2624 O   0  0  0  0  0  0  0  0  0  0  0  0
  150.3094  138.9357  155.3946 C   0  0  0  0  0  0  0  0  0  0  0  0
  151.5537  138.0397  155.2862 C   0  0  0  0  0  0  0  0  0  0  0  0
  151.2553  136.6454  155.6441 N   0  0  0  0  0  0  0  0  0  0  0  0
  150.3920  135.9322  154.7955 C   0  0  0  0  0  0  0  0  0  0  0  0
  150.0485  134.6519  155.0355 C   0  0  0  0  0  0  0  0  0  0  0  0
  148.9820  133.8013  153.9750 Cl  0  0  0  0  0  0  0  0  0  0  0  0
  150.6031  134.0043  156.2225 C   0  0  0  0  0  0  0  0  0  0  0  0
  150.3126  132.8348  156.4701 O   0  0  0  0  0  0  0  0  0  0  0  0
  151.4332  134.7414  157.0170 N   0  5  0  0  0  0  0  0  0  0  0  0
  151.7694  136.0428  156.7576 C   0  0  0  0  0  0  0  0  0  0  0  0
  152.5183  136.6860  157.4932 O   0  0  0  0  0  0  0  0  0  0  0  0
  151.7081  140.1923  157.4073 C   0  0  0  0  0  0  0  0  0  0  0  0
  152.1785  140.7940  158.5899 C   0  0  0  0  0  0  0  0  0  0  0  0
  151.8537  144.6512  161.7102 H   0  0  0  0  0  0  0  0  0  0  0  0
  150.5299  143.6725  161.0714 H   0  0  0  0  0  0  0  0  0  0  0  0
  151.3117  144.8903  160.0444 H   0  0  0  0  0  0  0  0  0  0  0  0
  151.4092  144.0452  157.8529 H   0  0  0  0  0  0  0  0  0  0  0  0
  150.5918  143.0068  155.8088 H   0  0  0  0  0  0  0  0  0  0  0  0
  149.8082  138.7676  156.3494 H   0  0  0  0  0  0  0  0  0  0  0  0
  149.6115  138.6731  154.5985 H   0  0  0  0  0  0  0  0  0  0  0  0
  151.9281  138.0714  154.2620 H   0  0  0  0  0  0  0  0  0  0  0  0
  152.3634  138.4470  155.8932 H   0  0  0  0  0  0  0  0  0  0  0  0
  150.0258  136.4892  153.9453 H   0  0  0  0  0  0  0  0  0  0  0  0
  151.7901  139.1222  157.2843 H   0  0  0  0  0  0  0  0  0  0  0  0
  152.6173  140.1813  159.3636 H   0  0  0  0  0  0  0  0  0  0  0  0
  1  2  1  0  0  0  0
  1 21  1  0  0  0  0
  1 22  1  0  0  0  0
  1 23  1  0  0  0  0
  2  3  1  0  0  0  0
  3 20  1  0  0  0  0
  3  4  2  0  0  0  0
  4  5  1  0  0  0  0
  4 24  1  0  0  0  0
  5  6  2  0  0  0  0
  5 25  1  0  0  0  0
  6  7  1  0  0  0  0
  6 19  1  0  0  0  0
  7  8  1  0  0  0  0
  8  9  1  0  0  0  0
  8 26  1  0  0  0  0
  8 27  1  0  0  0  0
  9 10  1  0  0  0  0
  9 28  1  0  0  0  0
  9 29  1  0  0  0  0
 10 17  1  0  0  0  0
 10 11  1  0  0  0  0
 11 12  2  0  0  0  0
 11 30  1  0  0  0  0
 12 13  1  0  0  0  0
 12 14  1  0  0  0  0
 14 15  2  0  0  0  0
 14 16  1  0  0  0  0
 16 17  1  0  0  0  0
 17 18  2  0  0  0  0
 19 20  2  0  0  0  0
 19 31  1  0  0  0  0
 20 32  1  0  0  0  0
M  CHG  1  16  -1
M  END
> <s_m_source_file>
AV-unprocessed.smi

> <i_m_source_file_index>
878

> <i_lp_mmshare_version>
43012

> <i_f3d_flags>
0

> <s_epik_input>
W0NIM11TYzFbY0hdW2NIXWMoW2NIXVtjSF0xKU9bQ0gyXVtDSDJdbjJbY0hdYyhDbCljKD1PKVtuSF1jMj1P

> <s_epik_cmdline>
J2VwaWtfcHl0aG9uJywgJy1waCcsICc3LjAnLCAnLXRuJywgJzgnLCAnLW1hJywgJzIwMCcsICctbWV0YWxfYmluZGluZycsICctaW1hZScsICc8aW5maWxlLm1hZT4nLCAnLW9tYWUnLCAnPG91dGZpbGUubWFlPic=

> <r_lp_tautomer_probability>
1

> <r_epik_Ionization_Penalty>
1.65349

> <r_epik_Ionization_Penalty_Charging>
1.22116e-08

> <r_epik_Ionization_Penalty_Neutral>
1.65349

> <r_epik_State_Penalty>
1.75578

> <r_epik_Charging_Adjusted_Penalty>
1.75578

> <i_epik_Tot_Q>
-1

> <i_epik_Tot_abs_Q>
1

> <r_epik_Metal_State_Penalty>
0.0107816

> <b_epik_Metal_Only>
0

> <s_lp_Force_Field>
OPLS_2005

> <r_lp_Energy>
23.8138

> <b_lp_Chiralities_Consistent>
1

> <s_lp_Variant>
AV-unprocessed.smi:878-2

> <Gold.Version>
5.8.1

> <Gold.Id.Protein>
6NUR|6NUR_protein|mol2

> <Gold.PLP.Fitness>
40.5298

> <Gold.PLP.PLP>
-36.1261

> <Gold.PLP.part.hbond>
-2.0000

> <Gold.PLP.part.metal>
0.0000

> <Gold.PLP.part.buried>
-4.8231

> <Gold.PLP.part.nonpolar>
-29.4416

> <Gold.PLP.part.repulsive>
0.0495

> <Gold.PLP.ligand.clash>
0.0000

> <Gold.PLP.ligand.torsion>
0.8009

> <Gold.PLP.Chemscore.Hbond>
1.0000

> <Gold.PLP.Chemscore.CHOScore>
0.9919

> <Gold.PLP.Chemscore.Metal>
0.0000

> <Gold.Chemscore.Hbonds>
donor molecule, donor type, donor heavy atom, donor atom, acceptor molecule, acceptor atom, score
      P1  H  7989  7998       L1     7  0.88
      L1  C    11    30       P1  7948  0.99

> <Gold.PLP.Chemscore.Internal.Correction>
0.0296

> <Gold.Rescore>
     Score         DG    S(hbond)    S(metal)    S(lipo)     H(rot)  DE(clash)    DE(int)     intcor
     14.67     -15.37       0.92        0.00     100.08       1.91       0.04       0.67       ----

> <Gold.Chemscore.Fitness>
14.6679

> <Gold.Chemscore.DG>
-15.3729

> <Gold.Chemscore.ZeroCoef>
-5.4800

> <Gold.Chemscore.Hbond>
0.9179

> <Gold.Chemscore.Metal>
0.0000

> <Gold.Chemscore.Lipo>
100.0828

> <Gold.Chemscore.Internal_Hbond>
0.0000

> <Gold.Chemscore.DEClash>
0.0369

> <Gold.Chemscore.DEInternal>
0.6682

> <Gold.Chemscore.Rot>
1.9073

> <Gold.Chemscore.Internal.Correction>
   9.000000E+99

> <Gold.Chemscore.Hbonds>
donor molecule, donor type, donor heavy atom, donor atom, acceptor molecule, acceptor atom, score
      P1  H  7989  7998       L1     7  0.71

> <Gold.Chemscore.Hbond.Weighted>
-3.0658

> <Gold.Chemscore.Metal.Weighted>
-0.0000

> <Gold.Chemscore.Lipo.Weighted>
-11.7097

> <Gold.Chemscore.Internal_Hbond.Weighted>
0.0000

> <Gold.Chemscore.DEClash.Weighted>
0.0369

> <Gold.Chemscore.DEInternal.Weighted>
0.6682

> <Gold.Chemscore.Rot.Weighted>
4.8826

> <Gold.Chemscore.Internal.Correction.Weighted>
   9.000000E+99

> <Gold.Protein.RotatedTorsions>
[ 6907 6896 6895 6894 ] final   82.28 input  -60.11 | X-H torsion
[ 7974 7965 7964 7962 ] final   42.10 input  175.53 | X-H torsion
[ 8008 7997 7996 7995 ] final   67.83 input   59.86 | X-H torsion
[ 10167 10162 10161 10158 ] final  161.36 input  -65.29 | X-H torsion
[ 10718 10713 10712 10709 ] final -105.43 input   66.30 | X-H torsion
[ 10763 10752 10751 10750 ] final   -3.44 input  -60.55 | X-H torsion
[ 11005 11000 10999 10996 ] final   50.72 input  -57.11 | X-H torsion

> <Gold.Protein.ActiveResidues>
 VAL166  LYS551  ARG553  GLY616  TRP617  ASP618  TYR619  PRO620  LYS621  CYS622 
 ASP623  PHE694  ASN695  SER759  ASP760  ASP761  ALA762  ILE779  LEU786  VAL792 
 PHE793  MET794  SER795  GLU796  ALA797  LYS798  CYS799  TRP800  GLU811  SER814 

> <Gold.Protein.RotatedAtoms>
  152.5294  134.3073  159.9100 H   0  0  0  0  0  0  0  0  0  0  0  0  # atno 6907 bound_to 6896
  151.3023  133.4110  159.2648 H   0  0  0  0  0  0  0  0  0  0  0  0  # atno 6908 bound_to 6896
  151.0108  134.9412  159.8063 H   0  0  0  0  0  0  0  0  0  0  0  0  # atno 6909 bound_to 6896
  146.0769  139.5339  142.9562 H   0  0  0  0  0  0  0  0  0  0  0  0  # atno 7974 bound_to 7965
  155.6990  140.3495  155.4925 H   0  0  0  0  0  0  0  0  0  0  0  0  # atno 8008 bound_to 7997
  155.9457  140.1110  157.1041 H   0  0  0  0  0  0  0  0  0  0  0  0  # atno 8009 bound_to 7997
  154.4111  140.1204  156.4973 H   0  0  0  0  0  0  0  0  0  0  0  0  # atno 8010 bound_to 7997
  139.4848  144.4544  151.8787 H   0  0  0  0  0  0  0  0  0  0  0  0  # atno 10167 bound_to 10162
  156.0346  130.5563  150.7538 H   0  0  0  0  0  0  0  0  0  0  0  0  # atno 10718 bound_to 10713
  153.3713  135.6994  153.6635 H   0  0  0  0  0  0  0  0  0  0  0  0  # atno 10763 bound_to 10752
  153.5284  135.3597  155.2665 H   0  0  0  0  0  0  0  0  0  0  0  0  # atno 10764 bound_to 10752
  154.8681  135.4175  154.2992 H   0  0  0  0  0  0  0  0  0  0  0  0  # atno 10765 bound_to 10752
  140.0994  134.5102  155.8777 H   0  0  0  0  0  0  0  0  0  0  0  0  # atno 11005 bound_to 11000
  145.6290  141.0308  143.1873 LP  0  0  0  0  0  0  0  0  0  0  0  0  # atno 17320 bound_to 7965
  144.7267  139.7853  143.7362 LP  0  0  0  0  0  0  0  0  0  0  0  0  # atno 17321 bound_to 7965
  140.4003  144.2502  150.5893 LP  0  0  0  0  0  0  0  0  0  0  0  0  # atno 17342 bound_to 10162
  140.5063  143.2303  151.8602 LP  0  0  0  0  0  0  0  0  0  0  0  0  # atno 17343 bound_to 10162
  157.5076  131.0923  151.0238 LP  0  0  0  0  0  0  0  0  0  0  0  0  # atno 17370 bound_to 10713
  157.0603  130.5822  149.5384 LP  0  0  0  0  0  0  0  0  0  0  0  0  # atno 17371 bound_to 10713
  141.2101  133.6691  156.6487 LP  0  0  0  0  0  0  0  0  0  0  0  0  # atno 17394 bound_to 11000
  140.3241  134.7983  157.4276 LP  0  0  0  0  0  0  0  0  0  0  0  0  # atno 17395 bound_to 11000

$$$$
