AV-unprocessed.smi:1991|AV-procd|sdf|8067|dock7
  -GOLD-   2272010273D 1   1.00000     0.00000
 Structure written by MMmdl.
 44 45  0  0  0  0  0  0  0  0  1 V2000
  147.1345  137.5863  158.2179 C   0  0  0  0  0  0  0  0  0  0  0  0
  148.1200  136.8570  159.1436 C   0  0  2  0  0  0  0  0  0  0  0  0
  147.6697  137.0429  160.4831 O   0  0  0  0  0  0  0  0  0  0  0  0
  146.4715  136.3561  160.8309 C   0  0  0  0  0  0  0  0  0  0  0  0
  146.7682  135.3568  161.9553 C   0  0  0  0  0  0  0  0  0  0  0  0
  147.4414  134.3213  161.4552 F   0  0  0  0  0  0  0  0  0  0  0  0
  147.5095  135.9335  162.9008 F   0  0  0  0  0  0  0  0  0  0  0  0
  145.6308  134.9103  162.4874 F   0  0  0  0  0  0  0  0  0  0  0  0
  149.5516  137.3922  158.9769 C   0  0  0  0  0  0  0  0  0  0  0  0
  150.5169  136.6908  159.2799 O   0  0  0  0  0  0  0  0  0  0  0  0
  149.6672  138.6360  158.4855 N   0  0  0  0  0  0  0  0  0  0  0  0
  150.9189  139.3486  158.2497 C   0  0  0  0  0  0  0  0  0  0  0  0
  151.5053  139.0644  156.8694 C   0  0  0  0  0  0  0  0  0  0  0  0
  152.8006  138.5107  156.7679 C   0  0  0  0  0  0  0  0  0  0  0  0
  153.3425  138.2482  155.4970 C   0  0  0  0  0  0  0  0  0  0  0  0
  152.5625  138.5470  154.3658 C   0  0  0  0  0  0  0  0  0  0  0  0
  151.3220  139.0712  154.4428 N   0  0  0  0  0  0  0  0  0  0  0  0
  150.7970  139.3261  155.6663 C   0  0  0  0  0  0  0  0  0  0  0  0
  149.5062  139.8766  155.7019 N   0  0  0  0  0  0  0  0  0  0  0  0
  148.4954  139.0630  155.0382 C   0  0  0  0  0  0  0  0  0  0  0  0
  147.1018  139.6745  155.2626 C   0  0  0  0  0  0  0  0  0  0  0  0
  147.0952  141.0268  154.8131 O   0  0  0  0  0  0  0  0  0  0  0  0
  148.0359  141.8314  155.5192 C   0  0  0  0  0  0  0  0  0  0  0  0
  149.4544  141.2771  155.3025 C   0  0  0  0  0  0  0  0  0  0  0  0
  147.4389  137.5073  157.1734 H   0  0  0  0  0  0  0  0  0  0  0  0
  147.0583  138.6455  158.4667 H   0  0  0  0  0  0  0  0  0  0  0  0
  146.1358  137.1574  158.3029 H   0  0  0  0  0  0  0  0  0  0  0  0
  148.0941  135.7940  158.8958 H   0  0  0  0  0  0  0  0  0  0  0  0
  145.7159  137.0693  161.1636 H   0  0  0  0  0  0  0  0  0  0  0  0
  146.0624  135.8255  159.9704 H   0  0  0  0  0  0  0  0  0  0  0  0
  148.8173  139.1330  158.2623 H   0  0  0  0  0  0  0  0  0  0  0  0
  150.7830  140.4265  158.3489 H   0  0  0  0  0  0  0  0  0  0  0  0
  151.6031  139.0690  159.0493 H   0  0  0  0  0  0  0  0  0  0  0  0
  153.3761  138.2868  157.6539 H   0  0  0  0  0  0  0  0  0  0  0  0
  154.3313  137.8270  155.3925 H   0  0  0  0  0  0  0  0  0  0  0  0
  152.9435  138.3594  153.3729 H   0  0  0  0  0  0  0  0  0  0  0  0
  148.7075  139.0078  153.9695 H   0  0  0  0  0  0  0  0  0  0  0  0
  148.5258  138.0449  155.4283 H   0  0  0  0  0  0  0  0  0  0  0  0
  146.3500  139.1116  154.7093 H   0  0  0  0  0  0  0  0  0  0  0  0
  146.8225  139.6296  156.3165 H   0  0  0  0  0  0  0  0  0  0  0  0
  147.9722  142.8566  155.1544 H   0  0  0  0  0  0  0  0  0  0  0  0
  147.7855  141.8542  156.5810 H   0  0  0  0  0  0  0  0  0  0  0  0
  150.1755  141.8543  155.8826 H   0  0  0  0  0  0  0  0  0  0  0  0
  149.7334  141.3718  154.2522 H   0  0  0  0  0  0  0  0  0  0  0  0
  1  2  1  0  0  0  0
  1 25  1  0  0  0  0
  1 26  1  0  0  0  0
  1 27  1  0  0  0  0
  2  3  1  0  0  0  0
  2  9  1  0  0  0  0
  2 28  1  0  0  0  0
  3  4  1  0  0  0  0
  4  5  1  0  0  0  0
  4 29  1  0  0  0  0
  4 30  1  0  0  0  0
  5  6  1  0  0  0  0
  5  7  1  0  0  0  0
  5  8  1  0  0  0  0
  9 10  2  0  0  0  0
  9 11  1  0  0  0  0
 11 12  1  0  0  0  0
 11 31  1  0  0  0  0
 12 13  1  0  0  0  0
 12 32  1  0  0  0  0
 12 33  1  0  0  0  0
 13 18  1  0  0  0  0
 13 14  2  0  0  0  0
 14 15  1  0  0  0  0
 14 34  1  0  0  0  0
 15 16  2  0  0  0  0
 15 35  1  0  0  0  0
 16 17  1  0  0  0  0
 16 36  1  0  0  0  0
 17 18  2  0  0  0  0
 18 19  1  0  0  0  0
 19 24  1  0  0  0  0
 19 20  1  0  0  0  0
 20 21  1  0  0  0  0
 20 37  1  0  0  0  0
 20 38  1  0  0  0  0
 21 22  1  0  0  0  0
 21 39  1  0  0  0  0
 21 40  1  0  0  0  0
 22 23  1  0  0  0  0
 23 24  1  0  0  0  0
 23 41  1  0  0  0  0
 23 42  1  0  0  0  0
 24 43  1  0  0  0  0
 24 44  1  0  0  0  0
M  END
> <s_m_source_file>
AV-unprocessed.smi

> <i_m_source_file_index>
1991

> <i_lp_mmshare_version>
43012

> <i_f3d_flags>
0

> <s_epik_input>
RkMoRikoRilbQ0gyXU9bQ0BASF0oW0NIM10pQyg9TylbTkhdW0NIMl1jMVtjSF1bY0hdW2NIXW5jMU4yW0NIMl1bQ0gyXU9bQ0gyXVtDSDJdMg==

> <s_epik_cmdline>
J2VwaWtfcHl0aG9uJywgJy1waCcsICc3LjAnLCAnLXRuJywgJzgnLCAnLW1hJywgJzIwMCcsICctbWV0YWxfYmluZGluZycsICctaW1hZScsICc8aW5maWxlLm1hZT4nLCAnLW9tYWUnLCAnPG91dGZpbGUubWFlPic=

> <r_lp_tautomer_probability>
1

> <r_epik_Ionization_Penalty>
0.00436412

> <r_epik_Ionization_Penalty_Charging>
0

> <r_epik_Ionization_Penalty_Neutral>
0.00436412

> <r_epik_State_Penalty>
0.00314317

> <r_epik_Charging_Adjusted_Penalty>
0.00314317

> <i_epik_Tot_Q>
0

> <i_epik_Tot_abs_Q>
0

> <r_epik_Metal_State_Penalty>
-0

> <b_epik_Metal_Only>
0

> <s_lp_Force_Field>
OPLS_2005

> <r_lp_Energy>
21.8151

> <b_lp_Chiralities_Consistent>
1

> <s_lp_Variant>
AV-unprocessed.smi:1991-1

> <Gold.Version>
5.8.1

> <Gold.Id.Protein>
6NUR|6NUR_protein|mol2

> <Gold.PLP.Fitness>
42.9033

> <Gold.PLP.PLP>
-35.2100

> <Gold.PLP.part.hbond>
-4.0000

> <Gold.PLP.part.metal>
0.0000

> <Gold.PLP.part.buried>
-0.9053

> <Gold.PLP.part.nonpolar>
-30.0937

> <Gold.PLP.part.repulsive>
0.4537

> <Gold.PLP.ligand.clash>
0.0000

> <Gold.PLP.ligand.torsion>
1.5885

> <Gold.PLP.Chemscore.Hbond>
3.5520

> <Gold.PLP.Chemscore.CHOScore>
0.0000

> <Gold.PLP.Chemscore.Metal>
0.0000

> <Gold.Chemscore.Hbonds>
donor molecule, donor type, donor heavy atom, donor atom, acceptor molecule, acceptor atom, score
      P1  H  6896  6909       L1    10  1.00
      P1  H  6931  6943       L1     3  0.25
      P1  H  6934  6947       L1     3  0.83
      P1  H  7989  7998       L1    17  0.91

> <Gold.PLP.Chemscore.Internal.Correction>
0.2145

> <Gold.Rescore>
     Score         DG    S(hbond)    S(metal)    S(lipo)     H(rot)  DE(clash)    DE(int)     intcor
     11.59     -15.25       2.34        0.00      71.08       2.49       2.03       1.63       ----

> <Gold.Chemscore.Fitness>
11.5909

> <Gold.Chemscore.DG>
-15.2469

> <Gold.Chemscore.ZeroCoef>
-5.4800

> <Gold.Chemscore.Hbond>
2.3428

> <Gold.Chemscore.Metal>
0.0000

> <Gold.Chemscore.Lipo>
71.0779

> <Gold.Chemscore.Internal_Hbond>
0.0000

> <Gold.Chemscore.DEClash>
2.0281

> <Gold.Chemscore.DEInternal>
1.6279

> <Gold.Chemscore.Rot>
2.4899

> <Gold.Chemscore.Internal.Correction>
   9.000000E+99

> <Gold.Chemscore.Hbonds>
donor molecule, donor type, donor heavy atom, donor atom, acceptor molecule, acceptor atom, score
      P1  H  6896  6909       L1    10  1.00
      P1  H  6931  6943       L1     3  0.23
      P1  H  6934  6947       L1     3  0.26
      P1  H  7989  7998       L1    17  0.14

> <Gold.Chemscore.Hbond.Weighted>
-7.8249

> <Gold.Chemscore.Metal.Weighted>
-0.0000

> <Gold.Chemscore.Lipo.Weighted>
-8.3161

> <Gold.Chemscore.Internal_Hbond.Weighted>
0.0000

> <Gold.Chemscore.DEClash.Weighted>
2.0281

> <Gold.Chemscore.DEInternal.Weighted>
1.6279

> <Gold.Chemscore.Rot.Weighted>
6.3741

> <Gold.Chemscore.Internal.Correction.Weighted>
   9.000000E+99

> <Gold.Protein.RotatedTorsions>
[ 6907 6896 6895 6894 ] final   86.18 input  -60.11 | X-H torsion
[ 7974 7965 7964 7962 ] final -173.33 input  175.53 | X-H torsion
[ 8008 7997 7996 7995 ] final   69.80 input   59.86 | X-H torsion
[ 10167 10162 10161 10158 ] final   16.57 input  -65.29 | X-H torsion
[ 10718 10713 10712 10709 ] final  -52.45 input   66.30 | X-H torsion
[ 10763 10752 10751 10750 ] final   83.49 input  -60.55 | X-H torsion
[ 11005 11000 10999 10996 ] final -169.90 input  -57.11 | X-H torsion

> <Gold.Protein.ActiveResidues>
 VAL166  LYS551  ARG553  GLY616  TRP617  ASP618  TYR619  PRO620  LYS621  CYS622 
 ASP623  PHE694  ASN695  SER759  ASP760  ASP761  ALA762  ILE779  LEU786  VAL792 
 PHE793  MET794  SER795  GLU796  ALA797  LYS798  CYS799  TRP800  GLU811  SER814 

> <Gold.Protein.RotatedAtoms>
  152.5389  134.2471  159.8883 H   0  0  0  0  0  0  0  0  0  0  0  0  # atno 6907 bound_to 6896
  151.2435  133.4380  159.2616 H   0  0  0  0  0  0  0  0  0  0  0  0  # atno 6908 bound_to 6896
  151.0604  134.9747  159.8314 H   0  0  0  0  0  0  0  0  0  0  0  0  # atno 6909 bound_to 6896
  144.7139  140.1639  143.6373 H   0  0  0  0  0  0  0  0  0  0  0  0  # atno 7974 bound_to 7965
  155.7292  140.3492  155.5051 H   0  0  0  0  0  0  0  0  0  0  0  0  # atno 8008 bound_to 7997
  155.9198  140.1065  157.1237 H   0  0  0  0  0  0  0  0  0  0  0  0  # atno 8009 bound_to 7997
  154.4068  140.1251  156.4652 H   0  0  0  0  0  0  0  0  0  0  0  0  # atno 8010 bound_to 7997
  140.5788  143.9021  150.6772 H   0  0  0  0  0  0  0  0  0  0  0  0  # atno 10167 bound_to 10162
  156.1620  130.4149  149.9778 H   0  0  0  0  0  0  0  0  0  0  0  0  # atno 10718 bound_to 10713
  153.1296  135.4689  154.9327 H   0  0  0  0  0  0  0  0  0  0  0  0  # atno 10763 bound_to 10752
  154.7651  135.3142  154.8303 H   0  0  0  0  0  0  0  0  0  0  0  0  # atno 10764 bound_to 10752
  153.8849  135.6890  153.4818 H   0  0  0  0  0  0  0  0  0  0  0  0  # atno 10765 bound_to 10752
  140.5255  134.5667  157.5060 H   0  0  0  0  0  0  0  0  0  0  0  0  # atno 11005 bound_to 11000
  145.9006  139.2428  143.1496 LP  0  0  0  0  0  0  0  0  0  0  0  0  # atno 17320 bound_to 7965
  145.9815  140.8679  143.0112 LP  0  0  0  0  0  0  0  0  0  0  0  0  # atno 17321 bound_to 7965
  140.2515  143.3590  152.1401 LP  0  0  0  0  0  0  0  0  0  0  0  0  # atno 17342 bound_to 10162
  139.5158  144.6968  151.5608 LP  0  0  0  0  0  0  0  0  0  0  0  0  # atno 17343 bound_to 10162
  156.7605  130.9149  151.3641 LP  0  0  0  0  0  0  0  0  0  0  0  0  # atno 17370 bound_to 10713
  157.6739  130.9077  150.0105 LP  0  0  0  0  0  0  0  0  0  0  0  0  # atno 17371 bound_to 10713
  139.9582  134.7498  156.0294 LP  0  0  0  0  0  0  0  0  0  0  0  0  # atno 17394 bound_to 11000
  141.1310  133.6586  156.3465 LP  0  0  0  0  0  0  0  0  0  0  0  0  # atno 17395 bound_to 11000

$$$$
