AV-unprocessed.smi:2822|AV-procd|sdf|10860|dock3
  -GOLD-   2272015303D 1   1.00000     0.00000
 Structure written by MMmdl.
 41 43  0  0  0  0  0  0  0  0  3 V2000
  147.9513  132.9245  152.8481 Cl  0  0  0  0  0  0  0  0  0  0  0  0
  146.4642  132.7546  151.9827 C   0  0  0  0  0  0  0  0  0  0  0  0
  145.8976  131.4721  151.8321 C   0  0  0  0  0  0  0  0  0  0  0  0
  144.7372  131.3211  151.1595 N   0  3  0  0  0  0  0  0  0  0  0  0
  144.0735  132.3592  150.6084 C   0  0  0  0  0  0  0  0  0  0  0  0
  144.5900  133.6658  150.7248 C   0  0  0  0  0  0  0  0  0  0  0  0
  145.8056  133.8773  151.4229 C   0  0  0  0  0  0  0  0  0  0  0  0
  146.3709  135.1526  151.5794 N   0  0  0  0  0  0  0  0  0  0  0  0
  145.7465  136.3330  151.0007 C   0  0  0  0  0  0  0  0  0  0  0  0
  145.4763  137.4066  152.0649 C   0  0  2  0  0  0  0  0  0  0  0  0
  146.4608  138.5851  151.9491 C   0  0  0  0  0  0  0  0  0  0  0  0
  146.2242  139.5712  153.0293 N   0  3  2  0  0  0  0  0  0  0  0  0
  147.1275  140.7459  152.9327 C   0  0  0  0  0  0  0  0  0  0  0  0
  146.7933  141.7913  154.0092 C   0  0  0  0  0  0  0  0  0  0  0  0
  146.8448  141.1687  155.4102 C   0  0  0  0  0  0  0  0  0  0  0  0
  145.9255  139.9417  155.4746 C   0  0  0  0  0  0  0  0  0  0  0  0
  146.2716  138.9244  154.3689 C   0  0  1  0  0  0  0  0  0  0  0  0
  145.3191  137.7131  154.4029 C   0  0  0  0  0  0  0  0  0  0  0  0
  145.6402  136.8141  153.3490 O   0  0  0  0  0  0  0  0  0  0  0  0
  146.3358  130.5675  152.2278 H   0  0  0  0  0  0  0  0  0  0  0  0
  143.1550  132.1157  150.0945 H   0  0  0  0  0  0  0  0  0  0  0  0
  144.0430  134.4828  150.2786 H   0  0  0  0  0  0  0  0  0  0  0  0
  147.3184  135.2289  151.9229 H   0  0  0  0  0  0  0  0  0  0  0  0
  146.3805  136.7371  150.2104 H   0  0  0  0  0  0  0  0  0  0  0  0
  144.8030  136.0349  150.5420 H   0  0  0  0  0  0  0  0  0  0  0  0
  144.4539  137.7741  151.9529 H   0  0  0  0  0  0  0  0  0  0  0  0
  147.4892  138.2239  152.0037 H   0  0  0  0  0  0  0  0  0  0  0  0
  146.3438  139.0732  150.9807 H   0  0  0  0  0  0  0  0  0  0  0  0
  148.1635  140.4200  153.0372 H   0  0  0  0  0  0  0  0  0  0  0  0
  147.0351  141.1979  151.9444 H   0  0  0  0  0  0  0  0  0  0  0  0
  147.4910  142.6271  153.9470 H   0  0  0  0  0  0  0  0  0  0  0  0
  145.7997  142.2027  153.8261 H   0  0  0  0  0  0  0  0  0  0  0  0
  147.8688  140.8764  155.6469 H   0  0  0  0  0  0  0  0  0  0  0  0
  146.5479  141.9022  156.1605 H   0  0  0  0  0  0  0  0  0  0  0  0
  146.0087  139.4719  156.4554 H   0  0  0  0  0  0  0  0  0  0  0  0
  144.8872  140.2607  155.3725 H   0  0  0  0  0  0  0  0  0  0  0  0
  147.2888  138.5636  154.5333 H   0  0  0  0  0  0  0  0  0  0  0  0
  145.4162  137.1852  155.3520 H   0  0  0  0  0  0  0  0  0  0  0  0
  144.2772  138.0278  154.3206 H   0  0  0  0  0  0  0  0  0  0  0  0
  145.2830  139.9171  152.9071 H   0  0  0  0  0  0  0  0  0  0  0  0
  144.3458  130.3836  151.0639 H   0  0  0  0  0  0  0  0  0  0  0  0
  1  2  1  0  0  0  0
  2  7  1  0  0  0  0
  2  3  2  0  0  0  0
  3  4  1  0  0  0  0
  3 20  1  0  0  0  0
  4  5  2  0  0  0  0
  4 41  1  0  0  0  0
  5  6  1  0  0  0  0
  5 21  1  0  0  0  0
  6  7  2  0  0  0  0
  6 22  1  0  0  0  0
  7  8  1  0  0  0  0
  8  9  1  0  0  0  0
  8 23  1  0  0  0  0
  9 10  1  0  0  0  0
  9 24  1  0  0  0  0
  9 25  1  0  0  0  0
 10 19  1  0  0  0  0
 10 11  1  0  0  0  0
 10 26  1  0  0  0  0
 11 12  1  0  0  0  0
 11 27  1  0  0  0  0
 11 28  1  0  0  0  0
 12 17  1  0  0  0  0
 12 13  1  0  0  0  0
 12 40  1  0  0  0  0
 13 14  1  0  0  0  0
 13 29  1  0  0  0  0
 13 30  1  0  0  0  0
 14 15  1  0  0  0  0
 14 31  1  0  0  0  0
 14 32  1  0  0  0  0
 15 16  1  0  0  0  0
 15 33  1  0  0  0  0
 15 34  1  0  0  0  0
 16 17  1  0  0  0  0
 16 35  1  0  0  0  0
 16 36  1  0  0  0  0
 17 18  1  0  0  0  0
 17 37  1  0  0  0  0
 18 19  1  0  0  0  0
 18 38  1  0  0  0  0
 18 39  1  0  0  0  0
M  CHG  1   4   1
M  CHG  1  12   1
M  END
> <s_m_source_file>
AV-unprocessed.smi

> <i_m_source_file_index>
2822

> <i_lp_mmshare_version>
43012

> <i_f3d_flags>
0

> <s_epik_input>
Q2xjMVtjSF1uW2NIXVtjSF1jMVtOSF1bQ0gyXVtDQEhdKFtDSDJdMilPW0NIMl1bQ0BASF0oTjIzKVtDSDJdW0NIMl1bQ0gyXVtDSDJdMw==

> <s_epik_cmdline>
J2VwaWtfcHl0aG9uJywgJy1waCcsICc3LjAnLCAnLXRuJywgJzgnLCAnLW1hJywgJzIwMCcsICctbWV0YWxfYmluZGluZycsICctaW1hZScsICc8aW5maWxlLm1hZT4nLCAnLW9tYWUnLCAnPG91dGZpbGUubWFlPic=

> <r_lp_tautomer_probability>
1

> <r_epik_Ionization_Penalty>
0.254999

> <r_epik_Ionization_Penalty_Charging>
0.254956

> <r_epik_Ionization_Penalty_Neutral>
4.33524e-05

> <r_epik_State_Penalty>
0.230978

> <r_epik_Charging_Adjusted_Penalty>
0.485934

> <i_epik_Tot_Q>
2

> <i_epik_Tot_abs_Q>
2

> <r_epik_Metal_State_Penalty>
3.47007

> <b_epik_Metal_Only>
0

> <s_lp_Force_Field>
OPLS_2005

> <r_lp_Energy>
36.8988

> <b_lp_Chiralities_Consistent>
1

> <s_lp_Variant>
AV-unprocessed.smi:2822-1

> <Gold.Version>
5.8.1

> <Gold.Id.Protein>
6NUR|6NUR_protein|mol2

> <Gold.PLP.Fitness>
40.5451

> <Gold.PLP.PLP>
-33.1051

> <Gold.PLP.part.hbond>
-2.0000

> <Gold.PLP.part.metal>
0.0000

> <Gold.PLP.part.buried>
-2.4426

> <Gold.PLP.part.nonpolar>
-28.7432

> <Gold.PLP.part.repulsive>
0.2799

> <Gold.PLP.ligand.clash>
0.0000

> <Gold.PLP.ligand.torsion>
0.6724

> <Gold.PLP.Chemscore.Hbond>
2.9280

> <Gold.PLP.Chemscore.CHOScore>
0.0000

> <Gold.PLP.Chemscore.Metal>
0.0000

> <Gold.Chemscore.Hbonds>
donor molecule, donor type, donor heavy atom, donor atom, acceptor molecule, acceptor atom, score
      L1  H     8    23       P1  7948  0.91
      L1  H    12    40       P1 10175  2.00

> <Gold.PLP.Chemscore.Internal.Correction>
0.0008

> <Gold.Rescore>
     Score         DG    S(hbond)    S(metal)    S(lipo)     H(rot)  DE(clash)    DE(int)     intcor
     18.10     -19.55       1.89        0.00      92.42       1.20       0.77       0.69       ----

> <Gold.Chemscore.Fitness>
18.1008

> <Gold.Chemscore.DG>
-19.5543

> <Gold.Chemscore.ZeroCoef>
-5.4800

> <Gold.Chemscore.Hbond>
1.8934

> <Gold.Chemscore.Metal>
0.0000

> <Gold.Chemscore.Lipo>
92.4162

> <Gold.Chemscore.Internal_Hbond>
0.0000

> <Gold.Chemscore.DEClash>
0.7677

> <Gold.Chemscore.DEInternal>
0.6858

> <Gold.Chemscore.Rot>
1.1962

> <Gold.Chemscore.Internal.Correction>
   9.000000E+99

> <Gold.Chemscore.Hbonds>
donor molecule, donor type, donor heavy atom, donor atom, acceptor molecule, acceptor atom, score
      L1  H     8    23       P1  7948  0.88
      L1  H    12    40       P1 10175  1.00

> <Gold.Chemscore.Hbond.Weighted>
-6.3239

> <Gold.Chemscore.Metal.Weighted>
-0.0000

> <Gold.Chemscore.Lipo.Weighted>
-10.8127

> <Gold.Chemscore.Internal_Hbond.Weighted>
0.0000

> <Gold.Chemscore.DEClash.Weighted>
0.7677

> <Gold.Chemscore.DEInternal.Weighted>
0.6858

> <Gold.Chemscore.Rot.Weighted>
3.0623

> <Gold.Chemscore.Internal.Correction.Weighted>
   9.000000E+99

> <Gold.Protein.RotatedTorsions>
[ 6907 6896 6895 6894 ] final   13.86 input  -60.11 | X-H torsion
[ 7974 7965 7964 7962 ] final  116.25 input  175.53 | X-H torsion
[ 8008 7997 7996 7995 ] final -179.12 input   59.86 | X-H torsion
[ 10167 10162 10161 10158 ] final   34.61 input  -65.29 | X-H torsion
[ 10718 10713 10712 10709 ] final -159.29 input   66.30 | X-H torsion
[ 10763 10752 10751 10750 ] final  139.61 input  -60.55 | X-H torsion
[ 11005 11000 10999 10996 ] final  152.66 input  -57.11 | X-H torsion

> <Gold.Protein.ActiveResidues>
 VAL166  LYS551  ARG553  GLY616  TRP617  ASP618  TYR619  PRO620  LYS621  CYS622 
 ASP623  PHE694  ASN695  SER759  ASP760  ASP761  ALA762  ILE779  LEU786  VAL792 
 PHE793  MET794  SER795  GLU796  ALA797  LYS798  CYS799  TRP800  GLU811  SER814 

> <Gold.Protein.RotatedAtoms>
  151.7931  135.0730  160.0389 H   0  0  0  0  0  0  0  0  0  0  0  0  # atno 6907 bound_to 6896
  152.3142  133.5781  159.5709 H   0  0  0  0  0  0  0  0  0  0  0  0  # atno 6908 bound_to 6896
  150.7336  134.0023  159.3684 H   0  0  0  0  0  0  0  0  0  0  0  0  # atno 6909 bound_to 6896
  145.1819  139.3045  143.4413 H   0  0  0  0  0  0  0  0  0  0  0  0  # atno 7974 bound_to 7965
  156.0268  140.1273  157.0300 H   0  0  0  0  0  0  0  0  0  0  0  0  # atno 8008 bound_to 7997
  154.4333  140.1057  156.6112 H   0  0  0  0  0  0  0  0  0  0  0  0  # atno 8009 bound_to 7997
  155.5865  140.3469  155.4557 H   0  0  0  0  0  0  0  0  0  0  0  0  # atno 8010 bound_to 7997
  140.4299  144.1339  150.6158 H   0  0  0  0  0  0  0  0  0  0  0  0  # atno 10167 bound_to 10162
  156.5660  130.8668  151.2824 H   0  0  0  0  0  0  0  0  0  0  0  0  # atno 10718 bound_to 10713
  153.9091  135.3013  155.3448 H   0  0  0  0  0  0  0  0  0  0  0  0  # atno 10763 bound_to 10752
  154.7632  135.4923  153.9508 H   0  0  0  0  0  0  0  0  0  0  0  0  # atno 10764 bound_to 10752
  153.1203  135.6780  153.9449 H   0  0  0  0  0  0  0  0  0  0  0  0  # atno 10765 bound_to 10752
  140.1328  134.8791  157.2226 H   0  0  0  0  0  0  0  0  0  0  0  0  # atno 11005 bound_to 11000
  146.3451  140.2002  142.8589 LP  0  0  0  0  0  0  0  0  0  0  0  0  # atno 17320 bound_to 7965
  145.0127  140.8728  143.5214 LP  0  0  0  0  0  0  0  0  0  0  0  0  # atno 17321 bound_to 7965
  140.4439  143.2515  151.9437 LP  0  0  0  0  0  0  0  0  0  0  0  0  # atno 17342 bound_to 10162
  139.4784  144.5628  151.8212 LP  0  0  0  0  0  0  0  0  0  0  0  0  # atno 17343 bound_to 10162
  157.7358  130.9769  150.2103 LP  0  0  0  0  0  0  0  0  0  0  0  0  # atno 17370 bound_to 10713
  156.2756  130.3727  149.7987 LP  0  0  0  0  0  0  0  0  0  0  0  0  # atno 17371 bound_to 10713
  140.2821  134.3338  155.7340 LP  0  0  0  0  0  0  0  0  0  0  0  0  # atno 17394 bound_to 11000
  141.2173  133.7484  156.9379 LP  0  0  0  0  0  0  0  0  0  0  0  0  # atno 17395 bound_to 11000

$$$$
