AV-unprocessed.smi:99|AV-procd|sdf|865|dock8
  -GOLD-   2262017313D 1   1.00000     0.00000
 Structure written by MMmdl.
 53 56  0  0  0  0  0  0  0  0  1 V2000
  146.5553  138.1966  159.2278 O   0  0  0  0  0  0  0  0  0  0  0  0
  146.4122  136.9742  159.2873 C   0  0  0  0  0  0  0  0  0  0  0  0
  145.9256  136.2280  158.2769 O   0  0  0  0  0  0  0  0  0  0  0  0
  145.6226  136.8169  157.0222 C   0  0  0  0  0  0  0  0  0  0  0  0
  146.9345  137.1880  156.3193 C   0  0  2  0  0  0  0  0  0  0  0  0
  147.4913  138.3570  156.9133 O   0  0  0  0  0  0  0  0  0  0  0  0
  148.2939  139.0343  155.9853 C   0  0  1  0  0  0  0  0  0  0  0  0
  149.7376  138.9989  156.4460 N   0  0  0  0  0  0  0  0  0  0  0  0
  150.1298  138.3478  157.6092 C   0  0  0  0  0  0  0  0  0  0  0  0
  151.4163  138.3000  158.0295 C   0  0  0  0  0  0  0  0  0  0  0  0
  152.4733  138.9445  157.2566 C   0  0  0  0  0  0  0  0  0  0  0  0
  153.6646  138.9582  157.5586 O   0  0  0  0  0  0  0  0  0  0  0  0
  152.0352  139.5776  156.0901 N   0  0  0  0  0  0  0  0  0  0  0  0
  150.7136  139.6299  155.6447 C   0  0  0  0  0  0  0  0  0  0  0  0
  150.4387  140.2035  154.5913 O   0  0  0  0  0  0  0  0  0  0  0  0
  148.0795  138.3632  154.6077 C   0  0  1  0  0  0  0  0  0  0  0  0
  149.1322  137.4772  154.2543 O   0  0  0  0  0  0  0  0  0  0  0  0
  146.7817  137.6122  154.8594 C   0  0  1  0  0  0  0  0  0  0  0  0
  146.5958  136.5388  153.9397 O   0  0  0  0  0  0  0  0  0  0  0  0
  145.9701  136.7283  152.7566 C   0  0  0  0  0  0  0  0  0  0  0  0
  145.6078  137.8301  152.3399 O   0  0  0  0  0  0  0  0  0  0  0  0
  145.7235  135.4542  152.0239 C   0  0  0  0  0  0  0  0  0  0  0  0
  144.8214  135.4461  150.9346 C   0  0  0  0  0  0  0  0  0  0  0  0
  144.5476  134.2524  150.2394 C   0  0  0  0  0  0  0  0  0  0  0  0
  145.1749  133.0532  150.6232 C   0  0  0  0  0  0  0  0  0  0  0  0
  146.0766  133.0488  151.7031 C   0  0  0  0  0  0  0  0  0  0  0  0
  146.3505  134.2412  152.4009 C   0  0  0  0  0  0  0  0  0  0  0  0
  146.7310  136.1635  160.4983 C   0  0  0  0  0  0  0  0  0  0  0  0
  147.2634  136.8037  161.6413 C   0  0  0  0  0  0  0  0  0  0  0  0
  147.5505  136.0673  162.8071 C   0  0  0  0  0  0  0  0  0  0  0  0
  147.3104  134.6815  162.8438 C   0  0  0  0  0  0  0  0  0  0  0  0
  146.7856  134.0319  161.7116 C   0  0  0  0  0  0  0  0  0  0  0  0
  146.4986  134.7665  160.5449 C   0  0  0  0  0  0  0  0  0  0  0  0
  152.7345  140.0310  155.5198 H   0  0  0  0  0  0  0  0  0  0  0  0
  145.0436  136.1396  156.3924 H   0  0  0  0  0  0  0  0  0  0  0  0
  145.0174  137.7081  157.1906 H   0  0  0  0  0  0  0  0  0  0  0  0
  147.6575  136.3752  156.4081 H   0  0  0  0  0  0  0  0  0  0  0  0
  147.9914  140.0831  156.0069 H   0  0  0  0  0  0  0  0  0  0  0  0
  149.3942  137.8459  158.2191 H   0  0  0  0  0  0  0  0  0  0  0  0
  151.6660  137.7800  158.9430 H   0  0  0  0  0  0  0  0  0  0  0  0
  147.9735  139.1215  153.8314 H   0  0  0  0  0  0  0  0  0  0  0  0
  148.9572  137.1343  153.3914 H   0  0  0  0  0  0  0  0  0  0  0  0
  145.9682  138.3362  154.7923 H   0  0  0  0  0  0  0  0  0  0  0  0
  144.3208  136.3529  150.6273 H   0  0  0  0  0  0  0  0  0  0  0  0
  143.8523  134.2573  149.4129 H   0  0  0  0  0  0  0  0  0  0  0  0
  144.9639  132.1376  150.0906 H   0  0  0  0  0  0  0  0  0  0  0  0
  146.5587  132.1288  151.9989 H   0  0  0  0  0  0  0  0  0  0  0  0
  147.0451  134.2025  153.2271 H   0  0  0  0  0  0  0  0  0  0  0  0
  147.4501  137.8680  161.6392 H   0  0  0  0  0  0  0  0  0  0  0  0
  147.9532  136.5678  163.6755 H   0  0  0  0  0  0  0  0  0  0  0  0
  147.5278  134.1179  163.7391 H   0  0  0  0  0  0  0  0  0  0  0  0
  146.5970  132.9688  161.7389 H   0  0  0  0  0  0  0  0  0  0  0  0
  146.0892  134.2374  159.6968 H   0  0  0  0  0  0  0  0  0  0  0  0
  1  2  2  0  0  0  0
  2  3  1  0  0  0  0
  2 28  1  0  0  0  0
  3  4  1  0  0  0  0
  4  5  1  0  0  0  0
  4 35  1  0  0  0  0
  4 36  1  0  0  0  0
  5 18  1  0  0  0  0
  5  6  1  0  0  0  0
  5 37  1  0  0  0  0
  6  7  1  0  0  0  0
  7  8  1  0  0  0  0
  7 16  1  0  0  0  0
  7 38  1  0  0  0  0
  8 14  1  0  0  0  0
  8  9  1  0  0  0  0
  9 10  2  0  0  0  0
  9 39  1  0  0  0  0
 10 11  1  0  0  0  0
 10 40  1  0  0  0  0
 11 12  2  0  0  0  0
 11 13  1  0  0  0  0
 13 34  1  0  0  0  0
 13 14  1  0  0  0  0
 14 15  2  0  0  0  0
 16 17  1  0  0  0  0
 16 18  1  0  0  0  0
 16 41  1  0  0  0  0
 17 42  1  0  0  0  0
 18 19  1  0  0  0  0
 18 43  1  0  0  0  0
 19 20  1  0  0  0  0
 20 21  2  0  0  0  0
 20 22  1  0  0  0  0
 22 27  1  0  0  0  0
 22 23  2  0  0  0  0
 23 24  1  0  0  0  0
 23 44  1  0  0  0  0
 24 25  2  0  0  0  0
 24 45  1  0  0  0  0
 25 26  1  0  0  0  0
 25 46  1  0  0  0  0
 26 27  2  0  0  0  0
 26 47  1  0  0  0  0
 27 48  1  0  0  0  0
 28 33  1  0  0  0  0
 28 29  2  0  0  0  0
 29 30  1  0  0  0  0
 29 49  1  0  0  0  0
 30 31  2  0  0  0  0
 30 50  1  0  0  0  0
 31 32  1  0  0  0  0
 31 51  1  0  0  0  0
 32 33  2  0  0  0  0
 32 52  1  0  0  0  0
 33 53  1  0  0  0  0
M  END
> <s_m_source_file>
AV-unprocessed.smi

> <i_m_source_file_index>
99

> <i_lp_mmshare_version>
43012

> <i_f3d_flags>
0

> <s_epik_input>
W2NIXTFbY0hdW2NIXVtjSF1bY0hdYzFDKD1PKU9bQ0gyXVtDQEBIXTJPW0NAQEhdKG4zW2NIXVtjSF1jKD1PKVtuSF1jMz1PKVtDQEBIXShbT0hdKVtDQEhdMk9DKD1PKWM0W2NIXVtjSF1bY0hdW2NIXVtjSF00

> <s_epik_cmdline>
J2VwaWtfcHl0aG9uJywgJy1waCcsICc3LjAnLCAnLXRuJywgJzgnLCAnLW1hJywgJzIwMCcsICctbWV0YWxfYmluZGluZycsICctaW1hZScsICc8aW5maWxlLm1hZT4nLCAnLW9tYWUnLCAnPG91dGZpbGUubWFlPic=

> <r_lp_tautomer_probability>
1

> <r_epik_Ionization_Penalty>
0.00454555

> <r_epik_Ionization_Penalty_Charging>
0.0045191

> <r_epik_Ionization_Penalty_Neutral>
2.64449e-05

> <r_epik_State_Penalty>
-0

> <r_epik_Charging_Adjusted_Penalty>
0.0045191

> <i_epik_Tot_Q>
0

> <i_epik_Tot_abs_Q>
0

> <r_epik_Metal_State_Penalty>
1.27877

> <b_epik_Metal_Only>
0

> <s_epik_Chemistry_Notes>
This compound has an ester and may undergo hydrolysis at high or low pH. This compound contains an acetal/aminal-like group ( X-CH(R)-Y where X, Y are N, S, or O) that may be acid/base labile, releasing an aldehyde.

> <s_lp_Force_Field>
OPLS_2005

> <r_lp_Energy>
44.6164

> <b_lp_Chiralities_Consistent>
1

> <s_lp_Variant>
AV-unprocessed.smi:99-1

> <Gold.Version>
5.8.1

> <Gold.Id.Protein>
6NUR|6NUR_protein|mol2

> <Gold.PLP.Fitness>
51.8152

> <Gold.PLP.PLP>
-41.6899

> <Gold.PLP.part.hbond>
-3.9777

> <Gold.PLP.part.metal>
0.0000

> <Gold.PLP.part.buried>
-7.2976

> <Gold.PLP.part.nonpolar>
-31.6573

> <Gold.PLP.part.repulsive>
0.5875

> <Gold.PLP.ligand.clash>
0.0000

> <Gold.PLP.ligand.torsion>
0.5646

> <Gold.PLP.Chemscore.Hbond>
3.6720

> <Gold.PLP.Chemscore.CHOScore>
0.0000

> <Gold.PLP.Chemscore.Metal>
0.0000

> <Gold.Chemscore.Hbonds>
donor molecule, donor type, donor heavy atom, donor atom, acceptor molecule, acceptor atom, score
      L1  H    17    42       P1  7948  1.00
      P1  H  6934  6947       L1     1  0.58
      P1  H  7989  7998       L1    15  1.00
      P1  H  7997  8010       L1    12  1.00

> <Gold.PLP.Chemscore.Internal.Correction>
0.2384

> <Gold.Rescore>
     Score         DG    S(hbond)    S(metal)    S(lipo)     H(rot)  DE(clash)    DE(int)     intcor
     16.38     -20.42       3.85        0.00      87.70       3.19       0.04       4.00       ----

> <Gold.Chemscore.Fitness>
16.3775

> <Gold.Chemscore.DG>
-20.4214

> <Gold.Chemscore.ZeroCoef>
-5.4800

> <Gold.Chemscore.Hbond>
3.8467

> <Gold.Chemscore.Metal>
0.0000

> <Gold.Chemscore.Lipo>
87.6958

> <Gold.Chemscore.Internal_Hbond>
0.0000

> <Gold.Chemscore.DEClash>
0.0428

> <Gold.Chemscore.DEInternal>
4.0011

> <Gold.Chemscore.Rot>
3.1903

> <Gold.Chemscore.Internal.Correction>
   9.000000E+99

> <Gold.Chemscore.Hbonds>
donor molecule, donor type, donor heavy atom, donor atom, acceptor molecule, acceptor atom, score
      L1  H    17    42       P1  7948  1.00
      P1  H  6934  6947       L1     1  0.53
      P1  H  7989  7998       L1    15  0.99
      P1  H  7997  8010       L1    12  0.92

> <Gold.Chemscore.Hbond.Weighted>
-12.8480

> <Gold.Chemscore.Metal.Weighted>
-0.0000

> <Gold.Chemscore.Lipo.Weighted>
-10.2604

> <Gold.Chemscore.Internal_Hbond.Weighted>
0.0000

> <Gold.Chemscore.DEClash.Weighted>
0.0428

> <Gold.Chemscore.DEInternal.Weighted>
4.0011

> <Gold.Chemscore.Rot.Weighted>
8.1671

> <Gold.Chemscore.Internal.Correction.Weighted>
   9.000000E+99

> <Gold.Protein.RotatedTorsions>
[ 6907 6896 6895 6894 ] final   76.14 input  -60.11 | X-H torsion
[ 7974 7965 7964 7962 ] final   17.19 input  175.53 | X-H torsion
[ 8008 7997 7996 7995 ] final   23.84 input   59.86 | X-H torsion
[ 10167 10162 10161 10158 ] final  100.19 input  -65.29 | X-H torsion
[ 10718 10713 10712 10709 ] final -163.40 input   66.30 | X-H torsion
[ 10763 10752 10751 10750 ] final   28.22 input  -60.55 | X-H torsion
[ 11005 11000 10999 10996 ] final  -97.97 input  -57.11 | X-H torsion

> <Gold.Protein.ActiveResidues>
 VAL166  LYS551  ARG553  GLY616  TRP617  ASP618  TYR619  PRO620  LYS621  CYS622 
 ASP623  PHE694  ASN695  SER759  ASP760  ASP761  ALA762  ILE779  LEU786  VAL792 
 PHE793  MET794  SER795  GLU796  ALA797  LYS798  CYS799  TRP800  GLU811  SER814 

> <Gold.Protein.RotatedAtoms>
  152.5059  134.4015  159.9417 H   0  0  0  0  0  0  0  0  0  0  0  0  # atno 6907 bound_to 6896
  151.3979  133.3761  159.2736 H   0  0  0  0  0  0  0  0  0  0  0  0  # atno 6908 bound_to 6896
  150.9384  134.8816  159.7655 H   0  0  0  0  0  0  0  0  0  0  0  0  # atno 6909 bound_to 6896
  146.2226  139.8639  142.8599 H   0  0  0  0  0  0  0  0  0  0  0  0  # atno 7974 bound_to 7965
  154.9871  140.3109  155.4922 H   0  0  0  0  0  0  0  0  0  0  0  0  # atno 8008 bound_to 7997
  156.2945  140.2256  156.4913 H   0  0  0  0  0  0  0  0  0  0  0  0  # atno 8009 bound_to 7997
  154.7737  140.0450  157.1060 H   0  0  0  0  0  0  0  0  0  0  0  0  # atno 8010 bound_to 7997
  139.7550  144.6972  151.0376 H   0  0  0  0  0  0  0  0  0  0  0  0  # atno 10167 bound_to 10162
  156.6241  130.8902  151.2964 H   0  0  0  0  0  0  0  0  0  0  0  0  # atno 10718 bound_to 10713
  153.0505  135.6518  154.0705 H   0  0  0  0  0  0  0  0  0  0  0  0  # atno 10763 bound_to 10752
  154.0394  135.2905  155.3358 H   0  0  0  0  0  0  0  0  0  0  0  0  # atno 10764 bound_to 10752
  154.6791  135.5327  153.8305 H   0  0  0  0  0  0  0  0  0  0  0  0  # atno 10765 bound_to 10752
  141.1361  133.8210  157.0777 H   0  0  0  0  0  0  0  0  0  0  0  0  # atno 11005 bound_to 11000
  145.2676  141.0098  143.3790 LP  0  0  0  0  0  0  0  0  0  0  0  0  # atno 17320 bound_to 7965
  144.9248  139.4368  143.6523 LP  0  0  0  0  0  0  0  0  0  0  0  0  # atno 17321 bound_to 7965
  140.7802  143.4764  151.0076 LP  0  0  0  0  0  0  0  0  0  0  0  0  # atno 17342 bound_to 10162
  139.8451  143.7512  152.3179 LP  0  0  0  0  0  0  0  0  0  0  0  0  # atno 17343 bound_to 10162
  157.7219  130.9570  150.1474 LP  0  0  0  0  0  0  0  0  0  0  0  0  # atno 17370 bound_to 10713
  156.2288  130.3680  149.8470 LP  0  0  0  0  0  0  0  0  0  0  0  0  # atno 17371 bound_to 10713
  140.0471  134.9825  157.1068 LP  0  0  0  0  0  0  0  0  0  0  0  0  # atno 17394 bound_to 11000
  140.4046  134.2046  155.7163 LP  0  0  0  0  0  0  0  0  0  0  0  0  # atno 17395 bound_to 11000

$$$$
