AV-unprocessed.smi:2489|AV-procd|sdf|9797|dock1
  -GOLD-   2272013433D 1   1.00000     0.00000
 Structure written by MMmdl.
 33 34  0  0  0  0  0  0  0  0  1 V2000
  153.3885  142.7041  162.5568 C   0  0  0  0  0  0  0  0  0  0  0  0
  153.3039  142.4762  161.1578 O   0  0  0  0  0  0  0  0  0  0  0  0
  152.5991  143.3854  160.3994 C   0  0  0  0  0  0  0  0  0  0  0  0
  152.4167  144.7458  160.7426 C   0  0  0  0  0  0  0  0  0  0  0  0
  151.6708  145.5620  159.8727 C   0  0  0  0  0  0  0  0  0  0  0  0
  151.1197  145.1141  158.7265 N   0  0  0  0  0  0  0  0  0  0  0  0
  151.2835  143.8138  158.3819 C   0  0  0  0  0  0  0  0  0  0  0  0
  150.7463  143.2373  157.2003 N   0  0  0  0  0  0  0  0  0  0  0  0
  150.9007  141.9827  156.7377 C   0  0  0  0  0  0  0  0  0  0  0  0
  151.5724  141.1113  157.2916 O   0  0  0  0  0  0  0  0  0  0  0  0
  150.1857  141.6774  155.4154 C   0  0  2  0  0  0  0  0  0  0  0  0
  148.6622  141.4960  155.5430 C   0  0  0  0  0  0  0  0  0  0  0  0
  148.4781  139.9965  155.4358 C   0  0  0  0  0  0  0  0  0  0  0  0
  149.6118  139.6168  154.4897 C   0  0  2  0  0  0  0  0  0  0  0  0
  150.0068  138.1378  154.5467 C   0  0  0  0  0  0  0  0  0  0  0  0
  150.6888  140.4368  154.9211 O   0  0  0  0  0  0  0  0  0  0  0  0
  152.0195  142.9269  159.1988 C   0  0  0  0  0  0  0  0  0  0  0  0
  153.9725  141.9071  163.0168 H   0  0  0  0  0  0  0  0  0  0  0  0
  152.4021  142.6999  163.0221 H   0  0  0  0  0  0  0  0  0  0  0  0
  153.8881  143.6483  162.7773 H   0  0  0  0  0  0  0  0  0  0  0  0
  152.8272  145.1755  161.6437 H   0  0  0  0  0  0  0  0  0  0  0  0
  151.5115  146.6047  160.1043 H   0  0  0  0  0  0  0  0  0  0  0  0
  150.1795  143.8525  156.6354 H   0  0  0  0  0  0  0  0  0  0  0  0
  150.3987  142.4655  154.6912 H   0  0  0  0  0  0  0  0  0  0  0  0
  148.2362  141.9019  156.4614 H   0  0  0  0  0  0  0  0  0  0  0  0
  148.1634  141.9908  154.7085 H   0  0  0  0  0  0  0  0  0  0  0  0
  148.6214  139.5322  156.4126 H   0  0  0  0  0  0  0  0  0  0  0  0
  147.4949  139.7121  155.0603 H   0  0  0  0  0  0  0  0  0  0  0  0
  149.3503  139.8979  153.4682 H   0  0  0  0  0  0  0  0  0  0  0  0
  149.1767  137.4994  154.2435 H   0  0  0  0  0  0  0  0  0  0  0  0
  150.3036  137.8465  155.5547 H   0  0  0  0  0  0  0  0  0  0  0  0
  150.8454  137.9334  153.8808 H   0  0  0  0  0  0  0  0  0  0  0  0
  152.1415  141.8929  158.9099 H   0  0  0  0  0  0  0  0  0  0  0  0
  1  2  1  0  0  0  0
  1 18  1  0  0  0  0
  1 19  1  0  0  0  0
  1 20  1  0  0  0  0
  2  3  1  0  0  0  0
  3 17  1  0  0  0  0
  3  4  2  0  0  0  0
  4  5  1  0  0  0  0
  4 21  1  0  0  0  0
  5  6  2  0  0  0  0
  5 22  1  0  0  0  0
  6  7  1  0  0  0  0
  7  8  1  0  0  0  0
  7 17  2  0  0  0  0
  8  9  1  0  0  0  0
  8 23  1  0  0  0  0
  9 10  2  0  0  0  0
  9 11  1  0  0  0  0
 11 16  1  0  0  0  0
 11 12  1  0  0  0  0
 11 24  1  0  0  0  0
 12 13  1  0  0  0  0
 12 25  1  0  0  0  0
 12 26  1  0  0  0  0
 13 14  1  0  0  0  0
 13 27  1  0  0  0  0
 13 28  1  0  0  0  0
 14 15  1  0  0  0  0
 14 16  1  0  0  0  0
 14 29  1  0  0  0  0
 15 30  1  0  0  0  0
 15 31  1  0  0  0  0
 15 32  1  0  0  0  0
 17 33  1  0  0  0  0
M  END
> <s_m_source_file>
AV-unprocessed.smi

> <i_m_source_file_index>
2489

> <i_lp_mmshare_version>
43012

> <i_f3d_flags>
0

> <s_epik_input>
W0NIM11PYzFbY0hdW2NIXW5jKFtjSF0xKVtOSF1DKD1PKVtDQEBIXTJbQ0gyXVtDSDJdW0NASF0oTzIpW0NIM10=

> <s_epik_cmdline>
J2VwaWtfcHl0aG9uJywgJy1waCcsICc3LjAnLCAnLXRuJywgJzgnLCAnLW1hJywgJzIwMCcsICctbWV0YWxfYmluZGluZycsICctaW1hZScsICc8aW5maWxlLm1hZT4nLCAnLW9tYWUnLCAnPG91dGZpbGUubWFlPic=

> <r_epik_Ionization_Penalty>
0.0871917

> <r_epik_Ionization_Penalty_Charging>
0

> <r_epik_Ionization_Penalty_Neutral>
0.0871917

> <r_epik_State_Penalty>
0.146479

> <r_epik_Charging_Adjusted_Penalty>
0.146479

> <i_epik_Tot_Q>
0

> <i_epik_Tot_abs_Q>
0

> <r_epik_Metal_State_Penalty>
0.067489

> <b_epik_Metal_Only>
0

> <s_lp_Force_Field>
OPLS_2005

> <r_lp_Energy>
22.1888

> <b_lp_Chiralities_Consistent>
1

> <s_lp_Variant>
AV-unprocessed.smi:2489-3

> <Gold.Version>
5.8.1

> <Gold.Id.Protein>
6NUR|6NUR_protein|mol2

> <Gold.PLP.Fitness>
40.1690

> <Gold.PLP.PLP>
-38.3620

> <Gold.PLP.part.hbond>
-2.0000

> <Gold.PLP.part.metal>
0.0000

> <Gold.PLP.part.buried>
-6.4845

> <Gold.PLP.part.nonpolar>
-29.4960

> <Gold.PLP.part.repulsive>
0.2598

> <Gold.PLP.ligand.clash>
2.8308

> <Gold.PLP.ligand.torsion>
0.6920

> <Gold.PLP.Chemscore.Hbond>
2.0000

> <Gold.PLP.Chemscore.CHOScore>
0.0000

> <Gold.PLP.Chemscore.Metal>
0.0000

> <Gold.Chemscore.Hbonds>
donor molecule, donor type, donor heavy atom, donor atom, acceptor molecule, acceptor atom, score
      L1  H     8    23       P1  8028  1.00
      P1  H  7989  7998       L1    16  1.00

> <Gold.PLP.Chemscore.Internal.Correction>
0.0217

> <Gold.Rescore>
     Score         DG    S(hbond)    S(metal)    S(lipo)     H(rot)  DE(clash)    DE(int)     intcor
     14.78     -17.24       1.29        0.00      90.45       1.23       0.25       2.21       ----

> <Gold.Chemscore.Fitness>
14.7823

> <Gold.Chemscore.DG>
-17.2372

> <Gold.Chemscore.ZeroCoef>
-5.4800

> <Gold.Chemscore.Hbond>
1.2916

> <Gold.Chemscore.Metal>
0.0000

> <Gold.Chemscore.Lipo>
90.4517

> <Gold.Chemscore.Internal_Hbond>
0.0000

> <Gold.Chemscore.DEClash>
0.2469

> <Gold.Chemscore.DEInternal>
2.2080

> <Gold.Chemscore.Rot>
1.2264

> <Gold.Chemscore.Internal.Correction>
   9.000000E+99

> <Gold.Chemscore.Hbonds>
donor molecule, donor type, donor heavy atom, donor atom, acceptor molecule, acceptor atom, score
      L1  H     8    23       P1  8028  1.00
      P1  H  7989  7998       L1    16  0.29

> <Gold.Chemscore.Hbond.Weighted>
-4.3139

> <Gold.Chemscore.Metal.Weighted>
-0.0000

> <Gold.Chemscore.Lipo.Weighted>
-10.5829

> <Gold.Chemscore.Internal_Hbond.Weighted>
0.0000

> <Gold.Chemscore.DEClash.Weighted>
0.2469

> <Gold.Chemscore.DEInternal.Weighted>
2.2080

> <Gold.Chemscore.Rot.Weighted>
3.1396

> <Gold.Chemscore.Internal.Correction.Weighted>
   9.000000E+99

> <Gold.Protein.RotatedTorsions>
[ 6907 6896 6895 6894 ] final   85.86 input  -60.11 | X-H torsion
[ 7974 7965 7964 7962 ] final   97.09 input  175.53 | X-H torsion
[ 8008 7997 7996 7995 ] final -103.49 input   59.86 | X-H torsion
[ 10167 10162 10161 10158 ] final -138.30 input  -65.29 | X-H torsion
[ 10718 10713 10712 10709 ] final   37.22 input   66.30 | X-H torsion
[ 10763 10752 10751 10750 ] final  -92.34 input  -60.55 | X-H torsion
[ 11005 11000 10999 10996 ] final -172.60 input  -57.11 | X-H torsion

> <Gold.Protein.ActiveResidues>
 VAL166  LYS551  ARG553  GLY616  TRP617  ASP618  TYR619  PRO620  LYS621  CYS622 
 ASP623  PHE694  ASN695  SER759  ASP760  ASP761  ALA762  ILE779  LEU786  VAL792 
 PHE793  MET794  SER795  GLU796  ALA797  LYS798  CYS799  TRP800  GLU811  SER814 

> <Gold.Protein.RotatedAtoms>
  152.5383  134.2521  159.8902 H   0  0  0  0  0  0  0  0  0  0  0  0  # atno 6907 bound_to 6896
  151.2483  133.4356  159.2618 H   0  0  0  0  0  0  0  0  0  0  0  0  # atno 6908 bound_to 6896
  151.0562  134.9720  159.8293 H   0  0  0  0  0  0  0  0  0  0  0  0  # atno 6909 bound_to 6896
  145.4301  139.2311  143.3149 H   0  0  0  0  0  0  0  0  0  0  0  0  # atno 7974 bound_to 7965
  154.8716  140.0422  157.1728 H   0  0  0  0  0  0  0  0  0  0  0  0  # atno 8008 bound_to 7997
  154.8732  140.2961  155.5448 H   0  0  0  0  0  0  0  0  0  0  0  0  # atno 8009 bound_to 7997
  156.2999  140.2425  156.3724 H   0  0  0  0  0  0  0  0  0  0  0  0  # atno 8010 bound_to 7997
  139.8492  143.7221  152.2659 H   0  0  0  0  0  0  0  0  0  0  0  0  # atno 10167 bound_to 10162
  157.3443  130.7564  149.6933 H   0  0  0  0  0  0  0  0  0  0  0  0  # atno 10718 bound_to 10713
  154.6851  135.5235  153.8315 H   0  0  0  0  0  0  0  0  0  0  0  0  # atno 10763 bound_to 10752
  153.0592  135.6562  154.0514 H   0  0  0  0  0  0  0  0  0  0  0  0  # atno 10764 bound_to 10752
  154.0396  135.2978  155.3337 H   0  0  0  0  0  0  0  0  0  0  0  0  # atno 10765 bound_to 10752
  140.4952  134.5946  157.4969 H   0  0  0  0  0  0  0  0  0  0  0  0  # atno 11005 bound_to 11000
  146.2611  140.5037  142.8853 LP  0  0  0  0  0  0  0  0  0  0  0  0  # atno 17320 bound_to 7965
  144.8188  140.6515  143.6366 LP  0  0  0  0  0  0  0  0  0  0  0  0  # atno 17321 bound_to 7965
  139.7482  144.7541  151.0547 LP  0  0  0  0  0  0  0  0  0  0  0  0  # atno 17342 bound_to 10162
  140.7789  143.4891  150.9917 LP  0  0  0  0  0  0  0  0  0  0  0  0  # atno 17343 bound_to 10162
  155.9712  130.4159  150.4203 LP  0  0  0  0  0  0  0  0  0  0  0  0  # atno 17370 bound_to 10713
  157.2255  131.0492  151.2522 LP  0  0  0  0  0  0  0  0  0  0  0  0  # atno 17371 bound_to 10713
  139.9745  134.7237  155.9976 LP  0  0  0  0  0  0  0  0  0  0  0  0  # atno 17394 bound_to 11000
  141.1464  133.6555  156.3879 LP  0  0  0  0  0  0  0  0  0  0  0  0  # atno 17395 bound_to 11000

$$$$
