AV-unprocessed.smi:229|AV-procd|sdf|1758|dock10
  -GOLD-   2262020283D 1   1.00000     0.00000
 Structure written by MMmdl.
 58 62  0  0  0  0  0  0  0  0  1 V2000
  150.0314  129.9323  156.9233 C   0  0  0  0  0  0  0  0  0  0  0  0
  150.6701  131.2627  157.3409 C   0  0  0  0  0  0  0  0  0  0  0  0
  149.9354  132.4845  156.7691 C   0  0  1  0  0  0  0  0  0  0  0  0
  150.8616  133.7061  156.6555 C   0  0  0  0  0  0  0  0  0  0  0  0
  150.1568  134.8059  156.0121 N   0  0  0  0  0  0  0  0  0  0  0  0
  150.6304  136.0722  156.1428 C   0  0  0  0  0  0  0  0  0  0  0  0
  151.1165  136.6693  155.0232 N   0  0  0  0  0  0  0  0  0  0  0  0
  151.5858  137.9191  155.0675 C   0  0  0  0  0  0  0  0  0  0  0  0
  151.6632  138.7440  156.1123 N   0  0  0  0  0  0  0  0  0  0  0  0
  151.1830  138.1531  157.2430 C   0  0  0  0  0  0  0  0  0  0  0  0
  150.6528  136.8342  157.3510 C   0  0  0  0  0  0  0  0  0  0  0  0
  150.2783  136.5941  158.6699 N   0  0  0  0  0  0  0  0  0  0  0  0
  150.5587  137.7032  159.2969 C   0  0  0  0  0  0  0  0  0  0  0  0
  151.1035  138.6935  158.5138 N   0  0  0  0  0  0  0  0  0  0  0  0
  151.5078  140.0211  158.9425 C   0  0  0  0  0  0  0  0  0  0  0  0
  151.2912  141.0847  157.8474 C   0  0  1  0  0  0  0  0  0  0  0  0
  149.9299  141.0818  157.4597 O   0  0  0  0  0  0  0  0  0  0  0  0
  151.6685  142.5001  158.3233 C   0  0  2  0  0  0  0  0  0  0  0  0
  152.9601  142.5698  159.1389 C   0  0  0  0  0  0  0  0  0  0  0  0
  152.7724  143.8651  159.8947 C   0  0  0  0  0  0  0  0  0  0  0  0
  151.2776  143.8400  160.2043 C   0  0  0  0  0  0  0  0  0  0  0  0
  150.6772  143.0132  159.2095 O   0  0  0  0  0  0  0  0  0  0  0  0
  149.5914  134.4557  154.7131 C   0  0  0  0  0  0  0  0  0  0  0  0
  148.7100  133.1889  154.8168 C   0  0  2  0  0  0  0  0  0  0  0  0
  148.3205  132.6775  153.4331 C   0  0  0  0  0  0  0  0  0  0  0  0
  146.9436  133.2833  153.2087 C   0  0  0  0  0  0  0  0  0  0  0  0
  146.3475  133.1556  154.4857 O   0  0  0  0  0  0  0  0  0  0  0  0
  147.3323  133.4612  155.4665 C   0  0  0  0  0  0  0  0  0  0  0  0
  149.4406  132.1475  155.4718 O   0  0  0  0  0  0  0  0  0  0  0  0
  150.5685  129.0907  157.3607 H   0  0  0  0  0  0  0  0  0  0  0  0
  150.0463  129.8082  155.8401 H   0  0  0  0  0  0  0  0  0  0  0  0
  148.9940  129.8731  157.2535 H   0  0  0  0  0  0  0  0  0  0  0  0
  150.6742  131.3214  158.4297 H   0  0  0  0  0  0  0  0  0  0  0  0
  151.7149  131.2809  157.0289 H   0  0  0  0  0  0  0  0  0  0  0  0
  149.1076  132.7310  157.4345 H   0  0  0  0  0  0  0  0  0  0  0  0
  151.1925  134.0020  157.6516 H   0  0  0  0  0  0  0  0  0  0  0  0
  151.7479  133.4543  156.0718 H   0  0  0  0  0  0  0  0  0  0  0  0
  151.9488  138.3154  154.1306 H   0  0  0  0  0  0  0  0  0  0  0  0
  150.3722  137.8305  160.3534 H   0  0  0  0  0  0  0  0  0  0  0  0
  150.9520  140.2813  159.8445 H   0  0  0  0  0  0  0  0  0  0  0  0
  152.5597  139.9777  159.2271 H   0  0  0  0  0  0  0  0  0  0  0  0
  151.8905  140.8278  156.9728 H   0  0  0  0  0  0  0  0  0  0  0  0
  149.4029  141.2936  158.2149 H   0  0  0  0  0  0  0  0  0  0  0  0
  151.7421  143.1805  157.4730 H   0  0  0  0  0  0  0  0  0  0  0  0
  153.0207  141.7343  159.8380 H   0  0  0  0  0  0  0  0  0  0  0  0
  153.8571  142.5644  158.5189 H   0  0  0  0  0  0  0  0  0  0  0  0
  153.3928  143.9363  160.7886 H   0  0  0  0  0  0  0  0  0  0  0  0
  153.0077  144.7107  159.2469 H   0  0  0  0  0  0  0  0  0  0  0  0
  151.0940  143.3936  161.1820 H   0  0  0  0  0  0  0  0  0  0  0  0
  150.8424  144.8397  160.2021 H   0  0  0  0  0  0  0  0  0  0  0  0
  149.0104  135.2747  154.2876 H   0  0  0  0  0  0  0  0  0  0  0  0
  150.4214  134.2759  154.0282 H   0  0  0  0  0  0  0  0  0  0  0  0
  149.0333  132.9381  152.6502 H   0  0  0  0  0  0  0  0  0  0  0  0
  148.2296  131.5901  153.4462 H   0  0  0  0  0  0  0  0  0  0  0  0
  147.0146  134.3373  152.9350 H   0  0  0  0  0  0  0  0  0  0  0  0
  146.3712  132.7612  152.4419 H   0  0  0  0  0  0  0  0  0  0  0  0
  147.1468  132.8496  156.3488 H   0  0  0  0  0  0  0  0  0  0  0  0
  147.2312  134.5064  155.7620 H   0  0  0  0  0  0  0  0  0  0  0  0
  1  2  1  0  0  0  0
  1 30  1  0  0  0  0
  1 31  1  0  0  0  0
  1 32  1  0  0  0  0
  2  3  1  0  0  0  0
  2 33  1  0  0  0  0
  2 34  1  0  0  0  0
  3 29  1  0  0  0  0
  3  4  1  0  0  0  0
  3 35  1  0  0  0  0
  4  5  1  0  0  0  0
  4 36  1  0  0  0  0
  4 37  1  0  0  0  0
  5  6  1  0  0  0  0
  5 23  1  0  0  0  0
  6 11  1  0  0  0  0
  6  7  2  0  0  0  0
  7  8  1  0  0  0  0
  8  9  2  0  0  0  0
  8 38  1  0  0  0  0
  9 10  1  0  0  0  0
 10 14  1  0  0  0  0
 10 11  2  0  0  0  0
 11 12  1  0  0  0  0
 12 13  2  0  0  0  0
 13 14  1  0  0  0  0
 13 39  1  0  0  0  0
 14 15  1  0  0  0  0
 15 16  1  0  0  0  0
 15 40  1  0  0  0  0
 15 41  1  0  0  0  0
 16 17  1  0  0  0  0
 16 18  1  0  0  0  0
 16 42  1  0  0  0  0
 17 43  1  0  0  0  0
 18 22  1  0  0  0  0
 18 19  1  0  0  0  0
 18 44  1  0  0  0  0
 19 20  1  0  0  0  0
 19 45  1  0  0  0  0
 19 46  1  0  0  0  0
 20 21  1  0  0  0  0
 20 47  1  0  0  0  0
 20 48  1  0  0  0  0
 21 22  1  0  0  0  0
 21 49  1  0  0  0  0
 21 50  1  0  0  0  0
 23 24  1  0  0  0  0
 23 51  1  0  0  0  0
 23 52  1  0  0  0  0
 24 28  1  0  0  0  0
 24 25  1  0  0  0  0
 24 29  1  0  0  0  0
 25 26  1  0  0  0  0
 25 53  1  0  0  0  0
 25 54  1  0  0  0  0
 26 27  1  0  0  0  0
 26 55  1  0  0  0  0
 26 56  1  0  0  0  0
 27 28  1  0  0  0  0
 28 57  1  0  0  0  0
 28 58  1  0  0  0  0
M  END
> <s_m_source_file>
AV-unprocessed.smi

> <i_m_source_file_index>
229

> <i_lp_mmshare_version>
43012

> <i_f3d_flags>
0

> <s_epik_input>
W0NIMl0xT1tDSDJdW0NIMl1bQ0BdMTJbQ0gyXU4oW0NIMl1bQ0BIXShPMilbQ0gyXVtDSDNdKWMobltjSF1uMyljKGMzNCluW2NIXW40W0NIMl1bQ0BIXShbT0hdKVtDQEBIXTVbQ0gyXVtDSDJdW0NIMl1PNQ==

> <s_epik_cmdline>
J2VwaWtfcHl0aG9uJywgJy1waCcsICc3LjAnLCAnLXRuJywgJzgnLCAnLW1hJywgJzIwMCcsICctbWV0YWxfYmluZGluZycsICctaW1hZScsICc8aW5maWxlLm1hZT4nLCAnLW9tYWUnLCAnPG91dGZpbGUubWFlPic=

> <r_lp_tautomer_probability>
1

> <r_epik_Ionization_Penalty>
0.00318402

> <r_epik_Ionization_Penalty_Charging>
0

> <r_epik_Ionization_Penalty_Neutral>
0.00318402

> <r_epik_State_Penalty>
0.00215642

> <r_epik_Charging_Adjusted_Penalty>
0.00215642

> <i_epik_Tot_Q>
0

> <i_epik_Tot_abs_Q>
0

> <r_epik_Metal_State_Penalty>
-0

> <b_epik_Metal_Only>
0

> <s_lp_Force_Field>
OPLS_2005

> <r_lp_Energy>
55.1094

> <b_lp_Chiralities_Consistent>
1

> <s_lp_Variant>
AV-unprocessed.smi:229-12

> <Gold.Version>
5.8.1

> <Gold.Id.Protein>
6NUR|6NUR_protein|mol2

> <Gold.PLP.Fitness>
44.5575

> <Gold.PLP.PLP>
-40.8731

> <Gold.PLP.part.hbond>
-2.1143

> <Gold.PLP.part.metal>
0.0000

> <Gold.PLP.part.buried>
-8.1770

> <Gold.PLP.part.nonpolar>
-31.0458

> <Gold.PLP.part.repulsive>
0.2883

> <Gold.PLP.ligand.clash>
0.0000

> <Gold.PLP.ligand.torsion>
1.3224

> <Gold.PLP.Chemscore.Hbond>
1.9440

> <Gold.PLP.Chemscore.CHOScore>
0.0000

> <Gold.PLP.Chemscore.Metal>
0.0000

> <Gold.Chemscore.Hbonds>
donor molecule, donor type, donor heavy atom, donor atom, acceptor molecule, acceptor atom, score
      P1  H  6896  6909       L1    12  0.91
      P1  H 10752 10764       L1     7  0.60

> <Gold.PLP.Chemscore.Internal.Correction>
0.4972

> <Gold.Rescore>
     Score         DG    S(hbond)    S(metal)    S(lipo)     H(rot)  DE(clash)    DE(int)     intcor
     14.97     -16.18       1.58        0.00     100.27       2.46       0.07       1.15       ----

> <Gold.Chemscore.Fitness>
14.9690

> <Gold.Chemscore.DG>
-16.1840

> <Gold.Chemscore.ZeroCoef>
-5.4800

> <Gold.Chemscore.Hbond>
1.5770

> <Gold.Chemscore.Metal>
0.0000

> <Gold.Chemscore.Lipo>
100.2747

> <Gold.Chemscore.Internal_Hbond>
0.0000

> <Gold.Chemscore.DEClash>
0.0677

> <Gold.Chemscore.DEInternal>
1.1473

> <Gold.Chemscore.Rot>
2.4591

> <Gold.Chemscore.Internal.Correction>
   9.000000E+99

> <Gold.Chemscore.Hbonds>
donor molecule, donor type, donor heavy atom, donor atom, acceptor molecule, acceptor atom, score
      P1  H  6896  6909       L1    12  0.55
      P1  H 10752 10764       L1     7  0.09

> <Gold.Chemscore.Hbond.Weighted>
-5.2672

> <Gold.Chemscore.Metal.Weighted>
-0.0000

> <Gold.Chemscore.Lipo.Weighted>
-11.7321

> <Gold.Chemscore.Internal_Hbond.Weighted>
0.0000

> <Gold.Chemscore.DEClash.Weighted>
0.0677

> <Gold.Chemscore.DEInternal.Weighted>
1.1473

> <Gold.Chemscore.Rot.Weighted>
6.2953

> <Gold.Chemscore.Internal.Correction.Weighted>
   9.000000E+99

> <Gold.Protein.RotatedTorsions>
[ 6907 6896 6895 6894 ] final   85.16 input  -60.11 | X-H torsion
[ 7974 7965 7964 7962 ] final  -14.84 input  175.53 | X-H torsion
[ 8008 7997 7996 7995 ] final  155.74 input   59.86 | X-H torsion
[ 10167 10162 10161 10158 ] final   29.36 input  -65.29 | X-H torsion
[ 10718 10713 10712 10709 ] final   74.88 input   66.30 | X-H torsion
[ 10763 10752 10751 10750 ] final  -73.08 input  -60.55 | X-H torsion
[ 11005 11000 10999 10996 ] final  -24.14 input  -57.11 | X-H torsion

> <Gold.Protein.ActiveResidues>
 VAL166  LYS551  ARG553  GLY616  TRP617  ASP618  TYR619  PRO620  LYS621  CYS622 
 ASP623  PHE694  ASN695  SER759  ASP760  ASP761  ALA762  ILE779  LEU786  VAL792 
 PHE793  MET794  SER795  GLU796  ALA797  LYS798  CYS799  TRP800  GLU811  SER814 

> <Gold.Protein.RotatedAtoms>
  152.5368  134.2630  159.8942 H   0  0  0  0  0  0  0  0  0  0  0  0  # atno 6907 bound_to 6896
  151.2589  133.4305  159.2622 H   0  0  0  0  0  0  0  0  0  0  0  0  # atno 6908 bound_to 6896
  151.0471  134.9662  159.8248 H   0  0  0  0  0  0  0  0  0  0  0  0  # atno 6909 bound_to 6896
  146.2057  140.3407  142.8408 H   0  0  0  0  0  0  0  0  0  0  0  0  # atno 7974 bound_to 7965
  156.2462  140.1931  156.6847 H   0  0  0  0  0  0  0  0  0  0  0  0  # atno 8008 bound_to 7997
  154.6296  140.0597  156.9741 H   0  0  0  0  0  0  0  0  0  0  0  0  # atno 8009 bound_to 7997
  155.1732  140.3270  155.4391 H   0  0  0  0  0  0  0  0  0  0  0  0  # atno 8010 bound_to 7997
  140.4772  144.0672  150.6254 H   0  0  0  0  0  0  0  0  0  0  0  0  # atno 10167 bound_to 10162
  157.6611  130.9699  150.1274 H   0  0  0  0  0  0  0  0  0  0  0  0  # atno 10718 bound_to 10713
  154.4545  135.5909  153.6214 H   0  0  0  0  0  0  0  0  0  0  0  0  # atno 10763 bound_to 10752
  152.9817  135.6029  154.3563 H   0  0  0  0  0  0  0  0  0  0  0  0  # atno 10764 bound_to 10752
  154.3428  135.2841  155.2392 H   0  0  0  0  0  0  0  0  0  0  0  0  # atno 10765 bound_to 10752
  140.8818  133.7649  156.0311 H   0  0  0  0  0  0  0  0  0  0  0  0  # atno 11005 bound_to 11000
  144.8787  140.7372  143.6000 LP  0  0  0  0  0  0  0  0  0  0  0  0  # atno 17320 bound_to 7965
  145.3327  139.1755  143.4528 LP  0  0  0  0  0  0  0  0  0  0  0  0  # atno 17321 bound_to 7965
  140.3903  143.2756  152.0068 LP  0  0  0  0  0  0  0  0  0  0  0  0  # atno 17342 bound_to 10162
  139.4827  144.6082  151.7481 LP  0  0  0  0  0  0  0  0  0  0  0  0  # atno 17343 bound_to 10162
  156.2130  130.3668  149.8647 LP  0  0  0  0  0  0  0  0  0  0  0  0  # atno 17370 bound_to 10713
  156.6521  130.8748  151.3533 LP  0  0  0  0  0  0  0  0  0  0  0  0  # atno 17371 bound_to 10713
  140.8453  134.3019  157.5297 LP  0  0  0  0  0  0  0  0  0  0  0  0  # atno 17394 bound_to 11000
  139.8720  134.9438  156.3863 LP  0  0  0  0  0  0  0  0  0  0  0  0  # atno 17395 bound_to 11000

$$$$
