AV-unprocessed.smi:1801|AV-procd|sdf|7267|dock6
  -GOLD-   22720 8523D 1   1.00000     0.00000
 Structure written by MMmdl.
 38 39  0  0  0  0  0  0  0  0  2 V2000
  146.0278  134.8636  152.6312 C   0  0  0  0  0  0  0  0  0  0  0  0
  145.2927  135.7304  151.5948 C   0  0  2  0  0  0  0  0  0  0  0  0
  145.4378  137.2260  151.9616 C   0  0  0  0  0  0  0  0  0  0  0  0
  146.7832  137.5957  152.3954 N   0  0  0  0  0  0  0  0  0  0  0  0
  147.0964  138.6750  153.1271 C   0  0  0  0  0  0  0  0  0  0  0  0
  146.2630  139.4863  153.5304 O   0  0  0  0  0  0  0  0  0  0  0  0
  148.4201  138.7416  153.3532 N   0  0  0  0  0  0  0  0  0  0  0  0
  149.1334  139.6967  154.1251 C   0  0  0  0  0  0  0  0  0  0  0  0
  150.4077  139.5359  154.5151 N   0  0  0  0  0  0  0  0  0  0  0  0
  150.8662  140.6208  155.2512 N   0  0  0  0  0  0  0  0  0  0  0  0
  149.9219  141.5562  155.3860 C   0  0  0  0  0  0  0  0  0  0  0  0
  148.3807  141.2053  154.6228 S   0  0  0  0  0  0  0  0  0  0  0  0
  143.8142  135.2993  151.4480 C   0  0  0  0  0  0  0  0  0  0  0  0
  143.6624  134.0515  150.6622 N   0  3  0  0  0  0  0  0  0  0  0  0
  144.5640  133.9573  149.4971 C   0  0  0  0  0  0  0  0  0  0  0  0
  144.6558  132.4660  149.1923 C   0  0  0  0  0  0  0  0  0  0  0  0
  144.6427  131.8342  150.5807 C   0  0  0  0  0  0  0  0  0  0  0  0
  143.8051  132.7940  151.4369 C   0  0  0  0  0  0  0  0  0  0  0  0
  145.5750  134.9555  153.6190 H   0  0  0  0  0  0  0  0  0  0  0  0
  147.0737  135.1596  152.7177 H   0  0  0  0  0  0  0  0  0  0  0  0
  146.0130  133.8092  152.3548 H   0  0  0  0  0  0  0  0  0  0  0  0
  145.7955  135.5792  150.6397 H   0  0  0  0  0  0  0  0  0  0  0  0
  145.1855  137.8445  151.0996 H   0  0  0  0  0  0  0  0  0  0  0  0
  144.7288  137.4925  152.7473 H   0  0  0  0  0  0  0  0  0  0  0  0
  147.5351  136.9896  152.1012 H   0  0  0  0  0  0  0  0  0  0  0  0
  148.9850  138.0199  152.9304 H   0  0  0  0  0  0  0  0  0  0  0  0
  150.1350  142.4603  155.9368 H   0  0  0  0  0  0  0  0  0  0  0  0
  143.3829  135.1528  152.4394 H   0  0  0  0  0  0  0  0  0  0  0  0
  143.2205  136.0775  150.9674 H   0  0  0  0  0  0  0  0  0  0  0  0
  144.1926  134.5373  148.6520 H   0  0  0  0  0  0  0  0  0  0  0  0
  145.5519  134.3382  149.7624 H   0  0  0  0  0  0  0  0  0  0  0  0
  143.7774  132.1467  148.6294 H   0  0  0  0  0  0  0  0  0  0  0  0
  145.5423  132.2037  148.6140 H   0  0  0  0  0  0  0  0  0  0  0  0
  144.2442  130.8189  150.5747 H   0  0  0  0  0  0  0  0  0  0  0  0
  145.6606  131.7881  150.9712 H   0  0  0  0  0  0  0  0  0  0  0  0
  144.2863  132.9585  152.4025 H   0  0  0  0  0  0  0  0  0  0  0  0
  142.8122  132.3864  151.6290 H   0  0  0  0  0  0  0  0  0  0  0  0
  142.7247  134.0466  150.2867 H   0  0  0  0  0  0  0  0  0  0  0  0
  1  2  1  0  0  0  0
  1 19  1  0  0  0  0
  1 20  1  0  0  0  0
  1 21  1  0  0  0  0
  2  3  1  0  0  0  0
  2 13  1  0  0  0  0
  2 22  1  0  0  0  0
  3  4  1  0  0  0  0
  3 23  1  0  0  0  0
  3 24  1  0  0  0  0
  4  5  1  0  0  0  0
  4 25  1  0  0  0  0
  5  6  2  0  0  0  0
  5  7  1  0  0  0  0
  7  8  1  0  0  0  0
  7 26  1  0  0  0  0
  8 12  1  0  0  0  0
  8  9  2  0  0  0  0
  9 10  1  0  0  0  0
 10 11  2  0  0  0  0
 11 12  1  0  0  0  0
 11 27  1  0  0  0  0
 13 14  1  0  0  0  0
 13 28  1  0  0  0  0
 13 29  1  0  0  0  0
 14 18  1  0  0  0  0
 14 15  1  0  0  0  0
 14 38  1  0  0  0  0
 15 16  1  0  0  0  0
 15 30  1  0  0  0  0
 15 31  1  0  0  0  0
 16 17  1  0  0  0  0
 16 32  1  0  0  0  0
 16 33  1  0  0  0  0
 17 18  1  0  0  0  0
 17 34  1  0  0  0  0
 17 35  1  0  0  0  0
 18 36  1  0  0  0  0
 18 37  1  0  0  0  0
M  CHG  1  14   1
M  END
> <s_m_source_file>
AV-unprocessed.smi

> <i_m_source_file_index>
1801

> <i_lp_mmshare_version>
43012

> <i_f3d_flags>
0

> <s_epik_input>
W0NIMl0xW0NIMl1bQ0gyXVtDSDJdTjFbQ0gyXVtDQEhdKFtDSDNdKVtDSDJdW05IXUMoPU8pW05IXWMybm5bY0hdczI=

> <s_epik_cmdline>
J2VwaWtfcHl0aG9uJywgJy1waCcsICc3LjAnLCAnLXRuJywgJzgnLCAnLW1hJywgJzIwMCcsICctbWV0YWxfYmluZGluZycsICctaW1hZScsICc8aW5maWxlLm1hZT4nLCAnLW9tYWUnLCAnPG91dGZpbGUubWFlPic=

> <r_lp_tautomer_probability>
1

> <r_epik_Ionization_Penalty>
0.00281598

> <r_epik_Ionization_Penalty_Charging>
0.000371708

> <r_epik_Ionization_Penalty_Neutral>
0.00244427

> <r_epik_State_Penalty>
-0

> <r_epik_Charging_Adjusted_Penalty>
0.000371708

> <i_epik_Tot_Q>
1

> <i_epik_Tot_abs_Q>
1

> <r_epik_Metal_State_Penalty>
0.350595

> <b_epik_Metal_Only>
0

> <s_lp_Force_Field>
OPLS_2005

> <r_lp_Energy>
28.9171

> <b_lp_Chiralities_Consistent>
1

> <s_lp_Variant>
AV-unprocessed.smi:1801-1

> <Gold.Version>
5.8.1

> <Gold.Id.Protein>
6NUR|6NUR_protein|mol2

> <Gold.PLP.Fitness>
44.3013

> <Gold.PLP.PLP>
-31.1701

> <Gold.PLP.part.hbond>
-6.0000

> <Gold.PLP.part.metal>
0.0000

> <Gold.PLP.part.buried>
1.1531

> <Gold.PLP.part.nonpolar>
-27.2714

> <Gold.PLP.part.repulsive>
1.6510

> <Gold.PLP.ligand.clash>
0.0000

> <Gold.PLP.ligand.torsion>
0.7007

> <Gold.PLP.Chemscore.Hbond>
3.8897

> <Gold.PLP.Chemscore.CHOScore>
0.9416

> <Gold.PLP.Chemscore.Metal>
0.0000

> <Gold.Chemscore.Hbonds>
donor molecule, donor type, donor heavy atom, donor atom, acceptor molecule, acceptor atom, score
      L1  H     4    25       P1  7948  1.00
      L1  H     7    26       P1  7948  0.87
      L1  H    14    38       P1 10186  2.00
      L1  C    11    27       P1  8028  0.76

> <Gold.PLP.Chemscore.Internal.Correction>
0.0387

> <Gold.Rescore>
     Score         DG    S(hbond)    S(metal)    S(lipo)     H(rot)  DE(clash)    DE(int)     intcor
     14.10     -17.60       2.70        0.00      69.58       1.97       1.67       1.83       ----

> <Gold.Chemscore.Fitness>
14.0958

> <Gold.Chemscore.DG>
-17.5985

> <Gold.Chemscore.ZeroCoef>
-5.4800

> <Gold.Chemscore.Hbond>
2.6984

> <Gold.Chemscore.Metal>
0.0000

> <Gold.Chemscore.Lipo>
69.5797

> <Gold.Chemscore.Internal_Hbond>
0.0000

> <Gold.Chemscore.DEClash>
1.6678

> <Gold.Chemscore.DEInternal>
1.8349

> <Gold.Chemscore.Rot>
1.9667

> <Gold.Chemscore.Internal.Correction>
   9.000000E+99

> <Gold.Chemscore.Hbonds>
donor molecule, donor type, donor heavy atom, donor atom, acceptor molecule, acceptor atom, score
      L1  H     4    25       P1  7948  0.99
      L1  H     7    26       P1  7948  0.80
      L1  H    14    38       P1 10186  0.94

> <Gold.Chemscore.Hbond.Weighted>
-9.0126

> <Gold.Chemscore.Metal.Weighted>
-0.0000

> <Gold.Chemscore.Lipo.Weighted>
-8.1408

> <Gold.Chemscore.Internal_Hbond.Weighted>
0.0000

> <Gold.Chemscore.DEClash.Weighted>
1.6678

> <Gold.Chemscore.DEInternal.Weighted>
1.8349

> <Gold.Chemscore.Rot.Weighted>
5.0348

> <Gold.Chemscore.Internal.Correction.Weighted>
   9.000000E+99

> <Gold.Protein.RotatedTorsions>
[ 6907 6896 6895 6894 ] final  -50.60 input  -60.11 | X-H torsion
[ 7974 7965 7964 7962 ] final  -69.83 input  175.53 | X-H torsion
[ 8008 7997 7996 7995 ] final  158.11 input   59.86 | X-H torsion
[ 10167 10162 10161 10158 ] final   91.91 input  -65.29 | X-H torsion
[ 10718 10713 10712 10709 ] final  162.97 input   66.30 | X-H torsion
[ 10763 10752 10751 10750 ] final  -46.56 input  -60.55 | X-H torsion
[ 11005 11000 10999 10996 ] final   32.57 input  -57.11 | X-H torsion

> <Gold.Protein.ActiveResidues>
 VAL166  LYS551  ARG553  GLY616  TRP617  ASP618  TYR619  PRO620  LYS621  CYS622 
 ASP623  PHE694  ASN695  SER759  ASP760  ASP761  ALA762  ILE779  LEU786  VAL792 
 PHE793  MET794  SER795  GLU796  ALA797  LYS798  CYS799  TRP800  GLU811  SER814 

> <Gold.Protein.RotatedAtoms>
  150.8691  134.8061  159.7141 H   0  0  0  0  0  0  0  0  0  0  0  0  # atno 6907 bound_to 6896
  152.4702  134.4975  159.9724 H   0  0  0  0  0  0  0  0  0  0  0  0  # atno 6908 bound_to 6896
  151.5067  133.3455  159.2913 H   0  0  0  0  0  0  0  0  0  0  0  0  # atno 6909 bound_to 6896
  145.6988  140.9125  143.0742 H   0  0  0  0  0  0  0  0  0  0  0  0  # atno 7974 bound_to 7965
  156.2323  140.1867  156.7211 H   0  0  0  0  0  0  0  0  0  0  0  0  # atno 8008 bound_to 7997
  154.6044  140.0631  156.9438 H   0  0  0  0  0  0  0  0  0  0  0  0  # atno 8009 bound_to 7997
  155.2121  140.3301  155.4330 H   0  0  0  0  0  0  0  0  0  0  0  0  # atno 8010 bound_to 7997
  139.8328  144.6679  150.9378 H   0  0  0  0  0  0  0  0  0  0  0  0  # atno 10167 bound_to 10162
  157.1151  131.0478  151.2440 H   0  0  0  0  0  0  0  0  0  0  0  0  # atno 10718 bound_to 10713
  154.0470  135.6636  153.4796 H   0  0  0  0  0  0  0  0  0  0  0  0  # atno 10763 bound_to 10752
  153.0479  135.5103  154.7788 H   0  0  0  0  0  0  0  0  0  0  0  0  # atno 10764 bound_to 10752
  154.6782  135.3040  154.9616 H   0  0  0  0  0  0  0  0  0  0  0  0  # atno 10765 bound_to 10752
  140.2721  134.3070  155.7825 H   0  0  0  0  0  0  0  0  0  0  0  0  # atno 11005 bound_to 11000
  144.6975  139.8919  143.7453 LP  0  0  0  0  0  0  0  0  0  0  0  0  # atno 17320 bound_to 7965
  146.0817  139.3804  143.0460 LP  0  0  0  0  0  0  0  0  0  0  0  0  # atno 17321 bound_to 7965
  140.7805  143.3984  151.1190 LP  0  0  0  0  0  0  0  0  0  0  0  0  # atno 17342 bound_to 10162
  139.7637  143.8597  152.3106 LP  0  0  0  0  0  0  0  0  0  0  0  0  # atno 17343 bound_to 10162
  157.4525  130.7607  149.7164 LP  0  0  0  0  0  0  0  0  0  0  0  0  # atno 17370 bound_to 10713
  155.9841  130.3994  150.3327 LP  0  0  0  0  0  0  0  0  0  0  0  0  # atno 17371 bound_to 10713
  141.2176  133.7473  156.9351 LP  0  0  0  0  0  0  0  0  0  0  0  0  # atno 17394 bound_to 11000
  140.1363  134.9323  157.2406 LP  0  0  0  0  0  0  0  0  0  0  0  0  # atno 17395 bound_to 11000

$$$$
