AV-unprocessed.smi:1872|AV-procd|sdf|7605|dock5
  -GOLD-   22720 9323D 1   1.00000     0.00000
 Structure written by MMmdl.
 40 42  0  0  0  0  0  0  0  0  2 V2000
  145.6825  137.5074  152.6376 C   0  0  0  0  0  0  0  0  0  0  0  0
  145.4885  136.1182  152.1297 C   0  0  0  0  0  0  0  0  0  0  0  0
  146.4715  135.2709  151.7142 N   0  3  0  0  0  0  0  0  0  0  0  0
  145.9098  134.0602  151.3063 C   0  0  0  0  0  0  0  0  0  0  0  0
  146.5027  132.9036  150.8091 C   0  0  0  0  0  0  0  0  0  0  0  0
  145.6379  131.8373  150.4870 C   0  0  0  0  0  0  0  0  0  0  0  0
  144.2431  131.9443  150.6647 C   0  0  0  0  0  0  0  0  0  0  0  0
  143.6538  133.1219  151.1697 C   0  0  0  0  0  0  0  0  0  0  0  0
  144.5153  134.1735  151.4831 C   0  0  0  0  0  0  0  0  0  0  0  0
  144.3021  135.4608  151.9921 N   0  0  0  0  0  0  0  0  0  0  0  0
  142.9343  135.9131  152.2922 C   0  0  0  0  0  0  0  0  0  0  0  0
  142.5970  135.8516  153.7953 C   0  0  2  0  0  0  0  0  0  0  0  0
  142.4827  134.5055  154.2148 O   0  0  0  0  0  0  0  0  0  0  0  0
  141.3492  136.6606  154.1111 C   0  0  0  0  0  0  0  0  0  0  0  0
  140.1049  136.2783  153.5684 C   0  0  0  0  0  0  0  0  0  0  0  0
  138.9435  137.0165  153.8665 C   0  0  0  0  0  0  0  0  0  0  0  0
  139.0072  138.1480  154.7041 C   0  0  0  0  0  0  0  0  0  0  0  0
  137.8350  138.8189  154.9696 O   0  0  0  0  0  0  0  0  0  0  0  0
  137.1113  139.3289  153.9378 C   0  0  0  0  0  0  0  0  0  0  0  0
  136.0641  140.0399  154.4209 F   0  0  0  0  0  0  0  0  0  0  0  0
  137.8716  140.1721  153.1971 F   0  0  0  0  0  0  0  0  0  0  0  0
  140.2544  138.5223  155.2594 C   0  0  0  0  0  0  0  0  0  0  0  0
  141.4162  137.7842  154.9625 C   0  0  0  0  0  0  0  0  0  0  0  0
  146.7401  137.7717  152.6374 H   0  0  0  0  0  0  0  0  0  0  0  0
  145.3034  137.5931  153.6561 H   0  0  0  0  0  0  0  0  0  0  0  0
  145.1475  138.2166  152.0057 H   0  0  0  0  0  0  0  0  0  0  0  0
  147.5712  132.8190  150.6738 H   0  0  0  0  0  0  0  0  0  0  0  0
  146.0525  130.9186  150.0977 H   0  0  0  0  0  0  0  0  0  0  0  0
  143.6117  131.1056  150.4096 H   0  0  0  0  0  0  0  0  0  0  0  0
  142.5849  133.1888  151.3067 H   0  0  0  0  0  0  0  0  0  0  0  0
  142.8526  136.9415  151.9383 H   0  0  0  0  0  0  0  0  0  0  0  0
  142.2240  135.3351  151.7008 H   0  0  0  0  0  0  0  0  0  0  0  0
  143.4286  136.2791  154.3569 H   0  0  0  0  0  0  0  0  0  0  0  0
  141.5672  134.2703  154.2163 H   0  0  0  0  0  0  0  0  0  0  0  0
  140.0342  135.4149  152.9230 H   0  0  0  0  0  0  0  0  0  0  0  0
  137.9955  136.7128  153.4469 H   0  0  0  0  0  0  0  0  0  0  0  0
  136.7123  138.5421  153.2971 H   0  0  0  0  0  0  0  0  0  0  0  0
  140.3332  139.3710  155.9223 H   0  0  0  0  0  0  0  0  0  0  0  0
  142.3595  138.0817  155.3969 H   0  0  0  0  0  0  0  0  0  0  0  0
  147.4558  135.5060  151.7107 H   0  0  0  0  0  0  0  0  0  0  0  0
  1  2  1  0  0  0  0
  1 24  1  0  0  0  0
  1 25  1  0  0  0  0
  1 26  1  0  0  0  0
  2 10  1  0  0  0  0
  2  3  2  0  0  0  0
  3  4  1  0  0  0  0
  3 40  1  0  0  0  0
  4  9  2  0  0  0  0
  4  5  1  0  0  0  0
  5  6  2  0  0  0  0
  5 27  1  0  0  0  0
  6  7  1  0  0  0  0
  6 28  1  0  0  0  0
  7  8  2  0  0  0  0
  7 29  1  0  0  0  0
  8  9  1  0  0  0  0
  8 30  1  0  0  0  0
  9 10  1  0  0  0  0
 10 11  1  0  0  0  0
 11 12  1  0  0  0  0
 11 31  1  0  0  0  0
 11 32  1  0  0  0  0
 12 13  1  0  0  0  0
 12 14  1  0  0  0  0
 12 33  1  0  0  0  0
 13 34  1  0  0  0  0
 14 23  1  0  0  0  0
 14 15  2  0  0  0  0
 15 16  1  0  0  0  0
 15 35  1  0  0  0  0
 16 17  2  0  0  0  0
 16 36  1  0  0  0  0
 17 18  1  0  0  0  0
 17 22  1  0  0  0  0
 18 19  1  0  0  0  0
 19 20  1  0  0  0  0
 19 21  1  0  0  0  0
 19 37  1  0  0  0  0
 22 23  2  0  0  0  0
 22 38  1  0  0  0  0
 23 39  1  0  0  0  0
M  CHG  1   3   1
M  END
> <s_m_source_file>
AV-unprocessed.smi

> <i_m_source_file_index>
1872

> <i_lp_mmshare_version>
43012

> <i_f3d_flags>
0

> <s_epik_input>
W2NIXTFbY0hdW2NIXVtjSF1jKGMxMiluKGMobjIpW0NIM10pW0NIMl1bQ0BIXShbT0hdKWMzW2NIXVtjSF1jKE9bQ0hdKEYpRilbY0hdW2NIXTM=

> <s_epik_cmdline>
J2VwaWtfcHl0aG9uJywgJy1waCcsICc3LjAnLCAnLXRuJywgJzgnLCAnLW1hJywgJzIwMCcsICctbWV0YWxfYmluZGluZycsICctaW1hZScsICc8aW5maWxlLm1hZT4nLCAnLW9tYWUnLCAnPG91dGZpbGUubWFlPic=

> <r_lp_tautomer_probability>
1

> <r_epik_Ionization_Penalty>
0.963868

> <r_epik_Ionization_Penalty_Charging>
0.963868

> <r_epik_Ionization_Penalty_Neutral>
2.50501e-07

> <r_epik_State_Penalty>
1.00924

> <r_epik_Charging_Adjusted_Penalty>
1.9731

> <i_epik_Tot_Q>
1

> <i_epik_Tot_abs_Q>
1

> <r_epik_Metal_State_Penalty>
4.98304

> <b_epik_Metal_Only>
0

> <s_lp_Force_Field>
OPLS_2005

> <r_lp_Energy>
14.3509

> <b_lp_Chiralities_Consistent>
1

> <s_lp_Variant>
AV-unprocessed.smi:1872-3

> <Gold.Version>
5.8.1

> <Gold.Id.Protein>
6NUR|6NUR_protein|mol2

> <Gold.PLP.Fitness>
46.7190

> <Gold.PLP.PLP>
-41.4155

> <Gold.PLP.part.hbond>
-2.4780

> <Gold.PLP.part.metal>
0.0000

> <Gold.PLP.part.buried>
-7.7954

> <Gold.PLP.part.nonpolar>
-31.8929

> <Gold.PLP.part.repulsive>
0.0597

> <Gold.PLP.ligand.clash>
0.0000

> <Gold.PLP.ligand.torsion>
0.3697

> <Gold.PLP.Chemscore.Hbond>
2.0000

> <Gold.PLP.Chemscore.CHOScore>
0.0000

> <Gold.PLP.Chemscore.Metal>
0.0000

> <Gold.Chemscore.Hbonds>
donor molecule, donor type, donor heavy atom, donor atom, acceptor molecule, acceptor atom, score
      L1  H     3    40       P1  7948  2.00

> <Gold.PLP.Chemscore.Internal.Correction>
0.0429

> <Gold.Rescore>
     Score         DG    S(hbond)    S(metal)    S(lipo)     H(rot)  DE(clash)    DE(int)     intcor
     13.58     -14.26       1.00        0.00      97.32       2.32       0.31       0.37       ----

> <Gold.Chemscore.Fitness>
13.5774

> <Gold.Chemscore.DG>
-14.2588

> <Gold.Chemscore.ZeroCoef>
-5.4800

> <Gold.Chemscore.Hbond>
0.9971

> <Gold.Chemscore.Metal>
0.0000

> <Gold.Chemscore.Lipo>
97.3215

> <Gold.Chemscore.Internal_Hbond>
0.0000

> <Gold.Chemscore.DEClash>
0.3084

> <Gold.Chemscore.DEInternal>
0.3731

> <Gold.Chemscore.Rot>
2.3195

> <Gold.Chemscore.Internal.Correction>
   9.000000E+99

> <Gold.Chemscore.Hbonds>
donor molecule, donor type, donor heavy atom, donor atom, acceptor molecule, acceptor atom, score
      L1  H     3    40       P1  7948  0.98

> <Gold.Chemscore.Hbond.Weighted>
-3.3302

> <Gold.Chemscore.Metal.Weighted>
-0.0000

> <Gold.Chemscore.Lipo.Weighted>
-11.3866

> <Gold.Chemscore.Internal_Hbond.Weighted>
0.0000

> <Gold.Chemscore.DEClash.Weighted>
0.3084

> <Gold.Chemscore.DEInternal.Weighted>
0.3731

> <Gold.Chemscore.Rot.Weighted>
5.9379

> <Gold.Chemscore.Internal.Correction.Weighted>
   9.000000E+99

> <Gold.Protein.RotatedTorsions>
[ 6907 6896 6895 6894 ] final  114.06 input  -60.11 | X-H torsion
[ 7974 7965 7964 7962 ] final   36.68 input  175.53 | X-H torsion
[ 8008 7997 7996 7995 ] final   13.12 input   59.86 | X-H torsion
[ 10167 10162 10161 10158 ] final   94.69 input  -65.29 | X-H torsion
[ 10718 10713 10712 10709 ] final  137.49 input   66.30 | X-H torsion
[ 10763 10752 10751 10750 ] final  127.70 input  -60.55 | X-H torsion
[ 11005 11000 10999 10996 ] final   -2.92 input  -57.11 | X-H torsion

> <Gold.Protein.ActiveResidues>
 VAL166  LYS551  ARG553  GLY616  TRP617  ASP618  TYR619  PRO620  LYS621  CYS622 
 ASP623  PHE694  ASN695  SER759  ASP760  ASP761  ALA762  ILE779  LEU786  VAL792 
 PHE793  MET794  SER795  GLU796  ALA797  LYS798  CYS799  TRP800  GLU811  SER814 

> <Gold.Protein.RotatedAtoms>
  152.4825  133.8289  159.7092 H   0  0  0  0  0  0  0  0  0  0  0  0  # atno 6907 bound_to 6896
  150.8885  133.7266  159.2918 H   0  0  0  0  0  0  0  0  0  0  0  0  # atno 6908 bound_to 6896
  151.4746  135.1052  159.9813 H   0  0  0  0  0  0  0  0  0  0  0  0  # atno 6909 bound_to 6896
  146.1194  139.5988  142.9300 H   0  0  0  0  0  0  0  0  0  0  0  0  # atno 7974 bound_to 7965
  154.8301  140.2898  155.5728 H   0  0  0  0  0  0  0  0  0  0  0  0  # atno 8008 bound_to 7997
  156.3005  140.2533  156.3156 H   0  0  0  0  0  0  0  0  0  0  0  0  # atno 8009 bound_to 7997
  154.9241  140.0385  157.2003 H   0  0  0  0  0  0  0  0  0  0  0  0  # atno 8010 bound_to 7997
  139.8059  144.6794  150.9703 H   0  0  0  0  0  0  0  0  0  0  0  0  # atno 10167 bound_to 10162
  157.4355  131.1052  151.0203 H   0  0  0  0  0  0  0  0  0  0  0  0  # atno 10718 bound_to 10713
  153.7137  135.3264  155.3252 H   0  0  0  0  0  0  0  0  0  0  0  0  # atno 10763 bound_to 10752
  154.8377  135.4483  154.1288 H   0  0  0  0  0  0  0  0  0  0  0  0  # atno 10764 bound_to 10752
  153.2389  135.6968  153.7885 H   0  0  0  0  0  0  0  0  0  0  0  0  # atno 10765 bound_to 10752
  140.6637  133.9297  155.8452 H   0  0  0  0  0  0  0  0  0  0  0  0  # atno 11005 bound_to 11000
  145.5499  141.0414  143.2284 LP  0  0  0  0  0  0  0  0  0  0  0  0  # atno 17320 bound_to 7965
  144.7583  139.7020  143.7245 LP  0  0  0  0  0  0  0  0  0  0  0  0  # atno 17321 bound_to 7965
  140.7819  143.4234  151.0806 LP  0  0  0  0  0  0  0  0  0  0  0  0  # atno 17342 bound_to 10162
  139.7903  143.8228  152.3151 LP  0  0  0  0  0  0  0  0  0  0  0  0  # atno 17343 bound_to 10162
  157.1084  130.6011  149.5476 LP  0  0  0  0  0  0  0  0  0  0  0  0  # atno 17370 bound_to 10713
  155.9929  130.4988  150.7357 LP  0  0  0  0  0  0  0  0  0  0  0  0  # atno 17371 bound_to 10713
  141.0445  134.0573  157.3860 LP  0  0  0  0  0  0  0  0  0  0  0  0  # atno 17394 bound_to 11000
  139.9004  135.0162  156.7242 LP  0  0  0  0  0  0  0  0  0  0  0  0  # atno 17395 bound_to 11000

$$$$
