AV-unprocessed.smi:221|AV-procd|sdf|1700|dock3
  -GOLD-   2262020153D 1   1.00000     0.00000
 Structure written by MMmdl.
 50 53  0  0  0  0  0  0  0  0  1 V2000
  147.2224  137.6498  155.6051 N   0  0  0  0  0  0  0  0  0  0  0  0
  147.2284  138.5948  154.6594 C   0  0  0  0  0  0  0  0  0  0  0  0
  146.8883  138.3483  153.5044 O   0  0  0  0  0  0  0  0  0  0  0  0
  147.6654  140.0226  155.0361 C   0  0  2  0  0  0  0  0  0  0  0  0
  146.5916  141.0610  154.6748 C   0  0  0  0  0  0  0  0  0  0  0  0
  147.3966  142.3461  154.5487 C   0  0  2  0  0  0  0  0  0  0  0  0
  146.7697  143.2773  153.8305 F   0  0  0  0  0  0  0  0  0  0  0  0
  148.6885  141.8667  153.8932 C   0  0  0  0  0  0  0  0  0  0  0  0
  148.8756  140.4894  154.3423 N   0  0  0  0  0  0  0  0  0  0  0  0
  150.0519  140.2506  154.9661 C   0  0  0  0  0  0  0  0  0  0  0  0
  150.9713  139.4266  154.3970 N   0  0  0  0  0  0  0  0  0  0  0  0
  152.1304  139.1907  155.0201 C   0  0  0  0  0  0  0  0  0  0  0  0
  152.5597  139.6627  156.1932 N   0  0  0  0  0  0  0  0  0  0  0  0
  151.6334  140.4847  156.7652 C   0  0  0  0  0  0  0  0  0  0  0  0
  150.3628  140.8260  156.2252 C   0  0  0  0  0  0  0  0  0  0  0  0
  149.6891  141.6801  157.0892 N   0  0  0  0  0  0  0  0  0  0  0  0
  150.5185  141.8392  158.0848 C   0  0  0  0  0  0  0  0  0  0  0  0
  151.7128  141.1633  157.9678 N   0  0  0  0  0  0  0  0  0  0  0  0
  152.8111  141.1601  158.9174 C   0  0  0  0  0  0  0  0  0  0  0  0
  152.5578  142.0293  160.1784 C   0  0  1  0  0  0  0  0  0  0  0  0
  153.2881  141.4791  161.4304 C   0  0  0  0  0  0  0  0  0  0  0  0
  154.6709  141.2997  161.2021 O   0  0  0  0  0  0  0  0  0  0  0  0
  152.9544  143.5041  159.9067 C   0  0  1  0  0  0  0  0  0  0  0  0
  152.4742  144.0622  158.5769 C   0  0  0  0  0  0  0  0  0  0  0  0
  152.5831  145.5654  158.7984 C   0  0  0  0  0  0  0  0  0  0  0  0
  152.2724  145.7666  160.1712 O   0  0  0  0  0  0  0  0  0  0  0  0
  152.3392  144.5277  160.8715 C   0  0  0  0  0  0  0  0  0  0  0  0
  147.8155  140.0459  156.1169 H   0  0  0  0  0  0  0  0  0  0  0  0
  147.6010  142.7640  155.5354 H   0  0  0  0  0  0  0  0  0  0  0  0
  146.9356  136.7099  155.3738 H   0  0  0  0  0  0  0  0  0  0  0  0
  147.5020  137.8798  156.5482 H   0  0  0  0  0  0  0  0  0  0  0  0
  146.1245  140.8219  153.7173 H   0  0  0  0  0  0  0  0  0  0  0  0
  145.8037  141.1336  155.4252 H   0  0  0  0  0  0  0  0  0  0  0  0
  148.5808  141.8488  152.8078 H   0  0  0  0  0  0  0  0  0  0  0  0
  149.5255  142.5279  154.1256 H   0  0  0  0  0  0  0  0  0  0  0  0
  152.8117  138.5298  154.5049 H   0  0  0  0  0  0  0  0  0  0  0  0
  150.2832  142.4639  158.9342 H   0  0  0  0  0  0  0  0  0  0  0  0
  153.0131  140.1285  159.2087 H   0  0  0  0  0  0  0  0  0  0  0  0
  153.6945  141.5059  158.3810 H   0  0  0  0  0  0  0  0  0  0  0  0
  151.4865  142.0200  160.3859 H   0  0  0  0  0  0  0  0  0  0  0  0
  153.1404  142.1384  162.2862 H   0  0  0  0  0  0  0  0  0  0  0  0
  152.9003  140.5033  161.7183 H   0  0  0  0  0  0  0  0  0  0  0  0
  154.7853  140.5876  160.5913 H   0  0  0  0  0  0  0  0  0  0  0  0
  154.0410  143.6000  159.9457 H   0  0  0  0  0  0  0  0  0  0  0  0
  153.0691  143.7282  157.7266 H   0  0  0  0  0  0  0  0  0  0  0  0
  151.4344  143.7843  158.3981 H   0  0  0  0  0  0  0  0  0  0  0  0
  153.6049  145.9028  158.6195 H   0  0  0  0  0  0  0  0  0  0  0  0
  151.9185  146.1350  158.1484 H   0  0  0  0  0  0  0  0  0  0  0  0
  151.3241  144.2395  161.1484 H   0  0  0  0  0  0  0  0  0  0  0  0
  152.9194  144.6377  161.7879 H   0  0  0  0  0  0  0  0  0  0  0  0
  1  2  1  0  0  0  0
  1 30  1  0  0  0  0
  1 31  1  0  0  0  0
  2  3  2  0  0  0  0
  2  4  1  0  0  0  0
  4 28  1  0  0  0  0
  4  9  1  0  0  0  0
  4  5  1  0  0  0  0
  5  6  1  0  0  0  0
  5 32  1  0  0  0  0
  5 33  1  0  0  0  0
  6 29  1  0  0  0  0
  6  7  1  0  0  0  0
  6  8  1  0  0  0  0
  8  9  1  0  0  0  0
  8 34  1  0  0  0  0
  8 35  1  0  0  0  0
  9 10  1  0  0  0  0
 10 15  1  0  0  0  0
 10 11  2  0  0  0  0
 11 12  1  0  0  0  0
 12 13  2  0  0  0  0
 12 36  1  0  0  0  0
 13 14  1  0  0  0  0
 14 18  1  0  0  0  0
 14 15  2  0  0  0  0
 15 16  1  0  0  0  0
 16 17  2  0  0  0  0
 17 18  1  0  0  0  0
 17 37  1  0  0  0  0
 18 19  1  0  0  0  0
 19 20  1  0  0  0  0
 19 38  1  0  0  0  0
 19 39  1  0  0  0  0
 20 21  1  0  0  0  0
 20 23  1  0  0  0  0
 20 40  1  0  0  0  0
 21 22  1  0  0  0  0
 21 41  1  0  0  0  0
 21 42  1  0  0  0  0
 22 43  1  0  0  0  0
 23 27  1  0  0  0  0
 23 24  1  0  0  0  0
 23 44  1  0  0  0  0
 24 25  1  0  0  0  0
 24 45  1  0  0  0  0
 24 46  1  0  0  0  0
 25 26  1  0  0  0  0
 25 47  1  0  0  0  0
 25 48  1  0  0  0  0
 26 27  1  0  0  0  0
 27 49  1  0  0  0  0
 27 50  1  0  0  0  0
M  END
> <s_m_source_file>
AV-unprocessed.smi

> <i_m_source_file_index>
221

> <i_lp_mmshare_version>
43012

> <i_f3d_flags>
0

> <s_epik_input>
W05IMl1DKD1PKVtDQEBIXTFbQ0gyXVtDQEBIXShGKVtDSDJdTjFjKG5bY0hdbjIpYyhjMjMpbltjSF1uM1tDSDJdW0NASF0oW0NIMl1bT0hdKVtDQEBIXTRbQ0gyXVtDSDJdT1tDSDJdNA==

> <s_epik_cmdline>
J2VwaWtfcHl0aG9uJywgJy1waCcsICc3LjAnLCAnLXRuJywgJzgnLCAnLW1hJywgJzIwMCcsICctbWV0YWxfYmluZGluZycsICctaW1hZScsICc8aW5maWxlLm1hZT4nLCAnLW9tYWUnLCAnPG91dGZpbGUubWFlPic=

> <r_lp_tautomer_probability>
1

> <r_epik_Ionization_Penalty>
0.000818822

> <r_epik_Ionization_Penalty_Charging>
0

> <r_epik_Ionization_Penalty_Neutral>
0.000818822

> <r_epik_State_Penalty>
0.000440551

> <r_epik_Charging_Adjusted_Penalty>
0.000440551

> <i_epik_Tot_Q>
0

> <i_epik_Tot_abs_Q>
0

> <r_epik_Metal_State_Penalty>
-0

> <b_epik_Metal_Only>
0

> <s_lp_Force_Field>
OPLS_2005

> <r_lp_Energy>
51.3471

> <b_lp_Chiralities_Consistent>
1

> <s_lp_Variant>
AV-unprocessed.smi:221-15

> <Gold.Version>
5.8.1

> <Gold.Id.Protein>
6NUR|6NUR_protein|mol2

> <Gold.PLP.Fitness>
55.1733

> <Gold.PLP.PLP>
-52.2521

> <Gold.PLP.part.hbond>
-3.0000

> <Gold.PLP.part.metal>
0.0000

> <Gold.PLP.part.buried>
-3.4302

> <Gold.PLP.part.nonpolar>
-44.0527

> <Gold.PLP.part.repulsive>
0.7045

> <Gold.PLP.ligand.clash>
0.0000

> <Gold.PLP.ligand.torsion>
0.6720

> <Gold.PLP.Chemscore.Hbond>
1.3375

> <Gold.PLP.Chemscore.CHOScore>
0.0000

> <Gold.PLP.Chemscore.Metal>
0.0000

> <Gold.Chemscore.Hbonds>
donor molecule, donor type, donor heavy atom, donor atom, acceptor molecule, acceptor atom, score
      P1  H  7989  7998       L1    11  0.29
      P1  H  7997  8009       L1    13  1.00

> <Gold.PLP.Chemscore.Internal.Correction>
0.2528

> <Gold.Rescore>
     Score         DG    S(hbond)    S(metal)    S(lipo)     H(rot)  DE(clash)    DE(int)     intcor
     10.04     -11.39       0.94        0.00     105.10       3.72       0.48       0.87       ----

> <Gold.Chemscore.Fitness>
10.0432

> <Gold.Chemscore.DG>
-11.3874

> <Gold.Chemscore.ZeroCoef>
-5.4800

> <Gold.Chemscore.Hbond>
0.9385

> <Gold.Chemscore.Metal>
0.0000

> <Gold.Chemscore.Lipo>
105.0997

> <Gold.Chemscore.Internal_Hbond>
0.0000

> <Gold.Chemscore.DEClash>
0.4784

> <Gold.Chemscore.DEInternal>
0.8658

> <Gold.Chemscore.Rot>
3.7202

> <Gold.Chemscore.Internal.Correction>
   9.000000E+99

> <Gold.Chemscore.Hbonds>
donor molecule, donor type, donor heavy atom, donor atom, acceptor molecule, acceptor atom, score
      P1  H  7997  8009       L1    13  0.92

> <Gold.Chemscore.Hbond.Weighted>
-3.1345

> <Gold.Chemscore.Metal.Weighted>
-0.0000

> <Gold.Chemscore.Lipo.Weighted>
-12.2967

> <Gold.Chemscore.Internal_Hbond.Weighted>
0.0000

> <Gold.Chemscore.DEClash.Weighted>
0.4784

> <Gold.Chemscore.DEInternal.Weighted>
0.8658

> <Gold.Chemscore.Rot.Weighted>
9.5237

> <Gold.Chemscore.Internal.Correction.Weighted>
   9.000000E+99

> <Gold.Protein.RotatedTorsions>
[ 6907 6896 6895 6894 ] final   20.58 input  -60.11 | X-H torsion
[ 7974 7965 7964 7962 ] final  139.16 input  175.53 | X-H torsion
[ 8008 7997 7996 7995 ] final -173.95 input   59.86 | X-H torsion
[ 10167 10162 10161 10158 ] final   17.27 input  -65.29 | X-H torsion
[ 10718 10713 10712 10709 ] final  169.15 input   66.30 | X-H torsion
[ 10763 10752 10751 10750 ] final   34.07 input  -60.55 | X-H torsion
[ 11005 11000 10999 10996 ] final -176.88 input  -57.11 | X-H torsion

> <Gold.Protein.ActiveResidues>
 VAL166  LYS551  ARG553  GLY616  TRP617  ASP618  TYR619  PRO620  LYS621  CYS622 
 ASP623  PHE694  ASN695  SER759  ASP760  ASP761  ALA762  ILE779  LEU786  VAL792 
 PHE793  MET794  SER795  GLU796  ALA797  LYS798  CYS799  TRP800  GLU811  SER814 

> <Gold.Protein.RotatedAtoms>
  151.8985  135.0388  160.0503 H   0  0  0  0  0  0  0  0  0  0  0  0  # atno 6907 bound_to 6896
  152.2378  133.5105  159.5261 H   0  0  0  0  0  0  0  0  0  0  0  0  # atno 6908 bound_to 6896
  150.7044  134.1047  159.4021 H   0  0  0  0  0  0  0  0  0  0  0  0  # atno 6909 bound_to 6896
  144.9305  139.5053  143.5620 H   0  0  0  0  0  0  0  0  0  0  0  0  # atno 7974 bound_to 7965
  155.9639  140.1150  157.0871 H   0  0  0  0  0  0  0  0  0  0  0  0  # atno 8008 bound_to 7997
  154.4139  140.1176  156.5283 H   0  0  0  0  0  0  0  0  0  0  0  0  # atno 8009 bound_to 7997
  155.6684  140.3473  155.4811 H   0  0  0  0  0  0  0  0  0  0  0  0  # atno 8010 bound_to 7997
  140.5738  143.9112  150.6733 H   0  0  0  0  0  0  0  0  0  0  0  0  # atno 10167 bound_to 10162
  157.0268  131.0248  151.2757 H   0  0  0  0  0  0  0  0  0  0  0  0  # atno 10718 bound_to 10713
  153.0181  135.6370  154.1611 H   0  0  0  0  0  0  0  0  0  0  0  0  # atno 10763 bound_to 10752
  154.1348  135.2838  155.3177 H   0  0  0  0  0  0  0  0  0  0  0  0  # atno 10764 bound_to 10752
  154.6168  135.5538  153.7593 H   0  0  0  0  0  0  0  0  0  0  0  0  # atno 10765 bound_to 10752
  140.4471  134.6377  157.4784 H   0  0  0  0  0  0  0  0  0  0  0  0  # atno 11005 bound_to 11000
  146.3245  139.8251  142.8919 LP  0  0  0  0  0  0  0  0  0  0  0  0  # atno 17320 bound_to 7965
  145.3150  141.0229  143.3533 LP  0  0  0  0  0  0  0  0  0  0  0  0  # atno 17321 bound_to 7965
  140.2594  143.3535  152.1336 LP  0  0  0  0  0  0  0  0  0  0  0  0  # atno 17342 bound_to 10162
  139.5131  144.6928  151.5714 LP  0  0  0  0  0  0  0  0  0  0  0  0  # atno 17343 bound_to 10162
  157.5208  130.7996  149.7806 LP  0  0  0  0  0  0  0  0  0  0  0  0  # atno 17370 bound_to 10713
  156.0083  130.3845  150.2353 LP  0  0  0  0  0  0  0  0  0  0  0  0  # atno 17371 bound_to 10713
  140.0031  134.6806  155.9498 LP  0  0  0  0  0  0  0  0  0  0  0  0  # atno 17394 bound_to 11000
  141.1680  133.6537  156.4549 LP  0  0  0  0  0  0  0  0  0  0  0  0  # atno 17395 bound_to 11000

$$$$
