AV-unprocessed.smi:1752|AV-procd|sdf|7060|dock1
  -GOLD-   22720 8273D 1   1.00000     0.00000
 Structure written by MMmdl.
 43 44  0  0  0  0  0  0  0  0  2 V2000
  151.0906  140.5586  156.9090 C   0  0  0  0  0  0  0  0  0  0  0  0
  150.8496  142.0008  156.4442 C   0  0  2  0  0  0  0  0  0  0  0  0
  150.6395  142.9493  157.6437 C   0  0  0  0  0  0  0  0  0  0  0  0
  151.6469  142.7852  158.6768 N   0  0  0  0  0  0  0  0  0  0  0  0
  152.6389  143.6652  159.0556 C   0  0  0  0  0  0  0  0  0  0  0  0
  153.3436  143.0730  160.0640 C   0  0  0  0  0  0  0  0  0  0  0  0
  152.6953  141.8181  160.2376 C   0  0  0  0  0  0  0  0  0  0  0  0
  151.6779  141.6505  159.4083 N   0  0  0  0  0  0  0  0  0  0  0  0
  149.6893  142.0199  155.5548 N   0  0  0  0  0  0  0  0  0  0  0  0
  149.4376  141.1473  154.5630 C   0  0  0  0  0  0  0  0  0  0  0  0
  150.2035  140.2250  154.2813 O   0  0  0  0  0  0  0  0  0  0  0  0
  148.2773  141.3684  153.8946 N   0  0  0  0  0  0  0  0  0  0  0  0
  147.3783  142.5180  154.0902 C   0  0  0  0  0  0  0  0  0  0  0  0
  146.3395  142.2106  155.1826 C   0  0  0  0  0  0  0  0  0  0  0  0
  145.4916  140.9512  154.9060 C   0  0  0  0  0  0  0  0  0  0  0  0
  146.2909  139.7039  155.0450 N   0  3  1  0  0  0  0  0  0  0  0  0
  145.5306  138.6106  155.6905 C   0  0  0  0  0  0  0  0  0  0  0  0
  146.9503  139.2433  153.7905 C   0  0  0  0  0  0  0  0  0  0  0  0
  147.7119  140.3408  153.0113 C   0  0  0  0  0  0  0  0  0  0  0  0
  151.9742  140.4952  157.5448 H   0  0  0  0  0  0  0  0  0  0  0  0
  151.2495  139.8930  156.0599 H   0  0  0  0  0  0  0  0  0  0  0  0
  150.2426  140.1772  157.4791 H   0  0  0  0  0  0  0  0  0  0  0  0
  151.7416  142.3129  155.8978 H   0  0  0  0  0  0  0  0  0  0  0  0
  150.6400  143.9896  157.3149 H   0  0  0  0  0  0  0  0  0  0  0  0
  149.6639  142.7690  158.0977 H   0  0  0  0  0  0  0  0  0  0  0  0
  152.7617  144.6263  158.5787 H   0  0  0  0  0  0  0  0  0  0  0  0
  154.1920  143.4747  160.5976 H   0  0  0  0  0  0  0  0  0  0  0  0
  152.9308  141.0302  160.9377 H   0  0  0  0  0  0  0  0  0  0  0  0
  149.0168  142.7566  155.7108 H   0  0  0  0  0  0  0  0  0  0  0  0
  147.9238  143.4288  154.3395 H   0  0  0  0  0  0  0  0  0  0  0  0
  146.8650  142.7627  153.1597 H   0  0  0  0  0  0  0  0  0  0  0  0
  146.8350  142.1135  156.1496 H   0  0  0  0  0  0  0  0  0  0  0  0
  145.6736  143.0692  155.2745 H   0  0  0  0  0  0  0  0  0  0  0  0
  144.6809  140.9426  155.6360 H   0  0  0  0  0  0  0  0  0  0  0  0
  145.0113  140.9977  153.9276 H   0  0  0  0  0  0  0  0  0  0  0  0
  144.6685  138.3242  155.0864 H   0  0  0  0  0  0  0  0  0  0  0  0
  145.1746  138.9148  156.6754 H   0  0  0  0  0  0  0  0  0  0  0  0
  146.1603  137.7308  155.8273 H   0  0  0  0  0  0  0  0  0  0  0  0
  147.6544  138.4556  154.0621 H   0  0  0  0  0  0  0  0  0  0  0  0
  146.2133  138.7806  153.1323 H   0  0  0  0  0  0  0  0  0  0  0  0
  147.0297  140.7962  152.2928 H   0  0  0  0  0  0  0  0  0  0  0  0
  148.4913  139.8891  152.3952 H   0  0  0  0  0  0  0  0  0  0  0  0
  147.0362  139.9303  155.6883 H   0  0  0  0  0  0  0  0  0  0  0  0
  1  2  1  0  0  0  0
  1 20  1  0  0  0  0
  1 21  1  0  0  0  0
  1 22  1  0  0  0  0
  2  3  1  0  0  0  0
  2  9  1  0  0  0  0
  2 23  1  0  0  0  0
  3  4  1  0  0  0  0
  3 24  1  0  0  0  0
  3 25  1  0  0  0  0
  4  8  1  0  0  0  0
  4  5  1  0  0  0  0
  5  6  2  0  0  0  0
  5 26  1  0  0  0  0
  6  7  1  0  0  0  0
  6 27  1  0  0  0  0
  7  8  2  0  0  0  0
  7 28  1  0  0  0  0
  9 10  1  0  0  0  0
  9 29  1  0  0  0  0
 10 11  2  0  0  0  0
 10 12  1  0  0  0  0
 12 19  1  0  0  0  0
 12 13  1  0  0  0  0
 13 14  1  0  0  0  0
 13 30  1  0  0  0  0
 13 31  1  0  0  0  0
 14 15  1  0  0  0  0
 14 32  1  0  0  0  0
 14 33  1  0  0  0  0
 15 16  1  0  0  0  0
 15 34  1  0  0  0  0
 15 35  1  0  0  0  0
 16 17  1  0  0  0  0
 16 18  1  0  0  0  0
 16 43  1  0  0  0  0
 17 36  1  0  0  0  0
 17 37  1  0  0  0  0
 17 38  1  0  0  0  0
 18 19  1  0  0  0  0
 18 39  1  0  0  0  0
 18 40  1  0  0  0  0
 19 41  1  0  0  0  0
 19 42  1  0  0  0  0
M  CHG  1  16   1
M  END
> <s_m_source_file>
AV-unprocessed.smi

> <i_m_source_file_index>
1752

> <i_lp_mmshare_version>
43012

> <i_f3d_flags>
0

> <s_epik_input>
bjFbY0hdW2NIXVtjSF1uMVtDSDJdW0NAQEhdKFtDSDNdKVtOSF1DKD1PKU4yW0NIMl1bQ0gyXVtDSDJdTihbQ0gzXSlbQ0gyXVtDSDJdMg==

> <s_epik_cmdline>
J2VwaWtfcHl0aG9uJywgJy1waCcsICc3LjAnLCAnLXRuJywgJzgnLCAnLW1hJywgJzIwMCcsICctbWV0YWxfYmluZGluZycsICctaW1hZScsICc8aW5maWxlLm1hZT4nLCAnLW9tYWUnLCAnPG91dGZpbGUubWFlPic=

> <r_lp_tautomer_probability>
1

> <r_epik_Ionization_Penalty>
0.00208423

> <r_epik_Ionization_Penalty_Charging>
0.00203643

> <r_epik_Ionization_Penalty_Neutral>
4.77939e-05

> <r_epik_State_Penalty>
0.00139278

> <r_epik_Charging_Adjusted_Penalty>
0.00342922

> <i_epik_Tot_Q>
1

> <i_epik_Tot_abs_Q>
1

> <r_epik_Metal_State_Penalty>
-0

> <b_epik_Metal_Only>
0

> <s_lp_Force_Field>
OPLS_2005

> <r_lp_Energy>
39.6128

> <b_lp_Chiralities_Consistent>
1

> <s_lp_Variant>
AV-unprocessed.smi:1752-3

> <Gold.Version>
5.8.1

> <Gold.Id.Protein>
6NUR|6NUR_protein|mol2

> <Gold.PLP.Fitness>
40.7138

> <Gold.PLP.PLP>
-35.4790

> <Gold.PLP.part.hbond>
-2.0000

> <Gold.PLP.part.metal>
0.0000

> <Gold.PLP.part.buried>
0.7111

> <Gold.PLP.part.nonpolar>
-34.1376

> <Gold.PLP.part.repulsive>
0.2551

> <Gold.PLP.ligand.clash>
0.0000

> <Gold.PLP.ligand.torsion>
0.3593

> <Gold.PLP.Chemscore.Hbond>
1.9760

> <Gold.PLP.Chemscore.CHOScore>
0.0000

> <Gold.PLP.Chemscore.Metal>
0.0000

> <Gold.Chemscore.Hbonds>
donor molecule, donor type, donor heavy atom, donor atom, acceptor molecule, acceptor atom, score
      L1  H     9    29       P1  8028  0.82
      P1  H  7989  7998       L1    11  0.99

> <Gold.PLP.Chemscore.Internal.Correction>
0.0253

> <Gold.Rescore>
     Score         DG    S(hbond)    S(metal)    S(lipo)     H(rot)  DE(clash)    DE(int)     intcor
     12.66     -17.09       1.52        0.00      86.87       1.41       1.39       3.04       ----

> <Gold.Chemscore.Fitness>
12.6596

> <Gold.Chemscore.DG>
-17.0903

> <Gold.Chemscore.ZeroCoef>
-5.4800

> <Gold.Chemscore.Hbond>
1.5158

> <Gold.Chemscore.Metal>
0.0000

> <Gold.Chemscore.Lipo>
86.8657

> <Gold.Chemscore.Internal_Hbond>
0.0000

> <Gold.Chemscore.DEClash>
1.3861

> <Gold.Chemscore.DEInternal>
3.0445

> <Gold.Chemscore.Rot>
1.4125

> <Gold.Chemscore.Internal.Correction>
   9.000000E+99

> <Gold.Chemscore.Hbonds>
donor molecule, donor type, donor heavy atom, donor atom, acceptor molecule, acceptor atom, score
      L1  H     9    29       P1  8028  0.80
      P1  H  7989  7998       L1    11  0.66

> <Gold.Chemscore.Hbond.Weighted>
-5.0629

> <Gold.Chemscore.Metal.Weighted>
-0.0000

> <Gold.Chemscore.Lipo.Weighted>
-10.1633

> <Gold.Chemscore.Internal_Hbond.Weighted>
0.0000

> <Gold.Chemscore.DEClash.Weighted>
1.3861

> <Gold.Chemscore.DEInternal.Weighted>
3.0445

> <Gold.Chemscore.Rot.Weighted>
3.6160

> <Gold.Chemscore.Internal.Correction.Weighted>
   9.000000E+99

> <Gold.Protein.RotatedTorsions>
[ 6907 6896 6895 6894 ] final  -93.56 input  -60.11 | X-H torsion
[ 7974 7965 7964 7962 ] final  -93.86 input  175.53 | X-H torsion
[ 8008 7997 7996 7995 ] final  145.04 input   59.86 | X-H torsion
[ 10167 10162 10161 10158 ] final   97.52 input  -65.29 | X-H torsion
[ 10718 10713 10712 10709 ] final  -38.58 input   66.30 | X-H torsion
[ 10763 10752 10751 10750 ] final  149.94 input  -60.55 | X-H torsion
[ 11005 11000 10999 10996 ] final -103.18 input  -57.11 | X-H torsion

> <Gold.Protein.ActiveResidues>
 VAL166  LYS551  ARG553  GLY616  TRP617  ASP618  TYR619  PRO620  LYS621  CYS622 
 ASP623  PHE694  ASN695  SER759  ASP760  ASP761  ALA762  ILE779  LEU786  VAL792 
 PHE793  MET794  SER795  GLU796  ALA797  LYS798  CYS799  TRP800  GLU811  SER814 

> <Gold.Protein.RotatedAtoms>
  150.6925  134.1948  159.4299 H   0  0  0  0  0  0  0  0  0  0  0  0  # atno 6907 bound_to 6896
  151.9917  134.9973  160.0571 H   0  0  0  0  0  0  0  0  0  0  0  0  # atno 6908 bound_to 6896
  152.1661  133.4578  159.4922 H   0  0  0  0  0  0  0  0  0  0  0  0  # atno 6909 bound_to 6896
  145.3810  140.9517  143.2394 H   0  0  0  0  0  0  0  0  0  0  0  0  # atno 7974 bound_to 7965
  156.2893  140.2220  156.5151 H   0  0  0  0  0  0  0  0  0  0  0  0  # atno 8008 bound_to 7997
  154.7576  140.0475  157.0968 H   0  0  0  0  0  0  0  0  0  0  0  0  # atno 8009 bound_to 7997
  155.0031  140.3104  155.4862 H   0  0  0  0  0  0  0  0  0  0  0  0  # atno 8010 bound_to 7997
  139.7793  144.6894  151.0045 H   0  0  0  0  0  0  0  0  0  0  0  0  # atno 10167 bound_to 10162
  156.3022  130.4241  149.8132 H   0  0  0  0  0  0  0  0  0  0  0  0  # atno 10718 bound_to 10713
  154.0793  135.2860  155.3293 H   0  0  0  0  0  0  0  0  0  0  0  0  # atno 10763 bound_to 10752
  154.6694  135.5305  153.8123 H   0  0  0  0  0  0  0  0  0  0  0  0  # atno 10764 bound_to 10752
  153.0455  135.6554  154.0969 H   0  0  0  0  0  0  0  0  0  0  0  0  # atno 10765 bound_to 10752
  141.1157  133.8619  157.1453 H   0  0  0  0  0  0  0  0  0  0  0  0  # atno 11005 bound_to 11000
  144.8508  139.5325  143.6857 LP  0  0  0  0  0  0  0  0  0  0  0  0  # atno 17320 bound_to 7965
  146.2842  139.6959  142.9207 LP  0  0  0  0  0  0  0  0  0  0  0  0  # atno 17321 bound_to 7965
  140.7817  143.4501  151.0425 LP  0  0  0  0  0  0  0  0  0  0  0  0  # atno 17342 bound_to 10162
  139.8182  143.7856  152.3175 LP  0  0  0  0  0  0  0  0  0  0  0  0  # atno 17343 bound_to 10162
  156.5506  130.8340  151.3298 LP  0  0  0  0  0  0  0  0  0  0  0  0  # atno 17370 bound_to 10713
  157.7371  130.9789  150.2172 LP  0  0  0  0  0  0  0  0  0  0  0  0  # atno 17371 bound_to 10713
  140.0078  135.0001  157.0330 LP  0  0  0  0  0  0  0  0  0  0  0  0  # atno 17394 bound_to 11000
  140.4652  134.1443  155.7196 LP  0  0  0  0  0  0  0  0  0  0  0  0  # atno 17395 bound_to 11000

$$$$
