AV-unprocessed.smi:1030|AV-procd|sdf|4478|dock4
  -GOLD-   22720 2453D 1   1.00000     0.00000
 Structure written by MMmdl.
 29 30  0  0  0  0  0  0  0  0  1 V2000
  150.9980  138.9607  159.1439 N   0  0  0  0  0  0  0  0  0  0  0  0
  152.5478  139.5981  158.7500 S   0  0  0  0  0  0  0  0  0  0  0  0
  153.4739  139.1611  159.8061 O   0  0  0  0  0  0  0  0  0  0  0  0
  152.8208  139.2765  157.3406 O   0  0  0  0  0  0  0  0  0  0  0  0
  152.2959  141.3719  158.9120 C   0  0  0  0  0  0  0  0  0  0  0  0
  153.1241  142.1063  159.7864 C   0  0  0  0  0  0  0  0  0  0  0  0
  152.9191  143.4933  159.9083 C   0  0  0  0  0  0  0  0  0  0  0  0
  151.8924  144.0875  159.1500 C   0  0  0  0  0  0  0  0  0  0  0  0
  151.0939  143.3935  158.3116 N   0  0  0  0  0  0  0  0  0  0  0  0
  151.2862  142.0570  158.1890 C   0  0  0  0  0  0  0  0  0  0  0  0
  150.4428  141.3651  157.3067 N   0  0  0  0  0  0  0  0  0  0  0  0
  150.6121  141.7415  155.9098 C   0  0  0  0  0  0  0  0  0  0  0  0
  149.7796  140.8075  155.0150 C   0  0  0  0  0  0  0  0  0  0  0  0
  148.4159  140.8387  155.4288 O   0  0  0  0  0  0  0  0  0  0  0  0
  148.2532  140.4038  156.7764 C   0  0  0  0  0  0  0  0  0  0  0  0
  149.0452  141.3288  157.7160 C   0  0  0  0  0  0  0  0  0  0  0  0
  150.3533  139.7006  159.4205 H   0  0  0  0  0  0  0  0  0  0  0  0
  151.0675  138.2439  159.8658 H   0  0  0  0  0  0  0  0  0  0  0  0
  153.9048  141.6255  160.3565 H   0  0  0  0  0  0  0  0  0  0  0  0
  153.5346  144.0877  160.5670 H   0  0  0  0  0  0  0  0  0  0  0  0
  151.7073  145.1494  159.2184 H   0  0  0  0  0  0  0  0  0  0  0  0
  150.2945  142.7751  155.7652 H   0  0  0  0  0  0  0  0  0  0  0  0
  151.6660  141.6845  155.6346 H   0  0  0  0  0  0  0  0  0  0  0  0
  149.8435  141.1264  153.9747 H   0  0  0  0  0  0  0  0  0  0  0  0
  150.1607  139.7859  155.0603 H   0  0  0  0  0  0  0  0  0  0  0  0
  147.1940  140.4245  157.0323 H   0  0  0  0  0  0  0  0  0  0  0  0
  148.5867  139.3696  156.8781 H   0  0  0  0  0  0  0  0  0  0  0  0
  148.9697  140.9739  158.7445 H   0  0  0  0  0  0  0  0  0  0  0  0
  148.6249  142.3350  157.6879 H   0  0  0  0  0  0  0  0  0  0  0  0
  1  2  1  0  0  0  0
  1 17  1  0  0  0  0
  1 18  1  0  0  0  0
  2  3  2  0  0  0  0
  2  4  2  0  0  0  0
  2  5  1  0  0  0  0
  5 10  1  0  0  0  0
  5  6  2  0  0  0  0
  6  7  1  0  0  0  0
  6 19  1  0  0  0  0
  7  8  2  0  0  0  0
  7 20  1  0  0  0  0
  8  9  1  0  0  0  0
  8 21  1  0  0  0  0
  9 10  2  0  0  0  0
 10 11  1  0  0  0  0
 11 16  1  0  0  0  0
 11 12  1  0  0  0  0
 12 13  1  0  0  0  0
 12 22  1  0  0  0  0
 12 23  1  0  0  0  0
 13 14  1  0  0  0  0
 13 24  1  0  0  0  0
 13 25  1  0  0  0  0
 14 15  1  0  0  0  0
 15 16  1  0  0  0  0
 15 26  1  0  0  0  0
 15 27  1  0  0  0  0
 16 28  1  0  0  0  0
 16 29  1  0  0  0  0
M  END
> <s_m_source_file>
AV-unprocessed.smi

> <i_m_source_file_index>
1030

> <i_lp_mmshare_version>
43012

> <i_f3d_flags>
0

> <s_epik_input>
W05IMl1TKD1PKSg9TyljMVtjSF1bY0hdW2NIXW5jMU4yW0NIMl1bQ0gyXU9bQ0gyXVtDSDJdMg==

> <s_epik_cmdline>
J2VwaWtfcHl0aG9uJywgJy1waCcsICc3LjAnLCAnLXRuJywgJzgnLCAnLW1hJywgJzIwMCcsICctbWV0YWxfYmluZGluZycsICctaW1hZScsICc8aW5maWxlLm1hZT4nLCAnLW9tYWUnLCAnPG91dGZpbGUubWFlPic=

> <r_lp_tautomer_probability>
1

> <r_epik_Ionization_Penalty>
0.00223263

> <r_epik_Ionization_Penalty_Charging>
0

> <r_epik_Ionization_Penalty_Neutral>
0.00223263

> <r_epik_State_Penalty>
-0

> <r_epik_Charging_Adjusted_Penalty>
0

> <i_epik_Tot_Q>
0

> <i_epik_Tot_abs_Q>
0

> <r_epik_Metal_State_Penalty>
0.346078

> <b_epik_Metal_Only>
0

> <s_lp_Force_Field>
OPLS_2005

> <r_lp_Energy>
28.1978

> <b_lp_Chiralities_Consistent>
1

> <s_lp_Variant>
AV-unprocessed.smi:1030-1

> <Gold.Version>
5.8.1

> <Gold.Id.Protein>
6NUR|6NUR_protein|mol2

> <Gold.PLP.Fitness>
30.4721

> <Gold.PLP.PLP>
-27.6588

> <Gold.PLP.part.hbond>
-1.4621

> <Gold.PLP.part.metal>
0.0000

> <Gold.PLP.part.buried>
-4.3207

> <Gold.PLP.part.nonpolar>
-21.5686

> <Gold.PLP.part.repulsive>
0.2397

> <Gold.PLP.ligand.clash>
0.0000

> <Gold.PLP.ligand.torsion>
1.1525

> <Gold.PLP.Chemscore.Hbond>
1.0000

> <Gold.PLP.Chemscore.CHOScore>
0.0000

> <Gold.PLP.Chemscore.Metal>
0.0000

> <Gold.Chemscore.Hbonds>
donor molecule, donor type, donor heavy atom, donor atom, acceptor molecule, acceptor atom, score
      P1  H  7997  8008       L1     4  1.00

> <Gold.PLP.Chemscore.Internal.Correction>
2.1183

> <Gold.Rescore>
     Score         DG    S(hbond)    S(metal)    S(lipo)     H(rot)  DE(clash)    DE(int)     intcor
     12.41     -13.60       0.98        0.00      63.36       1.00       0.05       1.14       ----

> <Gold.Chemscore.Fitness>
12.4066

> <Gold.Chemscore.DG>
-13.5972

> <Gold.Chemscore.ZeroCoef>
-5.4800

> <Gold.Chemscore.Hbond>
0.9774

> <Gold.Chemscore.Metal>
0.0000

> <Gold.Chemscore.Lipo>
63.3576

> <Gold.Chemscore.Internal_Hbond>
0.0000

> <Gold.Chemscore.DEClash>
0.0469

> <Gold.Chemscore.DEInternal>
1.1437

> <Gold.Chemscore.Rot>
1.0000

> <Gold.Chemscore.Internal.Correction>
   9.000000E+99

> <Gold.Chemscore.Hbonds>
donor molecule, donor type, donor heavy atom, donor atom, acceptor molecule, acceptor atom, score
      P1  H  7997  8008       L1     4  0.65

> <Gold.Chemscore.Hbond.Weighted>
-3.2644

> <Gold.Chemscore.Metal.Weighted>
-0.0000

> <Gold.Chemscore.Lipo.Weighted>
-7.4128

> <Gold.Chemscore.Internal_Hbond.Weighted>
0.0000

> <Gold.Chemscore.DEClash.Weighted>
0.0469

> <Gold.Chemscore.DEInternal.Weighted>
1.1437

> <Gold.Chemscore.Rot.Weighted>
2.5600

> <Gold.Chemscore.Internal.Correction.Weighted>
   9.000000E+99

> <Gold.Protein.RotatedTorsions>
[ 6907 6896 6895 6894 ] final  -15.94 input  -60.11 | X-H torsion
[ 7974 7965 7964 7962 ] final   69.56 input  175.53 | X-H torsion
[ 8008 7997 7996 7995 ] final  -75.73 input   59.86 | X-H torsion
[ 10167 10162 10161 10158 ] final   -2.84 input  -65.29 | X-H torsion
[ 10718 10713 10712 10709 ] final -145.21 input   66.30 | X-H torsion
[ 10763 10752 10751 10750 ] final   49.07 input  -60.55 | X-H torsion
[ 11005 11000 10999 10996 ] final   86.05 input  -57.11 | X-H torsion

> <Gold.Protein.ActiveResidues>
 VAL166  LYS551  ARG553  GLY616  TRP617  ASP618  TYR619  PRO620  LYS621  CYS622 
 ASP623  PHE694  ASN695  SER759  ASP760  ASP761  ALA762  ILE779  LEU786  VAL792 
 PHE793  MET794  SER795  GLU796  ALA797  LYS798  CYS799  TRP800  GLU811  SER814 

> <Gold.Protein.RotatedAtoms>
  151.3162  135.0807  159.9289 H   0  0  0  0  0  0  0  0  0  0  0  0  # atno 6907 bound_to 6896
  152.5267  133.9685  159.7761 H   0  0  0  0  0  0  0  0  0  0  0  0  # atno 6908 bound_to 6896
  150.9998  133.6015  159.2727 H   0  0  0  0  0  0  0  0  0  0  0  0  # atno 6909 bound_to 6896
  145.7889  139.2924  143.1222 H   0  0  0  0  0  0  0  0  0  0  0  0  # atno 7974 bound_to 7965
  154.5442  140.0739  156.8561 H   0  0  0  0  0  0  0  0  0  0  0  0  # atno 8008 bound_to 7997
  155.3120  140.3391  155.4225 H   0  0  0  0  0  0  0  0  0  0  0  0  # atno 8009 bound_to 7997
  156.1903  140.1683  156.8092 H   0  0  0  0  0  0  0  0  0  0  0  0  # atno 8010 bound_to 7997
  140.6867  143.6609  150.8267 H   0  0  0  0  0  0  0  0  0  0  0  0  # atno 10167 bound_to 10162
  156.3796  130.7830  151.2021 H   0  0  0  0  0  0  0  0  0  0  0  0  # atno 10718 bound_to 10713
  152.9788  135.5923  154.4029 H   0  0  0  0  0  0  0  0  0  0  0  0  # atno 10763 bound_to 10752
  154.3673  135.2767  155.2288 H   0  0  0  0  0  0  0  0  0  0  0  0  # atno 10764 bound_to 10752
  154.4259  135.6048  153.6093 H   0  0  0  0  0  0  0  0  0  0  0  0  # atno 10765 bound_to 10752
  139.8955  134.8329  156.2667 H   0  0  0  0  0  0  0  0  0  0  0  0  # atno 11005 bound_to 11000
  145.9997  140.8531  143.0025 LP  0  0  0  0  0  0  0  0  0  0  0  0  # atno 17320 bound_to 7965
  144.6785  140.2334  143.7352 LP  0  0  0  0  0  0  0  0  0  0  0  0  # atno 17321 bound_to 7965
  140.0317  143.5437  152.2757 LP  0  0  0  0  0  0  0  0  0  0  0  0  # atno 17342 bound_to 10162
  139.6232  144.7632  151.2696 LP  0  0  0  0  0  0  0  0  0  0  0  0  # atno 17343 bound_to 10162
  157.7491  131.0348  150.4334 LP  0  0  0  0  0  0  0  0  0  0  0  0  # atno 17370 bound_to 10713
  156.4575  130.4025  149.6597 LP  0  0  0  0  0  0  0  0  0  0  0  0  # atno 17371 bound_to 10713
  141.0127  133.7086  156.1138 LP  0  0  0  0  0  0  0  0  0  0  0  0  # atno 17394 bound_to 11000
  140.7344  134.4219  157.5562 LP  0  0  0  0  0  0  0  0  0  0  0  0  # atno 17395 bound_to 11000

$$$$
