AV-unprocessed.smi:3110|AV-procd|sdf|11830|dock1
  -GOLD-   2272017203D 1   1.00000     0.00000
 Structure written by MMmdl.
 33 34  0  0  0  0  0  0  0  0  1 V2000
  150.5153  141.6686  158.8310 O   0  0  0  0  0  0  0  0  0  0  0  0
  150.3803  142.6762  158.1372 C   0  0  0  0  0  0  0  0  0  0  0  0
  151.6069  143.4847  157.7061 C   0  0  0  0  0  0  0  0  0  0  0  0
  152.5189  143.8562  158.8940 C   0  0  2  0  0  0  0  0  0  0  0  0
  152.9492  142.6491  159.6873 C   0  0  0  0  0  0  0  0  0  0  0  0
  152.7759  142.8056  160.9980 C   0  0  0  0  0  0  0  0  0  0  0  0
  152.1933  144.1474  161.3436 C   0  0  0  0  0  0  0  0  0  0  0  0
  151.8669  144.7685  159.9681 C   0  0  0  0  0  0  0  0  0  0  0  0
  149.1879  143.1343  157.7250 N   0  0  0  0  0  0  0  0  0  0  0  0
  147.8941  142.5663  158.0927 C   0  0  0  0  0  0  0  0  0  0  0  0
  147.6890  141.1660  157.4848 C   0  0  0  0  0  0  0  0  0  0  0  0
  147.6201  141.1890  156.0351 N   0  0  0  0  0  0  0  0  0  0  0  0
  148.6722  141.3800  155.1484 C   0  0  0  0  0  0  0  0  0  0  0  0
  148.1326  141.3349  153.8828 C   0  0  0  0  0  0  0  0  0  0  0  0
  146.7603  141.1113  153.9661 N   0  0  0  0  0  0  0  0  0  0  0  0
  146.5303  141.0349  155.2706 C   0  0  0  0  0  0  0  0  0  0  0  0
  152.1657  142.9060  156.9692 H   0  0  0  0  0  0  0  0  0  0  0  0
  151.2790  144.3915  157.1952 H   0  0  0  0  0  0  0  0  0  0  0  0
  153.4294  144.3273  158.5198 H   0  0  0  0  0  0  0  0  0  0  0  0
  153.3689  141.7717  159.2177 H   0  0  0  0  0  0  0  0  0  0  0  0
  153.0323  142.0767  161.7525 H   0  0  0  0  0  0  0  0  0  0  0  0
  151.3028  144.0396  161.9634 H   0  0  0  0  0  0  0  0  0  0  0  0
  152.9304  144.7380  161.8883 H   0  0  0  0  0  0  0  0  0  0  0  0
  152.2193  145.7978  159.8924 H   0  0  0  0  0  0  0  0  0  0  0  0
  150.7835  144.7919  159.8440 H   0  0  0  0  0  0  0  0  0  0  0  0
  149.1738  143.9634  157.1489 H   0  0  0  0  0  0  0  0  0  0  0  0
  147.8658  142.4925  159.1800 H   0  0  0  0  0  0  0  0  0  0  0  0
  147.0750  143.2317  157.8141 H   0  0  0  0  0  0  0  0  0  0  0  0
  148.4933  140.4951  157.7891 H   0  0  0  0  0  0  0  0  0  0  0  0
  146.7616  140.7322  157.8604 H   0  0  0  0  0  0  0  0  0  0  0  0
  149.6874  141.5368  155.4818 H   0  0  0  0  0  0  0  0  0  0  0  0
  148.6227  141.4458  152.9269 H   0  0  0  0  0  0  0  0  0  0  0  0
  145.5448  140.8680  155.6805 H   0  0  0  0  0  0  0  0  0  0  0  0
  1  2  2  0  0  0  0
  2  3  1  0  0  0  0
  2  9  1  0  0  0  0
  3  4  1  0  0  0  0
  3 17  1  0  0  0  0
  3 18  1  0  0  0  0
  4  8  1  0  0  0  0
  4  5  1  0  0  0  0
  4 19  1  0  0  0  0
  5  6  2  0  0  0  0
  5 20  1  0  0  0  0
  6  7  1  0  0  0  0
  6 21  1  0  0  0  0
  7  8  1  0  0  0  0
  7 22  1  0  0  0  0
  7 23  1  0  0  0  0
  8 24  1  0  0  0  0
  8 25  1  0  0  0  0
  9 10  1  0  0  0  0
  9 26  1  0  0  0  0
 10 11  1  0  0  0  0
 10 27  1  0  0  0  0
 10 28  1  0  0  0  0
 11 12  1  0  0  0  0
 11 29  1  0  0  0  0
 11 30  1  0  0  0  0
 12 16  1  0  0  0  0
 12 13  1  0  0  0  0
 13 14  2  0  0  0  0
 13 31  1  0  0  0  0
 14 15  1  0  0  0  0
 14 32  1  0  0  0  0
 15 16  2  0  0  0  0
 16 33  1  0  0  0  0
M  END
> <s_m_source_file>
AV-unprocessed.smi

> <i_m_source_file_index>
3110

> <i_lp_mmshare_version>
43012

> <i_f3d_flags>
0

> <s_epik_input>
W0NIMl0xW0NIMl1bQ0hdPVtDSF1bQ0BIXTFbQ0gyXUMoPU8pW05IXVtDSDJdW0NIMl1uMltjSF1bY0hdbltjSF0y

> <s_epik_cmdline>
J2VwaWtfcHl0aG9uJywgJy1waCcsICc3LjAnLCAnLXRuJywgJzgnLCAnLW1hJywgJzIwMCcsICctbWV0YWxfYmluZGluZycsICctaW1hZScsICc8aW5maWxlLm1hZT4nLCAnLW9tYWUnLCAnPG91dGZpbGUubWFlPic=

> <r_lp_tautomer_probability>
1

> <r_epik_Ionization_Penalty>
0.593629

> <r_epik_Ionization_Penalty_Charging>
0.593629

> <r_epik_Ionization_Penalty_Neutral>
1.57355e-08

> <r_epik_State_Penalty>
0.607413

> <r_epik_Charging_Adjusted_Penalty>
1.20104

> <i_epik_Tot_Q>
0

> <i_epik_Tot_abs_Q>
0

> <r_epik_Metal_State_Penalty>
0.299385

> <b_epik_Metal_Only>
0

> <s_lp_Force_Field>
OPLS_2005

> <r_lp_Energy>
17.6057

> <b_lp_Chiralities_Consistent>
1

> <s_lp_Variant>
AV-unprocessed.smi:3110-3

> <Gold.Version>
5.8.1

> <Gold.Id.Protein>
6NUR|6NUR_protein|mol2

> <Gold.PLP.Fitness>
42.6861

> <Gold.PLP.PLP>
-37.1599

> <Gold.PLP.part.hbond>
-1.9772

> <Gold.PLP.part.metal>
0.0000

> <Gold.PLP.part.buried>
-3.7805

> <Gold.PLP.part.nonpolar>
-31.2279

> <Gold.PLP.part.repulsive>
0.2242

> <Gold.PLP.ligand.clash>
0.0000

> <Gold.PLP.ligand.torsion>
0.2708

> <Gold.PLP.Chemscore.Hbond>
1.0000

> <Gold.PLP.Chemscore.CHOScore>
1.0000

> <Gold.PLP.Chemscore.Metal>
0.0000

> <Gold.Chemscore.Hbonds>
donor molecule, donor type, donor heavy atom, donor atom, acceptor molecule, acceptor atom, score
      L1  H     9    26       P1  8028  1.00
      L1  C    14    32       P1  7957  1.00

> <Gold.PLP.Chemscore.Internal.Correction>
0.0679

> <Gold.Rescore>
     Score         DG    S(hbond)    S(metal)    S(lipo)     H(rot)  DE(clash)    DE(int)     intcor
     12.33     -13.65       0.79        0.00      91.41       2.01       0.02       1.31       ----

> <Gold.Chemscore.Fitness>
12.3259

> <Gold.Chemscore.DG>
-13.6527

> <Gold.Chemscore.ZeroCoef>
-5.4800

> <Gold.Chemscore.Hbond>
0.7861

> <Gold.Chemscore.Metal>
0.0000

> <Gold.Chemscore.Lipo>
91.4092

> <Gold.Chemscore.Internal_Hbond>
0.0000

> <Gold.Chemscore.DEClash>
0.0210

> <Gold.Chemscore.DEInternal>
1.3058

> <Gold.Chemscore.Rot>
2.0108

> <Gold.Chemscore.Internal.Correction>
   9.000000E+99

> <Gold.Chemscore.Hbonds>
donor molecule, donor type, donor heavy atom, donor atom, acceptor molecule, acceptor atom, score
      L1  H     9    26       P1  8028  0.25

> <Gold.Chemscore.Hbond.Weighted>
-2.6256

> <Gold.Chemscore.Metal.Weighted>
-0.0000

> <Gold.Chemscore.Lipo.Weighted>
-10.6949

> <Gold.Chemscore.Internal_Hbond.Weighted>
0.0000

> <Gold.Chemscore.DEClash.Weighted>
0.0210

> <Gold.Chemscore.DEInternal.Weighted>
1.3058

> <Gold.Chemscore.Rot.Weighted>
5.1477

> <Gold.Chemscore.Internal.Correction.Weighted>
   9.000000E+99

> <Gold.Protein.RotatedTorsions>
[ 6907 6896 6895 6894 ] final  107.72 input  -60.11 | X-H torsion
[ 7974 7965 7964 7962 ] final  -74.88 input  175.53 | X-H torsion
[ 8008 7997 7996 7995 ] final  -52.73 input   59.86 | X-H torsion
[ 10167 10162 10161 10158 ] final  108.72 input  -65.29 | X-H torsion
[ 10718 10713 10712 10709 ] final -138.52 input   66.30 | X-H torsion
[ 10763 10752 10751 10750 ] final  -61.70 input  -60.55 | X-H torsion
[ 11005 11000 10999 10996 ] final   61.39 input  -57.11 | X-H torsion

> <Gold.Protein.ActiveResidues>
 VAL166  LYS551  ARG553  GLY616  TRP617  ASP618  TYR619  PRO620  LYS621  CYS622 
 ASP623  PHE694  ASN695  SER759  ASP760  ASP761  ALA762  ILE779  LEU786  VAL792 
 PHE793  MET794  SER795  GLU796  ALA797  LYS798  CYS799  TRP800  GLU811  SER814 

> <Gold.Protein.RotatedAtoms>
  152.5143  133.9194  159.7526 H   0  0  0  0  0  0  0  0  0  0  0  0  # atno 6907 bound_to 6896
  150.9569  133.6479  159.2768 H   0  0  0  0  0  0  0  0  0  0  0  0  # atno 6908 bound_to 6896
  151.3738  135.0932  159.9527 H   0  0  0  0  0  0  0  0  0  0  0  0  # atno 6909 bound_to 6896
  145.6333  140.9331  143.1075 H   0  0  0  0  0  0  0  0  0  0  0  0  # atno 7974 bound_to 7965
  154.4114  140.1217  156.5039 H   0  0  0  0  0  0  0  0  0  0  0  0  # atno 8008 bound_to 7997
  155.6867  140.3495  155.4858 H   0  0  0  0  0  0  0  0  0  0  0  0  # atno 8009 bound_to 7997
  155.9504  140.1104  157.0971 H   0  0  0  0  0  0  0  0  0  0  0  0  # atno 8010 bound_to 7997
  139.6824  144.7117  151.1492 H   0  0  0  0  0  0  0  0  0  0  0  0  # atno 10167 bound_to 10162
  156.3003  130.7425  151.1475 H   0  0  0  0  0  0  0  0  0  0  0  0  # atno 10718 bound_to 10713
  154.2886  135.6258  153.5376 H   0  0  0  0  0  0  0  0  0  0  0  0  # atno 10763 bound_to 10752
  152.9855  135.5650  154.5415 H   0  0  0  0  0  0  0  0  0  0  0  0  # atno 10764 bound_to 10752
  154.5021  135.2872  155.1388 H   0  0  0  0  0  0  0  0  0  0  0  0  # atno 10765 bound_to 10752
  140.0164  134.6218  155.9703 H   0  0  0  0  0  0  0  0  0  0  0  0  # atno 11005 bound_to 11000
  144.7185  139.8112  143.7390 LP  0  0  0  0  0  0  0  0  0  0  0  0  # atno 17320 bound_to 7965
  146.1339  139.4380  143.0151 LP  0  0  0  0  0  0  0  0  0  0  0  0  # atno 17321 bound_to 7965
  140.7656  143.5680  150.9027 LP  0  0  0  0  0  0  0  0  0  0  0  0  # atno 17342 bound_to 10162
  139.9352  143.6446  152.3067 LP  0  0  0  0  0  0  0  0  0  0  0  0  # atno 17343 bound_to 10162
  157.7366  131.0560  150.5403 LP  0  0  0  0  0  0  0  0  0  0  0  0  # atno 17370 bound_to 10713
  156.5530  130.4236  149.6098 LP  0  0  0  0  0  0  0  0  0  0  0  0  # atno 17371 bound_to 10713
  141.1745  133.6539  156.4778 LP  0  0  0  0  0  0  0  0  0  0  0  0  # atno 17394 bound_to 11000
  140.4463  134.6969  157.5017 LP  0  0  0  0  0  0  0  0  0  0  0  0  # atno 17395 bound_to 11000

$$$$
