AV-unprocessed.smi:1672|AV-procd|sdf|6701|dock5
  -GOLD-   22720 7433D 1   1.00000     0.00000
 Structure written by MMmdl.
 48 50  0  0  0  0  0  0  0  0  2 V2000
  144.3478  144.8195  156.0862 C   0  0  0  0  0  0  0  0  0  0  0  0
  145.1503  143.5617  155.7248 C   0  0  2  0  0  0  0  0  0  0  0  0
  146.2959  143.3129  156.7201 C   0  0  0  0  0  0  0  0  0  0  0  0
  147.1091  142.0672  156.3331 C   0  0  0  0  0  0  0  0  0  0  0  0
  147.6448  142.1842  154.9505 N   0  3  1  0  0  0  0  0  0  0  0  0
  148.5451  141.0634  154.5784 C   0  0  0  0  0  0  0  0  0  0  0  0
  149.8742  141.0986  155.3652 C   0  0  2  0  0  0  0  0  0  0  0  0
  150.8126  140.2700  154.7097 O   0  0  0  0  0  0  0  0  0  0  0  0
  149.7550  140.6120  156.8240 C   0  0  0  0  0  0  0  0  0  0  0  0
  151.0162  140.6616  157.5530 N   0  0  0  0  0  0  0  0  0  0  0  0
  152.0046  139.7310  157.5974 C   0  0  0  0  0  0  0  0  0  0  0  0
  151.9391  138.4381  156.8426 C   0  0  0  0  0  0  0  0  0  0  0  0
  153.0047  138.2905  155.9287 O   0  0  0  0  0  0  0  0  0  0  0  0
  153.0596  140.0423  158.3505 N   0  0  0  0  0  0  0  0  0  0  0  0
  152.7260  141.2867  158.8459 C   0  0  0  0  0  0  0  0  0  0  0  0
  153.4358  142.1508  159.7097 C   0  0  0  0  0  0  0  0  0  0  0  0
  152.8880  143.3956  160.0821 C   0  0  0  0  0  0  0  0  0  0  0  0
  151.6260  143.7938  159.5962 C   0  0  0  0  0  0  0  0  0  0  0  0
  150.9021  142.9478  158.7340 C   0  0  0  0  0  0  0  0  0  0  0  0
  151.4523  141.7045  158.3666 C   0  0  0  0  0  0  0  0  0  0  0  0
  146.5561  142.3905  153.9616 C   0  0  0  0  0  0  0  0  0  0  0  0
  145.7263  143.6408  154.3007 C   0  0  0  0  0  0  0  0  0  0  0  0
  144.9716  145.7131  156.0502 H   0  0  0  0  0  0  0  0  0  0  0  0
  143.9314  144.7443  157.0913 H   0  0  0  0  0  0  0  0  0  0  0  0
  143.5163  144.9660  155.3962 H   0  0  0  0  0  0  0  0  0  0  0  0
  144.4699  142.7099  155.7700 H   0  0  0  0  0  0  0  0  0  0  0  0
  146.9546  144.1822  156.7543 H   0  0  0  0  0  0  0  0  0  0  0  0
  145.8955  143.1898  157.7271 H   0  0  0  0  0  0  0  0  0  0  0  0
  147.9212  141.9399  157.0477 H   0  0  0  0  0  0  0  0  0  0  0  0
  146.4841  141.1757  156.4081 H   0  0  0  0  0  0  0  0  0  0  0  0
  148.0103  140.1267  154.7395 H   0  0  0  0  0  0  0  0  0  0  0  0
  148.7734  141.0983  153.5119 H   0  0  0  0  0  0  0  0  0  0  0  0
  150.2816  142.1072  155.3699 H   0  0  0  0  0  0  0  0  0  0  0  0
  150.4101  139.4318  154.5392 H   0  0  0  0  0  0  0  0  0  0  0  0
  149.0278  141.2239  157.3586 H   0  0  0  0  0  0  0  0  0  0  0  0
  149.3659  139.5941  156.8604 H   0  0  0  0  0  0  0  0  0  0  0  0
  151.9766  137.6118  157.5533 H   0  0  0  0  0  0  0  0  0  0  0  0
  150.9916  138.3471  156.3132 H   0  0  0  0  0  0  0  0  0  0  0  0
  152.7607  138.7072  155.1161 H   0  0  0  0  0  0  0  0  0  0  0  0
  154.4036  141.8552  160.0870 H   0  0  0  0  0  0  0  0  0  0  0  0
  153.4391  144.0477  160.7441 H   0  0  0  0  0  0  0  0  0  0  0  0
  151.2137  144.7491  159.8871 H   0  0  0  0  0  0  0  0  0  0  0  0
  149.9356  143.2543  158.3628 H   0  0  0  0  0  0  0  0  0  0  0  0
  146.9822  142.5062  152.9642 H   0  0  0  0  0  0  0  0  0  0  0  0
  145.9157  141.5076  153.9336 H   0  0  0  0  0  0  0  0  0  0  0  0
  144.9184  143.7521  153.5765 H   0  0  0  0  0  0  0  0  0  0  0  0
  146.3515  144.5296  154.2036 H   0  0  0  0  0  0  0  0  0  0  0  0
  148.2117  143.0201  154.9221 H   0  0  0  0  0  0  0  0  0  0  0  0
  1  2  1  0  0  0  0
  1 23  1  0  0  0  0
  1 24  1  0  0  0  0
  1 25  1  0  0  0  0
  2 22  1  0  0  0  0
  2  3  1  0  0  0  0
  2 26  1  0  0  0  0
  3  4  1  0  0  0  0
  3 27  1  0  0  0  0
  3 28  1  0  0  0  0
  4  5  1  0  0  0  0
  4 29  1  0  0  0  0
  4 30  1  0  0  0  0
  5  6  1  0  0  0  0
  5 21  1  0  0  0  0
  5 48  1  0  0  0  0
  6  7  1  0  0  0  0
  6 31  1  0  0  0  0
  6 32  1  0  0  0  0
  7  8  1  0  0  0  0
  7  9  1  0  0  0  0
  7 33  1  0  0  0  0
  8 34  1  0  0  0  0
  9 10  1  0  0  0  0
  9 35  1  0  0  0  0
  9 36  1  0  0  0  0
 10 20  1  0  0  0  0
 10 11  1  0  0  0  0
 11 12  1  0  0  0  0
 11 14  2  0  0  0  0
 12 13  1  0  0  0  0
 12 37  1  0  0  0  0
 12 38  1  0  0  0  0
 13 39  1  0  0  0  0
 14 15  1  0  0  0  0
 15 20  2  0  0  0  0
 15 16  1  0  0  0  0
 16 17  2  0  0  0  0
 16 40  1  0  0  0  0
 17 18  1  0  0  0  0
 17 41  1  0  0  0  0
 18 19  2  0  0  0  0
 18 42  1  0  0  0  0
 19 20  1  0  0  0  0
 19 43  1  0  0  0  0
 21 22  1  0  0  0  0
 21 44  1  0  0  0  0
 21 45  1  0  0  0  0
 22 46  1  0  0  0  0
 22 47  1  0  0  0  0
M  CHG  1   5   1
M  END
> <s_m_source_file>
AV-unprocessed.smi

> <i_m_source_file_index>
1672

> <i_lp_mmshare_version>
43012

> <i_f3d_flags>
0

> <s_epik_input>
W0NIM11bQ0hdMVtDSDJdW0NIMl1OKFtDSDJdW0NIMl0xKVtDSDJdW0NASF0oW09IXSlbQ0gyXW4oYyhuMilbQ0gyXVtPSF0pYyhjMjMpW2NIXVtjSF1bY0hdW2NIXTM=

> <s_epik_cmdline>
J2VwaWtfcHl0aG9uJywgJy1waCcsICc3LjAnLCAnLXRuJywgJzgnLCAnLW1hJywgJzIwMCcsICctbWV0YWxfYmluZGluZycsICctaW1hZScsICc8aW5maWxlLm1hZT4nLCAnLW9tYWUnLCAnPG91dGZpbGUubWFlPic=

> <r_epik_Ionization_Penalty>
0.0498263

> <r_epik_Ionization_Penalty_Charging>
0.00181365

> <r_epik_Ionization_Penalty_Neutral>
0.0480127

> <r_epik_State_Penalty>
0.0408546

> <r_epik_Charging_Adjusted_Penalty>
0.0426682

> <i_epik_Tot_Q>
1

> <i_epik_Tot_abs_Q>
1

> <r_epik_Metal_State_Penalty>
4.22946e-05

> <b_epik_Metal_Only>
0

> <s_lp_Force_Field>
OPLS_2005

> <r_lp_Energy>
22.4872

> <b_lp_Chiralities_Consistent>
1

> <s_lp_Variant>
AV-unprocessed.smi:1672-1

> <Gold.Version>
5.8.1

> <Gold.Id.Protein>
6NUR|6NUR_protein|mol2

> <Gold.PLP.Fitness>
53.1715

> <Gold.PLP.PLP>
-42.3269

> <Gold.PLP.part.hbond>
-3.8403

> <Gold.PLP.part.metal>
0.0000

> <Gold.PLP.part.buried>
-6.8512

> <Gold.PLP.part.nonpolar>
-32.4194

> <Gold.PLP.part.repulsive>
0.1020

> <Gold.PLP.ligand.clash>
0.0000

> <Gold.PLP.ligand.torsion>
0.5684

> <Gold.PLP.Chemscore.Hbond>
3.9670

> <Gold.PLP.Chemscore.CHOScore>
0.0000

> <Gold.PLP.Chemscore.Metal>
0.0000

> <Gold.Chemscore.Hbonds>
donor molecule, donor type, donor heavy atom, donor atom, acceptor molecule, acceptor atom, score
      L1  H     5    48       P1  8028  2.00
      P1  H  7989  7998       L1     8  1.00
      P1  H  7997  8009       L1    14  1.00

> <Gold.PLP.Chemscore.Internal.Correction>
0.0804

> <Gold.Rescore>
     Score         DG    S(hbond)    S(metal)    S(lipo)     H(rot)  DE(clash)    DE(int)     intcor
     18.20     -18.95       2.52        0.00     106.14       2.88       0.01       0.73       ----

> <Gold.Chemscore.Fitness>
18.2023

> <Gold.Chemscore.DG>
-18.9477

> <Gold.Chemscore.ZeroCoef>
-5.4800

> <Gold.Chemscore.Hbond>
2.5199

> <Gold.Chemscore.Metal>
0.0000

> <Gold.Chemscore.Lipo>
106.1406

> <Gold.Chemscore.Internal_Hbond>
0.0000

> <Gold.Chemscore.DEClash>
0.0108

> <Gold.Chemscore.DEInternal>
0.7346

> <Gold.Chemscore.Rot>
2.8778

> <Gold.Chemscore.Internal.Correction>
   9.000000E+99

> <Gold.Chemscore.Hbonds>
donor molecule, donor type, donor heavy atom, donor atom, acceptor molecule, acceptor atom, score
      L1  H     5    48       P1  8028  0.95
      P1  H  7989  7998       L1     8  0.84
      P1  H  7997  8009       L1    14  0.36

> <Gold.Chemscore.Hbond.Weighted>
-8.4163

> <Gold.Chemscore.Metal.Weighted>
-0.0000

> <Gold.Chemscore.Lipo.Weighted>
-12.4184

> <Gold.Chemscore.Internal_Hbond.Weighted>
0.0000

> <Gold.Chemscore.DEClash.Weighted>
0.0108

> <Gold.Chemscore.DEInternal.Weighted>
0.7346

> <Gold.Chemscore.Rot.Weighted>
7.3671

> <Gold.Chemscore.Internal.Correction.Weighted>
   9.000000E+99

> <Gold.Protein.RotatedTorsions>
[ 6907 6896 6895 6894 ] final -152.23 input  -60.11 | X-H torsion
[ 7974 7965 7964 7962 ] final   92.20 input  175.53 | X-H torsion
[ 8008 7997 7996 7995 ] final  153.74 input   59.86 | X-H torsion
[ 10167 10162 10161 10158 ] final  165.64 input  -65.29 | X-H torsion
[ 10718 10713 10712 10709 ] final  -98.64 input   66.30 | X-H torsion
[ 10763 10752 10751 10750 ] final -168.37 input  -60.55 | X-H torsion
[ 11005 11000 10999 10996 ] final   87.11 input  -57.11 | X-H torsion

> <Gold.Protein.ActiveResidues>
 VAL166  LYS551  ARG553  GLY616  TRP617  ASP618  TYR619  PRO620  LYS621  CYS622 
 ASP623  PHE694  ASN695  SER759  ASP760  ASP761  ALA762  ILE779  LEU786  VAL792 
 PHE793  MET794  SER795  GLU796  ALA797  LYS798  CYS799  TRP800  GLU811  SER814 

> <Gold.Protein.RotatedAtoms>
  151.2248  133.4483  159.2601 H   0  0  0  0  0  0  0  0  0  0  0  0  # atno 6907 bound_to 6896
  151.0851  134.9882  159.8385 H   0  0  0  0  0  0  0  0  0  0  0  0  # atno 6908 bound_to 6896
  152.5428  134.2185  159.8831 H   0  0  0  0  0  0  0  0  0  0  0  0  # atno 6909 bound_to 6896
  145.4954  139.2276  143.2807 H   0  0  0  0  0  0  0  0  0  0  0  0  # atno 7974 bound_to 7965
  156.2566  140.1985  156.6538 H   0  0  0  0  0  0  0  0  0  0  0  0  # atno 8008 bound_to 7997
  154.6517  140.0571  156.9987 H   0  0  0  0  0  0  0  0  0  0  0  0  # atno 8009 bound_to 7997
  155.1409  140.3242  155.4455 H   0  0  0  0  0  0  0  0  0  0  0  0  # atno 8010 bound_to 7997
  139.4909  144.4110  151.9299 H   0  0  0  0  0  0  0  0  0  0  0  0  # atno 10167 bound_to 10162
  156.0113  130.5247  150.6553 H   0  0  0  0  0  0  0  0  0  0  0  0  # atno 10718 bound_to 10713
  154.6635  135.2928  154.9835 H   0  0  0  0  0  0  0  0  0  0  0  0  # atno 10763 bound_to 10752
  154.0887  135.6594  153.4853 H   0  0  0  0  0  0  0  0  0  0  0  0  # atno 10764 bound_to 10752
  153.0444  135.5215  154.7597 H   0  0  0  0  0  0  0  0  0  0  0  0  # atno 10765 bound_to 10752
  139.8928  134.8400  156.2813 H   0  0  0  0  0  0  0  0  0  0  0  0  # atno 11005 bound_to 11000
  146.2258  140.5751  142.8997 LP  0  0  0  0  0  0  0  0  0  0  0  0  # atno 17320 bound_to 7965
  144.7810  140.5840  143.6605 LP  0  0  0  0  0  0  0  0  0  0  0  0  # atno 17321 bound_to 7965
  140.3552  144.3040  150.5942 LP  0  0  0  0  0  0  0  0  0  0  0  0  # atno 17342 bound_to 10162
  140.5451  143.2216  151.8021 LP  0  0  0  0  0  0  0  0  0  0  0  0  # atno 17343 bound_to 10162
  157.4306  131.0849  151.1042 LP  0  0  0  0  0  0  0  0  0  0  0  0  # atno 17370 bound_to 10713
  157.1616  130.6228  149.5612 LP  0  0  0  0  0  0  0  0  0  0  0  0  # atno 17371 bound_to 10713
  141.0036  133.7136  156.1000 LP  0  0  0  0  0  0  0  0  0  0  0  0  # atno 17394 bound_to 11000
  140.7464  134.4094  157.5548 LP  0  0  0  0  0  0  0  0  0  0  0  0  # atno 17395 bound_to 11000

$$$$
