AV-unprocessed.smi:1076|AV-procd|sdf|4700|dock2
  -GOLD-   22720 3223D 1   1.00000     0.00000
 Structure written by MMmdl.
 44 45  0  0  0  0  0  0  0  0  1 V2000
  146.8083  133.7906  162.2706 C   0  0  0  0  0  0  0  0  0  0  0  0
  147.2863  135.0405  161.5896 C   0  0  0  0  0  0  0  0  0  0  0  0
  147.5066  136.3209  162.1723 C   0  0  0  0  0  0  0  0  0  0  0  0
  147.9360  137.2167  161.2988 N   0  0  0  0  0  0  0  0  0  0  0  0
  147.9982  136.5447  160.1295 N   0  0  0  0  0  0  0  0  0  0  0  0
  148.4455  137.2252  158.9263 C   0  0  0  0  0  0  0  0  0  0  0  0
  149.9612  137.0759  158.6828 C   0  0  1  0  0  0  0  0  0  0  0  0
  150.2506  136.7663  157.2032 C   0  0  0  0  0  0  0  0  0  0  0  0
  150.6254  138.3157  159.0716 N   0  0  0  0  0  0  0  0  0  0  0  0
  150.2935  139.4163  158.1738 C   0  0  0  0  0  0  0  0  0  0  0  0
  151.5414  140.2546  157.8262 C   0  0  0  0  0  0  0  0  0  0  0  0
  152.3922  140.6982  159.0338 C   0  0  0  0  0  0  0  0  0  0  0  0
  152.8869  139.8392  159.7658 O   0  0  0  0  0  0  0  0  0  0  0  0
  152.5701  142.0223  159.2612 N   0  0  0  0  0  0  0  0  0  0  0  0
  153.3657  142.5423  160.3774 C   0  0  0  0  0  0  0  0  0  0  0  0
  152.4301  143.3032  161.3330 C   0  0  0  0  0  0  0  0  0  0  0  0
  151.7747  144.3514  160.6237 O   0  0  0  0  0  0  0  0  0  0  0  0
  151.0087  143.8809  159.5179 C   0  0  0  0  0  0  0  0  0  0  0  0
  151.9195  143.1199  158.5370 C   0  0  0  0  0  0  0  0  0  0  0  0
  147.6174  135.2277  160.2774 C   0  0  0  0  0  0  0  0  0  0  0  0
  145.9308  133.9797  162.8888 H   0  0  0  0  0  0  0  0  0  0  0  0
  147.5755  133.3707  162.9211 H   0  0  0  0  0  0  0  0  0  0  0  0
  146.5350  133.0162  161.5538 H   0  0  0  0  0  0  0  0  0  0  0  0
  147.3700  136.6230  163.2003 H   0  0  0  0  0  0  0  0  0  0  0  0
  147.8888  136.8124  158.0839 H   0  0  0  0  0  0  0  0  0  0  0  0
  148.1677  138.2782  158.9940 H   0  0  0  0  0  0  0  0  0  0  0  0
  150.3304  136.2552  159.2999 H   0  0  0  0  0  0  0  0  0  0  0  0
  149.7213  135.8679  156.8849 H   0  0  0  0  0  0  0  0  0  0  0  0
  151.3103  136.5928  157.0191 H   0  0  0  0  0  0  0  0  0  0  0  0
  149.9299  137.5843  156.5568 H   0  0  0  0  0  0  0  0  0  0  0  0
  151.6252  138.1741  159.0491 H   0  0  0  0  0  0  0  0  0  0  0  0
  149.8641  139.0084  157.2582 H   0  0  0  0  0  0  0  0  0  0  0  0
  149.5352  140.0604  158.6185 H   0  0  0  0  0  0  0  0  0  0  0  0
  152.1638  139.6763  157.1420 H   0  0  0  0  0  0  0  0  0  0  0  0
  151.2240  141.1491  157.2892 H   0  0  0  0  0  0  0  0  0  0  0  0
  153.8954  141.7617  160.9247 H   0  0  0  0  0  0  0  0  0  0  0  0
  154.1344  143.2128  159.9906 H   0  0  0  0  0  0  0  0  0  0  0  0
  151.6922  142.6304  161.7728 H   0  0  0  0  0  0  0  0  0  0  0  0
  152.9998  143.7354  162.1554 H   0  0  0  0  0  0  0  0  0  0  0  0
  150.1983  143.2415  159.8714 H   0  0  0  0  0  0  0  0  0  0  0  0
  150.5482  144.7347  159.0207 H   0  0  0  0  0  0  0  0  0  0  0  0
  152.6840  143.7890  158.1399 H   0  0  0  0  0  0  0  0  0  0  0  0
  151.3302  142.7978  157.6805 H   0  0  0  0  0  0  0  0  0  0  0  0
  147.6128  134.5399  159.4443 H   0  0  0  0  0  0  0  0  0  0  0  0
  1  2  1  0  0  0  0
  1 21  1  0  0  0  0
  1 22  1  0  0  0  0
  1 23  1  0  0  0  0
  2 20  2  0  0  0  0
  2  3  1  0  0  0  0
  3  4  2  0  0  0  0
  3 24  1  0  0  0  0
  4  5  1  0  0  0  0
  5  6  1  0  0  0  0
  5 20  1  0  0  0  0
  6  7  1  0  0  0  0
  6 25  1  0  0  0  0
  6 26  1  0  0  0  0
  7  8  1  0  0  0  0
  7  9  1  0  0  0  0
  7 27  1  0  0  0  0
  8 28  1  0  0  0  0
  8 29  1  0  0  0  0
  8 30  1  0  0  0  0
  9 10  1  0  0  0  0
  9 31  1  0  0  0  0
 10 11  1  0  0  0  0
 10 32  1  0  0  0  0
 10 33  1  0  0  0  0
 11 12  1  0  0  0  0
 11 34  1  0  0  0  0
 11 35  1  0  0  0  0
 12 13  2  0  0  0  0
 12 14  1  0  0  0  0
 14 19  1  0  0  0  0
 14 15  1  0  0  0  0
 15 16  1  0  0  0  0
 15 36  1  0  0  0  0
 15 37  1  0  0  0  0
 16 17  1  0  0  0  0
 16 38  1  0  0  0  0
 16 39  1  0  0  0  0
 17 18  1  0  0  0  0
 18 19  1  0  0  0  0
 18 40  1  0  0  0  0
 18 41  1  0  0  0  0
 19 42  1  0  0  0  0
 19 43  1  0  0  0  0
 20 44  1  0  0  0  0
M  END
> <s_m_source_file>
AV-unprocessed.smi

> <i_m_source_file_index>
1076

> <i_lp_mmshare_version>
43012

> <i_f3d_flags>
0

> <s_epik_input>
W0NIM11jMVtjSF1ubihbY0hdMSlbQ0gyXVtDQEhdKFtDSDNdKVtOSF1bQ0gyXVtDSDJdQyg9TylOMltDSDJdW0NIMl1PW0NIMl1bQ0gyXTI=

> <s_epik_cmdline>
J2VwaWtfcHl0aG9uJywgJy1waCcsICc3LjAnLCAnLXRuJywgJzgnLCAnLW1hJywgJzIwMCcsICctbWV0YWxfYmluZGluZycsICctaW1hZScsICc8aW5maWxlLm1hZT4nLCAnLW9tYWUnLCAnPG91dGZpbGUubWFlPic=

> <r_lp_tautomer_probability>
1

> <r_epik_Ionization_Penalty>
2.55707

> <r_epik_Ionization_Penalty_Charging>
0

> <r_epik_Ionization_Penalty_Neutral>
2.55707

> <r_epik_State_Penalty>
2.726

> <r_epik_Charging_Adjusted_Penalty>
2.726

> <i_epik_Tot_Q>
0

> <i_epik_Tot_abs_Q>
0

> <r_epik_Metal_State_Penalty>
2.72594

> <b_epik_Metal_Only>
0

> <s_lp_Force_Field>
OPLS_2005

> <r_lp_Energy>
22.7086

> <b_lp_Chiralities_Consistent>
1

> <s_lp_Variant>
AV-unprocessed.smi:1076-4

> <Gold.Version>
5.8.1

> <Gold.Id.Protein>
6NUR|6NUR_protein|mol2

> <Gold.PLP.Fitness>
45.1845

> <Gold.PLP.PLP>
-42.7862

> <Gold.PLP.part.hbond>
-2.6246

> <Gold.PLP.part.metal>
0.0000

> <Gold.PLP.part.buried>
-5.8379

> <Gold.PLP.part.nonpolar>
-34.3099

> <Gold.PLP.part.repulsive>
0.1205

> <Gold.PLP.ligand.clash>
0.0000

> <Gold.PLP.ligand.torsion>
1.3513

> <Gold.PLP.Chemscore.Hbond>
1.6503

> <Gold.PLP.Chemscore.CHOScore>
0.0000

> <Gold.PLP.Chemscore.Metal>
0.0000

> <Gold.Chemscore.Hbonds>
donor molecule, donor type, donor heavy atom, donor atom, acceptor molecule, acceptor atom, score
      P1  H  6931  6943       L1     4  1.00
      P1  H  6934  6947       L1     4  0.70

> <Gold.PLP.Chemscore.Internal.Correction>
0.1501

> <Gold.Rescore>
     Score         DG    S(hbond)    S(metal)    S(lipo)     H(rot)  DE(clash)    DE(int)     intcor
     14.07     -16.80       1.57        0.00      93.59       1.91       0.01       2.72       ----

> <Gold.Chemscore.Fitness>
14.0699

> <Gold.Chemscore.DG>
-16.7990

> <Gold.Chemscore.ZeroCoef>
-5.4800

> <Gold.Chemscore.Hbond>
1.5742

> <Gold.Chemscore.Metal>
0.0000

> <Gold.Chemscore.Lipo>
93.5911

> <Gold.Chemscore.Internal_Hbond>
0.0000

> <Gold.Chemscore.DEClash>
0.0137

> <Gold.Chemscore.DEInternal>
2.7154

> <Gold.Chemscore.Rot>
1.9098

> <Gold.Chemscore.Internal.Correction>
   9.000000E+99

> <Gold.Chemscore.Hbonds>
donor molecule, donor type, donor heavy atom, donor atom, acceptor molecule, acceptor atom, score
      P1  H  6931  6943       L1     4  0.84
      P1  H  6934  6947       L1     4  0.44

> <Gold.Chemscore.Hbond.Weighted>
-5.2579

> <Gold.Chemscore.Metal.Weighted>
-0.0000

> <Gold.Chemscore.Lipo.Weighted>
-10.9502

> <Gold.Chemscore.Internal_Hbond.Weighted>
0.0000

> <Gold.Chemscore.DEClash.Weighted>
0.0137

> <Gold.Chemscore.DEInternal.Weighted>
2.7154

> <Gold.Chemscore.Rot.Weighted>
4.8891

> <Gold.Chemscore.Internal.Correction.Weighted>
   9.000000E+99

> <Gold.Protein.RotatedTorsions>
[ 6907 6896 6895 6894 ] final  123.47 input  -60.11 | X-H torsion
[ 7974 7965 7964 7962 ] final  -56.37 input  175.53 | X-H torsion
[ 8008 7997 7996 7995 ] final  -72.06 input   59.86 | X-H torsion
[ 10167 10162 10161 10158 ] final   57.82 input  -65.29 | X-H torsion
[ 10718 10713 10712 10709 ] final  115.82 input   66.30 | X-H torsion
[ 10763 10752 10751 10750 ] final  165.67 input  -60.55 | X-H torsion
[ 11005 11000 10999 10996 ] final  161.63 input  -57.11 | X-H torsion

> <Gold.Protein.ActiveResidues>
 VAL166  LYS551  ARG553  GLY616  TRP617  ASP618  TYR619  PRO620  LYS621  CYS622 
 ASP623  PHE694  ASN695  SER759  ASP760  ASP761  ALA762  ILE779  LEU786  VAL792 
 PHE793  MET794  SER795  GLU796  ALA797  LYS798  CYS799  TRP800  GLU811  SER814 

> <Gold.Protein.RotatedAtoms>
  152.4159  133.7038  159.6438 H   0  0  0  0  0  0  0  0  0  0  0  0  # atno 6907 bound_to 6896
  150.8036  133.8540  159.3222 H   0  0  0  0  0  0  0  0  0  0  0  0  # atno 6908 bound_to 6896
  151.6270  135.1028  160.0165 H   0  0  0  0  0  0  0  0  0  0  0  0  # atno 6909 bound_to 6896
  145.8634  140.8269  142.9925 H   0  0  0  0  0  0  0  0  0  0  0  0  # atno 7974 bound_to 7965
  154.5136  140.0804  156.8038 H   0  0  0  0  0  0  0  0  0  0  0  0  # atno 8008 bound_to 7997
  155.3730  140.3424  155.4226 H   0  0  0  0  0  0  0  0  0  0  0  0  # atno 8009 bound_to 7997
  156.1602  140.1586  156.8612 H   0  0  0  0  0  0  0  0  0  0  0  0  # atno 8010 bound_to 7997
  140.1939  144.4058  150.6559 H   0  0  0  0  0  0  0  0  0  0  0  0  # atno 10167 bound_to 10162
  157.6199  131.1017  150.7384 H   0  0  0  0  0  0  0  0  0  0  0  0  # atno 10718 bound_to 10713
  154.3275  135.2755  155.2488 H   0  0  0  0  0  0  0  0  0  0  0  0  # atno 10763 bound_to 10752
  154.4815  135.5857  153.6396 H   0  0  0  0  0  0  0  0  0  0  0  0  # atno 10764 bound_to 10752
  152.9870  135.6112  154.3465 H   0  0  0  0  0  0  0  0  0  0  0  0  # atno 10765 bound_to 10752
  140.2177  134.8220  157.3187 H   0  0  0  0  0  0  0  0  0  0  0  0  # atno 11005 bound_to 11000
  144.6726  140.1130  143.7454 LP  0  0  0  0  0  0  0  0  0  0  0  0  # atno 17320 bound_to 7965
  145.9222  139.2552  143.1375 LP  0  0  0  0  0  0  0  0  0  0  0  0  # atno 17321 bound_to 7965
  140.6437  143.2209  151.6233 LP  0  0  0  0  0  0  0  0  0  0  0  0  # atno 17342 bound_to 10162
  139.5245  144.3103  152.0999 LP  0  0  0  0  0  0  0  0  0  0  0  0  # atno 17343 bound_to 10162
  156.7744  130.4839  149.5412 LP  0  0  0  0  0  0  0  0  0  0  0  0  # atno 17370 bound_to 10713
  156.1339  130.6197  151.0372 LP  0  0  0  0  0  0  0  0  0  0  0  0  # atno 17371 bound_to 10713
  140.1883  134.4403  155.7730 LP  0  0  0  0  0  0  0  0  0  0  0  0  # atno 17394 bound_to 11000
  141.2224  133.7015  156.7985 LP  0  0  0  0  0  0  0  0  0  0  0  0  # atno 17395 bound_to 11000

$$$$
