AV-unprocessed.smi:52|AV-procd|sdf|511|dock6
  -GOLD-   2262016383D 1   1.00000     0.00000
 Structure written by MMmdl.
 26 27  0  0  0  0  0  0  0  0  2 V2000
  154.1917  138.4894  157.9261 O   0  0  0  0  0  0  0  0  0  0  0  0
  153.5619  137.8267  157.0722 C   0  0  0  0  0  0  0  0  0  0  0  0
  153.7383  136.5964  156.9310 O   0  5  0  0  0  0  0  0  0  0  0  0
  152.5771  138.5212  156.2025 C   0  0  0  0  0  0  0  0  0  0  0  0
  152.4996  139.8701  155.9646 C   0  0  0  0  0  0  0  0  0  0  0  0
  151.4606  140.1178  155.1088 O   0  0  0  0  0  0  0  0  0  0  0  0
  150.9354  138.8884  154.8556 C   0  0  0  0  0  0  0  0  0  0  0  0
  149.7541  138.7767  153.9490 C   0  0  0  0  0  0  0  0  0  0  0  0
  148.6228  139.5905  154.3811 N   0  0  0  0  0  0  0  0  0  0  0  0
  147.4858  139.5436  153.4758 C   0  0  0  0  0  0  0  0  0  0  0  0
  146.6359  140.7857  153.7781 C   0  0  0  0  0  0  0  0  0  0  0  0
  147.5779  141.6950  154.5842 C   0  0  2  0  0  0  0  0  0  0  0  0
  147.6175  143.0179  154.0923 O   0  0  0  0  0  0  0  0  0  0  0  0
  148.9355  141.0015  154.4652 C   0  0  0  0  0  0  0  0  0  0  0  0
  151.5645  137.8977  155.4835 N   0  0  0  0  0  0  0  0  0  0  0  0
  147.2660  141.7106  155.6293 H   0  0  0  0  0  0  0  0  0  0  0  0
  153.0677  140.7235  156.3038 H   0  0  0  0  0  0  0  0  0  0  0  0
  150.0686  139.0873  152.9523 H   0  0  0  0  0  0  0  0  0  0  0  0
  149.4633  137.7279  153.8735 H   0  0  0  0  0  0  0  0  0  0  0  0
  147.8314  139.5933  152.4417 H   0  0  0  0  0  0  0  0  0  0  0  0
  146.9217  138.6174  153.5899 H   0  0  0  0  0  0  0  0  0  0  0  0
  146.2935  141.2500  152.8523 H   0  0  0  0  0  0  0  0  0  0  0  0
  145.7557  140.5282  154.3683 H   0  0  0  0  0  0  0  0  0  0  0  0
  148.1612  143.5349  154.6669 H   0  0  0  0  0  0  0  0  0  0  0  0
  149.5913  141.2217  155.3081 H   0  0  0  0  0  0  0  0  0  0  0  0
  149.4406  141.3246  153.5527 H   0  0  0  0  0  0  0  0  0  0  0  0
  1  2  2  0  0  0  0
  2  3  1  0  0  0  0
  2  4  1  0  0  0  0
  4 15  1  0  0  0  0
  4  5  2  0  0  0  0
  5  6  1  0  0  0  0
  5 17  1  0  0  0  0
  6  7  1  0  0  0  0
  7  8  1  0  0  0  0
  7 15  2  0  0  0  0
  8  9  1  0  0  0  0
  8 18  1  0  0  0  0
  8 19  1  0  0  0  0
  9 14  1  0  0  0  0
  9 10  1  0  0  0  0
 10 11  1  0  0  0  0
 10 20  1  0  0  0  0
 10 21  1  0  0  0  0
 11 12  1  0  0  0  0
 11 22  1  0  0  0  0
 11 23  1  0  0  0  0
 12 16  1  0  0  0  0
 12 13  1  0  0  0  0
 12 14  1  0  0  0  0
 13 24  1  0  0  0  0
 14 25  1  0  0  0  0
 14 26  1  0  0  0  0
M  CHG  1   3  -1
M  END
> <s_m_source_file>
AV-unprocessed.smi

> <i_m_source_file_index>
52

> <i_lp_mmshare_version>
43012

> <i_f3d_flags>
0

> <s_epik_input>
Tz1DKFtPSF0pYzFbY0hdb2MobjEpW0NIMl1OMltDSDJdW0NIMl1bQ0BIXShbT0hdKVtDSDJdMg==

> <s_epik_cmdline>
J2VwaWtfcHl0aG9uJywgJy1waCcsICc3LjAnLCAnLXRuJywgJzgnLCAnLW1hJywgJzIwMCcsICctbWV0YWxfYmluZGluZycsICctaW1hZScsICc8aW5maWxlLm1hZT4nLCAnLW9tYWUnLCAnPG91dGZpbGUubWFlPic=

> <r_epik_Ionization_Penalty>
1.6537

> <r_epik_Ionization_Penalty_Charging>
0.000221913

> <r_epik_Ionization_Penalty_Neutral>
1.65348

> <r_epik_State_Penalty>
1.75577

> <r_epik_Charging_Adjusted_Penalty>
1.75599

> <i_epik_Tot_Q>
-1

> <i_epik_Tot_abs_Q>
1

> <r_epik_Metal_State_Penalty>
1.75577

> <b_epik_Metal_Only>
0

> <s_lp_Force_Field>
OPLS_2005

> <r_lp_Energy>
35.4981

> <b_lp_Chiralities_Consistent>
1

> <s_lp_Variant>
AV-unprocessed.smi:52-5

> <Gold.Version>
5.8.1

> <Gold.Id.Protein>
6NUR|6NUR_protein|mol2

> <Gold.PLP.Fitness>
39.5204

> <Gold.PLP.PLP>
-21.8538

> <Gold.PLP.part.hbond>
-6.0000

> <Gold.PLP.part.metal>
0.0000

> <Gold.PLP.part.buried>
1.3657

> <Gold.PLP.part.nonpolar>
-18.4357

> <Gold.PLP.part.repulsive>
0.1993

> <Gold.PLP.ligand.clash>
0.0000

> <Gold.PLP.ligand.torsion>
0.1673

> <Gold.PLP.Chemscore.Hbond>
6.0000

> <Gold.PLP.Chemscore.CHOScore>
0.0000

> <Gold.PLP.Chemscore.Metal>
0.0000

> <Gold.Chemscore.Hbonds>
donor molecule, donor type, donor heavy atom, donor atom, acceptor molecule, acceptor atom, score
      L1  H    13    24       P1  8028  1.00
      P1  H  7989  7998       L1     6  1.00
      P1  H  7997  8010       L1     1  2.00
      P1  H 10752 10763       L1     3  1.98

> <Gold.PLP.Chemscore.Internal.Correction>
0.0012

> <Gold.Rescore>
     Score         DG    S(hbond)    S(metal)    S(lipo)     H(rot)  DE(clash)    DE(int)     intcor
     16.51     -18.40       3.72        0.00      46.76       1.95       0.32       1.56       ----

> <Gold.Chemscore.Fitness>
16.5146

> <Gold.Chemscore.DG>
-18.3980

> <Gold.Chemscore.ZeroCoef>
-5.4800

> <Gold.Chemscore.Hbond>
3.7240

> <Gold.Chemscore.Metal>
0.0000

> <Gold.Chemscore.Lipo>
46.7607

> <Gold.Chemscore.Internal_Hbond>
0.0000

> <Gold.Chemscore.DEClash>
0.3211

> <Gold.Chemscore.DEInternal>
1.5623

> <Gold.Chemscore.Rot>
1.9497

> <Gold.Chemscore.Internal.Correction>
   9.000000E+99

> <Gold.Chemscore.Hbonds>
donor molecule, donor type, donor heavy atom, donor atom, acceptor molecule, acceptor atom, score
      L1  H    13    24       P1  8028  0.90
      P1  H  7989  7998       L1     6  0.48
      P1  H  7997  8010       L1     1  0.67
      P1  H 10752 10763       L1     3  0.91

> <Gold.Chemscore.Hbond.Weighted>
-12.4383

> <Gold.Chemscore.Metal.Weighted>
-0.0000

> <Gold.Chemscore.Lipo.Weighted>
-5.4710

> <Gold.Chemscore.Internal_Hbond.Weighted>
0.0000

> <Gold.Chemscore.DEClash.Weighted>
0.3211

> <Gold.Chemscore.DEInternal.Weighted>
1.5623

> <Gold.Chemscore.Rot.Weighted>
4.9912

> <Gold.Chemscore.Internal.Correction.Weighted>
   9.000000E+99

> <Gold.Protein.RotatedTorsions>
[ 6907 6896 6895 6894 ] final   28.47 input  -60.11 | X-H torsion
[ 7974 7965 7964 7962 ] final    3.63 input  175.53 | X-H torsion
[ 8008 7997 7996 7995 ] final   19.93 input   59.86 | X-H torsion
[ 10167 10162 10161 10158 ] final  149.40 input  -65.29 | X-H torsion
[ 10718 10713 10712 10709 ] final  131.47 input   66.30 | X-H torsion
[ 10763 10752 10751 10750 ] final  134.57 input  -60.55 | X-H torsion
[ 11005 11000 10999 10996 ] final -170.38 input  -57.11 | X-H torsion

> <Gold.Protein.ActiveResidues>
 VAL166  LYS551  ARG553  GLY616  TRP617  ASP618  TYR619  PRO620  LYS621  CYS622 
 ASP623  PHE694  ASN695  SER759  ASP760  ASP761  ALA762  ILE779  LEU786  VAL792 
 PHE793  MET794  SER795  GLU796  ALA797  LYS798  CYS799  TRP800  GLU811  SER814 

> <Gold.Protein.RotatedAtoms>
  152.0174  134.9842  160.0569 H   0  0  0  0  0  0  0  0  0  0  0  0  # atno 6907 bound_to 6896
  152.1370  133.4436  159.4756 H   0  0  0  0  0  0  0  0  0  0  0  0  # atno 6908 bound_to 6896
  150.6861  134.2270  159.4462 H   0  0  0  0  0  0  0  0  0  0  0  0  # atno 6909 bound_to 6896
  146.2445  140.0656  142.8365 H   0  0  0  0  0  0  0  0  0  0  0  0  # atno 7974 bound_to 7965
  154.9281  140.3036  155.5182 H   0  0  0  0  0  0  0  0  0  0  0  0  # atno 8008 bound_to 7997
  156.3005  140.2359  156.4274 H   0  0  0  0  0  0  0  0  0  0  0  0  # atno 8009 bound_to 7997
  154.8265  140.0420  157.1435 H   0  0  0  0  0  0  0  0  0  0  0  0  # atno 8010 bound_to 7997
  139.4862  144.5605  151.7240 H   0  0  0  0  0  0  0  0  0  0  0  0  # atno 10167 bound_to 10162
  157.4965  131.1092  150.9486 H   0  0  0  0  0  0  0  0  0  0  0  0  # atno 10718 bound_to 10713
  153.8257  135.3110  155.3414 H   0  0  0  0  0  0  0  0  0  0  0  0  # atno 10763 bound_to 10752
  154.7994  135.4736  154.0242 H   0  0  0  0  0  0  0  0  0  0  0  0  # atno 10764 bound_to 10752
  153.1665  135.6870  153.8758 H   0  0  0  0  0  0  0  0  0  0  0  0  # atno 10765 bound_to 10752
  140.5202  134.5717  157.5045 H   0  0  0  0  0  0  0  0  0  0  0  0  # atno 11005 bound_to 11000
  145.0861  140.9254  143.4796 LP  0  0  0  0  0  0  0  0  0  0  0  0  # atno 17320 bound_to 7965
  145.0819  139.2954  143.5779 LP  0  0  0  0  0  0  0  0  0  0  0  0  # atno 17321 bound_to 7965
  140.5174  144.0932  150.6012 LP  0  0  0  0  0  0  0  0  0  0  0  0  # atno 17342 bound_to 10162
  140.3878  143.2768  152.0095 LP  0  0  0  0  0  0  0  0  0  0  0  0  # atno 17343 bound_to 10162
  157.0171  130.5659  149.5327 LP  0  0  0  0  0  0  0  0  0  0  0  0  # atno 17370 bound_to 10713
  156.0203  130.5298  150.8257 LP  0  0  0  0  0  0  0  0  0  0  0  0  # atno 17371 bound_to 10713
  139.9610  134.7452  156.0237 LP  0  0  0  0  0  0  0  0  0  0  0  0  # atno 17394 bound_to 11000
  141.1338  133.6580  156.3538 LP  0  0  0  0  0  0  0  0  0  0  0  0  # atno 17395 bound_to 11000

$$$$
