AV-unprocessed.smi:2474|AV-procd|sdf|9754|dock10
  -GOLD-   2272013393D 1   1.00000     0.00000
 Structure written by MMmdl.
 40 41  0  0  0  0  0  0  0  0  1 V2000
  143.8611  144.3559  155.1542 C   0  0  0  0  0  0  0  0  0  0  0  0
  144.6240  143.0754  155.1839 C   0  0  0  0  0  0  0  0  0  0  0  0
  144.2569  141.8922  155.7755 C   0  0  0  0  0  0  0  0  0  0  0  0
  145.1879  140.8651  155.6086 N   0  0  0  0  0  0  0  0  0  0  0  0
  146.2546  141.2505  154.9021 C   0  0  0  0  0  0  0  0  0  0  0  0
  147.3695  140.3287  154.5057 C   0  0  1  0  0  0  0  0  0  0  0  0
  146.9078  139.2621  153.5022 C   0  0  0  0  0  0  0  0  0  0  0  0
  148.6442  141.0748  154.0494 C   0  0  0  0  0  0  0  0  0  0  0  0
  149.1127  142.0234  155.0579 N   0  0  0  0  0  0  0  0  0  0  0  0
  150.0650  141.7788  155.9692 C   0  0  0  0  0  0  0  0  0  0  0  0
  150.5798  140.6761  156.1545 O   0  0  0  0  0  0  0  0  0  0  0  0
  150.4338  142.8955  156.6109 N   0  0  0  0  0  0  0  0  0  0  0  0
  151.5621  142.9955  157.5313 C   0  0  1  0  0  0  0  0  0  0  0  0
  151.4998  144.3358  158.2962 C   0  0  0  0  0  0  0  0  0  0  0  0
  152.6864  144.5293  159.2525 C   0  0  0  0  0  0  0  0  0  0  0  0
  152.7524  143.4385  160.3304 C   0  0  0  0  0  0  0  0  0  0  0  0
  152.9846  141.7988  159.5919 S   0  0  0  0  0  0  0  0  0  0  0  0
  151.5451  141.7911  158.4882 C   0  0  0  0  0  0  0  0  0  0  0  0
  146.1774  142.9377  154.4038 S   0  0  0  0  0  0  0  0  0  0  0  0
  142.9027  144.2539  155.6639 H   0  0  0  0  0  0  0  0  0  0  0  0
  143.6639  144.6640  154.1272 H   0  0  0  0  0  0  0  0  0  0  0  0
  144.4214  145.1513  155.6458 H   0  0  0  0  0  0  0  0  0  0  0  0
  143.3499  141.6902  156.3258 H   0  0  0  0  0  0  0  0  0  0  0  0
  147.6429  139.7851  155.4112 H   0  0  0  0  0  0  0  0  0  0  0  0
  146.0679  138.6896  153.8966 H   0  0  0  0  0  0  0  0  0  0  0  0
  147.7110  138.5595  153.2794 H   0  0  0  0  0  0  0  0  0  0  0  0
  146.5916  139.7134  152.5613 H   0  0  0  0  0  0  0  0  0  0  0  0
  149.4455  140.3590  153.8642 H   0  0  0  0  0  0  0  0  0  0  0  0
  148.4647  141.5813  153.0994 H   0  0  0  0  0  0  0  0  0  0  0  0
  148.7510  142.9638  154.9947 H   0  0  0  0  0  0  0  0  0  0  0  0
  149.9501  143.7534  156.3897 H   0  0  0  0  0  0  0  0  0  0  0  0
  152.4882  142.9569  156.9541 H   0  0  0  0  0  0  0  0  0  0  0  0
  151.4867  145.1652  157.5877 H   0  0  0  0  0  0  0  0  0  0  0  0
  150.5655  144.4019  158.8553 H   0  0  0  0  0  0  0  0  0  0  0  0
  153.6183  144.5464  158.6859 H   0  0  0  0  0  0  0  0  0  0  0  0
  152.6031  145.5047  159.7325 H   0  0  0  0  0  0  0  0  0  0  0  0
  153.5785  143.6334  161.0144 H   0  0  0  0  0  0  0  0  0  0  0  0
  151.8383  143.4350  160.9251 H   0  0  0  0  0  0  0  0  0  0  0  0
  150.6374  141.7937  159.0930 H   0  0  0  0  0  0  0  0  0  0  0  0
  151.5521  140.8572  157.9254 H   0  0  0  0  0  0  0  0  0  0  0  0
  1  2  1  0  0  0  0
  1 20  1  0  0  0  0
  1 21  1  0  0  0  0
  1 22  1  0  0  0  0
  2 19  1  0  0  0  0
  2  3  2  0  0  0  0
  3  4  1  0  0  0  0
  3 23  1  0  0  0  0
  4  5  2  0  0  0  0
  5  6  1  0  0  0  0
  5 19  1  0  0  0  0
  6  7  1  0  0  0  0
  6  8  1  0  0  0  0
  6 24  1  0  0  0  0
  7 25  1  0  0  0  0
  7 26  1  0  0  0  0
  7 27  1  0  0  0  0
  8  9  1  0  0  0  0
  8 28  1  0  0  0  0
  8 29  1  0  0  0  0
  9 10  1  0  0  0  0
  9 30  1  0  0  0  0
 10 11  2  0  0  0  0
 10 12  1  0  0  0  0
 12 13  1  0  0  0  0
 12 31  1  0  0  0  0
 13 18  1  0  0  0  0
 13 14  1  0  0  0  0
 13 32  1  0  0  0  0
 14 15  1  0  0  0  0
 14 33  1  0  0  0  0
 14 34  1  0  0  0  0
 15 16  1  0  0  0  0
 15 35  1  0  0  0  0
 15 36  1  0  0  0  0
 16 17  1  0  0  0  0
 16 37  1  0  0  0  0
 16 38  1  0  0  0  0
 17 18  1  0  0  0  0
 18 39  1  0  0  0  0
 18 40  1  0  0  0  0
M  END
> <s_m_source_file>
AV-unprocessed.smi

> <i_m_source_file_index>
2474

> <i_lp_mmshare_version>
43012

> <i_f3d_flags>
0

> <s_epik_input>
W0NIM11jMVtjSF1uYyhzMSlbQ0BIXShbQ0gzXSlbQ0gyXVtOSF1DKD1PKVtOSF1bQ0BASF0yW0NIMl1bQ0gyXVtDSDJdU1tDSDJdMg==

> <s_epik_cmdline>
J2VwaWtfcHl0aG9uJywgJy1waCcsICc3LjAnLCAnLXRuJywgJzgnLCAnLW1hJywgJzIwMCcsICctbWV0YWxfYmluZGluZycsICctaW1hZScsICc8aW5maWxlLm1hZT4nLCAnLW9tYWUnLCAnPG91dGZpbGUubWFlPic=

> <r_epik_Ionization_Penalty>
0.000644338

> <r_epik_Ionization_Penalty_Charging>
0

> <r_epik_Ionization_Penalty_Neutral>
0.000644338

> <r_epik_State_Penalty>
0.000374131

> <r_epik_Charging_Adjusted_Penalty>
0.000374131

> <i_epik_Tot_Q>
0

> <i_epik_Tot_abs_Q>
0

> <r_epik_Metal_State_Penalty>
-0

> <b_epik_Metal_Only>
0

> <s_lp_Force_Field>
OPLS_2005

> <r_lp_Energy>
-6.83814

> <b_lp_Chiralities_Consistent>
1

> <s_lp_Variant>
AV-unprocessed.smi:2474-4

> <Gold.Version>
5.8.1

> <Gold.Id.Protein>
6NUR|6NUR_protein|mol2

> <Gold.PLP.Fitness>
45.1567

> <Gold.PLP.PLP>
-40.5876

> <Gold.PLP.part.hbond>
-2.0000

> <Gold.PLP.part.metal>
0.0000

> <Gold.PLP.part.buried>
-6.3187

> <Gold.PLP.part.nonpolar>
-34.3026

> <Gold.PLP.part.repulsive>
0.4191

> <Gold.PLP.ligand.clash>
0.0000

> <Gold.PLP.ligand.torsion>
0.6472

> <Gold.PLP.Chemscore.Hbond>
1.9120

> <Gold.PLP.Chemscore.CHOScore>
0.0000

> <Gold.PLP.Chemscore.Metal>
0.0000

> <Gold.Chemscore.Hbonds>
donor molecule, donor type, donor heavy atom, donor atom, acceptor molecule, acceptor atom, score
      L1  H     9    30       P1  8028  0.93
      L1  H    12    31       P1  8028  1.00

> <Gold.PLP.Chemscore.Internal.Correction>
0.1276

> <Gold.Rescore>
     Score         DG    S(hbond)    S(metal)    S(lipo)     H(rot)  DE(clash)    DE(int)     intcor
     19.28     -20.93       1.90        0.00     109.97       1.46       0.08       1.58       ----

> <Gold.Chemscore.Fitness>
19.2764

> <Gold.Chemscore.DG>
-20.9349

> <Gold.Chemscore.ZeroCoef>
-5.4800

> <Gold.Chemscore.Hbond>
1.8951

> <Gold.Chemscore.Metal>
0.0000

> <Gold.Chemscore.Lipo>
109.9740

> <Gold.Chemscore.Internal_Hbond>
0.0000

> <Gold.Chemscore.DEClash>
0.0825

> <Gold.Chemscore.DEInternal>
1.5760

> <Gold.Chemscore.Rot>
1.4616

> <Gold.Chemscore.Internal.Correction>
   9.000000E+99

> <Gold.Chemscore.Hbonds>
donor molecule, donor type, donor heavy atom, donor atom, acceptor molecule, acceptor atom, score
      L1  H     9    30       P1  8028  0.91
      L1  H    12    31       P1  8028  0.98

> <Gold.Chemscore.Hbond.Weighted>
-6.3296

> <Gold.Chemscore.Metal.Weighted>
-0.0000

> <Gold.Chemscore.Lipo.Weighted>
-12.8670

> <Gold.Chemscore.Internal_Hbond.Weighted>
0.0000

> <Gold.Chemscore.DEClash.Weighted>
0.0825

> <Gold.Chemscore.DEInternal.Weighted>
1.5760

> <Gold.Chemscore.Rot.Weighted>
3.7416

> <Gold.Chemscore.Internal.Correction.Weighted>
   9.000000E+99

> <Gold.Protein.RotatedTorsions>
[ 6907 6896 6895 6894 ] final  -30.90 input  -60.11 | X-H torsion
[ 7974 7965 7964 7962 ] final -168.60 input  175.53 | X-H torsion
[ 8008 7997 7996 7995 ] final -163.56 input   59.86 | X-H torsion
[ 10167 10162 10161 10158 ] final  -83.54 input  -65.29 | X-H torsion
[ 10718 10713 10712 10709 ] final  101.19 input   66.30 | X-H torsion
[ 10763 10752 10751 10750 ] final -173.63 input  -60.55 | X-H torsion
[ 11005 11000 10999 10996 ] final   39.85 input  -57.11 | X-H torsion

> <Gold.Protein.ActiveResidues>
 VAL166  LYS551  ARG553  GLY616  TRP617  ASP618  TYR619  PRO620  LYS621  CYS622 
 ASP623  PHE694  ASN695  SER759  ASP760  ASP761  ALA762  ILE779  LEU786  VAL792 
 PHE793  MET794  SER795  GLU796  ALA797  LYS798  CYS799  TRP800  GLU811  SER814 

> <Gold.Protein.RotatedAtoms>
  151.0994  134.9963  159.8440 H   0  0  0  0  0  0  0  0  0  0  0  0  # atno 6907 bound_to 6896
  152.5435  134.1969  159.8706 H   0  0  0  0  0  0  0  0  0  0  0  0  # atno 6908 bound_to 6896
  151.2011  133.4566  159.2629 H   0  0  0  0  0  0  0  0  0  0  0  0  # atno 6909 bound_to 6896
  144.7200  140.2346  143.6299 H   0  0  0  0  0  0  0  0  0  0  0  0  # atno 7974 bound_to 7965
  155.8230  140.0922  157.1838 H   0  0  0  0  0  0  0  0  0  0  0  0  # atno 8008 bound_to 7997
  154.3979  140.1433  156.3582 H   0  0  0  0  0  0  0  0  0  0  0  0  # atno 8009 bound_to 7997
  155.8246  140.3445  155.5538 H   0  0  0  0  0  0  0  0  0  0  0  0  # atno 8010 bound_to 7997
  140.4217  143.2582  151.8881 H   0  0  0  0  0  0  0  0  0  0  0  0  # atno 10167 bound_to 10162
  157.6835  131.0719  150.5215 H   0  0  0  0  0  0  0  0  0  0  0  0  # atno 10718 bound_to 10713
  154.6056  135.2859  155.0488 H   0  0  0  0  0  0  0  0  0  0  0  0  # atno 10763 bound_to 10752
  154.1736  135.6468  153.5020 H   0  0  0  0  0  0  0  0  0  0  0  0  # atno 10764 bound_to 10752
  153.0174  135.5407  154.6791 H   0  0  0  0  0  0  0  0  0  0  0  0  # atno 10765 bound_to 10752
  140.1988  134.3896  155.8107 H   0  0  0  0  0  0  0  0  0  0  0  0  # atno 11005 bound_to 11000
  145.8378  139.2115  143.1845 LP  0  0  0  0  0  0  0  0  0  0  0  0  # atno 17320 bound_to 7965
  146.0374  140.8199  142.9846 LP  0  0  0  0  0  0  0  0  0  0  0  0  # atno 17321 bound_to 7965
  139.4783  144.5430  151.8499 LP  0  0  0  0  0  0  0  0  0  0  0  0  # atno 17342 bound_to 10162
  140.4527  144.1833  150.5899 LP  0  0  0  0  0  0  0  0  0  0  0  0  # atno 17343 bound_to 10162
  156.5528  130.4236  149.6099 LP  0  0  0  0  0  0  0  0  0  0  0  0  # atno 17370 bound_to 10713
  156.2888  130.7112  151.1955 LP  0  0  0  0  0  0  0  0  0  0  0  0  # atno 17371 bound_to 10713
  141.2227  133.7083  156.8221 LP  0  0  0  0  0  0  0  0  0  0  0  0  # atno 17394 bound_to 11000
  140.2078  134.8850  157.3240 LP  0  0  0  0  0  0  0  0  0  0  0  0  # atno 17395 bound_to 11000

$$$$
