AV-unprocessed.smi:1978|AV-procd|sdf|8008|dock10
  -GOLD-   2272010193D 1   1.00000     0.00000
 Structure written by MMmdl.
 44 45  0  0  0  0  0  0  0  0  3 V2000
  149.0915  133.9673  154.3000 C   0  0  0  0  0  0  0  0  0  0  0  0
  150.0050  134.9264  154.9827 C   0  0  0  0  0  0  0  0  0  0  0  0
  150.0614  136.2910  155.0198 C   0  0  0  0  0  0  0  0  0  0  0  0
  151.1782  136.5439  155.8600 C   0  0  0  0  0  0  0  0  0  0  0  0
  151.5740  137.8752  156.1558 N   0  0  0  0  0  0  0  0  0  0  0  0
  150.8160  138.9091  156.5641 C   0  0  0  0  0  0  0  0  0  0  0  0
  149.6002  138.7635  156.7386 O   0  0  0  0  0  0  0  0  0  0  0  0
  151.5443  140.0475  156.7313 N   0  5  0  0  0  0  0  0  0  0  0  0
  151.1786  141.1525  157.6189 C   0  0  0  0  0  0  0  0  0  0  0  0
  152.3314  141.4844  158.6047 C   0  0  2  0  0  0  0  0  0  0  0  0
  152.7543  140.2859  159.4962 C   0  0  0  0  0  0  0  0  0  0  0  0
  151.9830  142.7143  159.3848 N   0  3  1  0  0  0  0  0  0  0  0  0
  152.8333  143.0155  160.5749 C   0  0  0  0  0  0  0  0  0  0  0  0
  152.1836  144.0924  161.4578 C   0  0  0  0  0  0  0  0  0  0  0  0
  151.8895  145.3633  160.6522 C   0  0  0  0  0  0  0  0  0  0  0  0
  151.0348  145.0203  159.4233 C   0  0  0  0  0  0  0  0  0  0  0  0
  151.6789  143.9199  158.5538 C   0  0  1  0  0  0  0  0  0  0  0  0
  152.8927  144.4389  157.7548 C   0  0  0  0  0  0  0  0  0  0  0  0
  151.7517  135.4321  156.2963 N   0  0  0  0  0  0  0  0  0  0  0  0
  151.0030  134.3902  155.7360 O   0  0  0  0  0  0  0  0  0  0  0  0
  148.3661  134.4945  153.6800 H   0  0  0  0  0  0  0  0  0  0  0  0
  148.5429  133.3708  155.0290 H   0  0  0  0  0  0  0  0  0  0  0  0
  149.6533  133.2878  153.6591 H   0  0  0  0  0  0  0  0  0  0  0  0
  149.4076  136.9939  154.5255 H   0  0  0  0  0  0  0  0  0  0  0  0
  152.5562  138.0737  156.0369 H   0  0  0  0  0  0  0  0  0  0  0  0
  150.9282  142.0519  157.0538 H   0  0  0  0  0  0  0  0  0  0  0  0
  150.2802  140.9202  158.1913 H   0  0  0  0  0  0  0  0  0  0  0  0
  153.1963  141.7338  157.9881 H   0  0  0  0  0  0  0  0  0  0  0  0
  153.1505  139.4617  158.9007 H   0  0  0  0  0  0  0  0  0  0  0  0
  151.9307  139.8857  160.0901 H   0  0  0  0  0  0  0  0  0  0  0  0
  153.5458  140.5675  160.1900 H   0  0  0  0  0  0  0  0  0  0  0  0
  152.9701  142.1133  161.1720 H   0  0  0  0  0  0  0  0  0  0  0  0
  153.8265  143.3403  160.2646 H   0  0  0  0  0  0  0  0  0  0  0  0
  151.2566  143.7054  161.8828 H   0  0  0  0  0  0  0  0  0  0  0  0
  152.8354  144.3270  162.2998 H   0  0  0  0  0  0  0  0  0  0  0  0
  151.3719  146.0912  161.2774 H   0  0  0  0  0  0  0  0  0  0  0  0
  152.8241  145.8317  160.3418 H   0  0  0  0  0  0  0  0  0  0  0  0
  150.0540  144.6804  159.7589 H   0  0  0  0  0  0  0  0  0  0  0  0
  150.8551  145.9170  158.8292 H   0  0  0  0  0  0  0  0  0  0  0  0
  150.9219  143.6252  157.8254 H   0  0  0  0  0  0  0  0  0  0  0  0
  152.6230  145.3222  157.1759 H   0  0  0  0  0  0  0  0  0  0  0  0
  153.2528  143.6958  157.0440 H   0  0  0  0  0  0  0  0  0  0  0  0
  153.7269  144.7157  158.3989 H   0  0  0  0  0  0  0  0  0  0  0  0
  151.0844  142.4753  159.7796 H   0  0  0  0  0  0  0  0  0  0  0  0
  1  2  1  0  0  0  0
  1 21  1  0  0  0  0
  1 22  1  0  0  0  0
  1 23  1  0  0  0  0
  2 20  1  0  0  0  0
  2  3  2  0  0  0  0
  3  4  1  0  0  0  0
  3 24  1  0  0  0  0
  4  5  1  0  0  0  0
  4 19  2  0  0  0  0
  5  6  1  0  0  0  0
  5 25  1  0  0  0  0
  6  7  2  0  0  0  0
  6  8  1  0  0  0  0
  8  9  1  0  0  0  0
  9 10  1  0  0  0  0
  9 26  1  0  0  0  0
  9 27  1  0  0  0  0
 10 11  1  0  0  0  0
 10 12  1  0  0  0  0
 10 28  1  0  0  0  0
 11 29  1  0  0  0  0
 11 30  1  0  0  0  0
 11 31  1  0  0  0  0
 12 17  1  0  0  0  0
 12 13  1  0  0  0  0
 12 44  1  0  0  0  0
 13 14  1  0  0  0  0
 13 32  1  0  0  0  0
 13 33  1  0  0  0  0
 14 15  1  0  0  0  0
 14 34  1  0  0  0  0
 14 35  1  0  0  0  0
 15 16  1  0  0  0  0
 15 36  1  0  0  0  0
 15 37  1  0  0  0  0
 16 17  1  0  0  0  0
 16 38  1  0  0  0  0
 16 39  1  0  0  0  0
 17 18  1  0  0  0  0
 17 40  1  0  0  0  0
 18 41  1  0  0  0  0
 18 42  1  0  0  0  0
 18 43  1  0  0  0  0
 19 20  1  0  0  0  0
M  CHG  1   8  -1
M  CHG  1  12   1
M  END
> <s_m_source_file>
AV-unprocessed.smi

> <i_m_source_file_index>
1978

> <i_lp_mmshare_version>
43012

> <i_f3d_flags>
0

> <s_epik_input>
W0NIM11jMVtjSF1jKG5vMSlbTkhdQyg9TylbTkhdW0NIMl1bQ0BIXShbQ0gzXSlOMltDSDJdW0NIMl1bQ0gyXVtDSDJdW0NASF0yW0NIM10=

> <s_epik_cmdline>
J2VwaWtfcHl0aG9uJywgJy1waCcsICc3LjAnLCAnLXRuJywgJzgnLCAnLW1hJywgJzIwMCcsICctbWV0YWxfYmluZGluZycsICctaW1hZScsICc8aW5maWxlLm1hZT4nLCAnLW9tYWUnLCAnPG91dGZpbGUubWFlPic=

> <r_epik_Ionization_Penalty>
6.7666

> <r_epik_Ionization_Penalty_Charging>
6.7666

> <r_epik_Ionization_Penalty_Neutral>
5.77131e-06

> <r_epik_State_Penalty>
6.79217

> <r_epik_Charging_Adjusted_Penalty>
13.5588

> <i_epik_Tot_Q>
0

> <i_epik_Tot_abs_Q>
2

> <r_epik_Metal_State_Penalty>
2.72569

> <b_epik_Metal_Only>
1

> <s_lp_Force_Field>
OPLS_2005

> <r_lp_Energy>
20.2617

> <b_lp_Chiralities_Consistent>
1

> <s_lp_Variant>
AV-unprocessed.smi:1978-17

> <Gold.Version>
5.8.1

> <Gold.Id.Protein>
6NUR|6NUR_protein|mol2

> <Gold.PLP.Fitness>
39.0682

> <Gold.PLP.PLP>
-37.3364

> <Gold.PLP.part.hbond>
-1.3273

> <Gold.PLP.part.metal>
0.0000

> <Gold.PLP.part.buried>
-4.8511

> <Gold.PLP.part.nonpolar>
-31.7002

> <Gold.PLP.part.repulsive>
0.1700

> <Gold.PLP.ligand.clash>
0.0000

> <Gold.PLP.ligand.torsion>
0.7344

> <Gold.PLP.Chemscore.Hbond>
1.0000

> <Gold.PLP.Chemscore.CHOScore>
0.0000

> <Gold.PLP.Chemscore.Metal>
0.0000

> <Gold.Chemscore.Hbonds>
donor molecule, donor type, donor heavy atom, donor atom, acceptor molecule, acceptor atom, score
      P1  H 10752 10764       L1    19  1.00

> <Gold.PLP.Chemscore.Internal.Correction>
0.2006

> <Gold.Rescore>
     Score         DG    S(hbond)    S(metal)    S(lipo)     H(rot)  DE(clash)    DE(int)     intcor
     14.52     -16.58       0.67        0.00     109.00       1.52       0.54       1.53       ----

> <Gold.Chemscore.Fitness>
14.5171

> <Gold.Chemscore.DG>
-16.5835

> <Gold.Chemscore.ZeroCoef>
-5.4800

> <Gold.Chemscore.Hbond>
0.6702

> <Gold.Chemscore.Metal>
0.0000

> <Gold.Chemscore.Lipo>
109.0045

> <Gold.Chemscore.Internal_Hbond>
0.0000

> <Gold.Chemscore.DEClash>
0.5399

> <Gold.Chemscore.DEInternal>
1.5265

> <Gold.Chemscore.Rot>
1.5190

> <Gold.Chemscore.Internal.Correction>
   9.000000E+99

> <Gold.Chemscore.Hbonds>
donor molecule, donor type, donor heavy atom, donor atom, acceptor molecule, acceptor atom, score
      P1  H 10752 10764       L1    19  0.08

> <Gold.Chemscore.Hbond.Weighted>
-2.2386

> <Gold.Chemscore.Metal.Weighted>
-0.0000

> <Gold.Chemscore.Lipo.Weighted>
-12.7535

> <Gold.Chemscore.Internal_Hbond.Weighted>
0.0000

> <Gold.Chemscore.DEClash.Weighted>
0.5399

> <Gold.Chemscore.DEInternal.Weighted>
1.5265

> <Gold.Chemscore.Rot.Weighted>
3.8886

> <Gold.Chemscore.Internal.Correction.Weighted>
   9.000000E+99

> <Gold.Protein.RotatedTorsions>
[ 6907 6896 6895 6894 ] final   -9.76 input  -60.11 | X-H torsion
[ 7974 7965 7964 7962 ] final  -48.02 input  175.53 | X-H torsion
[ 8008 7997 7996 7995 ] final   55.59 input   59.86 | X-H torsion
[ 10167 10162 10161 10158 ] final   85.72 input  -65.29 | X-H torsion
[ 10718 10713 10712 10709 ] final   31.21 input   66.30 | X-H torsion
[ 10763 10752 10751 10750 ] final  -17.13 input  -60.55 | X-H torsion
[ 11005 11000 10999 10996 ] final  161.49 input  -57.11 | X-H torsion

> <Gold.Protein.ActiveResidues>
 VAL166  LYS551  ARG553  GLY616  TRP617  ASP618  TYR619  PRO620  LYS621  CYS622 
 ASP623  PHE694  ASN695  SER759  ASP760  ASP761  ALA762  ILE779  LEU786  VAL792 
 PHE793  MET794  SER795  GLU796  ALA797  LYS798  CYS799  TRP800  GLU811  SER814 

> <Gold.Protein.RotatedAtoms>
  151.4126  135.0987  159.9589 H   0  0  0  0  0  0  0  0  0  0  0  0  # atno 6907 bound_to 6896
  152.5015  133.8783  159.7344 H   0  0  0  0  0  0  0  0  0  0  0  0  # atno 6908 bound_to 6896
  150.9281  133.6742  159.2845 H   0  0  0  0  0  0  0  0  0  0  0  0  # atno 6909 bound_to 6896
  145.9555  140.7531  142.9483 H   0  0  0  0  0  0  0  0  0  0  0  0  # atno 7974 bound_to 7965
  155.5035  140.3475  155.4375 H   0  0  0  0  0  0  0  0  0  0  0  0  # atno 8008 bound_to 7997
  156.0897  140.1407  156.9635 H   0  0  0  0  0  0  0  0  0  0  0  0  # atno 8009 bound_to 7997
  154.4628  140.0928  156.6916 H   0  0  0  0  0  0  0  0  0  0  0  0  # atno 8010 bound_to 7997
  139.8949  144.6364  150.8699 H   0  0  0  0  0  0  0  0  0  0  0  0  # atno 10167 bound_to 10162
  157.2695  130.7201  149.6496 H   0  0  0  0  0  0  0  0  0  0  0  0  # atno 10718 bound_to 10713
  153.5691  135.7008  153.5512 H   0  0  0  0  0  0  0  0  0  0  0  0  # atno 10763 bound_to 10752
  153.3360  135.4034  155.1534 H   0  0  0  0  0  0  0  0  0  0  0  0  # atno 10764 bound_to 10752
  154.8636  135.3730  154.5213 H   0  0  0  0  0  0  0  0  0  0  0  0  # atno 10765 bound_to 10752
  140.2163  134.8229  157.3174 H   0  0  0  0  0  0  0  0  0  0  0  0  # atno 11005 bound_to 11000
  144.6804  140.2505  143.7332 LP  0  0  0  0  0  0  0  0  0  0  0  0  # atno 17320 bound_to 7965
  145.8112  139.2004  143.1992 LP  0  0  0  0  0  0  0  0  0  0  0  0  # atno 17321 bound_to 7965
  140.7719  143.3481  151.2069 LP  0  0  0  0  0  0  0  0  0  0  0  0  # atno 17342 bound_to 10162
  139.7077  143.9429  152.2934 LP  0  0  0  0  0  0  0  0  0  0  0  0  # atno 17343 bound_to 10162
  155.9663  130.4372  150.5166 LP  0  0  0  0  0  0  0  0  0  0  0  0  # atno 17370 bound_to 10713
  157.3087  131.0659  151.2016 LP  0  0  0  0  0  0  0  0  0  0  0  0  # atno 17371 bound_to 10713
  140.1897  134.4387  155.7723 LP  0  0  0  0  0  0  0  0  0  0  0  0  # atno 17394 bound_to 11000
  141.2224  133.7021  156.8006 LP  0  0  0  0  0  0  0  0  0  0  0  0  # atno 17395 bound_to 11000

$$$$
