AV-unprocessed.smi:1776|AV-procd|sdf|7176|dock1
  -GOLD-   22720 8413D 1   1.00000     0.00000
 Structure written by MMmdl.
 30 31  0  0  0  0  0  0  0  0  2 V2000
  155.4647  139.3478  158.9250 O   0  0  0  0  0  0  0  0  0  0  0  0
  154.3689  138.8154  159.1010 C   0  0  0  0  0  0  0  0  0  0  0  0
  153.2823  139.4244  159.6172 N   0  0  0  0  0  0  0  0  0  0  0  0
  153.1030  140.7461  160.0637 C   0  0  0  0  0  0  0  0  0  0  0  0
  152.4144  141.7160  159.3991 C   0  0  0  0  0  0  0  0  0  0  0  0
  152.2627  143.0666  159.9260 C   0  0  0  0  0  0  0  0  0  0  0  0
  151.5833  144.1948  159.1698 C   0  0  0  0  0  0  0  0  0  0  0  0
  150.3040  143.9083  158.9267 F   0  0  0  0  0  0  0  0  0  0  0  0
  151.6351  145.3330  159.8620 F   0  0  0  0  0  0  0  0  0  0  0  0
  152.1943  144.3906  158.0023 F   0  0  0  0  0  0  0  0  0  0  0  0
  152.9013  143.2309  161.1396 C   0  0  0  0  0  0  0  0  0  0  0  0
  153.5818  142.3229  161.8724 N   0  5  0  0  0  0  0  0  0  0  0  0
  153.7148  141.0623  161.3718 C   0  0  0  0  0  0  0  0  0  0  0  0
  154.3290  140.1886  161.9854 O   0  0  0  0  0  0  0  0  0  0  0  0
  154.1614  137.3450  158.7078 C   0  0  1  0  0  0  0  0  0  0  0  0
  154.4888  137.0567  157.2237 C   0  0  0  0  0  0  0  0  0  0  0  0
  154.3082  135.6707  156.9621 O   0  0  0  0  0  0  0  0  0  0  0  0
  155.1544  134.8750  157.7803 C   0  0  0  0  0  0  0  0  0  0  0  0
  154.8227  135.1491  159.2558 C   0  0  0  0  0  0  0  0  0  0  0  0
  155.0053  136.5330  159.5209 O   0  0  0  0  0  0  0  0  0  0  0  0
  152.4628  138.8430  159.7204 H   0  0  0  0  0  0  0  0  0  0  0  0
  151.9410  141.5177  158.4529 H   0  0  0  0  0  0  0  0  0  0  0  0
  152.8634  144.2467  161.5875 H   0  0  0  0  0  0  0  0  0  0  0  0
  153.1181  137.0946  158.9088 H   0  0  0  0  0  0  0  0  0  0  0  0
  153.8247  137.6185  156.5660 H   0  0  0  0  0  0  0  0  0  0  0  0
  155.5108  137.3514  156.9781 H   0  0  0  0  0  0  0  0  0  0  0  0
  154.9931  133.8233  157.5439 H   0  0  0  0  0  0  0  0  0  0  0  0
  156.2019  135.0958  157.5691 H   0  0  0  0  0  0  0  0  0  0  0  0
  153.7987  134.8521  159.4876 H   0  0  0  0  0  0  0  0  0  0  0  0
  155.4805  134.5725  159.9063 H   0  0  0  0  0  0  0  0  0  0  0  0
  1  2  2  0  0  0  0
  2  3  1  0  0  0  0
  2 15  1  0  0  0  0
  3  4  1  0  0  0  0
  3 21  1  0  0  0  0
  4 13  1  0  0  0  0
  4  5  2  0  0  0  0
  5  6  1  0  0  0  0
  5 22  1  0  0  0  0
  6  7  1  0  0  0  0
  6 11  2  0  0  0  0
  7  8  1  0  0  0  0
  7  9  1  0  0  0  0
  7 10  1  0  0  0  0
 11 12  1  0  0  0  0
 11 23  1  0  0  0  0
 12 13  1  0  0  0  0
 13 14  2  0  0  0  0
 15 20  1  0  0  0  0
 15 16  1  0  0  0  0
 15 24  1  0  0  0  0
 16 17  1  0  0  0  0
 16 25  1  0  0  0  0
 16 26  1  0  0  0  0
 17 18  1  0  0  0  0
 18 19  1  0  0  0  0
 18 27  1  0  0  0  0
 18 28  1  0  0  0  0
 19 20  1  0  0  0  0
 19 29  1  0  0  0  0
 19 30  1  0  0  0  0
M  CHG  1  12  -1
M  END
> <s_m_source_file>
AV-unprocessed.smi

> <i_m_source_file_index>
1776

> <i_lp_mmshare_version>
43012

> <i_f3d_flags>
0

> <s_epik_input>
TzFbQ0gyXVtDSDJdT1tDSDJdW0NASF0xQyg9TylbTkhdYzJbY0hdYyhDKEYpKEYpRilbY0hdW25IXWMyPU8=

> <s_epik_cmdline>
J2VwaWtfcHl0aG9uJywgJy1waCcsICc3LjAnLCAnLXRuJywgJzgnLCAnLW1hJywgJzIwMCcsICctbWV0YWxfYmluZGluZycsICctaW1hZScsICc8aW5maWxlLm1hZT4nLCAnLW9tYWUnLCAnPG91dGZpbGUubWFlPic=

> <r_epik_Ionization_Penalty>
2.46925

> <r_epik_Ionization_Penalty_Charging>
0.0509887

> <r_epik_Ionization_Penalty_Neutral>
2.41826

> <r_epik_State_Penalty>
2.57741

> <r_epik_Charging_Adjusted_Penalty>
2.6284

> <i_epik_Tot_Q>
-1

> <i_epik_Tot_abs_Q>
1

> <r_epik_Metal_State_Penalty>
0.510263

> <b_epik_Metal_Only>
0

> <s_lp_Force_Field>
OPLS_2005

> <r_lp_Energy>
25.1464

> <b_lp_Chiralities_Consistent>
1

> <s_lp_Variant>
AV-unprocessed.smi:1776-4

> <Gold.Version>
5.8.1

> <Gold.Id.Protein>
6NUR|6NUR_protein|mol2

> <Gold.PLP.Fitness>
41.7520

> <Gold.PLP.PLP>
-37.1931

> <Gold.PLP.part.hbond>
-2.0440

> <Gold.PLP.part.metal>
0.0000

> <Gold.PLP.part.buried>
-5.4850

> <Gold.PLP.part.nonpolar>
-30.1770

> <Gold.PLP.part.repulsive>
0.1149

> <Gold.PLP.ligand.clash>
0.0000

> <Gold.PLP.ligand.torsion>
0.7502

> <Gold.PLP.Chemscore.Hbond>
2.0000

> <Gold.PLP.Chemscore.CHOScore>
0.0000

> <Gold.PLP.Chemscore.Metal>
0.0000

> <Gold.Chemscore.Hbonds>
donor molecule, donor type, donor heavy atom, donor atom, acceptor molecule, acceptor atom, score
      P1  H  7997  8009       L1     1  1.00
      P1  H 10752 10765       L1    17  1.00

> <Gold.PLP.Chemscore.Internal.Correction>
0.0594

> <Gold.Rescore>
     Score         DG    S(hbond)    S(metal)    S(lipo)     H(rot)  DE(clash)    DE(int)     intcor
     15.27     -16.06       1.83        0.00      60.13       1.00       0.00       0.79       ----

> <Gold.Chemscore.Fitness>
15.2726

> <Gold.Chemscore.DG>
-16.0609

> <Gold.Chemscore.ZeroCoef>
-5.4800

> <Gold.Chemscore.Hbond>
1.8281

> <Gold.Chemscore.Metal>
0.0000

> <Gold.Chemscore.Lipo>
60.1275

> <Gold.Chemscore.Internal_Hbond>
0.0000

> <Gold.Chemscore.DEClash>
0.0000

> <Gold.Chemscore.DEInternal>
0.7883

> <Gold.Chemscore.Rot>
1.0000

> <Gold.Chemscore.Internal.Correction>
   9.000000E+99

> <Gold.Chemscore.Hbonds>
donor molecule, donor type, donor heavy atom, donor atom, acceptor molecule, acceptor atom, score
      P1  H  7997  8009       L1     1  0.35
      P1  H 10752 10765       L1    17  0.84

> <Gold.Chemscore.Hbond.Weighted>
-6.1060

> <Gold.Chemscore.Metal.Weighted>
-0.0000

> <Gold.Chemscore.Lipo.Weighted>
-7.0349

> <Gold.Chemscore.Internal_Hbond.Weighted>
0.0000

> <Gold.Chemscore.DEClash.Weighted>
0.0000

> <Gold.Chemscore.DEInternal.Weighted>
0.7883

> <Gold.Chemscore.Rot.Weighted>
2.5600

> <Gold.Chemscore.Internal.Correction.Weighted>
   9.000000E+99

> <Gold.Protein.RotatedTorsions>
[ 6907 6896 6895 6894 ] final    9.18 input  -60.11 | X-H torsion
[ 7974 7965 7964 7962 ] final  -48.76 input  175.53 | X-H torsion
[ 8008 7997 7996 7995 ] final  111.37 input   59.86 | X-H torsion
[ 10167 10162 10161 10158 ] final   83.88 input  -65.29 | X-H torsion
[ 10718 10713 10712 10709 ] final   79.17 input   66.30 | X-H torsion
[ 10763 10752 10751 10750 ] final  -82.58 input  -60.55 | X-H torsion
[ 11005 11000 10999 10996 ] final  174.25 input  -57.11 | X-H torsion

> <Gold.Protein.ActiveResidues>
 VAL166  LYS551  ARG553  GLY616  TRP617  ASP618  TYR619  PRO620  LYS621  CYS622 
 ASP623  PHE694  ASN695  SER759  ASP760  ASP761  ALA762  ILE779  LEU786  VAL792 
 PHE793  MET794  SER795  GLU796  ALA797  LYS798  CYS799  TRP800  GLU811  SER814 

> <Gold.Protein.RotatedAtoms>
  151.7180  135.0900  160.0278 H   0  0  0  0  0  0  0  0  0  0  0  0  # atno 6907 bound_to 6896
  152.3620  133.6304  159.6030 H   0  0  0  0  0  0  0  0  0  0  0  0  # atno 6908 bound_to 6896
  150.7611  133.9325  159.3473 H   0  0  0  0  0  0  0  0  0  0  0  0  # atno 6909 bound_to 6896
  145.9478  140.7601  142.9520 H   0  0  0  0  0  0  0  0  0  0  0  0  # atno 7974 bound_to 7965
  156.2119  140.3020  155.9752 H   0  0  0  0  0  0  0  0  0  0  0  0  # atno 8008 bound_to 7997
  155.2701  140.0433  157.3023 H   0  0  0  0  0  0  0  0  0  0  0  0  # atno 8009 bound_to 7997
  154.5712  140.2349  155.8197 H   0  0  0  0  0  0  0  0  0  0  0  0  # atno 8010 bound_to 7997
  139.9138  144.6255  150.8509 H   0  0  0  0  0  0  0  0  0  0  0  0  # atno 10167 bound_to 10162
  157.6768  130.9902  150.1893 H   0  0  0  0  0  0  0  0  0  0  0  0  # atno 10718 bound_to 10713
  154.5775  135.5586  153.7153 H   0  0  0  0  0  0  0  0  0  0  0  0  # atno 10763 bound_to 10752
  153.0069  135.6312  154.2029 H   0  0  0  0  0  0  0  0  0  0  0  0  # atno 10764 bound_to 10752
  154.1970  135.2879  155.2983 H   0  0  0  0  0  0  0  0  0  0  0  0  # atno 10765 bound_to 10752
  140.3493  134.7209  157.4257 H   0  0  0  0  0  0  0  0  0  0  0  0  # atno 11005 bound_to 11000
  144.6790  140.2384  143.7346 LP  0  0  0  0  0  0  0  0  0  0  0  0  # atno 17320 bound_to 7965
  145.8213  139.2045  143.1936 LP  0  0  0  0  0  0  0  0  0  0  0  0  # atno 17321 bound_to 7965
  140.7679  143.3346  151.2337 LP  0  0  0  0  0  0  0  0  0  0  0  0  # atno 17342 bound_to 10162
  139.6919  143.9677  152.2863 LP  0  0  0  0  0  0  0  0  0  0  0  0  # atno 17343 bound_to 10162
  156.2608  130.3710  149.8133 LP  0  0  0  0  0  0  0  0  0  0  0  0  # atno 17370 bound_to 10713
  156.5878  130.8493  151.3400 LP  0  0  0  0  0  0  0  0  0  0  0  0  # atno 17371 bound_to 10713
  140.0716  134.5854  155.8635 LP  0  0  0  0  0  0  0  0  0  0  0  0  # atno 17394 bound_to 11000
  141.2017  133.6620  156.5963 LP  0  0  0  0  0  0  0  0  0  0  0  0  # atno 17395 bound_to 11000

$$$$
