AV-unprocessed.smi:2881|AV-procd|sdf|11070|dock6
  -GOLD-   2272015543D 1   1.00000     0.00000
 Structure written by MMmdl.
 40 42  0  0  0  0  0  0  0  0  1 V2000
  152.9967  142.6233  162.5028 C   0  0  0  0  0  0  0  0  0  0  0  0
  152.4511  143.1947  161.2273 C   0  0  0  0  0  0  0  0  0  0  0  0
  152.5030  142.6329  159.9181 C   0  0  0  0  0  0  0  0  0  0  0  0
  151.8600  143.5474  159.1315 C   0  0  0  0  0  0  0  0  0  0  0  0
  151.5646  143.5542  157.6660 C   0  0  0  0  0  0  0  0  0  0  0  0
  150.8346  142.2762  157.2539 C   0  0  0  0  0  0  0  0  0  0  0  0
  151.3150  141.1770  157.5289 O   0  0  0  0  0  0  0  0  0  0  0  0
  149.6749  142.4345  156.5976 N   0  0  0  0  0  0  0  0  0  0  0  0
  148.8178  141.3470  156.1337 C   0  0  1  0  0  0  0  0  0  0  0  0
  147.3286  141.7200  156.3044 C   0  0  2  0  0  0  0  0  0  0  0  0
  146.4826  140.4383  156.1992 C   0  0  0  0  0  0  0  0  0  0  0  0
  146.5639  140.1083  154.6970 C   0  0  0  0  0  0  0  0  0  0  0  0
  147.4598  141.2367  154.1418 C   0  0  1  0  0  0  0  0  0  0  0  0
  146.9966  142.4163  154.9874 C   0  0  0  0  0  0  0  0  0  0  0  0
  148.9308  141.0976  154.6077 C   0  0  2  0  0  0  0  0  0  0  0  0
  149.6403  139.7805  154.2373 C   0  0  0  0  0  0  0  0  0  0  0  0
  151.0106  139.8481  154.5701 O   0  0  0  0  0  0  0  0  0  0  0  0
  151.4786  144.5714  159.9690 N   0  0  0  0  0  0  0  0  0  0  0  0
  151.8328  144.3660  161.2509 N   0  0  0  0  0  0  0  0  0  0  0  0
  150.9823  145.4039  159.6845 H   0  0  0  0  0  0  0  0  0  0  0  0
  153.3550  141.6042  162.3561 H   0  0  0  0  0  0  0  0  0  0  0  0
  152.2334  142.5967  163.2810 H   0  0  0  0  0  0  0  0  0  0  0  0
  153.8316  143.2185  162.8731 H   0  0  0  0  0  0  0  0  0  0  0  0
  152.9411  141.6967  159.6047 H   0  0  0  0  0  0  0  0  0  0  0  0
  152.4934  143.6383  157.1007 H   0  0  0  0  0  0  0  0  0  0  0  0
  150.9594  144.4222  157.4004 H   0  0  0  0  0  0  0  0  0  0  0  0
  149.3567  143.3749  156.4147 H   0  0  0  0  0  0  0  0  0  0  0  0
  149.0452  140.4475  156.7094 H   0  0  0  0  0  0  0  0  0  0  0  0
  147.1151  142.3013  157.2021 H   0  0  0  0  0  0  0  0  0  0  0  0
  146.8652  139.6317  156.8257 H   0  0  0  0  0  0  0  0  0  0  0  0
  145.4496  140.6282  156.4934 H   0  0  0  0  0  0  0  0  0  0  0  0
  146.9524  139.1096  154.5035 H   0  0  0  0  0  0  0  0  0  0  0  0
  145.5712  140.1582  154.2479 H   0  0  0  0  0  0  0  0  0  0  0  0
  147.3570  141.3843  153.0664 H   0  0  0  0  0  0  0  0  0  0  0  0
  145.9350  142.6433  154.8732 H   0  0  0  0  0  0  0  0  0  0  0  0
  147.5747  143.3266  154.8186 H   0  0  0  0  0  0  0  0  0  0  0  0
  149.4957  141.9133  154.1514 H   0  0  0  0  0  0  0  0  0  0  0  0
  149.1973  138.9525  154.7904 H   0  0  0  0  0  0  0  0  0  0  0  0
  149.5309  139.5398  153.1804 H   0  0  0  0  0  0  0  0  0  0  0  0
  151.0864  140.0324  155.4940 H   0  0  0  0  0  0  0  0  0  0  0  0
  1 21  1  0  0  0  0
  1 22  1  0  0  0  0
  1 23  1  0  0  0  0
  1  2  1  0  0  0  0
  2 19  2  0  0  0  0
  2  3  1  0  0  0  0
  3  4  2  0  0  0  0
  3 24  1  0  0  0  0
  4 18  1  0  0  0  0
  4  5  1  0  0  0  0
  5  6  1  0  0  0  0
  5 25  1  0  0  0  0
  5 26  1  0  0  0  0
  6  7  2  0  0  0  0
  6  8  1  0  0  0  0
  8  9  1  0  0  0  0
  8 27  1  0  0  0  0
  9 15  1  0  0  0  0
  9 10  1  0  0  0  0
  9 28  1  0  0  0  0
 10 14  1  0  0  0  0
 10 11  1  0  0  0  0
 10 29  1  0  0  0  0
 11 12  1  0  0  0  0
 11 30  1  0  0  0  0
 11 31  1  0  0  0  0
 12 13  1  0  0  0  0
 12 32  1  0  0  0  0
 12 33  1  0  0  0  0
 13 14  1  0  0  0  0
 13 15  1  0  0  0  0
 13 34  1  0  0  0  0
 14 35  1  0  0  0  0
 14 36  1  0  0  0  0
 15 16  1  0  0  0  0
 15 37  1  0  0  0  0
 16 17  1  0  0  0  0
 16 38  1  0  0  0  0
 16 39  1  0  0  0  0
 17 40  1  0  0  0  0
 18 19  1  0  0  0  0
 18 20  1  0  0  0  0
M  END
> <s_m_source_file>
AV-unprocessed.smi

> <i_m_source_file_index>
2881

> <i_lp_mmshare_version>
43012

> <i_f3d_flags>
0

> <s_epik_input>
W0NIM11jMVtjSF1jKG5bbkhdMSlbQ0gyXUMoPU8pW05IXVtDQEhdKFtDQEBIXTIzKVtDQEhdKFtDSDJdW09IXSlbQ0BASF0oW0NIMl0zKVtDSDJdW0NIMl0y

> <s_epik_cmdline>
J2VwaWtfcHl0aG9uJywgJy1waCcsICc3LjAnLCAnLXRuJywgJzgnLCAnLW1hJywgJzIwMCcsICctbWV0YWxfYmluZGluZycsICctaW1hZScsICc8aW5maWxlLm1hZT4nLCAnLW9tYWUnLCAnPG91dGZpbGUubWFlPic=

> <r_lp_tautomer_probability>
0.5

> <r_epik_Ionization_Penalty>
0.00013396

> <r_epik_Ionization_Penalty_Charging>
0

> <r_epik_Ionization_Penalty_Neutral>
0.00013396

> <r_epik_State_Penalty>
0.41068

> <r_epik_Charging_Adjusted_Penalty>
0.41068

> <i_epik_Tot_Q>
0

> <i_epik_Tot_abs_Q>
0

> <r_epik_Metal_State_Penalty>
0.41066

> <b_epik_Metal_Only>
0

> <s_lp_Force_Field>
OPLS_2005

> <r_lp_Energy>
46.6194

> <b_lp_Chiralities_Consistent>
1

> <s_lp_Variant>
AV-unprocessed.smi:2881-16

> <Gold.Version>
5.8.1

> <Gold.Id.Protein>
6NUR|6NUR_protein|mol2

> <Gold.PLP.Fitness>
43.9520

> <Gold.PLP.PLP>
-38.6810

> <Gold.PLP.part.hbond>
-2.0000

> <Gold.PLP.part.metal>
0.0000

> <Gold.PLP.part.buried>
-5.2051

> <Gold.PLP.part.nonpolar>
-32.4533

> <Gold.PLP.part.repulsive>
0.3461

> <Gold.PLP.ligand.clash>
0.0000

> <Gold.PLP.ligand.torsion>
0.3738

> <Gold.PLP.Chemscore.Hbond>
2.0000

> <Gold.PLP.Chemscore.CHOScore>
0.0000

> <Gold.PLP.Chemscore.Metal>
0.0000

> <Gold.Chemscore.Hbonds>
donor molecule, donor type, donor heavy atom, donor atom, acceptor molecule, acceptor atom, score
      L1  H     8    27       P1  8028  1.00
      P1  H  7989  7998       L1    17  1.00

> <Gold.PLP.Chemscore.Internal.Correction>
0.0187

> <Gold.Rescore>
     Score         DG    S(hbond)    S(metal)    S(lipo)     H(rot)  DE(clash)    DE(int)     intcor
     15.90     -16.38       1.78        0.00      92.08       2.28       0.15       0.32       ----

> <Gold.Chemscore.Fitness>
15.9040

> <Gold.Chemscore.DG>
-16.3828

> <Gold.Chemscore.ZeroCoef>
-5.4800

> <Gold.Chemscore.Hbond>
1.7827

> <Gold.Chemscore.Metal>
0.0000

> <Gold.Chemscore.Lipo>
92.0839

> <Gold.Chemscore.Internal_Hbond>
0.0000

> <Gold.Chemscore.DEClash>
0.1546

> <Gold.Chemscore.DEInternal>
0.3243

> <Gold.Chemscore.Rot>
2.2755

> <Gold.Chemscore.Internal.Correction>
   9.000000E+99

> <Gold.Chemscore.Hbonds>
donor molecule, donor type, donor heavy atom, donor atom, acceptor molecule, acceptor atom, score
      L1  H     8    27       P1  8028  0.99
      P1  H  7989  7998       L1    17  0.48

> <Gold.Chemscore.Hbond.Weighted>
-5.9542

> <Gold.Chemscore.Metal.Weighted>
-0.0000

> <Gold.Chemscore.Lipo.Weighted>
-10.7738

> <Gold.Chemscore.Internal_Hbond.Weighted>
0.0000

> <Gold.Chemscore.DEClash.Weighted>
0.1546

> <Gold.Chemscore.DEInternal.Weighted>
0.3243

> <Gold.Chemscore.Rot.Weighted>
5.8252

> <Gold.Chemscore.Internal.Correction.Weighted>
   9.000000E+99

> <Gold.Protein.RotatedTorsions>
[ 6907 6896 6895 6894 ] final  -67.35 input  -60.11 | X-H torsion
[ 7974 7965 7964 7962 ] final  128.78 input  175.53 | X-H torsion
[ 8008 7997 7996 7995 ] final   40.25 input   59.86 | X-H torsion
[ 10167 10162 10161 10158 ] final  170.24 input  -65.29 | X-H torsion
[ 10718 10713 10712 10709 ] final -119.27 input   66.30 | X-H torsion
[ 10763 10752 10751 10750 ] final  -91.91 input  -60.55 | X-H torsion
[ 11005 11000 10999 10996 ] final   76.41 input  -57.11 | X-H torsion

> <Gold.Protein.ActiveResidues>
 VAL166  LYS551  ARG553  GLY616  TRP617  ASP618  TYR619  PRO620  LYS621  CYS622 
 ASP623  PHE694  ASN695  SER759  ASP760  ASP761  ALA762  ILE779  LEU786  VAL792 
 PHE793  MET794  SER795  GLU796  ALA797  LYS798  CYS799  TRP800  GLU811  SER814 

> <Gold.Protein.RotatedAtoms>
  150.7414  134.5893  159.5978 H   0  0  0  0  0  0  0  0  0  0  0  0  # atno 6907 bound_to 6896
  152.3285  134.7286  160.0304 H   0  0  0  0  0  0  0  0  0  0  0  0  # atno 6908 bound_to 6896
  151.7778  133.3311  159.3499 H   0  0  0  0  0  0  0  0  0  0  0  0  # atno 6909 bound_to 6896
  145.0358  139.4006  143.5127 H   0  0  0  0  0  0  0  0  0  0  0  0  # atno 7974 bound_to 7965
  155.2501  140.3352  155.4283 H   0  0  0  0  0  0  0  0  0  0  0  0  # atno 8008 bound_to 7997
  156.2219  140.1813  156.7500 H   0  0  0  0  0  0  0  0  0  0  0  0  # atno 8009 bound_to 7997
  154.5839  140.0649  156.9128 H   0  0  0  0  0  0  0  0  0  0  0  0  # atno 8010 bound_to 7997
  139.5013  144.3618  151.9817 H   0  0  0  0  0  0  0  0  0  0  0  0  # atno 10167 bound_to 10162
  156.1169  130.6292  150.9396 H   0  0  0  0  0  0  0  0  0  0  0  0  # atno 10718 bound_to 10713
  154.6808  135.5250  153.8261 H   0  0  0  0  0  0  0  0  0  0  0  0  # atno 10763 bound_to 10752
  153.0564  135.6552  154.0578 H   0  0  0  0  0  0  0  0  0  0  0  0  # atno 10764 bound_to 10752
  154.0465  135.2973  155.3327 H   0  0  0  0  0  0  0  0  0  0  0  0  # atno 10765 bound_to 10752
  139.9300  134.7598  156.1392 H   0  0  0  0  0  0  0  0  0  0  0  0  # atno 11005 bound_to 11000
  146.3504  139.9932  142.8683 LP  0  0  0  0  0  0  0  0  0  0  0  0  # atno 17320 bound_to 7965
  145.1711  140.9721  143.4321 LP  0  0  0  0  0  0  0  0  0  0  0  0  # atno 17321 bound_to 7965
  140.3054  144.3599  150.6048 LP  0  0  0  0  0  0  0  0  0  0  0  0  # atno 17342 bound_to 10162
  140.5840  143.2171  151.7375 LP  0  0  0  0  0  0  0  0  0  0  0  0  # atno 17343 bound_to 10162
  157.6352  131.0917  150.8363 LP  0  0  0  0  0  0  0  0  0  0  0  0  # atno 17370 bound_to 10713
  156.8465  130.5065  149.5316 LP  0  0  0  0  0  0  0  0  0  0  0  0  # atno 17371 bound_to 10713
  141.0882  133.6725  156.2482 LP  0  0  0  0  0  0  0  0  0  0  0  0  # atno 17394 bound_to 11000
  140.6230  134.5342  157.5550 LP  0  0  0  0  0  0  0  0  0  0  0  0  # atno 17395 bound_to 11000

$$$$
