AV-unprocessed.smi:2032|AV-procd|sdf|8255|dock3
  -GOLD-   2272010523D 1   1.00000     0.00000
 Structure written by MMmdl.
 42 43  0  0  0  0  0  0  0  0  3 V2000
  149.4448  131.6615  154.1317 C   0  0  0  0  0  0  0  0  0  0  0  0
  148.7715  132.8663  153.4655 C   0  0  2  0  0  0  0  0  0  0  0  0
  148.2334  133.8753  154.4959 C   0  0  0  0  0  0  0  0  0  0  0  0
  147.5424  135.0096  153.8243 N   0  3  2  0  0  0  0  0  0  0  0  0
  147.1016  136.0753  154.7843 C   0  0  2  0  0  0  0  0  0  0  0  0
  146.3517  137.2438  154.0971 C   0  0  0  0  0  0  0  0  0  0  0  0
  148.3194  136.6001  155.5896 C   0  0  0  0  0  0  0  0  0  0  0  0
  147.9629  137.0681  156.9269 N   0  0  0  0  0  0  0  0  0  0  0  0
  148.3369  136.5115  158.0884 C   0  0  0  0  0  0  0  0  0  0  0  0
  149.0679  135.5186  158.0909 O   0  0  0  0  0  0  0  0  0  0  0  0
  147.8436  137.1454  159.1754 N   0  5  0  0  0  0  0  0  0  0  0  0
  147.7048  136.4798  160.3337 C   0  0  0  0  0  0  0  0  0  0  0  0
  147.6189  137.0927  161.5199 N   0  0  0  0  0  0  0  0  0  0  0  0
  147.4806  136.2097  162.5923 C   0  0  0  0  0  0  0  0  0  0  0  0
  147.4685  134.8933  162.2146 C   0  0  0  0  0  0  0  0  0  0  0  0
  147.6336  134.7222  160.4903 S   0  0  0  0  0  0  0  0  0  0  0  0
  146.4850  134.4762  152.9215 C   0  0  0  0  0  0  0  0  0  0  0  0
  147.0604  133.4323  151.9448 C   0  0  2  0  0  0  0  0  0  0  0  0
  145.9741  132.8063  151.0629 C   0  0  0  0  0  0  0  0  0  0  0  0
  147.6872  132.3900  152.6802 O   0  0  0  0  0  0  0  0  0  0  0  0
  150.2931  131.9734  154.7415 H   0  0  0  0  0  0  0  0  0  0  0  0
  149.8153  130.9599  153.3838 H   0  0  0  0  0  0  0  0  0  0  0  0
  148.7484  131.1241  154.7762 H   0  0  0  0  0  0  0  0  0  0  0  0
  149.5017  133.3547  152.8177 H   0  0  0  0  0  0  0  0  0  0  0  0
  147.5390  133.3804  155.1770 H   0  0  0  0  0  0  0  0  0  0  0  0
  149.0695  134.2238  155.0983 H   0  0  0  0  0  0  0  0  0  0  0  0
  146.3965  135.6213  155.4825 H   0  0  0  0  0  0  0  0  0  0  0  0
  146.0511  138.0090  154.8117 H   0  0  0  0  0  0  0  0  0  0  0  0
  145.4263  136.9172  153.6234 H   0  0  0  0  0  0  0  0  0  0  0  0
  146.9733  137.7274  153.3429 H   0  0  0  0  0  0  0  0  0  0  0  0
  149.0556  135.8150  155.7483 H   0  0  0  0  0  0  0  0  0  0  0  0
  148.8332  137.3773  155.0217 H   0  0  0  0  0  0  0  0  0  0  0  0
  147.3669  137.8813  156.9812 H   0  0  0  0  0  0  0  0  0  0  0  0
  147.3974  136.6069  163.5930 H   0  0  0  0  0  0  0  0  0  0  0  0
  147.3750  134.0187  162.8404 H   0  0  0  0  0  0  0  0  0  0  0  0
  145.6827  134.0389  153.5183 H   0  0  0  0  0  0  0  0  0  0  0  0
  146.0510  135.2747  152.3205 H   0  0  0  0  0  0  0  0  0  0  0  0
  147.7992  133.9067  151.2959 H   0  0  0  0  0  0  0  0  0  0  0  0
  145.4654  133.5649  150.4673 H   0  0  0  0  0  0  0  0  0  0  0  0
  145.2227  132.2938  151.6646 H   0  0  0  0  0  0  0  0  0  0  0  0
  146.4027  132.0774  150.3745 H   0  0  0  0  0  0  0  0  0  0  0  0
  148.2216  135.4486  153.2190 H   0  0  0  0  0  0  0  0  0  0  0  0
  1  2  1  0  0  0  0
  1 21  1  0  0  0  0
  1 22  1  0  0  0  0
  1 23  1  0  0  0  0
  2 20  1  0  0  0  0
  2  3  1  0  0  0  0
  2 24  1  0  0  0  0
  3  4  1  0  0  0  0
  3 25  1  0  0  0  0
  3 26  1  0  0  0  0
  4  5  1  0  0  0  0
  4 17  1  0  0  0  0
  4 42  1  0  0  0  0
  5  6  1  0  0  0  0
  5  7  1  0  0  0  0
  5 27  1  0  0  0  0
  6 28  1  0  0  0  0
  6 29  1  0  0  0  0
  6 30  1  0  0  0  0
  7  8  1  0  0  0  0
  7 31  1  0  0  0  0
  7 32  1  0  0  0  0
  8  9  1  0  0  0  0
  8 33  1  0  0  0  0
  9 10  2  0  0  0  0
  9 11  1  0  0  0  0
 11 12  1  0  0  0  0
 12 16  1  0  0  0  0
 12 13  2  0  0  0  0
 13 14  1  0  0  0  0
 14 15  2  0  0  0  0
 14 34  1  0  0  0  0
 15 16  1  0  0  0  0
 15 35  1  0  0  0  0
 17 18  1  0  0  0  0
 17 36  1  0  0  0  0
 17 37  1  0  0  0  0
 18 19  1  0  0  0  0
 18 20  1  0  0  0  0
 18 38  1  0  0  0  0
 19 39  1  0  0  0  0
 19 40  1  0  0  0  0
 19 41  1  0  0  0  0
M  CHG  1   4   1
M  CHG  1  11  -1
M  END
> <s_m_source_file>
AV-unprocessed.smi

> <i_m_source_file_index>
2032

> <i_lp_mmshare_version>
43012

> <i_f3d_flags>
0

> <s_epik_input>
W0NIM11bQ0BASF0xW0NIMl1OKFtDSDJdW0NASF0oTzEpW0NIM10pW0NASF0oW0NIM10pW0NIMl1bTkhdQyg9TylbTkhdYzJuW2NIXVtjSF1zMg==

> <s_epik_cmdline>
J2VwaWtfcHl0aG9uJywgJy1waCcsICc3LjAnLCAnLXRuJywgJzgnLCAnLW1hJywgJzIwMCcsICctbWV0YWxfYmluZGluZycsICctaW1hZScsICc8aW5maWxlLm1hZT4nLCAnLW9tYWUnLCAnPG91dGZpbGUubWFlPic=

> <r_lp_tautomer_probability>
0.999

> <r_epik_Ionization_Penalty>
6.71699

> <r_epik_Ionization_Penalty_Charging>
5.88592

> <r_epik_Ionization_Penalty_Neutral>
0.831074

> <r_epik_State_Penalty>
6.08365

> <r_epik_Charging_Adjusted_Penalty>
11.9696

> <i_epik_Tot_Q>
0

> <i_epik_Tot_abs_Q>
2

> <r_epik_Metal_State_Penalty>
2.0947

> <b_epik_Metal_Only>
1

> <s_lp_Force_Field>
OPLS_2005

> <r_lp_Energy>
9.66165

> <b_lp_Chiralities_Consistent>
1

> <s_lp_Variant>
AV-unprocessed.smi:2032-25

> <Gold.Version>
5.8.1

> <Gold.Id.Protein>
6NUR|6NUR_protein|mol2

> <Gold.PLP.Fitness>
41.5590

> <Gold.PLP.PLP>
-31.2126

> <Gold.PLP.part.hbond>
-3.0692

> <Gold.PLP.part.metal>
0.0000

> <Gold.PLP.part.buried>
-3.6821

> <Gold.PLP.part.nonpolar>
-23.7633

> <Gold.PLP.part.repulsive>
0.1475

> <Gold.PLP.ligand.clash>
0.0000

> <Gold.PLP.ligand.torsion>
0.5761

> <Gold.PLP.Chemscore.Hbond>
3.8089

> <Gold.PLP.Chemscore.CHOScore>
0.0000

> <Gold.PLP.Chemscore.Metal>
0.0000

> <Gold.Chemscore.Hbonds>
donor molecule, donor type, donor heavy atom, donor atom, acceptor molecule, acceptor atom, score
      L1  H     4    42       P1  7948  2.00
      P1  H  6931  6943       L1    13  1.00
      P1  H  6934  6947       L1    13  0.76

> <Gold.PLP.Chemscore.Internal.Correction>
0.0720

> <Gold.Rescore>
     Score         DG    S(hbond)    S(metal)    S(lipo)     H(rot)  DE(clash)    DE(int)     intcor
     14.43     -15.35       1.97        0.00      62.55       1.58       0.06       0.85       ----

> <Gold.Chemscore.Fitness>
14.4348

> <Gold.Chemscore.DG>
-15.3504

> <Gold.Chemscore.ZeroCoef>
-5.4800

> <Gold.Chemscore.Hbond>
1.9745

> <Gold.Chemscore.Metal>
0.0000

> <Gold.Chemscore.Lipo>
62.5480

> <Gold.Chemscore.Internal_Hbond>
0.0000

> <Gold.Chemscore.DEClash>
0.0646

> <Gold.Chemscore.DEInternal>
0.8509

> <Gold.Chemscore.Rot>
1.5791

> <Gold.Chemscore.Internal.Correction>
   9.000000E+99

> <Gold.Chemscore.Hbonds>
donor molecule, donor type, donor heavy atom, donor atom, acceptor molecule, acceptor atom, score
      L1  H     4    42       P1  7948  1.00
      P1  H  6931  6943       L1    13  0.56
      P1  H  6934  6947       L1    13  0.22

> <Gold.Chemscore.Hbond.Weighted>
-6.5947

> <Gold.Chemscore.Metal.Weighted>
-0.0000

> <Gold.Chemscore.Lipo.Weighted>
-7.3181

> <Gold.Chemscore.Internal_Hbond.Weighted>
0.0000

> <Gold.Chemscore.DEClash.Weighted>
0.0646

> <Gold.Chemscore.DEInternal.Weighted>
0.8509

> <Gold.Chemscore.Rot.Weighted>
4.0425

> <Gold.Chemscore.Internal.Correction.Weighted>
   9.000000E+99

> <Gold.Protein.RotatedTorsions>
[ 6907 6896 6895 6894 ] final -140.32 input  -60.11 | X-H torsion
[ 7974 7965 7964 7962 ] final   74.23 input  175.53 | X-H torsion
[ 8008 7997 7996 7995 ] final   29.33 input   59.86 | X-H torsion
[ 10167 10162 10161 10158 ] final  -28.54 input  -65.29 | X-H torsion
[ 10718 10713 10712 10709 ] final  -96.60 input   66.30 | X-H torsion
[ 10763 10752 10751 10750 ] final   15.82 input  -60.55 | X-H torsion
[ 11005 11000 10999 10996 ] final  134.87 input  -57.11 | X-H torsion

> <Gold.Protein.ActiveResidues>
 VAL166  LYS551  ARG553  GLY616  TRP617  ASP618  TYR619  PRO620  LYS621  CYS622 
 ASP623  PHE694  ASN695  SER759  ASP760  ASP761  ALA762  ILE779  LEU786  VAL792 
 PHE793  MET794  SER795  GLU796  ALA797  LYS798  CYS799  TRP800  GLU811  SER814 

> <Gold.Protein.RotatedAtoms>
  151.0591  133.5559  159.2635 H   0  0  0  0  0  0  0  0  0  0  0  0  # atno 6907 bound_to 6896
  151.2541  135.0631  159.9083 H   0  0  0  0  0  0  0  0  0  0  0  0  # atno 6908 bound_to 6896
  152.5394  134.0347  159.8094 H   0  0  0  0  0  0  0  0  0  0  0  0  # atno 6909 bound_to 6896
  145.7309  139.2683  143.1542 H   0  0  0  0  0  0  0  0  0  0  0  0  # atno 7974 bound_to 7965
  155.0728  140.3202  155.4625 H   0  0  0  0  0  0  0  0  0  0  0  0  # atno 8008 bound_to 7997
  156.2786  140.2109  156.5801 H   0  0  0  0  0  0  0  0  0  0  0  0  # atno 8009 bound_to 7997
  154.7041  140.0504  157.0474 H   0  0  0  0  0  0  0  0  0  0  0  0  # atno 8010 bound_to 7997
  140.7269  143.4001  151.1279 H   0  0  0  0  0  0  0  0  0  0  0  0  # atno 10167 bound_to 10162
  156.0065  130.5158  150.6250 H   0  0  0  0  0  0  0  0  0  0  0  0  # atno 10718 bound_to 10713
  153.1489  135.6774  153.8913 H   0  0  0  0  0  0  0  0  0  0  0  0  # atno 10763 bound_to 10752
  153.8345  135.3113  155.3422 H   0  0  0  0  0  0  0  0  0  0  0  0  # atno 10764 bound_to 10752
  154.7846  135.4869  154.0005 H   0  0  0  0  0  0  0  0  0  0  0  0  # atno 10765 bound_to 10752
  139.9943  134.9503  156.9927 H   0  0  0  0  0  0  0  0  0  0  0  0  # atno 11005 bound_to 11000
  146.0539  140.8041  142.9768 LP  0  0  0  0  0  0  0  0  0  0  0  0  # atno 17320 bound_to 7965
  144.6893  140.3094  143.7250 LP  0  0  0  0  0  0  0  0  0  0  0  0  # atno 17321 bound_to 7965
  139.7620  143.8621  152.3102 LP  0  0  0  0  0  0  0  0  0  0  0  0  # atno 17342 bound_to 10162
  139.8510  144.7164  150.9214 LP  0  0  0  0  0  0  0  0  0  0  0  0  # atno 17343 bound_to 10162
  157.4058  131.0816  151.1266 LP  0  0  0  0  0  0  0  0  0  0  0  0  # atno 17370 bound_to 10713
  157.1913  130.6353  149.5705 LP  0  0  0  0  0  0  0  0  0  0  0  0  # atno 17371 bound_to 10713
  140.4849  134.1252  155.7223 LP  0  0  0  0  0  0  0  0  0  0  0  0  # atno 17394 bound_to 11000
  141.1591  133.8826  157.1896 LP  0  0  0  0  0  0  0  0  0  0  0  0  # atno 17395 bound_to 11000

$$$$
