AV-unprocessed.smi:1213|AV-procd|sdf|5087|dock8
  -GOLD-   22720 4143D 1   1.00000     0.00000
 Structure written by MMmdl.
 35 36  0  0  0  0  0  0  0  0  2 V2000
  147.9389  138.6778  152.2313 N   0  0  0  0  0  0  0  0  0  0  0  0
  147.3639  139.0868  153.3651 C   0  0  0  0  0  0  0  0  0  0  0  0
  146.8356  138.3065  154.1539 O   0  0  0  0  0  0  0  0  0  0  0  0
  147.3760  140.5931  153.6502 C   0  0  0  0  0  0  0  0  0  0  0  0
  148.2300  141.0022  154.7893 N   0  0  0  0  0  0  0  0  0  0  0  0
  149.6491  140.6837  154.5699 C   0  0  0  0  0  0  0  0  0  0  0  0
  150.5055  141.1843  155.7468 C   0  0  0  0  0  0  0  0  0  0  0  0
  150.0377  140.5743  157.0753 C   0  0  0  0  0  0  0  0  0  0  0  0
  150.7949  141.1520  158.1825 N   0  0  0  0  0  0  0  0  0  0  0  0
  152.0941  140.9455  158.4427 C   0  0  0  0  0  0  0  0  0  0  0  0
  152.7593  140.2070  157.7124 O   0  0  0  0  0  0  0  0  0  0  0  0
  152.5419  141.6084  159.5335 N   0  5  0  0  0  0  0  0  0  0  0  0
  152.3087  142.9247  159.6627 C   0  0  0  0  0  0  0  0  0  0  0  0
  152.1205  143.5192  160.8465 N   0  0  0  0  0  0  0  0  0  0  0  0
  151.8880  144.8922  160.7477 C   0  0  0  0  0  0  0  0  0  0  0  0
  151.8898  145.3524  159.4576 C   0  0  0  0  0  0  0  0  0  0  0  0
  152.1853  144.0672  158.3216 S   0  0  0  0  0  0  0  0  0  0  0  0
  148.5324  140.8390  157.2396 C   0  0  0  0  0  0  0  0  0  0  0  0
  147.7479  140.3478  156.0107 C   0  0  0  0  0  0  0  0  0  0  0  0
  147.9629  137.6939  152.0058 H   0  0  0  0  0  0  0  0  0  0  0  0
  148.3554  139.3552  151.6087 H   0  0  0  0  0  0  0  0  0  0  0  0
  147.7187  141.0903  152.7415 H   0  0  0  0  0  0  0  0  0  0  0  0
  146.3516  140.9306  153.8190 H   0  0  0  0  0  0  0  0  0  0  0  0
  149.7772  139.6076  154.4404 H   0  0  0  0  0  0  0  0  0  0  0  0
  150.0186  141.1563  153.6600 H   0  0  0  0  0  0  0  0  0  0  0  0
  151.5529  140.9353  155.5716 H   0  0  0  0  0  0  0  0  0  0  0  0
  150.4511  142.2733  155.7958 H   0  0  0  0  0  0  0  0  0  0  0  0
  150.2130  139.4974  157.0393 H   0  0  0  0  0  0  0  0  0  0  0  0
  150.2910  141.7628  158.8089 H   0  0  0  0  0  0  0  0  0  0  0  0
  151.7299  145.4649  161.6493 H   0  0  0  0  0  0  0  0  0  0  0  0
  151.7352  146.3617  159.1074 H   0  0  0  0  0  0  0  0  0  0  0  0
  148.1583  140.3416  158.1352 H   0  0  0  0  0  0  0  0  0  0  0  0
  148.3541  141.9062  157.3822 H   0  0  0  0  0  0  0  0  0  0  0  0
  146.6905  140.5723  156.1575 H   0  0  0  0  0  0  0  0  0  0  0  0
  147.8316  139.2632  155.9200 H   0  0  0  0  0  0  0  0  0  0  0  0
  1  2  1  0  0  0  0
  1 20  1  0  0  0  0
  1 21  1  0  0  0  0
  2  3  2  0  0  0  0
  2  4  1  0  0  0  0
  4  5  1  0  0  0  0
  4 22  1  0  0  0  0
  4 23  1  0  0  0  0
  5 19  1  0  0  0  0
  5  6  1  0  0  0  0
  6  7  1  0  0  0  0
  6 24  1  0  0  0  0
  6 25  1  0  0  0  0
  7  8  1  0  0  0  0
  7 26  1  0  0  0  0
  7 27  1  0  0  0  0
  8  9  1  0  0  0  0
  8 18  1  0  0  0  0
  8 28  1  0  0  0  0
  9 10  1  0  0  0  0
  9 29  1  0  0  0  0
 10 11  2  0  0  0  0
 10 12  1  0  0  0  0
 12 13  1  0  0  0  0
 13 17  1  0  0  0  0
 13 14  2  0  0  0  0
 14 15  1  0  0  0  0
 15 16  2  0  0  0  0
 15 30  1  0  0  0  0
 16 17  1  0  0  0  0
 16 31  1  0  0  0  0
 18 19  1  0  0  0  0
 18 32  1  0  0  0  0
 18 33  1  0  0  0  0
 19 34  1  0  0  0  0
 19 35  1  0  0  0  0
M  CHG  1  12  -1
M  END
> <s_m_source_file>
AV-unprocessed.smi

> <i_m_source_file_index>
1213

> <i_lp_mmshare_version>
43012

> <i_f3d_flags>
0

> <s_epik_input>
W05IMl1DKD1PKVtDSDJdTjFbQ0gyXVtDSDJdW0NIXShbQ0gyXVtDSDJdMSlbTkhdQyg9TylbTkhdYzJuW2NIXVtjSF1zMg==

> <s_epik_cmdline>
J2VwaWtfcHl0aG9uJywgJy1waCcsICc3LjAnLCAnLXRuJywgJzgnLCAnLW1hJywgJzIwMCcsICctbWV0YWxfYmluZGluZycsICctaW1hZScsICc8aW5maWxlLm1hZT4nLCAnLW9tYWUnLCAnPG91dGZpbGUubWFlPic=

> <r_lp_tautomer_probability>
0.999

> <r_epik_Ionization_Penalty>
7.12626

> <r_epik_Ionization_Penalty_Charging>
5.84953

> <r_epik_Ionization_Penalty_Neutral>
1.27674

> <r_epik_State_Penalty>
5.99619

> <r_epik_Charging_Adjusted_Penalty>
11.8457

> <i_epik_Tot_Q>
-1

> <i_epik_Tot_abs_Q>
1

> <r_epik_Metal_State_Penalty>
1.98285

> <b_epik_Metal_Only>
1

> <s_lp_Force_Field>
OPLS_2005

> <r_lp_Energy>
7.2689

> <b_lp_Chiralities_Consistent>
1

> <s_lp_Variant>
AV-unprocessed.smi:1213-4

> <Gold.Version>
5.8.1

> <Gold.Id.Protein>
6NUR|6NUR_protein|mol2

> <Gold.PLP.Fitness>
42.5178

> <Gold.PLP.PLP>
-35.4946

> <Gold.PLP.part.hbond>
-2.7575

> <Gold.PLP.part.metal>
0.0000

> <Gold.PLP.part.buried>
-4.6329

> <Gold.PLP.part.nonpolar>
-28.7994

> <Gold.PLP.part.repulsive>
0.5308

> <Gold.PLP.ligand.clash>
0.0000

> <Gold.PLP.ligand.torsion>
0.8230

> <Gold.PLP.Chemscore.Hbond>
2.8800

> <Gold.PLP.Chemscore.CHOScore>
0.0000

> <Gold.PLP.Chemscore.Metal>
0.0000

> <Gold.Chemscore.Hbonds>
donor molecule, donor type, donor heavy atom, donor atom, acceptor molecule, acceptor atom, score
      L1  H     1    20       P1  7948  0.93
      L1  H     1    21       P1  7957  0.80
      P1  H  7997  8010       L1    11  0.98

> <Gold.PLP.Chemscore.Internal.Correction>
0.0292

> <Gold.Rescore>
     Score         DG    S(hbond)    S(metal)    S(lipo)     H(rot)  DE(clash)    DE(int)     intcor
     15.56     -17.62       2.82        0.00      67.20       2.01       0.02       2.05       ----

> <Gold.Chemscore.Fitness>
15.5608

> <Gold.Chemscore.DG>
-17.6245

> <Gold.Chemscore.ZeroCoef>
-5.4800

> <Gold.Chemscore.Hbond>
2.8233

> <Gold.Chemscore.Metal>
0.0000

> <Gold.Chemscore.Lipo>
67.1980

> <Gold.Chemscore.Internal_Hbond>
0.0000

> <Gold.Chemscore.DEClash>
0.0174

> <Gold.Chemscore.DEInternal>
2.0462

> <Gold.Chemscore.Rot>
2.0107

> <Gold.Chemscore.Internal.Correction>
   9.000000E+99

> <Gold.Chemscore.Hbonds>
donor molecule, donor type, donor heavy atom, donor atom, acceptor molecule, acceptor atom, score
      L1  H     1    20       P1  7948  0.90
      L1  H     1    21       P1  7957  0.72
      P1  H  7997  8010       L1    11  0.93

> <Gold.Chemscore.Hbond.Weighted>
-9.4298

> <Gold.Chemscore.Metal.Weighted>
-0.0000

> <Gold.Chemscore.Lipo.Weighted>
-7.8622

> <Gold.Chemscore.Internal_Hbond.Weighted>
0.0000

> <Gold.Chemscore.DEClash.Weighted>
0.0174

> <Gold.Chemscore.DEInternal.Weighted>
2.0462

> <Gold.Chemscore.Rot.Weighted>
5.1474

> <Gold.Chemscore.Internal.Correction.Weighted>
   9.000000E+99

> <Gold.Protein.RotatedTorsions>
[ 6907 6896 6895 6894 ] final -147.83 input  -60.11 | X-H torsion
[ 7974 7965 7964 7962 ] final   82.82 input  175.53 | X-H torsion
[ 8008 7997 7996 7995 ] final   43.85 input   59.86 | X-H torsion
[ 10167 10162 10161 10158 ] final  -45.41 input  -65.29 | X-H torsion
[ 10718 10713 10712 10709 ] final  124.14 input   66.30 | X-H torsion
[ 10763 10752 10751 10750 ] final  151.15 input  -60.55 | X-H torsion
[ 11005 11000 10999 10996 ] final   99.07 input  -57.11 | X-H torsion

> <Gold.Protein.ActiveResidues>
 VAL166  LYS551  ARG553  GLY616  TRP617  ASP618  TYR619  PRO620  LYS621  CYS622 
 ASP623  PHE694  ASN695  SER759  ASP760  ASP761  ALA762  ILE779  LEU786  VAL792 
 PHE793  MET794  SER795  GLU796  ALA797  LYS798  CYS799  TRP800  GLU811  SER814 

> <Gold.Protein.RotatedAtoms>
  151.1611  133.4844  159.2594 H   0  0  0  0  0  0  0  0  0  0  0  0  # atno 6907 bound_to 6896
  151.1453  135.0200  159.8654 H   0  0  0  0  0  0  0  0  0  0  0  0  # atno 6908 bound_to 6896
  152.5463  134.1501  159.8568 H   0  0  0  0  0  0  0  0  0  0  0  0  # atno 6909 bound_to 6896
  145.6200  139.2384  143.2144 H   0  0  0  0  0  0  0  0  0  0  0  0  # atno 7974 bound_to 7965
  155.3095  140.3390  155.4244 H   0  0  0  0  0  0  0  0  0  0  0  0  # atno 8008 bound_to 7997
  156.1962  140.1716  156.8030 H   0  0  0  0  0  0  0  0  0  0  0  0  # atno 8009 bound_to 7997
  154.5502  140.0707  156.8639 H   0  0  0  0  0  0  0  0  0  0  0  0  # atno 8010 bound_to 7997
  140.6859  143.2881  151.3635 H   0  0  0  0  0  0  0  0  0  0  0  0  # atno 10167 bound_to 10162
  157.5609  131.1089  150.8540 H   0  0  0  0  0  0  0  0  0  0  0  0  # atno 10718 bound_to 10713
  154.0991  135.2847  155.3255 H   0  0  0  0  0  0  0  0  0  0  0  0  # atno 10763 bound_to 10752
  154.6568  135.5349  153.7972 H   0  0  0  0  0  0  0  0  0  0  0  0  # atno 10764 bound_to 10752
  153.0385  135.6524  154.1155 H   0  0  0  0  0  0  0  0  0  0  0  0  # atno 10765 bound_to 10752
  139.8771  134.9079  156.4551 H   0  0  0  0  0  0  0  0  0  0  0  0  # atno 11005 bound_to 11000
  146.1438  140.7021  142.9354 LP  0  0  0  0  0  0  0  0  0  0  0  0  # atno 17320 bound_to 7965
  144.7235  140.4450  143.6990 LP  0  0  0  0  0  0  0  0  0  0  0  0  # atno 17321 bound_to 7965
  139.6217  144.0894  152.2397 LP  0  0  0  0  0  0  0  0  0  0  0  0  # atno 17342 bound_to 10162
  140.0340  144.6059  150.7465 LP  0  0  0  0  0  0  0  0  0  0  0  0  # atno 17343 bound_to 10162
  156.9038  130.5256  149.5282 LP  0  0  0  0  0  0  0  0  0  0  0  0  # atno 17370 bound_to 10713
  156.0662  130.5704  150.9292 LP  0  0  0  0  0  0  0  0  0  0  0  0  # atno 17371 bound_to 10713
  140.8904  133.7852  155.9565 LP  0  0  0  0  0  0  0  0  0  0  0  0  # atno 17394 bound_to 11000
  140.8760  134.2669  157.5168 LP  0  0  0  0  0  0  0  0  0  0  0  0  # atno 17395 bound_to 11000

$$$$
