AV-unprocessed.smi:3029|AV-procd|sdf|11529|dock9
  -GOLD-   2272016473D 1   1.00000     0.00000
 Structure written by MMmdl.
 41 42  0  0  0  0  0  0  0  0  3 V2000
  150.2027  140.1676  154.0620 O   0  0  0  0  0  0  0  0  0  0  0  0
  150.6670  139.3381  154.8442 C   0  0  0  0  0  0  0  0  0  0  0  0
  151.1456  138.0271  154.3933 C   0  0  0  0  0  0  0  0  0  0  0  0
  151.6668  137.1294  155.2526 C   0  0  0  0  0  0  0  0  0  0  0  0
  151.7738  137.4396  156.6652 C   0  0  0  0  0  0  0  0  0  0  0  0
  152.3458  136.4893  157.5935 N   0  3  0  0  0  0  0  0  0  0  0  0
  152.2560  136.7056  158.7983 O   0  0  0  0  0  0  0  0  0  0  0  0
  152.9045  135.4930  157.1458 O   0  5  0  0  0  0  0  0  0  0  0  0
  151.3270  138.6420  157.0781 C   0  0  0  0  0  0  0  0  0  0  0  0
  150.7709  139.5793  156.1863 N   0  0  0  0  0  0  0  0  0  0  0  0
  150.3189  140.8548  156.7562 C   0  0  0  0  0  0  0  0  0  0  0  0
  151.4752  141.5964  157.4440 C   0  0  0  0  0  0  0  0  0  0  0  0
  150.9696  142.3148  158.6028 N   0  0  0  0  0  0  0  0  0  0  0  0
  152.0455  142.6467  159.5293 C   0  0  2  0  0  0  0  0  0  0  0  0
  152.7039  141.3097  159.9279 C   0  0  0  0  0  0  0  0  0  0  0  0
  153.8003  141.5048  160.9816 C   0  0  0  0  0  0  0  0  0  0  0  0
  153.2379  142.2148  162.2176 C   0  0  0  0  0  0  0  0  0  0  0  0
  152.6042  143.5592  161.8334 C   0  0  0  0  0  0  0  0  0  0  0  0
  151.4921  143.4109  160.7674 C   0  0  1  0  0  0  0  0  0  0  0  0
  150.8966  144.8005  160.4226 C   0  0  0  0  0  0  0  0  0  0  0  0
  150.0972  145.2243  161.4021 F   0  0  0  0  0  0  0  0  0  0  0  0
  151.8536  145.7069  160.2254 F   0  0  0  0  0  0  0  0  0  0  0  0
  150.1863  144.7236  159.2968 F   0  0  0  0  0  0  0  0  0  0  0  0
  151.0764  137.7758  153.3451 H   0  0  0  0  0  0  0  0  0  0  0  0
  152.0047  136.1762  154.8731 H   0  0  0  0  0  0  0  0  0  0  0  0
  151.3673  138.9714  158.1065 H   0  0  0  0  0  0  0  0  0  0  0  0
  149.8791  141.4833  155.9792 H   0  0  0  0  0  0  0  0  0  0  0  0
  149.5125  140.6827  157.4713 H   0  0  0  0  0  0  0  0  0  0  0  0
  152.2449  140.8903  157.7586 H   0  0  0  0  0  0  0  0  0  0  0  0
  151.9379  142.2986  156.7495 H   0  0  0  0  0  0  0  0  0  0  0  0
  150.2761  141.7510  159.0734 H   0  0  0  0  0  0  0  0  0  0  0  0
  152.8005  143.2657  159.0408 H   0  0  0  0  0  0  0  0  0  0  0  0
  151.9508  140.6255  160.3228 H   0  0  0  0  0  0  0  0  0  0  0  0
  153.1296  140.8249  159.0482 H   0  0  0  0  0  0  0  0  0  0  0  0
  154.2206  140.5396  161.2652 H   0  0  0  0  0  0  0  0  0  0  0  0
  154.6188  142.0893  160.5594 H   0  0  0  0  0  0  0  0  0  0  0  0
  152.4935  141.5809  162.7013 H   0  0  0  0  0  0  0  0  0  0  0  0
  154.0315  142.3734  162.9483 H   0  0  0  0  0  0  0  0  0  0  0  0
  152.2031  144.0279  162.7324 H   0  0  0  0  0  0  0  0  0  0  0  0
  153.3813  144.2282  161.4616 H   0  0  0  0  0  0  0  0  0  0  0  0
  150.6961  142.8099  161.2106 H   0  0  0  0  0  0  0  0  0  0  0  0
  1  2  2  0  0  0  0
  2 10  1  0  0  0  0
  2  3  1  0  0  0  0
  3  4  2  0  0  0  0
  3 24  1  0  0  0  0
  4  5  1  0  0  0  0
  4 25  1  0  0  0  0
  5  6  1  0  0  0  0
  5  9  2  0  0  0  0
  6  7  2  0  0  0  0
  6  8  1  0  0  0  0
  9 10  1  0  0  0  0
  9 26  1  0  0  0  0
 10 11  1  0  0  0  0
 11 12  1  0  0  0  0
 11 27  1  0  0  0  0
 11 28  1  0  0  0  0
 12 13  1  0  0  0  0
 12 29  1  0  0  0  0
 12 30  1  0  0  0  0
 13 14  1  0  0  0  0
 13 31  1  0  0  0  0
 14 19  1  0  0  0  0
 14 15  1  0  0  0  0
 14 32  1  0  0  0  0
 15 16  1  0  0  0  0
 15 33  1  0  0  0  0
 15 34  1  0  0  0  0
 16 17  1  0  0  0  0
 16 35  1  0  0  0  0
 16 36  1  0  0  0  0
 17 18  1  0  0  0  0
 17 37  1  0  0  0  0
 17 38  1  0  0  0  0
 18 19  1  0  0  0  0
 18 39  1  0  0  0  0
 18 40  1  0  0  0  0
 19 20  1  0  0  0  0
 19 41  1  0  0  0  0
 20 21  1  0  0  0  0
 20 22  1  0  0  0  0
 20 23  1  0  0  0  0
M  CHG  1   6   1
M  CHG  1   8  -1
M  END
> <s_m_source_file>
AV-unprocessed.smi

> <i_m_source_file_index>
3029

> <i_lp_mmshare_version>
43012

> <i_f3d_flags>
0

> <s_epik_input>
Tz1jMVtjSF1bY0hdYyhbTitdKD1PKVtPLV0pW2NIXW4xW0NIMl1bQ0gyXVtOSF1bQ0BASF0yW0NIMl1bQ0gyXVtDSDJdW0NIMl1bQ0BIXTJDKEYpKEYpRg==

> <s_epik_cmdline>
J2VwaWtfcHl0aG9uJywgJy1waCcsICc3LjAnLCAnLXRuJywgJzgnLCAnLW1hJywgJzIwMCcsICctbWV0YWxfYmluZGluZycsICctaW1hZScsICc8aW5maWxlLm1hZT4nLCAnLW9tYWUnLCAnPG91dGZpbGUubWFlPic=

> <r_lp_tautomer_probability>
1

> <r_epik_Ionization_Penalty>
1.65565

> <r_epik_Ionization_Penalty_Charging>
3.32684e-10

> <r_epik_Ionization_Penalty_Neutral>
1.65565

> <r_epik_State_Penalty>
1.75811

> <r_epik_Charging_Adjusted_Penalty>
1.75811

> <i_epik_Tot_Q>
0

> <i_epik_Tot_abs_Q>
2

> <r_epik_Metal_State_Penalty>
1.75811

> <b_epik_Metal_Only>
0

> <s_lp_Force_Field>
OPLS_2005

> <r_lp_Energy>
33.0444

> <b_lp_Chiralities_Consistent>
1

> <s_lp_Variant>
AV-unprocessed.smi:3029-5

> <Gold.Version>
5.8.1

> <Gold.Id.Protein>
6NUR|6NUR_protein|mol2

> <Gold.PLP.Fitness>
48.2775

> <Gold.PLP.PLP>
-41.2844

> <Gold.PLP.part.hbond>
-3.0000

> <Gold.PLP.part.metal>
0.0000

> <Gold.PLP.part.buried>
0.4592

> <Gold.PLP.part.nonpolar>
-39.9444

> <Gold.PLP.part.repulsive>
0.8586

> <Gold.PLP.ligand.clash>
0.0000

> <Gold.PLP.ligand.torsion>
0.7614

> <Gold.PLP.Chemscore.Hbond>
2.8247

> <Gold.PLP.Chemscore.CHOScore>
0.0000

> <Gold.PLP.Chemscore.Metal>
0.0000

> <Gold.Chemscore.Hbonds>
donor molecule, donor type, donor heavy atom, donor atom, acceptor molecule, acceptor atom, score
      P1  H  6896  6908       L1     7  0.76
      P1  H  7989  7998       L1     1  0.94
      P1  H 10752 10764       L1     8  1.00

> <Gold.PLP.Chemscore.Internal.Correction>
0.0417

> <Gold.Rescore>
     Score         DG    S(hbond)    S(metal)    S(lipo)     H(rot)  DE(clash)    DE(int)     intcor
     17.76     -21.89       2.52        0.00     109.14       1.86       2.29       1.85       ----

> <Gold.Chemscore.Fitness>
17.7551

> <Gold.Chemscore.DG>
-21.8919

> <Gold.Chemscore.ZeroCoef>
-5.4800

> <Gold.Chemscore.Hbond>
2.5150

> <Gold.Chemscore.Metal>
0.0000

> <Gold.Chemscore.Lipo>
109.1391

> <Gold.Chemscore.Internal_Hbond>
0.0000

> <Gold.Chemscore.DEClash>
2.2898

> <Gold.Chemscore.DEInternal>
1.8470

> <Gold.Chemscore.Rot>
1.8584

> <Gold.Chemscore.Internal.Correction>
   9.000000E+99

> <Gold.Chemscore.Hbonds>
donor molecule, donor type, donor heavy atom, donor atom, acceptor molecule, acceptor atom, score
      P1  H  6896  6908       L1     7  0.68
      P1  H  7989  7998       L1     1  0.27
      P1  H 10752 10764       L1     8  0.99

> <Gold.Chemscore.Hbond.Weighted>
-8.4002

> <Gold.Chemscore.Metal.Weighted>
-0.0000

> <Gold.Chemscore.Lipo.Weighted>
-12.7693

> <Gold.Chemscore.Internal_Hbond.Weighted>
0.0000

> <Gold.Chemscore.DEClash.Weighted>
2.2898

> <Gold.Chemscore.DEInternal.Weighted>
1.8470

> <Gold.Chemscore.Rot.Weighted>
4.7576

> <Gold.Chemscore.Internal.Correction.Weighted>
   9.000000E+99

> <Gold.Protein.RotatedTorsions>
[ 6907 6896 6895 6894 ] final -103.10 input  -60.11 | X-H torsion
[ 7974 7965 7964 7962 ] final  111.03 input  175.53 | X-H torsion
[ 8008 7997 7996 7995 ] final -107.99 input   59.86 | X-H torsion
[ 10167 10162 10161 10158 ] final  -17.16 input  -65.29 | X-H torsion
[ 10718 10713 10712 10709 ] final  179.84 input   66.30 | X-H torsion
[ 10763 10752 10751 10750 ] final   10.95 input  -60.55 | X-H torsion
[ 11005 11000 10999 10996 ] final   90.01 input  -57.11 | X-H torsion

> <Gold.Protein.ActiveResidues>
 VAL166  LYS551  ARG553  GLY616  TRP617  ASP618  TYR619  PRO620  LYS621  CYS622 
 ASP623  PHE694  ASN695  SER759  ASP760  ASP761  ALA762  ILE779  LEU786  VAL792 
 PHE793  MET794  SER795  GLU796  ALA797  LYS798  CYS799  TRP800  GLU811  SER814 

> <Gold.Protein.RotatedAtoms>
  150.7225  134.0481  159.3788 H   0  0  0  0  0  0  0  0  0  0  0  0  # atno 6907 bound_to 6896
  151.8457  135.0573  160.0462 H   0  0  0  0  0  0  0  0  0  0  0  0  # atno 6908 bound_to 6896
  152.2829  133.5451  159.5545 H   0  0  0  0  0  0  0  0  0  0  0  0  # atno 6909 bound_to 6896
  145.2474  139.2754  143.4086 H   0  0  0  0  0  0  0  0  0  0  0  0  # atno 7974 bound_to 7965
  154.9376  140.0403  157.2080 H   0  0  0  0  0  0  0  0  0  0  0  0  # atno 8008 bound_to 7997
  154.8100  140.2866  155.5838 H   0  0  0  0  0  0  0  0  0  0  0  0  # atno 8009 bound_to 7997
  156.2970  140.2539  156.2986 H   0  0  0  0  0  0  0  0  0  0  0  0  # atno 8010 bound_to 7997
  140.7243  143.5044  150.9829 H   0  0  0  0  0  0  0  0  0  0  0  0  # atno 10167 bound_to 10162
  156.8698  130.9780  151.3074 H   0  0  0  0  0  0  0  0  0  0  0  0  # atno 10718 bound_to 10713
  153.1978  135.6851  153.8270 H   0  0  0  0  0  0  0  0  0  0  0  0  # atno 10763 bound_to 10752
  153.7547  135.3219  155.3328 H   0  0  0  0  0  0  0  0  0  0  0  0  # atno 10764 bound_to 10752
  154.8154  135.4689  154.0730 H   0  0  0  0  0  0  0  0  0  0  0  0  # atno 10765 bound_to 10752
  139.8864  134.8587  156.3224 H   0  0  0  0  0  0  0  0  0  0  0  0  # atno 11005 bound_to 11000
  146.3312  140.2854  142.8612 LP  0  0  0  0  0  0  0  0  0  0  0  0  # atno 17320 bound_to 7965
  144.9534  140.8202  143.5558 LP  0  0  0  0  0  0  0  0  0  0  0  0  # atno 17321 bound_to 7965
  139.8754  143.7139  152.3162 LP  0  0  0  0  0  0  0  0  0  0  0  0  # atno 17342 bound_to 10162
  139.7402  144.7561  151.0664 LP  0  0  0  0  0  0  0  0  0  0  0  0  # atno 17343 bound_to 10162
  157.6202  130.8649  149.9096 LP  0  0  0  0  0  0  0  0  0  0  0  0  # atno 17370 bound_to 10713
  156.0732  130.3682  150.0732 LP  0  0  0  0  0  0  0  0  0  0  0  0  # atno 17371 bound_to 10713
  140.9778  133.7286  156.0627 LP  0  0  0  0  0  0  0  0  0  0  0  0  # atno 17394 bound_to 11000
  140.7788  134.3748  157.5492 LP  0  0  0  0  0  0  0  0  0  0  0  0  # atno 17395 bound_to 11000

$$$$
