AV-unprocessed.smi:2010|AV-procd|sdf|8149|dock1
  -GOLD-   2272010393D 1   1.00000     0.00000
 Structure written by MMmdl.
 41 42  0  0  0  0  0  0  0  0  1 V2000
  151.8297  145.1188  158.9770 C   0  0  0  0  0  0  0  0  0  0  0  0
  151.7104  143.5910  159.0684 C   0  0  0  0  0  0  0  0  0  0  0  0
  153.0751  142.9244  159.2882 C   0  0  0  0  0  0  0  0  0  0  0  0
  152.9502  141.3940  159.3749 C   0  0  0  0  0  0  0  0  0  0  0  0
  152.2666  140.8355  158.1923 N   0  0  0  0  0  0  0  0  0  0  0  0
  152.3958  139.1237  157.9572 S   0  0  0  0  0  0  0  0  0  0  0  0
  153.6781  138.8248  157.3017 O   0  0  0  0  0  0  0  0  0  0  0  0
  152.0088  138.4468  159.2043 O   0  0  0  0  0  0  0  0  0  0  0  0
  151.1384  138.9002  156.7992 N   0  0  0  0  0  0  0  0  0  0  0  0
  151.4684  138.4468  155.4462 C   0  0  2  0  0  0  0  0  0  0  0  0
  152.3438  139.4978  154.7440 C   0  0  0  0  0  0  0  0  0  0  0  0
  150.1740  138.0917  154.6840 C   0  0  0  0  0  0  0  0  0  0  0  0
  149.2619  139.2133  154.5270 N   0  0  0  0  0  0  0  0  0  0  0  0
  149.4525  140.5294  154.8926 C   0  0  0  0  0  0  0  0  0  0  0  0
  148.3227  141.2150  154.5498 C   0  0  0  0  0  0  0  0  0  0  0  0
  147.4840  140.2188  153.9766 C   0  0  0  0  0  0  0  0  0  0  0  0
  148.0477  139.0218  153.9661 N   0  0  0  0  0  0  0  0  0  0  0  0
  150.9586  141.4622  157.9075 C   0  0  0  0  0  0  0  0  0  0  0  0
  151.0752  142.9919  157.8063 C   0  0  0  0  0  0  0  0  0  0  0  0
  152.4610  145.4185  158.1399 H   0  0  0  0  0  0  0  0  0  0  0  0
  152.2645  145.5331  159.8870 H   0  0  0  0  0  0  0  0  0  0  0  0
  150.8518  145.5811  158.8394 H   0  0  0  0  0  0  0  0  0  0  0  0
  151.0709  143.3565  159.9208 H   0  0  0  0  0  0  0  0  0  0  0  0
  153.7514  143.1869  158.4735 H   0  0  0  0  0  0  0  0  0  0  0  0
  153.5331  143.3035  160.2025 H   0  0  0  0  0  0  0  0  0  0  0  0
  153.9448  140.9569  159.4637 H   0  0  0  0  0  0  0  0  0  0  0  0
  152.3979  141.1076  160.2710 H   0  0  0  0  0  0  0  0  0  0  0  0
  150.4468  139.6493  156.8197 H   0  0  0  0  0  0  0  0  0  0  0  0
  152.0486  137.5275  155.5355 H   0  0  0  0  0  0  0  0  0  0  0  0
  152.5837  139.1877  153.7266 H   0  0  0  0  0  0  0  0  0  0  0  0
  153.2859  139.6430  155.2725 H   0  0  0  0  0  0  0  0  0  0  0  0
  151.8463  140.4662  154.6881 H   0  0  0  0  0  0  0  0  0  0  0  0
  150.4265  137.7106  153.6933 H   0  0  0  0  0  0  0  0  0  0  0  0
  149.6438  137.2853  155.1926 H   0  0  0  0  0  0  0  0  0  0  0  0
  150.3676  140.8640  155.3591 H   0  0  0  0  0  0  0  0  0  0  0  0
  148.1248  142.2675  154.6883 H   0  0  0  0  0  0  0  0  0  0  0  0
  146.4889  140.3286  153.5716 H   0  0  0  0  0  0  0  0  0  0  0  0
  150.5503  141.0709  156.9763 H   0  0  0  0  0  0  0  0  0  0  0  0
  150.2567  141.1886  158.6962 H   0  0  0  0  0  0  0  0  0  0  0  0
  150.0862  143.4221  157.6453 H   0  0  0  0  0  0  0  0  0  0  0  0
  151.6713  143.2530  156.9307 H   0  0  0  0  0  0  0  0  0  0  0  0
  1  2  1  0  0  0  0
  1 20  1  0  0  0  0
  1 21  1  0  0  0  0
  1 22  1  0  0  0  0
  2 19  1  0  0  0  0
  2  3  1  0  0  0  0
  2 23  1  0  0  0  0
  3  4  1  0  0  0  0
  3 24  1  0  0  0  0
  3 25  1  0  0  0  0
  4  5  1  0  0  0  0
  4 26  1  0  0  0  0
  4 27  1  0  0  0  0
  5  6  1  0  0  0  0
  5 18  1  0  0  0  0
  6  7  2  0  0  0  0
  6  8  2  0  0  0  0
  6  9  1  0  0  0  0
  9 10  1  0  0  0  0
  9 28  1  0  0  0  0
 10 11  1  0  0  0  0
 10 12  1  0  0  0  0
 10 29  1  0  0  0  0
 11 30  1  0  0  0  0
 11 31  1  0  0  0  0
 11 32  1  0  0  0  0
 12 13  1  0  0  0  0
 12 33  1  0  0  0  0
 12 34  1  0  0  0  0
 13 17  1  0  0  0  0
 13 14  1  0  0  0  0
 14 15  2  0  0  0  0
 14 35  1  0  0  0  0
 15 16  1  0  0  0  0
 15 36  1  0  0  0  0
 16 17  2  0  0  0  0
 16 37  1  0  0  0  0
 18 19  1  0  0  0  0
 18 38  1  0  0  0  0
 18 39  1  0  0  0  0
 19 40  1  0  0  0  0
 19 41  1  0  0  0  0
M  END
> <s_m_source_file>
AV-unprocessed.smi

> <i_m_source_file_index>
2010

> <i_lp_mmshare_version>
43012

> <i_f3d_flags>
0

> <s_epik_input>
W0NIM11bQ0hdMVtDSDJdW0NIMl1OKFtDSDJdW0NIMl0xKVMoPU8pKD1PKVtOSF1bQ0BIXShbQ0gzXSlbQ0gyXW4yW2NIXVtjSF1bY0hdbjI=

> <s_epik_cmdline>
J2VwaWtfcHl0aG9uJywgJy1waCcsICc3LjAnLCAnLXRuJywgJzgnLCAnLW1hJywgJzIwMCcsICctbWV0YWxfYmluZGluZycsICctaW1hZScsICc8aW5maWxlLm1hZT4nLCAnLW9tYWUnLCAnPG91dGZpbGUubWFlPic=

> <r_lp_tautomer_probability>
1

> <r_epik_Ionization_Penalty>
0.0313937

> <r_epik_Ionization_Penalty_Charging>
0

> <r_epik_Ionization_Penalty_Neutral>
0.0313937

> <r_epik_State_Penalty>
0.0259441

> <r_epik_Charging_Adjusted_Penalty>
0.0259441

> <i_epik_Tot_Q>
0

> <i_epik_Tot_abs_Q>
0

> <r_epik_Metal_State_Penalty>
0.365037

> <b_epik_Metal_Only>
0

> <s_lp_Force_Field>
OPLS_2005

> <r_lp_Energy>
8.42971

> <b_lp_Chiralities_Consistent>
1

> <s_lp_Variant>
AV-unprocessed.smi:2010-1

> <Gold.Version>
5.8.1

> <Gold.Id.Protein>
6NUR|6NUR_protein|mol2

> <Gold.PLP.Fitness>
41.4089

> <Gold.PLP.PLP>
-39.4145

> <Gold.PLP.part.hbond>
-1.0000

> <Gold.PLP.part.metal>
0.0000

> <Gold.PLP.part.buried>
-1.3824

> <Gold.PLP.part.nonpolar>
-37.5006

> <Gold.PLP.part.repulsive>
0.6768

> <Gold.PLP.ligand.clash>
0.0000

> <Gold.PLP.ligand.torsion>
0.8883

> <Gold.PLP.Chemscore.Hbond>
1.0000

> <Gold.PLP.Chemscore.CHOScore>
0.0000

> <Gold.PLP.Chemscore.Metal>
0.0000

> <Gold.Chemscore.Hbonds>
donor molecule, donor type, donor heavy atom, donor atom, acceptor molecule, acceptor atom, score
      P1  H  7997  8009       L1     7  0.96

> <Gold.PLP.Chemscore.Internal.Correction>
0.7711

> <Gold.Rescore>
     Score         DG    S(hbond)    S(metal)    S(lipo)     H(rot)  DE(clash)    DE(int)     intcor
     13.91     -16.81       0.99        0.00     107.47       1.78       1.20       1.69       ----

> <Gold.Chemscore.Fitness>
13.9096

> <Gold.Chemscore.DG>
-16.8069

> <Gold.Chemscore.ZeroCoef>
-5.4800

> <Gold.Chemscore.Hbond>
0.9891

> <Gold.Chemscore.Metal>
0.0000

> <Gold.Chemscore.Lipo>
107.4728

> <Gold.Chemscore.Internal_Hbond>
0.0000

> <Gold.Chemscore.DEClash>
1.2045

> <Gold.Chemscore.DEInternal>
1.6928

> <Gold.Chemscore.Rot>
1.7778

> <Gold.Chemscore.Internal.Correction>
   9.000000E+99

> <Gold.Chemscore.Hbonds>
donor molecule, donor type, donor heavy atom, donor atom, acceptor molecule, acceptor atom, score
      P1  H  7997  8009       L1     7  0.82

> <Gold.Chemscore.Hbond.Weighted>
-3.3037

> <Gold.Chemscore.Metal.Weighted>
-0.0000

> <Gold.Chemscore.Lipo.Weighted>
-12.5743

> <Gold.Chemscore.Internal_Hbond.Weighted>
0.0000

> <Gold.Chemscore.DEClash.Weighted>
1.2045

> <Gold.Chemscore.DEInternal.Weighted>
1.6928

> <Gold.Chemscore.Rot.Weighted>
4.5511

> <Gold.Chemscore.Internal.Correction.Weighted>
   9.000000E+99

> <Gold.Protein.RotatedTorsions>
[ 6907 6896 6895 6894 ] final  162.78 input  -60.11 | X-H torsion
[ 7974 7965 7964 7962 ] final  -46.15 input  175.53 | X-H torsion
[ 8008 7997 7996 7995 ] final  165.55 input   59.86 | X-H torsion
[ 10167 10162 10161 10158 ] final  -85.95 input  -65.29 | X-H torsion
[ 10718 10713 10712 10709 ] final  125.10 input   66.30 | X-H torsion
[ 10763 10752 10751 10750 ] final  -31.76 input  -60.55 | X-H torsion
[ 11005 11000 10999 10996 ] final  148.59 input  -57.11 | X-H torsion

> <Gold.Protein.ActiveResidues>
 VAL166  LYS551  ARG553  GLY616  TRP617  ASP618  TYR619  PRO620  LYS621  CYS622 
 ASP623  PHE694  ASN695  SER759  ASP760  ASP761  ALA762  ILE779  LEU786  VAL792 
 PHE793  MET794  SER795  GLU796  ALA797  LYS798  CYS799  TRP800  GLU811  SER814 

> <Gold.Protein.RotatedAtoms>
  151.9352  133.3622  159.3944 H   0  0  0  0  0  0  0  0  0  0  0  0  # atno 6907 bound_to 6896
  150.7009  134.4496  159.5339 H   0  0  0  0  0  0  0  0  0  0  0  0  # atno 6908 bound_to 6896
  152.2144  134.8472  160.0544 H   0  0  0  0  0  0  0  0  0  0  0  0  # atno 6909 bound_to 6896
  145.9748  140.7345  142.9392 H   0  0  0  0  0  0  0  0  0  0  0  0  # atno 7974 bound_to 7965
  156.1791  140.1667  156.8307 H   0  0  0  0  0  0  0  0  0  0  0  0  # atno 8008 bound_to 7997
  154.5340  140.0750  156.8429 H   0  0  0  0  0  0  0  0  0  0  0  0  # atno 8009 bound_to 7997
  155.3348  140.3381  155.4241 H   0  0  0  0  0  0  0  0  0  0  0  0  # atno 8010 bound_to 7997
  140.3988  143.2672  151.9169 H   0  0  0  0  0  0  0  0  0  0  0  0  # atno 10167 bound_to 10162
  157.5531  131.1093  150.8669 H   0  0  0  0  0  0  0  0  0  0  0  0  # atno 10718 bound_to 10713
  153.8027  135.6889  153.4853 H   0  0  0  0  0  0  0  0  0  0  0  0  # atno 10763 bound_to 10752
  153.1678  135.4554  154.9859 H   0  0  0  0  0  0  0  0  0  0  0  0  # atno 10764 bound_to 10752
  154.8000  135.3334  154.7514 H   0  0  0  0  0  0  0  0  0  0  0  0  # atno 10765 bound_to 10752
  140.0973  134.9005  157.1742 H   0  0  0  0  0  0  0  0  0  0  0  0  # atno 11005 bound_to 11000
  144.6846  140.2810  143.7292 LP  0  0  0  0  0  0  0  0  0  0  0  0  # atno 17320 bound_to 7965
  145.7854  139.1907  143.2134 LP  0  0  0  0  0  0  0  0  0  0  0  0  # atno 17321 bound_to 7965
  139.4785  144.5654  151.8173 LP  0  0  0  0  0  0  0  0  0  0  0  0  # atno 17342 bound_to 10162
  140.4761  144.1516  150.5925 LP  0  0  0  0  0  0  0  0  0  0  0  0  # atno 17343 bound_to 10162
  156.9188  130.5307  149.5279 LP  0  0  0  0  0  0  0  0  0  0  0  0  # atno 17370 bound_to 10713
  156.0594  130.5649  150.9160 LP  0  0  0  0  0  0  0  0  0  0  0  0  # atno 17371 bound_to 10713
  140.3269  134.2853  155.7235 LP  0  0  0  0  0  0  0  0  0  0  0  0  # atno 17394 bound_to 11000
  141.2095  133.7745  156.9989 LP  0  0  0  0  0  0  0  0  0  0  0  0  # atno 17395 bound_to 11000

$$$$
