AV-unprocessed.smi:142|AV-procd|sdf|1191|dock6
  -GOLD-   2262018343D 1   1.00000     0.00000
 Structure written by MMmdl.
 52 55  0  0  0  0  0  0  0  0  1 V2000
  152.4484  138.1765  156.3231 C   0  0  0  0  0  0  0  0  0  0  0  0
  151.9096  138.5051  157.7219 C   0  0  2  0  0  0  0  0  0  0  0  0
  150.6522  137.7905  157.9333 N   0  0  0  0  0  0  0  0  0  0  0  0
  150.3496  137.0613  159.0180 C   0  0  0  0  0  0  0  0  0  0  0  0
  151.1387  136.8723  159.9450 O   0  0  0  0  0  0  0  0  0  0  0  0
  148.9359  136.4626  159.0497 C   0  0  0  0  0  0  0  0  0  0  0  0
  148.7654  135.4358  160.1004 N   0  0  0  0  0  0  0  0  0  0  0  0
  148.8239  135.8443  161.4564 C   0  0  0  0  0  0  0  0  0  0  0  0
  148.9900  137.0268  161.7600 O   0  0  0  0  0  0  0  0  0  0  0  0
  148.6892  134.7774  162.4415 C   0  0  0  0  0  0  0  0  0  0  0  0
  148.7473  135.0696  163.7520 F   0  0  0  0  0  0  0  0  0  0  0  0
  148.5120  133.4965  162.0573 C   0  0  0  0  0  0  0  0  0  0  0  0
  148.4361  133.1139  160.7325 N   0  0  0  0  0  0  0  0  0  0  0  0
  148.2913  131.6480  160.3946 C   0  0  1  0  0  0  0  0  0  0  0  0
  149.3987  130.7623  160.9969 C   0  0  0  0  0  0  0  0  0  0  0  0
  148.6180  129.7717  161.8458 C   0  0  0  0  0  0  0  0  0  0  0  0
  147.2227  129.8274  161.2341 C   0  0  0  0  0  0  0  0  0  0  0  0
  147.0694  131.1959  160.8915 O   0  0  0  0  0  0  0  0  0  0  0  0
  148.5943  134.0841  159.7159 C   0  0  0  0  0  0  0  0  0  0  0  0
  148.5924  133.7631  158.5266 O   0  0  0  0  0  0  0  0  0  0  0  0
  151.7860  140.0146  157.9170 C   0  0  0  0  0  0  0  0  0  0  0  0
  150.9284  140.7522  157.0730 C   0  0  0  0  0  0  0  0  0  0  0  0
  150.7889  142.1442  157.2349 C   0  0  0  0  0  0  0  0  0  0  0  0
  151.5065  142.8135  158.2466 C   0  0  0  0  0  0  0  0  0  0  0  0
  151.3720  144.2074  158.4143 C   0  0  0  0  0  0  0  0  0  0  0  0
  152.0923  144.8685  159.4283 C   0  0  0  0  0  0  0  0  0  0  0  0
  152.9487  144.1397  160.2762 C   0  0  0  0  0  0  0  0  0  0  0  0
  153.0871  142.7477  160.1129 C   0  0  0  0  0  0  0  0  0  0  0  0
  152.3670  142.0806  159.1005 C   0  0  0  0  0  0  0  0  0  0  0  0
  152.4999  140.6872  158.9358 C   0  0  0  0  0  0  0  0  0  0  0  0
  153.4229  138.6375  156.1602 H   0  0  0  0  0  0  0  0  0  0  0  0
  151.7758  138.5380  155.5443 H   0  0  0  0  0  0  0  0  0  0  0  0
  152.5681  137.1010  156.1889 H   0  0  0  0  0  0  0  0  0  0  0  0
  152.6323  138.1317  158.4503 H   0  0  0  0  0  0  0  0  0  0  0  0
  149.9475  137.8883  157.2171 H   0  0  0  0  0  0  0  0  0  0  0  0
  148.2102  137.2666  159.1856 H   0  0  0  0  0  0  0  0  0  0  0  0
  148.7099  136.0680  158.0582 H   0  0  0  0  0  0  0  0  0  0  0  0
  148.4249  132.7431  162.8267 H   0  0  0  0  0  0  0  0  0  0  0  0
  148.2780  131.5898  159.3053 H   0  0  0  0  0  0  0  0  0  0  0  0
  149.9189  130.2563  160.1830 H   0  0  0  0  0  0  0  0  0  0  0  0
  150.1293  131.3339  161.5699 H   0  0  0  0  0  0  0  0  0  0  0  0
  149.0464  128.7694  161.8326 H   0  0  0  0  0  0  0  0  0  0  0  0
  148.5832  130.1084  162.8822 H   0  0  0  0  0  0  0  0  0  0  0  0
  147.1688  129.2169  160.3313 H   0  0  0  0  0  0  0  0  0  0  0  0
  146.4456  129.4955  161.9231 H   0  0  0  0  0  0  0  0  0  0  0  0
  150.3726  140.2499  156.2948 H   0  0  0  0  0  0  0  0  0  0  0  0
  150.1292  142.6940  156.5794 H   0  0  0  0  0  0  0  0  0  0  0  0
  150.7181  144.7748  157.7680 H   0  0  0  0  0  0  0  0  0  0  0  0
  151.9886  145.9359  159.5554 H   0  0  0  0  0  0  0  0  0  0  0  0
  153.5007  144.6488  161.0526 H   0  0  0  0  0  0  0  0  0  0  0  0
  153.7479  142.1966  160.7665 H   0  0  0  0  0  0  0  0  0  0  0  0
  153.1540  140.1371  159.5966 H   0  0  0  0  0  0  0  0  0  0  0  0
  1  2  1  0  0  0  0
  1 31  1  0  0  0  0
  1 32  1  0  0  0  0
  1 33  1  0  0  0  0
  2  3  1  0  0  0  0
  2 21  1  0  0  0  0
  2 34  1  0  0  0  0
  3  4  1  0  0  0  0
  3 35  1  0  0  0  0
  4  5  2  0  0  0  0
  4  6  1  0  0  0  0
  6  7  1  0  0  0  0
  6 36  1  0  0  0  0
  6 37  1  0  0  0  0
  7 19  1  0  0  0  0
  7  8  1  0  0  0  0
  8  9  2  0  0  0  0
  8 10  1  0  0  0  0
 10 11  1  0  0  0  0
 10 12  2  0  0  0  0
 12 13  1  0  0  0  0
 12 38  1  0  0  0  0
 13 14  1  0  0  0  0
 13 19  1  0  0  0  0
 14 18  1  0  0  0  0
 14 15  1  0  0  0  0
 14 39  1  0  0  0  0
 15 16  1  0  0  0  0
 15 40  1  0  0  0  0
 15 41  1  0  0  0  0
 16 17  1  0  0  0  0
 16 42  1  0  0  0  0
 16 43  1  0  0  0  0
 17 18  1  0  0  0  0
 17 44  1  0  0  0  0
 17 45  1  0  0  0  0
 19 20  2  0  0  0  0
 21 30  1  0  0  0  0
 21 22  2  0  0  0  0
 22 23  1  0  0  0  0
 22 46  1  0  0  0  0
 23 24  2  0  0  0  0
 23 47  1  0  0  0  0
 24 29  1  0  0  0  0
 24 25  1  0  0  0  0
 25 26  2  0  0  0  0
 25 48  1  0  0  0  0
 26 27  1  0  0  0  0
 26 49  1  0  0  0  0
 27 28  2  0  0  0  0
 27 50  1  0  0  0  0
 28 29  1  0  0  0  0
 28 51  1  0  0  0  0
 29 30  2  0  0  0  0
 30 52  1  0  0  0  0
M  END
> <s_m_source_file>
AV-unprocessed.smi

> <i_m_source_file_index>
142

> <i_lp_mmshare_version>
43012

> <i_f3d_flags>
0

> <s_epik_input>
W2NIXTFbY0hdW2NIXVtjSF1jKGMxMilbY0hdYyhbY0hdW2NIXTIpW0NASF0oW0NIM10pW05IXUMoPU8pW0NIMl1uM2MoPU8pYyhGKVtjSF1uKGMzPU8pW0NAQEhdNFtDSDJdW0NIMl1bQ0gyXU80

> <s_epik_cmdline>
J2VwaWtfcHl0aG9uJywgJy1waCcsICc3LjAnLCAnLXRuJywgJzgnLCAnLW1hJywgJzIwMCcsICctbWV0YWxfYmluZGluZycsICctaW1hZScsICc8aW5maWxlLm1hZT4nLCAnLW9tYWUnLCAnPG91dGZpbGUubWFlPic=

> <r_lp_tautomer_probability>
1

> <r_epik_Ionization_Penalty>
3.35688e-08

> <r_epik_Ionization_Penalty_Charging>
3.59856e-09

> <r_epik_Ionization_Penalty_Neutral>
2.99702e-08

> <r_epik_State_Penalty>
-0

> <r_epik_Charging_Adjusted_Penalty>
3.59856e-09

> <i_epik_Tot_Q>
0

> <i_epik_Tot_abs_Q>
0

> <r_epik_Metal_State_Penalty>
-0

> <b_epik_Metal_Only>
0

> <s_epik_Chemistry_Notes>
This compound contains an acetal/aminal-like group ( X-CH(R)-Y where X, Y are N, S, or O) that may be acid/base labile, releasing an aldehyde.

> <s_lp_Force_Field>
OPLS_2005

> <r_lp_Energy>
25.6775

> <b_lp_Chiralities_Consistent>
1

> <s_lp_Variant>
AV-unprocessed.smi:142-3

> <Gold.Version>
5.8.1

> <Gold.Id.Protein>
6NUR|6NUR_protein|mol2

> <Gold.PLP.Fitness>
63.1274

> <Gold.PLP.PLP>
-56.0358

> <Gold.PLP.part.hbond>
-2.9452

> <Gold.PLP.part.metal>
0.0000

> <Gold.PLP.part.buried>
-6.1672

> <Gold.PLP.part.nonpolar>
-47.7667

> <Gold.PLP.part.repulsive>
0.0476

> <Gold.PLP.ligand.clash>
0.0000

> <Gold.PLP.ligand.torsion>
0.3943

> <Gold.PLP.Chemscore.Hbond>
2.6000

> <Gold.PLP.Chemscore.CHOScore>
0.0000

> <Gold.PLP.Chemscore.Metal>
0.0000

> <Gold.Chemscore.Hbonds>
donor molecule, donor type, donor heavy atom, donor atom, acceptor molecule, acceptor atom, score
      P1  H  6896  6908       L1     5  0.64
      P1  H  6931  6943       L1     9  0.21

> <Gold.PLP.Chemscore.Internal.Correction>
0.0802

> <Gold.Rescore>
     Score         DG    S(hbond)    S(metal)    S(lipo)     H(rot)  DE(clash)    DE(int)     intcor
     23.78     -24.27       2.75        0.00     126.33       2.02       0.02       0.48       ----

> <Gold.Chemscore.Fitness>
23.7776

> <Gold.Chemscore.DG>
-24.2693

> <Gold.Chemscore.ZeroCoef>
-5.4800

> <Gold.Chemscore.Hbond>
2.7467

> <Gold.Chemscore.Metal>
0.0000

> <Gold.Chemscore.Lipo>
126.3252

> <Gold.Chemscore.Internal_Hbond>
0.0000

> <Gold.Chemscore.DEClash>
0.0158

> <Gold.Chemscore.DEInternal>
0.4759

> <Gold.Chemscore.Rot>
2.0175

> <Gold.Chemscore.Internal.Correction>
   9.000000E+99

> <Gold.Chemscore.Hbonds>
donor molecule, donor type, donor heavy atom, donor atom, acceptor molecule, acceptor atom, score
      P1  H  6896  6908       L1     5  0.06
      P1  H  6931  6943       L1     9  0.23

> <Gold.Chemscore.Hbond.Weighted>
-9.1740

> <Gold.Chemscore.Metal.Weighted>
-0.0000

> <Gold.Chemscore.Lipo.Weighted>
-14.7800

> <Gold.Chemscore.Internal_Hbond.Weighted>
0.0000

> <Gold.Chemscore.DEClash.Weighted>
0.0158

> <Gold.Chemscore.DEInternal.Weighted>
0.4759

> <Gold.Chemscore.Rot.Weighted>
5.1648

> <Gold.Chemscore.Internal.Correction.Weighted>
   9.000000E+99

> <Gold.Protein.RotatedTorsions>
[ 6907 6896 6895 6894 ] final -155.19 input  -60.11 | X-H torsion
[ 7974 7965 7964 7962 ] final   23.12 input  175.53 | X-H torsion
[ 8008 7997 7996 7995 ] final -115.44 input   59.86 | X-H torsion
[ 10167 10162 10161 10158 ] final -136.31 input  -65.29 | X-H torsion
[ 10718 10713 10712 10709 ] final   79.57 input   66.30 | X-H torsion
[ 10763 10752 10751 10750 ] final -170.43 input  -60.55 | X-H torsion
[ 11005 11000 10999 10996 ] final  -50.52 input  -57.11 | X-H torsion

> <Gold.Protein.ActiveResidues>
 VAL166  LYS551  ARG553  GLY616  TRP617  ASP618  TYR619  PRO620  LYS621  CYS622 
 ASP623  PHE694  ASN695  SER759  ASP760  ASP761  ALA762  ILE779  LEU786  VAL792 
 PHE793  MET794  SER795  GLU796  ALA797  LYS798  CYS799  TRP800  GLU811  SER814 

> <Gold.Protein.RotatedAtoms>
  151.2688  133.4265  159.2619 H   0  0  0  0  0  0  0  0  0  0  0  0  # atno 6907 bound_to 6896
  151.0464  134.9643  159.8199 H   0  0  0  0  0  0  0  0  0  0  0  0  # atno 6908 bound_to 6896
  152.5375  134.2644  159.9000 H   0  0  0  0  0  0  0  0  0  0  0  0  # atno 6909 bound_to 6896
  146.1998  139.7789  142.8770 H   0  0  0  0  0  0  0  0  0  0  0  0  # atno 7974 bound_to 7965
  155.0520  140.0393  157.2547 H   0  0  0  0  0  0  0  0  0  0  0  0  # atno 8008 bound_to 7997
  154.7129  140.2696  155.6588 H   0  0  0  0  0  0  0  0  0  0  0  0  # atno 8009 bound_to 7997
  156.2795  140.2718  156.1777 H   0  0  0  0  0  0  0  0  0  0  0  0  # atno 8010 bound_to 7997
  139.8691  143.6980  152.2642 H   0  0  0  0  0  0  0  0  0  0  0  0  # atno 10167 bound_to 10162
  157.6781  130.9920  150.1952 H   0  0  0  0  0  0  0  0  0  0  0  0  # atno 10718 bound_to 10713
  154.6416  135.2899  155.0096 H   0  0  0  0  0  0  0  0  0  0  0  0  # atno 10763 bound_to 10752
  154.1221  135.6546  153.4909 H   0  0  0  0  0  0  0  0  0  0  0  0  # atno 10764 bound_to 10752
  153.0329  135.5290  154.7285 H   0  0  0  0  0  0  0  0  0  0  0  0  # atno 10765 bound_to 10752
  141.0821  133.6651  156.3744 H   0  0  0  0  0  0  0  0  0  0  0  0  # atno 11005 bound_to 11000
  145.3521  141.0309  143.3332 LP  0  0  0  0  0  0  0  0  0  0  0  0  # atno 17320 bound_to 7965
  144.8659  139.5109  143.6790 LP  0  0  0  0  0  0  0  0  0  0  0  0  # atno 17321 bound_to 7965
  139.7301  144.7584  151.0816 LP  0  0  0  0  0  0  0  0  0  0  0  0  # atno 17342 bound_to 10162
  140.7763  143.5099  150.9665 LP  0  0  0  0  0  0  0  0  0  0  0  0  # atno 17343 bound_to 10162
  156.2655  130.3715  149.8086 LP  0  0  0  0  0  0  0  0  0  0  0  0  # atno 17370 bound_to 10713
  156.5819  130.8469  151.3385 LP  0  0  0  0  0  0  0  0  0  0  0  0  # atno 17371 bound_to 10713
  140.5446  134.6087  157.5390 LP  0  0  0  0  0  0  0  0  0  0  0  0  # atno 17394 bound_to 11000
  139.9635  134.7412  156.0186 LP  0  0  0  0  0  0  0  0  0  0  0  0  # atno 17395 bound_to 11000

$$$$
