AV-unprocessed.smi:3248|AV-procd|sdf|12416|dock9
  -GOLD-   2272018303D 1   1.00000     0.00000
 Structure written by MMmdl.
 38 39  0  0  0  0  0  0  0  0  1 V2000
  151.1911  145.0564  158.6172 C   0  0  0  0  0  0  0  0  0  0  0  0
  151.9924  143.9056  159.2398 C   0  0  1  0  0  0  0  0  0  0  0  0
  151.9589  143.9626  160.7813 C   0  0  0  0  0  0  0  0  0  0  0  0
  152.8214  142.9671  161.3939 N   0  0  0  0  0  0  0  0  0  0  0  0
  153.2088  142.8652  162.7132 C   0  0  0  0  0  0  0  0  0  0  0  0
  154.0373  141.7846  162.8107 C   0  0  0  0  0  0  0  0  0  0  0  0
  154.0958  141.2820  161.4809 C   0  0  0  0  0  0  0  0  0  0  0  0
  153.3648  141.9900  160.6354 N   0  0  0  0  0  0  0  0  0  0  0  0
  151.4525  142.6334  158.7626 N   0  0  0  0  0  0  0  0  0  0  0  0
  151.1593  142.3304  157.4858 C   0  0  0  0  0  0  0  0  0  0  0  0
  151.2052  143.1611  156.5784 O   0  0  0  0  0  0  0  0  0  0  0  0
  150.7147  141.0600  157.3286 N   0  0  0  0  0  0  0  0  0  0  0  0
  151.2533  139.9725  158.1586 C   0  0  0  0  0  0  0  0  0  0  0  0
  152.4234  139.3160  157.4001 C   0  0  0  0  0  0  0  0  0  0  0  0
  151.9718  138.8323  156.1374 O   0  0  0  0  0  0  0  0  0  0  0  0
  151.3923  139.8457  155.3180 C   0  0  0  0  0  0  0  0  0  0  0  0
  150.2073  140.4900  156.0654 C   0  0  2  0  0  0  0  0  0  0  0  0
  149.3997  141.4609  155.1786 C   0  0  0  0  0  0  0  0  0  0  0  0
  151.5858  146.0231  158.9314 H   0  0  0  0  0  0  0  0  0  0  0  0
  150.1413  145.0146  158.9094 H   0  0  0  0  0  0  0  0  0  0  0  0
  151.2360  145.0220  157.5281 H   0  0  0  0  0  0  0  0  0  0  0  0
  153.0272  144.0201  158.9122 H   0  0  0  0  0  0  0  0  0  0  0  0
  152.2861  144.9441  161.1265 H   0  0  0  0  0  0  0  0  0  0  0  0
  150.9398  143.8284  161.1483 H   0  0  0  0  0  0  0  0  0  0  0  0
  152.8713  143.5666  163.4621 H   0  0  0  0  0  0  0  0  0  0  0  0
  154.5291  141.4110  163.6963 H   0  0  0  0  0  0  0  0  0  0  0  0
  154.6446  140.4304  161.1069 H   0  0  0  0  0  0  0  0  0  0  0  0
  151.3415  141.9037  159.4514 H   0  0  0  0  0  0  0  0  0  0  0  0
  151.6001  140.3086  159.1366 H   0  0  0  0  0  0  0  0  0  0  0  0
  150.4724  139.2377  158.3583 H   0  0  0  0  0  0  0  0  0  0  0  0
  153.2394  140.0250  157.2535 H   0  0  0  0  0  0  0  0  0  0  0  0
  152.8258  138.4818  157.9746 H   0  0  0  0  0  0  0  0  0  0  0  0
  152.1447  140.5900  155.0522 H   0  0  0  0  0  0  0  0  0  0  0  0
  151.0533  139.3872  154.3889 H   0  0  0  0  0  0  0  0  0  0  0  0
  149.5092  139.6944  156.3324 H   0  0  0  0  0  0  0  0  0  0  0  0
  148.8941  140.9155  154.3814 H   0  0  0  0  0  0  0  0  0  0  0  0
  150.0286  142.2085  154.6961 H   0  0  0  0  0  0  0  0  0  0  0  0
  148.6327  141.9790  155.7546 H   0  0  0  0  0  0  0  0  0  0  0  0
  1  2  1  0  0  0  0
  1 19  1  0  0  0  0
  1 20  1  0  0  0  0
  1 21  1  0  0  0  0
  2  3  1  0  0  0  0
  2  9  1  0  0  0  0
  2 22  1  0  0  0  0
  3  4  1  0  0  0  0
  3 23  1  0  0  0  0
  3 24  1  0  0  0  0
  4  8  1  0  0  0  0
  4  5  1  0  0  0  0
  5  6  2  0  0  0  0
  5 25  1  0  0  0  0
  6  7  1  0  0  0  0
  6 26  1  0  0  0  0
  7  8  2  0  0  0  0
  7 27  1  0  0  0  0
  9 10  1  0  0  0  0
  9 28  1  0  0  0  0
 10 11  2  0  0  0  0
 10 12  1  0  0  0  0
 12 17  1  0  0  0  0
 12 13  1  0  0  0  0
 13 14  1  0  0  0  0
 13 29  1  0  0  0  0
 13 30  1  0  0  0  0
 14 15  1  0  0  0  0
 14 31  1  0  0  0  0
 14 32  1  0  0  0  0
 15 16  1  0  0  0  0
 16 17  1  0  0  0  0
 16 33  1  0  0  0  0
 16 34  1  0  0  0  0
 17 18  1  0  0  0  0
 17 35  1  0  0  0  0
 18 36  1  0  0  0  0
 18 37  1  0  0  0  0
 18 38  1  0  0  0  0
M  END
> <s_m_source_file>
AV-unprocessed.smi

> <i_m_source_file_index>
3248

> <i_lp_mmshare_version>
43012

> <i_f3d_flags>
0

> <s_epik_input>
bjFbY0hdW2NIXVtjSF1uMVtDSDJdW0NAQEhdKFtDSDNdKVtOSF1DKD1PKU4yW0NIMl1bQ0gyXU9bQ0gyXVtDQEhdMltDSDNd

> <s_epik_cmdline>
J2VwaWtfcHl0aG9uJywgJy1waCcsICc3LjAnLCAnLXRuJywgJzgnLCAnLW1hJywgJzIwMCcsICctbWV0YWxfYmluZGluZycsICctaW1hZScsICc8aW5maWxlLm1hZT4nLCAnLW9tYWUnLCAnPG91dGZpbGUubWFlPic=

> <r_lp_tautomer_probability>
1

> <r_epik_Ionization_Penalty>
4.45233e-05

> <r_epik_Ionization_Penalty_Charging>
0

> <r_epik_Ionization_Penalty_Neutral>
4.45233e-05

> <r_epik_State_Penalty>
-0

> <r_epik_Charging_Adjusted_Penalty>
0

> <i_epik_Tot_Q>
0

> <i_epik_Tot_abs_Q>
0

> <r_epik_Metal_State_Penalty>
-0

> <b_epik_Metal_Only>
0

> <s_lp_Force_Field>
OPLS_2005

> <r_lp_Energy>
30.7838

> <b_lp_Chiralities_Consistent>
1

> <s_lp_Variant>
AV-unprocessed.smi:3248-4

> <Gold.Version>
5.8.1

> <Gold.Id.Protein>
6NUR|6NUR_protein|mol2

> <Gold.PLP.Fitness>
38.4165

> <Gold.PLP.PLP>
-39.3518

> <Gold.PLP.part.hbond>
0.0000

> <Gold.PLP.part.metal>
0.0000

> <Gold.PLP.part.buried>
-2.8398

> <Gold.PLP.part.nonpolar>
-36.9886

> <Gold.PLP.part.repulsive>
0.8237

> <Gold.PLP.ligand.clash>
0.5131

> <Gold.PLP.ligand.torsion>
0.4723

> <Gold.PLP.Chemscore.Hbond>
0.0000

> <Gold.PLP.Chemscore.CHOScore>
0.0000

> <Gold.PLP.Chemscore.Metal>
0.0000

> <Gold.PLP.Chemscore.Internal.Correction>
0.5224

> <Gold.Rescore>
     Score         DG    S(hbond)    S(metal)    S(lipo)     H(rot)  DE(clash)    DE(int)     intcor
      9.59     -12.93       0.00        0.00      94.74       1.42       0.20       3.14       ----

> <Gold.Chemscore.Fitness>
9.5934

> <Gold.Chemscore.DG>
-12.9311

> <Gold.Chemscore.ZeroCoef>
-5.4800

> <Gold.Chemscore.Hbond>
0.0000

> <Gold.Chemscore.Metal>
0.0000

> <Gold.Chemscore.Lipo>
94.7358

> <Gold.Chemscore.Internal_Hbond>
0.0000

> <Gold.Chemscore.DEClash>
0.1997

> <Gold.Chemscore.DEInternal>
3.1380

> <Gold.Chemscore.Rot>
1.4191

> <Gold.Chemscore.Internal.Correction>
   9.000000E+99

> <Gold.Chemscore.Hbond.Weighted>
-0.0000

> <Gold.Chemscore.Metal.Weighted>
-0.0000

> <Gold.Chemscore.Lipo.Weighted>
-11.0841

> <Gold.Chemscore.Internal_Hbond.Weighted>
0.0000

> <Gold.Chemscore.DEClash.Weighted>
0.1997

> <Gold.Chemscore.DEInternal.Weighted>
3.1380

> <Gold.Chemscore.Rot.Weighted>
3.6330

> <Gold.Chemscore.Internal.Correction.Weighted>
   9.000000E+99

> <Gold.Protein.RotatedTorsions>
[ 6907 6896 6895 6894 ] final  -70.07 input  -60.11 | X-H torsion
[ 7974 7965 7964 7962 ] final  150.97 input  175.53 | X-H torsion
[ 8008 7997 7996 7995 ] final  167.59 input   59.86 | X-H torsion
[ 10167 10162 10161 10158 ] final  -45.13 input  -65.29 | X-H torsion
[ 10718 10713 10712 10709 ] final   18.68 input   66.30 | X-H torsion
[ 10763 10752 10751 10750 ] final -159.42 input  -60.55 | X-H torsion
[ 11005 11000 10999 10996 ] final  166.31 input  -57.11 | X-H torsion

> <Gold.Protein.ActiveResidues>
 VAL166  LYS551  ARG553  GLY616  TRP617  ASP618  TYR619  PRO620  LYS621  CYS622 
 ASP623  PHE694  ASN695  SER759  ASP760  ASP761  ALA762  ILE779  LEU786  VAL792 
 PHE793  MET794  SER795  GLU796  ALA797  LYS798  CYS799  TRP800  GLU811  SER814 

> <Gold.Protein.RotatedAtoms>
  150.7275  134.5506  159.5792 H   0  0  0  0  0  0  0  0  0  0  0  0  # atno 6907 bound_to 6896
  152.2994  134.7625  160.0370 H   0  0  0  0  0  0  0  0  0  0  0  0  # atno 6908 bound_to 6896
  151.8211  133.3359  159.3621 H   0  0  0  0  0  0  0  0  0  0  0  0  # atno 6909 bound_to 6896
  144.8325  139.6478  143.6052 H   0  0  0  0  0  0  0  0  0  0  0  0  # atno 7974 bound_to 7965
  156.1621  140.1613  156.8595 H   0  0  0  0  0  0  0  0  0  0  0  0  # atno 8008 bound_to 7997
  154.5171  140.0787  156.8136 H   0  0  0  0  0  0  0  0  0  0  0  0  # atno 8009 bound_to 7997
  155.3687  140.3399  155.4245 H   0  0  0  0  0  0  0  0  0  0  0  0  # atno 8010 bound_to 7997
  140.6870  143.2895  151.3594 H   0  0  0  0  0  0  0  0  0  0  0  0  # atno 10167 bound_to 10162
  157.0998  130.6463  149.5869 H   0  0  0  0  0  0  0  0  0  0  0  0  # atno 10718 bound_to 10713
  154.7476  135.3084  154.8616 H   0  0  0  0  0  0  0  0  0  0  0  0  # atno 10763 bound_to 10752
  153.9413  135.6774  153.4748 H   0  0  0  0  0  0  0  0  0  0  0  0  # atno 10764 bound_to 10752
  153.1072  135.4883  154.8899 H   0  0  0  0  0  0  0  0  0  0  0  0  # atno 10765 bound_to 10752
  140.2651  134.7871  157.3625 H   0  0  0  0  0  0  0  0  0  0  0  0  # atno 11005 bound_to 11000
  146.2627  139.6448  142.9351 LP  0  0  0  0  0  0  0  0  0  0  0  0  # atno 17320 bound_to 7965
  145.4864  141.0438  143.2617 LP  0  0  0  0  0  0  0  0  0  0  0  0  # atno 17321 bound_to 7965
  139.6237  144.0855  152.2415 LP  0  0  0  0  0  0  0  0  0  0  0  0  # atno 17342 bound_to 10162
  140.0308  144.6082  150.7489 LP  0  0  0  0  0  0  0  0  0  0  0  0  # atno 17343 bound_to 10162
  155.9876  130.4917  150.7135 LP  0  0  0  0  0  0  0  0  0  0  0  0  # atno 17370 bound_to 10713
  157.4651  131.0887  151.0704 LP  0  0  0  0  0  0  0  0  0  0  0  0  # atno 17371 bound_to 10713
  140.1426  134.4952  155.8020 LP  0  0  0  0  0  0  0  0  0  0  0  0  # atno 17394 bound_to 11000
  141.2185  133.6831  156.7238 LP  0  0  0  0  0  0  0  0  0  0  0  0  # atno 17395 bound_to 11000

$$$$
