AV-unprocessed.smi:2148|AV-procd|sdf|8749|dock2
  -GOLD-   2272011523D 1   1.00000     0.00000
 Structure written by MMmdl.
 44 45  0  0  0  0  0  0  0  0  1 V2000
  155.0484  133.6636  164.6460 C   0  0  0  0  0  0  0  0  0  0  0  0
  154.5342  135.3012  164.0624 S   0  0  0  0  0  0  0  0  0  0  0  0
  155.1860  135.2759  162.3653 C   0  0  1  0  0  0  0  0  0  0  0  0
  155.0728  133.8698  161.7474 C   0  0  0  0  0  0  0  0  0  0  0  0
  154.5169  136.3549  161.5014 C   0  0  0  0  0  0  0  0  0  0  0  0
  153.9211  136.0442  160.4698 O   0  0  0  0  0  0  0  0  0  0  0  0
  154.6588  137.6174  161.9477 N   0  0  0  0  0  0  0  0  0  0  0  0
  154.1666  138.8258  161.3841 C   0  0  0  0  0  0  0  0  0  0  0  0
  154.5361  140.1215  161.8172 C   0  0  0  0  0  0  0  0  0  0  0  0
  153.9857  141.2405  161.1638 C   0  0  0  0  0  0  0  0  0  0  0  0
  153.0876  141.0306  160.0925 C   0  0  0  0  0  0  0  0  0  0  0  0
  152.5027  142.1008  159.4032 N   0  0  0  0  0  0  0  0  0  0  0  0
  151.8170  141.6969  158.1847 C   0  0  0  0  0  0  0  0  0  0  0  0
  151.0503  142.8931  157.5914 C   0  0  2  0  0  0  0  0  0  0  0  0
  150.4080  142.5489  156.2435 C   0  0  0  0  0  0  0  0  0  0  0  0
  151.9507  143.9834  157.3879 O   0  0  0  0  0  0  0  0  0  0  0  0
  152.6500  144.4137  158.5595 C   0  0  1  0  0  0  0  0  0  0  0  0
  151.7286  145.1512  159.5478 C   0  0  0  0  0  0  0  0  0  0  0  0
  153.4034  143.2261  159.1904 C   0  0  0  0  0  0  0  0  0  0  0  0
  152.7451  139.7971  159.6636 N   0  0  0  0  0  0  0  0  0  0  0  0
  153.2770  138.7289  160.2941 C   0  0  0  0  0  0  0  0  0  0  0  0
  154.7523  133.5292  165.6862 H   0  0  0  0  0  0  0  0  0  0  0  0
  156.1313  133.5576  164.5805 H   0  0  0  0  0  0  0  0  0  0  0  0
  154.5836  132.8765  164.0531 H   0  0  0  0  0  0  0  0  0  0  0  0
  156.2446  135.5338  162.4202 H   0  0  0  0  0  0  0  0  0  0  0  0
  155.4228  133.8592  160.7144 H   0  0  0  0  0  0  0  0  0  0  0  0
  154.0422  133.5124  161.7552 H   0  0  0  0  0  0  0  0  0  0  0  0
  155.6757  133.1472  162.2965 H   0  0  0  0  0  0  0  0  0  0  0  0
  155.2338  137.7287  162.7702 H   0  0  0  0  0  0  0  0  0  0  0  0
  155.2358  140.2825  162.6221 H   0  0  0  0  0  0  0  0  0  0  0  0
  154.2557  142.2374  161.4798 H   0  0  0  0  0  0  0  0  0  0  0  0
  152.5435  141.3219  157.4624 H   0  0  0  0  0  0  0  0  0  0  0  0
  151.1276  140.8802  158.4032 H   0  0  0  0  0  0  0  0  0  0  0  0
  150.2573  143.1955  158.2759 H   0  0  0  0  0  0  0  0  0  0  0  0
  149.6975  141.7284  156.3461 H   0  0  0  0  0  0  0  0  0  0  0  0
  151.1600  142.2516  155.5120 H   0  0  0  0  0  0  0  0  0  0  0  0
  149.8694  143.4059  155.8385 H   0  0  0  0  0  0  0  0  0  0  0  0
  153.3934  145.1366  158.2221 H   0  0  0  0  0  0  0  0  0  0  0  0
  152.3057  145.5725  160.3712 H   0  0  0  0  0  0  0  0  0  0  0  0
  150.9776  144.4933  159.9844 H   0  0  0  0  0  0  0  0  0  0  0  0
  151.2087  145.9730  159.0554 H   0  0  0  0  0  0  0  0  0  0  0  0
  153.8620  143.5236  160.1345 H   0  0  0  0  0  0  0  0  0  0  0  0
  154.2125  142.9198  158.5260 H   0  0  0  0  0  0  0  0  0  0  0  0
  152.9765  137.7621  159.9169 H   0  0  0  0  0  0  0  0  0  0  0  0
  1  2  1  0  0  0  0
  1 22  1  0  0  0  0
  1 23  1  0  0  0  0
  1 24  1  0  0  0  0
  2  3  1  0  0  0  0
  3  4  1  0  0  0  0
  3  5  1  0  0  0  0
  3 25  1  0  0  0  0
  4 26  1  0  0  0  0
  4 27  1  0  0  0  0
  4 28  1  0  0  0  0
  5  6  2  0  0  0  0
  5  7  1  0  0  0  0
  7  8  1  0  0  0  0
  7 29  1  0  0  0  0
  8 21  1  0  0  0  0
  8  9  2  0  0  0  0
  9 10  1  0  0  0  0
  9 30  1  0  0  0  0
 10 11  2  0  0  0  0
 10 31  1  0  0  0  0
 11 12  1  0  0  0  0
 11 20  1  0  0  0  0
 12 19  1  0  0  0  0
 12 13  1  0  0  0  0
 13 14  1  0  0  0  0
 13 32  1  0  0  0  0
 13 33  1  0  0  0  0
 14 15  1  0  0  0  0
 14 16  1  0  0  0  0
 14 34  1  0  0  0  0
 15 35  1  0  0  0  0
 15 36  1  0  0  0  0
 15 37  1  0  0  0  0
 16 17  1  0  0  0  0
 17 18  1  0  0  0  0
 17 19  1  0  0  0  0
 17 38  1  0  0  0  0
 18 39  1  0  0  0  0
 18 40  1  0  0  0  0
 18 41  1  0  0  0  0
 19 42  1  0  0  0  0
 19 43  1  0  0  0  0
 20 21  2  0  0  0  0
 21 44  1  0  0  0  0
M  END
> <s_m_source_file>
AV-unprocessed.smi

> <i_m_source_file_index>
2148

> <i_lp_mmshare_version>
43012

> <i_f3d_flags>
0

> <s_epik_input>
W0NIM11TW0NASF0oW0NIM10pQyg9TylbTkhdYzFbY0hdW2NIXWMobltjSF0xKU4yW0NIMl1bQ0BASF0oW0NIM10pT1tDQEBIXShbQ0gzXSlbQ0gyXTI=

> <s_epik_cmdline>
J2VwaWtfcHl0aG9uJywgJy1waCcsICc3LjAnLCAnLXRuJywgJzgnLCAnLW1hJywgJzIwMCcsICctbWV0YWxfYmluZGluZycsICctaW1hZScsICc8aW5maWxlLm1hZT4nLCAnLW9tYWUnLCAnPG91dGZpbGUubWFlPic=

> <r_lp_tautomer_probability>
1

> <r_epik_Ionization_Penalty>
0.000646494

> <r_epik_Ionization_Penalty_Charging>
0

> <r_epik_Ionization_Penalty_Neutral>
0.000646494

> <r_epik_State_Penalty>
0.000408447

> <r_epik_Charging_Adjusted_Penalty>
0.000408447

> <i_epik_Tot_Q>
0

> <i_epik_Tot_abs_Q>
0

> <r_epik_Metal_State_Penalty>
-0

> <b_epik_Metal_Only>
0

> <s_lp_Force_Field>
OPLS_2005

> <r_lp_Energy>
27.0114

> <b_lp_Chiralities_Consistent>
1

> <s_lp_Variant>
AV-unprocessed.smi:2148-4

> <Gold.Version>
5.8.1

> <Gold.Id.Protein>
6NUR|6NUR_protein|mol2

> <Gold.PLP.Fitness>
40.9814

> <Gold.PLP.PLP>
-39.1281

> <Gold.PLP.part.hbond>
-0.9940

> <Gold.PLP.part.metal>
0.0000

> <Gold.PLP.part.buried>
-1.5235

> <Gold.PLP.part.nonpolar>
-37.3905

> <Gold.PLP.part.repulsive>
0.0973

> <Gold.PLP.ligand.clash>
0.0000

> <Gold.PLP.ligand.torsion>
0.6519

> <Gold.PLP.Chemscore.Hbond>
1.0000

> <Gold.PLP.Chemscore.CHOScore>
0.0000

> <Gold.PLP.Chemscore.Metal>
0.0000

> <Gold.Chemscore.Hbonds>
donor molecule, donor type, donor heavy atom, donor atom, acceptor molecule, acceptor atom, score
      P1  H  6896  6908       L1     6  0.98

> <Gold.PLP.Chemscore.Internal.Correction>
0.1572

> <Gold.Rescore>
     Score         DG    S(hbond)    S(metal)    S(lipo)     H(rot)  DE(clash)    DE(int)     intcor
     16.55     -19.83       1.00        0.00     121.84       1.27       1.54       1.75       ----

> <Gold.Chemscore.Fitness>
16.5465

> <Gold.Chemscore.DG>
-19.8311

> <Gold.Chemscore.ZeroCoef>
-5.4800

> <Gold.Chemscore.Hbond>
0.9988

> <Gold.Chemscore.Metal>
0.0000

> <Gold.Chemscore.Lipo>
121.8428

> <Gold.Chemscore.Internal_Hbond>
0.0000

> <Gold.Chemscore.DEClash>
1.5361

> <Gold.Chemscore.DEInternal>
1.7485

> <Gold.Chemscore.Rot>
1.2659

> <Gold.Chemscore.Internal.Correction>
   9.000000E+99

> <Gold.Chemscore.Hbonds>
donor molecule, donor type, donor heavy atom, donor atom, acceptor molecule, acceptor atom, score
      P1  H  6896  6908       L1     6  0.91

> <Gold.Chemscore.Hbond.Weighted>
-3.3361

> <Gold.Chemscore.Metal.Weighted>
-0.0000

> <Gold.Chemscore.Lipo.Weighted>
-14.2556

> <Gold.Chemscore.Internal_Hbond.Weighted>
0.0000

> <Gold.Chemscore.DEClash.Weighted>
1.5361

> <Gold.Chemscore.DEInternal.Weighted>
1.7485

> <Gold.Chemscore.Rot.Weighted>
3.2406

> <Gold.Chemscore.Internal.Correction.Weighted>
   9.000000E+99

> <Gold.Protein.RotatedTorsions>
[ 6907 6896 6895 6894 ] final  -68.78 input  -60.11 | X-H torsion
[ 7974 7965 7964 7962 ] final  148.90 input  175.53 | X-H torsion
[ 8008 7997 7996 7995 ] final   50.88 input   59.86 | X-H torsion
[ 10167 10162 10161 10158 ] final  -79.23 input  -65.29 | X-H torsion
[ 10718 10713 10712 10709 ] final  -11.11 input   66.30 | X-H torsion
[ 10763 10752 10751 10750 ] final -156.53 input  -60.55 | X-H torsion
[ 11005 11000 10999 10996 ] final -179.62 input  -57.11 | X-H torsion

> <Gold.Protein.ActiveResidues>
 VAL166  LYS551  ARG553  GLY616  TRP617  ASP618  TYR619  PRO620  LYS621  CYS622 
 ASP623  PHE694  ASN695  SER759  ASP760  ASP761  ALA762  ILE779  LEU786  VAL792 
 PHE793  MET794  SER795  GLU796  ALA797  LYS798  CYS799  TRP800  GLU811  SER814 

> <Gold.Protein.RotatedAtoms>
  150.7339  134.5691  159.5880 H   0  0  0  0  0  0  0  0  0  0  0  0  # atno 6907 bound_to 6896
  152.3134  134.7466  160.0340 H   0  0  0  0  0  0  0  0  0  0  0  0  # atno 6908 bound_to 6896
  151.8006  133.3334  159.3562 H   0  0  0  0  0  0  0  0  0  0  0  0  # atno 6909 bound_to 6896
  144.8479  139.6212  143.5987 H   0  0  0  0  0  0  0  0  0  0  0  0  # atno 7974 bound_to 7965
  155.4260  140.3448  155.4275 H   0  0  0  0  0  0  0  0  0  0  0  0  # atno 8008 bound_to 7997
  156.1365  140.1529  156.9018 H   0  0  0  0  0  0  0  0  0  0  0  0  # atno 8009 bound_to 7997
  154.4936  140.0834  156.7628 H   0  0  0  0  0  0  0  0  0  0  0  0  # atno 8010 bound_to 7997
  140.4611  143.2453  151.8347 H   0  0  0  0  0  0  0  0  0  0  0  0  # atno 10167 bound_to 10162
  156.6637  130.4989  149.6022 H   0  0  0  0  0  0  0  0  0  0  0  0  # atno 10718 bound_to 10713
  154.7706  135.3144  154.8197 H   0  0  0  0  0  0  0  0  0  0  0  0  # atno 10763 bound_to 10752
  153.8934  135.6823  153.4763 H   0  0  0  0  0  0  0  0  0  0  0  0  # atno 10764 bound_to 10752
  153.1319  135.4776  154.9297 H   0  0  0  0  0  0  0  0  0  0  0  0  # atno 10765 bound_to 10752
  140.4166  134.6643  157.4642 H   0  0  0  0  0  0  0  0  0  0  0  0  # atno 11005 bound_to 11000
  146.2760  139.6753  142.9263 LP  0  0  0  0  0  0  0  0  0  0  0  0  # atno 17320 bound_to 7965
  145.4560  141.0430  143.2778 LP  0  0  0  0  0  0  0  0  0  0  0  0  # atno 17321 bound_to 7965
  139.4806  144.5006  151.9065 LP  0  0  0  0  0  0  0  0  0  0  0  0  # atno 17342 bound_to 10162
  140.4092  144.2392  150.5889 LP  0  0  0  0  0  0  0  0  0  0  0  0  # atno 17343 bound_to 10162
  156.1991  130.6608  151.1148 LP  0  0  0  0  0  0  0  0  0  0  0  0  # atno 17370 bound_to 10713
  157.7101  131.0738  150.6531 LP  0  0  0  0  0  0  0  0  0  0  0  0  # atno 17371 bound_to 10713
  140.0230  134.6519  155.9213 LP  0  0  0  0  0  0  0  0  0  0  0  0  # atno 17394 bound_to 11000
  141.1800  133.6545  156.4983 LP  0  0  0  0  0  0  0  0  0  0  0  0  # atno 17395 bound_to 11000

$$$$
