AV-unprocessed.smi:1489|AV-procd|sdf|6026|dock7
  -GOLD-   22720 6123D 1   1.00000     0.00000
 Structure written by MMmdl.
 46 48  0  0  0  0  0  0  0  0  1 V2000
  146.0256  138.7560  154.1361 O   0  0  0  0  0  0  0  0  0  0  0  0
  146.9277  138.2146  153.4984 C   0  0  0  0  0  0  0  0  0  0  0  0
  148.2428  138.4573  153.6373 N   0  0  0  0  0  0  0  0  0  0  0  0
  148.9118  139.3651  154.5047 C   0  0  0  0  0  0  0  0  0  0  0  0
  148.2757  140.2318  155.4250 C   0  0  0  0  0  0  0  0  0  0  0  0
  149.0667  141.0845  156.2187 C   0  0  0  0  0  0  0  0  0  0  0  0
  150.4736  141.0577  156.0729 C   0  0  0  0  0  0  0  0  0  0  0  0
  151.3001  141.8922  156.8515 N   0  0  0  0  0  0  0  0  0  0  0  0
  151.0157  143.3087  157.0226 C   0  0  0  0  0  0  0  0  0  0  0  0
  152.0517  143.7911  158.0363 C   0  0  0  0  0  0  0  0  0  0  0  0
  152.2656  142.5646  158.9231 C   0  0  0  0  0  0  0  0  0  0  0  0
  152.0735  141.3768  157.9731 C   0  0  0  0  0  0  0  0  0  0  0  0
  151.0806  140.2254  155.1944 N   0  0  0  0  0  0  0  0  0  0  0  0
  150.3186  139.4107  154.4360 C   0  0  0  0  0  0  0  0  0  0  0  0
  146.7092  137.2841  152.5580 N   0  0  0  0  0  0  0  0  0  0  0  0
  145.3990  136.7829  152.1533 C   0  0  2  0  0  0  0  0  0  0  0  0
  144.5569  136.4730  153.4043 C   0  0  0  0  0  0  0  0  0  0  0  0
  143.1811  135.8935  153.0305 C   0  0  0  0  0  0  0  0  0  0  0  0
  143.2969  134.6564  152.1205 C   0  0  2  0  0  0  0  0  0  0  0  0
  143.8229  133.5659  152.8508 O   0  0  0  0  0  0  0  0  0  0  0  0
  144.1763  134.9406  150.8881 C   0  0  0  0  0  0  0  0  0  0  0  0
  145.5466  135.5272  151.2704 C   0  0  0  0  0  0  0  0  0  0  0  0
  148.8511  137.9091  153.0469 H   0  0  0  0  0  0  0  0  0  0  0  0
  147.2054  140.2705  155.5448 H   0  0  0  0  0  0  0  0  0  0  0  0
  148.5845  141.7398  156.9285 H   0  0  0  0  0  0  0  0  0  0  0  0
  151.0899  143.8523  156.0802 H   0  0  0  0  0  0  0  0  0  0  0  0
  150.0057  143.4327  157.4156 H   0  0  0  0  0  0  0  0  0  0  0  0
  152.9818  144.0418  157.5243 H   0  0  0  0  0  0  0  0  0  0  0  0
  151.7243  144.6699  158.5925 H   0  0  0  0  0  0  0  0  0  0  0  0
  153.2384  142.5595  159.4154 H   0  0  0  0  0  0  0  0  0  0  0  0
  151.4982  142.5392  159.6979 H   0  0  0  0  0  0  0  0  0  0  0  0
  151.5704  140.5521  158.4789 H   0  0  0  0  0  0  0  0  0  0  0  0
  153.0343  141.0183  157.6027 H   0  0  0  0  0  0  0  0  0  0  0  0
  150.8545  138.7711  153.7500 H   0  0  0  0  0  0  0  0  0  0  0  0
  147.5095  136.8911  152.0845 H   0  0  0  0  0  0  0  0  0  0  0  0
  144.8830  137.5574  151.5822 H   0  0  0  0  0  0  0  0  0  0  0  0
  145.0878  135.7653  154.0428 H   0  0  0  0  0  0  0  0  0  0  0  0
  144.4216  137.3788  153.9968 H   0  0  0  0  0  0  0  0  0  0  0  0
  142.6193  135.6480  153.9327 H   0  0  0  0  0  0  0  0  0  0  0  0
  142.6039  136.6613  152.5139 H   0  0  0  0  0  0  0  0  0  0  0  0
  142.3003  134.3645  151.7876 H   0  0  0  0  0  0  0  0  0  0  0  0
  143.1258  133.1805  153.3594 H   0  0  0  0  0  0  0  0  0  0  0  0
  144.3086  134.0321  150.2990 H   0  0  0  0  0  0  0  0  0  0  0  0
  143.6594  135.6491  150.2397 H   0  0  0  0  0  0  0  0  0  0  0  0
  146.1027  135.7682  150.3635 H   0  0  0  0  0  0  0  0  0  0  0  0
  146.1324  134.7722  151.7968 H   0  0  0  0  0  0  0  0  0  0  0  0
  1  2  2  0  0  0  0
  2  3  1  0  0  0  0
  2 15  1  0  0  0  0
  3  4  1  0  0  0  0
  3 23  1  0  0  0  0
  4 14  1  0  0  0  0
  4  5  2  0  0  0  0
  5  6  1  0  0  0  0
  5 24  1  0  0  0  0
  6  7  2  0  0  0  0
  6 25  1  0  0  0  0
  7  8  1  0  0  0  0
  7 13  1  0  0  0  0
  8 12  1  0  0  0  0
  8  9  1  0  0  0  0
  9 10  1  0  0  0  0
  9 26  1  0  0  0  0
  9 27  1  0  0  0  0
 10 11  1  0  0  0  0
 10 28  1  0  0  0  0
 10 29  1  0  0  0  0
 11 12  1  0  0  0  0
 11 30  1  0  0  0  0
 11 31  1  0  0  0  0
 12 32  1  0  0  0  0
 12 33  1  0  0  0  0
 13 14  2  0  0  0  0
 14 34  1  0  0  0  0
 15 16  1  0  0  0  0
 15 35  1  0  0  0  0
 16 22  1  0  0  0  0
 16 17  1  0  0  0  0
 16 36  1  0  0  0  0
 17 18  1  0  0  0  0
 17 37  1  0  0  0  0
 17 38  1  0  0  0  0
 18 19  1  0  0  0  0
 18 39  1  0  0  0  0
 18 40  1  0  0  0  0
 19 20  1  0  0  0  0
 19 21  1  0  0  0  0
 19 41  1  0  0  0  0
 20 42  1  0  0  0  0
 21 22  1  0  0  0  0
 21 43  1  0  0  0  0
 21 44  1  0  0  0  0
 22 45  1  0  0  0  0
 22 46  1  0  0  0  0
M  END
> <s_m_source_file>
AV-unprocessed.smi

> <i_m_source_file_index>
1489

> <i_lp_mmshare_version>
43012

> <i_f3d_flags>
0

> <s_epik_input>
W0NIMl0xW0NIMl1bQ0BIXShbT0hdKVtDSDJdW0NIMl1bQ0BIXTFbTkhdQyg9TylbTkhdYzJbY0hdW2NIXWMobltjSF0yKU4zW0NIMl1bQ0gyXVtDSDJdW0NIMl0z

> <s_epik_cmdline>
J2VwaWtfcHl0aG9uJywgJy1waCcsICc3LjAnLCAnLXRuJywgJzgnLCAnLW1hJywgJzIwMCcsICctbWV0YWxfYmluZGluZycsICctaW1hZScsICc8aW5maWxlLm1hZT4nLCAnLW9tYWUnLCAnPG91dGZpbGUubWFlPic=

> <r_lp_tautomer_probability>
1

> <r_epik_Ionization_Penalty>
0.104121

> <r_epik_Ionization_Penalty_Charging>
0

> <r_epik_Ionization_Penalty_Neutral>
0.104121

> <r_epik_State_Penalty>
0.0934704

> <r_epik_Charging_Adjusted_Penalty>
0.0934704

> <i_epik_Tot_Q>
0

> <i_epik_Tot_abs_Q>
0

> <r_epik_Metal_State_Penalty>
0.0794432

> <b_epik_Metal_Only>
0

> <s_lp_Force_Field>
OPLS_2005

> <r_lp_Energy>
35.391

> <b_lp_Chiralities_Consistent>
1

> <s_lp_Variant>
AV-unprocessed.smi:1489-2

> <Gold.Version>
5.8.1

> <Gold.Id.Protein>
6NUR|6NUR_protein|mol2

> <Gold.PLP.Fitness>
43.1602

> <Gold.PLP.PLP>
-36.8372

> <Gold.PLP.part.hbond>
-4.3537

> <Gold.PLP.part.metal>
0.0000

> <Gold.PLP.part.buried>
-4.2781

> <Gold.PLP.part.nonpolar>
-29.6426

> <Gold.PLP.part.repulsive>
0.2292

> <Gold.PLP.ligand.clash>
0.0000

> <Gold.PLP.ligand.torsion>
1.2465

> <Gold.PLP.Chemscore.Hbond>
2.8774

> <Gold.PLP.Chemscore.CHOScore>
0.0000

> <Gold.PLP.Chemscore.Metal>
0.0000

> <Gold.Chemscore.Hbonds>
donor molecule, donor type, donor heavy atom, donor atom, acceptor molecule, acceptor atom, score
      L1  H     3    23       P1  7948  0.90
      L1  H    15    35       P1  7948  1.00
      L1  H    20    42       P1 10957  0.84
      P1  H  7989  7998       L1    13  0.15

> <Gold.PLP.Chemscore.Internal.Correction>
0.1840

> <Gold.Rescore>
     Score         DG    S(hbond)    S(metal)    S(lipo)     H(rot)  DE(clash)    DE(int)     intcor
     17.22     -21.00       2.64        0.00      88.20       1.41       0.06       3.72       ----

> <Gold.Chemscore.Fitness>
17.2162

> <Gold.Chemscore.DG>
-21.0034

> <Gold.Chemscore.ZeroCoef>
-5.4800

> <Gold.Chemscore.Hbond>
2.6384

> <Gold.Chemscore.Metal>
0.0000

> <Gold.Chemscore.Lipo>
88.1955

> <Gold.Chemscore.Internal_Hbond>
0.0000

> <Gold.Chemscore.DEClash>
0.0624

> <Gold.Chemscore.DEInternal>
3.7248

> <Gold.Chemscore.Rot>
1.4093

> <Gold.Chemscore.Internal.Correction>
   9.000000E+99

> <Gold.Chemscore.Hbonds>
donor molecule, donor type, donor heavy atom, donor atom, acceptor molecule, acceptor atom, score
      L1  H     3    23       P1  7948  0.81
      L1  H    15    35       P1  7948  0.98
      L1  H    20    42       P1 10957  0.72

> <Gold.Chemscore.Hbond.Weighted>
-8.8122

> <Gold.Chemscore.Metal.Weighted>
-0.0000

> <Gold.Chemscore.Lipo.Weighted>
-10.3189

> <Gold.Chemscore.Internal_Hbond.Weighted>
0.0000

> <Gold.Chemscore.DEClash.Weighted>
0.0624

> <Gold.Chemscore.DEInternal.Weighted>
3.7248

> <Gold.Chemscore.Rot.Weighted>
3.6077

> <Gold.Chemscore.Internal.Correction.Weighted>
   9.000000E+99

> <Gold.Protein.RotatedTorsions>
[ 6907 6896 6895 6894 ] final  -52.68 input  -60.11 | X-H torsion
[ 7974 7965 7964 7962 ] final -153.31 input  175.53 | X-H torsion
[ 8008 7997 7996 7995 ] final  143.57 input   59.86 | X-H torsion
[ 10167 10162 10161 10158 ] final -132.83 input  -65.29 | X-H torsion
[ 10718 10713 10712 10709 ] final   72.66 input   66.30 | X-H torsion
[ 10763 10752 10751 10750 ] final  -69.40 input  -60.55 | X-H torsion
[ 11005 11000 10999 10996 ] final -149.08 input  -57.11 | X-H torsion

> <Gold.Protein.ActiveResidues>
 VAL166  LYS551  ARG553  GLY616  TRP617  ASP618  TYR619  PRO620  LYS621  CYS622 
 ASP623  PHE694  ASN695  SER759  ASP760  ASP761  ALA762  ILE779  LEU786  VAL792 
 PHE793  MET794  SER795  GLU796  ALA797  LYS798  CYS799  TRP800  GLU811  SER814 

> <Gold.Protein.RotatedAtoms>
  150.8495  134.7816  159.6997 H   0  0  0  0  0  0  0  0  0  0  0  0  # atno 6907 bound_to 6896
  152.4564  134.5279  159.9812 H   0  0  0  0  0  0  0  0  0  0  0  0  # atno 6908 bound_to 6896
  151.5403  133.3396  159.2970 H   0  0  0  0  0  0  0  0  0  0  0  0  # atno 6909 bound_to 6896
  144.7748  140.4544  143.5881 H   0  0  0  0  0  0  0  0  0  0  0  0  # atno 7974 bound_to 7965
  156.2927  140.2259  156.4912 H   0  0  0  0  0  0  0  0  0  0  0  0  # atno 8008 bound_to 7997
  154.7769  140.0463  157.1118 H   0  0  0  0  0  0  0  0  0  0  0  0  # atno 8009 bound_to 7997
  154.9805  140.3078  155.4951 H   0  0  0  0  0  0  0  0  0  0  0  0  # atno 8010 bound_to 7997
  139.9045  143.6567  152.2588 H   0  0  0  0  0  0  0  0  0  0  0  0  # atno 10167 bound_to 10162
  157.6511  130.9590  150.0960 H   0  0  0  0  0  0  0  0  0  0  0  0  # atno 10718 bound_to 10713
  154.4028  135.6027  153.5907 H   0  0  0  0  0  0  0  0  0  0  0  0  # atno 10763 bound_to 10752
  152.9788  135.5911  154.4163 H   0  0  0  0  0  0  0  0  0  0  0  0  # atno 10764 bound_to 10752
  154.3964  135.2842  155.2101 H   0  0  0  0  0  0  0  0  0  0  0  0  # atno 10765 bound_to 10752
  140.7545  134.3369  157.5117 H   0  0  0  0  0  0  0  0  0  0  0  0  # atno 11005 bound_to 11000
  145.6219  139.1525  143.3018 LP  0  0  0  0  0  0  0  0  0  0  0  0  # atno 17320 bound_to 7965
  146.1919  140.6328  142.9141 LP  0  0  0  0  0  0  0  0  0  0  0  0  # atno 17321 bound_to 7965
  139.6996  144.7637  151.1296 LP  0  0  0  0  0  0  0  0  0  0  0  0  # atno 17342 bound_to 10162
  140.7699  143.5476  150.9241 LP  0  0  0  0  0  0  0  0  0  0  0  0  # atno 17343 bound_to 10162
  156.1896  130.3654  149.8927 LP  0  0  0  0  0  0  0  0  0  0  0  0  # atno 17370 bound_to 10713
  156.6859  130.8876  151.3582 LP  0  0  0  0  0  0  0  0  0  0  0  0  # atno 17371 bound_to 10713
  139.8781  134.9163  156.3151 LP  0  0  0  0  0  0  0  0  0  0  0  0  # atno 17394 bound_to 11000
  140.9720  133.7321  156.0548 LP  0  0  0  0  0  0  0  0  0  0  0  0  # atno 17395 bound_to 11000

$$$$
