AV-unprocessed.smi:3282|AV-procd|sdf|12565|dock2
  -GOLD-   2272018483D 1   1.00000     0.00000
 Structure written by MMmdl.
 34 35  0  0  0  0  0  0  0  0  1 V2000
  152.8719  143.1709  161.9394 C   0  0  0  0  0  0  0  0  0  0  0  0
  153.6941  142.0591  161.2674 C   0  0  0  0  0  0  0  0  0  0  0  0
  152.9415  141.3234  160.1458 C   0  0  0  0  0  0  0  0  0  0  0  0
  152.7033  140.1195  160.2540 O   0  0  0  0  0  0  0  0  0  0  0  0
  152.5622  142.0325  159.0622 N   0  0  0  0  0  0  0  0  0  0  0  0
  152.8136  143.4627  158.9063 C   0  0  0  0  0  0  0  0  0  0  0  0
  152.0176  143.8985  157.6763 C   0  0  0  0  0  0  0  0  0  0  0  0
  151.8493  142.6241  156.8538 C   0  0  2  0  0  0  0  0  0  0  0  0
  150.6161  142.6459  156.0732 N   0  0  0  0  0  0  0  0  0  0  0  0
  150.1192  141.6080  155.3838 C   0  0  0  0  0  0  0  0  0  0  0  0
  150.6937  140.5153  155.3461 O   0  0  0  0  0  0  0  0  0  0  0  0
  148.9538  141.9719  154.7304 N   0  0  0  0  0  0  0  0  0  0  0  0
  148.2078  141.0316  154.2397 C   0  0  0  0  0  0  0  0  0  0  0  0
  147.0004  141.1652  153.5730 N   0  0  0  0  0  0  0  0  0  0  0  0
  146.5705  139.9162  153.2187 C   0  0  0  0  0  0  0  0  0  0  0  0
  147.4691  139.0324  153.6434 C   0  0  0  0  0  0  0  0  0  0  0  0
  148.4863  139.6841  154.2731 O   0  0  0  0  0  0  0  0  0  0  0  0
  151.8576  141.4990  157.8980 C   0  0  0  0  0  0  0  0  0  0  0  0
  153.4479  143.6487  162.7319 H   0  0  0  0  0  0  0  0  0  0  0  0
  151.9598  142.7759  162.3885 H   0  0  0  0  0  0  0  0  0  0  0  0
  152.5902  143.9462  161.2258 H   0  0  0  0  0  0  0  0  0  0  0  0
  154.6071  142.4895  160.8547 H   0  0  0  0  0  0  0  0  0  0  0  0
  153.9967  141.3363  162.0257 H   0  0  0  0  0  0  0  0  0  0  0  0
  152.5188  144.0303  159.7904 H   0  0  0  0  0  0  0  0  0  0  0  0
  153.8813  143.6180  158.7446 H   0  0  0  0  0  0  0  0  0  0  0  0
  151.0432  144.2702  157.9981 H   0  0  0  0  0  0  0  0  0  0  0  0
  152.5083  144.6975  157.1198 H   0  0  0  0  0  0  0  0  0  0  0  0
  152.7143  142.5161  156.1966 H   0  0  0  0  0  0  0  0  0  0  0  0
  150.1042  143.5162  156.0518 H   0  0  0  0  0  0  0  0  0  0  0  0
  146.4935  142.0123  153.3605 H   0  0  0  0  0  0  0  0  0  0  0  0
  145.6407  139.7900  152.6841 H   0  0  0  0  0  0  0  0  0  0  0  0
  147.5276  137.9560  153.5784 H   0  0  0  0  0  0  0  0  0  0  0  0
  152.3385  140.6049  157.4992 H   0  0  0  0  0  0  0  0  0  0  0  0
  150.8424  141.2327  158.1978 H   0  0  0  0  0  0  0  0  0  0  0  0
  1  2  1  0  0  0  0
  1 19  1  0  0  0  0
  1 20  1  0  0  0  0
  1 21  1  0  0  0  0
  2  3  1  0  0  0  0
  2 22  1  0  0  0  0
  2 23  1  0  0  0  0
  3  4  2  0  0  0  0
  3  5  1  0  0  0  0
  5 18  1  0  0  0  0
  5  6  1  0  0  0  0
  6  7  1  0  0  0  0
  6 24  1  0  0  0  0
  6 25  1  0  0  0  0
  7  8  1  0  0  0  0
  7 26  1  0  0  0  0
  7 27  1  0  0  0  0
  8  9  1  0  0  0  0
  8 18  1  0  0  0  0
  8 28  1  0  0  0  0
  9 29  1  0  0  0  0
  9 10  1  0  0  0  0
 10 12  1  0  0  0  0
 10 11  2  0  0  0  0
 12 13  2  0  0  0  0
 13 17  1  0  0  0  0
 13 14  1  0  0  0  0
 14 30  1  0  0  0  0
 14 15  1  0  0  0  0
 15 31  1  0  0  0  0
 15 16  2  0  0  0  0
 16 32  1  0  0  0  0
 16 17  1  0  0  0  0
 18 33  1  0  0  0  0
 18 34  1  0  0  0  0
M  END
> <s_m_source_file>
AV-unprocessed.smi

> <i_m_source_file_index>
3282

> <i_lp_mmshare_version>
43012

> <i_f3d_flags>
0

> <s_epik_input>
W0NIM11bQ0gyXUMoPU8pTjFbQ0gyXVtDSDJdW0NASF0oW0NIMl0xKVtOSF1DKD1PKVtOSF1jMm5bY0hdW2NIXW8y

> <s_epik_cmdline>
J2VwaWtfcHl0aG9uJywgJy1waCcsICc3LjAnLCAnLXRuJywgJzgnLCAnLW1hJywgJzIwMCcsICctbWV0YWxfYmluZGluZycsICctaW1hZScsICc8aW5maWxlLm1hZT4nLCAnLW9tYWUnLCAnPG91dGZpbGUubWFlPic=

> <r_lp_tautomer_probability>
0.107061

> <r_epik_Ionization_Penalty>
0.434703

> <r_epik_Ionization_Penalty_Charging>
0.434345

> <r_epik_Ionization_Penalty_Neutral>
0.000358141

> <r_epik_State_Penalty>
2.49584

> <r_epik_Charging_Adjusted_Penalty>
2.93019

> <i_epik_Tot_Q>
0

> <i_epik_Tot_abs_Q>
0

> <r_epik_Metal_State_Penalty>
4.06361

> <b_epik_Metal_Only>
0

> <s_lp_Force_Field>
OPLS_2005

> <r_lp_Energy>
49.1525

> <b_lp_Chiralities_Consistent>
1

> <s_lp_Variant>
AV-unprocessed.smi:3282-6

> <Gold.Version>
5.8.1

> <Gold.Id.Protein>
6NUR|6NUR_protein|mol2

> <Gold.PLP.Fitness>
46.9923

> <Gold.PLP.PLP>
-35.3516

> <Gold.PLP.part.hbond>
-2.0000

> <Gold.PLP.part.metal>
0.0000

> <Gold.PLP.part.buried>
-5.0576

> <Gold.PLP.part.nonpolar>
-29.2120

> <Gold.PLP.part.repulsive>
0.8262

> <Gold.PLP.ligand.clash>
0.0000

> <Gold.PLP.ligand.torsion>
0.1011

> <Gold.PLP.Chemscore.Hbond>
1.9440

> <Gold.PLP.Chemscore.CHOScore>
2.0000

> <Gold.PLP.Chemscore.Metal>
0.0000

> <Gold.Chemscore.Hbonds>
donor molecule, donor type, donor heavy atom, donor atom, acceptor molecule, acceptor atom, score
      L1  H     9    29       P1  8028  1.00
      P1  H  7989  7998       L1    11  0.57
      L1  C    15    31       P1 10175  1.00
      L1  C    16    32       P1  7948  0.29

> <Gold.PLP.Chemscore.Internal.Correction>
0.0109

> <Gold.Rescore>
     Score         DG    S(hbond)    S(metal)    S(lipo)     H(rot)  DE(clash)    DE(int)     intcor
     11.93     -16.02       1.65        0.00      71.89       1.32       1.15       2.94       ----

> <Gold.Chemscore.Fitness>
11.9292

> <Gold.Chemscore.DG>
-16.0196

> <Gold.Chemscore.ZeroCoef>
-5.4800

> <Gold.Chemscore.Hbond>
1.6489

> <Gold.Chemscore.Metal>
0.0000

> <Gold.Chemscore.Lipo>
71.8911

> <Gold.Chemscore.Internal_Hbond>
0.0000

> <Gold.Chemscore.DEClash>
1.1499

> <Gold.Chemscore.DEInternal>
2.9405

> <Gold.Chemscore.Rot>
1.3199

> <Gold.Chemscore.Internal.Correction>
   9.000000E+99

> <Gold.Chemscore.Hbonds>
donor molecule, donor type, donor heavy atom, donor atom, acceptor molecule, acceptor atom, score
      L1  H     9    29       P1  8028  1.00
      P1  H  7989  7998       L1    11  0.06

> <Gold.Chemscore.Hbond.Weighted>
-5.5073

> <Gold.Chemscore.Metal.Weighted>
-0.0000

> <Gold.Chemscore.Lipo.Weighted>
-8.4113

> <Gold.Chemscore.Internal_Hbond.Weighted>
0.0000

> <Gold.Chemscore.DEClash.Weighted>
1.1499

> <Gold.Chemscore.DEInternal.Weighted>
2.9405

> <Gold.Chemscore.Rot.Weighted>
3.3789

> <Gold.Chemscore.Internal.Correction.Weighted>
   9.000000E+99

> <Gold.Protein.RotatedTorsions>
[ 6907 6896 6895 6894 ] final  153.42 input  -60.11 | X-H torsion
[ 7974 7965 7964 7962 ] final -112.50 input  175.53 | X-H torsion
[ 8008 7997 7996 7995 ] final   81.11 input   59.86 | X-H torsion
[ 10167 10162 10161 10158 ] final  -42.20 input  -65.29 | X-H torsion
[ 10718 10713 10712 10709 ] final    4.40 input   66.30 | X-H torsion
[ 10763 10752 10751 10750 ] final  147.60 input  -60.55 | X-H torsion
[ 11005 11000 10999 10996 ] final  -35.20 input  -57.11 | X-H torsion

> <Gold.Protein.ActiveResidues>
 VAL166  LYS551  ARG553  GLY616  TRP617  ASP618  TYR619  PRO620  LYS621  CYS622 
 ASP623  PHE694  ASN695  SER759  ASP760  ASP761  ALA762  ILE779  LEU786  VAL792 
 PHE793  MET794  SER795  GLU796  ALA797  LYS798  CYS799  TRP800  GLU811  SER814 

> <Gold.Protein.RotatedAtoms>
  152.0729  133.4115  159.4466 H   0  0  0  0  0  0  0  0  0  0  0  0  # atno 6907 bound_to 6896
  150.6863  134.3071  159.4740 H   0  0  0  0  0  0  0  0  0  0  0  0  # atno 6908 bound_to 6896
  152.0904  134.9410  160.0622 H   0  0  0  0  0  0  0  0  0  0  0  0  # atno 6909 bound_to 6896
  145.1433  140.8789  143.3689 H   0  0  0  0  0  0  0  0  0  0  0  0  # atno 7974 bound_to 7965
  155.8927  140.3438  155.5968 H   0  0  0  0  0  0  0  0  0  0  0  0  # atno 8008 bound_to 7997
  155.7592  140.0830  157.2182 H   0  0  0  0  0  0  0  0  0  0  0  0  # atno 8009 bound_to 7997
  154.4035  140.1539  156.2800 H   0  0  0  0  0  0  0  0  0  0  0  0  # atno 8010 bound_to 7997
  140.6977  143.3051  151.3175 H   0  0  0  0  0  0  0  0  0  0  0  0  # atno 10167 bound_to 10162
  156.8920  130.5691  149.5649 H   0  0  0  0  0  0  0  0  0  0  0  0  # atno 10718 bound_to 10713
  154.0410  135.2889  155.3355 H   0  0  0  0  0  0  0  0  0  0  0  0  # atno 10763 bound_to 10752
  154.6929  135.5219  153.8421 H   0  0  0  0  0  0  0  0  0  0  0  0  # atno 10764 bound_to 10752
  153.0600  135.6610  154.0614 H   0  0  0  0  0  0  0  0  0  0  0  0  # atno 10765 bound_to 10752
  140.9777  133.7074  156.1630 H   0  0  0  0  0  0  0  0  0  0  0  0  # atno 11005 bound_to 11000
  145.0509  139.3182  143.5929 LP  0  0  0  0  0  0  0  0  0  0  0  0  # atno 17320 bound_to 7965
  146.3503  139.9916  142.8685 LP  0  0  0  0  0  0  0  0  0  0  0  0  # atno 17321 bound_to 7965
  139.6454  144.0462  152.2586 LP  0  0  0  0  0  0  0  0  0  0  0  0  # atno 17342 bound_to 10162
  139.9981  144.6313  150.7754 LP  0  0  0  0  0  0  0  0  0  0  0  0  # atno 17343 bound_to 10162
  156.0624  130.5674  150.9220 LP  0  0  0  0  0  0  0  0  0  0  0  0  # atno 17370 bound_to 10713
  157.6078  131.0938  150.8849 LP  0  0  0  0  0  0  0  0  0  0  0  0  # atno 17371 bound_to 10713
  140.7234  134.4334  157.5573 LP  0  0  0  0  0  0  0  0  0  0  0  0  # atno 17394 bound_to 11000
  139.8937  134.8724  156.2210 LP  0  0  0  0  0  0  0  0  0  0  0  0  # atno 17395 bound_to 11000

$$$$
