AV-unprocessed.smi:1096|AV-procd|sdf|4750|dock3
  -GOLD-   22720 3283D 1   1.00000     0.00000
 Structure written by MMmdl.
 48 50  0  0  0  0  0  0  0  0  1 V2000
  144.6357  136.4402  152.8680 O   0  0  0  0  0  0  0  0  0  0  0  0
  145.7908  136.3971  152.4431 C   0  0  0  0  0  0  0  0  0  0  0  0
  146.3012  135.4173  151.6761 N   0  0  0  0  0  0  0  0  0  0  0  0
  145.6427  134.2650  151.1689 C   0  0  0  0  0  0  0  0  0  0  0  0
  146.4907  133.3066  150.5687 C   0  0  0  0  0  0  0  0  0  0  0  0
  145.9350  132.1295  150.0309 C   0  0  0  0  0  0  0  0  0  0  0  0
  144.5435  131.9408  150.1061 C   0  0  0  0  0  0  0  0  0  0  0  0
  143.7708  132.9442  150.7195 C   0  0  0  0  0  0  0  0  0  0  0  0
  144.3013  134.0727  151.2359 N   0  0  0  0  0  0  0  0  0  0  0  0
  146.7093  137.3403  152.7006 N   0  0  0  0  0  0  0  0  0  0  0  0
  146.4853  138.5374  153.5061 C   0  0  2  0  0  0  0  0  0  0  0  0
  146.9888  139.7765  152.7466 C   0  0  0  0  0  0  0  0  0  0  0  0
  146.7738  141.0565  153.5726 C   0  0  0  0  0  0  0  0  0  0  0  0
  147.4501  140.9996  154.9619 C   0  0  2  0  0  0  0  0  0  0  0  0
  148.9813  141.2167  154.8701 C   0  0  0  0  0  0  0  0  0  0  0  0
  149.4955  141.3351  153.7574 O   0  0  0  0  0  0  0  0  0  0  0  0
  149.7318  141.2361  156.0018 N   0  0  0  0  0  0  0  0  0  0  0  0
  151.1999  141.2276  155.9673 C   0  0  0  0  0  0  0  0  0  0  0  0
  151.6963  139.7985  156.2479 C   0  0  0  0  0  0  0  0  0  0  0  0
  151.1942  139.2417  157.9078 S   0  0  0  0  0  0  0  0  0  0  0  0
  149.4253  139.6694  157.8564 C   0  0  0  0  0  0  0  0  0  0  0  0
  149.2272  141.1162  157.3755 C   0  0  0  0  0  0  0  0  0  0  0  0
  147.0476  139.7008  155.7073 C   0  0  0  0  0  0  0  0  0  0  0  0
  147.1901  138.4134  154.8699 C   0  0  0  0  0  0  0  0  0  0  0  0
  147.2721  135.5108  151.4176 H   0  0  0  0  0  0  0  0  0  0  0  0
  147.5580  133.4680  150.5186 H   0  0  0  0  0  0  0  0  0  0  0  0
  146.5660  131.3853  149.5680 H   0  0  0  0  0  0  0  0  0  0  0  0
  144.0802  131.0518  149.7043 H   0  0  0  0  0  0  0  0  0  0  0  0
  142.6988  132.8393  150.7967 H   0  0  0  0  0  0  0  0  0  0  0  0
  147.6334  137.2225  152.3122 H   0  0  0  0  0  0  0  0  0  0  0  0
  145.4132  138.6591  153.6735 H   0  0  0  0  0  0  0  0  0  0  0  0
  148.0462  139.6640  152.5030 H   0  0  0  0  0  0  0  0  0  0  0  0
  146.4633  139.8672  151.7953 H   0  0  0  0  0  0  0  0  0  0  0  0
  147.1334  141.9167  153.0065 H   0  0  0  0  0  0  0  0  0  0  0  0
  145.7033  141.2173  153.7060 H   0  0  0  0  0  0  0  0  0  0  0  0
  147.0399  141.8005  155.5749 H   0  0  0  0  0  0  0  0  0  0  0  0
  151.5955  141.5741  155.0118 H   0  0  0  0  0  0  0  0  0  0  0  0
  151.6011  141.9185  156.7102 H   0  0  0  0  0  0  0  0  0  0  0  0
  151.2981  139.1059  155.5054 H   0  0  0  0  0  0  0  0  0  0  0  0
  152.7830  139.7521  156.1769 H   0  0  0  0  0  0  0  0  0  0  0  0
  148.9087  138.9715  157.1965 H   0  0  0  0  0  0  0  0  0  0  0  0
  149.0047  139.5383  158.8534 H   0  0  0  0  0  0  0  0  0  0  0  0
  149.7693  141.7992  158.0313 H   0  0  0  0  0  0  0  0  0  0  0  0
  148.1851  141.4162  157.4736 H   0  0  0  0  0  0  0  0  0  0  0  0
  147.6214  139.6020  156.6299 H   0  0  0  0  0  0  0  0  0  0  0  0
  146.0066  139.7923  156.0196 H   0  0  0  0  0  0  0  0  0  0  0  0
  146.7717  137.5757  155.4292 H   0  0  0  0  0  0  0  0  0  0  0  0
  148.2420  138.1721  154.7205 H   0  0  0  0  0  0  0  0  0  0  0  0
  1  2  2  0  0  0  0
  2  3  1  0  0  0  0
  2 10  1  0  0  0  0
  3  4  1  0  0  0  0
  3 25  1  0  0  0  0
  4  9  1  0  0  0  0
  4  5  2  0  0  0  0
  5  6  1  0  0  0  0
  5 26  1  0  0  0  0
  6  7  2  0  0  0  0
  6 27  1  0  0  0  0
  7  8  1  0  0  0  0
  7 28  1  0  0  0  0
  8  9  2  0  0  0  0
  8 29  1  0  0  0  0
 10 11  1  0  0  0  0
 10 30  1  0  0  0  0
 11 24  1  0  0  0  0
 11 12  1  0  0  0  0
 11 31  1  0  0  0  0
 12 13  1  0  0  0  0
 12 32  1  0  0  0  0
 12 33  1  0  0  0  0
 13 14  1  0  0  0  0
 13 34  1  0  0  0  0
 13 35  1  0  0  0  0
 14 15  1  0  0  0  0
 14 23  1  0  0  0  0
 14 36  1  0  0  0  0
 15 16  2  0  0  0  0
 15 17  1  0  0  0  0
 17 22  1  0  0  0  0
 17 18  1  0  0  0  0
 18 19  1  0  0  0  0
 18 37  1  0  0  0  0
 18 38  1  0  0  0  0
 19 20  1  0  0  0  0
 19 39  1  0  0  0  0
 19 40  1  0  0  0  0
 20 21  1  0  0  0  0
 21 22  1  0  0  0  0
 21 41  1  0  0  0  0
 21 42  1  0  0  0  0
 22 43  1  0  0  0  0
 22 44  1  0  0  0  0
 23 24  1  0  0  0  0
 23 45  1  0  0  0  0
 23 46  1  0  0  0  0
 24 47  1  0  0  0  0
 24 48  1  0  0  0  0
M  END
> <s_m_source_file>
AV-unprocessed.smi

> <i_m_source_file_index>
1096

> <i_lp_mmshare_version>
43012

> <i_f3d_flags>
0

> <s_epik_input>
bjFbY0hdW2NIXVtjSF1bY0hdYzFbTkhdQyg9TylbTkhdW0NAQEhdMltDSDJdW0NIMl1bQ0BIXShbQ0gyXVtDSDJdMilDKD1PKU4zW0NIMl1bQ0gyXVNbQ0gyXVtDSDJdMw==

> <s_epik_cmdline>
J2VwaWtfcHl0aG9uJywgJy1waCcsICc3LjAnLCAnLXRuJywgJzgnLCAnLW1hJywgJzIwMCcsICctbWV0YWxfYmluZGluZycsICctaW1hZScsICc8aW5maWxlLm1hZT4nLCAnLW9tYWUnLCAnPG91dGZpbGUubWFlPic=

> <r_lp_tautomer_probability>
1

> <r_epik_Ionization_Penalty>
5.08504e-05

> <r_epik_Ionization_Penalty_Charging>
0

> <r_epik_Ionization_Penalty_Neutral>
5.08504e-05

> <r_epik_State_Penalty>
-0

> <r_epik_Charging_Adjusted_Penalty>
0

> <i_epik_Tot_Q>
0

> <i_epik_Tot_abs_Q>
0

> <r_epik_Metal_State_Penalty>
-0

> <b_epik_Metal_Only>
0

> <s_lp_Force_Field>
OPLS_2005

> <r_lp_Energy>
29.5517

> <b_lp_Chiralities_Consistent>
1

> <s_lp_Variant>
AV-unprocessed.smi:1096-2

> <Gold.Version>
5.8.1

> <Gold.Id.Protein>
6NUR|6NUR_protein|mol2

> <Gold.PLP.Fitness>
49.7977

> <Gold.PLP.PLP>
-38.0271

> <Gold.PLP.part.hbond>
-4.0000

> <Gold.PLP.part.metal>
0.0000

> <Gold.PLP.part.buried>
-3.5598

> <Gold.PLP.part.nonpolar>
-32.1343

> <Gold.PLP.part.repulsive>
1.9584

> <Gold.PLP.ligand.clash>
0.0000

> <Gold.PLP.ligand.torsion>
0.1854

> <Gold.PLP.Chemscore.Hbond>
3.0307

> <Gold.PLP.Chemscore.CHOScore>
0.9892

> <Gold.PLP.Chemscore.Metal>
0.0000

> <Gold.Chemscore.Hbonds>
donor molecule, donor type, donor heavy atom, donor atom, acceptor molecule, acceptor atom, score
      L1  H     3    25       P1  7948  0.98
      L1  H    10    30       P1  7948  1.00
      P1  H  7989  7998       L1    16  0.15
      P1  H  8011  8017       L1    16  0.83
      L1  C     8    29       P1 10186  0.67

> <Gold.PLP.Chemscore.Internal.Correction>
0.0818

> <Gold.Rescore>
     Score         DG    S(hbond)    S(metal)    S(lipo)     H(rot)  DE(clash)    DE(int)     intcor
     19.84     -22.77       3.10        0.00      86.86       1.26       1.50       1.44       ----

> <Gold.Chemscore.Fitness>
19.8376

> <Gold.Chemscore.DG>
-22.7707

> <Gold.Chemscore.ZeroCoef>
-5.4800

> <Gold.Chemscore.Hbond>
3.0982

> <Gold.Chemscore.Metal>
0.0000

> <Gold.Chemscore.Lipo>
86.8613

> <Gold.Chemscore.Internal_Hbond>
0.0000

> <Gold.Chemscore.DEClash>
1.4955

> <Gold.Chemscore.DEInternal>
1.4376

> <Gold.Chemscore.Rot>
1.2578

> <Gold.Chemscore.Internal.Correction>
   9.000000E+99

> <Gold.Chemscore.Hbonds>
donor molecule, donor type, donor heavy atom, donor atom, acceptor molecule, acceptor atom, score
      L1  H     3    25       P1  7948  0.88
      L1  H    10    30       P1  7948  0.96
      P1  H  7989  7998       L1    16  0.15
      P1  H  8011  8017       L1    16  0.83

> <Gold.Chemscore.Hbond.Weighted>
-10.3480

> <Gold.Chemscore.Metal.Weighted>
-0.0000

> <Gold.Chemscore.Lipo.Weighted>
-10.1628

> <Gold.Chemscore.Internal_Hbond.Weighted>
0.0000

> <Gold.Chemscore.DEClash.Weighted>
1.4955

> <Gold.Chemscore.DEInternal.Weighted>
1.4376

> <Gold.Chemscore.Rot.Weighted>
3.2200

> <Gold.Chemscore.Internal.Correction.Weighted>
   9.000000E+99

> <Gold.Protein.RotatedTorsions>
[ 6907 6896 6895 6894 ] final  158.45 input  -60.11 | X-H torsion
[ 7974 7965 7964 7962 ] final   79.79 input  175.53 | X-H torsion
[ 8008 7997 7996 7995 ] final  116.08 input   59.86 | X-H torsion
[ 10167 10162 10161 10158 ] final  142.06 input  -65.29 | X-H torsion
[ 10718 10713 10712 10709 ] final -105.93 input   66.30 | X-H torsion
[ 10763 10752 10751 10750 ] final  -32.61 input  -60.55 | X-H torsion
[ 11005 11000 10999 10996 ] final   -5.19 input  -57.11 | X-H torsion

> <Gold.Protein.ActiveResidues>
 VAL166  LYS551  ARG553  GLY616  TRP617  ASP618  TYR619  PRO620  LYS621  CYS622 
 ASP623  PHE694  ASN695  SER759  ASP760  ASP761  ALA762  ILE779  LEU786  VAL792 
 PHE793  MET794  SER795  GLU796  ALA797  LYS798  CYS799  TRP800  GLU811  SER814 

> <Gold.Protein.RotatedAtoms>
  152.0003  133.3823  159.4178 H   0  0  0  0  0  0  0  0  0  0  0  0  # atno 6907 bound_to 6896
  150.6911  134.3841  159.5056 H   0  0  0  0  0  0  0  0  0  0  0  0  # atno 6908 bound_to 6896
  152.1588  134.8929  160.0594 H   0  0  0  0  0  0  0  0  0  0  0  0  # atno 6909 bound_to 6896
  145.6596  139.2468  143.1930 H   0  0  0  0  0  0  0  0  0  0  0  0  # atno 7974 bound_to 7965
  156.2418  140.2925  156.0467 H   0  0  0  0  0  0  0  0  0  0  0  0  # atno 8008 bound_to 7997
  155.1926  140.0407  157.2920 H   0  0  0  0  0  0  0  0  0  0  0  0  # atno 8009 bound_to 7997
  154.6184  140.2469  155.7587 H   0  0  0  0  0  0  0  0  0  0  0  0  # atno 8010 bound_to 7997
  139.5004  144.6132  151.6225 H   0  0  0  0  0  0  0  0  0  0  0  0  # atno 10167 bound_to 10162
  156.0367  130.5587  150.7608 H   0  0  0  0  0  0  0  0  0  0  0  0  # atno 10718 bound_to 10713
  153.8166  135.6878  153.4833 H   0  0  0  0  0  0  0  0  0  0  0  0  # atno 10763 bound_to 10752
  153.1595  135.4585  154.9750 H   0  0  0  0  0  0  0  0  0  0  0  0  # atno 10764 bound_to 10752
  154.7945  135.3314  154.7642 H   0  0  0  0  0  0  0  0  0  0  0  0  # atno 10765 bound_to 10752
  140.6885  133.9092  155.8602 H   0  0  0  0  0  0  0  0  0  0  0  0  # atno 11005 bound_to 11000
  146.1136  140.7398  142.9491 LP  0  0  0  0  0  0  0  0  0  0  0  0  # atno 17320 bound_to 7965
  144.7093  140.3978  143.7093 LP  0  0  0  0  0  0  0  0  0  0  0  0  # atno 17321 bound_to 7965
  140.5812  143.9942  150.6269 LP  0  0  0  0  0  0  0  0  0  0  0  0  # atno 17342 bound_to 10162
  140.3092  143.3209  152.0895 LP  0  0  0  0  0  0  0  0  0  0  0  0  # atno 17343 bound_to 10162
  157.5128  131.0926  151.0177 LP  0  0  0  0  0  0  0  0  0  0  0  0  # atno 17370 bound_to 10713
  157.0528  130.5794  149.5373 LP  0  0  0  0  0  0  0  0  0  0  0  0  # atno 17371 bound_to 10713
  141.0260  134.0822  157.4067 LP  0  0  0  0  0  0  0  0  0  0  0  0  # atno 17394 bound_to 11000
  139.8930  135.0128  156.6878 LP  0  0  0  0  0  0  0  0  0  0  0  0  # atno 17395 bound_to 11000

$$$$
