AV-unprocessed.smi:1244|AV-procd|sdf|5233|dock8
  -GOLD-   22720 4333D 1   1.00000     0.00000
 Structure written by MMmdl.
 56 58  0  0  0  0  0  0  0  0  3 V2000
  150.9605  133.6445  156.6271 C   0  0  0  0  0  0  0  0  0  0  0  0
  150.6912  135.1100  156.2682 C   0  0  2  0  0  0  0  0  0  0  0  0
  150.1130  135.2612  154.8463 C   0  0  0  0  0  0  0  0  0  0  0  0
  149.9396  136.6890  154.4828 N   0  3  1  0  0  0  0  0  0  0  0  0
  148.7418  137.3195  155.0985 C   0  0  0  0  0  0  0  0  0  0  0  0
  147.9692  138.2046  154.1012 C   0  0  0  0  0  0  0  0  0  0  0  0
  147.0228  137.4244  153.3116 N   0  0  0  0  0  0  0  0  0  0  0  0
  145.8237  137.0105  153.7454 C   0  0  0  0  0  0  0  0  0  0  0  0
  145.3955  137.2398  154.8765 O   0  0  0  0  0  0  0  0  0  0  0  0
  145.1603  136.3400  152.7882 N   0  0  0  0  0  0  0  0  0  0  0  0
  143.8535  135.7779  152.8582 C   0  0  0  0  0  0  0  0  0  0  0  0
  142.8549  136.3393  153.6954 C   0  0  0  0  0  0  0  0  0  0  0  0
  141.5949  135.7207  153.7999 C   0  0  0  0  0  0  0  0  0  0  0  0
  141.3555  134.5392  153.0783 C   0  0  0  0  0  0  0  0  0  0  0  0
  142.3290  134.0224  152.3006 N   0  3  0  0  0  0  0  0  0  0  0  0
  143.5566  134.5790  152.1468 C   0  0  0  0  0  0  0  0  0  0  0  0
  144.4729  133.9320  151.2867 N   0  0  0  0  0  0  0  0  0  0  0  0
  145.8134  133.5983  151.7544 C   0  0  0  0  0  0  0  0  0  0  0  0
  146.3586  132.6156  150.7220 C   0  0  0  0  0  0  0  0  0  0  0  0
  145.1112  131.8310  150.3265 C   0  0  0  0  0  0  0  0  0  0  0  0
  143.9848  132.8666  150.4161 C   0  0  0  0  0  0  0  0  0  0  0  0
  151.2094  137.4324  154.6876 C   0  0  0  0  0  0  0  0  0  0  0  0
  151.7785  137.2126  156.1063 C   0  0  2  0  0  0  0  0  0  0  0  0
  153.1512  137.8709  156.2824 C   0  0  0  0  0  0  0  0  0  0  0  0
  151.9251  135.8163  156.3414 O   0  0  0  0  0  0  0  0  0  0  0  0
  150.0427  133.0569  156.5944 H   0  0  0  0  0  0  0  0  0  0  0  0
  151.3733  133.5591  157.6327 H   0  0  0  0  0  0  0  0  0  0  0  0
  151.6722  133.1924  155.9359 H   0  0  0  0  0  0  0  0  0  0  0  0
  149.9961  135.5208  157.0023 H   0  0  0  0  0  0  0  0  0  0  0  0
  150.7958  134.8079  154.1263 H   0  0  0  0  0  0  0  0  0  0  0  0
  149.1687  134.7238  154.7494 H   0  0  0  0  0  0  0  0  0  0  0  0
  148.0646  136.5367  155.4430 H   0  0  0  0  0  0  0  0  0  0  0  0
  149.0243  137.8865  155.9853 H   0  0  0  0  0  0  0  0  0  0  0  0
  147.4328  139.0072  154.6082 H   0  0  0  0  0  0  0  0  0  0  0  0
  148.6672  138.6851  153.4148 H   0  0  0  0  0  0  0  0  0  0  0  0
  147.2962  137.1958  152.3667 H   0  0  0  0  0  0  0  0  0  0  0  0
  145.5968  136.3134  151.8783 H   0  0  0  0  0  0  0  0  0  0  0  0
  143.0429  137.2264  154.2809 H   0  0  0  0  0  0  0  0  0  0  0  0
  140.8284  136.1403  154.4351 H   0  0  0  0  0  0  0  0  0  0  0  0
  140.4241  133.9921  153.1021 H   0  0  0  0  0  0  0  0  0  0  0  0
  146.4397  134.4871  151.8378 H   0  0  0  0  0  0  0  0  0  0  0  0
  145.7692  133.1139  152.7305 H   0  0  0  0  0  0  0  0  0  0  0  0
  146.7477  133.1567  149.8581 H   0  0  0  0  0  0  0  0  0  0  0  0
  147.1560  131.9842  151.1155 H   0  0  0  0  0  0  0  0  0  0  0  0
  145.1898  131.3746  149.3394 H   0  0  0  0  0  0  0  0  0  0  0  0
  144.9358  131.0344  151.0509 H   0  0  0  0  0  0  0  0  0  0  0  0
  143.0635  132.4182  150.7904 H   0  0  0  0  0  0  0  0  0  0  0  0
  143.7828  133.2833  149.4291 H   0  0  0  0  0  0  0  0  0  0  0  0
  151.9292  137.0711  153.9516 H   0  0  0  0  0  0  0  0  0  0  0  0
  151.0808  138.4949  154.4859 H   0  0  0  0  0  0  0  0  0  0  0  0
  151.1046  137.6325  156.8543 H   0  0  0  0  0  0  0  0  0  0  0  0
  153.0938  138.9477  156.1213 H   0  0  0  0  0  0  0  0  0  0  0  0
  153.8780  137.4653  155.5780 H   0  0  0  0  0  0  0  0  0  0  0  0
  153.5359  137.7065  157.2892 H   0  0  0  0  0  0  0  0  0  0  0  0
  149.7588  136.6973  153.4891 H   0  0  0  0  0  0  0  0  0  0  0  0
  142.1248  133.1630  151.7904 H   0  0  0  0  0  0  0  0  0  0  0  0
  1  2  1  0  0  0  0
  1 26  1  0  0  0  0
  1 27  1  0  0  0  0
  1 28  1  0  0  0  0
  2 25  1  0  0  0  0
  2  3  1  0  0  0  0
  2 29  1  0  0  0  0
  3  4  1  0  0  0  0
  3 30  1  0  0  0  0
  3 31  1  0  0  0  0
  4  5  1  0  0  0  0
  4 22  1  0  0  0  0
  4 55  1  0  0  0  0
  5  6  1  0  0  0  0
  5 32  1  0  0  0  0
  5 33  1  0  0  0  0
  6  7  1  0  0  0  0
  6 34  1  0  0  0  0
  6 35  1  0  0  0  0
  7  8  1  0  0  0  0
  7 36  1  0  0  0  0
  8  9  2  0  0  0  0
  8 10  1  0  0  0  0
 10 11  1  0  0  0  0
 10 37  1  0  0  0  0
 11 16  1  0  0  0  0
 11 12  2  0  0  0  0
 12 13  1  0  0  0  0
 12 38  1  0  0  0  0
 13 14  2  0  0  0  0
 13 39  1  0  0  0  0
 14 15  1  0  0  0  0
 14 40  1  0  0  0  0
 15 16  2  0  0  0  0
 15 56  1  0  0  0  0
 16 17  1  0  0  0  0
 17 21  1  0  0  0  0
 17 18  1  0  0  0  0
 18 19  1  0  0  0  0
 18 41  1  0  0  0  0
 18 42  1  0  0  0  0
 19 20  1  0  0  0  0
 19 43  1  0  0  0  0
 19 44  1  0  0  0  0
 20 21  1  0  0  0  0
 20 45  1  0  0  0  0
 20 46  1  0  0  0  0
 21 47  1  0  0  0  0
 21 48  1  0  0  0  0
 22 23  1  0  0  0  0
 22 49  1  0  0  0  0
 22 50  1  0  0  0  0
 23 24  1  0  0  0  0
 23 25  1  0  0  0  0
 23 51  1  0  0  0  0
 24 52  1  0  0  0  0
 24 53  1  0  0  0  0
 24 54  1  0  0  0  0
M  CHG  1   4   1
M  CHG  1  15   1
M  END
> <s_m_source_file>
AV-unprocessed.smi

> <i_m_source_file_index>
1244

> <i_lp_mmshare_version>
43012

> <i_f3d_flags>
0

> <s_epik_input>
W0NIM11bQ0BASF0xW0NIMl1OKFtDSDJdW0NASF0oTzEpW0NIM10pW0NIMl1bQ0gyXVtOSF1DKD1PKVtOSF1jMltjSF1bY0hdW2NIXW5jMk4zW0NIMl1bQ0gyXVtDSDJdW0NIMl0z

> <s_epik_cmdline>
J2VwaWtfcHl0aG9uJywgJy1waCcsICc3LjAnLCAnLXRuJywgJzgnLCAnLW1hJywgJzIwMCcsICctbWV0YWxfYmluZGluZycsICctaW1hZScsICc8aW5maWxlLm1hZT4nLCAnLW9tYWUnLCAnPG91dGZpbGUubWFlPic=

> <r_lp_tautomer_probability>
0.999994

> <r_epik_Ionization_Penalty>
1.81601

> <r_epik_Ionization_Penalty_Charging>
1.81599

> <r_epik_Ionization_Penalty_Neutral>
2.01972e-05

> <r_epik_State_Penalty>
1.85672

> <r_epik_Charging_Adjusted_Penalty>
3.6727

> <i_epik_Tot_Q>
2

> <i_epik_Tot_abs_Q>
2

> <r_epik_Metal_State_Penalty>
1.93796

> <b_epik_Metal_Only>
0

> <s_lp_Force_Field>
OPLS_2005

> <r_lp_Energy>
53.9706

> <b_lp_Chiralities_Consistent>
1

> <s_lp_Variant>
AV-unprocessed.smi:1244-13

> <Gold.Version>
5.8.1

> <Gold.Id.Protein>
6NUR|6NUR_protein|mol2

> <Gold.PLP.Fitness>
45.7613

> <Gold.PLP.PLP>
-37.3187

> <Gold.PLP.part.hbond>
-4.0209

> <Gold.PLP.part.metal>
0.0000

> <Gold.PLP.part.buried>
-4.7360

> <Gold.PLP.part.nonpolar>
-29.2170

> <Gold.PLP.part.repulsive>
0.2624

> <Gold.PLP.ligand.clash>
0.0000

> <Gold.PLP.ligand.torsion>
1.1981

> <Gold.PLP.Chemscore.Hbond>
3.4800

> <Gold.PLP.Chemscore.CHOScore>
0.0000

> <Gold.PLP.Chemscore.Metal>
0.0000

> <Gold.Chemscore.Hbonds>
donor molecule, donor type, donor heavy atom, donor atom, acceptor molecule, acceptor atom, score
      L1  H     4    55       P1  7948  2.00
      L1  H     7    36       P1  7948  0.53
      P1  H 10752 10764       L1    25  1.00

> <Gold.PLP.Chemscore.Internal.Correction>
0.3988

> <Gold.Rescore>
     Score         DG    S(hbond)    S(metal)    S(lipo)     H(rot)  DE(clash)    DE(int)     intcor
     17.74     -20.26       2.13        0.00     101.29       1.63       0.11       2.42       ----

> <Gold.Chemscore.Fitness>
17.7390

> <Gold.Chemscore.DG>
-20.2643

> <Gold.Chemscore.ZeroCoef>
-5.4800

> <Gold.Chemscore.Hbond>
2.1269

> <Gold.Chemscore.Metal>
0.0000

> <Gold.Chemscore.Lipo>
101.2927

> <Gold.Chemscore.Internal_Hbond>
0.0000

> <Gold.Chemscore.DEClash>
0.1074

> <Gold.Chemscore.DEInternal>
2.4179

> <Gold.Chemscore.Rot>
1.6293

> <Gold.Chemscore.Internal.Correction>
   9.000000E+99

> <Gold.Chemscore.Hbonds>
donor molecule, donor type, donor heavy atom, donor atom, acceptor molecule, acceptor atom, score
      L1  H     4    55       P1  7948  0.45
      L1  H     7    36       P1  7948  0.51
      P1  H 10752 10764       L1    25  0.29

> <Gold.Chemscore.Hbond.Weighted>
-7.1039

> <Gold.Chemscore.Metal.Weighted>
-0.0000

> <Gold.Chemscore.Lipo.Weighted>
-11.8512

> <Gold.Chemscore.Internal_Hbond.Weighted>
0.0000

> <Gold.Chemscore.DEClash.Weighted>
0.1074

> <Gold.Chemscore.DEInternal.Weighted>
2.4179

> <Gold.Chemscore.Rot.Weighted>
4.1709

> <Gold.Chemscore.Internal.Correction.Weighted>
   9.000000E+99

> <Gold.Protein.RotatedTorsions>
[ 6907 6896 6895 6894 ] final -122.00 input  -60.11 | X-H torsion
[ 7974 7965 7964 7962 ] final  151.88 input  175.53 | X-H torsion
[ 8008 7997 7996 7995 ] final  165.27 input   59.86 | X-H torsion
[ 10167 10162 10161 10158 ] final  158.66 input  -65.29 | X-H torsion
[ 10718 10713 10712 10709 ] final  -68.66 input   66.30 | X-H torsion
[ 10763 10752 10751 10750 ] final  -15.76 input  -60.55 | X-H torsion
[ 11005 11000 10999 10996 ] final  -66.25 input  -57.11 | X-H torsion

> <Gold.Protein.ActiveResidues>
 VAL166  LYS551  ARG553  GLY616  TRP617  ASP618  TYR619  PRO620  LYS621  CYS622 
 ASP623  PHE694  ASN695  SER759  ASP760  ASP761  ALA762  ILE779  LEU786  VAL792 
 PHE793  MET794  SER795  GLU796  ALA797  LYS798  CYS799  TRP800  GLU811  SER814 

> <Gold.Protein.RotatedAtoms>
  150.8535  133.7751  159.3016 H   0  0  0  0  0  0  0  0  0  0  0  0  # atno 6907 bound_to 6896
  151.5415  135.1067  159.9937 H   0  0  0  0  0  0  0  0  0  0  0  0  # atno 6908 bound_to 6896
  152.4571  133.7702  159.6851 H   0  0  0  0  0  0  0  0  0  0  0  0  # atno 6909 bound_to 6896
  144.8261  139.6595  143.6079 H   0  0  0  0  0  0  0  0  0  0  0  0  # atno 7974 bound_to 7965
  156.1814  140.1674  156.8267 H   0  0  0  0  0  0  0  0  0  0  0  0  # atno 8008 bound_to 7997
  154.5364  140.0746  156.8468 H   0  0  0  0  0  0  0  0  0  0  0  0  # atno 8009 bound_to 7997
  155.3302  140.3378  155.4242 H   0  0  0  0  0  0  0  0  0  0  0  0  # atno 8010 bound_to 7997
  139.4828  144.4803  151.8453 H   0  0  0  0  0  0  0  0  0  0  0  0  # atno 10167 bound_to 10162
  156.0494  130.4299  150.2034 H   0  0  0  0  0  0  0  0  0  0  0  0  # atno 10718 bound_to 10713
  153.5483  135.7012  153.5603 H   0  0  0  0  0  0  0  0  0  0  0  0  # atno 10763 bound_to 10752
  153.3539  135.3988  155.1667 H   0  0  0  0  0  0  0  0  0  0  0  0  # atno 10764 bound_to 10752
  154.8664  135.3772  154.4992 H   0  0  0  0  0  0  0  0  0  0  0  0  # atno 10765 bound_to 10752
  141.1477  133.6696  156.6111 H   0  0  0  0  0  0  0  0  0  0  0  0  # atno 11005 bound_to 11000
  146.2566  139.6317  142.9390 LP  0  0  0  0  0  0  0  0  0  0  0  0  # atno 17320 bound_to 7965
  145.4996  141.0438  143.2547 LP  0  0  0  0  0  0  0  0  0  0  0  0  # atno 17321 bound_to 7965
  140.4279  144.2156  150.5887 LP  0  0  0  0  0  0  0  0  0  0  0  0  # atno 17342 bound_to 10162
  140.4809  143.2379  151.8956 LP  0  0  0  0  0  0  0  0  0  0  0  0  # atno 17343 bound_to 10162
  157.0119  130.9953  151.3363 LP  0  0  0  0  0  0  0  0  0  0  0  0  # atno 17370 bound_to 10713
  157.5404  130.8116  149.8022 LP  0  0  0  0  0  0  0  0  0  0  0  0  # atno 17371 bound_to 10713
  140.3614  134.7684  157.4536 LP  0  0  0  0  0  0  0  0  0  0  0  0  # atno 17394 bound_to 11000
  140.0782  134.5768  155.8568 LP  0  0  0  0  0  0  0  0  0  0  0  0  # atno 17395 bound_to 11000

$$$$
