AV-unprocessed.smi:1033|AV-procd|sdf|4507|dock9
  -GOLD-   22720 2513D 1   1.00000     0.00000
 Structure written by MMmdl.
 57 59  0  0  0  0  0  0  0  0  3 V2000
  152.7061  143.4291  161.5535 C   0  0  0  0  0  0  0  0  0  0  0  0
  152.1688  142.9603  160.2125 C   0  0  0  0  0  0  0  0  0  0  0  0
  152.1723  141.5787  159.9161 C   0  0  0  0  0  0  0  0  0  0  0  0
  151.6853  141.1022  158.6796 C   0  0  0  0  0  0  0  0  0  0  0  0
  151.5944  139.8120  158.1862 N   0  0  0  0  0  0  0  0  0  0  0  0
  151.0621  140.0201  156.9859 C   0  0  0  0  0  0  0  0  0  0  0  0
  150.7806  141.2938  156.6490 N   0  0  0  0  0  0  0  0  0  0  0  0
  150.1891  141.7620  155.4089 C   0  0  0  0  0  0  0  0  0  0  0  0
  148.7020  141.3760  155.2794 C   0  0  1  0  0  0  0  0  0  0  0  0
  147.9431  142.3247  156.0008 O   0  0  0  0  0  0  0  0  0  0  0  0
  148.1954  141.3375  153.8206 C   0  0  0  0  0  0  0  0  0  0  0  0
  147.5585  140.0400  153.4778 N   0  3  2  0  0  0  0  0  0  0  0  0
  147.1100  139.9556  152.0641 C   0  0  0  0  0  0  0  0  0  0  0  0
  146.5381  138.5627  151.7463 C   0  0  0  0  0  0  0  0  0  0  0  0
  145.4351  138.2096  152.6739 N   0  3  1  0  0  0  0  0  0  0  0  0
  144.7991  136.9114  152.3300 C   0  0  0  0  0  0  0  0  0  0  0  0
  143.4946  136.6666  153.1136 C   0  0  2  0  0  0  0  0  0  0  0  0
  142.7856  135.3811  152.6682 C   0  0  0  0  0  0  0  0  0  0  0  0
  142.6161  137.7525  152.8990 O   0  0  0  0  0  0  0  0  0  0  0  0
  145.8830  138.2955  154.0878 C   0  0  0  0  0  0  0  0  0  0  0  0
  146.4555  139.6885  154.4055 C   0  0  0  0  0  0  0  0  0  0  0  0
  151.1884  142.0530  157.7407 C   0  0  0  0  0  0  0  0  0  0  0  0
  151.1809  143.4305  158.0232 C   0  0  0  0  0  0  0  0  0  0  0  0
  151.6710  143.8895  159.2637 C   0  0  0  0  0  0  0  0  0  0  0  0
  151.6592  145.3788  159.5599 C   0  0  0  0  0  0  0  0  0  0  0  0
  153.0750  142.5935  162.1492 H   0  0  0  0  0  0  0  0  0  0  0  0
  151.9233  143.9279  162.1251 H   0  0  0  0  0  0  0  0  0  0  0  0
  153.5315  144.1272  161.4119 H   0  0  0  0  0  0  0  0  0  0  0  0
  152.5530  140.8707  160.6378 H   0  0  0  0  0  0  0  0  0  0  0  0
  150.8549  139.1974  156.3171 H   0  0  0  0  0  0  0  0  0  0  0  0
  150.3057  142.8458  155.3645 H   0  0  0  0  0  0  0  0  0  0  0  0
  150.7623  141.3514  154.5760 H   0  0  0  0  0  0  0  0  0  0  0  0
  148.5569  140.4065  155.7537 H   0  0  0  0  0  0  0  0  0  0  0  0
  148.3252  143.1802  155.8734 H   0  0  0  0  0  0  0  0  0  0  0  0
  147.4808  142.1507  153.6834 H   0  0  0  0  0  0  0  0  0  0  0  0
  149.0051  141.5251  153.1143 H   0  0  0  0  0  0  0  0  0  0  0  0
  146.3536  140.7194  151.8753 H   0  0  0  0  0  0  0  0  0  0  0  0
  147.9386  140.1614  151.3873 H   0  0  0  0  0  0  0  0  0  0  0  0
  146.1731  138.5509  150.7184 H   0  0  0  0  0  0  0  0  0  0  0  0
  147.3250  137.8093  151.8129 H   0  0  0  0  0  0  0  0  0  0  0  0
  144.5704  136.8846  151.2631 H   0  0  0  0  0  0  0  0  0  0  0  0
  145.5107  136.1032  152.5073 H   0  0  0  0  0  0  0  0  0  0  0  0
  143.6936  136.5948  154.1822 H   0  0  0  0  0  0  0  0  0  0  0  0
  143.4146  134.5074  152.8418 H   0  0  0  0  0  0  0  0  0  0  0  0
  142.5397  135.4075  151.6059 H   0  0  0  0  0  0  0  0  0  0  0  0
  141.8573  135.2315  153.2208 H   0  0  0  0  0  0  0  0  0  0  0  0
  143.1243  138.5108  152.6522 H   0  0  0  0  0  0  0  0  0  0  0  0
  145.0535  138.0918  154.7642 H   0  0  0  0  0  0  0  0  0  0  0  0
  146.6385  137.5314  154.2780 H   0  0  0  0  0  0  0  0  0  0  0  0
  146.8210  139.7000  155.4332 H   0  0  0  0  0  0  0  0  0  0  0  0
  145.6694  140.4425  154.3387 H   0  0  0  0  0  0  0  0  0  0  0  0
  150.8050  144.1291  157.2905 H   0  0  0  0  0  0  0  0  0  0  0  0
  151.2187  145.9454  158.7390 H   0  0  0  0  0  0  0  0  0  0  0  0
  152.6749  145.7452  159.7115 H   0  0  0  0  0  0  0  0  0  0  0  0
  151.0776  145.5857  160.4585 H   0  0  0  0  0  0  0  0  0  0  0  0
  144.7197  138.9117  152.5443 H   0  0  0  0  0  0  0  0  0  0  0  0
  148.2730  139.3368  153.6064 H   0  0  0  0  0  0  0  0  0  0  0  0
  1  2  1  0  0  0  0
  1 26  1  0  0  0  0
  1 27  1  0  0  0  0
  1 28  1  0  0  0  0
  2 24  1  0  0  0  0
  2  3  2  0  0  0  0
  3  4  1  0  0  0  0
  3 29  1  0  0  0  0
  4 22  2  0  0  0  0
  4  5  1  0  0  0  0
  5  6  2  0  0  0  0
  6  7  1  0  0  0  0
  6 30  1  0  0  0  0
  7  8  1  0  0  0  0
  7 22  1  0  0  0  0
  8  9  1  0  0  0  0
  8 31  1  0  0  0  0
  8 32  1  0  0  0  0
  9 10  1  0  0  0  0
  9 11  1  0  0  0  0
  9 33  1  0  0  0  0
 10 34  1  0  0  0  0
 11 12  1  0  0  0  0
 11 35  1  0  0  0  0
 11 36  1  0  0  0  0
 12 21  1  0  0  0  0
 12 13  1  0  0  0  0
 12 57  1  0  0  0  0
 13 14  1  0  0  0  0
 13 37  1  0  0  0  0
 13 38  1  0  0  0  0
 14 15  1  0  0  0  0
 14 39  1  0  0  0  0
 14 40  1  0  0  0  0
 15 16  1  0  0  0  0
 15 20  1  0  0  0  0
 15 56  1  0  0  0  0
 16 17  1  0  0  0  0
 16 41  1  0  0  0  0
 16 42  1  0  0  0  0
 17 18  1  0  0  0  0
 17 19  1  0  0  0  0
 17 43  1  0  0  0  0
 18 44  1  0  0  0  0
 18 45  1  0  0  0  0
 18 46  1  0  0  0  0
 19 47  1  0  0  0  0
 20 21  1  0  0  0  0
 20 48  1  0  0  0  0
 20 49  1  0  0  0  0
 21 50  1  0  0  0  0
 21 51  1  0  0  0  0
 22 23  1  0  0  0  0
 23 24  2  0  0  0  0
 23 52  1  0  0  0  0
 24 25  1  0  0  0  0
 25 53  1  0  0  0  0
 25 54  1  0  0  0  0
 25 55  1  0  0  0  0
M  CHG  1  12   1
M  CHG  1  15   1
M  END
> <s_m_source_file>
AV-unprocessed.smi

> <i_m_source_file_index>
1033

> <i_lp_mmshare_version>
43012

> <i_f3d_flags>
0

> <s_epik_input>
W0NIM11jKFtjSF0xKWMoW0NIM10pW2NIXWMoYzEyKW4oW2NIXW4yKVtDSDJdW0NASF0oW09IXSlbQ0gyXU4zW0NIMl1bQ0gyXU4oW0NIMl1bQ0gyXTMpW0NIMl1bQ0BIXShbQ0gzXSlbT0hd

> <s_epik_cmdline>
J2VwaWtfcHl0aG9uJywgJy1waCcsICc3LjAnLCAnLXRuJywgJzgnLCAnLW1hJywgJzIwMCcsICctbWV0YWxfYmluZGluZycsICctaW1hZScsICc8aW5maWxlLm1hZT4nLCAnLW9tYWUnLCAnPG91dGZpbGUubWFlPic=

> <r_epik_Ionization_Penalty>
3.16016

> <r_epik_Ionization_Penalty_Charging>
3.07679

> <r_epik_Ionization_Penalty_Neutral>
0.083365

> <r_epik_State_Penalty>
2.09701

> <r_epik_Charging_Adjusted_Penalty>
5.1738

> <i_epik_Tot_Q>
2

> <i_epik_Tot_abs_Q>
2

> <r_epik_Metal_State_Penalty>
2.02534

> <b_epik_Metal_Only>
0

> <s_lp_Force_Field>
OPLS_2005

> <r_lp_Energy>
25.863

> <b_lp_Chiralities_Consistent>
1

> <s_lp_Variant>
AV-unprocessed.smi:1033-18

> <Gold.Version>
5.8.1

> <Gold.Id.Protein>
6NUR|6NUR_protein|mol2

> <Gold.PLP.Fitness>
61.6923

> <Gold.PLP.PLP>
-51.8043

> <Gold.PLP.part.hbond>
-4.1648

> <Gold.PLP.part.metal>
0.0000

> <Gold.PLP.part.buried>
-1.0062

> <Gold.PLP.part.nonpolar>
-46.1640

> <Gold.PLP.part.repulsive>
0.0445

> <Gold.PLP.ligand.clash>
0.0000

> <Gold.PLP.ligand.torsion>
1.1157

> <Gold.PLP.Chemscore.Hbond>
4.0000

> <Gold.PLP.Chemscore.CHOScore>
0.0000

> <Gold.PLP.Chemscore.Metal>
0.0000

> <Gold.Chemscore.Hbonds>
donor molecule, donor type, donor heavy atom, donor atom, acceptor molecule, acceptor atom, score
      L1  H    10    34       P1  8028  1.00
      L1  H    15    56       P1 10175  2.00
      L1  H    19    47       P1 10175  1.00

> <Gold.PLP.Chemscore.Internal.Correction>
0.1194

> <Gold.Rescore>
     Score         DG    S(hbond)    S(metal)    S(lipo)     H(rot)  DE(clash)    DE(int)     intcor
     21.39     -24.19       2.96        0.00     144.12       3.14       1.70       1.10       ----

> <Gold.Chemscore.Fitness>
21.3910

> <Gold.Chemscore.DG>
-24.1892

> <Gold.Chemscore.ZeroCoef>
-5.4800

> <Gold.Chemscore.Hbond>
2.9580

> <Gold.Chemscore.Metal>
0.0000

> <Gold.Chemscore.Lipo>
144.1241

> <Gold.Chemscore.Internal_Hbond>
0.0000

> <Gold.Chemscore.DEClash>
1.6955

> <Gold.Chemscore.DEInternal>
1.1026

> <Gold.Chemscore.Rot>
3.1380

> <Gold.Chemscore.Internal.Correction>
   9.000000E+99

> <Gold.Chemscore.Hbonds>
donor molecule, donor type, donor heavy atom, donor atom, acceptor molecule, acceptor atom, score
      L1  H    10    34       P1  8028  0.88
      L1  H    15    56       P1 10175  1.00
      L1  H    19    47       P1 10175  0.96

> <Gold.Chemscore.Hbond.Weighted>
-9.8799

> <Gold.Chemscore.Metal.Weighted>
-0.0000

> <Gold.Chemscore.Lipo.Weighted>
-16.8625

> <Gold.Chemscore.Internal_Hbond.Weighted>
0.0000

> <Gold.Chemscore.DEClash.Weighted>
1.6955

> <Gold.Chemscore.DEInternal.Weighted>
1.1026

> <Gold.Chemscore.Rot.Weighted>
8.0332

> <Gold.Chemscore.Internal.Correction.Weighted>
   9.000000E+99

> <Gold.Protein.RotatedTorsions>
[ 6907 6896 6895 6894 ] final  145.76 input  -60.11 | X-H torsion
[ 7974 7965 7964 7962 ] final -139.92 input  175.53 | X-H torsion
[ 8008 7997 7996 7995 ] final   42.68 input   59.86 | X-H torsion
[ 10167 10162 10161 10158 ] final   98.04 input  -65.29 | X-H torsion
[ 10718 10713 10712 10709 ] final  166.54 input   66.30 | X-H torsion
[ 10763 10752 10751 10750 ] final  157.20 input  -60.55 | X-H torsion
[ 11005 11000 10999 10996 ] final  -36.51 input  -57.11 | X-H torsion

> <Gold.Protein.ActiveResidues>
 VAL166  LYS551  ARG553  GLY616  TRP617  ASP618  TYR619  PRO620  LYS621  CYS622 
 ASP623  PHE694  ASN695  SER759  ASP760  ASP761  ALA762  ILE779  LEU786  VAL792 
 PHE793  MET794  SER795  GLU796  ALA797  LYS798  CYS799  TRP800  GLU811  SER814 

> <Gold.Protein.RotatedAtoms>
  152.1767  133.4680  159.4936 H   0  0  0  0  0  0  0  0  0  0  0  0  # atno 6907 bound_to 6896
  150.6928  134.1885  159.4285 H   0  0  0  0  0  0  0  0  0  0  0  0  # atno 6908 bound_to 6896
  151.9794  135.0036  160.0607 H   0  0  0  0  0  0  0  0  0  0  0  0  # atno 6909 bound_to 6896
  144.8638  140.6261  143.5311 H   0  0  0  0  0  0  0  0  0  0  0  0  # atno 7974 bound_to 7965
  155.2902  140.3378  155.4253 H   0  0  0  0  0  0  0  0  0  0  0  0  # atno 8008 bound_to 7997
  156.2050  140.1747  156.7860 H   0  0  0  0  0  0  0  0  0  0  0  0  # atno 8009 bound_to 7997
  154.5608  140.0687  156.8800 H   0  0  0  0  0  0  0  0  0  0  0  0  # atno 8010 bound_to 7997
  139.7745  144.6911  151.0109 H   0  0  0  0  0  0  0  0  0  0  0  0  # atno 10167 bound_to 10162
  157.0644  131.0349  151.2635 H   0  0  0  0  0  0  0  0  0  0  0  0  # atno 10718 bound_to 10713
  154.1964  135.2792  155.3005 H   0  0  0  0  0  0  0  0  0  0  0  0  # atno 10763 bound_to 10752
  154.5888  135.5566  153.7261 H   0  0  0  0  0  0  0  0  0  0  0  0  # atno 10764 bound_to 10752
  153.0099  135.6363  154.2103 H   0  0  0  0  0  0  0  0  0  0  0  0  # atno 10765 bound_to 10752
  140.9881  133.7020  156.1800 H   0  0  0  0  0  0  0  0  0  0  0  0  # atno 11005 bound_to 11000
  145.4260  139.1556  143.4048 LP  0  0  0  0  0  0  0  0  0  0  0  0  # atno 17320 bound_to 7965
  146.2881  140.4374  142.8750 LP  0  0  0  0  0  0  0  0  0  0  0  0  # atno 17321 bound_to 7965
  140.7815  143.4551  151.0357 LP  0  0  0  0  0  0  0  0  0  0  0  0  # atno 17342 bound_to 10162
  139.8234  143.7789  152.3178 LP  0  0  0  0  0  0  0  0  0  0  0  0  # atno 17343 bound_to 10162
  157.4929  130.7833  149.7526 LP  0  0  0  0  0  0  0  0  0  0  0  0  # atno 17370 bound_to 10713
  155.9969  130.3903  150.2762 LP  0  0  0  0  0  0  0  0  0  0  0  0  # atno 17371 bound_to 10713
  140.7083  134.4489  157.5583 LP  0  0  0  0  0  0  0  0  0  0  0  0  # atno 17394 bound_to 11000
  139.8979  134.8625  156.2023 LP  0  0  0  0  0  0  0  0  0  0  0  0  # atno 17395 bound_to 11000

$$$$
