AV-unprocessed.smi:283|AV-procd|sdf|2138|dock7
  -GOLD-   2262021463D 1   1.00000     0.00000
 Structure written by MMmdl.
 48 51  0  0  0  0  0  0  0  0  1 V2000
  147.0244  132.0471  158.7438 C   0  0  0  0  0  0  0  0  0  0  0  0
  147.7932  133.3713  158.8464 C   0  0  1  0  0  0  0  0  0  0  0  0
  147.6549  134.1177  157.5980 N   0  0  0  0  0  0  0  0  0  0  0  0
  148.6218  134.9632  157.1781 C   0  0  0  0  0  0  0  0  0  0  0  0
  149.8913  134.5591  157.4170 N   0  0  0  0  0  0  0  0  0  0  0  0
  150.9195  135.3124  157.0208 C   0  0  0  0  0  0  0  0  0  0  0  0
  150.8959  136.4885  156.3934 N   0  0  0  0  0  0  0  0  0  0  0  0
  149.6206  136.9213  156.1677 C   0  0  0  0  0  0  0  0  0  0  0  0
  148.4335  136.2153  156.5203 C   0  0  0  0  0  0  0  0  0  0  0  0
  147.3274  136.9524  156.1196 N   0  0  0  0  0  0  0  0  0  0  0  0
  147.8313  138.0126  155.5526 C   0  0  0  0  0  0  0  0  0  0  0  0
  149.2072  138.1025  155.5742 N   0  0  0  0  0  0  0  0  0  0  0  0
  150.0713  139.1888  154.9818 C   0  0  2  0  0  0  0  0  0  0  0  0
  150.9719  139.6429  155.9408 O   0  0  0  0  0  0  0  0  0  0  0  0
  150.3345  140.6260  156.7425 C   0  0  1  0  0  0  0  0  0  0  0  0
  151.3849  141.4477  157.5038 C   0  0  0  0  0  0  0  0  0  0  0  0
  150.7547  142.4772  158.2357 O   0  0  0  0  0  0  0  0  0  0  0  0
  149.5530  141.4355  155.7003 C   0  0  2  0  0  0  0  0  0  0  0  0
  148.3649  141.9373  156.2802 O   0  0  0  0  0  0  0  0  0  0  0  0
  149.2303  140.4232  154.5964 C   0  0  1  0  0  0  0  0  0  0  0  0
  149.6070  140.9220  153.3292 O   0  0  0  0  0  0  0  0  0  0  0  0
  147.3651  134.1384  160.1007 C   0  0  0  0  0  0  0  0  0  0  0  0
  146.8862  135.4648  159.9878 C   0  0  0  0  0  0  0  0  0  0  0  0
  146.4863  136.1845  161.1291 C   0  0  0  0  0  0  0  0  0  0  0  0
  146.5509  135.5815  162.3978 C   0  0  0  0  0  0  0  0  0  0  0  0
  147.0117  134.2578  162.5215 C   0  0  0  0  0  0  0  0  0  0  0  0
  147.4151  133.5331  161.3819 C   0  0  0  0  0  0  0  0  0  0  0  0
  147.9580  131.9049  161.5930 Cl  0  0  0  0  0  0  0  0  0  0  0  0
  150.5740  138.6983  154.1472 H   0  0  0  0  0  0  0  0  0  0  0  0
  149.6438  140.1405  157.4357 H   0  0  0  0  0  0  0  0  0  0  0  0
  150.1603  142.2564  155.3153 H   0  0  0  0  0  0  0  0  0  0  0  0
  148.1679  140.1834  154.5653 H   0  0  0  0  0  0  0  0  0  0  0  0
  147.1825  131.4321  159.6303 H   0  0  0  0  0  0  0  0  0  0  0  0
  147.3525  131.4672  157.8805 H   0  0  0  0  0  0  0  0  0  0  0  0
  145.9517  132.2167  158.6441 H   0  0  0  0  0  0  0  0  0  0  0  0
  148.8473  133.1135  158.9290 H   0  0  0  0  0  0  0  0  0  0  0  0
  146.7077  134.1872  157.2559 H   0  0  0  0  0  0  0  0  0  0  0  0
  151.9012  134.9177  157.2369 H   0  0  0  0  0  0  0  0  0  0  0  0
  147.1981  138.7642  155.1043 H   0  0  0  0  0  0  0  0  0  0  0  0
  151.9805  140.8187  158.1659 H   0  0  0  0  0  0  0  0  0  0  0  0
  152.0710  141.9203  156.8006 H   0  0  0  0  0  0  0  0  0  0  0  0
  149.8740  142.2037  158.4421 H   0  0  0  0  0  0  0  0  0  0  0  0
  148.3788  142.8807  156.2252 H   0  0  0  0  0  0  0  0  0  0  0  0
  149.4474  140.2516  152.6824 H   0  0  0  0  0  0  0  0  0  0  0  0
  146.8233  135.9421  159.0209 H   0  0  0  0  0  0  0  0  0  0  0  0
  146.1277  137.1985  161.0298 H   0  0  0  0  0  0  0  0  0  0  0  0
  146.2420  136.1313  163.2746 H   0  0  0  0  0  0  0  0  0  0  0  0
  147.0528  133.7955  163.4967 H   0  0  0  0  0  0  0  0  0  0  0  0
  1  2  1  0  0  0  0
  1 33  1  0  0  0  0
  1 34  1  0  0  0  0
  1 35  1  0  0  0  0
  2  3  1  0  0  0  0
  2 22  1  0  0  0  0
  2 36  1  0  0  0  0
  3  4  1  0  0  0  0
  3 37  1  0  0  0  0
  4  9  1  0  0  0  0
  4  5  2  0  0  0  0
  5  6  1  0  0  0  0
  6  7  2  0  0  0  0
  6 38  1  0  0  0  0
  7  8  1  0  0  0  0
  8 12  1  0  0  0  0
  8  9  2  0  0  0  0
  9 10  1  0  0  0  0
 10 11  2  0  0  0  0
 11 12  1  0  0  0  0
 11 39  1  0  0  0  0
 12 13  1  0  0  0  0
 13 29  1  0  0  0  0
 13 20  1  0  0  0  0
 13 14  1  0  0  0  0
 14 15  1  0  0  0  0
 15 30  1  0  0  0  0
 15 16  1  0  0  0  0
 15 18  1  0  0  0  0
 16 17  1  0  0  0  0
 16 40  1  0  0  0  0
 16 41  1  0  0  0  0
 17 42  1  0  0  0  0
 18 31  1  0  0  0  0
 18 19  1  0  0  0  0
 18 20  1  0  0  0  0
 19 43  1  0  0  0  0
 20 32  1  0  0  0  0
 20 21  1  0  0  0  0
 21 44  1  0  0  0  0
 22 27  1  0  0  0  0
 22 23  2  0  0  0  0
 23 24  1  0  0  0  0
 23 45  1  0  0  0  0
 24 25  2  0  0  0  0
 24 46  1  0  0  0  0
 25 26  1  0  0  0  0
 25 47  1  0  0  0  0
 26 27  2  0  0  0  0
 26 48  1  0  0  0  0
 27 28  1  0  0  0  0
M  END
> <s_m_source_file>
AV-unprocessed.smi

> <i_m_source_file_index>
283

> <i_lp_mmshare_version>
43012

> <i_f3d_flags>
0

> <s_epik_input>
Q2xjMVtjSF1bY0hdW2NIXVtjSF1jMVtDQEhdKFtDSDNdKVtOSF1jKG5bY0hdbjIpYyhjMjMpbltjSF1uM1tDQEBIXTRPW0NASF0oW0NIMl1bT0hdKVtDQEBIXShbT0hdKVtDQEhdNFtPSF0=

> <s_epik_cmdline>
J2VwaWtfcHl0aG9uJywgJy1waCcsICc3LjAnLCAnLXRuJywgJzgnLCAnLW1hJywgJzIwMCcsICctbWV0YWxfYmluZGluZycsICctaW1hZScsICc8aW5maWxlLm1hZT4nLCAnLW9tYWUnLCAnPG91dGZpbGUubWFlPic=

> <r_lp_tautomer_probability>
1

> <r_epik_Ionization_Penalty>
0.000266407

> <r_epik_Ionization_Penalty_Charging>
0

> <r_epik_Ionization_Penalty_Neutral>
0.000266407

> <r_epik_State_Penalty>
-0

> <r_epik_Charging_Adjusted_Penalty>
0

> <i_epik_Tot_Q>
0

> <i_epik_Tot_abs_Q>
0

> <r_epik_Metal_State_Penalty>
-0

> <b_epik_Metal_Only>
0

> <s_epik_Chemistry_Notes>
This compound contains an acetal/aminal-like group ( X-CH(R)-Y where X, Y are N, S, or O) that may be acid/base labile, releasing an aldehyde.

> <s_lp_Force_Field>
OPLS_2005

> <r_lp_Energy>
39.8379

> <b_lp_Chiralities_Consistent>
1

> <s_lp_Variant>
AV-unprocessed.smi:283-14

> <Gold.Version>
5.8.1

> <Gold.Id.Protein>
6NUR|6NUR_protein|mol2

> <Gold.PLP.Fitness>
45.3365

> <Gold.PLP.PLP>
-36.0660

> <Gold.PLP.part.hbond>
-4.5046

> <Gold.PLP.part.metal>
0.0000

> <Gold.PLP.part.buried>
-5.8067

> <Gold.PLP.part.nonpolar>
-26.8932

> <Gold.PLP.part.repulsive>
0.0559

> <Gold.PLP.ligand.clash>
0.0000

> <Gold.PLP.ligand.torsion>
0.8231

> <Gold.PLP.Chemscore.Hbond>
3.6004

> <Gold.PLP.Chemscore.CHOScore>
0.0000

> <Gold.PLP.Chemscore.Metal>
0.0000

> <Gold.Chemscore.Hbonds>
donor molecule, donor type, donor heavy atom, donor atom, acceptor molecule, acceptor atom, score
      L1  H    19    43       P1  8028  1.00
      L1  H    21    44       P1  7957  0.77
      P1  H  6896  6908       L1     5  0.55
      P1  H  7989  7998       L1    21  0.22
      P1  H  8011  8017       L1    21  1.00

> <Gold.PLP.Chemscore.Internal.Correction>
0.1155

> <Gold.Rescore>
     Score         DG    S(hbond)    S(metal)    S(lipo)     H(rot)  DE(clash)    DE(int)     intcor
     12.21     -13.02       2.53        0.00      81.92       4.10       0.05       0.76       ----

> <Gold.Chemscore.Fitness>
12.2129

> <Gold.Chemscore.DG>
-13.0229

> <Gold.Chemscore.ZeroCoef>
-5.4800

> <Gold.Chemscore.Hbond>
2.5288

> <Gold.Chemscore.Metal>
0.0000

> <Gold.Chemscore.Lipo>
81.9201

> <Gold.Chemscore.Internal_Hbond>
0.0000

> <Gold.Chemscore.DEClash>
0.0477

> <Gold.Chemscore.DEInternal>
0.7623

> <Gold.Chemscore.Rot>
4.0968

> <Gold.Chemscore.Internal.Correction>
   9.000000E+99

> <Gold.Chemscore.Hbonds>
donor molecule, donor type, donor heavy atom, donor atom, acceptor molecule, acceptor atom, score
      L1  H    19    43       P1  8028  0.86
      L1  H    21    44       P1  7957  0.72
      P1  H  6896  6908       L1     5  0.08
      P1  H  7989  7998       L1    21  0.03
      P1  H  8011  8017       L1    21  0.39

> <Gold.Chemscore.Hbond.Weighted>
-8.4462

> <Gold.Chemscore.Metal.Weighted>
-0.0000

> <Gold.Chemscore.Lipo.Weighted>
-9.5847

> <Gold.Chemscore.Internal_Hbond.Weighted>
0.0000

> <Gold.Chemscore.DEClash.Weighted>
0.0477

> <Gold.Chemscore.DEInternal.Weighted>
0.7623

> <Gold.Chemscore.Rot.Weighted>
10.4879

> <Gold.Chemscore.Internal.Correction.Weighted>
   9.000000E+99

> <Gold.Protein.RotatedTorsions>
[ 6907 6896 6895 6894 ] final  136.78 input  -60.11 | X-H torsion
[ 7974 7965 7964 7962 ] final -107.16 input  175.53 | X-H torsion
[ 8008 7997 7996 7995 ] final  -23.48 input   59.86 | X-H torsion
[ 10167 10162 10161 10158 ] final  158.04 input  -65.29 | X-H torsion
[ 10718 10713 10712 10709 ] final -170.96 input   66.30 | X-H torsion
[ 10763 10752 10751 10750 ] final  152.48 input  -60.55 | X-H torsion
[ 11005 11000 10999 10996 ] final  -72.02 input  -57.11 | X-H torsion

> <Gold.Protein.ActiveResidues>
 VAL166  LYS551  ARG553  GLY616  TRP617  ASP618  TYR619  PRO620  LYS621  CYS622 
 ASP623  PHE694  ASN695  SER759  ASP760  ASP761  ALA762  ILE779  LEU786  VAL792 
 PHE793  MET794  SER795  GLU796  ALA797  LYS798  CYS799  TRP800  GLU811  SER814 

> <Gold.Protein.RotatedAtoms>
  152.2855  133.5511  159.5524 H   0  0  0  0  0  0  0  0  0  0  0  0  # atno 6907 bound_to 6896
  150.7213  134.0503  159.3805 H   0  0  0  0  0  0  0  0  0  0  0  0  # atno 6908 bound_to 6896
  151.8411  135.0590  160.0499 H   0  0  0  0  0  0  0  0  0  0  0  0  # atno 6909 bound_to 6896
  145.2088  140.9087  143.3326 H   0  0  0  0  0  0  0  0  0  0  0  0  # atno 7974 bound_to 7965
  154.4583  140.1979  156.0317 H   0  0  0  0  0  0  0  0  0  0  0  0  # atno 8008 bound_to 7997
  156.0790  140.3274  155.7641 H   0  0  0  0  0  0  0  0  0  0  0  0  # atno 8009 bound_to 7997
  155.5143  140.0564  157.2909 H   0  0  0  0  0  0  0  0  0  0  0  0  # atno 8010 bound_to 7997
  139.4825  144.4862  151.8374 H   0  0  0  0  0  0  0  0  0  0  0  0  # atno 10167 bound_to 10162
  156.7338  130.9316  151.3106 H   0  0  0  0  0  0  0  0  0  0  0  0  # atno 10718 bound_to 10713
  154.1207  135.2833  155.3209 H   0  0  0  0  0  0  0  0  0  0  0  0  # atno 10763 bound_to 10752
  154.6425  135.5397  153.7809 H   0  0  0  0  0  0  0  0  0  0  0  0  # atno 10764 bound_to 10752
  153.0314  135.6490  154.1361 H   0  0  0  0  0  0  0  0  0  0  0  0  # atno 10765 bound_to 10752
  141.1602  133.6834  156.6994 H   0  0  0  0  0  0  0  0  0  0  0  0  # atno 11005 bound_to 11000
  144.9876  139.3721  143.6231 LP  0  0  0  0  0  0  0  0  0  0  0  0  # atno 17320 bound_to 7965
  146.3402  139.9044  142.8789 LP  0  0  0  0  0  0  0  0  0  0  0  0  # atno 17321 bound_to 7965
  140.4342  144.2074  150.5889 LP  0  0  0  0  0  0  0  0  0  0  0  0  # atno 17342 bound_to 10162
  140.4749  143.2400  151.9038 LP  0  0  0  0  0  0  0  0  0  0  0  0  # atno 17343 bound_to 10162
  157.6847  130.9174  150.0357 LP  0  0  0  0  0  0  0  0  0  0  0  0  # atno 17370 bound_to 10713
  156.1511  130.3642  149.9438 LP  0  0  0  0  0  0  0  0  0  0  0  0  # atno 17371 bound_to 10713
  140.2970  134.8195  157.4065 LP  0  0  0  0  0  0  0  0  0  0  0  0  # atno 17394 bound_to 11000
  140.1296  134.5113  155.8116 LP  0  0  0  0  0  0  0  0  0  0  0  0  # atno 17395 bound_to 11000

$$$$
