AV-unprocessed.smi:2063|AV-procd|sdf|8413|dock3
  -GOLD-   2272011103D 1   1.00000     0.00000
 Structure written by MMmdl.
 38 39  0  0  0  0  0  0  0  0  2 V2000
  152.5897  143.1271  161.9422 C   0  0  0  0  0  0  0  0  0  0  0  0
  152.3791  143.8948  160.6291 C   0  0  0  0  0  0  0  0  0  0  0  0
  151.2620  144.9447  160.7168 C   0  0  0  0  0  0  0  0  0  0  0  0
  152.2002  142.9748  159.4620 C   0  0  0  0  0  0  0  0  0  0  0  0
  151.2135  143.1085  158.5703 N   0  0  0  0  0  0  0  0  0  0  0  0
  151.2573  142.1292  157.5888 N   0  0  0  0  0  0  0  0  0  0  0  0
  152.2666  141.2629  157.7550 C   0  0  0  0  0  0  0  0  0  0  0  0
  152.4820  140.2365  156.9155 N   0  5  0  0  0  0  0  0  0  0  0  0
  151.6045  139.9866  155.9165 C   0  0  0  0  0  0  0  0  0  0  0  0
  151.6860  140.3937  154.7552 O   0  0  0  0  0  0  0  0  0  0  0  0
  150.5692  139.2182  156.2856 N   0  0  0  0  0  0  0  0  0  0  0  0
  149.4622  138.7922  155.4314 C   0  0  1  0  0  0  0  0  0  0  0  0
  148.3488  138.1757  156.2971 C   0  0  0  0  0  0  0  0  0  0  0  0
  148.9629  139.9970  154.6099 C   0  0  2  0  0  0  0  0  0  0  0  0
  148.4642  141.1766  155.4455 C   0  0  0  0  0  0  0  0  0  0  0  0
  147.5688  141.8924  154.4606 C   0  0  0  0  0  0  0  0  0  0  0  0
  146.9275  140.7299  153.7076 C   0  0  0  0  0  0  0  0  0  0  0  0
  147.8312  139.6332  153.8223 O   0  0  0  0  0  0  0  0  0  0  0  0
  153.2759  141.6203  159.1558 S   0  0  0  0  0  0  0  0  0  0  0  0
  153.4422  142.4512  161.8680 H   0  0  0  0  0  0  0  0  0  0  0  0
  151.7133  142.5309  162.1981 H   0  0  0  0  0  0  0  0  0  0  0  0
  152.7804  143.8099  162.7703 H   0  0  0  0  0  0  0  0  0  0  0  0
  153.3023  144.4459  160.4459 H   0  0  0  0  0  0  0  0  0  0  0  0
  151.1973  145.5257  159.7964 H   0  0  0  0  0  0  0  0  0  0  0  0
  151.4416  145.6419  161.5357 H   0  0  0  0  0  0  0  0  0  0  0  0
  150.2911  144.4775  160.8853 H   0  0  0  0  0  0  0  0  0  0  0  0
  150.5418  138.9140  157.2479 H   0  0  0  0  0  0  0  0  0  0  0  0
  149.8230  138.0340  154.7340 H   0  0  0  0  0  0  0  0  0  0  0  0
  147.5230  137.8121  155.6859 H   0  0  0  0  0  0  0  0  0  0  0  0
  147.9469  138.9040  157.0022 H   0  0  0  0  0  0  0  0  0  0  0  0
  148.7201  137.3273  156.8726 H   0  0  0  0  0  0  0  0  0  0  0  0
  149.7450  140.3437  153.9320 H   0  0  0  0  0  0  0  0  0  0  0  0
  147.8785  140.8253  156.2960 H   0  0  0  0  0  0  0  0  0  0  0  0
  149.2712  141.8066  155.8203 H   0  0  0  0  0  0  0  0  0  0  0  0
  146.8386  142.5459  154.9386 H   0  0  0  0  0  0  0  0  0  0  0  0
  148.1717  142.4939  153.7791 H   0  0  0  0  0  0  0  0  0  0  0  0
  145.9808  140.4473  154.1689 H   0  0  0  0  0  0  0  0  0  0  0  0
  146.7346  140.9755  152.6632 H   0  0  0  0  0  0  0  0  0  0  0  0
  1  2  1  0  0  0  0
  1 20  1  0  0  0  0
  1 21  1  0  0  0  0
  1 22  1  0  0  0  0
  2  3  1  0  0  0  0
  2  4  1  0  0  0  0
  2 23  1  0  0  0  0
  3 24  1  0  0  0  0
  3 25  1  0  0  0  0
  3 26  1  0  0  0  0
  4 19  1  0  0  0  0
  4  5  2  0  0  0  0
  5  6  1  0  0  0  0
  6  7  2  0  0  0  0
  7  8  1  0  0  0  0
  7 19  1  0  0  0  0
  8  9  1  0  0  0  0
  9 10  2  0  0  0  0
  9 11  1  0  0  0  0
 11 12  1  0  0  0  0
 11 27  1  0  0  0  0
 12 13  1  0  0  0  0
 12 14  1  0  0  0  0
 12 28  1  0  0  0  0
 13 29  1  0  0  0  0
 13 30  1  0  0  0  0
 13 31  1  0  0  0  0
 14 18  1  0  0  0  0
 14 15  1  0  0  0  0
 14 32  1  0  0  0  0
 15 16  1  0  0  0  0
 15 33  1  0  0  0  0
 15 34  1  0  0  0  0
 16 17  1  0  0  0  0
 16 35  1  0  0  0  0
 16 36  1  0  0  0  0
 17 18  1  0  0  0  0
 17 37  1  0  0  0  0
 17 38  1  0  0  0  0
M  CHG  1   8  -1
M  END
> <s_m_source_file>
AV-unprocessed.smi

> <i_m_source_file_index>
2063

> <i_lp_mmshare_version>
43012

> <i_f3d_flags>
0

> <s_epik_input>
W0NIM11bQ0hdKFtDSDNdKWMxbm5jKHMxKVtOSF1DKD1PKVtOSF1bQ0BIXShbQ0gzXSlbQ0BASF0yW0NIMl1bQ0gyXVtDSDJdTzI=

> <s_epik_cmdline>
J2VwaWtfcHl0aG9uJywgJy1waCcsICc3LjAnLCAnLXRuJywgJzgnLCAnLW1hJywgJzIwMCcsICctbWV0YWxfYmluZGluZycsICctaW1hZScsICc8aW5maWxlLm1hZT4nLCAnLW9tYWUnLCAnPG91dGZpbGUubWFlPic=

> <r_lp_tautomer_probability>
1

> <r_epik_Ionization_Penalty>
4.37022

> <r_epik_Ionization_Penalty_Charging>
4.21437

> <r_epik_Ionization_Penalty_Neutral>
0.15585

> <r_epik_State_Penalty>
4.21389

> <r_epik_Charging_Adjusted_Penalty>
8.42826

> <i_epik_Tot_Q>
-1

> <i_epik_Tot_abs_Q>
1

> <r_epik_Metal_State_Penalty>
0.693772

> <b_epik_Metal_Only>
1

> <s_lp_Force_Field>
OPLS_2005

> <r_lp_Energy>
10.2416

> <b_lp_Chiralities_Consistent>
1

> <s_lp_Variant>
AV-unprocessed.smi:2063-6

> <Gold.Version>
5.8.1

> <Gold.Id.Protein>
6NUR|6NUR_protein|mol2

> <Gold.PLP.Fitness>
42.4659

> <Gold.PLP.PLP>
-35.6328

> <Gold.PLP.part.hbond>
-2.0000

> <Gold.PLP.part.metal>
0.0000

> <Gold.PLP.part.buried>
-5.5053

> <Gold.PLP.part.nonpolar>
-28.2702

> <Gold.PLP.part.repulsive>
0.9423

> <Gold.PLP.ligand.clash>
0.0000

> <Gold.PLP.ligand.torsion>
1.0523

> <Gold.PLP.Chemscore.Hbond>
2.9440

> <Gold.PLP.Chemscore.CHOScore>
0.0000

> <Gold.PLP.Chemscore.Metal>
0.0000

> <Gold.Chemscore.Hbonds>
donor molecule, donor type, donor heavy atom, donor atom, acceptor molecule, acceptor atom, score
      P1  H  7989  7998       L1    10  0.46
      P1  H  7997  8009       L1     8  2.00

> <Gold.PLP.Chemscore.Internal.Correction>
0.1058

> <Gold.Rescore>
     Score         DG    S(hbond)    S(metal)    S(lipo)     H(rot)  DE(clash)    DE(int)     intcor
     14.26     -16.34       1.47        0.00      81.15       1.39       0.02       2.07       ----

> <Gold.Chemscore.Fitness>
14.2573

> <Gold.Chemscore.DG>
-16.3439

> <Gold.Chemscore.ZeroCoef>
-5.4800

> <Gold.Chemscore.Hbond>
1.4749

> <Gold.Chemscore.Metal>
0.0000

> <Gold.Chemscore.Lipo>
81.1485

> <Gold.Chemscore.Internal_Hbond>
0.0000

> <Gold.Chemscore.DEClash>
0.0202

> <Gold.Chemscore.DEInternal>
2.0664

> <Gold.Chemscore.Rot>
1.3893

> <Gold.Chemscore.Internal.Correction>
   9.000000E+99

> <Gold.Chemscore.Hbonds>
donor molecule, donor type, donor heavy atom, donor atom, acceptor molecule, acceptor atom, score
      P1  H  7989  7998       L1    10  0.46
      P1  H  7997  8009       L1     8  0.56

> <Gold.Chemscore.Hbond.Weighted>
-4.9263

> <Gold.Chemscore.Metal.Weighted>
-0.0000

> <Gold.Chemscore.Lipo.Weighted>
-9.4944

> <Gold.Chemscore.Internal_Hbond.Weighted>
0.0000

> <Gold.Chemscore.DEClash.Weighted>
0.0202

> <Gold.Chemscore.DEInternal.Weighted>
2.0664

> <Gold.Chemscore.Rot.Weighted>
3.5567

> <Gold.Chemscore.Internal.Correction.Weighted>
   9.000000E+99

> <Gold.Protein.RotatedTorsions>
[ 6907 6896 6895 6894 ] final  158.03 input  -60.11 | X-H torsion
[ 7974 7965 7964 7962 ] final  139.05 input  175.53 | X-H torsion
[ 8008 7997 7996 7995 ] final  178.17 input   59.86 | X-H torsion
[ 10167 10162 10161 10158 ] final  126.87 input  -65.29 | X-H torsion
[ 10718 10713 10712 10709 ] final -159.55 input   66.30 | X-H torsion
[ 10763 10752 10751 10750 ] final  178.57 input  -60.55 | X-H torsion
[ 11005 11000 10999 10996 ] final  167.15 input  -57.11 | X-H torsion

> <Gold.Protein.ActiveResidues>
 VAL166  LYS551  ARG553  GLY616  TRP617  ASP618  TYR619  PRO620  LYS621  CYS622 
 ASP623  PHE694  ASN695  SER759  ASP760  ASP761  ALA762  ILE779  LEU786  VAL792 
 PHE793  MET794  SER795  GLU796  ALA797  LYS798  CYS799  TRP800  GLU811  SER814 

> <Gold.Protein.RotatedAtoms>
  152.0064  133.3844  159.4201 H   0  0  0  0  0  0  0  0  0  0  0  0  # atno 6907 bound_to 6896
  150.6904  134.3778  159.5030 H   0  0  0  0  0  0  0  0  0  0  0  0  # atno 6908 bound_to 6896
  152.1532  134.8971  160.0597 H   0  0  0  0  0  0  0  0  0  0  0  0  # atno 6909 bound_to 6896
  144.9315  139.5041  143.5615 H   0  0  0  0  0  0  0  0  0  0  0  0  # atno 7974 bound_to 7965
  156.0576  140.1340  156.9978 H   0  0  0  0  0  0  0  0  0  0  0  0  # atno 8008 bound_to 7997
  154.4466  140.0998  156.6540 H   0  0  0  0  0  0  0  0  0  0  0  0  # atno 8009 bound_to 7997
  155.5427  140.3461  155.4452 H   0  0  0  0  0  0  0  0  0  0  0  0  # atno 8010 bound_to 7997
  139.5608  144.6880  151.4049 H   0  0  0  0  0  0  0  0  0  0  0  0  # atno 10167 bound_to 10162
  156.5696  130.8683  151.2834 H   0  0  0  0  0  0  0  0  0  0  0  0  # atno 10718 bound_to 10713
  154.5094  135.2787  155.1355 H   0  0  0  0  0  0  0  0  0  0  0  0  # atno 10763 bound_to 10752
  154.2957  135.6258  153.5407 H   0  0  0  0  0  0  0  0  0  0  0  0  # atno 10764 bound_to 10752
  152.9916  135.5685  154.5555 H   0  0  0  0  0  0  0  0  0  0  0  0  # atno 10765 bound_to 10752
  140.2738  134.7805  157.3699 H   0  0  0  0  0  0  0  0  0  0  0  0  # atno 11005 bound_to 11000
  146.3249  139.8269  142.8916 LP  0  0  0  0  0  0  0  0  0  0  0  0  # atno 17320 bound_to 7965
  145.3134  141.0225  143.3541 LP  0  0  0  0  0  0  0  0  0  0  0  0  # atno 17321 bound_to 7965
  140.6887  143.7912  150.7224 LP  0  0  0  0  0  0  0  0  0  0  0  0  # atno 17342 bound_to 10162
  140.1388  143.4460  152.2207 LP  0  0  0  0  0  0  0  0  0  0  0  0  # atno 17343 bound_to 10162
  157.7351  130.9756  150.2063 LP  0  0  0  0  0  0  0  0  0  0  0  0  # atno 17370 bound_to 10713
  156.2726  130.3723  149.8016 LP  0  0  0  0  0  0  0  0  0  0  0  0  # atno 17371 bound_to 10713
  140.1347  134.5049  155.8077 LP  0  0  0  0  0  0  0  0  0  0  0  0  # atno 17394 bound_to 11000
  141.2173  133.6803  156.7103 LP  0  0  0  0  0  0  0  0  0  0  0  0  # atno 17395 bound_to 11000

$$$$
