AV-unprocessed.smi:275|AV-procd|sdf|2065|dock6
  -GOLD-   2262021313D 1   1.00000     0.00000
 Structure written by MMmdl.
 65 69  0  0  0  0  0  0  0  0  1 V2000
  151.2571  137.2306  156.4972 C   0  0  0  0  0  0  0  0  0  0  0  0
  150.7812  137.2909  155.0362 C   0  0  0  0  0  0  0  0  0  0  0  0
  151.5525  138.4232  154.3307 C   0  0  0  0  0  0  0  0  0  0  0  0
  149.2466  137.4672  154.8897 C   0  0  1  0  0  0  0  0  0  0  0  0
  148.6104  136.6387  155.9184 N   0  0  0  0  0  0  0  0  0  0  0  0
  147.5163  135.8120  155.4997 C   0  0  0  0  0  0  0  0  0  0  0  0
  146.2442  136.2002  155.7888 N   0  0  0  0  0  0  0  0  0  0  0  0
  145.1885  135.4752  155.4116 C   0  0  0  0  0  0  0  0  0  0  0  0
  145.1675  134.3222  154.7458 N   0  0  0  0  0  0  0  0  0  0  0  0
  146.4323  133.8941  154.4776 C   0  0  0  0  0  0  0  0  0  0  0  0
  147.6439  134.5607  154.8236 C   0  0  0  0  0  0  0  0  0  0  0  0
  148.7264  133.7999  154.3952 N   0  0  0  0  0  0  0  0  0  0  0  0
  148.1905  132.7630  153.8143 C   0  0  0  0  0  0  0  0  0  0  0  0
  146.8161  132.7525  153.7965 N   0  0  0  0  0  0  0  0  0  0  0  0
  145.9665  131.7356  153.2058 C   0  0  0  0  0  0  0  0  0  0  0  0
  146.2688  131.4374  151.7110 C   0  0  1  0  0  0  0  0  0  0  0  0
  145.9475  129.9512  151.4201 C   0  0  0  0  0  0  0  0  0  0  0  0
  146.8182  129.4217  150.4413 O   0  0  0  0  0  0  0  0  0  0  0  0
  145.5178  132.3944  150.7346 C   0  0  2  0  0  0  0  0  0  0  0  0
  143.9998  132.2760  150.7461 C   0  0  0  0  0  0  0  0  0  0  0  0
  143.6130  132.9053  149.4171 C   0  0  0  0  0  0  0  0  0  0  0  0
  144.5985  132.4220  148.5216 O   0  0  0  0  0  0  0  0  0  0  0  0
  145.8085  132.1856  149.2350 C   0  0  0  0  0  0  0  0  0  0  0  0
  148.2860  137.8066  156.7295 C   0  0  0  0  0  0  0  0  0  0  0  0
  148.4309  138.6676  155.4663 C   0  0  0  0  0  0  0  0  0  0  0  0
  147.0861  138.9835  154.7655 C   0  0  0  0  0  0  0  0  0  0  0  0
  147.2361  139.7841  153.4645 C   0  0  0  0  0  0  0  0  0  0  0  0
  147.9333  141.1194  153.7326 C   0  0  0  0  0  0  0  0  0  0  0  0
  149.2790  140.8848  154.4215 C   0  0  0  0  0  0  0  0  0  0  0  0
  149.1272  140.0249  155.6943 C   0  0  0  0  0  0  0  0  0  0  0  0
  150.8086  138.0239  157.0959 H   0  0  0  0  0  0  0  0  0  0  0  0
  152.3398  137.3427  156.5638 H   0  0  0  0  0  0  0  0  0  0  0  0
  151.0320  136.2742  156.9619 H   0  0  0  0  0  0  0  0  0  0  0  0
  151.0868  136.3549  154.5658 H   0  0  0  0  0  0  0  0  0  0  0  0
  151.3414  139.3900  154.7880 H   0  0  0  0  0  0  0  0  0  0  0  0
  151.2989  138.4917  153.2727 H   0  0  0  0  0  0  0  0  0  0  0  0
  152.6293  138.2618  154.3881 H   0  0  0  0  0  0  0  0  0  0  0  0
  148.9057  137.2475  153.8788 H   0  0  0  0  0  0  0  0  0  0  0  0
  144.2233  135.8801  155.6779 H   0  0  0  0  0  0  0  0  0  0  0  0
  148.7856  131.9804  153.3665 H   0  0  0  0  0  0  0  0  0  0  0  0
  146.0864  130.8358  153.8094 H   0  0  0  0  0  0  0  0  0  0  0  0
  144.9254  132.0384  153.3203 H   0  0  0  0  0  0  0  0  0  0  0  0
  147.3388  131.5704  151.5427 H   0  0  0  0  0  0  0  0  0  0  0  0
  146.0175  129.3529  152.3293 H   0  0  0  0  0  0  0  0  0  0  0  0
  144.9382  129.8266  151.0310 H   0  0  0  0  0  0  0  0  0  0  0  0
  147.6038  129.9468  150.4211 H   0  0  0  0  0  0  0  0  0  0  0  0
  145.7661  133.4257  150.9914 H   0  0  0  0  0  0  0  0  0  0  0  0
  143.6949  131.2287  150.7632 H   0  0  0  0  0  0  0  0  0  0  0  0
  143.5358  132.7847  151.5915 H   0  0  0  0  0  0  0  0  0  0  0  0
  142.6077  132.6336  149.0949 H   0  0  0  0  0  0  0  0  0  0  0  0
  143.6770  133.9931  149.4710 H   0  0  0  0  0  0  0  0  0  0  0  0
  146.5804  132.8642  148.8746 H   0  0  0  0  0  0  0  0  0  0  0  0
  146.1291  131.1655  149.0227 H   0  0  0  0  0  0  0  0  0  0  0  0
  147.2979  137.8432  157.1880 H   0  0  0  0  0  0  0  0  0  0  0  0
  149.0657  137.9984  157.4681 H   0  0  0  0  0  0  0  0  0  0  0  0
  146.5397  138.0707  154.5324 H   0  0  0  0  0  0  0  0  0  0  0  0
  146.4371  139.5356  155.4465 H   0  0  0  0  0  0  0  0  0  0  0  0
  147.8064  139.2045  152.7377 H   0  0  0  0  0  0  0  0  0  0  0  0
  146.2559  139.9599  153.0206 H   0  0  0  0  0  0  0  0  0  0  0  0
  148.0776  141.6645  152.7994 H   0  0  0  0  0  0  0  0  0  0  0  0
  147.3007  141.7439  154.3647 H   0  0  0  0  0  0  0  0  0  0  0  0
  149.9435  140.4034  153.7077 H   0  0  0  0  0  0  0  0  0  0  0  0
  149.7393  141.8408  154.6726 H   0  0  0  0  0  0  0  0  0  0  0  0
  148.5566  140.5998  156.4249 H   0  0  0  0  0  0  0  0  0  0  0  0
  150.1016  139.8819  156.1598 H   0  0  0  0  0  0  0  0  0  0  0  0
  1  2  1  0  0  0  0
  1 31  1  0  0  0  0
  1 32  1  0  0  0  0
  1 33  1  0  0  0  0
  2  3  1  0  0  0  0
  2  4  1  0  0  0  0
  2 34  1  0  0  0  0
  3 35  1  0  0  0  0
  3 36  1  0  0  0  0
  3 37  1  0  0  0  0
  4 25  1  0  0  0  0
  4  5  1  0  0  0  0
  4 38  1  0  0  0  0
  5  6  1  0  0  0  0
  5 24  1  0  0  0  0
  6 11  1  0  0  0  0
  6  7  2  0  0  0  0
  7  8  1  0  0  0  0
  8  9  2  0  0  0  0
  8 39  1  0  0  0  0
  9 10  1  0  0  0  0
 10 14  1  0  0  0  0
 10 11  2  0  0  0  0
 11 12  1  0  0  0  0
 12 13  2  0  0  0  0
 13 14  1  0  0  0  0
 13 40  1  0  0  0  0
 14 15  1  0  0  0  0
 15 16  1  0  0  0  0
 15 41  1  0  0  0  0
 15 42  1  0  0  0  0
 16 17  1  0  0  0  0
 16 19  1  0  0  0  0
 16 43  1  0  0  0  0
 17 18  1  0  0  0  0
 17 44  1  0  0  0  0
 17 45  1  0  0  0  0
 18 46  1  0  0  0  0
 19 23  1  0  0  0  0
 19 20  1  0  0  0  0
 19 47  1  0  0  0  0
 20 21  1  0  0  0  0
 20 48  1  0  0  0  0
 20 49  1  0  0  0  0
 21 22  1  0  0  0  0
 21 50  1  0  0  0  0
 21 51  1  0  0  0  0
 22 23  1  0  0  0  0
 23 52  1  0  0  0  0
 23 53  1  0  0  0  0
 24 25  1  0  0  0  0
 24 54  1  0  0  0  0
 24 55  1  0  0  0  0
 25 30  1  0  0  0  0
 25 26  1  0  0  0  0
 26 27  1  0  0  0  0
 26 56  1  0  0  0  0
 26 57  1  0  0  0  0
 27 28  1  0  0  0  0
 27 58  1  0  0  0  0
 27 59  1  0  0  0  0
 28 29  1  0  0  0  0
 28 60  1  0  0  0  0
 28 61  1  0  0  0  0
 29 30  1  0  0  0  0
 29 62  1  0  0  0  0
 29 63  1  0  0  0  0
 30 64  1  0  0  0  0
 30 65  1  0  0  0  0
M  END
> <s_m_source_file>
AV-unprocessed.smi

> <i_m_source_file_index>
275

> <i_lp_mmshare_version>
43012

> <i_f3d_flags>
0

> <s_epik_input>
W0NIMl0xW0NIMl1bQ0gyXVtDSDJdW0NIMl1DMTJbQ0BIXShbQ0hdKFtDSDNdKVtDSDNdKU4oW0NIMl0yKWMobltjSF1uMyljKGMzNCluW2NIXW40W0NIMl1bQ0BIXShbQ0gyXVtPSF0pW0NAQEhdNVtDSDJdW0NIMl1PW0NIMl01

> <s_epik_cmdline>
J2VwaWtfcHl0aG9uJywgJy1waCcsICc3LjAnLCAnLXRuJywgJzgnLCAnLW1hJywgJzIwMCcsICctbWV0YWxfYmluZGluZycsICctaW1hZScsICc8aW5maWxlLm1hZT4nLCAnLW9tYWUnLCAnPG91dGZpbGUubWFlPic=

> <r_lp_tautomer_probability>
1

> <r_epik_Ionization_Penalty>
0.00375122

> <r_epik_Ionization_Penalty_Charging>
0

> <r_epik_Ionization_Penalty_Neutral>
0.00375122

> <r_epik_State_Penalty>
0.00260593

> <r_epik_Charging_Adjusted_Penalty>
0.00260593

> <i_epik_Tot_Q>
0

> <i_epik_Tot_abs_Q>
0

> <r_epik_Metal_State_Penalty>
-0

> <b_epik_Metal_Only>
0

> <s_lp_Force_Field>
OPLS_2005

> <r_lp_Energy>
67.0366

> <b_lp_Chiralities_Consistent>
1

> <s_lp_Variant>
AV-unprocessed.smi:275-4

> <Gold.Version>
5.8.1

> <Gold.Id.Protein>
6NUR|6NUR_protein|mol2

> <Gold.PLP.Fitness>
41.9251

> <Gold.PLP.PLP>
-40.8624

> <Gold.PLP.part.hbond>
-1.7519

> <Gold.PLP.part.metal>
0.0000

> <Gold.PLP.part.buried>
-6.2275

> <Gold.PLP.part.nonpolar>
-33.5536

> <Gold.PLP.part.repulsive>
0.4195

> <Gold.PLP.ligand.clash>
0.0000

> <Gold.PLP.ligand.torsion>
1.2364

> <Gold.PLP.Chemscore.Hbond>
1.0000

> <Gold.PLP.Chemscore.CHOScore>
0.0000

> <Gold.PLP.Chemscore.Metal>
0.0000

> <Gold.Chemscore.Hbonds>
donor molecule, donor type, donor heavy atom, donor atom, acceptor molecule, acceptor atom, score
      L1  H    18    46       P1 10747  1.00

> <Gold.PLP.Chemscore.Internal.Correction>
0.5354

> <Gold.Rescore>
     Score         DG    S(hbond)    S(metal)    S(lipo)     H(rot)  DE(clash)    DE(int)     intcor
     13.71     -15.74       0.98        0.00     115.17       2.54       0.05       1.98       ----

> <Gold.Chemscore.Fitness>
13.7064

> <Gold.Chemscore.DG>
-15.7383

> <Gold.Chemscore.ZeroCoef>
-5.4800

> <Gold.Chemscore.Hbond>
0.9819

> <Gold.Chemscore.Metal>
0.0000

> <Gold.Chemscore.Lipo>
115.1733

> <Gold.Chemscore.Internal_Hbond>
0.0000

> <Gold.Chemscore.DEClash>
0.0498

> <Gold.Chemscore.DEInternal>
1.9821

> <Gold.Chemscore.Rot>
2.5377

> <Gold.Chemscore.Internal.Correction>
   9.000000E+99

> <Gold.Chemscore.Hbonds>
donor molecule, donor type, donor heavy atom, donor atom, acceptor molecule, acceptor atom, score
      L1  H    18    46       P1 10747  0.99

> <Gold.Chemscore.Hbond.Weighted>
-3.2796

> <Gold.Chemscore.Metal.Weighted>
-0.0000

> <Gold.Chemscore.Lipo.Weighted>
-13.4753

> <Gold.Chemscore.Internal_Hbond.Weighted>
0.0000

> <Gold.Chemscore.DEClash.Weighted>
0.0498

> <Gold.Chemscore.DEInternal.Weighted>
1.9821

> <Gold.Chemscore.Rot.Weighted>
6.4966

> <Gold.Chemscore.Internal.Correction.Weighted>
   9.000000E+99

> <Gold.Protein.RotatedTorsions>
[ 6907 6896 6895 6894 ] final -121.54 input  -60.11 | X-H torsion
[ 7974 7965 7964 7962 ] final  -36.22 input  175.53 | X-H torsion
[ 8008 7997 7996 7995 ] final   20.42 input   59.86 | X-H torsion
[ 10167 10162 10161 10158 ] final  108.60 input  -65.29 | X-H torsion
[ 10718 10713 10712 10709 ] final -172.72 input   66.30 | X-H torsion
[ 10763 10752 10751 10750 ] final   42.26 input  -60.55 | X-H torsion
[ 11005 11000 10999 10996 ] final   34.29 input  -57.11 | X-H torsion

> <Gold.Protein.ActiveResidues>
 VAL166  LYS551  ARG553  GLY616  TRP617  ASP618  TYR619  PRO620  LYS621  CYS622 
 ASP623  PHE694  ASN695  SER759  ASP760  ASP761  ALA762  ILE779  LEU786  VAL792 
 PHE793  MET794  SER795  GLU796  ALA797  LYS798  CYS799  TRP800  GLU811  SER814 

> <Gold.Protein.RotatedAtoms>
  150.8493  133.7812  159.3031 H   0  0  0  0  0  0  0  0  0  0  0  0  # atno 6907 bound_to 6896
  151.5490  135.1066  159.9954 H   0  0  0  0  0  0  0  0  0  0  0  0  # atno 6908 bound_to 6896
  152.4539  133.7641  159.6819 H   0  0  0  0  0  0  0  0  0  0  0  0  # atno 6909 bound_to 6896
  146.0680  140.6252  142.8966 H   0  0  0  0  0  0  0  0  0  0  0  0  # atno 7974 bound_to 7965
  154.9353  140.3046  155.5147 H   0  0  0  0  0  0  0  0  0  0  0  0  # atno 8008 bound_to 7997
  156.3000  140.2346  156.4354 H   0  0  0  0  0  0  0  0  0  0  0  0  # atno 8009 bound_to 7997
  154.8198  140.0424  157.1391 H   0  0  0  0  0  0  0  0  0  0  0  0  # atno 8010 bound_to 7997
  139.6833  144.7116  151.1476 H   0  0  0  0  0  0  0  0  0  0  0  0  # atno 10167 bound_to 10162
  156.7598  130.9409  151.3117 H   0  0  0  0  0  0  0  0  0  0  0  0  # atno 10718 bound_to 10713
  152.9887  135.6137  154.2921 H   0  0  0  0  0  0  0  0  0  0  0  0  # atno 10763 bound_to 10752
  154.2645  135.2781  155.2766 H   0  0  0  0  0  0  0  0  0  0  0  0  # atno 10764 bound_to 10752
  154.5176  135.5823  153.6712 H   0  0  0  0  0  0  0  0  0  0  0  0  # atno 10765 bound_to 10752
  140.2544  134.3265  155.7879 H   0  0  0  0  0  0  0  0  0  0  0  0  # atno 11005 bound_to 11000
  144.7214  140.4386  143.7005 LP  0  0  0  0  0  0  0  0  0  0  0  0  # atno 17320 bound_to 7965
  145.6442  139.1554  143.2898 LP  0  0  0  0  0  0  0  0  0  0  0  0  # atno 17321 bound_to 7965
  140.7659  143.5666  150.9041 LP  0  0  0  0  0  0  0  0  0  0  0  0  # atno 17342 bound_to 10162
  139.9339  143.6460  152.3070 LP  0  0  0  0  0  0  0  0  0  0  0  0  # atno 17343 bound_to 10162
  157.6740  130.9077  150.0106 LP  0  0  0  0  0  0  0  0  0  0  0  0  # atno 17370 bound_to 10713
  156.1346  130.3643  149.9677 LP  0  0  0  0  0  0  0  0  0  0  0  0  # atno 17371 bound_to 10713
  141.2198  133.7372  156.9088 LP  0  0  0  0  0  0  0  0  0  0  0  0  # atno 17394 bound_to 11000
  140.1526  134.9220  157.2612 LP  0  0  0  0  0  0  0  0  0  0  0  0  # atno 17395 bound_to 11000

$$$$
