AV-unprocessed.smi:139|AV-procd|sdf|1184|dock4
  -GOLD-   2262018333D 1   1.00000     0.00000
 Structure written by MMmdl.
 50 53  0  0  0  0  0  0  0  0  1 V2000
  152.3579  139.8145  156.6885 O   0  0  0  0  0  0  0  0  0  0  0  0
  152.5464  139.4229  157.8411 C   0  0  0  0  0  0  0  0  0  0  0  0
  152.5235  137.9256  158.1820 C   0  0  0  0  0  0  0  0  0  0  0  0
  153.7838  137.4353  158.7815 N   0  0  0  0  0  0  0  0  0  0  0  0
  154.6130  136.5766  158.0180 C   0  0  0  0  0  0  0  0  0  0  0  0
  154.3025  136.2388  156.8747 O   0  0  0  0  0  0  0  0  0  0  0  0
  155.8383  136.1362  158.6753 C   0  0  0  0  0  0  0  0  0  0  0  0
  156.6782  135.3077  158.0319 F   0  0  0  0  0  0  0  0  0  0  0  0
  156.1412  136.5430  159.9252 C   0  0  0  0  0  0  0  0  0  0  0  0
  155.3291  137.3933  160.6542 N   0  0  0  0  0  0  0  0  0  0  0  0
  155.6937  137.8359  162.0564 C   0  0  1  0  0  0  0  0  0  0  0  0
  155.8473  136.6191  162.9749 C   0  0  0  0  0  0  0  0  0  0  0  0
  157.3122  136.2867  162.7963 C   0  0  0  0  0  0  0  0  0  0  0  0
  157.9300  137.6741  162.6518 C   0  0  0  0  0  0  0  0  0  0  0  0
  156.9325  138.4852  162.0316 O   0  0  0  0  0  0  0  0  0  0  0  0
  154.1235  137.8614  160.0875 C   0  0  0  0  0  0  0  0  0  0  0  0
  153.3860  138.6216  160.7189 O   0  0  0  0  0  0  0  0  0  0  0  0
  152.7683  140.2499  158.8766 N   0  0  0  0  0  0  0  0  0  0  0  0
  152.8256  141.7135  158.8351 C   0  0  1  0  0  0  0  0  0  0  0  0
  151.5400  142.3106  158.2249 C   0  0  0  0  0  0  0  0  0  0  0  0
  151.5243  143.8363  158.3323 C   0  0  0  0  0  0  0  0  0  0  0  0
  151.5841  144.2820  159.7973 C   0  0  0  0  0  0  0  0  0  0  0  0
  152.6751  143.5847  160.5957 C   0  0  0  0  0  0  0  0  0  0  0  0
  153.1020  144.1674  161.8075 C   0  0  0  0  0  0  0  0  0  0  0  0
  154.1040  143.5537  162.5809 C   0  0  0  0  0  0  0  0  0  0  0  0
  154.6881  142.3517  162.1443 C   0  0  0  0  0  0  0  0  0  0  0  0
  154.2664  141.7631  160.9377 C   0  0  0  0  0  0  0  0  0  0  0  0
  153.2516  142.3637  160.1570 C   0  0  0  0  0  0  0  0  0  0  0  0
  151.6787  137.7292  158.8442 H   0  0  0  0  0  0  0  0  0  0  0  0
  152.2788  137.3734  157.2733 H   0  0  0  0  0  0  0  0  0  0  0  0
  157.0591  136.1769  160.3594 H   0  0  0  0  0  0  0  0  0  0  0  0
  154.9112  138.5326  162.3614 H   0  0  0  0  0  0  0  0  0  0  0  0
  155.6474  136.9293  164.0012 H   0  0  0  0  0  0  0  0  0  0  0  0
  155.1703  135.8056  162.7124 H   0  0  0  0  0  0  0  0  0  0  0  0
  157.7283  135.7183  163.6282 H   0  0  0  0  0  0  0  0  0  0  0  0
  157.4578  135.7100  161.8821 H   0  0  0  0  0  0  0  0  0  0  0  0
  158.1554  138.0924  163.6335 H   0  0  0  0  0  0  0  0  0  0  0  0
  158.8514  137.6607  162.0697 H   0  0  0  0  0  0  0  0  0  0  0  0
  152.9058  139.8266  159.7827 H   0  0  0  0  0  0  0  0  0  0  0  0
  153.6364  141.9464  158.1440 H   0  0  0  0  0  0  0  0  0  0  0  0
  151.4396  141.9999  157.1845 H   0  0  0  0  0  0  0  0  0  0  0  0
  150.6591  141.9306  158.7430 H   0  0  0  0  0  0  0  0  0  0  0  0
  152.3811  144.2408  157.7920 H   0  0  0  0  0  0  0  0  0  0  0  0
  150.6339  144.2446  157.8537 H   0  0  0  0  0  0  0  0  0  0  0  0
  151.7277  145.3620  159.8470 H   0  0  0  0  0  0  0  0  0  0  0  0
  150.6304  144.0709  160.2821 H   0  0  0  0  0  0  0  0  0  0  0  0
  152.6591  145.0917  162.1487 H   0  0  0  0  0  0  0  0  0  0  0  0
  154.4256  144.0062  163.5073 H   0  0  0  0  0  0  0  0  0  0  0  0
  155.4612  141.8811  162.7334 H   0  0  0  0  0  0  0  0  0  0  0  0
  154.7316  140.8439  160.6136 H   0  0  0  0  0  0  0  0  0  0  0  0
  1  2  2  0  0  0  0
  2  3  1  0  0  0  0
  2 18  1  0  0  0  0
  3  4  1  0  0  0  0
  3 29  1  0  0  0  0
  3 30  1  0  0  0  0
  4 16  1  0  0  0  0
  4  5  1  0  0  0  0
  5  6  2  0  0  0  0
  5  7  1  0  0  0  0
  7  8  1  0  0  0  0
  7  9  2  0  0  0  0
  9 10  1  0  0  0  0
  9 31  1  0  0  0  0
 10 11  1  0  0  0  0
 10 16  1  0  0  0  0
 11 15  1  0  0  0  0
 11 12  1  0  0  0  0
 11 32  1  0  0  0  0
 12 13  1  0  0  0  0
 12 33  1  0  0  0  0
 12 34  1  0  0  0  0
 13 14  1  0  0  0  0
 13 35  1  0  0  0  0
 13 36  1  0  0  0  0
 14 15  1  0  0  0  0
 14 37  1  0  0  0  0
 14 38  1  0  0  0  0
 16 17  2  0  0  0  0
 18 19  1  0  0  0  0
 18 39  1  0  0  0  0
 19 28  1  0  0  0  0
 19 20  1  0  0  0  0
 19 40  1  0  0  0  0
 20 21  1  0  0  0  0
 20 41  1  0  0  0  0
 20 42  1  0  0  0  0
 21 22  1  0  0  0  0
 21 43  1  0  0  0  0
 21 44  1  0  0  0  0
 22 23  1  0  0  0  0
 22 45  1  0  0  0  0
 22 46  1  0  0  0  0
 23 28  2  0  0  0  0
 23 24  1  0  0  0  0
 24 25  2  0  0  0  0
 24 47  1  0  0  0  0
 25 26  1  0  0  0  0
 25 48  1  0  0  0  0
 26 27  2  0  0  0  0
 26 49  1  0  0  0  0
 27 28  1  0  0  0  0
 27 50  1  0  0  0  0
M  END
> <s_m_source_file>
AV-unprocessed.smi

> <i_m_source_file_index>
139

> <i_lp_mmshare_version>
43012

> <i_f3d_flags>
0

> <s_epik_input>
W2NIXTFbY0hdW2NIXVtjSF1jKGMxMilbQ0BASF0oW0NIMl1bQ0gyXVtDSDJdMilbTkhdQyg9TylbQ0gyXW4zYyg9TyljKEYpW2NIXW4oYzM9TylbQ0BASF00W0NIMl1bQ0gyXVtDSDJdTzQ=

> <s_epik_cmdline>
J2VwaWtfcHl0aG9uJywgJy1waCcsICc3LjAnLCAnLXRuJywgJzgnLCAnLW1hJywgJzIwMCcsICctbWV0YWxfYmluZGluZycsICctaW1hZScsICc8aW5maWxlLm1hZT4nLCAnLW9tYWUnLCAnPG91dGZpbGUubWFlPic=

> <r_lp_tautomer_probability>
1

> <r_epik_Ionization_Penalty>
3.261e-08

> <r_epik_Ionization_Penalty_Charging>
3.6725e-09

> <r_epik_Ionization_Penalty_Neutral>
2.89375e-08

> <r_epik_State_Penalty>
-0

> <r_epik_Charging_Adjusted_Penalty>
3.6725e-09

> <i_epik_Tot_Q>
0

> <i_epik_Tot_abs_Q>
0

> <r_epik_Metal_State_Penalty>
-0

> <b_epik_Metal_Only>
0

> <s_epik_Chemistry_Notes>
This compound contains an acetal/aminal-like group ( X-CH(R)-Y where X, Y are N, S, or O) that may be acid/base labile, releasing an aldehyde.

> <s_lp_Force_Field>
OPLS_2005

> <r_lp_Energy>
31.2563

> <b_lp_Chiralities_Consistent>
1

> <s_lp_Variant>
AV-unprocessed.smi:139-4

> <Gold.Version>
5.8.1

> <Gold.Id.Protein>
6NUR|6NUR_protein|mol2

> <Gold.PLP.Fitness>
56.5971

> <Gold.PLP.PLP>
-50.7738

> <Gold.PLP.part.hbond>
-2.7631

> <Gold.PLP.part.metal>
0.0000

> <Gold.PLP.part.buried>
-2.5244

> <Gold.PLP.part.nonpolar>
-46.1855

> <Gold.PLP.part.repulsive>
0.1132

> <Gold.PLP.ligand.clash>
0.0000

> <Gold.PLP.ligand.torsion>
0.1276

> <Gold.PLP.Chemscore.Hbond>
2.0000

> <Gold.PLP.Chemscore.CHOScore>
0.0000

> <Gold.PLP.Chemscore.Metal>
0.0000

> <Gold.Chemscore.Hbonds>
donor molecule, donor type, donor heavy atom, donor atom, acceptor molecule, acceptor atom, score
      P1  H  7997  8008       L1     1  0.35
      P1  H 10752 10764       L1     6  1.00

> <Gold.PLP.Chemscore.Internal.Correction>
0.0785

> <Gold.Rescore>
     Score         DG    S(hbond)    S(metal)    S(lipo)     H(rot)  DE(clash)    DE(int)     intcor
     19.34     -22.78       1.89        0.00     133.70       1.82       1.45       2.00       ----

> <Gold.Chemscore.Fitness>
19.3366

> <Gold.Chemscore.DG>
-22.7844

> <Gold.Chemscore.ZeroCoef>
-5.4800

> <Gold.Chemscore.Hbond>
1.8904

> <Gold.Chemscore.Metal>
0.0000

> <Gold.Chemscore.Lipo>
133.7012

> <Gold.Chemscore.Internal_Hbond>
0.0000

> <Gold.Chemscore.DEClash>
1.4523

> <Gold.Chemscore.DEInternal>
1.9955

> <Gold.Chemscore.Rot>
1.8174

> <Gold.Chemscore.Internal.Correction>
   9.000000E+99

> <Gold.Chemscore.Hbonds>
donor molecule, donor type, donor heavy atom, donor atom, acceptor molecule, acceptor atom, score
      P1  H  7997  8008       L1     1  0.01
      P1  H 10752 10764       L1     6  0.95

> <Gold.Chemscore.Hbond.Weighted>
-6.3138

> <Gold.Chemscore.Metal.Weighted>
-0.0000

> <Gold.Chemscore.Lipo.Weighted>
-15.6430

> <Gold.Chemscore.Internal_Hbond.Weighted>
0.0000

> <Gold.Chemscore.DEClash.Weighted>
1.4523

> <Gold.Chemscore.DEInternal.Weighted>
1.9955

> <Gold.Chemscore.Rot.Weighted>
4.6524

> <Gold.Chemscore.Internal.Correction.Weighted>
   9.000000E+99

> <Gold.Protein.RotatedTorsions>
[ 6907 6896 6895 6894 ] final  130.37 input  -60.11 | X-H torsion
[ 7974 7965 7964 7962 ] final -146.56 input  175.53 | X-H torsion
[ 8008 7997 7996 7995 ] final  -55.74 input   59.86 | X-H torsion
[ 10167 10162 10161 10158 ] final  153.60 input  -65.29 | X-H torsion
[ 10718 10713 10712 10709 ] final  -40.31 input   66.30 | X-H torsion
[ 10763 10752 10751 10750 ] final   39.28 input  -60.55 | X-H torsion
[ 11005 11000 10999 10996 ] final  122.49 input  -57.11 | X-H torsion

> <Gold.Protein.ActiveResidues>
 VAL166  LYS551  ARG553  GLY616  TRP617  ASP618  TYR619  PRO620  LYS621  CYS622 
 ASP623  PHE694  ASN695  SER759  ASP760  ASP761  ALA762  ILE779  LEU786  VAL792 
 PHE793  MET794  SER795  GLU796  ALA797  LYS798  CYS799  TRP800  GLU811  SER814 

> <Gold.Protein.RotatedAtoms>
  152.3533  133.6206  159.5960 H   0  0  0  0  0  0  0  0  0  0  0  0  # atno 6907 bound_to 6896
  150.7552  133.9540  159.3503 H   0  0  0  0  0  0  0  0  0  0  0  0  # atno 6908 bound_to 6896
  151.7388  135.0859  160.0363 H   0  0  0  0  0  0  0  0  0  0  0  0  # atno 6909 bound_to 6896
  144.8151  140.5440  143.5616 H   0  0  0  0  0  0  0  0  0  0  0  0  # atno 7974 bound_to 7965
  154.4205  140.1146  156.5525 H   0  0  0  0  0  0  0  0  0  0  0  0  # atno 8008 bound_to 7997
  155.6395  140.3496  155.4691 H   0  0  0  0  0  0  0  0  0  0  0  0  # atno 8009 bound_to 7997
  155.9882  140.1174  157.0652 H   0  0  0  0  0  0  0  0  0  0  0  0  # atno 8010 bound_to 7997
  139.4826  144.5259  151.7802 H   0  0  0  0  0  0  0  0  0  0  0  0  # atno 10167 bound_to 10162
  156.2827  130.4219  149.8319 H   0  0  0  0  0  0  0  0  0  0  0  0  # atno 10718 bound_to 10713
  152.9972  135.6225  154.2439 H   0  0  0  0  0  0  0  0  0  0  0  0  # atno 10763 bound_to 10752
  154.2179  135.2797  155.2937 H   0  0  0  0  0  0  0  0  0  0  0  0  # atno 10764 bound_to 10752
  154.5553  135.5721  153.7016 H   0  0  0  0  0  0  0  0  0  0  0  0  # atno 10765 bound_to 10752
  139.9271  134.9641  156.8117 H   0  0  0  0  0  0  0  0  0  0  0  0  # atno 11005 bound_to 11000
  145.5233  139.1476  143.3540 LP  0  0  0  0  0  0  0  0  0  0  0  0  # atno 17320 bound_to 7965
  146.2454  140.5373  142.8916 LP  0  0  0  0  0  0  0  0  0  0  0  0  # atno 17321 bound_to 7965
  140.4779  144.1493  150.5928 LP  0  0  0  0  0  0  0  0  0  0  0  0  # atno 17342 bound_to 10162
  140.4311  143.2568  151.9595 LP  0  0  0  0  0  0  0  0  0  0  0  0  # atno 17343 bound_to 10162
  156.5761  130.8445  151.3370 LP  0  0  0  0  0  0  0  0  0  0  0  0  # atno 17370 bound_to 10713
  157.7319  130.9707  150.1904 LP  0  0  0  0  0  0  0  0  0  0  0  0  # atno 17371 bound_to 10713
  140.6306  133.9909  155.7660 LP  0  0  0  0  0  0  0  0  0  0  0  0  # atno 17394 bound_to 11000
  141.0835  134.0026  157.3349 LP  0  0  0  0  0  0  0  0  0  0  0  0  # atno 17395 bound_to 11000

$$$$
