AV-unprocessed.smi:34|AV-procd|sdf|243|dock6
  -GOLD-   2262015593D 1   1.00000     0.00000
 Structure written by MMmdl.
 54 58  0  0  0  0  0  0  0  0  2 V2000
  151.5416  141.9168  157.6687 O   0  0  0  0  0  0  0  0  0  0  0  0
  152.3065  141.3837  158.4754 C   0  0  0  0  0  0  0  0  0  0  0  0
  153.0413  140.2551  158.3072 N   0  5  0  0  0  0  0  0  0  0  0  0
  152.4274  139.0680  158.1880 C   0  0  0  0  0  0  0  0  0  0  0  0
  153.1531  137.9225  158.1260 N   0  0  0  0  0  0  0  0  0  0  0  0
  152.5387  136.7391  158.0157 C   0  0  0  0  0  0  0  0  0  0  0  0
  151.2303  136.4739  157.9586 N   0  0  0  0  0  0  0  0  0  0  0  0
  150.4878  137.6169  158.0259 C   0  0  0  0  0  0  0  0  0  0  0  0
  151.0124  138.9375  158.1451 C   0  0  0  0  0  0  0  0  0  0  0  0
  149.9890  139.8722  158.1968 N   0  0  0  0  0  0  0  0  0  0  0  0
  148.9123  139.0958  158.1060 C   0  0  0  0  0  0  0  0  0  0  0  0
  149.1097  137.7667  157.9985 N   0  0  0  0  0  0  0  0  0  0  0  0
  148.0592  136.7071  157.8791 C   0  0  2  0  0  0  0  0  0  0  0  0
  147.2280  137.0215  156.8026 O   0  0  0  0  0  0  0  0  0  0  0  0
  145.8752  136.7153  157.1314 C   0  0  1  0  0  0  0  0  0  0  0  0
  145.5901  135.2399  156.8053 C   0  0  0  0  0  0  0  0  0  0  0  0
  145.4059  135.1019  155.4059 O   0  0  0  0  0  0  0  0  0  0  0  0
  145.6515  133.9218  154.8039 C   0  0  0  0  0  0  0  0  0  0  0  0
  146.0089  132.9083  155.4081 O   0  0  0  0  0  0  0  0  0  0  0  0
  145.4489  133.9713  153.3271 C   0  0  0  0  0  0  0  0  0  0  0  0
  145.2385  135.2205  152.6977 C   0  0  0  0  0  0  0  0  0  0  0  0
  145.0445  135.2983  151.3048 C   0  0  0  0  0  0  0  0  0  0  0  0
  145.0603  134.1278  150.5242 C   0  0  0  0  0  0  0  0  0  0  0  0
  145.2690  132.8791  151.1382 C   0  0  0  0  0  0  0  0  0  0  0  0
  145.4618  132.7992  152.5312 C   0  0  0  0  0  0  0  0  0  0  0  0
  145.8032  137.0237  158.6279 C   0  0  2  0  0  0  0  0  0  0  0  0
  145.6291  138.3390  158.7701 F   0  0  0  0  0  0  0  0  0  0  0  0
  147.1710  136.5849  159.1345 C   0  0  2  0  0  0  0  0  0  0  0  0
  147.5925  137.3202  160.2696 O   0  0  0  0  0  0  0  0  0  0  0  0
  152.5421  142.0531  159.8027 C   0  0  0  0  0  0  0  0  0  0  0  0
  151.9396  143.3029  160.0739 C   0  0  0  0  0  0  0  0  0  0  0  0
  152.1273  143.9334  161.3195 C   0  0  0  0  0  0  0  0  0  0  0  0
  152.9121  143.3159  162.3113 C   0  0  0  0  0  0  0  0  0  0  0  0
  153.5051  142.0648  162.0582 C   0  0  0  0  0  0  0  0  0  0  0  0
  153.3184  141.4339  160.8127 C   0  0  0  0  0  0  0  0  0  0  0  0
  153.1905  135.8795  157.9678 H   0  0  0  0  0  0  0  0  0  0  0  0
  147.9191  139.5200  158.1142 H   0  0  0  0  0  0  0  0  0  0  0  0
  148.6164  135.7929  157.6695 H   0  0  0  0  0  0  0  0  0  0  0  0
  145.1912  137.3534  156.5699 H   0  0  0  0  0  0  0  0  0  0  0  0
  146.4028  134.6022  157.1559 H   0  0  0  0  0  0  0  0  0  0  0  0
  144.6787  134.9145  157.3083 H   0  0  0  0  0  0  0  0  0  0  0  0
  145.2222  136.1328  153.2765 H   0  0  0  0  0  0  0  0  0  0  0  0
  144.8836  136.2576  150.8355 H   0  0  0  0  0  0  0  0  0  0  0  0
  144.9124  134.1876  149.4560 H   0  0  0  0  0  0  0  0  0  0  0  0
  145.2821  131.9799  150.5401 H   0  0  0  0  0  0  0  0  0  0  0  0
  145.6200  131.8250  152.9701 H   0  0  0  0  0  0  0  0  0  0  0  0
  144.9741  136.5320  159.1374 H   0  0  0  0  0  0  0  0  0  0  0  0
  147.1339  135.5283  159.4024 H   0  0  0  0  0  0  0  0  0  0  0  0
  148.3191  136.8683  160.6703 H   0  0  0  0  0  0  0  0  0  0  0  0
  151.3326  143.7891  159.3238 H   0  0  0  0  0  0  0  0  0  0  0  0
  151.6672  144.8908  161.5136 H   0  0  0  0  0  0  0  0  0  0  0  0
  153.0554  143.7991  163.2662 H   0  0  0  0  0  0  0  0  0  0  0  0
  154.1016  141.5857  162.8206 H   0  0  0  0  0  0  0  0  0  0  0  0
  153.7736  140.4688  160.6426 H   0  0  0  0  0  0  0  0  0  0  0  0
  1  2  2  0  0  0  0
  2  3  1  0  0  0  0
  2 30  1  0  0  0  0
  3  4  1  0  0  0  0
  4  9  1  0  0  0  0
  4  5  2  0  0  0  0
  5  6  1  0  0  0  0
  6  7  2  0  0  0  0
  6 36  1  0  0  0  0
  7  8  1  0  0  0  0
  8 12  1  0  0  0  0
  8  9  2  0  0  0  0
  9 10  1  0  0  0  0
 10 11  2  0  0  0  0
 11 12  1  0  0  0  0
 11 37  1  0  0  0  0
 12 13  1  0  0  0  0
 13 28  1  0  0  0  0
 13 14  1  0  0  0  0
 13 38  1  0  0  0  0
 14 15  1  0  0  0  0
 15 16  1  0  0  0  0
 15 26  1  0  0  0  0
 15 39  1  0  0  0  0
 16 17  1  0  0  0  0
 16 40  1  0  0  0  0
 16 41  1  0  0  0  0
 17 18  1  0  0  0  0
 18 19  2  0  0  0  0
 18 20  1  0  0  0  0
 20 25  1  0  0  0  0
 20 21  2  0  0  0  0
 21 22  1  0  0  0  0
 21 42  1  0  0  0  0
 22 23  2  0  0  0  0
 22 43  1  0  0  0  0
 23 24  1  0  0  0  0
 23 44  1  0  0  0  0
 24 25  2  0  0  0  0
 24 45  1  0  0  0  0
 25 46  1  0  0  0  0
 26 27  1  0  0  0  0
 26 28  1  0  0  0  0
 26 47  1  0  0  0  0
 28 29  1  0  0  0  0
 28 48  1  0  0  0  0
 29 49  1  0  0  0  0
 30 35  1  0  0  0  0
 30 31  2  0  0  0  0
 31 32  1  0  0  0  0
 31 50  1  0  0  0  0
 32 33  2  0  0  0  0
 32 51  1  0  0  0  0
 33 34  1  0  0  0  0
 33 52  1  0  0  0  0
 34 35  2  0  0  0  0
 34 53  1  0  0  0  0
 35 54  1  0  0  0  0
M  CHG  1   3  -1
M  END
> <s_m_source_file>
AV-unprocessed.smi

> <i_m_source_file_index>
34

> <i_lp_mmshare_version>
43012

> <i_f3d_flags>
0

> <s_epik_input>
W2NIXTFbY0hdW2NIXVtjSF1bY0hdYzFDKD1PKVtOSF1jKG5bY0hdbjIpYyhjMjMpbltjSF1uM1tDQEBIXTRPW0NASF0oW0NAQEhdKEYpW0NASF00W09IXSlbQ0gyXU9DKD1PKWM1W2NIXVtjSF1bY0hdW2NIXVtjSF01

> <s_epik_cmdline>
J2VwaWtfcHl0aG9uJywgJy1waCcsICc3LjAnLCAnLXRuJywgJzgnLCAnLW1hJywgJzIwMCcsICctbWV0YWxfYmluZGluZycsICctaW1hZScsICc8aW5maWxlLm1hZT4nLCAnLW9tYWUnLCAnPG91dGZpbGUubWFlPic=

> <r_lp_tautomer_probability>
1

> <r_epik_Ionization_Penalty>
4.33227

> <r_epik_Ionization_Penalty_Charging>
3.41027

> <r_epik_Ionization_Penalty_Neutral>
0.922001

> <r_epik_State_Penalty>
3.41358

> <r_epik_Charging_Adjusted_Penalty>
6.82385

> <i_epik_Tot_Q>
-1

> <i_epik_Tot_abs_Q>
1

> <r_epik_Metal_State_Penalty>
0.496292

> <b_epik_Metal_Only>
1

> <s_epik_Chemistry_Notes>
This compound has an ester and may undergo hydrolysis at high or low pH. This compound contains an acetal/aminal-like group ( X-CH(R)-Y where X, Y are N, S, or O) that may be acid/base labile, releasing an aldehyde.

> <s_lp_Force_Field>
OPLS_2005

> <r_lp_Energy>
51.1701

> <b_lp_Chiralities_Consistent>
1

> <s_lp_Variant>
AV-unprocessed.smi:34-29

> <Gold.Version>
5.8.1

> <Gold.Id.Protein>
6NUR|6NUR_protein|mol2

> <Gold.PLP.Fitness>
52.5884

> <Gold.PLP.PLP>
-45.4581

> <Gold.PLP.part.hbond>
-3.7854

> <Gold.PLP.part.metal>
0.0000

> <Gold.PLP.part.buried>
-6.7736

> <Gold.PLP.part.nonpolar>
-34.9570

> <Gold.PLP.part.repulsive>
0.1662

> <Gold.PLP.ligand.clash>
0.0000

> <Gold.PLP.ligand.torsion>
0.9970

> <Gold.PLP.Chemscore.Hbond>
2.8160

> <Gold.PLP.Chemscore.CHOScore>
0.0000

> <Gold.PLP.Chemscore.Metal>
0.0000

> <Gold.Chemscore.Hbonds>
donor molecule, donor type, donor heavy atom, donor atom, acceptor molecule, acceptor atom, score
      P1  H  6934  6947       L1    29  0.93
      P1  H  7997  8009       L1     3  1.89

> <Gold.PLP.Chemscore.Internal.Correction>
0.6763

> <Gold.Rescore>
     Score         DG    S(hbond)    S(metal)    S(lipo)     H(rot)  DE(clash)    DE(int)     intcor
     11.49     -15.74       1.65        0.00      99.45       2.69       0.10       4.15       ----

> <Gold.Chemscore.Fitness>
11.4878

> <Gold.Chemscore.DG>
-15.7446

> <Gold.Chemscore.ZeroCoef>
-5.4800

> <Gold.Chemscore.Hbond>
1.6547

> <Gold.Chemscore.Metal>
0.0000

> <Gold.Chemscore.Lipo>
99.4492

> <Gold.Chemscore.Internal_Hbond>
0.0000

> <Gold.Chemscore.DEClash>
0.1027

> <Gold.Chemscore.DEInternal>
4.1541

> <Gold.Chemscore.Rot>
2.6944

> <Gold.Chemscore.Internal.Correction>
   9.000000E+99

> <Gold.Chemscore.Hbonds>
donor molecule, donor type, donor heavy atom, donor atom, acceptor molecule, acceptor atom, score
      P1  H  6896  6907       L1     7  0.01
      P1  H  6934  6947       L1    29  0.86
      P1  H  7997  8009       L1     3  0.30

> <Gold.Chemscore.Hbond.Weighted>
-5.5266

> <Gold.Chemscore.Metal.Weighted>
-0.0000

> <Gold.Chemscore.Lipo.Weighted>
-11.6356

> <Gold.Chemscore.Internal_Hbond.Weighted>
0.0000

> <Gold.Chemscore.DEClash.Weighted>
0.1027

> <Gold.Chemscore.DEInternal.Weighted>
4.1541

> <Gold.Chemscore.Rot.Weighted>
6.8975

> <Gold.Chemscore.Internal.Correction.Weighted>
   9.000000E+99

> <Gold.Protein.RotatedTorsions>
[ 6907 6896 6895 6894 ] final  -67.41 input  -60.11 | X-H torsion
[ 7974 7965 7964 7962 ] final -141.76 input  175.53 | X-H torsion
[ 8008 7997 7996 7995 ] final  158.42 input   59.86 | X-H torsion
[ 10167 10162 10161 10158 ] final   -9.01 input  -65.29 | X-H torsion
[ 10718 10713 10712 10709 ] final   41.19 input   66.30 | X-H torsion
[ 10763 10752 10751 10750 ] final   -5.46 input  -60.55 | X-H torsion
[ 11005 11000 10999 10996 ] final  167.96 input  -57.11 | X-H torsion

> <Gold.Protein.ActiveResidues>
 VAL166  LYS551  ARG553  GLY616  TRP617  ASP618  TYR619  PRO620  LYS621  CYS622 
 ASP623  PHE694  ASN695  SER759  ASP760  ASP761  ALA762  ILE779  LEU786  VAL792 
 PHE793  MET794  SER795  GLU796  ALA797  LYS798  CYS799  TRP800  GLU811  SER814 

> <Gold.Protein.RotatedAtoms>
  150.7411  134.5885  159.5974 H   0  0  0  0  0  0  0  0  0  0  0  0  # atno 6907 bound_to 6896
  152.3279  134.7294  160.0306 H   0  0  0  0  0  0  0  0  0  0  0  0  # atno 6908 bound_to 6896
  151.7788  133.3312  159.3502 H   0  0  0  0  0  0  0  0  0  0  0  0  # atno 6909 bound_to 6896
  144.8495  140.6040  143.5400 H   0  0  0  0  0  0  0  0  0  0  0  0  # atno 7974 bound_to 7965
  156.2303  140.1858  156.7258 H   0  0  0  0  0  0  0  0  0  0  0  0  # atno 8008 bound_to 7997
  154.6012  140.0636  156.9398 H   0  0  0  0  0  0  0  0  0  0  0  0  # atno 8009 bound_to 7997
  155.2172  140.3304  155.4323 H   0  0  0  0  0  0  0  0  0  0  0  0  # atno 8010 bound_to 7997
  140.7075  143.5906  150.8898 H   0  0  0  0  0  0  0  0  0  0  0  0  # atno 10167 bound_to 10162
  157.3908  130.7805  149.7268 H   0  0  0  0  0  0  0  0  0  0  0  0  # atno 10718 bound_to 10713
  153.3988  135.7004  153.6441 H   0  0  0  0  0  0  0  0  0  0  0  0  # atno 10763 bound_to 10752
  153.4983  135.3658  155.2527 H   0  0  0  0  0  0  0  0  0  0  0  0  # atno 10764 bound_to 10752
  154.8709  135.4105  154.3319 H   0  0  0  0  0  0  0  0  0  0  0  0  # atno 10765 bound_to 10752
  140.2823  134.7740  157.3768 H   0  0  0  0  0  0  0  0  0  0  0  0  # atno 11005 bound_to 11000
  145.4529  139.1521  143.3908 LP  0  0  0  0  0  0  0  0  0  0  0  0  # atno 17320 bound_to 7965
  146.2772  140.4656  142.8790 LP  0  0  0  0  0  0  0  0  0  0  0  0  # atno 17321 bound_to 7965
  139.9631  143.6141  152.2996 LP  0  0  0  0  0  0  0  0  0  0  0  0  # atno 17342 bound_to 10162
  139.6701  144.7661  151.1799 LP  0  0  0  0  0  0  0  0  0  0  0  0  # atno 17343 bound_to 10162
  155.9798  130.4036  150.3567 LP  0  0  0  0  0  0  0  0  0  0  0  0  # atno 17370 bound_to 10713
  157.1683  131.0362  151.2808 LP  0  0  0  0  0  0  0  0  0  0  0  0  # atno 17371 bound_to 10713
  140.1272  134.5142  155.8135 LP  0  0  0  0  0  0  0  0  0  0  0  0  # atno 17394 bound_to 11000
  141.2160  133.6777  156.6974 LP  0  0  0  0  0  0  0  0  0  0  0  0  # atno 17395 bound_to 11000

$$$$
