AV-unprocessed.smi:456|AV-procd|sdf|2615|dock2
  -GOLD-   2262023 13D 1   1.00000     0.00000
 Structure written by MMmdl.
 32 34  0  0  0  0  0  0  0  0  1 V2000
  152.2915  144.9301  158.3515 O   0  0  0  0  0  0  0  0  0  0  0  0
  152.2904  143.5221  158.4688 C   0  0  2  0  0  0  0  0  0  0  0  0
  150.8911  143.0060  158.0788 C   0  0  0  0  0  0  0  0  0  0  0  0
  150.9575  141.8622  157.1868 N   0  0  0  0  0  0  0  0  0  0  0  0
  150.5849  141.8221  155.8932 C   0  0  0  0  0  0  0  0  0  0  0  0
  150.7444  140.6699  155.2485 N   0  0  0  0  0  0  0  0  0  0  0  0
  151.2825  139.8669  156.2396 C   0  0  0  0  0  0  0  0  0  0  0  0
  151.6889  138.5139  156.2035 C   0  0  0  0  0  0  0  0  0  0  0  0
  152.2219  137.8964  157.3541 C   0  0  0  0  0  0  0  0  0  0  0  0
  152.6076  136.5993  157.3017 F   0  0  0  0  0  0  0  0  0  0  0  0
  152.3553  138.6214  158.5570 C   0  0  0  0  0  0  0  0  0  0  0  0
  152.8697  138.0220  159.6569 F   0  0  0  0  0  0  0  0  0  0  0  0
  151.9548  139.9696  158.6175 C   0  0  0  0  0  0  0  0  0  0  0  0
  151.4253  140.5822  157.4665 C   0  0  0  0  0  0  0  0  0  0  0  0
  152.7113  143.0596  159.8573 C   0  0  0  0  0  0  0  0  0  0  0  0
  152.1685  143.6829  161.0019 C   0  0  0  0  0  0  0  0  0  0  0  0
  152.5759  143.2828  162.2891 C   0  0  0  0  0  0  0  0  0  0  0  0
  153.5273  142.2560  162.4398 C   0  0  0  0  0  0  0  0  0  0  0  0
  154.0714  141.6294  161.3025 C   0  0  0  0  0  0  0  0  0  0  0  0
  153.6653  142.0299  160.0148 C   0  0  0  0  0  0  0  0  0  0  0  0
  151.9651  145.1592  157.4947 H   0  0  0  0  0  0  0  0  0  0  0  0
  153.0174  143.1531  157.7438 H   0  0  0  0  0  0  0  0  0  0  0  0
  150.3149  142.7331  158.9640 H   0  0  0  0  0  0  0  0  0  0  0  0
  150.3288  143.7920  157.5726 H   0  0  0  0  0  0  0  0  0  0  0  0
  150.1780  142.6903  155.3954 H   0  0  0  0  0  0  0  0  0  0  0  0
  151.5918  137.9490  155.2885 H   0  0  0  0  0  0  0  0  0  0  0  0
  152.0591  140.5270  159.5363 H   0  0  0  0  0  0  0  0  0  0  0  0
  151.4451  144.4781  160.8961 H   0  0  0  0  0  0  0  0  0  0  0  0
  152.1608  143.7660  163.1614 H   0  0  0  0  0  0  0  0  0  0  0  0
  153.8411  141.9506  163.4272 H   0  0  0  0  0  0  0  0  0  0  0  0
  154.8034  140.8436  161.4173 H   0  0  0  0  0  0  0  0  0  0  0  0
  154.0965  141.5509  159.1480 H   0  0  0  0  0  0  0  0  0  0  0  0
  1  2  1  0  0  0  0
  1 21  1  0  0  0  0
  2  3  1  0  0  0  0
  2 15  1  0  0  0  0
  2 22  1  0  0  0  0
  3  4  1  0  0  0  0
  3 23  1  0  0  0  0
  3 24  1  0  0  0  0
  4 14  1  0  0  0  0
  4  5  1  0  0  0  0
  5  6  2  0  0  0  0
  5 25  1  0  0  0  0
  6  7  1  0  0  0  0
  7 14  2  0  0  0  0
  7  8  1  0  0  0  0
  8  9  2  0  0  0  0
  8 26  1  0  0  0  0
  9 10  1  0  0  0  0
  9 11  1  0  0  0  0
 11 12  1  0  0  0  0
 11 13  2  0  0  0  0
 13 14  1  0  0  0  0
 13 27  1  0  0  0  0
 15 20  1  0  0  0  0
 15 16  2  0  0  0  0
 16 17  1  0  0  0  0
 16 28  1  0  0  0  0
 17 18  2  0  0  0  0
 17 29  1  0  0  0  0
 18 19  1  0  0  0  0
 18 30  1  0  0  0  0
 19 20  2  0  0  0  0
 19 31  1  0  0  0  0
 20 32  1  0  0  0  0
M  END
> <s_m_source_file>
AV-unprocessed.smi

> <i_m_source_file_index>
456

> <i_lp_mmshare_version>
43012

> <i_f3d_flags>
0

> <s_epik_input>
W2NIXTFbY0hdW2NIXVtjSF1bY0hdYzFbQ0BIXShbT0hdKVtDSDJdbihbY0hdbjIpYyhjMjMpW2NIXWMoRiljKEYpW2NIXTM=

> <s_epik_cmdline>
J2VwaWtfcHl0aG9uJywgJy1waCcsICc3LjAnLCAnLXRuJywgJzgnLCAnLW1hJywgJzIwMCcsICctbWV0YWxfYmluZGluZycsICctaW1hZScsICc8aW5maWxlLm1hZT4nLCAnLW9tYWUnLCAnPG91dGZpbGUubWFlPic=

> <r_epik_Ionization_Penalty>
0.0156354

> <r_epik_Ionization_Penalty_Charging>
0

> <r_epik_Ionization_Penalty_Neutral>
0.0156354

> <r_epik_State_Penalty>
0.0122974

> <r_epik_Charging_Adjusted_Penalty>
0.0122974

> <i_epik_Tot_Q>
0

> <i_epik_Tot_abs_Q>
0

> <r_epik_Metal_State_Penalty>
1.24258e-05

> <b_epik_Metal_Only>
0

> <s_lp_Force_Field>
OPLS_2005

> <r_lp_Energy>
11.2052

> <b_lp_Chiralities_Consistent>
1

> <s_lp_Variant>
AV-unprocessed.smi:456-1

> <Gold.Version>
5.8.1

> <Gold.Id.Protein>
6NUR|6NUR_protein|mol2

> <Gold.PLP.Fitness>
50.6004

> <Gold.PLP.PLP>
-46.9227

> <Gold.PLP.part.hbond>
-1.0000

> <Gold.PLP.part.metal>
0.0000

> <Gold.PLP.part.buried>
-4.6107

> <Gold.PLP.part.nonpolar>
-40.7131

> <Gold.PLP.part.repulsive>
0.0583

> <Gold.PLP.ligand.clash>
0.0000

> <Gold.PLP.ligand.torsion>
1.0382

> <Gold.PLP.Chemscore.Hbond>
0.9120

> <Gold.PLP.Chemscore.CHOScore>
1.0000

> <Gold.PLP.Chemscore.Metal>
0.0000

> <Gold.Chemscore.Hbonds>
donor molecule, donor type, donor heavy atom, donor atom, acceptor molecule, acceptor atom, score
      P1  H  7989  7998       L1     6  0.90
      L1  C     5    25       P1  8028  1.00

> <Gold.PLP.Chemscore.Internal.Correction>
0.0181

> <Gold.Rescore>
     Score         DG    S(hbond)    S(metal)    S(lipo)     H(rot)  DE(clash)    DE(int)     intcor
     16.18     -17.20       0.79        0.00     120.97       1.98       0.21       0.80       ----

> <Gold.Chemscore.Fitness>
16.1800

> <Gold.Chemscore.DG>
-17.1968

> <Gold.Chemscore.ZeroCoef>
-5.4800

> <Gold.Chemscore.Hbond>
0.7862

> <Gold.Chemscore.Metal>
0.0000

> <Gold.Chemscore.Lipo>
120.9714

> <Gold.Chemscore.Internal_Hbond>
0.0000

> <Gold.Chemscore.DEClash>
0.2122

> <Gold.Chemscore.DEInternal>
0.8047

> <Gold.Chemscore.Rot>
1.9776

> <Gold.Chemscore.Internal.Correction>
   9.000000E+99

> <Gold.Chemscore.Hbonds>
donor molecule, donor type, donor heavy atom, donor atom, acceptor molecule, acceptor atom, score
      P1  H  7989  7998       L1     6  0.73

> <Gold.Chemscore.Hbond.Weighted>
-2.6258

> <Gold.Chemscore.Metal.Weighted>
-0.0000

> <Gold.Chemscore.Lipo.Weighted>
-14.1536

> <Gold.Chemscore.Internal_Hbond.Weighted>
0.0000

> <Gold.Chemscore.DEClash.Weighted>
0.2122

> <Gold.Chemscore.DEInternal.Weighted>
0.8047

> <Gold.Chemscore.Rot.Weighted>
5.0626

> <Gold.Chemscore.Internal.Correction.Weighted>
   9.000000E+99

> <Gold.Protein.RotatedTorsions>
[ 6907 6896 6895 6894 ] final   -3.64 input  -60.11 | X-H torsion
[ 7974 7965 7964 7962 ] final   98.26 input  175.53 | X-H torsion
[ 8008 7997 7996 7995 ] final  -89.21 input   59.86 | X-H torsion
[ 10167 10162 10161 10158 ] final -178.10 input  -65.29 | X-H torsion
[ 10718 10713 10712 10709 ] final -140.83 input   66.30 | X-H torsion
[ 10763 10752 10751 10750 ] final   92.38 input  -60.55 | X-H torsion
[ 11005 11000 10999 10996 ] final -154.69 input  -57.11 | X-H torsion

> <Gold.Protein.ActiveResidues>
 VAL166  LYS551  ARG553  GLY616  TRP617  ASP618  TYR619  PRO620  LYS621  CYS622 
 ASP623  PHE694  ASN695  SER759  ASP760  ASP761  ALA762  ILE779  LEU786  VAL792 
 PHE793  MET794  SER795  GLU796  ALA797  LYS798  CYS799  TRP800  GLU811  SER814 

> <Gold.Protein.RotatedAtoms>
  151.5104  135.1065  159.9852 H   0  0  0  0  0  0  0  0  0  0  0  0  # atno 6907 bound_to 6896
  152.4664  133.7928  159.6921 H   0  0  0  0  0  0  0  0  0  0  0  0  # atno 6908 bound_to 6896
  150.8650  133.7525  159.3005 H   0  0  0  0  0  0  0  0  0  0  0  0  # atno 6909 bound_to 6896
  145.4145  139.2329  143.3230 H   0  0  0  0  0  0  0  0  0  0  0  0  # atno 7974 bound_to 7965
  154.6838  140.0544  157.0294 H   0  0  0  0  0  0  0  0  0  0  0  0  # atno 8008 bound_to 7997
  155.0913  140.3219  155.4554 H   0  0  0  0  0  0  0  0  0  0  0  0  # atno 8009 bound_to 7997
  156.2704  140.2047  156.6040 H   0  0  0  0  0  0  0  0  0  0  0  0  # atno 8010 bound_to 7997
  139.5448  144.2265  152.0967 H   0  0  0  0  0  0  0  0  0  0  0  0  # atno 10167 bound_to 10162
  156.3269  130.7565  151.1675 H   0  0  0  0  0  0  0  0  0  0  0  0  # atno 10718 bound_to 10713
  153.2186  135.4363  155.0463 H   0  0  0  0  0  0  0  0  0  0  0  0  # atno 10763 bound_to 10752
  154.8238  135.3350  154.6961 H   0  0  0  0  0  0  0  0  0  0  0  0  # atno 10764 bound_to 10752
  153.7394  135.7005  153.5026 H   0  0  0  0  0  0  0  0  0  0  0  0  # atno 10765 bound_to 10752
  140.6946  134.4004  157.5216 H   0  0  0  0  0  0  0  0  0  0  0  0  # atno 11005 bound_to 11000
  146.2688  140.4862  142.8823 LP  0  0  0  0  0  0  0  0  0  0  0  0  # atno 17320 bound_to 7965
  144.8286  140.6670  143.6306 LP  0  0  0  0  0  0  0  0  0  0  0  0  # atno 17321 bound_to 7965
  140.1749  144.4900  150.6559 LP  0  0  0  0  0  0  0  0  0  0  0  0  # atno 17342 bound_to 10162
  140.6692  143.2279  151.5667 LP  0  0  0  0  0  0  0  0  0  0  0  0  # atno 17343 bound_to 10162
  157.7423  131.0492  150.5034 LP  0  0  0  0  0  0  0  0  0  0  0  0  # atno 17370 bound_to 10713
  156.5195  130.4158  149.6258 LP  0  0  0  0  0  0  0  0  0  0  0  0  # atno 17371 bound_to 10713
  139.8914  134.8781  156.2323 LP  0  0  0  0  0  0  0  0  0  0  0  0  # atno 17394 bound_to 11000
  141.0214  133.7039  156.1274 LP  0  0  0  0  0  0  0  0  0  0  0  0  # atno 17395 bound_to 11000

$$$$
