AV-unprocessed.smi:2973|AV-procd|sdf|11337|dock9
  -GOLD-   2272016243D 1   1.00000     0.00000
 Structure written by MMmdl.
 49 51  0  0  0  0  0  0  0  0  1 V2000
  151.1072  139.3526  154.7757 C   0  0  0  0  0  0  0  0  0  0  0  0
  149.6784  139.5039  154.2117 C   0  0  2  0  0  0  0  0  0  0  0  0
  149.2130  140.9739  154.2933 C   0  0  0  0  0  0  0  0  0  0  0  0
  147.8306  141.1686  153.6512 C   0  0  0  0  0  0  0  0  0  0  0  0
  146.7821  140.2431  154.2839 C   0  0  0  0  0  0  0  0  0  0  0  0
  147.2245  138.7707  154.2126 C   0  0  0  0  0  0  0  0  0  0  0  0
  148.6265  138.5263  154.8264 C   0  0  1  0  0  0  0  0  0  0  0  0
  149.0141  137.1419  154.6183 N   0  0  0  0  0  0  0  0  0  0  0  0
  149.1727  136.4598  155.7589 C   0  0  0  0  0  0  0  0  0  0  0  0
  149.5042  135.2779  155.8380 O   0  0  0  0  0  0  0  0  0  0  0  0
  148.9161  137.2887  156.7858 N   0  0  0  0  0  0  0  0  0  0  0  0
  149.0318  136.9079  158.1996 C   0  0  0  0  0  0  0  0  0  0  0  0
  150.2563  137.5206  158.8948 C   0  0  0  0  0  0  0  0  0  0  0  0
  151.0513  136.8164  159.5196 O   0  0  0  0  0  0  0  0  0  0  0  0
  150.3964  138.8482  158.7664 N   0  0  0  0  0  0  0  0  0  0  0  0
  151.4664  139.6410  159.3604 C   0  0  0  0  0  0  0  0  0  0  0  0
  152.1089  140.5934  158.3385 C   0  0  0  0  0  0  0  0  0  0  0  0
  151.8888  142.0496  158.7021 C   0  0  0  0  0  0  0  0  0  0  0  0
  152.2880  142.5454  159.9617 C   0  0  0  0  0  0  0  0  0  0  0  0
  152.0773  143.9091  160.2432 C   0  0  0  0  0  0  0  0  0  0  0  0
  151.4794  144.7203  159.2594 C   0  0  0  0  0  0  0  0  0  0  0  0
  151.1170  144.1291  158.0328 C   0  0  0  0  0  0  0  0  0  0  0  0
  151.3151  142.8229  157.7526 N   0  0  0  0  0  0  0  0  0  0  0  0
  148.5925  138.5164  156.3566 C   0  0  0  0  0  0  0  0  0  0  0  0
  148.3197  139.4919  157.0566 O   0  0  0  0  0  0  0  0  0  0  0  0
  151.1572  139.6211  155.8312 H   0  0  0  0  0  0  0  0  0  0  0  0
  151.8038  140.0004  154.2434 H   0  0  0  0  0  0  0  0  0  0  0  0
  151.4762  138.3323  154.6731 H   0  0  0  0  0  0  0  0  0  0  0  0
  149.7486  139.2584  153.1507 H   0  0  0  0  0  0  0  0  0  0  0  0
  149.1870  141.3081  155.3307 H   0  0  0  0  0  0  0  0  0  0  0  0
  149.9340  141.6178  153.7884 H   0  0  0  0  0  0  0  0  0  0  0  0
  147.5172  142.2079  153.7522 H   0  0  0  0  0  0  0  0  0  0  0  0
  147.8948  140.9684  152.5810 H   0  0  0  0  0  0  0  0  0  0  0  0
  146.6092  140.5365  155.3193 H   0  0  0  0  0  0  0  0  0  0  0  0
  145.8274  140.3646  153.7719 H   0  0  0  0  0  0  0  0  0  0  0  0
  146.4774  138.1467  154.7056 H   0  0  0  0  0  0  0  0  0  0  0  0
  147.2304  138.4562  153.1680 H   0  0  0  0  0  0  0  0  0  0  0  0
  149.1526  136.7477  153.6989 H   0  0  0  0  0  0  0  0  0  0  0  0
  148.1369  137.2054  158.7487 H   0  0  0  0  0  0  0  0  0  0  0  0
  149.0810  135.8204  158.2803 H   0  0  0  0  0  0  0  0  0  0  0  0
  149.7007  139.3485  158.2320 H   0  0  0  0  0  0  0  0  0  0  0  0
  151.0403  140.2158  160.1831 H   0  0  0  0  0  0  0  0  0  0  0  0
  152.2192  138.9836  159.7990 H   0  0  0  0  0  0  0  0  0  0  0  0
  153.1814  140.4065  158.2683 H   0  0  0  0  0  0  0  0  0  0  0  0
  151.7001  140.4062  157.3445 H   0  0  0  0  0  0  0  0  0  0  0  0
  152.7490  141.8989  160.6942 H   0  0  0  0  0  0  0  0  0  0  0  0
  152.3710  144.3249  161.1956 H   0  0  0  0  0  0  0  0  0  0  0  0
  151.3032  145.7704  159.4394 H   0  0  0  0  0  0  0  0  0  0  0  0
  150.6577  144.7217  157.2553 H   0  0  0  0  0  0  0  0  0  0  0  0
  1  2  1  0  0  0  0
  1 26  1  0  0  0  0
  1 27  1  0  0  0  0
  1 28  1  0  0  0  0
  2  7  1  0  0  0  0
  2  3  1  0  0  0  0
  2 29  1  0  0  0  0
  3  4  1  0  0  0  0
  3 30  1  0  0  0  0
  3 31  1  0  0  0  0
  4  5  1  0  0  0  0
  4 32  1  0  0  0  0
  4 33  1  0  0  0  0
  5  6  1  0  0  0  0
  5 34  1  0  0  0  0
  5 35  1  0  0  0  0
  6  7  1  0  0  0  0
  6 36  1  0  0  0  0
  6 37  1  0  0  0  0
  7 24  1  0  0  0  0
  7  8  1  0  0  0  0
  8  9  1  0  0  0  0
  8 38  1  0  0  0  0
  9 10  2  0  0  0  0
  9 11  1  0  0  0  0
 11 12  1  0  0  0  0
 11 24  1  0  0  0  0
 12 13  1  0  0  0  0
 12 39  1  0  0  0  0
 12 40  1  0  0  0  0
 13 14  2  0  0  0  0
 13 15  1  0  0  0  0
 15 16  1  0  0  0  0
 15 41  1  0  0  0  0
 16 17  1  0  0  0  0
 16 42  1  0  0  0  0
 16 43  1  0  0  0  0
 17 18  1  0  0  0  0
 17 44  1  0  0  0  0
 17 45  1  0  0  0  0
 18 23  1  0  0  0  0
 18 19  2  0  0  0  0
 19 20  1  0  0  0  0
 19 46  1  0  0  0  0
 20 21  2  0  0  0  0
 20 47  1  0  0  0  0
 21 22  1  0  0  0  0
 21 48  1  0  0  0  0
 22 23  2  0  0  0  0
 22 49  1  0  0  0  0
 24 25  2  0  0  0  0
M  END
> <s_m_source_file>
AV-unprocessed.smi

> <i_m_source_file_index>
2973

> <i_lp_mmshare_version>
43012

> <i_f3d_flags>
0

> <s_epik_input>
W0NIMl0xW0NIMl1bQ0gyXVtDSDJdW0NAQEhdKFtDSDNdKVtDQF0xMltOSF1DKD1PKU4oQzI9TylbQ0gyXUMoPU8pW05IXVtDSDJdW0NIMl1jM1tjSF1bY0hdW2NIXVtjSF1uMw==

> <s_epik_cmdline>
J2VwaWtfcHl0aG9uJywgJy1waCcsICc3LjAnLCAnLXRuJywgJzgnLCAnLW1hJywgJzIwMCcsICctbWV0YWxfYmluZGluZycsICctaW1hZScsICc8aW5maWxlLm1hZT4nLCAnLW9tYWUnLCAnPG91dGZpbGUubWFlPic=

> <r_lp_tautomer_probability>
1

> <r_epik_Ionization_Penalty>
0.0245152

> <r_epik_Ionization_Penalty_Charging>
0

> <r_epik_Ionization_Penalty_Neutral>
0.0245152

> <r_epik_State_Penalty>
0.0198648

> <r_epik_Charging_Adjusted_Penalty>
0.0198648

> <i_epik_Tot_Q>
0

> <i_epik_Tot_abs_Q>
0

> <r_epik_Metal_State_Penalty>
0.0400162

> <b_epik_Metal_Only>
0

> <s_lp_Force_Field>
OPLS_2005

> <r_lp_Energy>
16.1581

> <b_lp_Chiralities_Consistent>
1

> <s_lp_Variant>
AV-unprocessed.smi:2973-1

> <Gold.Version>
5.8.1

> <Gold.Id.Protein>
6NUR|6NUR_protein|mol2

> <Gold.PLP.Fitness>
48.5027

> <Gold.PLP.PLP>
-40.7871

> <Gold.PLP.part.hbond>
-2.0000

> <Gold.PLP.part.metal>
0.0000

> <Gold.PLP.part.buried>
-1.8590

> <Gold.PLP.part.nonpolar>
-36.2656

> <Gold.PLP.part.repulsive>
0.2886

> <Gold.PLP.ligand.clash>
0.0000

> <Gold.PLP.ligand.torsion>
0.6503

> <Gold.PLP.Chemscore.Hbond>
2.0000

> <Gold.PLP.Chemscore.CHOScore>
1.0000

> <Gold.PLP.Chemscore.Metal>
0.0000

> <Gold.Chemscore.Hbonds>
donor molecule, donor type, donor heavy atom, donor atom, acceptor molecule, acceptor atom, score
      L1  H     8    38       P1  7948  1.00
      P1  H  6896  6907       L1    14  1.00
      L1  C    22    49       P1  8028  1.00

> <Gold.PLP.Chemscore.Internal.Correction>
0.0162

> <Gold.Rescore>
     Score         DG    S(hbond)    S(metal)    S(lipo)     H(rot)  DE(clash)    DE(int)     intcor
     17.68     -20.57       1.92        0.00     114.77       1.86       0.94       1.95       ----

> <Gold.Chemscore.Fitness>
17.6775

> <Gold.Chemscore.DG>
-20.5737

> <Gold.Chemscore.ZeroCoef>
-5.4800

> <Gold.Chemscore.Hbond>
1.9209

> <Gold.Chemscore.Metal>
0.0000

> <Gold.Chemscore.Lipo>
114.7659

> <Gold.Chemscore.Internal_Hbond>
0.0000

> <Gold.Chemscore.DEClash>
0.9436

> <Gold.Chemscore.DEInternal>
1.9527

> <Gold.Chemscore.Rot>
1.8553

> <Gold.Chemscore.Internal.Correction>
   9.000000E+99

> <Gold.Chemscore.Hbonds>
donor molecule, donor type, donor heavy atom, donor atom, acceptor molecule, acceptor atom, score
      L1  H     8    38       P1  7948  0.99
      P1  H  6896  6907       L1    14  0.99

> <Gold.Chemscore.Hbond.Weighted>
-6.4158

> <Gold.Chemscore.Metal.Weighted>
-0.0000

> <Gold.Chemscore.Lipo.Weighted>
-13.4276

> <Gold.Chemscore.Internal_Hbond.Weighted>
0.0000

> <Gold.Chemscore.DEClash.Weighted>
0.9436

> <Gold.Chemscore.DEInternal.Weighted>
1.9527

> <Gold.Chemscore.Rot.Weighted>
4.7497

> <Gold.Chemscore.Internal.Correction.Weighted>
   9.000000E+99

> <Gold.Protein.RotatedTorsions>
[ 6907 6896 6895 6894 ] final   -1.06 input  -60.11 | X-H torsion
[ 7974 7965 7964 7962 ] final  -18.24 input  175.53 | X-H torsion
[ 8008 7997 7996 7995 ] final  111.54 input   59.86 | X-H torsion
[ 10167 10162 10161 10158 ] final   -7.08 input  -65.29 | X-H torsion
[ 10718 10713 10712 10709 ] final  -74.66 input   66.30 | X-H torsion
[ 10763 10752 10751 10750 ] final   50.93 input  -60.55 | X-H torsion
[ 11005 11000 10999 10996 ] final   11.57 input  -57.11 | X-H torsion

> <Gold.Protein.ActiveResidues>
 VAL166  LYS551  ARG553  GLY616  TRP617  ASP618  TYR619  PRO620  LYS621  CYS622 
 ASP623  PHE694  ASN695  SER759  ASP760  ASP761  ALA762  ILE779  LEU786  VAL792 
 PHE793  MET794  SER795  GLU796  ALA797  LYS798  CYS799  TRP800  GLU811  SER814 

> <Gold.Protein.RotatedAtoms>
  151.5522  135.1067  159.9952 H   0  0  0  0  0  0  0  0  0  0  0  0  # atno 6907 bound_to 6896
  152.4486  133.7581  159.6742 H   0  0  0  0  0  0  0  0  0  0  0  0  # atno 6908 bound_to 6896
  150.8408  133.7872  159.3086 H   0  0  0  0  0  0  0  0  0  0  0  0  # atno 6909 bound_to 6896
  146.1902  140.3893  142.8461 H   0  0  0  0  0  0  0  0  0  0  0  0  # atno 7974 bound_to 7965
  156.2130  140.3017  155.9776 H   0  0  0  0  0  0  0  0  0  0  0  0  # atno 8008 bound_to 7997
  155.2675  140.0432  157.3020 H   0  0  0  0  0  0  0  0  0  0  0  0  # atno 8009 bound_to 7997
  154.5728  140.2353  155.8176 H   0  0  0  0  0  0  0  0  0  0  0  0  # atno 8010 bound_to 7997
  140.7017  143.6121  150.8694 H   0  0  0  0  0  0  0  0  0  0  0  0  # atno 10167 bound_to 10162
  156.0235  130.4422  150.2926 H   0  0  0  0  0  0  0  0  0  0  0  0  # atno 10718 bound_to 10713
  152.9784  135.5862  154.4333 H   0  0  0  0  0  0  0  0  0  0  0  0  # atno 10763 bound_to 10752
  154.3944  135.2768  155.2137 H   0  0  0  0  0  0  0  0  0  0  0  0  # atno 10764 bound_to 10752
  154.3995  135.6106  153.5943 H   0  0  0  0  0  0  0  0  0  0  0  0  # atno 10765 bound_to 10752
  140.5017  134.0739  155.7795 H   0  0  0  0  0  0  0  0  0  0  0  0  # atno 11005 bound_to 11000
  144.8472  140.6947  143.6191 LP  0  0  0  0  0  0  0  0  0  0  0  0  # atno 17320 bound_to 7965
  145.3816  139.1636  143.4277 LP  0  0  0  0  0  0  0  0  0  0  0  0  # atno 17321 bound_to 7965
  139.9844  143.5916  152.2932 LP  0  0  0  0  0  0  0  0  0  0  0  0  # atno 17342 bound_to 10162
  139.6548  144.7662  151.2076 LP  0  0  0  0  0  0  0  0  0  0  0  0  # atno 17343 bound_to 10162
  157.1029  131.0200  151.3078 LP  0  0  0  0  0  0  0  0  0  0  0  0  # atno 17370 bound_to 10713
  157.4766  130.7740  149.7373 LP  0  0  0  0  0  0  0  0  0  0  0  0  # atno 17371 bound_to 10713
  141.1432  133.9102  157.2278 LP  0  0  0  0  0  0  0  0  0  0  0  0  # atno 17394 bound_to 11000
  139.9709  135.0128  156.9510 LP  0  0  0  0  0  0  0  0  0  0  0  0  # atno 17395 bound_to 11000

$$$$
