AV-unprocessed.smi:281|AV-procd|sdf|2113|dock10
  -GOLD-   2262021413D 1   1.00000     0.00000
 Structure written by MMmdl.
 55 59  0  0  0  0  0  0  0  0  1 V2000
  152.0253  138.8732  154.4352 C   0  0  0  0  0  0  0  0  0  0  0  0
  150.5703  138.9040  154.9126 C   0  0  2  0  0  0  0  0  0  0  0  0
  149.7842  137.6655  154.4551 C   0  0  0  0  0  0  0  0  0  0  0  0
  148.3914  137.7997  154.8618 N   0  0  0  0  0  0  0  0  0  0  0  0
  147.6008  136.6976  154.8556 C   0  0  0  0  0  0  0  0  0  0  0  0
  147.7223  135.7670  155.8397 N   0  0  0  0  0  0  0  0  0  0  0  0
  146.9513  134.6755  155.8346 C   0  0  0  0  0  0  0  0  0  0  0  0
  146.0069  134.3245  154.9597 N   0  0  0  0  0  0  0  0  0  0  0  0
  145.8717  135.2592  153.9758 C   0  0  0  0  0  0  0  0  0  0  0  0
  146.6229  136.4618  153.8484 C   0  0  0  0  0  0  0  0  0  0  0  0
  146.2017  137.1653  152.7262 N   0  0  0  0  0  0  0  0  0  0  0  0
  145.2653  136.4158  152.2128 C   0  0  0  0  0  0  0  0  0  0  0  0
  144.9939  135.2568  152.9051 N   0  0  0  0  0  0  0  0  0  0  0  0
  144.0035  134.2476  152.5598 C   0  0  0  0  0  0  0  0  0  0  0  0
  144.1392  133.7111  151.1142 C   0  0  1  0  0  0  0  0  0  0  0  0
  143.7571  134.7317  150.2096 O   0  0  0  0  0  0  0  0  0  0  0  0
  145.5670  133.2672  150.7883 C   0  0  0  0  0  0  0  0  0  0  0  0
  145.4648  131.7480  150.7276 C   0  0  0  0  0  0  0  0  0  0  0  0
  144.1744  131.5468  150.1804 O   0  0  0  0  0  0  0  0  0  0  0  0
  143.2975  132.4482  150.8405 C   0  0  0  0  0  0  0  0  0  0  0  0
  147.7701  139.0185  154.3589 C   0  0  0  0  0  0  0  0  0  0  0  0
  148.5878  140.2675  154.7699 C   0  0  1  0  0  0  0  0  0  0  0  0
  148.0539  141.5058  154.0683 C   0  0  0  0  0  0  0  0  0  0  0  0
  146.8804  141.9181  154.9513 C   0  0  0  0  0  0  0  0  0  0  0  0
  147.2068  141.4738  156.2644 O   0  0  0  0  0  0  0  0  0  0  0  0
  148.3810  140.6636  156.2500 C   0  0  2  0  0  0  0  0  0  0  0  0
  149.5009  141.5311  156.8566 C   0  0  0  0  0  0  0  0  0  0  0  0
  149.9573  140.0857  154.3928 O   0  0  0  0  0  0  0  0  0  0  0  0
  152.5454  137.9951  154.8185 H   0  0  0  0  0  0  0  0  0  0  0  0
  152.5658  139.7557  154.7785 H   0  0  0  0  0  0  0  0  0  0  0  0
  152.0835  138.8493  153.3466 H   0  0  0  0  0  0  0  0  0  0  0  0
  150.5676  138.9362  156.0020 H   0  0  0  0  0  0  0  0  0  0  0  0
  149.8390  137.5581  153.3707 H   0  0  0  0  0  0  0  0  0  0  0  0
  150.2220  136.7688  154.8964 H   0  0  0  0  0  0  0  0  0  0  0  0
  147.1142  133.9844  156.6485 H   0  0  0  0  0  0  0  0  0  0  0  0
  144.7382  136.6936  151.3117 H   0  0  0  0  0  0  0  0  0  0  0  0
  144.0875  133.4294  153.2764 H   0  0  0  0  0  0  0  0  0  0  0  0
  143.0112  134.6769  152.7050 H   0  0  0  0  0  0  0  0  0  0  0  0
  142.9055  134.5168  149.8606 H   0  0  0  0  0  0  0  0  0  0  0  0
  145.8810  133.6403  149.8120 H   0  0  0  0  0  0  0  0  0  0  0  0
  146.3049  133.6029  151.5176 H   0  0  0  0  0  0  0  0  0  0  0  0
  146.2420  131.2967  150.1106 H   0  0  0  0  0  0  0  0  0  0  0  0
  145.5157  131.3107  151.7263 H   0  0  0  0  0  0  0  0  0  0  0  0
  142.9829  131.9748  151.7711 H   0  0  0  0  0  0  0  0  0  0  0  0
  142.4010  132.6386  150.2490 H   0  0  0  0  0  0  0  0  0  0  0  0
  147.7273  138.9468  153.2711 H   0  0  0  0  0  0  0  0  0  0  0  0
  146.7404  139.1143  154.7006 H   0  0  0  0  0  0  0  0  0  0  0  0
  148.8071  142.2949  154.0701 H   0  0  0  0  0  0  0  0  0  0  0  0
  147.7660  141.3323  153.0310 H   0  0  0  0  0  0  0  0  0  0  0  0
  146.7043  142.9938  154.9293 H   0  0  0  0  0  0  0  0  0  0  0  0
  145.9644  141.4202  154.6323 H   0  0  0  0  0  0  0  0  0  0  0  0
  148.2317  139.7856  156.8797 H   0  0  0  0  0  0  0  0  0  0  0  0
  150.4496  140.9995  156.9092 H   0  0  0  0  0  0  0  0  0  0  0  0
  149.2437  141.8303  157.8727 H   0  0  0  0  0  0  0  0  0  0  0  0
  149.6647  142.4418  156.2809 H   0  0  0  0  0  0  0  0  0  0  0  0
  1  2  1  0  0  0  0
  1 29  1  0  0  0  0
  1 30  1  0  0  0  0
  1 31  1  0  0  0  0
  2 28  1  0  0  0  0
  2  3  1  0  0  0  0
  2 32  1  0  0  0  0
  3  4  1  0  0  0  0
  3 33  1  0  0  0  0
  3 34  1  0  0  0  0
  4  5  1  0  0  0  0
  4 21  1  0  0  0  0
  5 10  1  0  0  0  0
  5  6  2  0  0  0  0
  6  7  1  0  0  0  0
  7  8  2  0  0  0  0
  7 35  1  0  0  0  0
  8  9  1  0  0  0  0
  9 13  1  0  0  0  0
  9 10  2  0  0  0  0
 10 11  1  0  0  0  0
 11 12  2  0  0  0  0
 12 13  1  0  0  0  0
 12 36  1  0  0  0  0
 13 14  1  0  0  0  0
 14 15  1  0  0  0  0
 14 37  1  0  0  0  0
 14 38  1  0  0  0  0
 15 20  1  0  0  0  0
 15 16  1  0  0  0  0
 15 17  1  0  0  0  0
 16 39  1  0  0  0  0
 17 18  1  0  0  0  0
 17 40  1  0  0  0  0
 17 41  1  0  0  0  0
 18 19  1  0  0  0  0
 18 42  1  0  0  0  0
 18 43  1  0  0  0  0
 19 20  1  0  0  0  0
 20 44  1  0  0  0  0
 20 45  1  0  0  0  0
 21 22  1  0  0  0  0
 21 46  1  0  0  0  0
 21 47  1  0  0  0  0
 22 26  1  0  0  0  0
 22 23  1  0  0  0  0
 22 28  1  0  0  0  0
 23 24  1  0  0  0  0
 23 48  1  0  0  0  0
 23 49  1  0  0  0  0
 24 25  1  0  0  0  0
 24 50  1  0  0  0  0
 24 51  1  0  0  0  0
 25 26  1  0  0  0  0
 26 27  1  0  0  0  0
 26 52  1  0  0  0  0
 27 53  1  0  0  0  0
 27 54  1  0  0  0  0
 27 55  1  0  0  0  0
M  END
> <s_m_source_file>
AV-unprocessed.smi

> <i_m_source_file_index>
281

> <i_lp_mmshare_version>
43012

> <i_f3d_flags>
0

> <s_epik_input>
W0NIM11bQ0BASF0xT1tDSDJdW0NIMl1bQ0BAXTEyW0NIMl1OKFtDSDJdW0NASF0oTzIpW0NIM10pYyhuW2NIXW4zKWMoYzM0KW5bY0hdbjRbQ0gyXVtDQEBdNShbT0hdKVtDSDJdW0NIMl1PW0NIMl01

> <s_epik_cmdline>
J2VwaWtfcHl0aG9uJywgJy1waCcsICc3LjAnLCAnLXRuJywgJzgnLCAnLW1hJywgJzIwMCcsICctbWV0YWxfYmluZGluZycsICctaW1hZScsICc8aW5maWxlLm1hZT4nLCAnLW9tYWUnLCAnPG91dGZpbGUubWFlPic=

> <r_lp_tautomer_probability>
1

> <r_epik_Ionization_Penalty>
0.00571331

> <r_epik_Ionization_Penalty_Charging>
0

> <r_epik_Ionization_Penalty_Neutral>
0.00571331

> <r_epik_State_Penalty>
0.00399586

> <r_epik_Charging_Adjusted_Penalty>
0.00399586

> <i_epik_Tot_Q>
0

> <i_epik_Tot_abs_Q>
0

> <r_epik_Metal_State_Penalty>
-0

> <b_epik_Metal_Only>
0

> <s_lp_Force_Field>
OPLS_2005

> <r_lp_Energy>
53.7875

> <b_lp_Chiralities_Consistent>
1

> <s_lp_Variant>
AV-unprocessed.smi:281-13

> <Gold.Version>
5.8.1

> <Gold.Id.Protein>
6NUR|6NUR_protein|mol2

> <Gold.PLP.Fitness>
44.2676

> <Gold.PLP.PLP>
-35.1815

> <Gold.PLP.part.hbond>
-3.2067

> <Gold.PLP.part.metal>
0.0000

> <Gold.PLP.part.buried>
-4.4402

> <Gold.PLP.part.nonpolar>
-30.1515

> <Gold.PLP.part.repulsive>
1.8128

> <Gold.PLP.ligand.clash>
0.0000

> <Gold.PLP.ligand.torsion>
0.6788

> <Gold.PLP.Chemscore.Hbond>
2.3689

> <Gold.PLP.Chemscore.CHOScore>
1.0000

> <Gold.PLP.Chemscore.Metal>
0.0000

> <Gold.Chemscore.Hbonds>
donor molecule, donor type, donor heavy atom, donor atom, acceptor molecule, acceptor atom, score
      L1  H    16    39       P1 10186  1.00
      P1  H  7989  7998       L1    28  0.86
      P1  H 10785 10796       L1    19  0.32
      L1  C    12    36       P1 10171  0.92

> <Gold.PLP.Chemscore.Internal.Correction>
0.3369

> <Gold.Rescore>
     Score         DG    S(hbond)    S(metal)    S(lipo)     H(rot)  DE(clash)    DE(int)     intcor
     13.51     -17.45       1.90        0.00      93.71       2.09       1.92       2.02       ----

> <Gold.Chemscore.Fitness>
13.5111

> <Gold.Chemscore.DG>
-17.4457

> <Gold.Chemscore.ZeroCoef>
-5.4800

> <Gold.Chemscore.Hbond>
1.9038

> <Gold.Chemscore.Metal>
0.0000

> <Gold.Chemscore.Lipo>
93.7128

> <Gold.Chemscore.Internal_Hbond>
0.0000

> <Gold.Chemscore.DEClash>
1.9170

> <Gold.Chemscore.DEInternal>
2.0175

> <Gold.Chemscore.Rot>
2.0927

> <Gold.Chemscore.Internal.Correction>
   9.000000E+99

> <Gold.Chemscore.Hbonds>
donor molecule, donor type, donor heavy atom, donor atom, acceptor molecule, acceptor atom, score
      L1  H    16    39       P1 10186  0.90
      P1  H  7989  7998       L1    28  0.15
      P1  H 10785 10796       L1    19  0.31

> <Gold.Chemscore.Hbond.Weighted>
-6.3586

> <Gold.Chemscore.Metal.Weighted>
-0.0000

> <Gold.Chemscore.Lipo.Weighted>
-10.9644

> <Gold.Chemscore.Internal_Hbond.Weighted>
0.0000

> <Gold.Chemscore.DEClash.Weighted>
1.9170

> <Gold.Chemscore.DEInternal.Weighted>
2.0175

> <Gold.Chemscore.Rot.Weighted>
5.3573

> <Gold.Chemscore.Internal.Correction.Weighted>
   9.000000E+99

> <Gold.Protein.RotatedTorsions>
[ 6907 6896 6895 6894 ] final  -55.28 input  -60.11 | X-H torsion
[ 7974 7965 7964 7962 ] final  -18.61 input  175.53 | X-H torsion
[ 8008 7997 7996 7995 ] final -104.13 input   59.86 | X-H torsion
[ 10167 10162 10161 10158 ] final   18.25 input  -65.29 | X-H torsion
[ 10718 10713 10712 10709 ] final  -68.05 input   66.30 | X-H torsion
[ 10763 10752 10751 10750 ] final -144.15 input  -60.55 | X-H torsion
[ 11005 11000 10999 10996 ] final    1.91 input  -57.11 | X-H torsion

> <Gold.Protein.ActiveResidues>
 VAL166  LYS551  ARG553  GLY616  TRP617  ASP618  TYR619  PRO620  LYS621  CYS622 
 ASP623  PHE694  ASN695  SER759  ASP760  ASP761  ALA762  ILE779  LEU786  VAL792 
 PHE793  MET794  SER795  GLU796  ALA797  LYS798  CYS799  TRP800  GLU811  SER814 

> <Gold.Protein.RotatedAtoms>
  150.8265  134.7498  159.6816 H   0  0  0  0  0  0  0  0  0  0  0  0  # atno 6907 bound_to 6896
  152.4375  134.5654  159.9916 H   0  0  0  0  0  0  0  0  0  0  0  0  # atno 6908 bound_to 6896
  151.5825  133.3338  159.3047 H   0  0  0  0  0  0  0  0  0  0  0  0  # atno 6909 bound_to 6896
  146.1883  140.3946  142.8468 H   0  0  0  0  0  0  0  0  0  0  0  0  # atno 7974 bound_to 7965
  154.8809  140.0419  157.1781 H   0  0  0  0  0  0  0  0  0  0  0  0  # atno 8008 bound_to 7997
  154.8640  140.2948  155.5500 H   0  0  0  0  0  0  0  0  0  0  0  0  # atno 8009 bound_to 7997
  156.2999  140.2441  156.3619 H   0  0  0  0  0  0  0  0  0  0  0  0  # atno 8010 bound_to 7997
  140.5667  143.9238  150.6681 H   0  0  0  0  0  0  0  0  0  0  0  0  # atno 10167 bound_to 10162
  156.0525  130.4288  150.1944 H   0  0  0  0  0  0  0  0  0  0  0  0  # atno 10718 bound_to 10713
  154.8440  135.3448  154.6300 H   0  0  0  0  0  0  0  0  0  0  0  0  # atno 10763 bound_to 10752
  153.6910  135.6975  153.5095 H   0  0  0  0  0  0  0  0  0  0  0  0  # atno 10764 bound_to 10752
  153.2595  135.4327  155.0835 H   0  0  0  0  0  0  0  0  0  0  0  0  # atno 10765 bound_to 10752
  140.6102  133.9755  155.8173 H   0  0  0  0  0  0  0  0  0  0  0  0  # atno 11005 bound_to 11000
  144.8439  140.6899  143.6212 LP  0  0  0  0  0  0  0  0  0  0  0  0  # atno 17320 bound_to 7965
  145.3870  139.1624  143.4249 LP  0  0  0  0  0  0  0  0  0  0  0  0  # atno 17321 bound_to 7965
  140.2703  143.3461  152.1244 LP  0  0  0  0  0  0  0  0  0  0  0  0  # atno 17342 bound_to 10162
  139.5096  144.6870  151.5860 LP  0  0  0  0  0  0  0  0  0  0  0  0  # atno 17343 bound_to 10162
  157.0025  130.9926  151.3387 LP  0  0  0  0  0  0  0  0  0  0  0  0  # atno 17370 bound_to 10713
  157.5465  130.8154  149.8092 LP  0  0  0  0  0  0  0  0  0  0  0  0  # atno 17371 bound_to 10713
  141.0813  134.0058  157.3381 LP  0  0  0  0  0  0  0  0  0  0  0  0  # atno 17394 bound_to 11000
  139.9195  135.0199  156.8011 LP  0  0  0  0  0  0  0  0  0  0  0  0  # atno 17395 bound_to 11000

$$$$
