AV-unprocessed.smi:2475|AV-procd|sdf|9756|dock2
  -GOLD-   2272013393D 1   1.00000     0.00000
 Structure written by MMmdl.
 37 38  0  0  0  0  0  0  0  0  1 V2000
  153.3887  143.0921  163.2319 C   0  0  0  0  0  0  0  0  0  0  0  0
  153.3466  142.4632  161.8556 C   0  0  0  0  0  0  0  0  0  0  0  0
  153.7627  141.1328  161.6387 C   0  0  0  0  0  0  0  0  0  0  0  0
  153.6824  140.6397  160.3173 C   0  0  0  0  0  0  0  0  0  0  0  0
  154.1104  139.3001  160.1303 N   0  0  0  0  0  0  0  0  0  0  0  0
  154.1413  138.5846  158.9894 C   0  0  0  0  0  0  0  0  0  0  0  0
  153.7489  139.0020  157.8992 O   0  0  0  0  0  0  0  0  0  0  0  0
  154.6757  137.1443  159.0999 C   0  0  1  0  0  0  0  0  0  0  0  0
  156.1106  137.0556  159.6616 C   0  0  0  0  0  0  0  0  0  0  0  0
  155.9740  136.2090  160.9161 C   0  0  0  0  0  0  0  0  0  0  0  0
  154.5063  136.3762  161.2791 C   0  0  0  0  0  0  0  0  0  0  0  0
  153.8749  136.3847  160.0084 O   0  0  0  0  0  0  0  0  0  0  0  0
  153.2192  141.4381  159.3245 N   0  0  0  0  0  0  0  0  0  0  0  0
  152.8505  142.6854  159.6348 C   0  0  0  0  0  0  0  0  0  0  0  0
  152.3291  143.5549  158.4982 C   0  0  0  0  0  0  0  0  0  0  0  0
  151.9899  144.9764  158.9727 C   0  0  0  0  0  0  0  0  0  0  0  0
  151.1728  142.8823  157.7420 C   0  0  0  0  0  0  0  0  0  0  0  0
  152.8897  143.2388  160.8501 N   0  0  0  0  0  0  0  0  0  0  0  0
  153.8398  142.4174  163.9599 H   0  0  0  0  0  0  0  0  0  0  0  0
  152.3801  143.3327  163.5688 H   0  0  0  0  0  0  0  0  0  0  0  0
  153.9741  144.0117  163.2121 H   0  0  0  0  0  0  0  0  0  0  0  0
  154.1275  140.5195  162.4499 H   0  0  0  0  0  0  0  0  0  0  0  0
  154.4490  138.8297  160.9569 H   0  0  0  0  0  0  0  0  0  0  0  0
  154.6167  136.6802  158.1149 H   0  0  0  0  0  0  0  0  0  0  0  0
  156.7986  136.6004  158.9487 H   0  0  0  0  0  0  0  0  0  0  0  0
  156.5148  138.0349  159.9227 H   0  0  0  0  0  0  0  0  0  0  0  0
  156.1787  135.1635  160.6820 H   0  0  0  0  0  0  0  0  0  0  0  0
  156.6482  136.5165  161.7160 H   0  0  0  0  0  0  0  0  0  0  0  0
  154.1319  135.5703  161.9105 H   0  0  0  0  0  0  0  0  0  0  0  0
  154.3326  137.3258  161.7875 H   0  0  0  0  0  0  0  0  0  0  0  0
  153.1412  143.6611  157.7767 H   0  0  0  0  0  0  0  0  0  0  0  0
  152.8555  145.4512  159.4354 H   0  0  0  0  0  0  0  0  0  0  0  0
  151.1819  144.9698  159.7050 H   0  0  0  0  0  0  0  0  0  0  0  0
  151.6757  145.6034  158.1382 H   0  0  0  0  0  0  0  0  0  0  0  0
  151.4722  141.9072  157.3567 H   0  0  0  0  0  0  0  0  0  0  0  0
  150.8532  143.4885  156.8941 H   0  0  0  0  0  0  0  0  0  0  0  0
  150.3065  142.7342  158.3877 H   0  0  0  0  0  0  0  0  0  0  0  0
  1  2  1  0  0  0  0
  1 19  1  0  0  0  0
  1 20  1  0  0  0  0
  1 21  1  0  0  0  0
  2 18  1  0  0  0  0
  2  3  2  0  0  0  0
  3  4  1  0  0  0  0
  3 22  1  0  0  0  0
  4  5  1  0  0  0  0
  4 13  2  0  0  0  0
  5  6  1  0  0  0  0
  5 23  1  0  0  0  0
  6  7  2  0  0  0  0
  6  8  1  0  0  0  0
  8 12  1  0  0  0  0
  8  9  1  0  0  0  0
  8 24  1  0  0  0  0
  9 10  1  0  0  0  0
  9 25  1  0  0  0  0
  9 26  1  0  0  0  0
 10 11  1  0  0  0  0
 10 27  1  0  0  0  0
 10 28  1  0  0  0  0
 11 12  1  0  0  0  0
 11 29  1  0  0  0  0
 11 30  1  0  0  0  0
 13 14  1  0  0  0  0
 14 15  1  0  0  0  0
 14 18  2  0  0  0  0
 15 16  1  0  0  0  0
 15 17  1  0  0  0  0
 15 31  1  0  0  0  0
 16 32  1  0  0  0  0
 16 33  1  0  0  0  0
 16 34  1  0  0  0  0
 17 35  1  0  0  0  0
 17 36  1  0  0  0  0
 17 37  1  0  0  0  0
M  END
> <s_m_source_file>
AV-unprocessed.smi

> <i_m_source_file_index>
2475

> <i_lp_mmshare_version>
43012

> <i_f3d_flags>
0

> <s_epik_input>
W0NIM11bQ0hdKFtDSDNdKWMobjEpbmMoW2NIXWMxW0NIM10pW05IXUMoPU8pW0NAQEhdMltDSDJdW0NIMl1bQ0gyXU8y

> <s_epik_cmdline>
J2VwaWtfcHl0aG9uJywgJy1waCcsICc3LjAnLCAnLXRuJywgJzgnLCAnLW1hJywgJzIwMCcsICctbWV0YWxfYmluZGluZycsICctaW1hZScsICc8aW5maWxlLm1hZT4nLCAnLW9tYWUnLCAnPG91dGZpbGUubWFlPic=

> <r_lp_tautomer_probability>
1

> <r_epik_Ionization_Penalty>
1.42804e-05

> <r_epik_Ionization_Penalty_Charging>
0

> <r_epik_Ionization_Penalty_Neutral>
1.42804e-05

> <r_epik_State_Penalty>
-0

> <r_epik_Charging_Adjusted_Penalty>
0

> <i_epik_Tot_Q>
0

> <i_epik_Tot_abs_Q>
0

> <r_epik_Metal_State_Penalty>
-0

> <b_epik_Metal_Only>
0

> <s_lp_Force_Field>
OPLS_2005

> <r_lp_Energy>
11.5588

> <b_lp_Chiralities_Consistent>
1

> <s_lp_Variant>
AV-unprocessed.smi:2475-2

> <Gold.Version>
5.8.1

> <Gold.Id.Protein>
6NUR|6NUR_protein|mol2

> <Gold.PLP.Fitness>
42.7753

> <Gold.PLP.PLP>
-36.7918

> <Gold.PLP.part.hbond>
-2.0000

> <Gold.PLP.part.metal>
0.0000

> <Gold.PLP.part.buried>
-5.3682

> <Gold.PLP.part.nonpolar>
-29.2414

> <Gold.PLP.part.repulsive>
0.0903

> <Gold.PLP.ligand.clash>
0.0000

> <Gold.PLP.ligand.torsion>
0.0479

> <Gold.PLP.Chemscore.Hbond>
2.0000

> <Gold.PLP.Chemscore.CHOScore>
0.0000

> <Gold.PLP.Chemscore.Metal>
0.0000

> <Gold.Chemscore.Hbonds>
donor molecule, donor type, donor heavy atom, donor atom, acceptor molecule, acceptor atom, score
      P1  H  6896  6908       L1    12  0.54
      P1  H  7997  8008       L1     7  1.00

> <Gold.PLP.Chemscore.Internal.Correction>
0.0793

> <Gold.Rescore>
     Score         DG    S(hbond)    S(metal)    S(lipo)     H(rot)  DE(clash)    DE(int)     intcor
     17.54     -18.90       1.88        0.00      86.89       1.18       0.02       1.35       ----

> <Gold.Chemscore.Fitness>
17.5366

> <Gold.Chemscore.DG>
-18.9038

> <Gold.Chemscore.ZeroCoef>
-5.4800

> <Gold.Chemscore.Hbond>
1.8831

> <Gold.Chemscore.Metal>
0.0000

> <Gold.Chemscore.Lipo>
86.8865

> <Gold.Chemscore.Internal_Hbond>
0.0000

> <Gold.Chemscore.DEClash>
0.0189

> <Gold.Chemscore.DEInternal>
1.3484

> <Gold.Chemscore.Rot>
1.1842

> <Gold.Chemscore.Internal.Correction>
   9.000000E+99

> <Gold.Chemscore.Hbonds>
donor molecule, donor type, donor heavy atom, donor atom, acceptor molecule, acceptor atom, score
      P1  H  6896  6908       L1    12  0.30
      P1  H  7997  8008       L1     7  0.87

> <Gold.Chemscore.Hbond.Weighted>
-6.2896

> <Gold.Chemscore.Metal.Weighted>
-0.0000

> <Gold.Chemscore.Lipo.Weighted>
-10.1657

> <Gold.Chemscore.Internal_Hbond.Weighted>
0.0000

> <Gold.Chemscore.DEClash.Weighted>
0.0189

> <Gold.Chemscore.DEInternal.Weighted>
1.3484

> <Gold.Chemscore.Rot.Weighted>
3.0315

> <Gold.Chemscore.Internal.Correction.Weighted>
   9.000000E+99

> <Gold.Protein.RotatedTorsions>
[ 6907 6896 6895 6894 ] final  -61.31 input  -60.11 | X-H torsion
[ 7974 7965 7964 7962 ] final  178.05 input  175.53 | X-H torsion
[ 8008 7997 7996 7995 ] final  -99.65 input   59.86 | X-H torsion
[ 10167 10162 10161 10158 ] final   44.63 input  -65.29 | X-H torsion
[ 10718 10713 10712 10709 ] final -119.78 input   66.30 | X-H torsion
[ 10763 10752 10751 10750 ] final  -54.42 input  -60.55 | X-H torsion
[ 11005 11000 10999 10996 ] final -136.07 input  -57.11 | X-H torsion

> <Gold.Protein.ActiveResidues>
 VAL166  LYS551  ARG553  GLY616  TRP617  ASP618  TYR619  PRO620  LYS621  CYS622 
 ASP623  PHE694  ASN695  SER759  ASP760  ASP761  ALA762  ILE779  LEU786  VAL792 
 PHE793  MET794  SER795  GLU796  ALA797  LYS798  CYS799  TRP800  GLU811  SER814 

> <Gold.Protein.RotatedAtoms>
  150.7794  134.6722  159.6397 H   0  0  0  0  0  0  0  0  0  0  0  0  # atno 6907 bound_to 6896
  152.3874  134.6493  160.0129 H   0  0  0  0  0  0  0  0  0  0  0  0  # atno 6908 bound_to 6896
  151.6804  133.3275  159.3254 H   0  0  0  0  0  0  0  0  0  0  0  0  # atno 6909 bound_to 6896
  144.7161  140.0339  143.6438 H   0  0  0  0  0  0  0  0  0  0  0  0  # atno 7974 bound_to 7965
  154.8177  140.0446  157.1388 H   0  0  0  0  0  0  0  0  0  0  0  0  # atno 8008 bound_to 7997
  154.9295  140.3038  155.5155 H   0  0  0  0  0  0  0  0  0  0  0  0  # atno 8009 bound_to 7997
  156.2977  140.2325  156.4353 H   0  0  0  0  0  0  0  0  0  0  0  0  # atno 8010 bound_to 7997
  140.3324  144.2572  150.6166 H   0  0  0  0  0  0  0  0  0  0  0  0  # atno 10167 bound_to 10162
  156.1207  130.6321  150.9459 H   0  0  0  0  0  0  0  0  0  0  0  0  # atno 10718 bound_to 10713
  154.1746  135.6453  153.5018 H   0  0  0  0  0  0  0  0  0  0  0  0  # atno 10763 bound_to 10752
  153.0075  135.5391  154.6577 H   0  0  0  0  0  0  0  0  0  0  0  0  # atno 10764 bound_to 10752
  154.5925  135.2935  155.0592 H   0  0  0  0  0  0  0  0  0  0  0  0  # atno 10765 bound_to 10752
  140.8840  134.1896  157.4572 H   0  0  0  0  0  0  0  0  0  0  0  0  # atno 11005 bound_to 11000
  146.0079  139.3145  143.0888 LP  0  0  0  0  0  0  0  0  0  0  0  0  # atno 17320 bound_to 7965
  145.8716  140.9416  143.0647 LP  0  0  0  0  0  0  0  0  0  0  0  0  # atno 17321 bound_to 7965
  140.5385  143.2228  151.8123 LP  0  0  0  0  0  0  0  0  0  0  0  0  # atno 17342 bound_to 10162
  139.4854  144.4630  151.9518 LP  0  0  0  0  0  0  0  0  0  0  0  0  # atno 17343 bound_to 10162
  157.6390  131.0912  150.8289 LP  0  0  0  0  0  0  0  0  0  0  0  0  # atno 17370 bound_to 10713
  156.8386  130.5040  149.5323 LP  0  0  0  0  0  0  0  0  0  0  0  0  # atno 17371 bound_to 10713
  139.8722  134.9829  156.5178 LP  0  0  0  0  0  0  0  0  0  0  0  0  # atno 17394 bound_to 11000
  140.8427  133.8192  155.9091 LP  0  0  0  0  0  0  0  0  0  0  0  0  # atno 17395 bound_to 11000

$$$$
