AV-unprocessed.smi:2886|AV-procd|sdf|11087|dock1
  -GOLD-   2272015563D 1   1.00000     0.00000
 Structure written by MMmdl.
 28 30  0  0  0  0  0  0  0  0  1 V2000
  150.7040  139.0837  153.9833 O   0  0  0  0  0  0  0  0  0  0  0  0
  151.0848  139.5542  155.0535 C   0  0  0  0  0  0  0  0  0  0  0  0
  152.0878  138.9818  155.7600 N   0  0  0  0  0  0  0  0  0  0  0  0
  152.5889  139.4113  156.9646 N   0  0  0  0  0  0  0  0  0  0  0  0
  152.0785  140.4671  157.5002 C   0  0  0  0  0  0  0  0  0  0  0  0
  150.9983  141.2268  156.8791 C   0  0  0  0  0  0  0  0  0  0  0  0
  150.4480  142.3642  157.4569 N   0  0  0  0  0  0  0  0  0  0  0  0
  150.7945  143.0096  158.7155 C   0  0  2  0  0  0  0  0  0  0  0  0
  150.1039  144.3647  158.8889 C   0  0  0  0  0  0  0  0  0  0  0  0
  151.3000  145.2998  159.1088 C   0  0  1  0  0  0  0  0  0  0  0  0
  151.9917  145.0538  160.4571 C   0  0  0  0  0  0  0  0  0  0  0  0
  152.7141  143.7310  160.2017 C   0  0  0  0  0  0  0  0  0  0  0  0
  152.2793  143.4060  158.7663 C   0  0  2  0  0  0  0  0  0  0  0  0
  152.2384  144.7158  158.2226 O   0  0  0  0  0  0  0  0  0  0  0  0
  150.5280  140.7556  155.6907 C   0  0  0  0  0  0  0  0  0  0  0  0
  149.2398  141.5719  154.8695 Cl  0  0  0  0  0  0  0  0  0  0  0  0
  152.5330  138.1504  155.3990 H   0  0  0  0  0  0  0  0  0  0  0  0
  152.4378  140.8371  158.4597 H   0  0  0  0  0  0  0  0  0  0  0  0
  149.8048  142.8921  156.8836 H   0  0  0  0  0  0  0  0  0  0  0  0
  150.5759  142.3439  159.5498 H   0  0  0  0  0  0  0  0  0  0  0  0
  149.5579  144.6546  157.9896 H   0  0  0  0  0  0  0  0  0  0  0  0
  149.4058  144.3761  159.7265 H   0  0  0  0  0  0  0  0  0  0  0  0
  151.0837  146.3491  158.9065 H   0  0  0  0  0  0  0  0  0  0  0  0
  152.7094  145.8447  160.6774 H   0  0  0  0  0  0  0  0  0  0  0  0
  151.2808  144.9969  161.2821 H   0  0  0  0  0  0  0  0  0  0  0  0
  153.7944  143.8700  160.2555 H   0  0  0  0  0  0  0  0  0  0  0  0
  152.4353  142.9505  160.9102 H   0  0  0  0  0  0  0  0  0  0  0  0
  152.9510  142.7183  158.2512 H   0  0  0  0  0  0  0  0  0  0  0  0
  1  2  2  0  0  0  0
  2 15  1  0  0  0  0
  2  3  1  0  0  0  0
  3 17  1  0  0  0  0
  3  4  1  0  0  0  0
  4  5  2  0  0  0  0
  5  6  1  0  0  0  0
  5 18  1  0  0  0  0
  6  7  1  0  0  0  0
  6 15  2  0  0  0  0
  7  8  1  0  0  0  0
  7 19  1  0  0  0  0
  8 13  1  0  0  0  0
  8  9  1  0  0  0  0
  8 20  1  0  0  0  0
  9 10  1  0  0  0  0
  9 21  1  0  0  0  0
  9 22  1  0  0  0  0
 10 14  1  0  0  0  0
 10 11  1  0  0  0  0
 10 23  1  0  0  0  0
 11 12  1  0  0  0  0
 11 24  1  0  0  0  0
 11 25  1  0  0  0  0
 12 13  1  0  0  0  0
 12 26  1  0  0  0  0
 12 27  1  0  0  0  0
 13 14  1  0  0  0  0
 13 28  1  0  0  0  0
 15 16  1  0  0  0  0
M  END
> <s_m_source_file>
AV-unprocessed.smi

> <i_m_source_file_index>
2886

> <i_lp_mmshare_version>
43012

> <i_f3d_flags>
0

> <s_epik_input>
Tz1jMVtuSF1uW2NIXWMoYzFDbClbTkhdW0NASF0oW0NIMl1bQ0BASF0yMylbQ0BASF0oTzMpW0NIMl1bQ0gyXTI=

> <s_epik_cmdline>
J2VwaWtfcHl0aG9uJywgJy1waCcsICc3LjAnLCAnLXRuJywgJzgnLCAnLW1hJywgJzIwMCcsICctbWV0YWxfYmluZGluZycsICctaW1hZScsICc8aW5maWxlLm1hZT4nLCAnLW9tYWUnLCAnPG91dGZpbGUubWFlPic=

> <r_lp_tautomer_probability>
0.986175

> <r_epik_Ionization_Penalty>
0.000975594

> <r_epik_Ionization_Penalty_Charging>
0.000940184

> <r_epik_Ionization_Penalty_Neutral>
3.54099e-05

> <r_epik_State_Penalty>
0.00620319

> <r_epik_Charging_Adjusted_Penalty>
0.00714337

> <i_epik_Tot_Q>
0

> <i_epik_Tot_abs_Q>
0

> <r_epik_Metal_State_Penalty>
0.287699

> <b_epik_Metal_Only>
0

> <s_lp_Force_Field>
OPLS_2005

> <r_lp_Energy>
54.6963

> <b_lp_Chiralities_Consistent>
1

> <s_lp_Variant>
AV-unprocessed.smi:2886-1

> <Gold.Version>
5.8.1

> <Gold.Id.Protein>
6NUR|6NUR_protein|mol2

> <Gold.PLP.Fitness>
36.5077

> <Gold.PLP.PLP>
-33.1827

> <Gold.PLP.part.hbond>
-2.0000

> <Gold.PLP.part.metal>
0.0000

> <Gold.PLP.part.buried>
-2.5395

> <Gold.PLP.part.nonpolar>
-29.2171

> <Gold.PLP.part.repulsive>
0.4650

> <Gold.PLP.ligand.clash>
0.0000

> <Gold.PLP.ligand.torsion>
0.0423

> <Gold.PLP.Chemscore.Hbond>
1.1300

> <Gold.PLP.Chemscore.CHOScore>
0.0000

> <Gold.PLP.Chemscore.Metal>
0.0000

> <Gold.Chemscore.Hbonds>
donor molecule, donor type, donor heavy atom, donor atom, acceptor molecule, acceptor atom, score
      L1  H     7    19       P1  8028  0.13
      P1  H  7997  8010       L1     4  1.00

> <Gold.PLP.Chemscore.Internal.Correction>
0.0196

> <Gold.Rescore>
     Score         DG    S(hbond)    S(metal)    S(lipo)     H(rot)  DE(clash)    DE(int)     intcor
     15.11     -15.26       0.48        0.00      91.61       1.00       0.10       0.05       ----

> <Gold.Chemscore.Fitness>
15.1078

> <Gold.Chemscore.DG>
-15.2573

> <Gold.Chemscore.ZeroCoef>
-5.4800

> <Gold.Chemscore.Hbond>
0.4848

> <Gold.Chemscore.Metal>
0.0000

> <Gold.Chemscore.Lipo>
91.6056

> <Gold.Chemscore.Internal_Hbond>
0.0000

> <Gold.Chemscore.DEClash>
0.0956

> <Gold.Chemscore.DEInternal>
0.0538

> <Gold.Chemscore.Rot>
1.0000

> <Gold.Chemscore.Internal.Correction>
   9.000000E+99

> <Gold.Chemscore.Hbonds>
donor molecule, donor type, donor heavy atom, donor atom, acceptor molecule, acceptor atom, score
      L1  H     7    19       P1  8028  0.14
      P1  H  7997  8010       L1     4  0.10

> <Gold.Chemscore.Hbond.Weighted>
-1.6194

> <Gold.Chemscore.Metal.Weighted>
-0.0000

> <Gold.Chemscore.Lipo.Weighted>
-10.7179

> <Gold.Chemscore.Internal_Hbond.Weighted>
0.0000

> <Gold.Chemscore.DEClash.Weighted>
0.0956

> <Gold.Chemscore.DEInternal.Weighted>
0.0538

> <Gold.Chemscore.Rot.Weighted>
2.5600

> <Gold.Chemscore.Internal.Correction.Weighted>
   9.000000E+99

> <Gold.Protein.RotatedTorsions>
[ 6907 6896 6895 6894 ] final  -74.45 input  -60.11 | X-H torsion
[ 7974 7965 7964 7962 ] final   78.45 input  175.53 | X-H torsion
[ 8008 7997 7996 7995 ] final   69.38 input   59.86 | X-H torsion
[ 10167 10162 10161 10158 ] final -141.45 input  -65.29 | X-H torsion
[ 10718 10713 10712 10709 ] final   70.28 input   66.30 | X-H torsion
[ 10763 10752 10751 10750 ] final  -21.68 input  -60.55 | X-H torsion
[ 11005 11000 10999 10996 ] final  147.49 input  -57.11 | X-H torsion

> <Gold.Protein.ActiveResidues>
 VAL166  LYS551  ARG553  GLY616  TRP617  ASP618  TYR619  PRO620  LYS621  CYS622 
 ASP623  PHE694  ASN695  SER759  ASP760  ASP761  ALA762  ILE779  LEU786  VAL792 
 PHE793  MET794  SER795  GLU796  ALA797  LYS798  CYS799  TRP800  GLU811  SER814 

> <Gold.Protein.RotatedAtoms>
  150.7093  134.4867  159.5495 H   0  0  0  0  0  0  0  0  0  0  0  0  # atno 6907 bound_to 6896
  152.2493  134.8146  160.0457 H   0  0  0  0  0  0  0  0  0  0  0  0  # atno 6908 bound_to 6896
  151.8899  133.3478  159.3832 H   0  0  0  0  0  0  0  0  0  0  0  0  # atno 6909 bound_to 6896
  145.6770  139.2512  143.1836 H   0  0  0  0  0  0  0  0  0  0  0  0  # atno 7974 bound_to 7965
  155.7227  140.3493  155.5023 H   0  0  0  0  0  0  0  0  0  0  0  0  # atno 8008 bound_to 7997
  155.9254  140.1074  157.1195 H   0  0  0  0  0  0  0  0  0  0  0  0  # atno 8009 bound_to 7997
  154.4076  140.1241  156.4721 H   0  0  0  0  0  0  0  0  0  0  0  0  # atno 8010 bound_to 7997
  139.8183  143.7609  152.2665 H   0  0  0  0  0  0  0  0  0  0  0  0  # atno 10167 bound_to 10162
  157.6391  130.9469  150.0628 H   0  0  0  0  0  0  0  0  0  0  0  0  # atno 10718 bound_to 10713
  153.6399  135.6985  153.5245 H   0  0  0  0  0  0  0  0  0  0  0  0  # atno 10763 bound_to 10752
  153.2791  135.4191  155.1060 H   0  0  0  0  0  0  0  0  0  0  0  0  # atno 10764 bound_to 10752
  154.8502  135.3597  154.5943 H   0  0  0  0  0  0  0  0  0  0  0  0  # atno 10765 bound_to 10752
  140.0881  134.9057  157.1607 H   0  0  0  0  0  0  0  0  0  0  0  0  # atno 11005 bound_to 11000
  146.0997  140.7558  142.9555 LP  0  0  0  0  0  0  0  0  0  0  0  0  # atno 17320 bound_to 7965
  144.7038  140.3768  143.7134 LP  0  0  0  0  0  0  0  0  0  0  0  0  # atno 17321 bound_to 7965
  139.7779  144.7454  151.0130 LP  0  0  0  0  0  0  0  0  0  0  0  0  # atno 17342 bound_to 10162
  140.7814  143.4574  151.0326 LP  0  0  0  0  0  0  0  0  0  0  0  0  # atno 17343 bound_to 10162
  156.1656  130.3645  149.9237 LP  0  0  0  0  0  0  0  0  0  0  0  0  # atno 17370 bound_to 10713
  156.7225  130.9012  151.3619 LP  0  0  0  0  0  0  0  0  0  0  0  0  # atno 17371 bound_to 10713
  140.3392  134.2723  155.7215 LP  0  0  0  0  0  0  0  0  0  0  0  0  # atno 17394 bound_to 11000
  141.2069  133.7821  157.0151 LP  0  0  0  0  0  0  0  0  0  0  0  0  # atno 17395 bound_to 11000

$$$$
