AV-unprocessed.smi:72|AV-procd|sdf|697|dock5
  -GOLD-   2262017 13D 1   1.00000     0.00000
 Structure written by MMmdl.
 30 31  0  0  0  0  0  0  0  0  2 V2000
  152.2811  141.4996  159.5756 N   0  0  0  0  0  0  0  0  0  0  0  0
  151.8464  141.2253  158.2956 C   0  0  0  0  0  0  0  0  0  0  0  0
  150.7066  141.8706  157.8518 N   0  3  0  0  0  0  0  0  0  0  0  0
  150.1479  141.7086  156.6447 C   0  0  0  0  0  0  0  0  0  0  0  0
  150.6926  140.8585  155.7949 N   0  0  0  0  0  0  0  0  0  0  0  0
  150.1240  140.6302  154.4131 C   0  0  2  0  0  0  0  0  0  0  0  0
  149.2149  141.6524  154.1455 O   0  0  0  0  0  0  0  0  0  0  0  0
  147.9052  141.2211  154.4995 C   0  0  1  0  0  0  0  0  0  0  0  0
  146.8304  142.1451  153.9021 C   0  0  0  0  0  0  0  0  0  0  0  0
  145.5615  141.7867  154.4072 O   0  0  0  0  0  0  0  0  0  0  0  0
  147.9105  139.7780  153.9860 C   0  0  1  0  0  0  0  0  0  0  0  0
  147.6681  139.7502  152.5889 O   0  0  0  0  0  0  0  0  0  0  0  0
  149.3206  139.3106  154.3510 C   0  0  1  0  0  0  0  0  0  0  0  0
  149.8439  138.3763  153.4253 O   0  0  0  0  0  0  0  0  0  0  0  0
  151.8909  140.1839  156.1462 C   0  0  0  0  0  0  0  0  0  0  0  0
  152.4390  139.4310  155.3420 O   0  0  0  0  0  0  0  0  0  0  0  0
  152.3969  140.4168  157.4331 N   0  0  0  0  0  0  0  0  0  0  0  0
  150.9763  140.6873  153.7337 H   0  0  0  0  0  0  0  0  0  0  0  0
  147.8097  141.1939  155.5869 H   0  0  0  0  0  0  0  0  0  0  0  0
  147.1477  139.1714  154.4750 H   0  0  0  0  0  0  0  0  0  0  0  0
  149.2962  138.8494  155.3396 H   0  0  0  0  0  0  0  0  0  0  0  0
  153.1052  141.0792  159.9814 H   0  0  0  0  0  0  0  0  0  0  0  0
  151.8151  142.1357  160.2068 H   0  0  0  0  0  0  0  0  0  0  0  0
  149.2678  142.2884  156.3998 H   0  0  0  0  0  0  0  0  0  0  0  0
  147.0399  143.1938  154.1152 H   0  0  0  0  0  0  0  0  0  0  0  0
  146.7968  142.0317  152.8182 H   0  0  0  0  0  0  0  0  0  0  0  0
  145.0891  141.3261  153.7303 H   0  0  0  0  0  0  0  0  0  0  0  0
  148.4924  139.6098  152.1475 H   0  0  0  0  0  0  0  0  0  0  0  0
  150.1061  138.8394  152.6438 H   0  0  0  0  0  0  0  0  0  0  0  0
  150.2652  142.5182  158.4890 H   0  0  0  0  0  0  0  0  0  0  0  0
  1  2  1  0  0  0  0
  1 22  1  0  0  0  0
  1 23  1  0  0  0  0
  2 17  2  0  0  0  0
  2  3  1  0  0  0  0
  3  4  2  0  0  0  0
  3 30  1  0  0  0  0
  4  5  1  0  0  0  0
  4 24  1  0  0  0  0
  5  6  1  0  0  0  0
  5 15  1  0  0  0  0
  6 18  1  0  0  0  0
  6 13  1  0  0  0  0
  6  7  1  0  0  0  0
  7  8  1  0  0  0  0
  8 19  1  0  0  0  0
  8  9  1  0  0  0  0
  8 11  1  0  0  0  0
  9 10  1  0  0  0  0
  9 25  1  0  0  0  0
  9 26  1  0  0  0  0
 10 27  1  0  0  0  0
 11 20  1  0  0  0  0
 11 12  1  0  0  0  0
 11 13  1  0  0  0  0
 12 28  1  0  0  0  0
 13 21  1  0  0  0  0
 13 14  1  0  0  0  0
 14 29  1  0  0  0  0
 15 16  2  0  0  0  0
 15 17  1  0  0  0  0
M  CHG  1   3   1
M  END
> <s_m_source_file>
AV-unprocessed.smi

> <i_m_source_file_index>
72

> <i_lp_mmshare_version>
43012

> <i_f3d_flags>
0

> <s_epik_input>
W05IMl1jMW5bY0hdbihjKD1PKW4xKVtDQEBIXTJPW0NASF0oW0NIMl1bT0hdKVtDQEBIXShbT0hdKVtDQEhdMltPSF0=

> <s_epik_cmdline>
J2VwaWtfcHl0aG9uJywgJy1waCcsICc3LjAnLCAnLXRuJywgJzgnLCAnLW1hJywgJzIwMCcsICctbWV0YWxfYmluZGluZycsICctaW1hZScsICc8aW5maWxlLm1hZT4nLCAnLW9tYWUnLCAnPG91dGZpbGUubWFlPic=

> <r_lp_tautomer_probability>
4.77166e-05

> <r_epik_Ionization_Penalty>
0.104979

> <r_epik_Ionization_Penalty_Charging>
0.0999619

> <r_epik_Ionization_Penalty_Neutral>
0.00501745

> <r_epik_State_Penalty>
2.51541

> <r_epik_Charging_Adjusted_Penalty>
2.61537

> <i_epik_Tot_Q>
1

> <i_epik_Tot_abs_Q>
1

> <r_epik_Metal_State_Penalty>
3.53763

> <b_epik_Metal_Only>
0

> <s_epik_Chemistry_Notes>
This compound contains an acetal/aminal-like group ( X-CH(R)-Y where X, Y are N, S, or O) that may be acid/base labile, releasing an aldehyde.

> <s_lp_Force_Field>
OPLS_2005

> <r_lp_Energy>
33.8759

> <b_lp_Chiralities_Consistent>
1

> <s_lp_Variant>
AV-unprocessed.smi:72-35

> <Gold.Version>
5.8.1

> <Gold.Id.Protein>
6NUR|6NUR_protein|mol2

> <Gold.PLP.Fitness>
42.7783

> <Gold.PLP.PLP>
-28.8564

> <Gold.PLP.part.hbond>
-7.3795

> <Gold.PLP.part.metal>
0.0000

> <Gold.PLP.part.buried>
-0.8691

> <Gold.PLP.part.nonpolar>
-19.6029

> <Gold.PLP.part.repulsive>
0.3577

> <Gold.PLP.ligand.clash>
0.0000

> <Gold.PLP.ligand.torsion>
0.5141

> <Gold.PLP.Chemscore.Hbond>
3.9725

> <Gold.PLP.Chemscore.CHOScore>
1.0000

> <Gold.PLP.Chemscore.Metal>
0.0000

> <Gold.Chemscore.Hbonds>
donor molecule, donor type, donor heavy atom, donor atom, acceptor molecule, acceptor atom, score
      L1  H    10    27       P1 10175  0.96
      L1  H    12    28       P1  7957  1.00
      L1  H    14    29       P1  7957  0.99
      P1  H  7997  8010       L1    16  0.26
      P1  H  8011  8017       L1     7  0.55
      L1  C     4    24       P1  8028  0.90

> <Gold.PLP.Chemscore.Internal.Correction>
0.0326

> <Gold.Rescore>
     Score         DG    S(hbond)    S(metal)    S(lipo)     H(rot)  DE(clash)    DE(int)     intcor
      6.51      -7.10       2.84        0.00      21.87       4.08       0.22       0.36       ----

> <Gold.Chemscore.Fitness>
6.5120

> <Gold.Chemscore.DG>
-7.0953

> <Gold.Chemscore.ZeroCoef>
-5.4800

> <Gold.Chemscore.Hbond>
2.8434

> <Gold.Chemscore.Metal>
0.0000

> <Gold.Chemscore.Lipo>
21.8706

> <Gold.Chemscore.Internal_Hbond>
0.0000

> <Gold.Chemscore.DEClash>
0.2234

> <Gold.Chemscore.DEInternal>
0.3598

> <Gold.Chemscore.Rot>
4.0783

> <Gold.Chemscore.Internal.Correction>
   9.000000E+99

> <Gold.Chemscore.Hbonds>
donor molecule, donor type, donor heavy atom, donor atom, acceptor molecule, acceptor atom, score
      L1  H    10    27       P1 10175  0.32
      L1  H    12    28       P1  7957  0.90
      L1  H    14    29       P1  7957  0.41
      P1  H  7997  8010       L1    16  0.01
      P1  H  8011  8017       L1     7  0.26

> <Gold.Chemscore.Hbond.Weighted>
-9.4968

> <Gold.Chemscore.Metal.Weighted>
-0.0000

> <Gold.Chemscore.Lipo.Weighted>
-2.5589

> <Gold.Chemscore.Internal_Hbond.Weighted>
0.0000

> <Gold.Chemscore.DEClash.Weighted>
0.2234

> <Gold.Chemscore.DEInternal.Weighted>
0.3598

> <Gold.Chemscore.Rot.Weighted>
10.4404

> <Gold.Chemscore.Internal.Correction.Weighted>
   9.000000E+99

> <Gold.Protein.RotatedTorsions>
[ 6907 6896 6895 6894 ] final  104.27 input  -60.11 | X-H torsion
[ 7974 7965 7964 7962 ] final   97.70 input  175.53 | X-H torsion
[ 8008 7997 7996 7995 ] final   95.91 input   59.86 | X-H torsion
[ 10167 10162 10161 10158 ] final  -32.55 input  -65.29 | X-H torsion
[ 10718 10713 10712 10709 ] final  156.60 input   66.30 | X-H torsion
[ 10763 10752 10751 10750 ] final  -93.83 input  -60.55 | X-H torsion
[ 11005 11000 10999 10996 ] final  100.36 input  -57.11 | X-H torsion

> <Gold.Protein.ActiveResidues>
 VAL166  LYS551  ARG553  GLY616  TRP617  ASP618  TYR619  PRO620  LYS621  CYS622 
 ASP623  PHE694  ASN695  SER759  ASP760  ASP761  ALA762  ILE779  LEU786  VAL792 
 PHE793  MET794  SER795  GLU796  ALA797  LYS798  CYS799  TRP800  GLU811  SER814 

> <Gold.Protein.RotatedAtoms>
  152.5269  133.9701  159.7757 H   0  0  0  0  0  0  0  0  0  0  0  0  # atno 6907 bound_to 6896
  150.9975  133.6081  159.2706 H   0  0  0  0  0  0  0  0  0  0  0  0  # atno 6908 bound_to 6896
  151.3202  135.0823  159.9356 H   0  0  0  0  0  0  0  0  0  0  0  0  # atno 6909 bound_to 6896
  145.4220  139.2320  143.3191 H   0  0  0  0  0  0  0  0  0  0  0  0  # atno 7974 bound_to 7965
  156.0740  140.3280  155.7610 H   0  0  0  0  0  0  0  0  0  0  0  0  # atno 8008 bound_to 7997
  155.5261  140.0589  157.2915 H   0  0  0  0  0  0  0  0  0  0  0  0  # atno 8009 bound_to 7997
  154.4545  140.1935  156.0437 H   0  0  0  0  0  0  0  0  0  0  0  0  # atno 8010 bound_to 7997
  140.7219  143.3686  151.1821 H   0  0  0  0  0  0  0  0  0  0  0  0  # atno 10167 bound_to 10162
  157.2027  131.0680  151.2016 H   0  0  0  0  0  0  0  0  0  0  0  0  # atno 10718 bound_to 10713
  154.6997  135.5180  153.8509 H   0  0  0  0  0  0  0  0  0  0  0  0  # atno 10763 bound_to 10752
  153.0694  135.6596  154.0290 H   0  0  0  0  0  0  0  0  0  0  0  0  # atno 10764 bound_to 10752
  154.0151  135.2998  155.3367 H   0  0  0  0  0  0  0  0  0  0  0  0  # atno 10765 bound_to 10752
  139.8771  134.9137  156.4745 H   0  0  0  0  0  0  0  0  0  0  0  0  # atno 11005 bound_to 11000
  146.2652  140.4946  142.8837 LP  0  0  0  0  0  0  0  0  0  0  0  0  # atno 17320 bound_to 7965
  144.8239  140.6596  143.6335 LP  0  0  0  0  0  0  0  0  0  0  0  0  # atno 17321 bound_to 7965
  139.7253  143.9158  152.3000 LP  0  0  0  0  0  0  0  0  0  0  0  0  # atno 17342 bound_to 10162
  139.8929  144.6955  150.8751 LP  0  0  0  0  0  0  0  0  0  0  0  0  # atno 17343 bound_to 10162
  157.3751  130.7201  149.6591 LP  0  0  0  0  0  0  0  0  0  0  0  0  # atno 17370 bound_to 10713
  155.9699  130.4188  150.4345 LP  0  0  0  0  0  0  0  0  0  0  0  0  # atno 17371 bound_to 10713
  140.8772  133.7944  155.9427 LP  0  0  0  0  0  0  0  0  0  0  0  0  # atno 17394 bound_to 11000
  140.8892  134.2516  157.5103 LP  0  0  0  0  0  0  0  0  0  0  0  0  # atno 17395 bound_to 11000

$$$$
