AV-unprocessed.smi:675|AV-procd|sdf|3306|dock4
  -GOLD-   22720 0263D 1   1.00000     0.00000
 Structure written by MMmdl.
 28 29  0  0  0  0  0  0  0  0  2 V2000
  149.1260  140.7483  153.2570 O   0  0  0  0  0  0  0  0  0  0  0  0
  149.5913  140.8303  154.3928 C   0  0  0  0  0  0  0  0  0  0  0  0
  150.8203  140.3359  154.7232 N   0  5  0  0  0  0  0  0  0  0  0  0
  151.3550  140.4172  155.9808 C   0  0  0  0  0  0  0  0  0  0  0  0
  152.4657  139.9614  156.2525 O   0  0  0  0  0  0  0  0  0  0  0  0
  150.6296  141.0258  156.9653 N   0  0  0  0  0  0  0  0  0  0  0  0
  151.1161  141.1510  158.3468 C   0  0  0  0  0  0  0  0  0  0  0  0
  152.1918  142.2502  158.4833 C   0  0  1  0  0  0  0  0  0  0  0  0
  151.7394  143.4151  157.8200 O   0  0  0  0  0  0  0  0  0  0  0  0
  152.5075  142.5196  159.9541 C   0  0  0  0  0  0  0  0  0  0  0  0
  153.2589  141.5798  160.6983 C   0  0  0  0  0  0  0  0  0  0  0  0
  153.5659  141.8146  162.0516 C   0  0  0  0  0  0  0  0  0  0  0  0
  153.1306  142.9970  162.6761 C   0  0  0  0  0  0  0  0  0  0  0  0
  152.3945  143.9455  161.9430 C   0  0  0  0  0  0  0  0  0  0  0  0
  152.0841  143.7162  160.5872 C   0  0  0  0  0  0  0  0  0  0  0  0
  151.1970  144.9302  159.7324 Cl  0  0  0  0  0  0  0  0  0  0  0  0
  149.3576  141.5505  156.6781 C   0  0  0  0  0  0  0  0  0  0  0  0
  148.8148  141.4786  155.4476 C   0  0  0  0  0  0  0  0  0  0  0  0
  147.2471  142.1300  155.1265 Cl  0  0  0  0  0  0  0  0  0  0  0  0
  150.3101  141.2967  159.0685 H   0  0  0  0  0  0  0  0  0  0  0  0
  151.5534  140.1888  158.6189 H   0  0  0  0  0  0  0  0  0  0  0  0
  153.1054  141.9472  157.9727 H   0  0  0  0  0  0  0  0  0  0  0  0
  152.4783  143.8285  157.4012 H   0  0  0  0  0  0  0  0  0  0  0  0
  153.6106  140.6701  160.2340 H   0  0  0  0  0  0  0  0  0  0  0  0
  154.1382  141.0880  162.6094 H   0  0  0  0  0  0  0  0  0  0  0  0
  153.3661  143.1792  163.7141 H   0  0  0  0  0  0  0  0  0  0  0  0
  152.0695  144.8566  162.4234 H   0  0  0  0  0  0  0  0  0  0  0  0
  148.8532  142.0077  157.5167 H   0  0  0  0  0  0  0  0  0  0  0  0
  1  2  2  0  0  0  0
  2 18  1  0  0  0  0
  2  3  1  0  0  0  0
  3  4  1  0  0  0  0
  4  5  2  0  0  0  0
  4  6  1  0  0  0  0
  6  7  1  0  0  0  0
  6 17  1  0  0  0  0
  7  8  1  0  0  0  0
  7 20  1  0  0  0  0
  7 21  1  0  0  0  0
  8  9  1  0  0  0  0
  8 10  1  0  0  0  0
  8 22  1  0  0  0  0
  9 23  1  0  0  0  0
 10 15  1  0  0  0  0
 10 11  2  0  0  0  0
 11 12  1  0  0  0  0
 11 24  1  0  0  0  0
 12 13  2  0  0  0  0
 12 25  1  0  0  0  0
 13 14  1  0  0  0  0
 13 26  1  0  0  0  0
 14 15  2  0  0  0  0
 14 27  1  0  0  0  0
 15 16  1  0  0  0  0
 17 18  2  0  0  0  0
 17 28  1  0  0  0  0
 18 19  1  0  0  0  0
M  CHG  1   3  -1
M  END
> <s_m_source_file>
AV-unprocessed.smi

> <i_m_source_file_index>
675

> <i_lp_mmshare_version>
43012

> <i_f3d_flags>
0

> <s_epik_input>
Tz1jMVtuSF1jKD1PKW4oW2NIXWMxQ2wpW0NIMl1bQ0BIXShbT0hdKWMyW2NIXVtjSF1bY0hdW2NIXWMyQ2w=

> <s_epik_cmdline>
J2VwaWtfcHl0aG9uJywgJy1waCcsICc3LjAnLCAnLXRuJywgJzgnLCAnLW1hJywgJzIwMCcsICctbWV0YWxfYmluZGluZycsICctaW1hZScsICc8aW5maWxlLm1hZT4nLCAnLW9tYWUnLCAnPG91dGZpbGUubWFlPic=

> <r_epik_Ionization_Penalty>
1.79791

> <r_epik_Ionization_Penalty_Charging>
3.23819e-08

> <r_epik_Ionization_Penalty_Neutral>
1.79791

> <r_epik_State_Penalty>
1.91135

> <r_epik_Charging_Adjusted_Penalty>
1.91135

> <i_epik_Tot_Q>
-1

> <i_epik_Tot_abs_Q>
1

> <r_epik_Metal_State_Penalty>
0.014155

> <b_epik_Metal_Only>
0

> <s_lp_Force_Field>
OPLS_2005

> <r_lp_Energy>
23.2972

> <b_lp_Chiralities_Consistent>
1

> <s_lp_Variant>
AV-unprocessed.smi:675-4

> <Gold.Version>
5.8.1

> <Gold.Id.Protein>
6NUR|6NUR_protein|mol2

> <Gold.PLP.Fitness>
50.8464

> <Gold.PLP.PLP>
-42.9994

> <Gold.PLP.part.hbond>
-3.5476

> <Gold.PLP.part.metal>
0.0000

> <Gold.PLP.part.buried>
-3.2014

> <Gold.PLP.part.nonpolar>
-39.3718

> <Gold.PLP.part.repulsive>
4.9579

> <Gold.PLP.ligand.clash>
0.0220

> <Gold.PLP.ligand.torsion>
0.5703

> <Gold.PLP.Chemscore.Hbond>
3.0000

> <Gold.PLP.Chemscore.CHOScore>
0.0000

> <Gold.PLP.Chemscore.Metal>
0.0000

> <Gold.Chemscore.Hbonds>
donor molecule, donor type, donor heavy atom, donor atom, acceptor molecule, acceptor atom, score
      P1  H  7989  7998       L1     3  0.95
      P1  H  7997  8010       L1     5  1.00
      P1  H  8011  8017       L1     1  1.00

> <Gold.PLP.Chemscore.Internal.Correction>
0.0097

> <Gold.Rescore>
     Score         DG    S(hbond)    S(metal)    S(lipo)     H(rot)  DE(clash)    DE(int)     intcor
     15.46     -19.52       2.09        0.00     106.83       2.13       1.66       2.39       ----

> <Gold.Chemscore.Fitness>
15.4616

> <Gold.Chemscore.DG>
-19.5162

> <Gold.Chemscore.ZeroCoef>
-5.4800

> <Gold.Chemscore.Hbond>
2.0911

> <Gold.Chemscore.Metal>
0.0000

> <Gold.Chemscore.Lipo>
106.8276

> <Gold.Chemscore.Internal_Hbond>
0.0000

> <Gold.Chemscore.DEClash>
1.6599

> <Gold.Chemscore.DEInternal>
2.3946

> <Gold.Chemscore.Rot>
2.1278

> <Gold.Chemscore.Internal.Correction>
   9.000000E+99

> <Gold.Chemscore.Hbonds>
donor molecule, donor type, donor heavy atom, donor atom, acceptor molecule, acceptor atom, score
      P1  H  7989  7998       L1     3  0.20
      P1  H  7997  8010       L1     5  1.00
      P1  H  8011  8017       L1     1  0.42

> <Gold.Chemscore.Hbond.Weighted>
-6.9844

> <Gold.Chemscore.Metal.Weighted>
-0.0000

> <Gold.Chemscore.Lipo.Weighted>
-12.4988

> <Gold.Chemscore.Internal_Hbond.Weighted>
0.0000

> <Gold.Chemscore.DEClash.Weighted>
1.6599

> <Gold.Chemscore.DEInternal.Weighted>
2.3946

> <Gold.Chemscore.Rot.Weighted>
5.4470

> <Gold.Chemscore.Internal.Correction.Weighted>
   9.000000E+99

> <Gold.Protein.RotatedTorsions>
[ 6907 6896 6895 6894 ] final -104.42 input  -60.11 | X-H torsion
[ 7974 7965 7964 7962 ] final  179.33 input  175.53 | X-H torsion
[ 8008 7997 7996 7995 ] final   83.35 input   59.86 | X-H torsion
[ 10167 10162 10161 10158 ] final  116.65 input  -65.29 | X-H torsion
[ 10718 10713 10712 10709 ] final  -76.13 input   66.30 | X-H torsion
[ 10763 10752 10751 10750 ] final   70.71 input  -60.55 | X-H torsion
[ 11005 11000 10999 10996 ] final   73.33 input  -57.11 | X-H torsion

> <Gold.Protein.ActiveResidues>
 VAL166  LYS551  ARG553  GLY616  TRP617  ASP618  TYR619  PRO620  LYS621  CYS622 
 ASP623  PHE694  ASN695  SER759  ASP760  ASP761  ALA762  ILE779  LEU786  VAL792 
 PHE793  MET794  SER795  GLU796  ALA797  LYS798  CYS799  TRP800  GLU811  SER814 

> <Gold.Protein.RotatedAtoms>
  150.7287  134.0280  159.3723 H   0  0  0  0  0  0  0  0  0  0  0  0  # atno 6907 bound_to 6896
  151.8248  135.0638  160.0439 H   0  0  0  0  0  0  0  0  0  0  0  0  # atno 6908 bound_to 6896
  152.2977  133.5588  159.5635 H   0  0  0  0  0  0  0  0  0  0  0  0  # atno 6909 bound_to 6896
  144.7147  140.0532  143.6434 H   0  0  0  0  0  0  0  0  0  0  0  0  # atno 7974 bound_to 7965
  155.9228  140.3420  155.6186 H   0  0  0  0  0  0  0  0  0  0  0  0  # atno 8008 bound_to 7997
  155.7253  140.0788  157.2331 H   0  0  0  0  0  0  0  0  0  0  0  0  # atno 8009 bound_to 7997
  154.4072  140.1598  156.2435 H   0  0  0  0  0  0  0  0  0  0  0  0  # atno 8010 bound_to 7997
  139.6232  144.7104  151.2588 H   0  0  0  0  0  0  0  0  0  0  0  0  # atno 10167 bound_to 10162
  156.0185  130.4458  150.3147 H   0  0  0  0  0  0  0  0  0  0  0  0  # atno 10718 bound_to 10713
  153.0357  135.5164  154.7483 H   0  0  0  0  0  0  0  0  0  0  0  0  # atno 10763 bound_to 10752
  154.6461  135.2919  155.0046 H   0  0  0  0  0  0  0  0  0  0  0  0  # atno 10764 bound_to 10752
  154.0947  135.6645  153.4911 H   0  0  0  0  0  0  0  0  0  0  0  0  # atno 10765 bound_to 10752
  139.9445  134.7338  156.1014 H   0  0  0  0  0  0  0  0  0  0  0  0  # atno 11005 bound_to 11000
  145.9927  139.3027  143.0975 LP  0  0  0  0  0  0  0  0  0  0  0  0  # atno 17320 bound_to 7965
  145.8884  140.9319  143.0564 LP  0  0  0  0  0  0  0  0  0  0  0  0  # atno 17321 bound_to 7965
  140.7395  143.6616  150.8159 LP  0  0  0  0  0  0  0  0  0  0  0  0  # atno 17342 bound_to 10162
  140.0230  143.5523  152.2792 LP  0  0  0  0  0  0  0  0  0  0  0  0  # atno 17343 bound_to 10162
  157.1248  131.0256  151.2994 LP  0  0  0  0  0  0  0  0  0  0  0  0  # atno 17370 bound_to 10713
  157.4598  130.7647  149.7226 LP  0  0  0  0  0  0  0  0  0  0  0  0  # atno 17371 bound_to 10713
  141.1091  133.6649  156.2935 LP  0  0  0  0  0  0  0  0  0  0  0  0  # atno 17394 bound_to 11000
  140.5868  134.5690  157.5491 LP  0  0  0  0  0  0  0  0  0  0  0  0  # atno 17395 bound_to 11000

$$$$
