AV-unprocessed.smi:170|AV-procd|sdf|1411|dock5
  -GOLD-   2262019173D 1   1.00000     0.00000
 Structure written by MMmdl.
 57 61  0  0  0  0  0  0  0  0  1 V2000
  151.4984  141.3499  157.9100 O   0  0  0  0  0  0  0  0  0  0  0  0
  151.5318  141.3839  159.3246 C   0  0  1  0  0  0  0  0  0  0  0  0
  152.4492  140.2559  159.8358 C   0  0  0  0  0  0  0  0  0  0  0  0
  151.8997  138.9358  159.5839 N   0  0  0  0  0  0  0  0  0  0  0  0
  152.4262  137.7295  159.9884 C   0  0  0  0  0  0  0  0  0  0  0  0
  151.7364  136.6766  159.6417 N   0  0  0  0  0  0  0  0  0  0  0  0
  150.6551  137.2003  158.9451 C   0  0  0  0  0  0  0  0  0  0  0  0
  149.5238  136.6293  158.3076 C   0  0  0  0  0  0  0  0  0  0  0  0
  149.3063  135.2947  158.3065 N   0  0  0  0  0  0  0  0  0  0  0  0
  149.4623  134.7250  156.9722 C   0  0  0  0  0  0  0  0  0  0  0  0
  149.3760  133.1948  157.0366 C   0  0  0  0  0  0  0  0  0  0  0  0
  148.1326  132.8314  157.6207 O   0  0  0  0  0  0  0  0  0  0  0  0
  148.0119  133.3097  158.9559 C   0  0  0  0  0  0  0  0  0  0  0  0
  148.0850  134.8555  158.9936 C   0  0  1  0  0  0  0  0  0  0  0  0
  147.9990  135.3942  160.4471 C   0  0  0  0  0  0  0  0  0  0  0  0
  146.7185  135.0134  161.1874 C   0  0  0  0  0  0  0  0  0  0  0  0
  146.5952  135.2825  162.6948 C   0  0  0  0  0  0  0  0  0  0  0  0
  145.7814  133.9911  162.8121 C   0  0  0  0  0  0  0  0  0  0  0  0
  146.4371  133.5372  161.5052 C   0  0  0  0  0  0  0  0  0  0  0  0
  148.6343  137.4682  157.7130 N   0  0  0  0  0  0  0  0  0  0  0  0
  148.8441  138.7882  157.7409 C   0  0  0  0  0  0  0  0  0  0  0  0
  149.8514  139.4629  158.3007 N   0  0  0  0  0  0  0  0  0  0  0  0
  150.7412  138.6189  158.8983 C   0  0  0  0  0  0  0  0  0  0  0  0
  152.0100  142.7752  159.7795 C   0  0  1  0  0  0  0  0  0  0  0  0
  151.4197  143.9389  158.9835 C   0  0  0  0  0  0  0  0  0  0  0  0
  151.6068  145.0908  159.9445 C   0  0  0  0  0  0  0  0  0  0  0  0
  151.3503  144.4305  161.2977 C   0  0  0  0  0  0  0  0  0  0  0  0
  151.5902  143.0366  161.1156 O   0  0  0  0  0  0  0  0  0  0  0  0
  150.6870  140.9492  157.6383 H   0  0  0  0  0  0  0  0  0  0  0  0
  150.5174  141.2161  159.6891 H   0  0  0  0  0  0  0  0  0  0  0  0
  153.4328  140.3204  159.3689 H   0  0  0  0  0  0  0  0  0  0  0  0
  152.6085  140.3539  160.9101 H   0  0  0  0  0  0  0  0  0  0  0  0
  153.3445  137.6544  160.5525 H   0  0  0  0  0  0  0  0  0  0  0  0
  148.6844  135.1089  156.3100 H   0  0  0  0  0  0  0  0  0  0  0  0
  150.4231  135.0243  156.5509 H   0  0  0  0  0  0  0  0  0  0  0  0
  149.4365  132.7705  156.0344 H   0  0  0  0  0  0  0  0  0  0  0  0
  150.2034  132.7782  157.6134 H   0  0  0  0  0  0  0  0  0  0  0  0
  147.0567  132.9572  159.3436 H   0  0  0  0  0  0  0  0  0  0  0  0
  148.7911  132.8673  159.5789 H   0  0  0  0  0  0  0  0  0  0  0  0
  147.2341  135.2441  158.4319 H   0  0  0  0  0  0  0  0  0  0  0  0
  148.8635  135.0432  161.0120 H   0  0  0  0  0  0  0  0  0  0  0  0
  148.0762  136.4818  160.4430 H   0  0  0  0  0  0  0  0  0  0  0  0
  145.8398  135.4233  160.6856 H   0  0  0  0  0  0  0  0  0  0  0  0
  147.5529  135.2249  163.2153 H   0  0  0  0  0  0  0  0  0  0  0  0
  146.0521  136.1923  162.9522 H   0  0  0  0  0  0  0  0  0  0  0  0
  146.0206  133.3772  163.6807 H   0  0  0  0  0  0  0  0  0  0  0  0
  144.7073  134.1559  162.7127 H   0  0  0  0  0  0  0  0  0  0  0  0
  145.7650  133.0396  160.8055 H   0  0  0  0  0  0  0  0  0  0  0  0
  147.3457  132.9559  161.6718 H   0  0  0  0  0  0  0  0  0  0  0  0
  148.0964  139.3904  157.2462 H   0  0  0  0  0  0  0  0  0  0  0  0
  153.0996  142.8328  159.7511 H   0  0  0  0  0  0  0  0  0  0  0  0
  151.9169  144.0975  158.0262 H   0  0  0  0  0  0  0  0  0  0  0  0
  150.3571  143.7781  158.7957 H   0  0  0  0  0  0  0  0  0  0  0  0
  152.6344  145.4537  159.8934 H   0  0  0  0  0  0  0  0  0  0  0  0
  150.9391  145.9292  159.7449 H   0  0  0  0  0  0  0  0  0  0  0  0
  151.9915  144.8407  162.0784 H   0  0  0  0  0  0  0  0  0  0  0  0
  150.3130  144.5668  161.6055 H   0  0  0  0  0  0  0  0  0  0  0  0
  1  2  1  0  0  0  0
  1 29  1  0  0  0  0
  2  3  1  0  0  0  0
  2 24  1  0  0  0  0
  2 30  1  0  0  0  0
  3  4  1  0  0  0  0
  3 31  1  0  0  0  0
  3 32  1  0  0  0  0
  4 23  1  0  0  0  0
  4  5  1  0  0  0  0
  5  6  2  0  0  0  0
  5 33  1  0  0  0  0
  6  7  1  0  0  0  0
  7 23  2  0  0  0  0
  7  8  1  0  0  0  0
  8  9  1  0  0  0  0
  8 20  2  0  0  0  0
  9 14  1  0  0  0  0
  9 10  1  0  0  0  0
 10 11  1  0  0  0  0
 10 34  1  0  0  0  0
 10 35  1  0  0  0  0
 11 12  1  0  0  0  0
 11 36  1  0  0  0  0
 11 37  1  0  0  0  0
 12 13  1  0  0  0  0
 13 14  1  0  0  0  0
 13 38  1  0  0  0  0
 13 39  1  0  0  0  0
 14 15  1  0  0  0  0
 14 40  1  0  0  0  0
 15 16  1  0  0  0  0
 15 41  1  0  0  0  0
 15 42  1  0  0  0  0
 16 19  1  0  0  0  0
 16 17  1  0  0  0  0
 16 43  1  0  0  0  0
 17 18  1  0  0  0  0
 17 44  1  0  0  0  0
 17 45  1  0  0  0  0
 18 19  1  0  0  0  0
 18 46  1  0  0  0  0
 18 47  1  0  0  0  0
 19 48  1  0  0  0  0
 19 49  1  0  0  0  0
 20 21  1  0  0  0  0
 21 22  2  0  0  0  0
 21 50  1  0  0  0  0
 22 23  1  0  0  0  0
 24 28  1  0  0  0  0
 24 25  1  0  0  0  0
 24 51  1  0  0  0  0
 25 26  1  0  0  0  0
 25 52  1  0  0  0  0
 25 53  1  0  0  0  0
 26 27  1  0  0  0  0
 26 54  1  0  0  0  0
 26 55  1  0  0  0  0
 27 28  1  0  0  0  0
 27 56  1  0  0  0  0
 27 57  1  0  0  0  0
M  END
> <s_m_source_file>
AV-unprocessed.smi

> <i_m_source_file_index>
170

> <i_lp_mmshare_version>
43012

> <i_f3d_flags>
0

> <s_epik_input>
TzFbQ0gyXVtDSDJdW0NIMl1bQ0BIXTFbQ0BIXShbT0hdKVtDSDJdbihbY0hdbjIpYyhjMjMpbltjSF1uYzNONFtDSDJdW0NIMl1PW0NIMl1bQ0BIXTRbQ0gyXVtDSF01W0NIMl1bQ0gyXVtDSDJdNQ==

> <s_epik_cmdline>
J2VwaWtfcHl0aG9uJywgJy1waCcsICc3LjAnLCAnLXRuJywgJzgnLCAnLW1hJywgJzIwMCcsICctbWV0YWxfYmluZGluZycsICctaW1hZScsICc8aW5maWxlLm1hZT4nLCAnLW9tYWUnLCAnPG91dGZpbGUubWFlPic=

> <r_lp_tautomer_probability>
1

> <r_epik_Ionization_Penalty>
4.98275e-05

> <r_epik_Ionization_Penalty_Charging>
0

> <r_epik_Ionization_Penalty_Neutral>
4.98275e-05

> <r_epik_State_Penalty>
-0

> <r_epik_Charging_Adjusted_Penalty>
0

> <i_epik_Tot_Q>
0

> <i_epik_Tot_abs_Q>
0

> <r_epik_Metal_State_Penalty>
-0

> <b_epik_Metal_Only>
0

> <s_lp_Force_Field>
OPLS_2005

> <r_lp_Energy>
51.0174

> <b_lp_Chiralities_Consistent>
1

> <s_lp_Variant>
AV-unprocessed.smi:170-6

> <Gold.Version>
5.8.1

> <Gold.Id.Protein>
6NUR|6NUR_protein|mol2

> <Gold.PLP.Fitness>
50.1264

> <Gold.PLP.PLP>
-47.6382

> <Gold.PLP.part.hbond>
-2.0000

> <Gold.PLP.part.metal>
0.0000

> <Gold.PLP.part.buried>
-5.1456

> <Gold.PLP.part.nonpolar>
-41.7019

> <Gold.PLP.part.repulsive>
0.0631

> <Gold.PLP.ligand.clash>
0.0027

> <Gold.PLP.ligand.torsion>
0.5444

> <Gold.PLP.Chemscore.Hbond>
1.0809

> <Gold.PLP.Chemscore.CHOScore>
0.0000

> <Gold.PLP.Chemscore.Metal>
0.0000

> <Gold.Chemscore.Hbonds>
donor molecule, donor type, donor heavy atom, donor atom, acceptor molecule, acceptor atom, score
      P1  H  6896  6907       L1     9  0.32
      P1  H  6896  6908       L1     6  1.00
      P1  H  6933  6945       L1    28  0.14

> <Gold.PLP.Chemscore.Internal.Correction>
0.3372

> <Gold.Rescore>
     Score         DG    S(hbond)    S(metal)    S(lipo)     H(rot)  DE(clash)    DE(int)     intcor
     11.44     -16.06       0.87        0.00     122.92       2.61       1.17       3.46       ----

> <Gold.Chemscore.Fitness>
11.4366

> <Gold.Chemscore.DG>
-16.0628

> <Gold.Chemscore.ZeroCoef>
-5.4800

> <Gold.Chemscore.Hbond>
0.8667

> <Gold.Chemscore.Metal>
0.0000

> <Gold.Chemscore.Lipo>
122.9155

> <Gold.Chemscore.Internal_Hbond>
0.0000

> <Gold.Chemscore.DEClash>
1.1708

> <Gold.Chemscore.DEInternal>
3.4554

> <Gold.Chemscore.Rot>
2.6144

> <Gold.Chemscore.Internal.Correction>
   9.000000E+99

> <Gold.Chemscore.Hbonds>
donor molecule, donor type, donor heavy atom, donor atom, acceptor molecule, acceptor atom, score
      P1  H  6896  6907       L1     9  0.01
      P1  H  6896  6908       L1     6  0.93
      P1  H  6933  6945       L1    28  0.10

> <Gold.Chemscore.Hbond.Weighted>
-2.8946

> <Gold.Chemscore.Metal.Weighted>
-0.0000

> <Gold.Chemscore.Lipo.Weighted>
-14.3811

> <Gold.Chemscore.Internal_Hbond.Weighted>
0.0000

> <Gold.Chemscore.DEClash.Weighted>
1.1708

> <Gold.Chemscore.DEInternal.Weighted>
3.4554

> <Gold.Chemscore.Rot.Weighted>
6.6929

> <Gold.Chemscore.Internal.Correction.Weighted>
   9.000000E+99

> <Gold.Protein.RotatedTorsions>
[ 6907 6896 6895 6894 ] final -110.88 input  -60.11 | X-H torsion
[ 7974 7965 7964 7962 ] final  -64.43 input  175.53 | X-H torsion
[ 8008 7997 7996 7995 ] final -158.36 input   59.86 | X-H torsion
[ 10167 10162 10161 10158 ] final  -24.53 input  -65.29 | X-H torsion
[ 10718 10713 10712 10709 ] final  110.34 input   66.30 | X-H torsion
[ 10763 10752 10751 10750 ] final  -67.86 input  -60.55 | X-H torsion
[ 11005 11000 10999 10996 ] final -129.84 input  -57.11 | X-H torsion

> <Gold.Protein.ActiveResidues>
 VAL166  LYS551  ARG553  GLY616  TRP617  ASP618  TYR619  PRO620  LYS621  CYS622 
 ASP623  PHE694  ASN695  SER759  ASP760  ASP761  ALA762  ILE779  LEU786  VAL792 
 PHE793  MET794  SER795  GLU796  ALA797  LYS798  CYS799  TRP800  GLU811  SER814 

> <Gold.Protein.RotatedAtoms>
  150.7653  133.9317  159.3428 H   0  0  0  0  0  0  0  0  0  0  0  0  # atno 6907 bound_to 6896
  151.7216  135.0891  160.0294 H   0  0  0  0  0  0  0  0  0  0  0  0  # atno 6908 bound_to 6896
  152.3646  133.6302  159.6076 H   0  0  0  0  0  0  0  0  0  0  0  0  # atno 6909 bound_to 6896
  145.7668  140.8833  143.0401 H   0  0  0  0  0  0  0  0  0  0  0  0  # atno 7974 bound_to 7965
  155.7464  140.0821  157.2222 H   0  0  0  0  0  0  0  0  0  0  0  0  # atno 8008 bound_to 7997
  154.4016  140.1568  156.2730 H   0  0  0  0  0  0  0  0  0  0  0  0  # atno 8009 bound_to 7997
  155.8972  140.3412  155.6002 H   0  0  0  0  0  0  0  0  0  0  0  0  # atno 8010 bound_to 7997
  140.7288  143.4345  151.0751 H   0  0  0  0  0  0  0  0  0  0  0  0  # atno 10167 bound_to 10162
  157.6499  131.0931  150.6587 H   0  0  0  0  0  0  0  0  0  0  0  0  # atno 10718 bound_to 10713
  154.3806  135.6075  153.5789 H   0  0  0  0  0  0  0  0  0  0  0  0  # atno 10763 bound_to 10752
  152.9788  135.5860  154.4414 H   0  0  0  0  0  0  0  0  0  0  0  0  # atno 10764 bound_to 10752
  154.4183  135.2845  155.1970 H   0  0  0  0  0  0  0  0  0  0  0  0  # atno 10765 bound_to 10752
  140.9397  134.1209  157.4161 H   0  0  0  0  0  0  0  0  0  0  0  0  # atno 11005 bound_to 11000
  144.6820  139.9800  143.7483 LP  0  0  0  0  0  0  0  0  0  0  0  0  # atno 17320 bound_to 7965
  146.0209  139.3250  143.0813 LP  0  0  0  0  0  0  0  0  0  0  0  0  # atno 17321 bound_to 7965
  139.8006  143.8090  152.3162 LP  0  0  0  0  0  0  0  0  0  0  0  0  # atno 17342 bound_to 10162
  139.8105  144.7338  150.9704 LP  0  0  0  0  0  0  0  0  0  0  0  0  # atno 17343 bound_to 10162
  156.6899  130.4592  149.5603 LP  0  0  0  0  0  0  0  0  0  0  0  0  # atno 17370 bound_to 10713
  156.1869  130.6535  151.1016 LP  0  0  0  0  0  0  0  0  0  0  0  0  # atno 17371 bound_to 10713
  139.8817  135.0032  156.6176 LP  0  0  0  0  0  0  0  0  0  0  0  0  # atno 17394 bound_to 11000
  140.7750  133.8707  155.8522 LP  0  0  0  0  0  0  0  0  0  0  0  0  # atno 17395 bound_to 11000

$$$$
