AV-unprocessed.smi:768|AV-procd|sdf|3673|dock9
  -GOLD-   22720 1 83D 1   1.00000     0.00000
 Structure written by MMmdl.
 48 49  0  0  0  0  0  0  0  0  1 V2000
  143.5845  136.6933  162.4203 C   0  0  0  0  0  0  0  0  0  0  0  0
  144.8256  135.8222  162.3376 C   0  0  0  0  0  0  0  0  0  0  0  0
  144.7674  134.4906  162.5567 C   0  0  0  0  0  0  0  0  0  0  0  0
  145.9498  133.6682  162.4716 C   0  0  0  0  0  0  0  0  0  0  0  0
  147.1135  134.2613  162.1701 C   0  0  0  0  0  0  0  0  0  0  0  0
  147.2022  135.6466  161.9391 N   0  0  0  0  0  0  0  0  0  0  0  0
  148.5356  136.1842  161.6087 C   0  0  0  0  0  0  0  0  0  0  0  0
  148.7409  136.5396  160.1255 C   0  0  0  0  0  0  0  0  0  0  0  0
  147.7737  136.5101  159.3660 O   0  0  0  0  0  0  0  0  0  0  0  0
  149.9822  136.8532  159.7181 N   0  0  0  0  0  0  0  0  0  0  0  0
  150.3958  137.1090  158.3429 C   0  0  0  0  0  0  0  0  0  0  0  0
  150.0615  138.5530  157.9353 C   0  0  0  0  0  0  0  0  0  0  0  0
  151.0468  139.5902  158.4945 C   0  0  0  0  0  0  0  0  0  0  0  0
  150.7836  140.8469  157.8887 O   0  0  0  0  0  0  0  0  0  0  0  0
  151.7567  141.8469  158.1646 C   0  0  0  0  0  0  0  0  0  0  0  0
  152.0086  141.9688  159.6829 C   0  0  0  0  0  0  0  0  0  0  0  0
  152.9524  143.1384  160.0053 C   0  0  0  0  0  0  0  0  0  0  0  0
  152.4233  144.4602  159.4273 C   0  0  0  0  0  0  0  0  0  0  0  0
  152.1720  144.3433  157.9157 C   0  0  0  0  0  0  0  0  0  0  0  0
  151.2236  143.1755  157.5995 C   0  0  0  0  0  0  0  0  0  0  0  0
  146.1085  136.4689  162.0041 C   0  0  0  0  0  0  0  0  0  0  0  0
  146.2003  137.6787  161.7884 O   0  0  0  0  0  0  0  0  0  0  0  0
  142.7102  136.1136  162.7175 H   0  0  0  0  0  0  0  0  0  0  0  0
  143.3731  137.1462  161.4520 H   0  0  0  0  0  0  0  0  0  0  0  0
  143.7232  137.4909  163.1510 H   0  0  0  0  0  0  0  0  0  0  0  0
  143.8229  134.0256  162.7983 H   0  0  0  0  0  0  0  0  0  0  0  0
  145.8977  132.6032  162.6429 H   0  0  0  0  0  0  0  0  0  0  0  0
  148.0429  133.7177  162.0807 H   0  0  0  0  0  0  0  0  0  0  0  0
  148.7399  137.0721  162.2101 H   0  0  0  0  0  0  0  0  0  0  0  0
  149.3114  135.4716  161.8916 H   0  0  0  0  0  0  0  0  0  0  0  0
  150.7128  136.8636  160.4151 H   0  0  0  0  0  0  0  0  0  0  0  0
  151.4622  136.9272  158.2015 H   0  0  0  0  0  0  0  0  0  0  0  0
  149.8709  136.4101  157.6915 H   0  0  0  0  0  0  0  0  0  0  0  0
  150.0478  138.6224  156.8470 H   0  0  0  0  0  0  0  0  0  0  0  0
  149.0522  138.7982  158.2682 H   0  0  0  0  0  0  0  0  0  0  0  0
  150.9383  139.6615  159.5760 H   0  0  0  0  0  0  0  0  0  0  0  0
  152.0725  139.2819  158.2871 H   0  0  0  0  0  0  0  0  0  0  0  0
  152.6909  141.6075  157.6527 H   0  0  0  0  0  0  0  0  0  0  0  0
  151.0591  142.1153  160.1994 H   0  0  0  0  0  0  0  0  0  0  0  0
  152.4383  141.0499  160.0796 H   0  0  0  0  0  0  0  0  0  0  0  0
  153.0762  143.2276  161.0850 H   0  0  0  0  0  0  0  0  0  0  0  0
  153.9421  142.9307  159.5966 H   0  0  0  0  0  0  0  0  0  0  0  0
  151.4957  144.7345  159.9317 H   0  0  0  0  0  0  0  0  0  0  0  0
  153.1327  145.2639  159.6262 H   0  0  0  0  0  0  0  0  0  0  0  0
  151.7532  145.2754  157.5352 H   0  0  0  0  0  0  0  0  0  0  0  0
  153.1202  144.1955  157.3970 H   0  0  0  0  0  0  0  0  0  0  0  0
  151.0876  143.0921  156.5209 H   0  0  0  0  0  0  0  0  0  0  0  0
  150.2386  143.3844  158.0194 H   0  0  0  0  0  0  0  0  0  0  0  0
  1  2  1  0  0  0  0
  1 23  1  0  0  0  0
  1 24  1  0  0  0  0
  1 25  1  0  0  0  0
  2 21  1  0  0  0  0
  2  3  2  0  0  0  0
  3  4  1  0  0  0  0
  3 26  1  0  0  0  0
  4  5  2  0  0  0  0
  4 27  1  0  0  0  0
  5  6  1  0  0  0  0
  5 28  1  0  0  0  0
  6  7  1  0  0  0  0
  6 21  1  0  0  0  0
  7  8  1  0  0  0  0
  7 29  1  0  0  0  0
  7 30  1  0  0  0  0
  8  9  2  0  0  0  0
  8 10  1  0  0  0  0
 10 11  1  0  0  0  0
 10 31  1  0  0  0  0
 11 12  1  0  0  0  0
 11 32  1  0  0  0  0
 11 33  1  0  0  0  0
 12 13  1  0  0  0  0
 12 34  1  0  0  0  0
 12 35  1  0  0  0  0
 13 14  1  0  0  0  0
 13 36  1  0  0  0  0
 13 37  1  0  0  0  0
 14 15  1  0  0  0  0
 15 20  1  0  0  0  0
 15 16  1  0  0  0  0
 15 38  1  0  0  0  0
 16 17  1  0  0  0  0
 16 39  1  0  0  0  0
 16 40  1  0  0  0  0
 17 18  1  0  0  0  0
 17 41  1  0  0  0  0
 17 42  1  0  0  0  0
 18 19  1  0  0  0  0
 18 43  1  0  0  0  0
 18 44  1  0  0  0  0
 19 20  1  0  0  0  0
 19 45  1  0  0  0  0
 19 46  1  0  0  0  0
 20 47  1  0  0  0  0
 20 48  1  0  0  0  0
 21 22  2  0  0  0  0
M  END
> <s_m_source_file>
AV-unprocessed.smi

> <i_m_source_file_index>
768

> <i_lp_mmshare_version>
43012

> <i_f3d_flags>
0

> <s_epik_input>
W0NIM11jMVtjSF1bY0hdW2NIXW4oYzE9TylbQ0gyXUMoPU8pW05IXVtDSDJdW0NIMl1bQ0gyXU9bQ0hdMltDSDJdW0NIMl1bQ0gyXVtDSDJdW0NIMl0y

> <s_epik_cmdline>
J2VwaWtfcHl0aG9uJywgJy1waCcsICc3LjAnLCAnLXRuJywgJzgnLCAnLW1hJywgJzIwMCcsICctbWV0YWxfYmluZGluZycsICctaW1hZScsICc8aW5maWxlLm1hZT4nLCAnLW9tYWUnLCAnPG91dGZpbGUubWFlPic=

> <r_lp_tautomer_probability>
1

> <r_epik_Ionization_Penalty>
7.81262e-07

> <r_epik_Ionization_Penalty_Charging>
7.6198e-07

> <r_epik_Ionization_Penalty_Neutral>
1.92812e-08

> <r_epik_State_Penalty>
-0

> <r_epik_Charging_Adjusted_Penalty>
7.6198e-07

> <i_epik_Tot_Q>
0

> <i_epik_Tot_abs_Q>
0

> <r_epik_Metal_State_Penalty>
-0

> <b_epik_Metal_Only>
0

> <s_lp_Force_Field>
OPLS_2005

> <r_lp_Energy>
20.2971

> <b_lp_Chiralities_Consistent>
1

> <s_lp_Variant>
AV-unprocessed.smi:768-1

> <Gold.Version>
5.8.1

> <Gold.Id.Protein>
6NUR|6NUR_protein|mol2

> <Gold.PLP.Fitness>
49.0051

> <Gold.PLP.PLP>
-47.8071

> <Gold.PLP.part.hbond>
-1.0000

> <Gold.PLP.part.metal>
0.0000

> <Gold.PLP.part.buried>
-6.1601

> <Gold.PLP.part.nonpolar>
-40.3258

> <Gold.PLP.part.repulsive>
0.2427

> <Gold.PLP.ligand.clash>
0.0000

> <Gold.PLP.ligand.torsion>
0.5701

> <Gold.PLP.Chemscore.Hbond>
0.7520

> <Gold.PLP.Chemscore.CHOScore>
0.0000

> <Gold.PLP.Chemscore.Metal>
0.0000

> <Gold.Chemscore.Hbonds>
donor molecule, donor type, donor heavy atom, donor atom, acceptor molecule, acceptor atom, score
      P1  H  6934  6947       L1    22  0.85

> <Gold.PLP.Chemscore.Internal.Correction>
0.0823

> <Gold.Rescore>
     Score         DG    S(hbond)    S(metal)    S(lipo)     H(rot)  DE(clash)    DE(int)     intcor
     16.40     -17.19       0.89        0.00     117.67       1.97       0.15       0.63       ----

> <Gold.Chemscore.Fitness>
16.4034

> <Gold.Chemscore.DG>
-17.1886

> <Gold.Chemscore.ZeroCoef>
-5.4800

> <Gold.Chemscore.Hbond>
0.8913

> <Gold.Chemscore.Metal>
0.0000

> <Gold.Chemscore.Lipo>
117.6713

> <Gold.Chemscore.Internal_Hbond>
0.0000

> <Gold.Chemscore.DEClash>
0.1521

> <Gold.Chemscore.DEInternal>
0.6331

> <Gold.Chemscore.Rot>
1.9671

> <Gold.Chemscore.Internal.Correction>
   9.000000E+99

> <Gold.Chemscore.Hbonds>
donor molecule, donor type, donor heavy atom, donor atom, acceptor molecule, acceptor atom, score
      P1  H  6934  6947       L1    22  0.85

> <Gold.Chemscore.Hbond.Weighted>
-2.9769

> <Gold.Chemscore.Metal.Weighted>
-0.0000

> <Gold.Chemscore.Lipo.Weighted>
-13.7675

> <Gold.Chemscore.Internal_Hbond.Weighted>
0.0000

> <Gold.Chemscore.DEClash.Weighted>
0.1521

> <Gold.Chemscore.DEInternal.Weighted>
0.6331

> <Gold.Chemscore.Rot.Weighted>
5.0359

> <Gold.Chemscore.Internal.Correction.Weighted>
   9.000000E+99

> <Gold.Protein.RotatedTorsions>
[ 6907 6896 6895 6894 ] final   41.08 input  -60.11 | X-H torsion
[ 7974 7965 7964 7962 ] final  129.14 input  175.53 | X-H torsion
[ 8008 7997 7996 7995 ] final  -88.47 input   59.86 | X-H torsion
[ 10167 10162 10161 10158 ] final -177.62 input  -65.29 | X-H torsion
[ 10718 10713 10712 10709 ] final   95.03 input   66.30 | X-H torsion
[ 10763 10752 10751 10750 ] final -141.29 input  -60.55 | X-H torsion
[ 11005 11000 10999 10996 ] final -128.90 input  -57.11 | X-H torsion

> <Gold.Protein.ActiveResidues>
 VAL166  LYS551  ARG553  GLY616  TRP617  ASP618  TYR619  PRO620  LYS621  CYS622 
 ASP623  PHE694  ASN695  SER759  ASP760  ASP761  ALA762  ILE779  LEU786  VAL792 
 PHE793  MET794  SER795  GLU796  ALA797  LYS798  CYS799  TRP800  GLU811  SER814 

> <Gold.Protein.RotatedAtoms>
  152.1908  134.8674  160.0517 H   0  0  0  0  0  0  0  0  0  0  0  0  # atno 6907 bound_to 6896
  151.9563  133.3676  159.4027 H   0  0  0  0  0  0  0  0  0  0  0  0  # atno 6908 bound_to 6896
  150.6935  134.4211  159.5249 H   0  0  0  0  0  0  0  0  0  0  0  0  # atno 6909 bound_to 6896
  145.0319  139.4039  143.5145 H   0  0  0  0  0  0  0  0  0  0  0  0  # atno 7974 bound_to 7965
  154.6752  140.0553  157.0208 H   0  0  0  0  0  0  0  0  0  0  0  0  # atno 8008 bound_to 7997
  155.1031  140.3231  155.4523 H   0  0  0  0  0  0  0  0  0  0  0  0  # atno 8009 bound_to 7997
  156.2673  140.2027  156.6156 H   0  0  0  0  0  0  0  0  0  0  0  0  # atno 8010 bound_to 7997
  139.5471  144.2206  152.1008 H   0  0  0  0  0  0  0  0  0  0  0  0  # atno 10167 bound_to 10162
  157.6942  131.0532  150.4277 H   0  0  0  0  0  0  0  0  0  0  0  0  # atno 10718 bound_to 10713
  154.8550  135.3529  154.5843 H   0  0  0  0  0  0  0  0  0  0  0  0  # atno 10763 bound_to 10752
  153.6454  135.6996  153.5232 H   0  0  0  0  0  0  0  0  0  0  0  0  # atno 10764 bound_to 10752
  153.2937  135.4227  155.1149 H   0  0  0  0  0  0  0  0  0  0  0  0  # atno 10765 bound_to 10752
  140.9477  134.1108  157.4092 H   0  0  0  0  0  0  0  0  0  0  0  0  # atno 11005 bound_to 11000
  146.3499  139.9873  142.8689 LP  0  0  0  0  0  0  0  0  0  0  0  0  # atno 17320 bound_to 7965
  145.1760  140.9744  143.4294 LP  0  0  0  0  0  0  0  0  0  0  0  0  # atno 17321 bound_to 7965
  140.1695  144.4949  150.6587 LP  0  0  0  0  0  0  0  0  0  0  0  0  # atno 17342 bound_to 10162
  140.6723  143.2290  151.5595 LP  0  0  0  0  0  0  0  0  0  0  0  0  # atno 17343 bound_to 10162
  156.4646  130.4039  149.6555 LP  0  0  0  0  0  0  0  0  0  0  0  0  # atno 17370 bound_to 10713
  156.3657  130.7505  151.2482 LP  0  0  0  0  0  0  0  0  0  0  0  0  # atno 17371 bound_to 10713
  139.8838  135.0056  156.6326 LP  0  0  0  0  0  0  0  0  0  0  0  0  # atno 17394 bound_to 11000
  140.7646  133.8789  155.8445 LP  0  0  0  0  0  0  0  0  0  0  0  0  # atno 17395 bound_to 11000

$$$$
