AV-unprocessed.smi:3232|AV-procd|sdf|12339|dock9
  -GOLD-   2272018203D 1   1.00000     0.00000
 Structure written by MMmdl.
 40 41  0  0  0  0  0  0  0  0  2 V2000
  146.7148  138.8294  151.5744 C   0  0  0  0  0  0  0  0  0  0  0  0
  146.5239  138.1941  152.9581 C   0  0  0  0  0  0  0  0  0  0  0  0
  146.4582  136.7142  152.8911 N   0  3  2  0  0  0  0  0  0  0  0  0
  145.3936  136.1807  152.0158 C   0  0  0  0  0  0  0  0  0  0  0  0
  145.1453  134.7652  152.5190 C   0  0  0  0  0  0  0  0  0  0  0  0
  145.3112  134.9072  154.0278 C   0  0  0  0  0  0  0  0  0  0  0  0
  146.3327  136.0480  154.2127 C   0  0  1  0  0  0  0  0  0  0  0  0
  147.7133  135.5651  154.7035 C   0  0  0  0  0  0  0  0  0  0  0  0
  148.7734  136.5223  154.4052 N   0  0  0  0  0  0  0  0  0  0  0  0
  149.4862  137.1920  155.3255 C   0  0  0  0  0  0  0  0  0  0  0  0
  149.3140  137.0453  156.5363 O   0  0  0  0  0  0  0  0  0  0  0  0
  150.5589  138.1573  154.7906 C   0  0  2  0  0  0  0  0  0  0  0  0
  151.9910  137.7564  155.1999 C   0  0  0  0  0  0  0  0  0  0  0  0
  150.2535  139.5311  155.1726 N   0  0  0  0  0  0  0  0  0  0  0  0
  150.2427  140.1055  156.3774 C   0  0  0  0  0  0  0  0  0  0  0  0
  149.9522  141.3984  156.3551 N   0  0  0  0  0  0  0  0  0  0  0  0
  149.7883  141.5722  155.0102 C   0  0  0  0  0  0  0  0  0  0  0  0
  149.9668  140.4883  154.2553 N   0  0  0  0  0  0  0  0  0  0  0  0
  146.8178  139.9114  151.6588 H   0  0  0  0  0  0  0  0  0  0  0  0
  145.8650  138.6329  150.9204 H   0  0  0  0  0  0  0  0  0  0  0  0
  147.6120  138.4484  151.0860 H   0  0  0  0  0  0  0  0  0  0  0  0
  147.3662  138.4786  153.5903 H   0  0  0  0  0  0  0  0  0  0  0  0
  145.6260  138.5874  153.4371 H   0  0  0  0  0  0  0  0  0  0  0  0
  144.4850  136.7744  152.1305 H   0  0  0  0  0  0  0  0  0  0  0  0
  145.6825  136.2026  150.9645 H   0  0  0  0  0  0  0  0  0  0  0  0
  144.1677  134.3767  152.2322 H   0  0  0  0  0  0  0  0  0  0  0  0
  145.9067  134.0914  152.1232 H   0  0  0  0  0  0  0  0  0  0  0  0
  144.3578  135.1992  154.4706 H   0  0  0  0  0  0  0  0  0  0  0  0
  145.6105  133.9687  154.4952 H   0  0  0  0  0  0  0  0  0  0  0  0
  145.9211  136.7561  154.9347 H   0  0  0  0  0  0  0  0  0  0  0  0
  147.6926  135.4081  155.7826 H   0  0  0  0  0  0  0  0  0  0  0  0
  147.9608  134.5993  154.2592 H   0  0  0  0  0  0  0  0  0  0  0  0
  148.9715  136.6985  153.4306 H   0  0  0  0  0  0  0  0  0  0  0  0
  150.5095  138.1096  153.7016 H   0  0  0  0  0  0  0  0  0  0  0  0
  152.2374  136.7551  154.8450 H   0  0  0  0  0  0  0  0  0  0  0  0
  152.1247  137.7664  156.2825 H   0  0  0  0  0  0  0  0  0  0  0  0
  152.7227  138.4420  154.7717 H   0  0  0  0  0  0  0  0  0  0  0  0
  150.4561  139.5681  157.2900 H   0  0  0  0  0  0  0  0  0  0  0  0
  149.5364  142.5277  154.5740 H   0  0  0  0  0  0  0  0  0  0  0  0
  147.3327  136.3908  152.5026 H   0  0  0  0  0  0  0  0  0  0  0  0
  1  2  1  0  0  0  0
  1 19  1  0  0  0  0
  1 20  1  0  0  0  0
  1 21  1  0  0  0  0
  2  3  1  0  0  0  0
  2 22  1  0  0  0  0
  2 23  1  0  0  0  0
  3  7  1  0  0  0  0
  3  4  1  0  0  0  0
  3 40  1  0  0  0  0
  4  5  1  0  0  0  0
  4 24  1  0  0  0  0
  4 25  1  0  0  0  0
  5  6  1  0  0  0  0
  5 26  1  0  0  0  0
  5 27  1  0  0  0  0
  6  7  1  0  0  0  0
  6 28  1  0  0  0  0
  6 29  1  0  0  0  0
  7  8  1  0  0  0  0
  7 30  1  0  0  0  0
  8  9  1  0  0  0  0
  8 31  1  0  0  0  0
  8 32  1  0  0  0  0
  9 10  1  0  0  0  0
  9 33  1  0  0  0  0
 10 11  2  0  0  0  0
 10 12  1  0  0  0  0
 12 13  1  0  0  0  0
 12 14  1  0  0  0  0
 12 34  1  0  0  0  0
 13 35  1  0  0  0  0
 13 36  1  0  0  0  0
 13 37  1  0  0  0  0
 14 18  1  0  0  0  0
 14 15  1  0  0  0  0
 15 16  2  0  0  0  0
 15 38  1  0  0  0  0
 16 17  1  0  0  0  0
 17 18  2  0  0  0  0
 17 39  1  0  0  0  0
M  CHG  1   3   1
M  END
> <s_m_source_file>
AV-unprocessed.smi

> <i_m_source_file_index>
3232

> <i_lp_mmshare_version>
43012

> <i_f3d_flags>
0

> <s_epik_input>
W0NIM11bQ0gyXU4xW0NIMl1bQ0gyXVtDSDJdW0NASF0xW0NIMl1bTkhdQyg9TylbQ0BIXShbQ0gzXSluMltjSF1uW2NIXW4y

> <s_epik_cmdline>
J2VwaWtfcHl0aG9uJywgJy1waCcsICc3LjAnLCAnLXRuJywgJzgnLCAnLW1hJywgJzIwMCcsICctbWV0YWxfYmluZGluZycsICctaW1hZScsICc8aW5maWxlLm1hZT4nLCAnLW9tYWUnLCAnPG91dGZpbGUubWFlPic=

> <r_lp_tautomer_probability>
1

> <r_epik_Ionization_Penalty>
0.00177695

> <r_epik_Ionization_Penalty_Charging>
0.00176881

> <r_epik_Ionization_Penalty_Neutral>
8.13528e-06

> <r_epik_State_Penalty>
0.00119827

> <r_epik_Charging_Adjusted_Penalty>
0.00296709

> <i_epik_Tot_Q>
1

> <i_epik_Tot_abs_Q>
1

> <r_epik_Metal_State_Penalty>
-0

> <b_epik_Metal_Only>
0

> <s_lp_Force_Field>
OPLS_2005

> <r_lp_Energy>
33.6963

> <b_lp_Chiralities_Consistent>
1

> <s_lp_Variant>
AV-unprocessed.smi:3232-1

> <Gold.Version>
5.8.1

> <Gold.Id.Protein>
6NUR|6NUR_protein|mol2

> <Gold.PLP.Fitness>
37.0759

> <Gold.PLP.PLP>
-23.2327

> <Gold.PLP.part.hbond>
-3.0000

> <Gold.PLP.part.metal>
0.0000

> <Gold.PLP.part.buried>
-1.0496

> <Gold.PLP.part.nonpolar>
-19.7257

> <Gold.PLP.part.repulsive>
0.2352

> <Gold.PLP.ligand.clash>
0.0000

> <Gold.PLP.ligand.torsion>
0.2786

> <Gold.PLP.Chemscore.Hbond>
3.7600

> <Gold.PLP.Chemscore.CHOScore>
1.0000

> <Gold.PLP.Chemscore.Metal>
0.0000

> <Gold.Chemscore.Hbonds>
donor molecule, donor type, donor heavy atom, donor atom, acceptor molecule, acceptor atom, score
      L1  H     3    40       P1  7948  2.00
      L1  H     9    33       P1  7948  1.00
      P1  H  7989  7998       L1    18  0.80
      L1  C    17    39       P1  8028  1.00

> <Gold.PLP.Chemscore.Internal.Correction>
0.1203

> <Gold.Rescore>
     Score         DG    S(hbond)    S(metal)    S(lipo)     H(rot)  DE(clash)    DE(int)     intcor
     12.61     -12.91       2.63        0.00      42.90       2.49       0.04       0.26       ----

> <Gold.Chemscore.Fitness>
12.6123

> <Gold.Chemscore.DG>
-12.9092

> <Gold.Chemscore.ZeroCoef>
-5.4800

> <Gold.Chemscore.Hbond>
2.6286

> <Gold.Chemscore.Metal>
0.0000

> <Gold.Chemscore.Lipo>
42.9016

> <Gold.Chemscore.Internal_Hbond>
0.0000

> <Gold.Chemscore.DEClash>
0.0352

> <Gold.Chemscore.DEInternal>
0.2617

> <Gold.Chemscore.Rot>
2.4882

> <Gold.Chemscore.Internal.Correction>
   9.000000E+99

> <Gold.Chemscore.Hbonds>
donor molecule, donor type, donor heavy atom, donor atom, acceptor molecule, acceptor atom, score
      L1  H     3    40       P1  7948  1.00
      L1  H     9    33       P1  7948  0.95
      P1  H  7989  7998       L1    18  0.09

> <Gold.Chemscore.Hbond.Weighted>
-8.7795

> <Gold.Chemscore.Metal.Weighted>
-0.0000

> <Gold.Chemscore.Lipo.Weighted>
-5.0195

> <Gold.Chemscore.Internal_Hbond.Weighted>
0.0000

> <Gold.Chemscore.DEClash.Weighted>
0.0352

> <Gold.Chemscore.DEInternal.Weighted>
0.2617

> <Gold.Chemscore.Rot.Weighted>
6.3697

> <Gold.Chemscore.Internal.Correction.Weighted>
   9.000000E+99

> <Gold.Protein.RotatedTorsions>
[ 6907 6896 6895 6894 ] final   50.27 input  -60.11 | X-H torsion
[ 7974 7965 7964 7962 ] final  -88.03 input  175.53 | X-H torsion
[ 8008 7997 7996 7995 ] final  177.14 input   59.86 | X-H torsion
[ 10167 10162 10161 10158 ] final  -83.37 input  -65.29 | X-H torsion
[ 10718 10713 10712 10709 ] final  -99.89 input   66.30 | X-H torsion
[ 10763 10752 10751 10750 ] final  132.61 input  -60.55 | X-H torsion
[ 11005 11000 10999 10996 ] final -179.45 input  -57.11 | X-H torsion

> <Gold.Protein.ActiveResidues>
 VAL166  LYS551  ARG553  GLY616  TRP617  ASP618  TYR619  PRO620  LYS621  CYS622 
 ASP623  PHE694  ASN695  SER759  ASP760  ASP761  ALA762  ILE779  LEU786  VAL792 
 PHE793  MET794  SER795  GLU796  ALA797  LYS798  CYS799  TRP800  GLU811  SER814 

> <Gold.Protein.RotatedAtoms>
  152.3000  134.7622  160.0359 H   0  0  0  0  0  0  0  0  0  0  0  0  # atno 6907 bound_to 6896
  151.8138  133.3380  159.3571 H   0  0  0  0  0  0  0  0  0  0  0  0  # atno 6908 bound_to 6896
  150.7269  134.5568  159.5866 H   0  0  0  0  0  0  0  0  0  0  0  0  # atno 6909 bound_to 6896
  145.4586  140.9561  143.1982 H   0  0  0  0  0  0  0  0  0  0  0  0  # atno 7974 bound_to 7965
  156.0689  140.1366  156.9853 H   0  0  0  0  0  0  0  0  0  0  0  0  # atno 8008 bound_to 7997
  154.4521  140.0976  156.6700 H   0  0  0  0  0  0  0  0  0  0  0  0  # atno 8009 bound_to 7997
  155.5260  140.3457  155.4418 H   0  0  0  0  0  0  0  0  0  0  0  0  # atno 8010 bound_to 7997
  140.4233  143.2576  151.8860 H   0  0  0  0  0  0  0  0  0  0  0  0  # atno 10167 bound_to 10162
  156.0147  130.5303  150.6736 H   0  0  0  0  0  0  0  0  0  0  0  0  # atno 10718 bound_to 10713
  153.7936  135.3151  155.3381 H   0  0  0  0  0  0  0  0  0  0  0  0  # atno 10763 bound_to 10752
  154.8116  135.4663  154.0535 H   0  0  0  0  0  0  0  0  0  0  0  0  # atno 10764 bound_to 10752
  153.1861  135.6901  153.8501 H   0  0  0  0  0  0  0  0  0  0  0  0  # atno 10765 bound_to 10752
  140.4185  134.6627  157.4652 H   0  0  0  0  0  0  0  0  0  0  0  0  # atno 11005 bound_to 11000
  144.8017  139.6128  143.7069 LP  0  0  0  0  0  0  0  0  0  0  0  0  # atno 17320 bound_to 7965
  146.2464  139.6107  142.9457 LP  0  0  0  0  0  0  0  0  0  0  0  0  # atno 17321 bound_to 7965
  139.4783  144.5414  151.8523 LP  0  0  0  0  0  0  0  0  0  0  0  0  # atno 17342 bound_to 10162
  140.4509  144.1856  150.5897 LP  0  0  0  0  0  0  0  0  0  0  0  0  # atno 17343 bound_to 10162
  157.4453  131.0866  151.0901 LP  0  0  0  0  0  0  0  0  0  0  0  0  # atno 17370 bound_to 10713
  157.1433  130.6152  149.5561 LP  0  0  0  0  0  0  0  0  0  0  0  0  # atno 17371 bound_to 10713
  140.0217  134.6538  155.9231 LP  0  0  0  0  0  0  0  0  0  0  0  0  # atno 17394 bound_to 11000
  141.1793  133.6544  156.4955 LP  0  0  0  0  0  0  0  0  0  0  0  0  # atno 17395 bound_to 11000

$$$$
