AV-unprocessed.smi:213|AV-procd|sdf|1646|dock5
  -GOLD-   2262020 23D 1   1.00000     0.00000
 Structure written by MMmdl.
 58 61  0  0  0  0  0  0  0  0  1 V2000
  151.7011  139.8556  156.5519 C   0  0  0  0  0  0  0  0  0  0  0  0
  150.4739  140.7898  156.5384 C   0  0  1  0  0  0  0  0  0  0  0  0
  150.8494  142.2690  156.7995 C   0  0  0  0  0  0  0  0  0  0  0  0
  150.9495  142.6647  158.2054 N   0  0  0  0  0  0  0  0  0  0  0  0
  151.3720  144.0562  158.3234 C   0  0  0  0  0  0  0  0  0  0  0  0
  151.4619  144.5099  159.7896 C   0  0  0  0  0  0  0  0  0  0  0  0
  152.3543  143.6549  160.4952 O   0  0  0  0  0  0  0  0  0  0  0  0
  151.9518  142.2902  160.4499 C   0  0  0  0  0  0  0  0  0  0  0  0
  151.8496  141.8226  158.9871 C   0  0  0  0  0  0  0  0  0  0  0  0
  149.7578  140.6492  155.2670 N   0  0  0  0  0  0  0  0  0  0  0  0
  150.3446  139.9009  154.1566 C   0  0  0  0  0  0  0  0  0  0  0  0
  148.6326  141.3713  155.0134 C   0  0  0  0  0  0  0  0  0  0  0  0
  148.4821  141.8849  153.7631 N   0  0  0  0  0  0  0  0  0  0  0  0
  147.3975  142.5963  153.4442 C   0  0  0  0  0  0  0  0  0  0  0  0
  146.3553  142.9164  154.2115 N   0  0  0  0  0  0  0  0  0  0  0  0
  146.5006  142.4181  155.4717 C   0  0  0  0  0  0  0  0  0  0  0  0
  147.5944  141.6430  155.9563 C   0  0  0  0  0  0  0  0  0  0  0  0
  147.3841  141.3396  157.2977 N   0  0  0  0  0  0  0  0  0  0  0  0
  146.2356  141.8873  157.5831 C   0  0  0  0  0  0  0  0  0  0  0  0
  145.6362  142.5569  156.5427 N   0  0  0  0  0  0  0  0  0  0  0  0
  144.3656  143.2597  156.5743 C   0  0  0  0  0  0  0  0  0  0  0  0
  144.5394  144.7890  156.6605 C   0  0  2  0  0  0  0  0  0  0  0  0
  144.8736  145.1456  157.9889 O   0  0  0  0  0  0  0  0  0  0  0  0
  143.2624  145.5452  156.2495 C   0  0  1  0  0  0  0  0  0  0  0  0
  143.4317  147.0590  156.1349 C   0  0  0  0  0  0  0  0  0  0  0  0
  142.2507  147.4407  155.2680 C   0  0  0  0  0  0  0  0  0  0  0  0
  142.0797  146.2213  154.3599 C   0  0  0  0  0  0  0  0  0  0  0  0
  142.8651  145.1793  154.9340 O   0  0  0  0  0  0  0  0  0  0  0  0
  152.2152  139.8654  157.5110 H   0  0  0  0  0  0  0  0  0  0  0  0
  152.4337  140.1349  155.7946 H   0  0  0  0  0  0  0  0  0  0  0  0
  151.4043  138.8242  156.3588 H   0  0  0  0  0  0  0  0  0  0  0  0
  149.8202  140.4418  157.3376 H   0  0  0  0  0  0  0  0  0  0  0  0
  151.7698  142.5206  156.2706 H   0  0  0  0  0  0  0  0  0  0  0  0
  150.0787  142.8921  156.3424 H   0  0  0  0  0  0  0  0  0  0  0  0
  152.3439  144.1891  157.8458 H   0  0  0  0  0  0  0  0  0  0  0  0
  150.6729  144.7022  157.7914 H   0  0  0  0  0  0  0  0  0  0  0  0
  151.8283  145.5347  159.8485 H   0  0  0  0  0  0  0  0  0  0  0  0
  150.4777  144.4925  160.2609 H   0  0  0  0  0  0  0  0  0  0  0  0
  152.6797  141.6857  160.9910 H   0  0  0  0  0  0  0  0  0  0  0  0
  150.9944  142.1708  160.9594 H   0  0  0  0  0  0  0  0  0  0  0  0
  151.4926  140.7941  158.9877 H   0  0  0  0  0  0  0  0  0  0  0  0
  152.8421  141.8185  158.5342 H   0  0  0  0  0  0  0  0  0  0  0  0
  150.2364  140.4427  153.2160 H   0  0  0  0  0  0  0  0  0  0  0  0
  149.8564  138.9313  154.0552 H   0  0  0  0  0  0  0  0  0  0  0  0
  151.4094  139.7301  154.3138 H   0  0  0  0  0  0  0  0  0  0  0  0
  147.3597  142.9604  152.4281 H   0  0  0  0  0  0  0  0  0  0  0  0
  145.7962  141.8221  158.5677 H   0  0  0  0  0  0  0  0  0  0  0  0
  143.8099  142.9915  155.6752 H   0  0  0  0  0  0  0  0  0  0  0  0
  143.7836  142.8922  157.4206 H   0  0  0  0  0  0  0  0  0  0  0  0
  145.3625  145.0950  156.0134 H   0  0  0  0  0  0  0  0  0  0  0  0
  145.6788  145.6399  157.9732 H   0  0  0  0  0  0  0  0  0  0  0  0
  142.4432  145.3169  156.9343 H   0  0  0  0  0  0  0  0  0  0  0  0
  143.4301  147.5645  157.1012 H   0  0  0  0  0  0  0  0  0  0  0  0
  144.3642  147.3021  155.6232 H   0  0  0  0  0  0  0  0  0  0  0  0
  141.3621  147.5711  155.8872 H   0  0  0  0  0  0  0  0  0  0  0  0
  142.4143  148.3645  154.7123 H   0  0  0  0  0  0  0  0  0  0  0  0
  141.0334  145.9211  154.2949 H   0  0  0  0  0  0  0  0  0  0  0  0
  142.4380  146.4226  153.3500 H   0  0  0  0  0  0  0  0  0  0  0  0
  1  2  1  0  0  0  0
  1 29  1  0  0  0  0
  1 30  1  0  0  0  0
  1 31  1  0  0  0  0
  2  3  1  0  0  0  0
  2 10  1  0  0  0  0
  2 32  1  0  0  0  0
  3  4  1  0  0  0  0
  3 33  1  0  0  0  0
  3 34  1  0  0  0  0
  4  9  1  0  0  0  0
  4  5  1  0  0  0  0
  5  6  1  0  0  0  0
  5 35  1  0  0  0  0
  5 36  1  0  0  0  0
  6  7  1  0  0  0  0
  6 37  1  0  0  0  0
  6 38  1  0  0  0  0
  7  8  1  0  0  0  0
  8  9  1  0  0  0  0
  8 39  1  0  0  0  0
  8 40  1  0  0  0  0
  9 41  1  0  0  0  0
  9 42  1  0  0  0  0
 10 11  1  0  0  0  0
 10 12  1  0  0  0  0
 11 43  1  0  0  0  0
 11 44  1  0  0  0  0
 11 45  1  0  0  0  0
 12 17  1  0  0  0  0
 12 13  2  0  0  0  0
 13 14  1  0  0  0  0
 14 15  2  0  0  0  0
 14 46  1  0  0  0  0
 15 16  1  0  0  0  0
 16 20  1  0  0  0  0
 16 17  2  0  0  0  0
 17 18  1  0  0  0  0
 18 19  2  0  0  0  0
 19 20  1  0  0  0  0
 19 47  1  0  0  0  0
 20 21  1  0  0  0  0
 21 22  1  0  0  0  0
 21 48  1  0  0  0  0
 21 49  1  0  0  0  0
 22 23  1  0  0  0  0
 22 24  1  0  0  0  0
 22 50  1  0  0  0  0
 23 51  1  0  0  0  0
 24 28  1  0  0  0  0
 24 25  1  0  0  0  0
 24 52  1  0  0  0  0
 25 26  1  0  0  0  0
 25 53  1  0  0  0  0
 25 54  1  0  0  0  0
 26 27  1  0  0  0  0
 26 55  1  0  0  0  0
 26 56  1  0  0  0  0
 27 28  1  0  0  0  0
 27 57  1  0  0  0  0
 27 58  1  0  0  0  0
M  END
> <s_m_source_file>
AV-unprocessed.smi

> <i_m_source_file_index>
213

> <i_lp_mmshare_version>
43012

> <i_f3d_flags>
0

> <s_epik_input>
W0NIMl0xW0NIMl1PW0NIMl1bQ0gyXU4xW0NIMl1bQ0BASF0oW0NIM10pTihbQ0gzXSljKG5bY0hdbjIpYyhjMjMpbltjSF1uM1tDSDJdW0NASF0oW09IXSlbQ0BASF00W0NIMl1bQ0gyXVtDSDJdTzQ=

> <s_epik_cmdline>
J2VwaWtfcHl0aG9uJywgJy1waCcsICc3LjAnLCAnLXRuJywgJzgnLCAnLW1hJywgJzIwMCcsICctbWV0YWxfYmluZGluZycsICctaW1hZScsICc8aW5maWxlLm1hZT4nLCAnLW9tYWUnLCAnPG91dGZpbGUubWFlPic=

> <r_lp_tautomer_probability>
1

> <r_epik_Ionization_Penalty>
0.423322

> <r_epik_Ionization_Penalty_Charging>
0

> <r_epik_Ionization_Penalty_Neutral>
0.423322

> <r_epik_State_Penalty>
0.569486

> <r_epik_Charging_Adjusted_Penalty>
0.569486

> <i_epik_Tot_Q>
0

> <i_epik_Tot_abs_Q>
0

> <r_epik_Metal_State_Penalty>
0.568671

> <b_epik_Metal_Only>
0

> <s_lp_Force_Field>
OPLS_2005

> <r_lp_Energy>
53.3549

> <b_lp_Chiralities_Consistent>
1

> <s_lp_Variant>
AV-unprocessed.smi:213-14

> <Gold.Version>
5.8.1

> <Gold.Id.Protein>
6NUR|6NUR_protein|mol2

> <Gold.PLP.Fitness>
48.8992

> <Gold.PLP.PLP>
-47.2547

> <Gold.PLP.part.hbond>
-2.0000

> <Gold.PLP.part.metal>
0.0000

> <Gold.PLP.part.buried>
-6.2477

> <Gold.PLP.part.nonpolar>
-39.3286

> <Gold.PLP.part.repulsive>
0.6007

> <Gold.PLP.ligand.clash>
0.0000

> <Gold.PLP.ligand.torsion>
1.3291

> <Gold.PLP.Chemscore.Hbond>
1.2766

> <Gold.PLP.Chemscore.CHOScore>
0.0000

> <Gold.PLP.Chemscore.Metal>
0.0000

> <Gold.Chemscore.Hbonds>
donor molecule, donor type, donor heavy atom, donor atom, acceptor molecule, acceptor atom, score
      L1  H    23    51       P1  8029  0.39
      P1  H  8011  8017       L1    13  0.50

> <Gold.PLP.Chemscore.Internal.Correction>
0.4727

> <Gold.Rescore>
     Score         DG    S(hbond)    S(metal)    S(lipo)     H(rot)  DE(clash)    DE(int)     intcor
     12.38     -13.49       0.94        0.00     101.50       2.74       0.03       1.08       ----

> <Gold.Chemscore.Fitness>
12.3823

> <Gold.Chemscore.DG>
-13.4884

> <Gold.Chemscore.ZeroCoef>
-5.4800

> <Gold.Chemscore.Hbond>
0.9406

> <Gold.Chemscore.Metal>
0.0000

> <Gold.Chemscore.Lipo>
101.4995

> <Gold.Chemscore.Internal_Hbond>
0.0000

> <Gold.Chemscore.DEClash>
0.0270

> <Gold.Chemscore.DEInternal>
1.0791

> <Gold.Chemscore.Rot>
2.7378

> <Gold.Chemscore.Internal.Correction>
   9.000000E+99

> <Gold.Chemscore.Hbonds>
donor molecule, donor type, donor heavy atom, donor atom, acceptor molecule, acceptor atom, score
      L1  H    23    51       P1  8029  0.33
      P1  H  8011  8017       L1    13  0.17

> <Gold.Chemscore.Hbond.Weighted>
-3.1416

> <Gold.Chemscore.Metal.Weighted>
-0.0000

> <Gold.Chemscore.Lipo.Weighted>
-11.8754

> <Gold.Chemscore.Internal_Hbond.Weighted>
0.0000

> <Gold.Chemscore.DEClash.Weighted>
0.0270

> <Gold.Chemscore.DEInternal.Weighted>
1.0791

> <Gold.Chemscore.Rot.Weighted>
7.0087

> <Gold.Chemscore.Internal.Correction.Weighted>
   9.000000E+99

> <Gold.Protein.RotatedTorsions>
[ 6907 6896 6895 6894 ] final  -63.67 input  -60.11 | X-H torsion
[ 7974 7965 7964 7962 ] final -101.31 input  175.53 | X-H torsion
[ 8008 7997 7996 7995 ] final -121.64 input   59.86 | X-H torsion
[ 10167 10162 10161 10158 ] final    6.10 input  -65.29 | X-H torsion
[ 10718 10713 10712 10709 ] final   70.93 input   66.30 | X-H torsion
[ 10763 10752 10751 10750 ] final -168.39 input  -60.55 | X-H torsion
[ 11005 11000 10999 10996 ] final  -43.36 input  -57.11 | X-H torsion

> <Gold.Protein.ActiveResidues>
 VAL166  LYS551  ARG553  GLY616  TRP617  ASP618  TYR619  PRO620  LYS621  CYS622 
 ASP623  PHE694  ASN695  SER759  ASP760  ASP761  ALA762  ILE779  LEU786  VAL792 
 PHE793  MET794  SER795  GLU796  ALA797  LYS798  CYS799  TRP800  GLU811  SER814 

> <Gold.Protein.RotatedAtoms>
  150.7634  134.6403  159.6233 H   0  0  0  0  0  0  0  0  0  0  0  0  # atno 6907 bound_to 6896
  152.3654  134.6809  160.0203 H   0  0  0  0  0  0  0  0  0  0  0  0  # atno 6908 bound_to 6896
  151.7186  133.3277  159.3346 H   0  0  0  0  0  0  0  0  0  0  0  0  # atno 6909 bound_to 6896
  145.2832  140.9332  143.2920 H   0  0  0  0  0  0  0  0  0  0  0  0  # atno 7974 bound_to 7965
  155.1513  140.0404  157.2821 H   0  0  0  0  0  0  0  0  0  0  0  0  # atno 8008 bound_to 7997
  154.6402  140.2545  155.7304 H   0  0  0  0  0  0  0  0  0  0  0  0  # atno 8009 bound_to 7997
  156.2529  140.2857  156.0793 H   0  0  0  0  0  0  0  0  0  0  0  0  # atno 8010 bound_to 7997
  140.6446  143.7692  150.7480 H   0  0  0  0  0  0  0  0  0  0  0  0  # atno 10167 bound_to 10162
  157.6426  130.9502  150.0719 H   0  0  0  0  0  0  0  0  0  0  0  0  # atno 10718 bound_to 10713
  154.6634  135.2928  154.9837 H   0  0  0  0  0  0  0  0  0  0  0  0  # atno 10763 bound_to 10752
  154.0889  135.6593  153.4853 H   0  0  0  0  0  0  0  0  0  0  0  0  # atno 10764 bound_to 10752
  153.0443  135.5215  154.7595 H   0  0  0  0  0  0  0  0  0  0  0  0  # atno 10765 bound_to 10752
  141.0378  133.6792  156.2722 H   0  0  0  0  0  0  0  0  0  0  0  0  # atno 11005 bound_to 11000
  144.9235  139.4383  143.6529 LP  0  0  0  0  0  0  0  0  0  0  0  0  # atno 17320 bound_to 7965
  146.3209  139.8108  142.8946 LP  0  0  0  0  0  0  0  0  0  0  0  0  # atno 17321 bound_to 7965
  140.1331  143.4508  152.2242 LP  0  0  0  0  0  0  0  0  0  0  0  0  # atno 17342 bound_to 10162
  139.5656  144.7433  151.4031 LP  0  0  0  0  0  0  0  0  0  0  0  0  # atno 17343 bound_to 10162
  156.1721  130.3647  149.9151 LP  0  0  0  0  0  0  0  0  0  0  0  0  # atno 17370 bound_to 10713
  156.7124  130.8975  151.3610 LP  0  0  0  0  0  0  0  0  0  0  0  0  # atno 17371 bound_to 10713
  140.6290  134.5284  157.5557 LP  0  0  0  0  0  0  0  0  0  0  0  0  # atno 17394 bound_to 11000
  139.9253  134.8067  156.1086 LP  0  0  0  0  0  0  0  0  0  0  0  0  # atno 17395 bound_to 11000

$$$$
