AV-unprocessed.smi:418|AV-procd|sdf|2529|dock1
  -GOLD-   2262022483D 1   1.00000     0.00000
 Structure written by MMmdl.
 40 42  0  0  0  0  0  0  0  0  1 V2000
  151.3934  142.0499  157.0428 C   0  0  0  0  0  0  0  0  0  0  0  0
  152.0597  141.7540  158.3054 N   0  0  0  0  0  0  0  0  0  0  0  0
  152.7620  140.6386  158.6141 C   0  0  0  0  0  0  0  0  0  0  0  0
  152.9541  139.6750  157.8727 O   0  0  0  0  0  0  0  0  0  0  0  0
  153.2125  140.7659  159.8846 N   0  0  0  0  0  0  0  0  0  0  0  0
  153.9974  139.7847  160.6306 C   0  0  0  0  0  0  0  0  0  0  0  0
  155.4768  139.7890  160.1958 C   0  0  1  0  0  0  0  0  0  0  0  0
  156.0802  141.0291  160.5030 O   0  0  0  0  0  0  0  0  0  0  0  0
  156.3060  138.6831  160.8694 C   0  0  0  0  0  0  0  0  0  0  0  0
  156.1012  138.7172  162.2767 O   0  0  0  0  0  0  0  0  0  0  0  0
  155.4149  137.6769  162.8660 C   0  0  0  0  0  0  0  0  0  0  0  0
  155.0428  136.4857  162.1920 C   0  0  0  0  0  0  0  0  0  0  0  0
  154.3394  135.4719  162.8713 C   0  0  0  0  0  0  0  0  0  0  0  0
  154.0002  135.6334  164.2272 C   0  0  0  0  0  0  0  0  0  0  0  0
  154.3661  136.8112  164.9044 C   0  0  0  0  0  0  0  0  0  0  0  0
  155.0691  137.8258  164.2263 C   0  0  0  0  0  0  0  0  0  0  0  0
  155.4148  138.9550  164.8898 F   0  0  0  0  0  0  0  0  0  0  0  0
  152.7736  141.9910  160.4074 C   0  0  0  0  0  0  0  0  0  0  0  0
  152.9606  142.5794  161.6704 C   0  0  0  0  0  0  0  0  0  0  0  0
  152.3714  143.8475  161.8856 C   0  0  0  0  0  0  0  0  0  0  0  0
  151.6244  144.4860  160.8613 C   0  0  0  0  0  0  0  0  0  0  0  0
  151.4505  143.8700  159.5995 C   0  0  0  0  0  0  0  0  0  0  0  0
  152.0479  142.6115  159.4127 C   0  0  0  0  0  0  0  0  0  0  0  0
  151.6352  141.3181  156.2710 H   0  0  0  0  0  0  0  0  0  0  0  0
  151.6944  143.0321  156.6775 H   0  0  0  0  0  0  0  0  0  0  0  0
  150.3119  142.0521  157.1806 H   0  0  0  0  0  0  0  0  0  0  0  0
  153.9050  139.9465  161.7063 H   0  0  0  0  0  0  0  0  0  0  0  0
  153.5625  138.8023  160.4424 H   0  0  0  0  0  0  0  0  0  0  0  0
  155.5481  139.6504  159.1163 H   0  0  0  0  0  0  0  0  0  0  0  0
  155.4023  141.6350  160.7620 H   0  0  0  0  0  0  0  0  0  0  0  0
  155.9753  137.7170  160.4851 H   0  0  0  0  0  0  0  0  0  0  0  0
  157.3632  138.7942  160.6213 H   0  0  0  0  0  0  0  0  0  0  0  0
  155.2851  136.3247  161.1527 H   0  0  0  0  0  0  0  0  0  0  0  0
  154.0596  134.5683  162.3500 H   0  0  0  0  0  0  0  0  0  0  0  0
  153.4605  134.8555  164.7470 H   0  0  0  0  0  0  0  0  0  0  0  0
  154.1074  136.9378  165.9453 H   0  0  0  0  0  0  0  0  0  0  0  0
  153.5278  142.0872  162.4466 H   0  0  0  0  0  0  0  0  0  0  0  0
  152.4904  144.3357  162.8416 H   0  0  0  0  0  0  0  0  0  0  0  0
  151.1820  145.4535  161.0478 H   0  0  0  0  0  0  0  0  0  0  0  0
  150.8819  144.3483  158.8157 H   0  0  0  0  0  0  0  0  0  0  0  0
  1  2  1  0  0  0  0
  1 24  1  0  0  0  0
  1 25  1  0  0  0  0
  1 26  1  0  0  0  0
  2 23  1  0  0  0  0
  2  3  1  0  0  0  0
  3  4  2  0  0  0  0
  3  5  1  0  0  0  0
  5  6  1  0  0  0  0
  5 18  1  0  0  0  0
  6  7  1  0  0  0  0
  6 27  1  0  0  0  0
  6 28  1  0  0  0  0
  7  8  1  0  0  0  0
  7  9  1  0  0  0  0
  7 29  1  0  0  0  0
  8 30  1  0  0  0  0
  9 10  1  0  0  0  0
  9 31  1  0  0  0  0
  9 32  1  0  0  0  0
 10 11  1  0  0  0  0
 11 16  1  0  0  0  0
 11 12  2  0  0  0  0
 12 13  1  0  0  0  0
 12 33  1  0  0  0  0
 13 14  2  0  0  0  0
 13 34  1  0  0  0  0
 14 15  1  0  0  0  0
 14 35  1  0  0  0  0
 15 16  2  0  0  0  0
 15 36  1  0  0  0  0
 16 17  1  0  0  0  0
 18 23  2  0  0  0  0
 18 19  1  0  0  0  0
 19 20  2  0  0  0  0
 19 37  1  0  0  0  0
 20 21  1  0  0  0  0
 20 38  1  0  0  0  0
 21 22  2  0  0  0  0
 21 39  1  0  0  0  0
 22 23  1  0  0  0  0
 22 40  1  0  0  0  0
M  END
> <s_m_source_file>
AV-unprocessed.smi

> <i_m_source_file_index>
418

> <i_lp_mmshare_version>
43012

> <i_f3d_flags>
0

> <s_epik_input>
W2NIXTFbY0hdW2NIXVtjSF1jKGMxMiluKFtDSDNdKWMoPU8pbjJbQ0gyXVtDQEhdKFtPSF0pW0NIMl1PYzNbY0hdW2NIXVtjSF1bY0hdYzNG

> <s_epik_cmdline>
J2VwaWtfcHl0aG9uJywgJy1waCcsICc3LjAnLCAnLXRuJywgJzgnLCAnLW1hJywgJzIwMCcsICctbWV0YWxfYmluZGluZycsICctaW1hZScsICc8aW5maWxlLm1hZT4nLCAnLW9tYWUnLCAnPG91dGZpbGUubWFlPic=

> <r_lp_tautomer_probability>
1

> <r_epik_Ionization_Penalty>
2.40171e-06

> <r_epik_Ionization_Penalty_Charging>
2.41238e-09

> <r_epik_Ionization_Penalty_Neutral>
2.3993e-06

> <r_epik_State_Penalty>
-0

> <r_epik_Charging_Adjusted_Penalty>
2.41238e-09

> <i_epik_Tot_Q>
0

> <i_epik_Tot_abs_Q>
0

> <r_epik_Metal_State_Penalty>
-0

> <b_epik_Metal_Only>
0

> <s_lp_Force_Field>
OPLS_2005

> <r_lp_Energy>
48.5553

> <b_lp_Chiralities_Consistent>
1

> <s_lp_Variant>
AV-unprocessed.smi:418-2

> <Gold.Version>
5.8.1

> <Gold.Id.Protein>
6NUR|6NUR_protein|mol2

> <Gold.PLP.Fitness>
50.6109

> <Gold.PLP.PLP>
-48.9771

> <Gold.PLP.part.hbond>
-2.0000

> <Gold.PLP.part.metal>
0.0000

> <Gold.PLP.part.buried>
-3.0965

> <Gold.PLP.part.nonpolar>
-43.2340

> <Gold.PLP.part.repulsive>
0.0000

> <Gold.PLP.ligand.clash>
0.0000

> <Gold.PLP.ligand.torsion>
0.7042

> <Gold.PLP.Chemscore.Hbond>
1.0000

> <Gold.PLP.Chemscore.CHOScore>
0.0000

> <Gold.PLP.Chemscore.Metal>
0.0000

> <Gold.Chemscore.Hbonds>
donor molecule, donor type, donor heavy atom, donor atom, acceptor molecule, acceptor atom, score
      P1  H  7997  8010       L1     4  1.00

> <Gold.PLP.Chemscore.Internal.Correction>
0.0421

> <Gold.Rescore>
     Score         DG    S(hbond)    S(metal)    S(lipo)     H(rot)  DE(clash)    DE(int)     intcor
     16.02     -18.40       0.84        0.00     136.06       2.27       1.73       0.65       ----

> <Gold.Chemscore.Fitness>
16.0234

> <Gold.Chemscore.DG>
-18.4041

> <Gold.Chemscore.ZeroCoef>
-5.4800

> <Gold.Chemscore.Hbond>
0.8437

> <Gold.Chemscore.Metal>
0.0000

> <Gold.Chemscore.Lipo>
136.0580

> <Gold.Chemscore.Internal_Hbond>
0.0000

> <Gold.Chemscore.DEClash>
1.7264

> <Gold.Chemscore.DEInternal>
0.6543

> <Gold.Chemscore.Rot>
2.2706

> <Gold.Chemscore.Internal.Correction>
   9.000000E+99

> <Gold.Chemscore.Hbonds>
donor molecule, donor type, donor heavy atom, donor atom, acceptor molecule, acceptor atom, score
      P1  H  7997  8010       L1     4  0.50

> <Gold.Chemscore.Hbond.Weighted>
-2.8181

> <Gold.Chemscore.Metal.Weighted>
-0.0000

> <Gold.Chemscore.Lipo.Weighted>
-15.9188

> <Gold.Chemscore.Internal_Hbond.Weighted>
0.0000

> <Gold.Chemscore.DEClash.Weighted>
1.7264

> <Gold.Chemscore.DEInternal.Weighted>
0.6543

> <Gold.Chemscore.Rot.Weighted>
5.8128

> <Gold.Chemscore.Internal.Correction.Weighted>
   9.000000E+99

> <Gold.Protein.RotatedTorsions>
[ 6907 6896 6895 6894 ] final  -87.53 input  -60.11 | X-H torsion
[ 7974 7965 7964 7962 ] final -177.85 input  175.53 | X-H torsion
[ 8008 7997 7996 7995 ] final   36.91 input   59.86 | X-H torsion
[ 10167 10162 10161 10158 ] final   70.76 input  -65.29 | X-H torsion
[ 10718 10713 10712 10709 ] final  121.68 input   66.30 | X-H torsion
[ 10763 10752 10751 10750 ] final   64.52 input  -60.55 | X-H torsion
[ 11005 11000 10999 10996 ] final   37.62 input  -57.11 | X-H torsion

> <Gold.Protein.ActiveResidues>
 VAL166  LYS551  ARG553  GLY616  TRP617  ASP618  TYR619  PRO620  LYS621  CYS622 
 ASP623  PHE694  ASN695  SER759  ASP760  ASP761  ALA762  ILE779  LEU786  VAL792 
 PHE793  MET794  SER795  GLU796  ALA797  LYS798  CYS799  TRP800  GLU811  SER814 

> <Gold.Protein.RotatedAtoms>
  150.6866  134.2882  159.4655 H   0  0  0  0  0  0  0  0  0  0  0  0  # atno 6907 bound_to 6896
  152.0789  134.9481  160.0583 H   0  0  0  0  0  0  0  0  0  0  0  0  # atno 6908 bound_to 6896
  152.0842  133.4133  159.4551 H   0  0  0  0  0  0  0  0  0  0  0  0  # atno 6909 bound_to 6896
  144.7129  140.0957  143.6419 H   0  0  0  0  0  0  0  0  0  0  0  0  # atno 7974 bound_to 7965
  155.1951  140.3311  155.4352 H   0  0  0  0  0  0  0  0  0  0  0  0  # atno 8008 bound_to 7997
  156.2428  140.1903  156.6991 H   0  0  0  0  0  0  0  0  0  0  0  0  # atno 8009 bound_to 7997
  154.6179  140.0599  156.9564 H   0  0  0  0  0  0  0  0  0  0  0  0  # atno 8010 bound_to 7997
  140.0535  144.5292  150.7346 H   0  0  0  0  0  0  0  0  0  0  0  0  # atno 10167 bound_to 10162
  157.5799  131.1076  150.8207 H   0  0  0  0  0  0  0  0  0  0  0  0  # atno 10718 bound_to 10713
  153.0059  135.5390  154.6523 H   0  0  0  0  0  0  0  0  0  0  0  0  # atno 10763 bound_to 10752
  154.5752  135.2845  155.0790 H   0  0  0  0  0  0  0  0  0  0  0  0  # atno 10764 bound_to 10752
  154.1940  135.6495  153.5120 H   0  0  0  0  0  0  0  0  0  0  0  0  # atno 10765 bound_to 10752
  140.2207  134.3644  155.8006 H   0  0  0  0  0  0  0  0  0  0  0  0  # atno 11005 bound_to 11000
  145.9582  139.2781  143.1172 LP  0  0  0  0  0  0  0  0  0  0  0  0  # atno 17320 bound_to 7965
  145.9250  140.9089  143.0386 LP  0  0  0  0  0  0  0  0  0  0  0  0  # atno 17321 bound_to 7965
  140.7206  143.2585  151.4292 LP  0  0  0  0  0  0  0  0  0  0  0  0  # atno 17342 bound_to 10162
  139.5938  144.1441  152.2120 LP  0  0  0  0  0  0  0  0  0  0  0  0  # atno 17343 bound_to 10162
  156.8656  130.5128  149.5300 LP  0  0  0  0  0  0  0  0  0  0  0  0  # atno 17370 bound_to 10713
  156.0845  130.5847  150.9623 LP  0  0  0  0  0  0  0  0  0  0  0  0  # atno 17371 bound_to 10713
  141.2223  133.7192  156.8571 LP  0  0  0  0  0  0  0  0  0  0  0  0  # atno 17394 bound_to 11000
  140.1852  134.9005  157.2996 LP  0  0  0  0  0  0  0  0  0  0  0  0  # atno 17395 bound_to 11000

$$$$
