AV-unprocessed.smi:1224|AV-procd|sdf|5129|dock6
  -GOLD-   22720 4183D 1   1.00000     0.00000
 Structure written by MMmdl.
 44 46  0  0  0  0  0  0  0  0  2 V2000
  152.2698  143.3690  160.7495 C   0  0  0  0  0  0  0  0  0  0  0  0
  152.0235  142.5536  159.4923 C   0  0  0  0  0  0  0  0  0  0  0  0
  152.7614  141.3659  159.2882 C   0  0  0  0  0  0  0  0  0  0  0  0
  152.5595  140.5772  158.1344 C   0  0  0  0  0  0  0  0  0  0  0  0
  153.1595  139.3947  157.7367 N   0  0  0  0  0  0  0  0  0  0  0  0
  152.5469  139.1585  156.5803 C   0  0  0  0  0  0  0  0  0  0  0  0
  151.6206  140.0509  156.1800 N   0  0  0  0  0  0  0  0  0  0  0  0
  150.8260  140.0102  154.9657 C   0  0  0  0  0  0  0  0  0  0  0  0
  150.2476  138.6092  154.6900 C   0  0  1  0  0  0  0  0  0  0  0  0
  149.3155  138.6885  153.6282 O   0  0  0  0  0  0  0  0  0  0  0  0
  151.3423  137.5964  154.3190 C   0  0  0  0  0  0  0  0  0  0  0  0
  150.7587  136.2881  153.9524 N   0  3  0  0  0  0  0  0  0  0  0  0
  150.4194  135.4127  155.0937 C   0  0  0  0  0  0  0  0  0  0  0  0
  150.1827  133.9956  154.6824 C   0  0  0  0  0  0  0  0  0  0  0  0
  149.3487  133.5365  153.6945 C   0  0  0  0  0  0  0  0  0  0  0  0
  149.3566  132.1166  153.5692 C   0  0  0  0  0  0  0  0  0  0  0  0
  150.1974  131.5100  154.4636 C   0  0  0  0  0  0  0  0  0  0  0  0
  150.9979  132.6752  155.4819 S   0  0  0  0  0  0  0  0  0  0  0  0
  151.5919  141.0134  157.1829 C   0  0  0  0  0  0  0  0  0  0  0  0
  150.8525  142.1939  157.3738 C   0  0  0  0  0  0  0  0  0  0  0  0
  151.0662  142.9695  158.5324 C   0  0  0  0  0  0  0  0  0  0  0  0
  150.2612  144.2417  158.7313 C   0  0  0  0  0  0  0  0  0  0  0  0
  153.0554  142.9279  161.3635 H   0  0  0  0  0  0  0  0  0  0  0  0
  151.3631  143.4215  161.3526 H   0  0  0  0  0  0  0  0  0  0  0  0
  152.5762  144.3836  160.4945 H   0  0  0  0  0  0  0  0  0  0  0  0
  153.4903  141.0487  160.0195 H   0  0  0  0  0  0  0  0  0  0  0  0
  152.7874  138.2875  155.9884 H   0  0  0  0  0  0  0  0  0  0  0  0
  150.0265  140.7488  155.0437 H   0  0  0  0  0  0  0  0  0  0  0  0
  151.4613  140.3259  154.1374 H   0  0  0  0  0  0  0  0  0  0  0  0
  149.7224  138.2602  155.5805 H   0  0  0  0  0  0  0  0  0  0  0  0
  149.4194  137.9291  153.0747 H   0  0  0  0  0  0  0  0  0  0  0  0
  151.9532  137.9825  153.5019 H   0  0  0  0  0  0  0  0  0  0  0  0
  152.0066  137.4475  155.1715 H   0  0  0  0  0  0  0  0  0  0  0  0
  149.9128  136.4608  153.4283 H   0  0  0  0  0  0  0  0  0  0  0  0
  151.2129  135.4650  155.8403 H   0  0  0  0  0  0  0  0  0  0  0  0
  149.5213  135.8074  155.5697 H   0  0  0  0  0  0  0  0  0  0  0  0
  148.7372  134.1641  153.0630 H   0  0  0  0  0  0  0  0  0  0  0  0
  148.7545  131.5973  152.8381 H   0  0  0  0  0  0  0  0  0  0  0  0
  150.3953  130.4551  154.5853 H   0  0  0  0  0  0  0  0  0  0  0  0
  150.1262  142.4988  156.6352 H   0  0  0  0  0  0  0  0  0  0  0  0
  149.5598  144.4007  157.9119 H   0  0  0  0  0  0  0  0  0  0  0  0
  150.9217  145.1077  158.7795 H   0  0  0  0  0  0  0  0  0  0  0  0
  149.6878  144.1909  159.6571 H   0  0  0  0  0  0  0  0  0  0  0  0
  151.4108  135.8018  153.3535 H   0  0  0  0  0  0  0  0  0  0  0  0
  1  2  1  0  0  0  0
  1 23  1  0  0  0  0
  1 24  1  0  0  0  0
  1 25  1  0  0  0  0
  2 21  1  0  0  0  0
  2  3  2  0  0  0  0
  3  4  1  0  0  0  0
  3 26  1  0  0  0  0
  4 19  2  0  0  0  0
  4  5  1  0  0  0  0
  5  6  2  0  0  0  0
  6  7  1  0  0  0  0
  6 27  1  0  0  0  0
  7  8  1  0  0  0  0
  7 19  1  0  0  0  0
  8  9  1  0  0  0  0
  8 28  1  0  0  0  0
  8 29  1  0  0  0  0
  9 10  1  0  0  0  0
  9 11  1  0  0  0  0
  9 30  1  0  0  0  0
 10 31  1  0  0  0  0
 11 12  1  0  0  0  0
 11 32  1  0  0  0  0
 11 33  1  0  0  0  0
 12 13  1  0  0  0  0
 12 34  1  0  0  0  0
 12 44  1  0  0  0  0
 13 14  1  0  0  0  0
 13 35  1  0  0  0  0
 13 36  1  0  0  0  0
 14 18  1  0  0  0  0
 14 15  2  0  0  0  0
 15 16  1  0  0  0  0
 15 37  1  0  0  0  0
 16 17  2  0  0  0  0
 16 38  1  0  0  0  0
 17 18  1  0  0  0  0
 17 39  1  0  0  0  0
 19 20  1  0  0  0  0
 20 21  2  0  0  0  0
 20 40  1  0  0  0  0
 21 22  1  0  0  0  0
 22 41  1  0  0  0  0
 22 42  1  0  0  0  0
 22 43  1  0  0  0  0
M  CHG  1  12   1
M  END
> <s_m_source_file>
AV-unprocessed.smi

> <i_m_source_file_index>
1224

> <i_lp_mmshare_version>
43012

> <i_f3d_flags>
0

> <s_epik_input>
W0NIM11jKFtjSF0xKWMoW0NIM10pW2NIXWMoYzEyKW4oW2NIXW4yKVtDSDJdW0NASF0oW09IXSlbQ0gyXVtOSF1bQ0gyXWMzW2NIXVtjSF1bY0hdczM=

> <s_epik_cmdline>
J2VwaWtfcHl0aG9uJywgJy1waCcsICc3LjAnLCAnLXRuJywgJzgnLCAnLW1hJywgJzIwMCcsICctbWV0YWxfYmluZGluZycsICctaW1hZScsICc8aW5maWxlLm1hZT4nLCAnLW9tYWUnLCAnPG91dGZpbGUubWFlPic=

> <r_epik_Ionization_Penalty>
0.145091

> <r_epik_Ionization_Penalty_Charging>
0.0551904

> <r_epik_Ionization_Penalty_Neutral>
0.0899003

> <r_epik_State_Penalty>
0.131364

> <r_epik_Charging_Adjusted_Penalty>
0.186554

> <i_epik_Tot_Q>
1

> <i_epik_Tot_abs_Q>
1

> <r_epik_Metal_State_Penalty>
0.0472291

> <b_epik_Metal_Only>
0

> <s_lp_Force_Field>
OPLS_2005

> <r_lp_Energy>
7.75101

> <b_lp_Chiralities_Consistent>
1

> <s_lp_Variant>
AV-unprocessed.smi:1224-2

> <Gold.Version>
5.8.1

> <Gold.Id.Protein>
6NUR|6NUR_protein|mol2

> <Gold.PLP.Fitness>
58.5334

> <Gold.PLP.PLP>
-46.5558

> <Gold.PLP.part.hbond>
-5.0000

> <Gold.PLP.part.metal>
0.0000

> <Gold.PLP.part.buried>
0.9109

> <Gold.PLP.part.nonpolar>
-41.1017

> <Gold.PLP.part.repulsive>
0.0868

> <Gold.PLP.ligand.clash>
0.0000

> <Gold.PLP.ligand.torsion>
0.4851

> <Gold.PLP.Chemscore.Hbond>
4.2898

> <Gold.PLP.Chemscore.CHOScore>
0.0000

> <Gold.PLP.Chemscore.Metal>
0.0000

> <Gold.Chemscore.Hbonds>
donor molecule, donor type, donor heavy atom, donor atom, acceptor molecule, acceptor atom, score
      L1  H    10    31       P1  7948  0.83
      L1  H    12    34       P1  7948  1.58
      L1  H    12    44       P1  7949  0.70
      P1  H  7997  8009       L1     5  0.95

> <Gold.PLP.Chemscore.Internal.Correction>
0.0786

> <Gold.Rescore>
     Score         DG    S(hbond)    S(metal)    S(lipo)     H(rot)  DE(clash)    DE(int)     intcor
     16.88     -18.60       1.39        0.00     125.42       2.42       0.07       1.66       ----

> <Gold.Chemscore.Fitness>
16.8782

> <Gold.Chemscore.DG>
-18.6048

> <Gold.Chemscore.ZeroCoef>
-5.4800

> <Gold.Chemscore.Hbond>
1.3940

> <Gold.Chemscore.Metal>
0.0000

> <Gold.Chemscore.Lipo>
125.4214

> <Gold.Chemscore.Internal_Hbond>
0.0000

> <Gold.Chemscore.DEClash>
0.0686

> <Gold.Chemscore.DEInternal>
1.6579

> <Gold.Chemscore.Rot>
2.4240

> <Gold.Chemscore.Internal.Correction>
   9.000000E+99

> <Gold.Chemscore.Hbonds>
donor molecule, donor type, donor heavy atom, donor atom, acceptor molecule, acceptor atom, score
      L1  H    10    31       P1  7948  0.74
      L1  H    12    34       P1  7948  0.13
      L1  H    12    44       P1  7949  0.25
      P1  H  7997  8009       L1     5  0.05

> <Gold.Chemscore.Hbond.Weighted>
-4.6560

> <Gold.Chemscore.Metal.Weighted>
-0.0000

> <Gold.Chemscore.Lipo.Weighted>
-14.6743

> <Gold.Chemscore.Internal_Hbond.Weighted>
0.0000

> <Gold.Chemscore.DEClash.Weighted>
0.0686

> <Gold.Chemscore.DEInternal.Weighted>
1.6579

> <Gold.Chemscore.Rot.Weighted>
6.2055

> <Gold.Chemscore.Internal.Correction.Weighted>
   9.000000E+99

> <Gold.Protein.RotatedTorsions>
[ 6907 6896 6895 6894 ] final  -83.50 input  -60.11 | X-H torsion
[ 7974 7965 7964 7962 ] final   74.08 input  175.53 | X-H torsion
[ 8008 7997 7996 7995 ] final  146.65 input   59.86 | X-H torsion
[ 10167 10162 10161 10158 ] final  -39.80 input  -65.29 | X-H torsion
[ 10718 10713 10712 10709 ] final  -10.97 input   66.30 | X-H torsion
[ 10763 10752 10751 10750 ] final   49.65 input  -60.55 | X-H torsion
[ 11005 11000 10999 10996 ] final   -7.82 input  -57.11 | X-H torsion

> <Gold.Protein.ActiveResidues>
 VAL166  LYS551  ARG553  GLY616  TRP617  ASP618  TYR619  PRO620  LYS621  CYS622 
 ASP623  PHE694  ASN695  SER759  ASP760  ASP761  ALA762  ILE779  LEU786  VAL792 
 PHE793  MET794  SER795  GLU796  ALA797  LYS798  CYS799  TRP800  GLU811  SER814 

> <Gold.Protein.RotatedAtoms>
  150.6885  134.3503  159.4905 H   0  0  0  0  0  0  0  0  0  0  0  0  # atno 6907 bound_to 6896
  152.1345  134.9107  160.0566 H   0  0  0  0  0  0  0  0  0  0  0  0  # atno 6908 bound_to 6896
  152.0264  133.3884  159.4316 H   0  0  0  0  0  0  0  0  0  0  0  0  # atno 6909 bound_to 6896
  145.7328  139.2690  143.1531 H   0  0  0  0  0  0  0  0  0  0  0  0  # atno 7974 bound_to 7965
  156.2849  140.2177  156.5411 H   0  0  0  0  0  0  0  0  0  0  0  0  # atno 8008 bound_to 7997
  154.7369  140.0491  157.0799 H   0  0  0  0  0  0  0  0  0  0  0  0  # atno 8009 bound_to 7997
  155.0281  140.3132  155.4772 H   0  0  0  0  0  0  0  0  0  0  0  0  # atno 8010 bound_to 7997
  140.7053  143.3192  151.2834 H   0  0  0  0  0  0  0  0  0  0  0  0  # atno 10167 bound_to 10162
  156.6657  130.4995  149.6016 H   0  0  0  0  0  0  0  0  0  0  0  0  # atno 10718 bound_to 10713
  152.9786  135.5905  154.4124 H   0  0  0  0  0  0  0  0  0  0  0  0  # atno 10763 bound_to 10752
  154.3757  135.2767  155.2242 H   0  0  0  0  0  0  0  0  0  0  0  0  # atno 10764 bound_to 10752
  154.4178  135.6066  153.6046 H   0  0  0  0  0  0  0  0  0  0  0  0  # atno 10765 bound_to 10752
  140.7169  133.8862  155.8791 H   0  0  0  0  0  0  0  0  0  0  0  0  # atno 11005 bound_to 11000
  146.0522  140.8058  142.9776 LP  0  0  0  0  0  0  0  0  0  0  0  0  # atno 17320 bound_to 7965
  144.6889  140.3069  143.7254 LP  0  0  0  0  0  0  0  0  0  0  0  0  # atno 17321 bound_to 7965
  139.6640  144.0138  152.2711 LP  0  0  0  0  0  0  0  0  0  0  0  0  # atno 17342 bound_to 10162
  139.9714  144.6491  150.7985 LP  0  0  0  0  0  0  0  0  0  0  0  0  # atno 17343 bound_to 10162
  156.1976  130.6600  151.1132 LP  0  0  0  0  0  0  0  0  0  0  0  0  # atno 17370 bound_to 10713
  157.7094  131.0741  150.6553 LP  0  0  0  0  0  0  0  0  0  0  0  0  # atno 17371 bound_to 10713
  141.0037  134.1115  157.4292 LP  0  0  0  0  0  0  0  0  0  0  0  0  # atno 17394 bound_to 11000
  139.8858  135.0075  156.6456 LP  0  0  0  0  0  0  0  0  0  0  0  0  # atno 17395 bound_to 11000

$$$$
