AV-unprocessed.smi:1703|AV-procd|sdf|6855|dock6
  -GOLD-   22720 8 33D 1   1.00000     0.00000
 Structure written by MMmdl.
 48 50  0  0  0  0  0  0  0  0  1 V2000
  146.1457  142.6902  156.8728 C   0  0  0  0  0  0  0  0  0  0  0  0
  145.2268  141.7698  156.0511 C   0  0  2  0  0  0  0  0  0  0  0  0
  145.9870  140.6581  155.3008 C   0  0  0  0  0  0  0  0  0  0  0  0
  146.7308  141.1573  154.1489 N   0  0  0  0  0  0  0  0  0  0  0  0
  147.4291  140.0640  153.4712 C   0  0  0  0  0  0  0  0  0  0  0  0
  148.7569  139.6182  154.1226 C   0  0  1  0  0  0  0  0  0  0  0  0
  149.3106  138.5814  153.3396 O   0  0  0  0  0  0  0  0  0  0  0  0
  149.8094  140.7425  154.2124 C   0  0  0  0  0  0  0  0  0  0  0  0
  150.6491  140.6458  155.3992 N   0  0  0  0  0  0  0  0  0  0  0  0
  151.6157  139.7323  155.6696 C   0  0  0  0  0  0  0  0  0  0  0  0
  151.9787  138.6409  154.7098 C   0  0  0  0  0  0  0  0  0  0  0  0
  151.7897  137.3527  155.2547 O   0  0  0  0  0  0  0  0  0  0  0  0
  152.2340  139.8714  156.8429 N   0  0  0  0  0  0  0  0  0  0  0  0
  151.6196  140.9855  157.3803 C   0  0  0  0  0  0  0  0  0  0  0  0
  151.8309  141.6458  158.6117 C   0  0  0  0  0  0  0  0  0  0  0  0
  151.0709  142.7845  158.9508 C   0  0  0  0  0  0  0  0  0  0  0  0
  150.0915  143.2786  158.0650 C   0  0  0  0  0  0  0  0  0  0  0  0
  149.8651  142.6356  156.8330 C   0  0  0  0  0  0  0  0  0  0  0  0
  150.6254  141.4983  156.4995 C   0  0  0  0  0  0  0  0  0  0  0  0
  145.8098  141.8699  153.2675 C   0  0  0  0  0  0  0  0  0  0  0  0
  145.0895  143.0199  153.9951 C   0  0  1  0  0  0  0  0  0  0  0  0
  144.0562  143.7107  153.0990 C   0  0  0  0  0  0  0  0  0  0  0  0
  144.4110  142.5090  155.1411 O   0  0  0  0  0  0  0  0  0  0  0  0
  146.6765  142.1239  157.6384 H   0  0  0  0  0  0  0  0  0  0  0  0
  145.5685  143.4656  157.3766 H   0  0  0  0  0  0  0  0  0  0  0  0
  146.8959  143.1813  156.2533 H   0  0  0  0  0  0  0  0  0  0  0  0
  144.5441  141.2922  156.7546 H   0  0  0  0  0  0  0  0  0  0  0  0
  146.6625  140.1512  155.9911 H   0  0  0  0  0  0  0  0  0  0  0  0
  145.2696  139.9060  154.9684 H   0  0  0  0  0  0  0  0  0  0  0  0
  146.7733  139.1934  153.4208 H   0  0  0  0  0  0  0  0  0  0  0  0
  147.6076  140.3585  152.4369 H   0  0  0  0  0  0  0  0  0  0  0  0
  148.5810  139.2277  155.1230 H   0  0  0  0  0  0  0  0  0  0  0  0
  149.4149  138.9012  152.4562 H   0  0  0  0  0  0  0  0  0  0  0  0
  150.4488  140.7356  153.3291 H   0  0  0  0  0  0  0  0  0  0  0  0
  149.3185  141.7166  154.2176 H   0  0  0  0  0  0  0  0  0  0  0  0
  151.3654  138.7324  153.8126 H   0  0  0  0  0  0  0  0  0  0  0  0
  153.0146  138.7509  154.3916 H   0  0  0  0  0  0  0  0  0  0  0  0
  150.9934  137.3555  155.7631 H   0  0  0  0  0  0  0  0  0  0  0  0
  152.5794  141.2757  159.2965 H   0  0  0  0  0  0  0  0  0  0  0  0
  151.2404  143.2816  159.8947 H   0  0  0  0  0  0  0  0  0  0  0  0
  149.5139  144.1516  158.3321 H   0  0  0  0  0  0  0  0  0  0  0  0
  149.1138  143.0109  156.1542 H   0  0  0  0  0  0  0  0  0  0  0  0
  146.3437  142.2863  152.4146 H   0  0  0  0  0  0  0  0  0  0  0  0
  145.0723  141.1739  152.8642 H   0  0  0  0  0  0  0  0  0  0  0  0
  145.8207  143.7648  154.3106 H   0  0  0  0  0  0  0  0  0  0  0  0
  144.5275  144.1360  152.2126 H   0  0  0  0  0  0  0  0  0  0  0  0
  143.5584  144.5214  153.6318 H   0  0  0  0  0  0  0  0  0  0  0  0
  143.2898  143.0097  152.7675 H   0  0  0  0  0  0  0  0  0  0  0  0
  1  2  1  0  0  0  0
  1 24  1  0  0  0  0
  1 25  1  0  0  0  0
  1 26  1  0  0  0  0
  2 23  1  0  0  0  0
  2  3  1  0  0  0  0
  2 27  1  0  0  0  0
  3  4  1  0  0  0  0
  3 28  1  0  0  0  0
  3 29  1  0  0  0  0
  4  5  1  0  0  0  0
  4 20  1  0  0  0  0
  5  6  1  0  0  0  0
  5 30  1  0  0  0  0
  5 31  1  0  0  0  0
  6  7  1  0  0  0  0
  6  8  1  0  0  0  0
  6 32  1  0  0  0  0
  7 33  1  0  0  0  0
  8  9  1  0  0  0  0
  8 34  1  0  0  0  0
  8 35  1  0  0  0  0
  9 19  1  0  0  0  0
  9 10  1  0  0  0  0
 10 11  1  0  0  0  0
 10 13  2  0  0  0  0
 11 12  1  0  0  0  0
 11 36  1  0  0  0  0
 11 37  1  0  0  0  0
 12 38  1  0  0  0  0
 13 14  1  0  0  0  0
 14 19  2  0  0  0  0
 14 15  1  0  0  0  0
 15 16  2  0  0  0  0
 15 39  1  0  0  0  0
 16 17  1  0  0  0  0
 16 40  1  0  0  0  0
 17 18  2  0  0  0  0
 17 41  1  0  0  0  0
 18 19  1  0  0  0  0
 18 42  1  0  0  0  0
 20 21  1  0  0  0  0
 20 43  1  0  0  0  0
 20 44  1  0  0  0  0
 21 22  1  0  0  0  0
 21 23  1  0  0  0  0
 21 45  1  0  0  0  0
 22 46  1  0  0  0  0
 22 47  1  0  0  0  0
 22 48  1  0  0  0  0
M  END
> <s_m_source_file>
AV-unprocessed.smi

> <i_m_source_file_index>
1703

> <i_lp_mmshare_version>
43012

> <i_f3d_flags>
0

> <s_epik_input>
W0NIM11bQ0BASF0xW0NIMl1OKFtDSDJdW0NASF0oTzEpW0NIM10pW0NIMl1bQ0BIXShbT0hdKVtDSDJdbihjKG4yKVtDSDJdW09IXSljKGMyMylbY0hdW2NIXVtjSF1bY0hdMw==

> <s_epik_cmdline>
J2VwaWtfcHl0aG9uJywgJy1waCcsICc3LjAnLCAnLXRuJywgJzgnLCAnLW1hJywgJzIwMCcsICctbWV0YWxfYmluZGluZycsICctaW1hZScsICc8aW5maWxlLm1hZT4nLCAnLW9tYWUnLCAnPG91dGZpbGUubWFlPic=

> <r_epik_Ionization_Penalty>
0.307685

> <r_epik_Ionization_Penalty_Charging>
0

> <r_epik_Ionization_Penalty_Neutral>
0.307685

> <r_epik_State_Penalty>
0.277856

> <r_epik_Charging_Adjusted_Penalty>
0.277856

> <i_epik_Tot_Q>
0

> <i_epik_Tot_abs_Q>
0

> <r_epik_Metal_State_Penalty>
0.238959

> <b_epik_Metal_Only>
0

> <s_lp_Force_Field>
OPLS_2005

> <r_lp_Energy>
33.3157

> <b_lp_Chiralities_Consistent>
1

> <s_lp_Variant>
AV-unprocessed.smi:1703-3

> <Gold.Version>
5.8.1

> <Gold.Id.Protein>
6NUR|6NUR_protein|mol2

> <Gold.PLP.Fitness>
48.6791

> <Gold.PLP.PLP>
-41.1508

> <Gold.PLP.part.hbond>
-4.0000

> <Gold.PLP.part.metal>
0.0000

> <Gold.PLP.part.buried>
-3.3187

> <Gold.PLP.part.nonpolar>
-34.2302

> <Gold.PLP.part.repulsive>
0.2429

> <Gold.PLP.ligand.clash>
0.0012

> <Gold.PLP.ligand.torsion>
0.7628

> <Gold.PLP.Chemscore.Hbond>
3.0000

> <Gold.PLP.Chemscore.CHOScore>
0.0000

> <Gold.PLP.Chemscore.Metal>
0.0000

> <Gold.Chemscore.Hbonds>
donor molecule, donor type, donor heavy atom, donor atom, acceptor molecule, acceptor atom, score
      L1  H     7    33       P1  7957  1.00
      P1  H  7997  8009       L1    13  0.55
      P1  H 10752 10765       L1    12  0.59

> <Gold.PLP.Chemscore.Internal.Correction>
0.0552

> <Gold.Rescore>
     Score         DG    S(hbond)    S(metal)    S(lipo)     H(rot)  DE(clash)    DE(int)     intcor
     13.71     -16.22       2.12        0.00      94.24       2.88       1.56       0.94       ----

> <Gold.Chemscore.Fitness>
13.7088

> <Gold.Chemscore.DG>
-16.2158

> <Gold.Chemscore.ZeroCoef>
-5.4800

> <Gold.Chemscore.Hbond>
2.1188

> <Gold.Chemscore.Metal>
0.0000

> <Gold.Chemscore.Lipo>
94.2412

> <Gold.Chemscore.Internal_Hbond>
0.0000

> <Gold.Chemscore.DEClash>
1.5626

> <Gold.Chemscore.DEInternal>
0.9444

> <Gold.Chemscore.Rot>
2.8778

> <Gold.Chemscore.Internal.Correction>
   9.000000E+99

> <Gold.Chemscore.Hbonds>
donor molecule, donor type, donor heavy atom, donor atom, acceptor molecule, acceptor atom, score
      L1  H     7    33       P1  7957  0.88
      P1  H  7997  8009       L1    13  0.19
      P1  H 10752 10765       L1    12  0.56

> <Gold.Chemscore.Hbond.Weighted>
-7.0767

> <Gold.Chemscore.Metal.Weighted>
-0.0000

> <Gold.Chemscore.Lipo.Weighted>
-11.0262

> <Gold.Chemscore.Internal_Hbond.Weighted>
0.0000

> <Gold.Chemscore.DEClash.Weighted>
1.5626

> <Gold.Chemscore.DEInternal.Weighted>
0.9444

> <Gold.Chemscore.Rot.Weighted>
7.3671

> <Gold.Chemscore.Internal.Correction.Weighted>
   9.000000E+99

> <Gold.Protein.RotatedTorsions>
[ 6907 6896 6895 6894 ] final   59.83 input  -60.11 | X-H torsion
[ 7974 7965 7964 7962 ] final  -62.32 input  175.53 | X-H torsion
[ 8008 7997 7996 7995 ] final -155.49 input   59.86 | X-H torsion
[ 10167 10162 10161 10158 ] final  123.89 input  -65.29 | X-H torsion
[ 10718 10713 10712 10709 ] final -110.14 input   66.30 | X-H torsion
[ 10763 10752 10751 10750 ] final -178.67 input  -60.55 | X-H torsion
[ 11005 11000 10999 10996 ] final  124.78 input  -57.11 | X-H torsion

> <Gold.Protein.ActiveResidues>
 VAL166  LYS551  ARG553  GLY616  TRP617  ASP618  TYR619  PRO620  LYS621  CYS622 
 ASP623  PHE694  ASN695  SER759  ASP760  ASP761  ALA762  ILE779  LEU786  VAL792 
 PHE793  MET794  SER795  GLU796  ALA797  LYS798  CYS799  TRP800  GLU811  SER814 

> <Gold.Protein.RotatedAtoms>
  152.3949  134.6381  160.0092 H   0  0  0  0  0  0  0  0  0  0  0  0  # atno 6907 bound_to 6896
  151.6604  133.3311  159.3180 H   0  0  0  0  0  0  0  0  0  0  0  0  # atno 6908 bound_to 6896
  150.7858  134.6886  159.6528 H   0  0  0  0  0  0  0  0  0  0  0  0  # atno 6909 bound_to 6896
  145.7927  140.8700  143.0272 H   0  0  0  0  0  0  0  0  0  0  0  0  # atno 7974 bound_to 7965
  155.7027  140.0768  157.2404 H   0  0  0  0  0  0  0  0  0  0  0  0  # atno 8008 bound_to 7997
  154.4070  140.1644  156.2262 H   0  0  0  0  0  0  0  0  0  0  0  0  # atno 8009 bound_to 7997
  155.9354  140.3388  155.6286 H   0  0  0  0  0  0  0  0  0  0  0  0  # atno 8010 bound_to 7997
  139.5773  144.6969  151.3620 H   0  0  0  0  0  0  0  0  0  0  0  0  # atno 10167 bound_to 10162
  156.0574  130.5800  150.8196 H   0  0  0  0  0  0  0  0  0  0  0  0  # atno 10718 bound_to 10713
  154.5448  135.2808  155.1063 H   0  0  0  0  0  0  0  0  0  0  0  0  # atno 10763 bound_to 10752
  154.2532  135.6335  153.5251 H   0  0  0  0  0  0  0  0  0  0  0  0  # atno 10764 bound_to 10752
  152.9988  135.5587  154.5997 H   0  0  0  0  0  0  0  0  0  0  0  0  # atno 10765 bound_to 10752
  139.9375  134.9638  156.8461 H   0  0  0  0  0  0  0  0  0  0  0  0  # atno 11005 bound_to 11000
  144.6779  140.0147  143.7484 LP  0  0  0  0  0  0  0  0  0  0  0  0  # atno 17320 bound_to 7965
  145.9960  139.3052  143.0956 LP  0  0  0  0  0  0  0  0  0  0  0  0  # atno 17321 bound_to 7965
  140.7054  143.7526  150.7474 LP  0  0  0  0  0  0  0  0  0  0  0  0  # atno 17342 bound_to 10162
  140.1049  143.4753  152.2404 LP  0  0  0  0  0  0  0  0  0  0  0  0  # atno 17343 bound_to 10162
  157.5556  131.0945  150.9633 LP  0  0  0  0  0  0  0  0  0  0  0  0  # atno 17370 bound_to 10713
  156.9883  130.5553  149.5301 LP  0  0  0  0  0  0  0  0  0  0  0  0  # atno 17371 bound_to 10713
  140.6038  134.0147  155.7548 LP  0  0  0  0  0  0  0  0  0  0  0  0  # atno 17394 bound_to 11000
  141.0995  133.9790  157.3103 LP  0  0  0  0  0  0  0  0  0  0  0  0  # atno 17395 bound_to 11000

$$$$
