AV-unprocessed.smi:2289|AV-procd|sdf|9208|dock1
  -GOLD-   2272012423D 1   1.00000     0.00000
 Structure written by MMmdl.
 40 41  0  0  0  0  0  0  0  0  1 V2000
  146.3466  142.4274  153.4344 C   0  0  0  0  0  0  0  0  0  0  0  0
  147.2863  141.8297  154.4665 C   0  0  0  0  0  0  0  0  0  0  0  0
  148.5637  141.5036  154.0029 N   0  0  0  0  0  0  0  0  0  0  0  0
  149.4294  140.9851  154.8109 C   0  0  0  0  0  0  0  0  0  0  0  0
  149.1252  140.7312  156.1586 N   0  0  0  0  0  0  0  0  0  0  0  0
  150.2160  140.1436  156.9603 C   0  0  0  0  0  0  0  0  0  0  0  0
  151.6025  140.8051  156.7457 C   0  0  2  0  0  0  0  0  0  0  0  0
  152.2740  140.1346  155.6973 O   0  0  0  0  0  0  0  0  0  0  0  0
  152.5101  140.9019  157.9929 C   0  0  0  0  0  0  0  0  0  0  0  0
  152.2561  142.1578  158.8175 C   0  0  0  0  0  0  0  0  0  0  0  0
  151.4272  143.1555  158.2596 C   0  0  0  0  0  0  0  0  0  0  0  0
  151.1497  144.3390  158.9660 C   0  0  0  0  0  0  0  0  0  0  0  0
  151.7051  144.5366  160.2411 C   0  0  0  0  0  0  0  0  0  0  0  0
  152.5357  143.5513  160.8057 C   0  0  0  0  0  0  0  0  0  0  0  0
  152.8213  142.3526  160.1094 C   0  0  0  0  0  0  0  0  0  0  0  0
  153.7388  141.3142  160.7589 C   0  0  0  0  0  0  0  0  0  0  0  0
  154.0732  141.6627  162.0021 F   0  0  0  0  0  0  0  0  0  0  0  0
  153.1427  140.1241  160.8259 F   0  0  0  0  0  0  0  0  0  0  0  0
  154.8630  141.2009  160.0516 F   0  0  0  0  0  0  0  0  0  0  0  0
  147.9057  141.0319  156.6951 C   0  0  0  0  0  0  0  0  0  0  0  0
  147.6458  140.8160  157.8806 O   0  0  0  0  0  0  0  0  0  0  0  0
  146.9292  141.6178  155.7626 C   0  0  0  0  0  0  0  0  0  0  0  0
  145.5527  141.9534  156.3233 C   0  0  0  0  0  0  0  0  0  0  0  0
  146.0451  143.4326  153.7301 H   0  0  0  0  0  0  0  0  0  0  0  0
  145.4534  141.8114  153.3278 H   0  0  0  0  0  0  0  0  0  0  0  0
  146.8223  142.4951  152.4552 H   0  0  0  0  0  0  0  0  0  0  0  0
  150.4398  140.7133  154.5006 H   0  0  0  0  0  0  0  0  0  0  0  0
  149.9531  140.1438  158.0203 H   0  0  0  0  0  0  0  0  0  0  0  0
  150.3131  139.0828  156.7247 H   0  0  0  0  0  0  0  0  0  0  0  0
  151.4115  141.8135  156.3768 H   0  0  0  0  0  0  0  0  0  0  0  0
  151.7631  139.3801  155.4467 H   0  0  0  0  0  0  0  0  0  0  0  0
  152.3623  140.0344  158.6305 H   0  0  0  0  0  0  0  0  0  0  0  0
  153.5607  140.8640  157.7008 H   0  0  0  0  0  0  0  0  0  0  0  0
  150.9954  143.0120  157.2797 H   0  0  0  0  0  0  0  0  0  0  0  0
  150.5125  145.0938  158.5289 H   0  0  0  0  0  0  0  0  0  0  0  0
  151.4964  145.4450  160.7864 H   0  0  0  0  0  0  0  0  0  0  0  0
  152.9534  143.7324  161.7846 H   0  0  0  0  0  0  0  0  0  0  0  0
  145.0760  141.0534  156.7129 H   0  0  0  0  0  0  0  0  0  0  0  0
  144.8812  142.3858  155.5834 H   0  0  0  0  0  0  0  0  0  0  0  0
  145.6438  142.6690  157.1411 H   0  0  0  0  0  0  0  0  0  0  0  0
  1  2  1  0  0  0  0
  1 24  1  0  0  0  0
  1 25  1  0  0  0  0
  1 26  1  0  0  0  0
  2 22  2  0  0  0  0
  2  3  1  0  0  0  0
  3  4  2  0  0  0  0
  4  5  1  0  0  0  0
  4 27  1  0  0  0  0
  5  6  1  0  0  0  0
  5 20  1  0  0  0  0
  6  7  1  0  0  0  0
  6 28  1  0  0  0  0
  6 29  1  0  0  0  0
  7  8  1  0  0  0  0
  7  9  1  0  0  0  0
  7 30  1  0  0  0  0
  8 31  1  0  0  0  0
  9 10  1  0  0  0  0
  9 32  1  0  0  0  0
  9 33  1  0  0  0  0
 10 15  1  0  0  0  0
 10 11  2  0  0  0  0
 11 12  1  0  0  0  0
 11 34  1  0  0  0  0
 12 13  2  0  0  0  0
 12 35  1  0  0  0  0
 13 14  1  0  0  0  0
 13 36  1  0  0  0  0
 14 15  2  0  0  0  0
 14 37  1  0  0  0  0
 15 16  1  0  0  0  0
 16 17  1  0  0  0  0
 16 18  1  0  0  0  0
 16 19  1  0  0  0  0
 20 21  2  0  0  0  0
 20 22  1  0  0  0  0
 22 23  1  0  0  0  0
 23 38  1  0  0  0  0
 23 39  1  0  0  0  0
 23 40  1  0  0  0  0
M  END
> <s_m_source_file>
AV-unprocessed.smi

> <i_m_source_file_index>
2289

> <i_lp_mmshare_version>
43012

> <i_f3d_flags>
0

> <s_epik_input>
W0NIM11jMW5bY0hdbihjKD1PKWMxW0NIM10pW0NIMl1bQ0BIXShbT0hdKVtDSDJdYzJbY0hdW2NIXVtjSF1bY0hdYzJDKEYpKEYpRg==

> <s_epik_cmdline>
J2VwaWtfcHl0aG9uJywgJy1waCcsICc3LjAnLCAnLXRuJywgJzgnLCAnLW1hJywgJzIwMCcsICctbWV0YWxfYmluZGluZycsICctaW1hZScsICc8aW5maWxlLm1hZT4nLCAnLW9tYWUnLCAnPG91dGZpbGUubWFlPic=

> <r_lp_tautomer_probability>
1

> <r_epik_Ionization_Penalty>
8.92636e-05

> <r_epik_Ionization_Penalty_Charging>
8.63033e-08

> <r_epik_Ionization_Penalty_Neutral>
8.91773e-05

> <r_epik_State_Penalty>
-0

> <r_epik_Charging_Adjusted_Penalty>
8.63033e-08

> <i_epik_Tot_Q>
0

> <i_epik_Tot_abs_Q>
0

> <r_epik_Metal_State_Penalty>
-0

> <b_epik_Metal_Only>
0

> <s_lp_Force_Field>
OPLS_2005

> <r_lp_Energy>
23.7682

> <b_lp_Chiralities_Consistent>
1

> <s_lp_Variant>
AV-unprocessed.smi:2289-1

> <Gold.Version>
5.8.1

> <Gold.Id.Protein>
6NUR|6NUR_protein|mol2

> <Gold.PLP.Fitness>
47.2241

> <Gold.PLP.PLP>
-45.2312

> <Gold.PLP.part.hbond>
-2.3678

> <Gold.PLP.part.metal>
0.0000

> <Gold.PLP.part.buried>
-4.4760

> <Gold.PLP.part.nonpolar>
-36.7277

> <Gold.PLP.part.repulsive>
0.2087

> <Gold.PLP.ligand.clash>
1.3252

> <Gold.PLP.ligand.torsion>
1.1390

> <Gold.PLP.Chemscore.Hbond>
1.3614

> <Gold.PLP.Chemscore.CHOScore>
0.0000

> <Gold.PLP.Chemscore.Metal>
0.0000

> <Gold.Chemscore.Hbonds>
donor molecule, donor type, donor heavy atom, donor atom, acceptor molecule, acceptor atom, score
      P1  H  7989  7998       L1     8  0.01
      P1  H  7997  8009       L1     8  0.76
      P1  H  8011  8017       L1     3  0.28

> <Gold.PLP.Chemscore.Internal.Correction>
1.5120

> <Gold.Rescore>
     Score         DG    S(hbond)    S(metal)    S(lipo)     H(rot)  DE(clash)    DE(int)     intcor
     11.65     -15.35       0.94        0.00     109.42       2.37       0.82       2.88       ----

> <Gold.Chemscore.Fitness>
11.6503

> <Gold.Chemscore.DG>
-15.3467

> <Gold.Chemscore.ZeroCoef>
-5.4800

> <Gold.Chemscore.Hbond>
0.9363

> <Gold.Chemscore.Metal>
0.0000

> <Gold.Chemscore.Lipo>
109.4180

> <Gold.Chemscore.Internal_Hbond>
0.0000

> <Gold.Chemscore.DEClash>
0.8179

> <Gold.Chemscore.DEInternal>
2.8785

> <Gold.Chemscore.Rot>
2.3681

> <Gold.Chemscore.Internal.Correction>
   9.000000E+99

> <Gold.Chemscore.Hbonds>
donor molecule, donor type, donor heavy atom, donor atom, acceptor molecule, acceptor atom, score
      P1  H  7997  8009       L1     8  0.45
      P1  H  8011  8017       L1     3  0.14

> <Gold.Chemscore.Hbond.Weighted>
-3.1272

> <Gold.Chemscore.Metal.Weighted>
-0.0000

> <Gold.Chemscore.Lipo.Weighted>
-12.8019

> <Gold.Chemscore.Internal_Hbond.Weighted>
0.0000

> <Gold.Chemscore.DEClash.Weighted>
0.8179

> <Gold.Chemscore.DEInternal.Weighted>
2.8785

> <Gold.Chemscore.Rot.Weighted>
6.0624

> <Gold.Chemscore.Internal.Correction.Weighted>
   9.000000E+99

> <Gold.Protein.RotatedTorsions>
[ 6907 6896 6895 6894 ] final   19.88 input  -60.11 | X-H torsion
[ 7974 7965 7964 7962 ] final  -22.05 input  175.53 | X-H torsion
[ 8008 7997 7996 7995 ] final -151.20 input   59.86 | X-H torsion
[ 10167 10162 10161 10158 ] final   88.90 input  -65.29 | X-H torsion
[ 10718 10713 10712 10709 ] final  -70.02 input   66.30 | X-H torsion
[ 10763 10752 10751 10750 ] final  -31.83 input  -60.55 | X-H torsion
[ 11005 11000 10999 10996 ] final  142.13 input  -57.11 | X-H torsion

> <Gold.Protein.ActiveResidues>
 VAL166  LYS551  ARG553  GLY616  TRP617  ASP618  TYR619  PRO620  LYS621  CYS622 
 ASP623  PHE694  ASN695  SER759  ASP760  ASP761  ALA762  ILE779  LEU786  VAL792 
 PHE793  MET794  SER795  GLU796  ALA797  LYS798  CYS799  TRP800  GLU811  SER814 

> <Gold.Protein.RotatedAtoms>
  151.8878  135.0428  160.0494 H   0  0  0  0  0  0  0  0  0  0  0  0  # atno 6907 bound_to 6896
  152.2461  133.5171  159.5306 H   0  0  0  0  0  0  0  0  0  0  0  0  # atno 6908 bound_to 6896
  150.7068  134.0940  159.3984 H   0  0  0  0  0  0  0  0  0  0  0  0  # atno 6909 bound_to 6896
  146.1698  140.4426  142.8537 H   0  0  0  0  0  0  0  0  0  0  0  0  # atno 7974 bound_to 7965
  155.6356  140.0696  157.2635 H   0  0  0  0  0  0  0  0  0  0  0  0  # atno 8008 bound_to 7997
  154.4195  140.1759  156.1568 H   0  0  0  0  0  0  0  0  0  0  0  0  # atno 8009 bound_to 7997
  155.9897  140.3346  155.6744 H   0  0  0  0  0  0  0  0  0  0  0  0  # atno 8010 bound_to 7997
  139.8627  144.6535  150.9040 H   0  0  0  0  0  0  0  0  0  0  0  0  # atno 10167 bound_to 10162
  156.0427  130.4323  150.2234 H   0  0  0  0  0  0  0  0  0  0  0  0  # atno 10718 bound_to 10713
  153.8038  135.6888  153.4851 H   0  0  0  0  0  0  0  0  0  0  0  0  # atno 10763 bound_to 10752
  153.1672  135.4557  154.9851 H   0  0  0  0  0  0  0  0  0  0  0  0  # atno 10764 bound_to 10752
  154.7996  135.3332  154.7524 H   0  0  0  0  0  0  0  0  0  0  0  0  # atno 10765 bound_to 10752
  140.0453  134.9283  157.0919 H   0  0  0  0  0  0  0  0  0  0  0  0  # atno 11005 bound_to 11000
  144.8146  140.6445  143.6393 LP  0  0  0  0  0  0  0  0  0  0  0  0  # atno 17320 bound_to 7965
  145.4371  139.1541  143.3990 LP  0  0  0  0  0  0  0  0  0  0  0  0  # atno 17321 bound_to 7965
  140.7773  143.3731  151.1613 LP  0  0  0  0  0  0  0  0  0  0  0  0  # atno 17342 bound_to 10162
  139.7359  143.9000  152.3034 LP  0  0  0  0  0  0  0  0  0  0  0  0  # atno 17343 bound_to 10162
  157.0327  131.0012  151.3307 LP  0  0  0  0  0  0  0  0  0  0  0  0  # atno 17370 bound_to 10713
  157.5265  130.8031  149.7868 LP  0  0  0  0  0  0  0  0  0  0  0  0  # atno 17371 bound_to 10713
  140.4003  134.2090  155.7163 LP  0  0  0  0  0  0  0  0  0  0  0  0  # atno 17394 bound_to 11000
  141.1904  133.8218  157.0920 LP  0  0  0  0  0  0  0  0  0  0  0  0  # atno 17395 bound_to 11000

$$$$
