AV-unprocessed.smi:1999|AV-procd|sdf|8093|dock1
  -GOLD-   2272010313D 1   1.00000     0.00000
 Structure written by MMmdl.
 38 39  0  0  0  0  0  0  0  0  1 V2000
  137.5704  137.2231  154.6378 C   0  0  0  0  0  0  0  0  0  0  0  0
  139.0561  137.3197  154.5721 C   0  0  0  0  0  0  0  0  0  0  0  0
  139.8633  136.3499  155.0183 N   0  0  0  0  0  0  0  0  0  0  0  0
  141.2050  136.6624  154.8491 N   0  0  0  0  0  0  0  0  0  0  0  0
  141.3701  137.8625  154.2759 C   0  0  0  0  0  0  0  0  0  0  0  0
  142.6385  138.4320  153.9875 N   0  0  0  0  0  0  0  0  0  0  0  0
  143.8572  137.9061  154.2033 C   0  0  0  0  0  0  0  0  0  0  0  0
  144.0782  136.7992  154.6952 O   0  0  0  0  0  0  0  0  0  0  0  0
  144.8238  138.7476  153.8074 N   0  0  0  0  0  0  0  0  0  0  0  0
  146.2593  138.4947  153.8959 C   0  0  1  0  0  0  0  0  0  0  0  0
  146.7384  137.7833  152.6187 C   0  0  0  0  0  0  0  0  0  0  0  0
  146.9821  139.8385  154.1234 C   0  0  0  0  0  0  0  0  0  0  0  0
  148.2976  139.7557  154.7595 N   0  0  0  0  0  0  0  0  0  0  0  0
  148.9307  141.0630  154.9249 C   0  0  0  0  0  0  0  0  0  0  0  0
  150.3253  140.9489  155.5655 C   0  0  0  0  0  0  0  0  0  0  0  0
  151.1428  140.0818  154.7866 O   0  0  0  0  0  0  0  0  0  0  0  0
  150.5813  138.7814  154.6447 C   0  0  0  0  0  0  0  0  0  0  0  0
  149.1908  138.8909  153.9960 C   0  0  0  0  0  0  0  0  0  0  0  0
  139.8845  138.7166  153.8949 S   0  0  0  0  0  0  0  0  0  0  0  0
  137.2645  136.6708  155.5268 H   0  0  0  0  0  0  0  0  0  0  0  0
  137.1916  136.7068  153.7558 H   0  0  0  0  0  0  0  0  0  0  0  0
  137.1288  138.2189  154.6781 H   0  0  0  0  0  0  0  0  0  0  0  0
  142.6147  139.3495  153.5679 H   0  0  0  0  0  0  0  0  0  0  0  0
  144.5465  139.6342  153.4127 H   0  0  0  0  0  0  0  0  0  0  0  0
  146.4390  137.8428  154.7512 H   0  0  0  0  0  0  0  0  0  0  0  0
  147.8023  137.5511  152.6715 H   0  0  0  0  0  0  0  0  0  0  0  0
  146.5766  138.4014  151.7350 H   0  0  0  0  0  0  0  0  0  0  0  0
  146.2090  136.8419  152.4685 H   0  0  0  0  0  0  0  0  0  0  0  0
  147.0912  140.3258  153.1534 H   0  0  0  0  0  0  0  0  0  0  0  0
  146.3407  140.4957  154.7131 H   0  0  0  0  0  0  0  0  0  0  0  0
  149.0172  141.5581  153.9566 H   0  0  0  0  0  0  0  0  0  0  0  0
  148.3160  141.7065  155.5529 H   0  0  0  0  0  0  0  0  0  0  0  0
  150.7983  141.9293  155.6220 H   0  0  0  0  0  0  0  0  0  0  0  0
  150.2507  140.5696  156.5859 H   0  0  0  0  0  0  0  0  0  0  0  0
  151.2419  138.1734  154.0263 H   0  0  0  0  0  0  0  0  0  0  0  0
  150.5165  138.2959  155.6197 H   0  0  0  0  0  0  0  0  0  0  0  0
  148.7564  137.8945  153.9085 H   0  0  0  0  0  0  0  0  0  0  0  0
  149.2978  139.2746  152.9802 H   0  0  0  0  0  0  0  0  0  0  0  0
  1  2  1  0  0  0  0
  1 20  1  0  0  0  0
  1 21  1  0  0  0  0
  1 22  1  0  0  0  0
  2 19  1  0  0  0  0
  2  3  2  0  0  0  0
  3  4  1  0  0  0  0
  4  5  2  0  0  0  0
  5  6  1  0  0  0  0
  5 19  1  0  0  0  0
  6  7  1  0  0  0  0
  6 23  1  0  0  0  0
  7  8  2  0  0  0  0
  7  9  1  0  0  0  0
  9 10  1  0  0  0  0
  9 24  1  0  0  0  0
 10 11  1  0  0  0  0
 10 12  1  0  0  0  0
 10 25  1  0  0  0  0
 11 26  1  0  0  0  0
 11 27  1  0  0  0  0
 11 28  1  0  0  0  0
 12 13  1  0  0  0  0
 12 29  1  0  0  0  0
 12 30  1  0  0  0  0
 13 18  1  0  0  0  0
 13 14  1  0  0  0  0
 14 15  1  0  0  0  0
 14 31  1  0  0  0  0
 14 32  1  0  0  0  0
 15 16  1  0  0  0  0
 15 33  1  0  0  0  0
 15 34  1  0  0  0  0
 16 17  1  0  0  0  0
 17 18  1  0  0  0  0
 17 35  1  0  0  0  0
 17 36  1  0  0  0  0
 18 37  1  0  0  0  0
 18 38  1  0  0  0  0
M  END
> <s_m_source_file>
AV-unprocessed.smi

> <i_m_source_file_index>
1999

> <i_lp_mmshare_version>
43012

> <i_f3d_flags>
0

> <s_epik_input>
W0NIM11jMW5uYyhzMSlbTkhdQyg9TylbTkhdW0NASF0oW0NIM10pW0NIMl1OMltDSDJdW0NIMl1PW0NIMl1bQ0gyXTI=

> <s_epik_cmdline>
J2VwaWtfcHl0aG9uJywgJy1waCcsICc3LjAnLCAnLXRuJywgJzgnLCAnLW1hJywgJzIwMCcsICctbWV0YWxfYmluZGluZycsICctaW1hZScsICc8aW5maWxlLm1hZT4nLCAnLW9tYWUnLCAnPG91dGZpbGUubWFlPic=

> <r_lp_tautomer_probability>
1

> <r_epik_Ionization_Penalty>
0.221412

> <r_epik_Ionization_Penalty_Charging>
0

> <r_epik_Ionization_Penalty_Neutral>
0.221412

> <r_epik_State_Penalty>
0.209349

> <r_epik_Charging_Adjusted_Penalty>
0.209349

> <i_epik_Tot_Q>
0

> <i_epik_Tot_abs_Q>
0

> <r_epik_Metal_State_Penalty>
0.56886

> <b_epik_Metal_Only>
0

> <s_lp_Force_Field>
OPLS_2005

> <r_lp_Energy>
22.0732

> <b_lp_Chiralities_Consistent>
1

> <s_lp_Variant>
AV-unprocessed.smi:1999-2

> <Gold.Version>
5.8.1

> <Gold.Id.Protein>
6NUR|6NUR_protein|mol2

> <Gold.PLP.Fitness>
35.5457

> <Gold.PLP.PLP>
-25.2371

> <Gold.PLP.part.hbond>
-4.1135

> <Gold.PLP.part.metal>
0.0000

> <Gold.PLP.part.buried>
-0.7664

> <Gold.PLP.part.nonpolar>
-20.8414

> <Gold.PLP.part.repulsive>
0.2574

> <Gold.PLP.ligand.clash>
0.0000

> <Gold.PLP.ligand.torsion>
0.6187

> <Gold.PLP.Chemscore.Hbond>
3.8320

> <Gold.PLP.Chemscore.CHOScore>
0.0000

> <Gold.PLP.Chemscore.Metal>
0.0000

> <Gold.Chemscore.Hbonds>
donor molecule, donor type, donor heavy atom, donor atom, acceptor molecule, acceptor atom, score
      L1  H     6    23       P1 10175  0.83
      L1  H     9    24       P1 10175  0.99
      P1  H  7989  7998       L1    16  1.00
      P1  H 11000 11005       L1     3  1.00

> <Gold.PLP.Chemscore.Internal.Correction>
0.0502

> <Gold.Rescore>
     Score         DG    S(hbond)    S(metal)    S(lipo)     H(rot)  DE(clash)    DE(int)     intcor
     16.60     -20.17       3.41        0.00      62.97       1.58       1.60       1.97       ----

> <Gold.Chemscore.Fitness>
16.5989

> <Gold.Chemscore.DG>
-20.1718

> <Gold.Chemscore.ZeroCoef>
-5.4800

> <Gold.Chemscore.Hbond>
3.4066

> <Gold.Chemscore.Metal>
0.0000

> <Gold.Chemscore.Lipo>
62.9737

> <Gold.Chemscore.Internal_Hbond>
0.0000

> <Gold.Chemscore.DEClash>
1.6025

> <Gold.Chemscore.DEInternal>
1.9704

> <Gold.Chemscore.Rot>
1.5837

> <Gold.Chemscore.Internal.Correction>
   9.000000E+99

> <Gold.Chemscore.Hbonds>
donor molecule, donor type, donor heavy atom, donor atom, acceptor molecule, acceptor atom, score
      L1  H     6    23       P1 10175  0.83
      L1  H     9    24       P1 10175  0.88
      P1  H  7989  7998       L1    16  0.67
      P1  H 11000 11005       L1     3  0.39

> <Gold.Chemscore.Hbond.Weighted>
-11.3781

> <Gold.Chemscore.Metal.Weighted>
-0.0000

> <Gold.Chemscore.Lipo.Weighted>
-7.3679

> <Gold.Chemscore.Internal_Hbond.Weighted>
0.0000

> <Gold.Chemscore.DEClash.Weighted>
1.6025

> <Gold.Chemscore.DEInternal.Weighted>
1.9704

> <Gold.Chemscore.Rot.Weighted>
4.0542

> <Gold.Chemscore.Internal.Correction.Weighted>
   9.000000E+99

> <Gold.Protein.RotatedTorsions>
[ 6907 6896 6895 6894 ] final  101.22 input  -60.11 | X-H torsion
[ 7974 7965 7964 7962 ] final -118.59 input  175.53 | X-H torsion
[ 8008 7997 7996 7995 ] final  132.33 input   59.86 | X-H torsion
[ 10167 10162 10161 10158 ] final -156.74 input  -65.29 | X-H torsion
[ 10718 10713 10712 10709 ] final  148.13 input   66.30 | X-H torsion
[ 10763 10752 10751 10750 ] final  -81.48 input  -60.55 | X-H torsion
[ 11005 11000 10999 10996 ] final   79.19 input  -57.11 | X-H torsion

> <Gold.Protein.ActiveResidues>
 VAL166  LYS551  ARG553  GLY616  TRP617  ASP618  TYR619  PRO620  LYS621  CYS622 
 ASP623  PHE694  ASN695  SER759  ASP760  ASP761  ALA762  ILE779  LEU786  VAL792 
 PHE793  MET794  SER795  GLU796  ALA797  LYS798  CYS799  TRP800  GLU811  SER814 

> <Gold.Protein.RotatedAtoms>
  152.5354  134.0159  159.7959 H   0  0  0  0  0  0  0  0  0  0  0  0  # atno 6907 bound_to 6896
  151.0354  133.5745  159.2663 H   0  0  0  0  0  0  0  0  0  0  0  0  # atno 6908 bound_to 6896
  151.2735  135.0699  159.9196 H   0  0  0  0  0  0  0  0  0  0  0  0  # atno 6909 bound_to 6896
  145.0721  140.8366  143.4089 H   0  0  0  0  0  0  0  0  0  0  0  0  # atno 7974 bound_to 7965
  156.2981  140.2549  156.3071 H   0  0  0  0  0  0  0  0  0  0  0  0  # atno 8008 bound_to 7997
  154.9361  140.0397  157.2092 H   0  0  0  0  0  0  0  0  0  0  0  0  # atno 8009 bound_to 7997
  154.8171  140.2854  155.5817 H   0  0  0  0  0  0  0  0  0  0  0  0  # atno 8010 bound_to 7997
  139.6826  143.9555  152.2345 H   0  0  0  0  0  0  0  0  0  0  0  0  # atno 10167 bound_to 10162
  157.3124  131.0890  151.1306 H   0  0  0  0  0  0  0  0  0  0  0  0  # atno 10718 bound_to 10713
  154.5640  135.5625  153.7034 H   0  0  0  0  0  0  0  0  0  0  0  0  # atno 10763 bound_to 10752
  153.0027  135.6281  154.2205 H   0  0  0  0  0  0  0  0  0  0  0  0  # atno 10764 bound_to 10752
  154.2143  135.2872  155.2927 H   0  0  0  0  0  0  0  0  0  0  0  0  # atno 10765 bound_to 10752
  139.9182  134.7823  156.1746 H   0  0  0  0  0  0  0  0  0  0  0  0  # atno 11005 bound_to 11000
  145.1280  139.2650  143.5554 LP  0  0  0  0  0  0  0  0  0  0  0  0  # atno 17320 bound_to 7965
  146.3529  140.0923  142.8612 LP  0  0  0  0  0  0  0  0  0  0  0  0  # atno 17321 bound_to 7965
  139.9349  144.6718  150.8325 LP  0  0  0  0  0  0  0  0  0  0  0  0  # atno 17342 bound_to 10162
  140.7657  143.3283  151.2466 LP  0  0  0  0  0  0  0  0  0  0  0  0  # atno 17343 bound_to 10162
  157.2623  130.6664  149.5980 LP  0  0  0  0  0  0  0  0  0  0  0  0  # atno 17370 bound_to 10713
  155.9679  130.4505  150.5699 LP  0  0  0  0  0  0  0  0  0  0  0  0  # atno 17371 bound_to 10713
  141.0679  133.6810  156.2082 LP  0  0  0  0  0  0  0  0  0  0  0  0  # atno 17394 bound_to 11000
  140.6555  134.5023  157.5580 LP  0  0  0  0  0  0  0  0  0  0  0  0  # atno 17395 bound_to 11000

$$$$
