AV-unprocessed.smi:2845|AV-procd|sdf|10948|dock5
  -GOLD-   2272015403D 1   1.00000     0.00000
 Structure written by MMmdl.
 43 45  0  0  0  0  0  0  0  0  2 V2000
  151.2653  145.5622  160.8180 C   0  0  0  0  0  0  0  0  0  0  0  0
  151.4084  144.3298  159.9411 C   0  0  0  0  0  0  0  0  0  0  0  0
  150.9507  144.3948  158.6052 C   0  0  0  0  0  0  0  0  0  0  0  0
  151.0973  143.2519  157.8280 C   0  0  0  0  0  0  0  0  0  0  0  0
  150.7540  142.9968  156.4979 N   0  3  0  0  0  0  0  0  0  0  0  0
  151.0991  141.7188  156.1758 C   0  0  0  0  0  0  0  0  0  0  0  0
  151.6542  141.1544  157.2823 N   0  0  0  0  0  0  0  0  0  0  0  0
  152.1997  139.8078  157.4906 C   0  0  0  0  0  0  0  0  0  0  0  0
  151.9893  138.8890  156.2676 C   0  0  1  0  0  0  0  0  0  0  0  0
  153.0065  139.1325  155.3176 O   0  0  0  0  0  0  0  0  0  0  0  0
  151.9833  137.3865  156.6179 C   0  0  0  0  0  0  0  0  0  0  0  0
  151.0416  136.6197  155.8192 N   0  0  0  0  0  0  0  0  0  0  0  0
  149.8071  136.9210  155.4046 C   0  0  0  0  0  0  0  0  0  0  0  0
  149.2297  135.9649  154.6876 N   0  0  0  0  0  0  0  0  0  0  0  0
  150.2327  135.0405  154.7193 C   0  0  0  0  0  0  0  0  0  0  0  0
  150.0956  133.4490  153.8476 S   0  0  1  0  0  0  0  0  0  0  0  0
  150.7756  132.4323  155.2412 C   0  0  0  0  0  0  0  0  0  0  0  0
  148.5988  133.1406  153.7660 O   0  0  0  0  0  0  0  0  0  0  0  0
  151.3305  135.3653  155.3972 N   0  0  0  0  0  0  0  0  0  0  0  0
  151.6754  142.0733  158.3367 C   0  0  0  0  0  0  0  0  0  0  0  0
  152.1303  141.9914  159.6505 C   0  0  0  0  0  0  0  0  0  0  0  0
  151.9899  143.1426  160.4572 C   0  0  0  0  0  0  0  0  0  0  0  0
  152.4762  143.0821  161.8951 C   0  0  0  0  0  0  0  0  0  0  0  0
  150.7913  146.3832  160.2791 H   0  0  0  0  0  0  0  0  0  0  0  0
  152.2430  145.9062  161.1562 H   0  0  0  0  0  0  0  0  0  0  0  0
  150.6536  145.3415  161.6932 H   0  0  0  0  0  0  0  0  0  0  0  0
  150.5066  145.2952  158.2062 H   0  0  0  0  0  0  0  0  0  0  0  0
  150.9576  141.2402  155.2172 H   0  0  0  0  0  0  0  0  0  0  0  0
  153.2629  139.9083  157.7136 H   0  0  0  0  0  0  0  0  0  0  0  0
  151.7369  139.3977  158.3887 H   0  0  0  0  0  0  0  0  0  0  0  0
  151.0418  139.1370  155.7877 H   0  0  0  0  0  0  0  0  0  0  0  0
  153.1742  138.3307  154.8466 H   0  0  0  0  0  0  0  0  0  0  0  0
  152.9762  136.9589  156.4725 H   0  0  0  0  0  0  0  0  0  0  0  0
  151.7311  137.2477  157.6703 H   0  0  0  0  0  0  0  0  0  0  0  0
  149.3246  137.8624  155.6231 H   0  0  0  0  0  0  0  0  0  0  0  0
  151.7048  132.8636  155.6141 H   0  0  0  0  0  0  0  0  0  0  0  0
  150.9785  131.4174  154.9005 H   0  0  0  0  0  0  0  0  0  0  0  0
  150.0604  132.3859  156.0623 H   0  0  0  0  0  0  0  0  0  0  0  0
  152.5710  141.0877  160.0442 H   0  0  0  0  0  0  0  0  0  0  0  0
  152.8940  142.1042  162.1337 H   0  0  0  0  0  0  0  0  0  0  0  0
  151.6539  143.2683  162.5862 H   0  0  0  0  0  0  0  0  0  0  0  0
  153.2528  143.8269  162.0693 H   0  0  0  0  0  0  0  0  0  0  0  0
  150.3185  143.6457  155.8548 H   0  0  0  0  0  0  0  0  0  0  0  0
  1  2  1  0  0  0  0
  1 24  1  0  0  0  0
  1 25  1  0  0  0  0
  1 26  1  0  0  0  0
  2 22  1  0  0  0  0
  2  3  2  0  0  0  0
  3  4  1  0  0  0  0
  3 27  1  0  0  0  0
  4 20  2  0  0  0  0
  4  5  1  0  0  0  0
  5  6  2  0  0  0  0
  5 43  1  0  0  0  0
  6  7  1  0  0  0  0
  6 28  1  0  0  0  0
  7  8  1  0  0  0  0
  7 20  1  0  0  0  0
  8  9  1  0  0  0  0
  8 29  1  0  0  0  0
  8 30  1  0  0  0  0
  9 10  1  0  0  0  0
  9 11  1  0  0  0  0
  9 31  1  0  0  0  0
 10 32  1  0  0  0  0
 11 12  1  0  0  0  0
 11 33  1  0  0  0  0
 11 34  1  0  0  0  0
 12 19  1  0  0  0  0
 12 13  1  0  0  0  0
 13 14  2  0  0  0  0
 13 35  1  0  0  0  0
 14 15  1  0  0  0  0
 15 16  1  0  0  0  0
 15 19  2  0  0  0  0
 16 17  1  0  0  0  0
 16 18  2  0  0  0  0
 17 36  1  0  0  0  0
 17 37  1  0  0  0  0
 17 38  1  0  0  0  0
 20 21  1  0  0  0  0
 21 22  2  0  0  0  0
 21 39  1  0  0  0  0
 22 23  1  0  0  0  0
 23 40  1  0  0  0  0
 23 41  1  0  0  0  0
 23 42  1  0  0  0  0
M  CHG  1   5   1
M  END
> <s_m_source_file>
AV-unprocessed.smi

> <i_m_source_file_index>
2845

> <i_lp_mmshare_version>
43012

> <i_f3d_flags>
0

> <s_epik_input>
W0NIM11jKFtjSF0xKWMoW0NIM10pW2NIXWMoYzEyKW4oW2NIXW4yKVtDSDJdW0NASF0oW09IXSlbQ0gyXW4zW2NIXW5jKG4zKVtTQF0oPU8pW0NIM10=

> <s_epik_cmdline>
J2VwaWtfcHl0aG9uJywgJy1waCcsICc3LjAnLCAnLXRuJywgJzgnLCAnLW1hJywgJzIwMCcsICctbWV0YWxfYmluZGluZycsICctaW1hZScsICc8aW5maWxlLm1hZT4nLCAnLW9tYWUnLCAnPG91dGZpbGUubWFlPic=

> <r_lp_tautomer_probability>
1

> <r_epik_Ionization_Penalty>
1.12076

> <r_epik_Ionization_Penalty_Charging>
1.12075

> <r_epik_Ionization_Penalty_Neutral>
1.54566e-06

> <r_epik_State_Penalty>
1.17957

> <r_epik_Charging_Adjusted_Penalty>
2.30033

> <i_epik_Tot_Q>
1

> <i_epik_Tot_abs_Q>
1

> <r_epik_Metal_State_Penalty>
1.26402

> <b_epik_Metal_Only>
0

> <s_lp_Force_Field>
OPLS_2005

> <r_lp_Energy>
13.65

> <b_lp_Chiralities_Consistent>
1

> <s_lp_Variant>
AV-unprocessed.smi:2845-6

> <Gold.Version>
5.8.1

> <Gold.Id.Protein>
6NUR|6NUR_protein|mol2

> <Gold.PLP.Fitness>
53.6265

> <Gold.PLP.PLP>
-44.1087

> <Gold.PLP.part.hbond>
-3.0000

> <Gold.PLP.part.metal>
0.0000

> <Gold.PLP.part.buried>
-6.0843

> <Gold.PLP.part.nonpolar>
-35.5830

> <Gold.PLP.part.repulsive>
0.3677

> <Gold.PLP.ligand.clash>
0.0000

> <Gold.PLP.ligand.torsion>
1.5729

> <Gold.PLP.Chemscore.Hbond>
3.8793

> <Gold.PLP.Chemscore.CHOScore>
0.0000

> <Gold.PLP.Chemscore.Metal>
0.0000

> <Gold.Chemscore.Hbonds>
donor molecule, donor type, donor heavy atom, donor atom, acceptor molecule, acceptor atom, score
      L1  H     5    43       P1  8028  1.73
      P1  H  7997  8008       L1    10  1.00
      P1  H 10752 10764       L1    19  1.00

> <Gold.PLP.Chemscore.Internal.Correction>
1.0258

> <Gold.Rescore>
     Score         DG    S(hbond)    S(metal)    S(lipo)     H(rot)  DE(clash)    DE(int)     intcor
     14.42     -17.74       2.05        0.00     106.73       2.77       1.65       1.67       ----

> <Gold.Chemscore.Fitness>
14.4195

> <Gold.Chemscore.DG>
-17.7367

> <Gold.Chemscore.ZeroCoef>
-5.4800

> <Gold.Chemscore.Hbond>
2.0525

> <Gold.Chemscore.Metal>
0.0000

> <Gold.Chemscore.Lipo>
106.7307

> <Gold.Chemscore.Internal_Hbond>
0.0000

> <Gold.Chemscore.DEClash>
1.6477

> <Gold.Chemscore.DEInternal>
1.6696

> <Gold.Chemscore.Rot>
2.7681

> <Gold.Chemscore.Internal.Correction>
   9.000000E+99

> <Gold.Chemscore.Hbonds>
donor molecule, donor type, donor heavy atom, donor atom, acceptor molecule, acceptor atom, score
      L1  H     5    43       P1  8028  0.85
      P1  H  7997  8008       L1    10  0.78
      P1  H 10752 10764       L1    19  0.39

> <Gold.Chemscore.Hbond.Weighted>
-6.8555

> <Gold.Chemscore.Metal.Weighted>
-0.0000

> <Gold.Chemscore.Lipo.Weighted>
-12.4875

> <Gold.Chemscore.Internal_Hbond.Weighted>
0.0000

> <Gold.Chemscore.DEClash.Weighted>
1.6477

> <Gold.Chemscore.DEInternal.Weighted>
1.6696

> <Gold.Chemscore.Rot.Weighted>
7.0863

> <Gold.Chemscore.Internal.Correction.Weighted>
   9.000000E+99

> <Gold.Protein.RotatedTorsions>
[ 6907 6896 6895 6894 ] final  101.70 input  -60.11 | X-H torsion
[ 7974 7965 7964 7962 ] final  -34.17 input  175.53 | X-H torsion
[ 8008 7997 7996 7995 ] final  -27.25 input   59.86 | X-H torsion
[ 10167 10162 10161 10158 ] final -177.50 input  -65.29 | X-H torsion
[ 10718 10713 10712 10709 ] final -175.13 input   66.30 | X-H torsion
[ 10763 10752 10751 10750 ] final  -49.66 input  -60.55 | X-H torsion
[ 11005 11000 10999 10996 ] final  179.83 input  -57.11 | X-H torsion

> <Gold.Protein.ActiveResidues>
 VAL166  LYS551  ARG553  GLY616  TRP617  ASP618  TYR619  PRO620  LYS621  CYS622 
 ASP623  PHE694  ASN695  SER759  ASP760  ASP761  ALA762  ILE779  LEU786  VAL792 
 PHE793  MET794  SER795  GLU796  ALA797  LYS798  CYS799  TRP800  GLU811  SER814 

> <Gold.Protein.RotatedAtoms>
  152.5343  134.0087  159.7927 H   0  0  0  0  0  0  0  0  0  0  0  0  # atno 6907 bound_to 6896
  151.0293  133.5797  159.2669 H   0  0  0  0  0  0  0  0  0  0  0  0  # atno 6908 bound_to 6896
  151.2808  135.0720  159.9222 H   0  0  0  0  0  0  0  0  0  0  0  0  # atno 6909 bound_to 6896
  146.0851  140.6006  142.8890 H   0  0  0  0  0  0  0  0  0  0  0  0  # atno 7974 bound_to 7965
  154.4386  140.1877  156.0903 H   0  0  0  0  0  0  0  0  0  0  0  0  # atno 8008 bound_to 7997
  156.0371  140.3324  155.7176 H   0  0  0  0  0  0  0  0  0  0  0  0  # atno 8009 bound_to 7997
  155.5754  140.0616  157.2787 H   0  0  0  0  0  0  0  0  0  0  0  0  # atno 8010 bound_to 7997
  139.5477  144.2192  152.1019 H   0  0  0  0  0  0  0  0  0  0  0  0  # atno 10167 bound_to 10162
  156.7953  130.9533  151.3119 H   0  0  0  0  0  0  0  0  0  0  0  0  # atno 10718 bound_to 10713
  154.0976  135.6568  153.4863 H   0  0  0  0  0  0  0  0  0  0  0  0  # atno 10763 bound_to 10752
  153.0300  135.5217  154.7318 H   0  0  0  0  0  0  0  0  0  0  0  0  # atno 10764 bound_to 10752
  154.6461  135.2995  155.0014 H   0  0  0  0  0  0  0  0  0  0  0  0  # atno 10765 bound_to 10752
  140.4105  134.6696  157.4611 H   0  0  0  0  0  0  0  0  0  0  0  0  # atno 11005 bound_to 11000
  144.7320  140.4699  143.6931 LP  0  0  0  0  0  0  0  0  0  0  0  0  # atno 17320 bound_to 7965
  145.6145  139.1517  143.3057 LP  0  0  0  0  0  0  0  0  0  0  0  0  # atno 17321 bound_to 7965
  140.1681  144.4961  150.6594 LP  0  0  0  0  0  0  0  0  0  0  0  0  # atno 17342 bound_to 10162
  140.6730  143.2293  151.5577 LP  0  0  0  0  0  0  0  0  0  0  0  0  # atno 17343 bound_to 10162
  157.6580  130.8941  149.9770 LP  0  0  0  0  0  0  0  0  0  0  0  0  # atno 17370 bound_to 10713
  156.1134  130.3649  150.0010 LP  0  0  0  0  0  0  0  0  0  0  0  0  # atno 17371 bound_to 10713
  140.0271  134.6461  155.9158 LP  0  0  0  0  0  0  0  0  0  0  0  0  # atno 17394 bound_to 11000
  141.1823  133.6549  156.5071 LP  0  0  0  0  0  0  0  0  0  0  0  0  # atno 17395 bound_to 11000

$$$$
