AV-unprocessed.smi:3290|AV-procd|sdf|12614|dock10
  -GOLD-   2272018543D 1   1.00000     0.00000
 Structure written by MMmdl.
 43 44  0  0  0  0  0  0  0  0  2 V2000
  152.0256  144.7673  160.8974 C   0  0  0  0  0  0  0  0  0  0  0  0
  152.7411  143.5153  160.3589 C   0  0  1  0  0  0  0  0  0  0  0  0
  153.1415  142.6055  161.5398 C   0  0  0  0  0  0  0  0  0  0  0  0
  153.9040  141.3575  161.0759 C   0  0  0  0  0  0  0  0  0  0  0  0
  153.0839  140.5706  160.0481 C   0  0  0  0  0  0  0  0  0  0  0  0
  152.6929  141.4634  158.8627 C   0  0  0  0  0  0  0  0  0  0  0  0
  151.9114  142.7201  159.3074 C   0  0  2  0  0  0  0  0  0  0  0  0
  151.5267  143.5505  158.0616 C   0  0  0  0  0  0  0  0  0  0  0  0
  150.2253  143.1398  157.4972 N   0  3  0  0  0  0  0  0  0  0  0  0
  150.1505  141.7128  157.1247 C   0  0  0  0  0  0  0  0  0  0  0  0
  150.4401  141.5036  155.6280 C   0  0  2  0  0  0  0  0  0  0  0  0
  149.2902  141.8612  154.8857 O   0  0  0  0  0  0  0  0  0  0  0  0
  150.8683  140.0719  155.3472 C   0  0  0  0  0  0  0  0  0  0  0  0
  150.1238  139.2441  154.4789 C   0  0  0  0  0  0  0  0  0  0  0  0
  150.5665  137.9240  154.2616 C   0  0  0  0  0  0  0  0  0  0  0  0
  151.6690  137.4069  154.8447 N   0  0  0  0  0  0  0  0  0  0  0  0
  152.3758  138.2018  155.6760 C   0  0  0  0  0  0  0  0  0  0  0  0
  152.0195  139.5354  155.9612 C   0  0  0  0  0  0  0  0  0  0  0  0
  151.0428  144.5212  161.3006 H   0  0  0  0  0  0  0  0  0  0  0  0
  151.8983  145.5246  160.1246 H   0  0  0  0  0  0  0  0  0  0  0  0
  152.6025  145.2328  161.6972 H   0  0  0  0  0  0  0  0  0  0  0  0
  153.6620  143.8509  159.8792 H   0  0  0  0  0  0  0  0  0  0  0  0
  153.7612  143.1595  162.2458 H   0  0  0  0  0  0  0  0  0  0  0  0
  152.2493  142.3010  162.0890 H   0  0  0  0  0  0  0  0  0  0  0  0
  154.8592  141.6507  160.6385 H   0  0  0  0  0  0  0  0  0  0  0  0
  154.1362  140.7232  161.9320 H   0  0  0  0  0  0  0  0  0  0  0  0
  153.6555  139.7116  159.6952 H   0  0  0  0  0  0  0  0  0  0  0  0
  152.1854  140.1720  160.5210 H   0  0  0  0  0  0  0  0  0  0  0  0
  153.5922  141.7609  158.3212 H   0  0  0  0  0  0  0  0  0  0  0  0
  152.0941  140.8780  158.1639 H   0  0  0  0  0  0  0  0  0  0  0  0
  150.9923  142.3718  159.7824 H   0  0  0  0  0  0  0  0  0  0  0  0
  151.5163  144.6151  158.2998 H   0  0  0  0  0  0  0  0  0  0  0  0
  152.2730  143.4130  157.2778 H   0  0  0  0  0  0  0  0  0  0  0  0
  149.5050  143.3255  158.1810 H   0  0  0  0  0  0  0  0  0  0  0  0
  150.8799  141.1608  157.7195 H   0  0  0  0  0  0  0  0  0  0  0  0
  149.1654  141.3194  157.3810 H   0  0  0  0  0  0  0  0  0  0  0  0
  151.2461  142.1716  155.3204 H   0  0  0  0  0  0  0  0  0  0  0  0
  149.1205  142.7816  155.0216 H   0  0  0  0  0  0  0  0  0  0  0  0
  149.2324  139.6074  153.9885 H   0  0  0  0  0  0  0  0  0  0  0  0
  150.0196  137.2660  153.6027 H   0  0  0  0  0  0  0  0  0  0  0  0
  153.2518  137.7619  156.1292 H   0  0  0  0  0  0  0  0  0  0  0  0
  152.6206  140.1271  156.6357 H   0  0  0  0  0  0  0  0  0  0  0  0
  150.0408  143.6977  156.6760 H   0  0  0  0  0  0  0  0  0  0  0  0
  1  2  1  0  0  0  0
  1 19  1  0  0  0  0
  1 20  1  0  0  0  0
  1 21  1  0  0  0  0
  2  7  1  0  0  0  0
  2  3  1  0  0  0  0
  2 22  1  0  0  0  0
  3  4  1  0  0  0  0
  3 23  1  0  0  0  0
  3 24  1  0  0  0  0
  4  5  1  0  0  0  0
  4 25  1  0  0  0  0
  4 26  1  0  0  0  0
  5  6  1  0  0  0  0
  5 27  1  0  0  0  0
  5 28  1  0  0  0  0
  6  7  1  0  0  0  0
  6 29  1  0  0  0  0
  6 30  1  0  0  0  0
  7  8  1  0  0  0  0
  7 31  1  0  0  0  0
  8  9  1  0  0  0  0
  8 32  1  0  0  0  0
  8 33  1  0  0  0  0
  9 10  1  0  0  0  0
  9 34  1  0  0  0  0
  9 43  1  0  0  0  0
 10 11  1  0  0  0  0
 10 35  1  0  0  0  0
 10 36  1  0  0  0  0
 11 12  1  0  0  0  0
 11 13  1  0  0  0  0
 11 37  1  0  0  0  0
 12 38  1  0  0  0  0
 13 18  1  0  0  0  0
 13 14  2  0  0  0  0
 14 15  1  0  0  0  0
 14 39  1  0  0  0  0
 15 16  2  0  0  0  0
 15 40  1  0  0  0  0
 16 17  1  0  0  0  0
 17 18  2  0  0  0  0
 17 41  1  0  0  0  0
 18 42  1  0  0  0  0
M  CHG  1   9   1
M  END
> <s_m_source_file>
AV-unprocessed.smi

> <i_m_source_file_index>
3290

> <i_lp_mmshare_version>
43012

> <i_f3d_flags>
0

> <s_epik_input>
W0NIM11bQ0BASF0xW0NIMl1bQ0gyXVtDSDJdW0NIMl1bQ0BIXTFbQ0gyXVtOSF1bQ0gyXVtDQEhdKFtPSF0pYzJbY0hdW2NIXW5bY0hdW2NIXTI=

> <s_epik_cmdline>
J2VwaWtfcHl0aG9uJywgJy1waCcsICc3LjAnLCAnLXRuJywgJzgnLCAnLW1hJywgJzIwMCcsICctbWV0YWxfYmluZGluZycsICctaW1hZScsICc8aW5maWxlLm1hZT4nLCAnLW9tYWUnLCAnPG91dGZpbGUubWFlPic=

> <r_lp_tautomer_probability>
1

> <r_epik_Ionization_Penalty>
0.00420552

> <r_epik_Ionization_Penalty_Charging>
0.00207255

> <r_epik_Ionization_Penalty_Neutral>
0.00213297

> <r_epik_State_Penalty>
-0

> <r_epik_Charging_Adjusted_Penalty>
0.00207255

> <i_epik_Tot_Q>
1

> <i_epik_Tot_abs_Q>
1

> <r_epik_Metal_State_Penalty>
-0

> <b_epik_Metal_Only>
0

> <s_lp_Force_Field>
OPLS_2005

> <r_lp_Energy>
17.7323

> <b_lp_Chiralities_Consistent>
1

> <s_lp_Variant>
AV-unprocessed.smi:3290-4

> <Gold.Version>
5.8.1

> <Gold.Id.Protein>
6NUR|6NUR_protein|mol2

> <Gold.PLP.Fitness>
58.4752

> <Gold.PLP.PLP>
-46.0731

> <Gold.PLP.part.hbond>
-3.2116

> <Gold.PLP.part.metal>
0.0000

> <Gold.PLP.part.buried>
-2.6667

> <Gold.PLP.part.nonpolar>
-40.3022

> <Gold.PLP.part.repulsive>
0.1279

> <Gold.PLP.ligand.clash>
0.0000

> <Gold.PLP.ligand.torsion>
0.8205

> <Gold.PLP.Chemscore.Hbond>
3.5692

> <Gold.PLP.Chemscore.CHOScore>
1.0988

> <Gold.PLP.Chemscore.Metal>
0.0000

> <Gold.Chemscore.Hbonds>
donor molecule, donor type, donor heavy atom, donor atom, acceptor molecule, acceptor atom, score
      L1  H     9    43       P1  8028  2.00
      L1  H    12    38       P1  8028  0.98
      P1  H 10752 10765       L1    16  0.55
      L1  C    15    40       P1  7948  1.00
      L1  C    15    40       P1  7949  0.02

> <Gold.PLP.Chemscore.Internal.Correction>
0.0390

> <Gold.Rescore>
     Score         DG    S(hbond)    S(metal)    S(lipo)     H(rot)  DE(clash)    DE(int)     intcor
     23.24     -24.11       2.39        0.00     135.95       2.05       0.06       0.82       ----

> <Gold.Chemscore.Fitness>
23.2394

> <Gold.Chemscore.DG>
-24.1142

> <Gold.Chemscore.ZeroCoef>
-5.4800

> <Gold.Chemscore.Hbond>
2.3877

> <Gold.Chemscore.Metal>
0.0000

> <Gold.Chemscore.Lipo>
135.9541

> <Gold.Chemscore.Internal_Hbond>
0.0000

> <Gold.Chemscore.DEClash>
0.0587

> <Gold.Chemscore.DEInternal>
0.8161

> <Gold.Chemscore.Rot>
2.0498

> <Gold.Chemscore.Internal.Correction>
   9.000000E+99

> <Gold.Chemscore.Hbonds>
donor molecule, donor type, donor heavy atom, donor atom, acceptor molecule, acceptor atom, score
      L1  H     9    43       P1  8028  0.94
      L1  H    12    38       P1  8028  0.91
      P1  H 10752 10765       L1    16  0.32

> <Gold.Chemscore.Hbond.Weighted>
-7.9751

> <Gold.Chemscore.Metal.Weighted>
-0.0000

> <Gold.Chemscore.Lipo.Weighted>
-15.9066

> <Gold.Chemscore.Internal_Hbond.Weighted>
0.0000

> <Gold.Chemscore.DEClash.Weighted>
0.0587

> <Gold.Chemscore.DEInternal.Weighted>
0.8161

> <Gold.Chemscore.Rot.Weighted>
5.2475

> <Gold.Chemscore.Internal.Correction.Weighted>
   9.000000E+99

> <Gold.Protein.RotatedTorsions>
[ 6907 6896 6895 6894 ] final   30.30 input  -60.11 | X-H torsion
[ 7974 7965 7964 7962 ] final  169.86 input  175.53 | X-H torsion
[ 8008 7997 7996 7995 ] final  -60.85 input   59.86 | X-H torsion
[ 10167 10162 10161 10158 ] final  166.06 input  -65.29 | X-H torsion
[ 10718 10713 10712 10709 ] final  152.06 input   66.30 | X-H torsion
[ 10763 10752 10751 10750 ] final  167.88 input  -60.55 | X-H torsion
[ 11005 11000 10999 10996 ] final  -94.57 input  -57.11 | X-H torsion

> <Gold.Protein.ActiveResidues>
 VAL166  LYS551  ARG553  GLY616  TRP617  ASP618  TYR619  PRO620  LYS621  CYS622 
 ASP623  PHE694  ASN695  SER759  ASP760  ASP761  ALA762  ILE779  LEU786  VAL792 
 PHE793  MET794  SER795  GLU796  ALA797  LYS798  CYS799  TRP800  GLU811  SER814 

> <Gold.Protein.RotatedAtoms>
  152.0439  134.9694  160.0573 H   0  0  0  0  0  0  0  0  0  0  0  0  # atno 6907 bound_to 6896
  152.1122  133.4302  159.4644 H   0  0  0  0  0  0  0  0  0  0  0  0  # atno 6908 bound_to 6896
  150.6844  134.2553  159.4571 H   0  0  0  0  0  0  0  0  0  0  0  0  # atno 6909 bound_to 6896
  144.7342  139.9116  143.6415 H   0  0  0  0  0  0  0  0  0  0  0  0  # atno 7974 bound_to 7965
  154.4419  140.1030  156.6339 H   0  0  0  0  0  0  0  0  0  0  0  0  # atno 8008 bound_to 7997
  155.5575  140.3487  155.4464 H   0  0  0  0  0  0  0  0  0  0  0  0  # atno 8009 bound_to 7997
  156.0484  140.1298  157.0067 H   0  0  0  0  0  0  0  0  0  0  0  0  # atno 8010 bound_to 7997
  139.4917  144.4067  151.9347 H   0  0  0  0  0  0  0  0  0  0  0  0  # atno 10167 bound_to 10162
  157.2626  131.0801  151.1655 H   0  0  0  0  0  0  0  0  0  0  0  0  # atno 10718 bound_to 10713
  154.3604  135.2753  155.2323 H   0  0  0  0  0  0  0  0  0  0  0  0  # atno 10763 bound_to 10752
  154.4514  135.5930  153.6197 H   0  0  0  0  0  0  0  0  0  0  0  0  # atno 10764 bound_to 10752
  152.9844  135.6043  154.3823 H   0  0  0  0  0  0  0  0  0  0  0  0  # atno 10765 bound_to 10752
  141.1467  133.7965  157.0316 H   0  0  0  0  0  0  0  0  0  0  0  0  # atno 11005 bound_to 11000
  146.0996  139.3991  143.0355 LP  0  0  0  0  0  0  0  0  0  0  0  0  # atno 17320 bound_to 7965
  145.7597  140.9940  143.1207 LP  0  0  0  0  0  0  0  0  0  0  0  0  # atno 17321 bound_to 7965
  140.3507  144.3092  150.5950 LP  0  0  0  0  0  0  0  0  0  0  0  0  # atno 17342 bound_to 10162
  140.5487  143.2210  151.7963 LP  0  0  0  0  0  0  0  0  0  0  0  0  # atno 17343 bound_to 10162
  157.3159  130.6913  149.6241 LP  0  0  0  0  0  0  0  0  0  0  0  0  # atno 17370 bound_to 10713
  155.9664  130.4350  150.5072 LP  0  0  0  0  0  0  0  0  0  0  0  0  # atno 17371 bound_to 10713
  140.0750  134.9680  157.1531 LP  0  0  0  0  0  0  0  0  0  0  0  0  # atno 17394 bound_to 11000
  140.3656  134.2446  155.7182 LP  0  0  0  0  0  0  0  0  0  0  0  0  # atno 17395 bound_to 11000

$$$$
