AV-unprocessed.smi:1785|AV-procd|sdf|7200|dock3
  -GOLD-   22720 8443D 1   1.00000     0.00000
 Structure written by MMmdl.
 28 29  0  0  0  0  0  0  0  0  1 V2000
  154.5402  139.9619  160.1352 C   0  0  0  0  0  0  0  0  0  0  0  0
  153.6896  141.0944  160.6879 C   0  0  0  0  0  0  0  0  0  0  0  0
  153.9944  141.6306  161.9570 C   0  0  0  0  0  0  0  0  0  0  0  0
  153.2072  142.6774  162.4664 C   0  0  0  0  0  0  0  0  0  0  0  0
  152.1418  143.1469  161.6793 C   0  0  0  0  0  0  0  0  0  0  0  0
  151.8436  142.6408  160.4653 N   0  0  0  0  0  0  0  0  0  0  0  0
  152.5933  141.6294  159.9592 C   0  0  0  0  0  0  0  0  0  0  0  0
  152.3383  141.0450  158.6868 N   0  0  0  0  0  0  0  0  0  0  0  0
  151.4080  141.3801  157.7712 C   0  0  0  0  0  0  0  0  0  0  0  0
  150.5970  142.2966  157.9157 O   0  0  0  0  0  0  0  0  0  0  0  0
  151.4874  140.5193  156.5972 C   0  0  0  0  0  0  0  0  0  0  0  0
  150.5860  140.6689  155.5990 C   0  0  0  0  0  0  0  0  0  0  0  0
  150.5546  139.8809  154.4756 O   0  0  0  0  0  0  0  0  0  0  0  0
  151.3760  138.7214  154.5418 C   0  0  0  0  0  0  0  0  0  0  0  0
  152.7204  139.0556  155.2045 C   0  0  0  0  0  0  0  0  0  0  0  0
  152.5075  139.5972  156.5038 O   0  0  0  0  0  0  0  0  0  0  0  0
  155.3235  139.6742  160.8371 H   0  0  0  0  0  0  0  0  0  0  0  0
  155.0191  140.2647  159.2037 H   0  0  0  0  0  0  0  0  0  0  0  0
  153.9262  139.0820  159.9404 H   0  0  0  0  0  0  0  0  0  0  0  0
  154.8213  141.2463  162.5362 H   0  0  0  0  0  0  0  0  0  0  0  0
  153.4143  143.1085  163.4347 H   0  0  0  0  0  0  0  0  0  0  0  0
  151.5119  143.9496  162.0330 H   0  0  0  0  0  0  0  0  0  0  0  0
  152.9379  140.2719  158.4381 H   0  0  0  0  0  0  0  0  0  0  0  0
  149.7793  141.3882  155.6000 H   0  0  0  0  0  0  0  0  0  0  0  0
  150.8566  137.9453  155.1057 H   0  0  0  0  0  0  0  0  0  0  0  0
  151.5320  138.3363  153.5339 H   0  0  0  0  0  0  0  0  0  0  0  0
  153.3379  138.1613  155.2876 H   0  0  0  0  0  0  0  0  0  0  0  0
  153.2758  139.7752  154.6012 H   0  0  0  0  0  0  0  0  0  0  0  0
  1  2  1  0  0  0  0
  1 17  1  0  0  0  0
  1 18  1  0  0  0  0
  1 19  1  0  0  0  0
  2  7  1  0  0  0  0
  2  3  2  0  0  0  0
  3  4  1  0  0  0  0
  3 20  1  0  0  0  0
  4  5  2  0  0  0  0
  4 21  1  0  0  0  0
  5  6  1  0  0  0  0
  5 22  1  0  0  0  0
  6  7  2  0  0  0  0
  7  8  1  0  0  0  0
  8  9  1  0  0  0  0
  8 23  1  0  0  0  0
  9 10  2  0  0  0  0
  9 11  1  0  0  0  0
 11 16  1  0  0  0  0
 11 12  2  0  0  0  0
 12 13  1  0  0  0  0
 12 24  1  0  0  0  0
 13 14  1  0  0  0  0
 14 15  1  0  0  0  0
 14 25  1  0  0  0  0
 14 26  1  0  0  0  0
 15 16  1  0  0  0  0
 15 27  1  0  0  0  0
 15 28  1  0  0  0  0
M  END
> <s_m_source_file>
AV-unprocessed.smi

> <i_m_source_file_index>
1785

> <i_lp_mmshare_version>
43012

> <i_f3d_flags>
0

> <s_epik_input>
W0NIM11jMVtjSF1bY0hdW2NIXW5jMVtOSF1DKD1PKUMyPVtDSF1PW0NIMl1bQ0gyXU8y

> <s_epik_cmdline>
J2VwaWtfcHl0aG9uJywgJy1waCcsICc3LjAnLCAnLXRuJywgJzgnLCAnLW1hJywgJzIwMCcsICctbWV0YWxfYmluZGluZycsICctaW1hZScsICc8aW5maWxlLm1hZT4nLCAnLW9tYWUnLCAnPG91dGZpbGUubWFlPic=

> <r_lp_tautomer_probability>
1

> <r_epik_Ionization_Penalty>
8.87723e-05

> <r_epik_Ionization_Penalty_Charging>
0

> <r_epik_Ionization_Penalty_Neutral>
8.87723e-05

> <r_epik_State_Penalty>
-0

> <r_epik_Charging_Adjusted_Penalty>
0

> <i_epik_Tot_Q>
0

> <i_epik_Tot_abs_Q>
0

> <r_epik_Metal_State_Penalty>
0.0224094

> <b_epik_Metal_Only>
0

> <s_lp_Force_Field>
OPLS_2005

> <r_lp_Energy>
4.55211

> <b_lp_Chiralities_Consistent>
1

> <s_lp_Variant>
AV-unprocessed.smi:1785-1

> <Gold.Version>
5.8.1

> <Gold.Id.Protein>
6NUR|6NUR_protein|mol2

> <Gold.PLP.Fitness>
42.6397

> <Gold.PLP.PLP>
-38.0087

> <Gold.PLP.part.hbond>
-2.2548

> <Gold.PLP.part.metal>
0.0000

> <Gold.PLP.part.buried>
-3.7733

> <Gold.PLP.part.nonpolar>
-30.8794

> <Gold.PLP.part.repulsive>
0.3316

> <Gold.PLP.ligand.clash>
0.0000

> <Gold.PLP.ligand.torsion>
0.0101

> <Gold.PLP.Chemscore.Hbond>
1.5500

> <Gold.PLP.Chemscore.CHOScore>
0.0000

> <Gold.PLP.Chemscore.Metal>
0.0000

> <Gold.Chemscore.Hbonds>
donor molecule, donor type, donor heavy atom, donor atom, acceptor molecule, acceptor atom, score
      P1  H  7989  7998       L1    13  0.76
      P1  H  7997  8010       L1    16  0.64

> <Gold.PLP.Chemscore.Internal.Correction>
0.0012

> <Gold.Rescore>
     Score         DG    S(hbond)    S(metal)    S(lipo)     H(rot)  DE(clash)    DE(int)     intcor
     14.94     -16.46       0.40        0.00      82.37       0.00       0.19       1.33       ----

> <Gold.Chemscore.Fitness>
14.9426

> <Gold.Chemscore.DG>
-16.4638

> <Gold.Chemscore.ZeroCoef>
-5.4800

> <Gold.Chemscore.Hbond>
0.4031

> <Gold.Chemscore.Metal>
0.0000

> <Gold.Chemscore.Lipo>
82.3725

> <Gold.Chemscore.Internal_Hbond>
0.0000

> <Gold.Chemscore.DEClash>
0.1907

> <Gold.Chemscore.DEInternal>
1.3305

> <Gold.Chemscore.Rot>
0.0000

> <Gold.Chemscore.Internal.Correction>
   9.000000E+99

> <Gold.Chemscore.Hbonds>
donor molecule, donor type, donor heavy atom, donor atom, acceptor molecule, acceptor atom, score
      P1  H  7989  7998       L1    13  0.03
      P1  H  7997  8010       L1    16  0.05

> <Gold.Chemscore.Hbond.Weighted>
-1.3462

> <Gold.Chemscore.Metal.Weighted>
-0.0000

> <Gold.Chemscore.Lipo.Weighted>
-9.6376

> <Gold.Chemscore.Internal_Hbond.Weighted>
0.0000

> <Gold.Chemscore.DEClash.Weighted>
0.1907

> <Gold.Chemscore.DEInternal.Weighted>
1.3305

> <Gold.Chemscore.Rot.Weighted>
0.0000

> <Gold.Chemscore.Internal.Correction.Weighted>
   9.000000E+99

> <Gold.Protein.RotatedTorsions>
[ 6907 6896 6895 6894 ] final  127.89 input  -60.11 | X-H torsion
[ 7974 7965 7964 7962 ] final   40.64 input  175.53 | X-H torsion
[ 8008 7997 7996 7995 ] final   51.16 input   59.86 | X-H torsion
[ 10167 10162 10161 10158 ] final  -97.51 input  -65.29 | X-H torsion
[ 10718 10713 10712 10709 ] final  104.85 input   66.30 | X-H torsion
[ 10763 10752 10751 10750 ] final   33.67 input  -60.55 | X-H torsion
[ 11005 11000 10999 10996 ] final   -3.61 input  -57.11 | X-H torsion

> <Gold.Protein.ActiveResidues>
 VAL166  LYS551  ARG553  GLY616  TRP617  ASP618  TYR619  PRO620  LYS621  CYS622 
 ASP623  PHE694  ASN695  SER759  ASP760  ASP761  ALA762  ILE779  LEU786  VAL792 
 PHE793  MET794  SER795  GLU796  ALA797  LYS798  CYS799  TRP800  GLU811  SER814 

> <Gold.Protein.RotatedAtoms>
  152.3771  133.6496  159.6131 H   0  0  0  0  0  0  0  0  0  0  0  0  # atno 6907 bound_to 6896
  150.7712  133.9175  159.3397 H   0  0  0  0  0  0  0  0  0  0  0  0  # atno 6908 bound_to 6896
  151.6988  135.0935  160.0298 H   0  0  0  0  0  0  0  0  0  0  0  0  # atno 6909 bound_to 6896
  146.0888  139.5509  142.9489 H   0  0  0  0  0  0  0  0  0  0  0  0  # atno 7974 bound_to 7965
  155.4307  140.3450  155.4280 H   0  0  0  0  0  0  0  0  0  0  0  0  # atno 8008 bound_to 7997
  156.1338  140.1522  156.9056 H   0  0  0  0  0  0  0  0  0  0  0  0  # atno 8009 bound_to 7997
  154.4915  140.0840  156.7586 H   0  0  0  0  0  0  0  0  0  0  0  0  # atno 8010 bound_to 7997
  140.2827  143.3272  152.0425 H   0  0  0  0  0  0  0  0  0  0  0  0  # atno 10167 bound_to 10162
  157.6726  131.0813  150.5768 H   0  0  0  0  0  0  0  0  0  0  0  0  # atno 10718 bound_to 10713
  153.0201  135.6381  154.1548 H   0  0  0  0  0  0  0  0  0  0  0  0  # atno 10763 bound_to 10752
  154.1283  135.2842  155.3193 H   0  0  0  0  0  0  0  0  0  0  0  0  # atno 10764 bound_to 10752
  154.6213  135.5524  153.7640 H   0  0  0  0  0  0  0  0  0  0  0  0  # atno 10765 bound_to 10752
  140.6712  133.9235  155.8496 H   0  0  0  0  0  0  0  0  0  0  0  0  # atno 11005 bound_to 11000
  145.6079  141.0344  143.1983 LP  0  0  0  0  0  0  0  0  0  0  0  0  # atno 17320 bound_to 7965
  144.7345  139.7627  143.7334 LP  0  0  0  0  0  0  0  0  0  0  0  0  # atno 17321 bound_to 7965
  139.4958  144.6580  151.6528 LP  0  0  0  0  0  0  0  0  0  0  0  0  # atno 17342 bound_to 10162
  140.5798  143.9965  150.6262 LP  0  0  0  0  0  0  0  0  0  0  0  0  # atno 17343 bound_to 10162
  156.6069  130.4369  149.5874 LP  0  0  0  0  0  0  0  0  0  0  0  0  # atno 17370 bound_to 10713
  156.2462  130.6880  151.1602 LP  0  0  0  0  0  0  0  0  0  0  0  0  # atno 17371 bound_to 10713
  141.0390  134.0648  157.3924 LP  0  0  0  0  0  0  0  0  0  0  0  0  # atno 17394 bound_to 11000
  139.8981  135.0153  156.7132 LP  0  0  0  0  0  0  0  0  0  0  0  0  # atno 17395 bound_to 11000

$$$$
