AV-unprocessed.smi:985|AV-procd|sdf|4319|dock5
  -GOLD-   22720 2223D 1   1.00000     0.00000
 Structure written by MMmdl.
 26 27  0  0  0  0  0  0  0  0  2 V2000
  153.9797  137.9764  159.4934 C   0  0  0  0  0  0  0  0  0  0  0  0
  153.2822  139.1896  158.9811 C   0  0  0  0  0  0  0  0  0  0  0  0
  152.8273  140.2186  159.6920 N   0  0  0  0  0  0  0  0  0  0  0  0
  152.2958  141.0011  158.7112 C   0  0  0  0  0  0  0  0  0  0  0  0
  151.6387  142.3194  158.9850 C   0  0  1  0  0  0  0  0  0  0  0  0
  152.5698  143.2879  159.7389 C   0  0  0  0  0  0  0  0  0  0  0  0
  151.8613  144.6285  159.9874 C   0  0  0  0  0  0  0  0  0  0  0  0
  151.3179  145.2167  158.6742 C   0  0  0  0  0  0  0  0  0  0  0  0
  150.4166  144.2545  158.0033 N   0  3  0  0  0  0  0  0  0  0  0  0
  151.0694  142.9607  157.7031 C   0  0  0  0  0  0  0  0  0  0  0  0
  152.4010  140.5282  157.4749 N   0  0  0  0  0  0  0  0  0  0  0  0
  153.0646  139.3051  157.6496 O   0  0  0  0  0  0  0  0  0  0  0  0
  154.0899  138.0294  160.5769 H   0  0  0  0  0  0  0  0  0  0  0  0
  154.9696  137.8969  159.0441 H   0  0  0  0  0  0  0  0  0  0  0  0
  153.4077  137.0829  159.2429 H   0  0  0  0  0  0  0  0  0  0  0  0
  150.7894  142.1243  159.6430 H   0  0  0  0  0  0  0  0  0  0  0  0
  152.8844  142.8506  160.6873 H   0  0  0  0  0  0  0  0  0  0  0  0
  153.4773  143.4609  159.1586 H   0  0  0  0  0  0  0  0  0  0  0  0
  151.0405  144.4846  160.6913 H   0  0  0  0  0  0  0  0  0  0  0  0
  152.5498  145.3325  160.4554 H   0  0  0  0  0  0  0  0  0  0  0  0
  150.7702  146.1384  158.8715 H   0  0  0  0  0  0  0  0  0  0  0  0
  152.1389  145.4711  158.0024 H   0  0  0  0  0  0  0  0  0  0  0  0
  149.6252  144.0831  158.6073 H   0  0  0  0  0  0  0  0  0  0  0  0
  151.8621  143.1266  156.9720 H   0  0  0  0  0  0  0  0  0  0  0  0
  150.3393  142.2981  157.2372 H   0  0  0  0  0  0  0  0  0  0  0  0
  150.0852  144.6623  157.1406 H   0  0  0  0  0  0  0  0  0  0  0  0
  1  2  1  0  0  0  0
  1 13  1  0  0  0  0
  1 14  1  0  0  0  0
  1 15  1  0  0  0  0
  2 12  1  0  0  0  0
  2  3  2  0  0  0  0
  3  4  1  0  0  0  0
  4  5  1  0  0  0  0
  4 11  2  0  0  0  0
  5 10  1  0  0  0  0
  5  6  1  0  0  0  0
  5 16  1  0  0  0  0
  6  7  1  0  0  0  0
  6 17  1  0  0  0  0
  6 18  1  0  0  0  0
  7  8  1  0  0  0  0
  7 19  1  0  0  0  0
  7 20  1  0  0  0  0
  8  9  1  0  0  0  0
  8 21  1  0  0  0  0
  8 22  1  0  0  0  0
  9 10  1  0  0  0  0
  9 23  1  0  0  0  0
  9 26  1  0  0  0  0
 10 24  1  0  0  0  0
 10 25  1  0  0  0  0
 11 12  1  0  0  0  0
M  CHG  1   9   1
M  END
> <s_m_source_file>
AV-unprocessed.smi

> <i_m_source_file_index>
985

> <i_lp_mmshare_version>
43012

> <i_f3d_flags>
0

> <s_epik_input>
W0NIM11jMW5jKG5vMSlbQ0BASF0yW0NIMl1bQ0gyXVtDSDJdW05IXVtDSDJdMg==

> <s_epik_cmdline>
J2VwaWtfcHl0aG9uJywgJy1waCcsICc3LjAnLCAnLXRuJywgJzgnLCAnLW1hJywgJzIwMCcsICctbWV0YWxfYmluZGluZycsICctaW1hZScsICc8aW5maWxlLm1hZT4nLCAnLW9tYWUnLCAnPG91dGZpbGUubWFlPic=

> <r_lp_tautomer_probability>
1

> <r_epik_Ionization_Penalty>
0.000532935

> <r_epik_Ionization_Penalty_Charging>
0.000532935

> <r_epik_Ionization_Penalty_Neutral>
3.88228e-13

> <r_epik_State_Penalty>
0.000332992

> <r_epik_Charging_Adjusted_Penalty>
0.000865928

> <i_epik_Tot_Q>
1

> <i_epik_Tot_abs_Q>
1

> <r_epik_Metal_State_Penalty>
-0

> <b_epik_Metal_Only>
0

> <s_lp_Force_Field>
OPLS_2005

> <r_lp_Energy>
6.62541

> <b_lp_Chiralities_Consistent>
1

> <s_lp_Variant>
AV-unprocessed.smi:985-2

> <Gold.Version>
5.8.1

> <Gold.Id.Protein>
6NUR|6NUR_protein|mol2

> <Gold.PLP.Fitness>
32.3114

> <Gold.PLP.PLP>
-24.3617

> <Gold.PLP.part.hbond>
-3.6984

> <Gold.PLP.part.metal>
0.0000

> <Gold.PLP.part.buried>
-2.3905

> <Gold.PLP.part.nonpolar>
-17.6482

> <Gold.PLP.part.repulsive>
0.0678

> <Gold.PLP.ligand.clash>
0.0000

> <Gold.PLP.ligand.torsion>
0.0218

> <Gold.PLP.Chemscore.Hbond>
2.6500

> <Gold.PLP.Chemscore.CHOScore>
0.0000

> <Gold.PLP.Chemscore.Metal>
0.0000

> <Gold.Chemscore.Hbonds>
donor molecule, donor type, donor heavy atom, donor atom, acceptor molecule, acceptor atom, score
      L1  H     9    26       P1  8028  2.00
      P1  H  7997  8010       L1    12  0.65

> <Gold.PLP.Chemscore.Internal.Correction>
0.0432

> <Gold.Rescore>
     Score         DG    S(hbond)    S(metal)    S(lipo)     H(rot)  DE(clash)    DE(int)     intcor
     13.43     -13.45       0.95        0.00      62.95       1.00       0.00       0.02       ----

> <Gold.Chemscore.Fitness>
13.4265

> <Gold.Chemscore.DG>
-13.4533

> <Gold.Chemscore.ZeroCoef>
-5.4800

> <Gold.Chemscore.Hbond>
0.9485

> <Gold.Chemscore.Metal>
0.0000

> <Gold.Chemscore.Lipo>
62.9515

> <Gold.Chemscore.Internal_Hbond>
0.0000

> <Gold.Chemscore.DEClash>
0.0048

> <Gold.Chemscore.DEInternal>
0.0219

> <Gold.Chemscore.Rot>
1.0000

> <Gold.Chemscore.Internal.Correction>
   9.000000E+99

> <Gold.Chemscore.Hbonds>
donor molecule, donor type, donor heavy atom, donor atom, acceptor molecule, acceptor atom, score
      L1  H     9    26       P1  8028  0.34
      P1  H  7997  8010       L1    12  0.01

> <Gold.Chemscore.Hbond.Weighted>
-3.1679

> <Gold.Chemscore.Metal.Weighted>
-0.0000

> <Gold.Chemscore.Lipo.Weighted>
-7.3653

> <Gold.Chemscore.Internal_Hbond.Weighted>
0.0000

> <Gold.Chemscore.DEClash.Weighted>
0.0048

> <Gold.Chemscore.DEInternal.Weighted>
0.0219

> <Gold.Chemscore.Rot.Weighted>
2.5600

> <Gold.Chemscore.Internal.Correction.Weighted>
   9.000000E+99

> <Gold.Protein.RotatedTorsions>
[ 6907 6896 6895 6894 ] final  127.00 input  -60.11 | X-H torsion
[ 7974 7965 7964 7962 ] final -176.38 input  175.53 | X-H torsion
[ 8008 7997 7996 7995 ] final   24.82 input   59.86 | X-H torsion
[ 10167 10162 10161 10158 ] final  -48.26 input  -65.29 | X-H torsion
[ 10718 10713 10712 10709 ] final  -76.98 input   66.30 | X-H torsion
[ 10763 10752 10751 10750 ] final   78.67 input  -60.55 | X-H torsion
[ 11005 11000 10999 10996 ] final  179.73 input  -57.11 | X-H torsion

> <Gold.Protein.ActiveResidues>
 VAL166  LYS551  ARG553  GLY616  TRP617  ASP618  TYR619  PRO620  LYS621  CYS622 
 ASP623  PHE694  ASN695  SER759  ASP760  ASP761  ALA762  ILE779  LEU786  VAL792 
 PHE793  MET794  SER795  GLU796  ALA797  LYS798  CYS799  TRP800  GLU811  SER814 

> <Gold.Protein.RotatedAtoms>
  152.3853  133.6602  159.6193 H   0  0  0  0  0  0  0  0  0  0  0  0  # atno 6907 bound_to 6896
  150.7773  133.9046  159.3360 H   0  0  0  0  0  0  0  0  0  0  0  0  # atno 6908 bound_to 6896
  151.6844  135.0958  160.0273 H   0  0  0  0  0  0  0  0  0  0  0  0  # atno 6909 bound_to 6896
  144.7127  140.1178  143.6407 H   0  0  0  0  0  0  0  0  0  0  0  0  # atno 7974 bound_to 7965
  155.0022  140.3126  155.4863 H   0  0  0  0  0  0  0  0  0  0  0  0  # atno 8008 bound_to 7997
  156.2923  140.2230  156.5073 H   0  0  0  0  0  0  0  0  0  0  0  0  # atno 8009 bound_to 7997
  154.7609  140.0459  157.0960 H   0  0  0  0  0  0  0  0  0  0  0  0  # atno 8010 bound_to 7997
  140.6738  143.2747  151.4046 H   0  0  0  0  0  0  0  0  0  0  0  0  # atno 10167 bound_to 10162
  156.0158  130.4479  150.3276 H   0  0  0  0  0  0  0  0  0  0  0  0  # atno 10718 bound_to 10713
  153.0893  135.4868  154.8658 H   0  0  0  0  0  0  0  0  0  0  0  0  # atno 10763 bound_to 10752
  154.7249  135.3047  154.8989 H   0  0  0  0  0  0  0  0  0  0  0  0  # atno 10764 bound_to 10752
  153.9643  135.6808  153.4799 H   0  0  0  0  0  0  0  0  0  0  0  0  # atno 10765 bound_to 10752
  140.4094  134.6706  157.4605 H   0  0  0  0  0  0  0  0  0  0  0  0  # atno 11005 bound_to 11000
  145.9398  139.2661  143.1276 LP  0  0  0  0  0  0  0  0  0  0  0  0  # atno 17320 bound_to 7965
  145.9436  140.8961  143.0295 LP  0  0  0  0  0  0  0  0  0  0  0  0  # atno 17321 bound_to 7965
  139.6020  144.1275  152.2209 LP  0  0  0  0  0  0  0  0  0  0  0  0  # atno 17342 bound_to 10162
  140.0662  144.5816  150.7225 LP  0  0  0  0  0  0  0  0  0  0  0  0  # atno 17343 bound_to 10162
  157.1375  131.0288  151.2942 LP  0  0  0  0  0  0  0  0  0  0  0  0  # atno 17370 bound_to 10713
  157.4499  130.7592  149.7142 LP  0  0  0  0  0  0  0  0  0  0  0  0  # atno 17371 bound_to 10713
  140.0279  134.6450  155.9147 LP  0  0  0  0  0  0  0  0  0  0  0  0  # atno 17394 bound_to 11000
  141.1827  133.6549  156.5087 LP  0  0  0  0  0  0  0  0  0  0  0  0  # atno 17395 bound_to 11000

$$$$
