AV-unprocessed.smi:1722|AV-procd|sdf|6943|dock4
  -GOLD-   22720 8153D 1   1.00000     0.00000
 Structure written by MMmdl.
 39 40  0  0  0  0  0  0  0  0  1 V2000
  154.0315  138.7530  157.5599 O   0  0  0  0  0  0  0  0  0  0  0  0
  153.6234  138.6218  158.7132 C   0  0  0  0  0  0  0  0  0  0  0  0
  154.1125  137.4381  159.5458 C   0  0  0  0  0  0  0  0  0  0  0  0
  153.5005  137.4934  160.8277 O   0  0  0  0  0  0  0  0  0  0  0  0
  154.2376  136.8565  161.8628 C   0  0  0  0  0  0  0  0  0  0  0  0
  154.5339  135.4210  161.3937 C   0  0  0  0  0  0  0  0  0  0  0  0
  155.2683  134.6143  162.4767 C   0  0  0  0  0  0  0  0  0  0  0  0
  154.4746  134.6021  163.7925 C   0  0  0  0  0  0  0  0  0  0  0  0
  154.1690  136.0308  164.2691 C   0  0  0  0  0  0  0  0  0  0  0  0
  153.4395  136.8396  163.1839 C   0  0  0  0  0  0  0  0  0  0  0  0
  152.7330  139.4302  159.3222 N   0  0  0  0  0  0  0  0  0  0  0  0
  152.1183  140.6013  158.8483 C   0  0  0  0  0  0  0  0  0  0  0  0
  152.0998  141.7901  159.5060 C   0  0  0  0  0  0  0  0  0  0  0  0
  151.4348  142.9626  158.9625 C   0  0  0  0  0  0  0  0  0  0  0  0
  151.3727  144.2712  159.7350 C   0  0  0  0  0  0  0  0  0  0  0  0
  151.9941  145.2304  159.0503 F   0  0  0  0  0  0  0  0  0  0  0  0
  150.1117  144.6558  159.9383 F   0  0  0  0  0  0  0  0  0  0  0  0
  151.9705  144.1544  160.9209 F   0  0  0  0  0  0  0  0  0  0  0  0
  150.8085  142.8041  157.7819 C   0  0  0  0  0  0  0  0  0  0  0  0
  150.8228  141.5857  157.0991 N   0  0  0  0  0  0  0  0  0  0  0  0
  151.4328  140.4675  157.5521 C   0  0  0  0  0  0  0  0  0  0  0  0
  151.3937  139.4290  156.8932 O   0  0  0  0  0  0  0  0  0  0  0  0
  150.3377  141.5499  156.2141 H   0  0  0  0  0  0  0  0  0  0  0  0
  153.8474  136.5123  159.0335 H   0  0  0  0  0  0  0  0  0  0  0  0
  155.1989  137.4757  159.6280 H   0  0  0  0  0  0  0  0  0  0  0  0
  155.1885  137.3715  162.0113 H   0  0  0  0  0  0  0  0  0  0  0  0
  153.6002  134.9182  161.1376 H   0  0  0  0  0  0  0  0  0  0  0  0
  155.1314  135.4443  160.4818 H   0  0  0  0  0  0  0  0  0  0  0  0
  155.4324  133.5929  162.1325 H   0  0  0  0  0  0  0  0  0  0  0  0
  156.2554  135.0457  162.6481 H   0  0  0  0  0  0  0  0  0  0  0  0
  153.5406  134.0568  163.6511 H   0  0  0  0  0  0  0  0  0  0  0  0
  155.0333  134.0651  164.5596 H   0  0  0  0  0  0  0  0  0  0  0  0
  153.5654  135.9982  165.1765 H   0  0  0  0  0  0  0  0  0  0  0  0
  155.0997  136.5339  164.5344 H   0  0  0  0  0  0  0  0  0  0  0  0
  153.2731  137.8531  163.5476 H   0  0  0  0  0  0  0  0  0  0  0  0
  152.4531  136.4078  163.0100 H   0  0  0  0  0  0  0  0  0  0  0  0
  152.4400  139.1473  160.2467 H   0  0  0  0  0  0  0  0  0  0  0  0
  152.5711  141.8996  160.4689 H   0  0  0  0  0  0  0  0  0  0  0  0
  150.2528  143.5813  157.2783 H   0  0  0  0  0  0  0  0  0  0  0  0
  1  2  2  0  0  0  0
  2  3  1  0  0  0  0
  2 11  1  0  0  0  0
  3  4  1  0  0  0  0
  3 24  1  0  0  0  0
  3 25  1  0  0  0  0
  4  5  1  0  0  0  0
  5 10  1  0  0  0  0
  5  6  1  0  0  0  0
  5 26  1  0  0  0  0
  6  7  1  0  0  0  0
  6 27  1  0  0  0  0
  6 28  1  0  0  0  0
  7  8  1  0  0  0  0
  7 29  1  0  0  0  0
  7 30  1  0  0  0  0
  8  9  1  0  0  0  0
  8 31  1  0  0  0  0
  8 32  1  0  0  0  0
  9 10  1  0  0  0  0
  9 33  1  0  0  0  0
  9 34  1  0  0  0  0
 10 35  1  0  0  0  0
 10 36  1  0  0  0  0
 11 12  1  0  0  0  0
 11 37  1  0  0  0  0
 12 21  1  0  0  0  0
 12 13  2  0  0  0  0
 13 14  1  0  0  0  0
 13 38  1  0  0  0  0
 14 15  1  0  0  0  0
 14 19  2  0  0  0  0
 15 16  1  0  0  0  0
 15 17  1  0  0  0  0
 15 18  1  0  0  0  0
 19 20  1  0  0  0  0
 19 39  1  0  0  0  0
 20 23  1  0  0  0  0
 20 21  1  0  0  0  0
 21 22  2  0  0  0  0
M  END
> <s_m_source_file>
AV-unprocessed.smi

> <i_m_source_file_index>
1722

> <i_lp_mmshare_version>
43012

> <i_f3d_flags>
0

> <s_epik_input>
Tz1jMVtuSF1bY0hdYyhDKEYpKEYpRilbY0hdYzFbTkhdQyg9TylbQ0gyXU9bQ0hdMltDSDJdW0NIMl1bQ0gyXVtDSDJdW0NIMl0y

> <s_epik_cmdline>
J2VwaWtfcHl0aG9uJywgJy1waCcsICc3LjAnLCAnLXRuJywgJzgnLCAnLW1hJywgJzIwMCcsICctbWV0YWxfYmluZGluZycsICctaW1hZScsICc8aW5maWxlLm1hZT4nLCAnLW9tYWUnLCAnPG91dGZpbGUubWFlPic=

> <r_lp_tautomer_probability>
0.999

> <r_epik_Ionization_Penalty>
0.008897

> <r_epik_Ionization_Penalty_Charging>
0.00889691

> <r_epik_Ionization_Penalty_Neutral>
9.17026e-08

> <r_epik_State_Penalty>
0.00672877

> <r_epik_Charging_Adjusted_Penalty>
0.0156257

> <i_epik_Tot_Q>
0

> <i_epik_Tot_abs_Q>
0

> <r_epik_Metal_State_Penalty>
0.320955

> <b_epik_Metal_Only>
0

> <s_lp_Force_Field>
OPLS_2005

> <r_lp_Energy>
24.9811

> <b_lp_Chiralities_Consistent>
1

> <s_lp_Variant>
AV-unprocessed.smi:1722-1

> <Gold.Version>
5.8.1

> <Gold.Id.Protein>
6NUR|6NUR_protein|mol2

> <Gold.PLP.Fitness>
49.1646

> <Gold.PLP.PLP>
-44.5181

> <Gold.PLP.part.hbond>
-0.7523

> <Gold.PLP.part.metal>
0.0000

> <Gold.PLP.part.buried>
-7.2671

> <Gold.PLP.part.nonpolar>
-36.8780

> <Gold.PLP.part.repulsive>
0.1490

> <Gold.PLP.ligand.clash>
0.0000

> <Gold.PLP.ligand.torsion>
0.6935

> <Gold.PLP.Chemscore.Hbond>
0.9920

> <Gold.PLP.Chemscore.CHOScore>
1.0000

> <Gold.PLP.Chemscore.Metal>
0.0000

> <Gold.Chemscore.Hbonds>
donor molecule, donor type, donor heavy atom, donor atom, acceptor molecule, acceptor atom, score
      P1  H  7997  8009       L1     1  0.87
      L1  C    19    39       P1  8028  1.00

> <Gold.PLP.Chemscore.Internal.Correction>
0.0575

> <Gold.Rescore>
     Score         DG    S(hbond)    S(metal)    S(lipo)     H(rot)  DE(clash)    DE(int)     intcor
     15.18     -16.04       0.98        0.00      97.19       1.59       0.09       0.77       ----

> <Gold.Chemscore.Fitness>
15.1824

> <Gold.Chemscore.DG>
-16.0397

> <Gold.Chemscore.ZeroCoef>
-5.4800

> <Gold.Chemscore.Hbond>
0.9792

> <Gold.Chemscore.Metal>
0.0000

> <Gold.Chemscore.Lipo>
97.1887

> <Gold.Chemscore.Internal_Hbond>
0.0000

> <Gold.Chemscore.DEClash>
0.0857

> <Gold.Chemscore.DEInternal>
0.7716

> <Gold.Chemscore.Rot>
1.5945

> <Gold.Chemscore.Internal.Correction>
   9.000000E+99

> <Gold.Chemscore.Hbonds>
donor molecule, donor type, donor heavy atom, donor atom, acceptor molecule, acceptor atom, score
      P1  H  7997  8009       L1     1  0.79

> <Gold.Chemscore.Hbond.Weighted>
-3.2706

> <Gold.Chemscore.Metal.Weighted>
-0.0000

> <Gold.Chemscore.Lipo.Weighted>
-11.3711

> <Gold.Chemscore.Internal_Hbond.Weighted>
0.0000

> <Gold.Chemscore.DEClash.Weighted>
0.0857

> <Gold.Chemscore.DEInternal.Weighted>
0.7716

> <Gold.Chemscore.Rot.Weighted>
4.0820

> <Gold.Chemscore.Internal.Correction.Weighted>
   9.000000E+99

> <Gold.Protein.RotatedTorsions>
[ 6907 6896 6895 6894 ] final  -87.60 input  -60.11 | X-H torsion
[ 7974 7965 7964 7962 ] final   -7.87 input  175.53 | X-H torsion
[ 8008 7997 7996 7995 ] final  143.12 input   59.86 | X-H torsion
[ 10167 10162 10161 10158 ] final   31.43 input  -65.29 | X-H torsion
[ 10718 10713 10712 10709 ] final   87.41 input   66.30 | X-H torsion
[ 10763 10752 10751 10750 ] final   72.35 input  -60.55 | X-H torsion
[ 11005 11000 10999 10996 ] final -143.10 input  -57.11 | X-H torsion

> <Gold.Protein.ActiveResidues>
 VAL166  LYS551  ARG553  GLY616  TRP617  ASP618  TYR619  PRO620  LYS621  CYS622 
 ASP623  PHE694  ASN695  SER759  ASP760  ASP761  ALA762  ILE779  LEU786  VAL792 
 PHE793  MET794  SER795  GLU796  ALA797  LYS798  CYS799  TRP800  GLU811  SER814 

> <Gold.Protein.RotatedAtoms>
  150.6866  134.2871  159.4651 H   0  0  0  0  0  0  0  0  0  0  0  0  # atno 6907 bound_to 6896
  152.0780  134.9487  160.0583 H   0  0  0  0  0  0  0  0  0  0  0  0  # atno 6908 bound_to 6896
  152.0851  133.4137  159.4556 H   0  0  0  0  0  0  0  0  0  0  0  0  # atno 6909 bound_to 6896
  146.2295  140.2384  142.8342 H   0  0  0  0  0  0  0  0  0  0  0  0  # atno 7974 bound_to 7965
  156.2936  140.2271  156.4839 H   0  0  0  0  0  0  0  0  0  0  0  0  # atno 8008 bound_to 7997
  154.7829  140.0459  157.1162 H   0  0  0  0  0  0  0  0  0  0  0  0  # atno 8009 bound_to 7997
  154.9737  140.3069  155.4980 H   0  0  0  0  0  0  0  0  0  0  0  0  # atno 8010 bound_to 7997
  140.4589  144.0936  150.6208 H   0  0  0  0  0  0  0  0  0  0  0  0  # atno 10167 bound_to 10162
  157.6940  131.0254  150.3120 H   0  0  0  0  0  0  0  0  0  0  0  0  # atno 10718 bound_to 10713
  153.0453  135.5103  154.7730 H   0  0  0  0  0  0  0  0  0  0  0  0  # atno 10763 bound_to 10752
  154.6635  135.2942  154.9838 H   0  0  0  0  0  0  0  0  0  0  0  0  # atno 10764 bound_to 10752
  154.0681  135.6681  153.4873 H   0  0  0  0  0  0  0  0  0  0  0  0  # atno 10765 bound_to 10752
  140.8159  134.2689  157.4921 H   0  0  0  0  0  0  0  0  0  0  0  0  # atno 11005 bound_to 11000
  144.9503  140.8172  143.5576 LP  0  0  0  0  0  0  0  0  0  0  0  0  # atno 17320 bound_to 7965
  145.2344  139.2100  143.5026 LP  0  0  0  0  0  0  0  0  0  0  0  0  # atno 17321 bound_to 7965
  140.4117  143.2653  151.9824 LP  0  0  0  0  0  0  0  0  0  0  0  0  # atno 17342 bound_to 10162
  139.4804  144.5909  151.7773 LP  0  0  0  0  0  0  0  0  0  0  0  0  # atno 17343 bound_to 10162
  156.3620  130.3848  149.7244 LP  0  0  0  0  0  0  0  0  0  0  0  0  # atno 17370 bound_to 10713
  156.4687  130.7986  151.3005 LP  0  0  0  0  0  0  0  0  0  0  0  0  # atno 17371 bound_to 10713
  139.8711  134.9508  156.4068 LP  0  0  0  0  0  0  0  0  0  0  0  0  # atno 17394 bound_to 11000
  140.9150  133.7685  155.9837 LP  0  0  0  0  0  0  0  0  0  0  0  0  # atno 17395 bound_to 11000

$$$$
