AV-unprocessed.smi:1135|AV-procd|sdf|4858|dock5
  -GOLD-   22720 3433D 1   1.00000     0.00000
 Structure written by MMmdl.
 45 46  0  0  0  0  0  0  0  0  1 V2000
  150.7834  141.4239  155.8907 C   0  0  0  0  0  0  0  0  0  0  0  0
  149.5700  140.7512  155.2334 C   0  0  2  0  0  0  0  0  0  0  0  0
  148.9172  141.6697  154.1875 C   0  0  0  0  0  0  0  0  0  0  0  0
  147.6937  141.0062  153.5313 C   0  0  0  0  0  0  0  0  0  0  0  0
  146.6242  140.5199  154.5423 C   0  0  1  0  0  0  0  0  0  0  0  0
  145.8806  141.7290  155.1601 C   0  0  0  0  0  0  0  0  0  0  0  0
  145.6820  139.7001  153.7682 N   0  0  0  0  0  0  0  0  0  0  0  0
  145.7567  138.3901  153.4786 C   0  0  0  0  0  0  0  0  0  0  0  0
  146.6682  137.6436  153.8357 O   0  0  0  0  0  0  0  0  0  0  0  0
  144.7060  137.9873  152.7506 N   0  0  0  0  0  0  0  0  0  0  0  0
  144.4809  136.6197  152.2970 C   0  0  0  0  0  0  0  0  0  0  0  0
  145.6105  136.1419  151.3696 C   0  0  0  0  0  0  0  0  0  0  0  0
  145.3858  134.7275  150.8689 C   0  0  0  0  0  0  0  0  0  0  0  0
  144.2316  134.4026  150.1246 C   0  0  0  0  0  0  0  0  0  0  0  0
  144.0684  133.0744  149.6852 C   0  0  0  0  0  0  0  0  0  0  0  0
  145.0591  132.1269  150.0073 C   0  0  0  0  0  0  0  0  0  0  0  0
  146.1737  132.5517  150.7577 C   0  0  0  0  0  0  0  0  0  0  0  0
  146.3410  133.8230  151.1822 N   0  0  0  0  0  0  0  0  0  0  0  0
  147.3070  139.6470  155.6305 C   0  0  0  0  0  0  0  0  0  0  0  0
  148.5293  140.3196  156.2798 C   0  0  0  0  0  0  0  0  0  0  0  0
  150.4936  142.3310  156.4221 H   0  0  0  0  0  0  0  0  0  0  0  0
  151.5307  141.6988  155.1459 H   0  0  0  0  0  0  0  0  0  0  0  0
  151.2629  140.7570  156.6077 H   0  0  0  0  0  0  0  0  0  0  0  0
  149.9261  139.8555  154.7220 H   0  0  0  0  0  0  0  0  0  0  0  0
  148.6266  142.6134  154.6498 H   0  0  0  0  0  0  0  0  0  0  0  0
  149.6447  141.9246  153.4160 H   0  0  0  0  0  0  0  0  0  0  0  0
  147.2467  141.6960  152.8140 H   0  0  0  0  0  0  0  0  0  0  0  0
  148.0491  140.1572  152.9445 H   0  0  0  0  0  0  0  0  0  0  0  0
  146.5600  142.4091  155.6721 H   0  0  0  0  0  0  0  0  0  0  0  0
  145.1383  141.4201  155.8958 H   0  0  0  0  0  0  0  0  0  0  0  0
  145.3623  142.3068  154.3942 H   0  0  0  0  0  0  0  0  0  0  0  0
  144.8770  140.1935  153.4107 H   0  0  0  0  0  0  0  0  0  0  0  0
  144.0072  138.6718  152.5011 H   0  0  0  0  0  0  0  0  0  0  0  0
  144.4232  135.9777  153.1765 H   0  0  0  0  0  0  0  0  0  0  0  0
  143.5155  136.5442  151.7934 H   0  0  0  0  0  0  0  0  0  0  0  0
  145.7020  136.8107  150.5128 H   0  0  0  0  0  0  0  0  0  0  0  0
  146.5664  136.1833  151.8938 H   0  0  0  0  0  0  0  0  0  0  0  0
  143.4878  135.1518  149.8954 H   0  0  0  0  0  0  0  0  0  0  0  0
  143.1986  132.7877  149.1129 H   0  0  0  0  0  0  0  0  0  0  0  0
  144.9661  131.0993  149.6882 H   0  0  0  0  0  0  0  0  0  0  0  0
  146.9510  131.8511  151.0247 H   0  0  0  0  0  0  0  0  0  0  0  0
  146.5952  139.3786  156.4114 H   0  0  0  0  0  0  0  0  0  0  0  0
  147.6326  138.7051  155.1856 H   0  0  0  0  0  0  0  0  0  0  0  0
  148.9843  139.6285  156.9900 H   0  0  0  0  0  0  0  0  0  0  0  0
  148.2083  141.1831  156.8630 H   0  0  0  0  0  0  0  0  0  0  0  0
  1  2  1  0  0  0  0
  1 21  1  0  0  0  0
  1 22  1  0  0  0  0
  1 23  1  0  0  0  0
  2 20  1  0  0  0  0
  2  3  1  0  0  0  0
  2 24  1  0  0  0  0
  3  4  1  0  0  0  0
  3 25  1  0  0  0  0
  3 26  1  0  0  0  0
  4  5  1  0  0  0  0
  4 27  1  0  0  0  0
  4 28  1  0  0  0  0
  5  6  1  0  0  0  0
  5  7  1  0  0  0  0
  5 19  1  0  0  0  0
  6 29  1  0  0  0  0
  6 30  1  0  0  0  0
  6 31  1  0  0  0  0
  7  8  1  0  0  0  0
  7 32  1  0  0  0  0
  8  9  2  0  0  0  0
  8 10  1  0  0  0  0
 10 11  1  0  0  0  0
 10 33  1  0  0  0  0
 11 12  1  0  0  0  0
 11 34  1  0  0  0  0
 11 35  1  0  0  0  0
 12 13  1  0  0  0  0
 12 36  1  0  0  0  0
 12 37  1  0  0  0  0
 13 18  1  0  0  0  0
 13 14  2  0  0  0  0
 14 15  1  0  0  0  0
 14 38  1  0  0  0  0
 15 16  2  0  0  0  0
 15 39  1  0  0  0  0
 16 17  1  0  0  0  0
 16 40  1  0  0  0  0
 17 18  2  0  0  0  0
 17 41  1  0  0  0  0
 19 20  1  0  0  0  0
 19 42  1  0  0  0  0
 19 43  1  0  0  0  0
 20 44  1  0  0  0  0
 20 45  1  0  0  0  0
M  END
> <s_m_source_file>
AV-unprocessed.smi

> <i_m_source_file_index>
1135

> <i_lp_mmshare_version>
43012

> <i_f3d_flags>
0

> <s_epik_input>
W0NIMl0xW0NIMl1bQ0BIXShbQ0gzXSlbQ0gyXVtDSDJdW0NAQF0xKFtDSDNdKVtOSF1DKD1PKVtOSF1bQ0gyXVtDSDJdYzJbY0hdW2NIXVtjSF1bY0hdbjI=

> <s_epik_cmdline>
J2VwaWtfcHl0aG9uJywgJy1waCcsICc3LjAnLCAnLXRuJywgJzgnLCAnLW1hJywgJzIwMCcsICctbWV0YWxfYmluZGluZycsICctaW1hZScsICc8aW5maWxlLm1hZT4nLCAnLW9tYWUnLCAnPG91dGZpbGUubWFlPic=

> <r_epik_Ionization_Penalty>
0.0448679

> <r_epik_Ionization_Penalty_Charging>
0

> <r_epik_Ionization_Penalty_Neutral>
0.0448679

> <r_epik_State_Penalty>
0.0379931

> <r_epik_Charging_Adjusted_Penalty>
0.0379931

> <i_epik_Tot_Q>
0

> <i_epik_Tot_abs_Q>
0

> <r_epik_Metal_State_Penalty>
0.0353093

> <b_epik_Metal_Only>
0

> <s_lp_Force_Field>
OPLS_2005

> <r_lp_Energy>
8.69074

> <b_lp_Chiralities_Consistent>
1

> <s_lp_Variant>
AV-unprocessed.smi:1135-1

> <Gold.Version>
5.8.1

> <Gold.Id.Protein>
6NUR|6NUR_protein|mol2

> <Gold.PLP.Fitness>
41.9899

> <Gold.PLP.PLP>
-34.3807

> <Gold.PLP.part.hbond>
-2.6451

> <Gold.PLP.part.metal>
0.0000

> <Gold.PLP.part.buried>
-0.6850

> <Gold.PLP.part.nonpolar>
-30.9616

> <Gold.PLP.part.repulsive>
0.3304

> <Gold.PLP.ligand.clash>
0.0000

> <Gold.PLP.ligand.torsion>
0.5491

> <Gold.PLP.Chemscore.Hbond>
1.8960

> <Gold.PLP.Chemscore.CHOScore>
1.0000

> <Gold.PLP.Chemscore.Metal>
0.0000

> <Gold.Chemscore.Hbonds>
donor molecule, donor type, donor heavy atom, donor atom, acceptor molecule, acceptor atom, score
      L1  H     7    32       P1 10175  1.00
      L1  H    10    33       P1 10175  0.88
      L1  C    17    41       P1 10747  1.00

> <Gold.PLP.Chemscore.Internal.Correction>
0.0193

> <Gold.Rescore>
     Score         DG    S(hbond)    S(metal)    S(lipo)     H(rot)  DE(clash)    DE(int)     intcor
     17.16     -19.47       1.92        0.00      95.90       1.42       0.30       2.01       ----

> <Gold.Chemscore.Fitness>
17.1584

> <Gold.Chemscore.DG>
-19.4715

> <Gold.Chemscore.ZeroCoef>
-5.4800

> <Gold.Chemscore.Hbond>
1.9189

> <Gold.Chemscore.Metal>
0.0000

> <Gold.Chemscore.Lipo>
95.9037

> <Gold.Chemscore.Internal_Hbond>
0.0000

> <Gold.Chemscore.DEClash>
0.3046

> <Gold.Chemscore.DEInternal>
2.0085

> <Gold.Chemscore.Rot>
1.4213

> <Gold.Chemscore.Internal.Correction>
   9.000000E+99

> <Gold.Chemscore.Hbonds>
donor molecule, donor type, donor heavy atom, donor atom, acceptor molecule, acceptor atom, score
      L1  H     7    32       P1 10175  0.94
      L1  H    10    33       P1 10175  0.87

> <Gold.Chemscore.Hbond.Weighted>
-6.4092

> <Gold.Chemscore.Metal.Weighted>
-0.0000

> <Gold.Chemscore.Lipo.Weighted>
-11.2207

> <Gold.Chemscore.Internal_Hbond.Weighted>
0.0000

> <Gold.Chemscore.DEClash.Weighted>
0.3046

> <Gold.Chemscore.DEInternal.Weighted>
2.0085

> <Gold.Chemscore.Rot.Weighted>
3.6385

> <Gold.Chemscore.Internal.Correction.Weighted>
   9.000000E+99

> <Gold.Protein.RotatedTorsions>
[ 6907 6896 6895 6894 ] final -120.68 input  -60.11 | X-H torsion
[ 7974 7965 7964 7962 ] final  -21.42 input  175.53 | X-H torsion
[ 8008 7997 7996 7995 ] final  141.65 input   59.86 | X-H torsion
[ 10167 10162 10161 10158 ] final   52.73 input  -65.29 | X-H torsion
[ 10718 10713 10712 10709 ] final   19.43 input   66.30 | X-H torsion
[ 10763 10752 10751 10750 ] final  -98.15 input  -60.55 | X-H torsion
[ 11005 11000 10999 10996 ] final  156.27 input  -57.11 | X-H torsion

> <Gold.Protein.ActiveResidues>
 VAL166  LYS551  ARG553  GLY616  TRP617  ASP618  TYR619  PRO620  LYS621  CYS622 
 ASP623  PHE694  ASN695  SER759  ASP760  ASP761  ALA762  ILE779  LEU786  VAL792 
 PHE793  MET794  SER795  GLU796  ALA797  LYS798  CYS799  TRP800  GLU811  SER814 

> <Gold.Protein.RotatedAtoms>
  150.8415  133.7929  159.3058 H   0  0  0  0  0  0  0  0  0  0  0  0  # atno 6907 bound_to 6896
  151.5629  135.1063  159.9986 H   0  0  0  0  0  0  0  0  0  0  0  0  # atno 6908 bound_to 6896
  152.4477  133.7526  159.6759 H   0  0  0  0  0  0  0  0  0  0  0  0  # atno 6909 bound_to 6896
  146.1734  140.4339  142.8523 H   0  0  0  0  0  0  0  0  0  0  0  0  # atno 7974 bound_to 7965
  156.2962  140.2309  156.4599 H   0  0  0  0  0  0  0  0  0  0  0  0  # atno 8008 bound_to 7997
  154.8027  140.0447  157.1305 H   0  0  0  0  0  0  0  0  0  0  0  0  # atno 8009 bound_to 7997
  154.9515  140.3042  155.5076 H   0  0  0  0  0  0  0  0  0  0  0  0  # atno 8010 bound_to 7997
  140.2483  144.3507  150.6356 H   0  0  0  0  0  0  0  0  0  0  0  0  # atno 10167 bound_to 10162
  157.1104  130.6506  149.5896 H   0  0  0  0  0  0  0  0  0  0  0  0  # atno 10718 bound_to 10713
  154.7390  135.5020  153.9090 H   0  0  0  0  0  0  0  0  0  0  0  0  # atno 10763 bound_to 10752
  153.1023  135.6688  153.9657 H   0  0  0  0  0  0  0  0  0  0  0  0  # atno 10764 bound_to 10752
  153.9440  135.3065  155.3420 H   0  0  0  0  0  0  0  0  0  0  0  0  # atno 10765 bound_to 10752
  140.1660  134.8577  157.2632 H   0  0  0  0  0  0  0  0  0  0  0  0  # atno 11005 bound_to 11000
  144.8197  140.6529  143.6361 LP  0  0  0  0  0  0  0  0  0  0  0  0  # atno 17320 bound_to 7965
  145.4279  139.1553  143.4038 LP  0  0  0  0  0  0  0  0  0  0  0  0  # atno 17321 bound_to 7965
  140.6060  143.2168  151.6979 LP  0  0  0  0  0  0  0  0  0  0  0  0  # atno 17342 bound_to 10162
  139.5054  144.3717  152.0463 LP  0  0  0  0  0  0  0  0  0  0  0  0  # atno 17343 bound_to 10162
  155.9852  130.4880  150.7019 LP  0  0  0  0  0  0  0  0  0  0  0  0  # atno 17370 bound_to 10713
  157.4564  131.0878  151.0792 LP  0  0  0  0  0  0  0  0  0  0  0  0  # atno 17371 bound_to 10713
  140.2434  134.3769  155.7471 LP  0  0  0  0  0  0  0  0  0  0  0  0  # atno 17394 bound_to 11000
  141.2213  133.7277  156.8824 LP  0  0  0  0  0  0  0  0  0  0  0  0  # atno 17395 bound_to 11000

$$$$
