AV-unprocessed.smi:41|AV-procd|sdf|383|dock1
  -GOLD-   2262016243D 1   1.00000     0.00000
 Structure written by MMmdl.
 26 27  0  0  0  0  0  0  0  0  1 V2000
  148.9634  138.9698  153.2614 N   0  0  0  0  0  0  0  0  0  0  0  0
  149.6357  139.6948  154.1673 C   0  0  0  0  0  0  0  0  0  0  0  0
  150.6897  139.1649  154.7572 N   0  0  0  0  0  0  0  0  0  0  0  0
  151.4385  139.8256  155.6959 C   0  0  0  0  0  0  0  0  0  0  0  0
  152.4244  139.2861  156.1964 O   0  0  0  0  0  0  0  0  0  0  0  0
  151.0276  141.1327  156.0613 N   0  0  0  0  0  0  0  0  0  0  0  0
  151.8049  141.9206  157.0147 C   0  0  2  0  0  0  0  0  0  0  0  0
  152.0028  141.2387  158.3877 C   0  0  0  0  0  0  0  0  0  0  0  0
  152.1353  142.5590  159.6073 S   0  0  0  0  0  0  0  0  0  0  0  0
  151.8495  143.7766  158.3069 C   0  0  2  0  0  0  0  0  0  0  0  0
  150.9932  144.9453  158.8156 C   0  0  0  0  0  0  0  0  0  0  0  0
  149.6396  144.5543  158.9011 O   0  0  0  0  0  0  0  0  0  0  0  0
  151.1787  143.1450  157.2294 O   0  0  0  0  0  0  0  0  0  0  0  0
  149.9399  141.7098  155.4175 C   0  0  0  0  0  0  0  0  0  0  0  0
  149.2217  141.0407  154.4902 C   0  0  0  0  0  0  0  0  0  0  0  0
  148.1646  141.6117  153.8870 F   0  0  0  0  0  0  0  0  0  0  0  0
  152.7874  142.1466  156.5969 H   0  0  0  0  0  0  0  0  0  0  0  0
  152.8271  144.1317  157.9750 H   0  0  0  0  0  0  0  0  0  0  0  0
  148.1583  139.3651  152.7974 H   0  0  0  0  0  0  0  0  0  0  0  0
  149.2627  138.0297  153.0463 H   0  0  0  0  0  0  0  0  0  0  0  0
  151.1610  140.6061  158.6614 H   0  0  0  0  0  0  0  0  0  0  0  0
  152.8999  140.6198  158.3683 H   0  0  0  0  0  0  0  0  0  0  0  0
  151.3483  145.3082  159.7807 H   0  0  0  0  0  0  0  0  0  0  0  0
  151.0427  145.7815  158.1175 H   0  0  0  0  0  0  0  0  0  0  0  0
  149.1124  145.1942  158.4477 H   0  0  0  0  0  0  0  0  0  0  0  0
  149.6488  142.7253  155.6421 H   0  0  0  0  0  0  0  0  0  0  0  0
  1  2  1  0  0  0  0
  1 19  1  0  0  0  0
  1 20  1  0  0  0  0
  2 15  1  0  0  0  0
  2  3  2  0  0  0  0
  3  4  1  0  0  0  0
  4  5  2  0  0  0  0
  4  6  1  0  0  0  0
  6  7  1  0  0  0  0
  6 14  1  0  0  0  0
  7 17  1  0  0  0  0
  7 13  1  0  0  0  0
  7  8  1  0  0  0  0
  8  9  1  0  0  0  0
  8 21  1  0  0  0  0
  8 22  1  0  0  0  0
  9 10  1  0  0  0  0
 10 18  1  0  0  0  0
 10 11  1  0  0  0  0
 10 13  1  0  0  0  0
 11 12  1  0  0  0  0
 11 23  1  0  0  0  0
 11 24  1  0  0  0  0
 12 25  1  0  0  0  0
 14 15  2  0  0  0  0
 14 26  1  0  0  0  0
 15 16  1  0  0  0  0
M  END
> <s_m_source_file>
AV-unprocessed.smi

> <i_m_source_file_index>
41

> <i_lp_mmshare_version>
43012

> <i_f3d_flags>
0

> <s_epik_input>
W05IMl1jMW5jKD1PKW4oW2NIXWMxRilbQ0BASF0yW0NIMl1TW0NAQEhdKE8yKVtDSDJdW09IXQ==

> <s_epik_cmdline>
J2VwaWtfcHl0aG9uJywgJy1waCcsICc3LjAnLCAnLXRuJywgJzgnLCAnLW1hJywgJzIwMCcsICctbWV0YWxfYmluZGluZycsICctaW1hZScsICc8aW5maWxlLm1hZT4nLCAnLW9tYWUnLCAnPG91dGZpbGUubWFlPic=

> <r_lp_tautomer_probability>
1

> <r_epik_Ionization_Penalty>
0.000101883

> <r_epik_Ionization_Penalty_Charging>
1.48607e-08

> <r_epik_Ionization_Penalty_Neutral>
0.000101868

> <r_epik_State_Penalty>
-0

> <r_epik_Charging_Adjusted_Penalty>
1.48607e-08

> <i_epik_Tot_Q>
0

> <i_epik_Tot_abs_Q>
0

> <r_epik_Metal_State_Penalty>
-0

> <b_epik_Metal_Only>
0

> <s_epik_Chemistry_Notes>
This compound contains an acetal/aminal-like group ( X-CH(R)-Y where X, Y are N, S, or O) that may be acid/base labile, releasing an aldehyde.

> <s_lp_Force_Field>
OPLS_2005

> <r_lp_Energy>
14.7883

> <b_lp_Chiralities_Consistent>
1

> <s_lp_Variant>
AV-unprocessed.smi:41-1

> <Gold.Version>
5.8.1

> <Gold.Id.Protein>
6NUR|6NUR_protein|mol2

> <Gold.PLP.Fitness>
44.7585

> <Gold.PLP.PLP>
-33.4962

> <Gold.PLP.part.hbond>
-4.0585

> <Gold.PLP.part.metal>
0.0000

> <Gold.PLP.part.buried>
-4.8477

> <Gold.PLP.part.nonpolar>
-26.2837

> <Gold.PLP.part.repulsive>
0.3919

> <Gold.PLP.ligand.clash>
0.0000

> <Gold.PLP.ligand.torsion>
0.1978

> <Gold.PLP.Chemscore.Hbond>
2.8746

> <Gold.PLP.Chemscore.CHOScore>
1.0000

> <Gold.PLP.Chemscore.Metal>
0.0000

> <Gold.Chemscore.Hbonds>
donor molecule, donor type, donor heavy atom, donor atom, acceptor molecule, acceptor atom, score
      L1  H     1    20       P1  7948  0.69
      L1  H    12    25       P1  8029  1.00
      P1  H  7997  8008       L1     5  0.83
      L1  C    14    26       P1  8028  1.00

> <Gold.PLP.Chemscore.Internal.Correction>
0.0341

> <Gold.Rescore>
     Score         DG    S(hbond)    S(metal)    S(lipo)     H(rot)  DE(clash)    DE(int)     intcor
     13.82     -15.44       2.72        0.00      55.39       2.19       1.35       0.27       ----

> <Gold.Chemscore.Fitness>
13.8192

> <Gold.Chemscore.DG>
-15.4432

> <Gold.Chemscore.ZeroCoef>
-5.4800

> <Gold.Chemscore.Hbond>
2.7235

> <Gold.Chemscore.Metal>
0.0000

> <Gold.Chemscore.Lipo>
55.3887

> <Gold.Chemscore.Internal_Hbond>
0.0000

> <Gold.Chemscore.DEClash>
1.3503

> <Gold.Chemscore.DEInternal>
0.2737

> <Gold.Chemscore.Rot>
2.1929

> <Gold.Chemscore.Internal.Correction>
   9.000000E+99

> <Gold.Chemscore.Hbonds>
donor molecule, donor type, donor heavy atom, donor atom, acceptor molecule, acceptor atom, score
      L1  H     1    20       P1  7948  0.64
      L1  H    12    25       P1  8029  0.88
      P1  H  7997  8008       L1     5  0.80

> <Gold.Chemscore.Hbond.Weighted>
-9.0965

> <Gold.Chemscore.Metal.Weighted>
-0.0000

> <Gold.Chemscore.Lipo.Weighted>
-6.4805

> <Gold.Chemscore.Internal_Hbond.Weighted>
0.0000

> <Gold.Chemscore.DEClash.Weighted>
1.3503

> <Gold.Chemscore.DEInternal.Weighted>
0.2737

> <Gold.Chemscore.Rot.Weighted>
5.6137

> <Gold.Chemscore.Internal.Correction.Weighted>
   9.000000E+99

> <Gold.Protein.RotatedTorsions>
[ 6907 6896 6895 6894 ] final  -12.56 input  -60.11 | X-H torsion
[ 7974 7965 7964 7962 ] final  -13.54 input  175.53 | X-H torsion
[ 8008 7997 7996 7995 ] final  -36.25 input   59.86 | X-H torsion
[ 10167 10162 10161 10158 ] final   95.29 input  -65.29 | X-H torsion
[ 10718 10713 10712 10709 ] final   12.60 input   66.30 | X-H torsion
[ 10763 10752 10751 10750 ] final -161.30 input  -60.55 | X-H torsion
[ 11005 11000 10999 10996 ] final  -46.78 input  -57.11 | X-H torsion

> <Gold.Protein.ActiveResidues>
 VAL166  LYS551  ARG553  GLY616  TRP617  ASP618  TYR619  PRO620  LYS621  CYS622 
 ASP623  PHE694  ASN695  SER759  ASP760  ASP761  ALA762  ILE779  LEU786  VAL792 
 PHE793  MET794  SER795  GLU796  ALA797  LYS798  CYS799  TRP800  GLU811  SER814 

> <Gold.Protein.RotatedAtoms>
  151.3686  135.0918  159.9457 H   0  0  0  0  0  0  0  0  0  0  0  0  # atno 6907 bound_to 6896
  152.5142  133.9187  159.7534 H   0  0  0  0  0  0  0  0  0  0  0  0  # atno 6908 bound_to 6896
  150.9596  133.6405  159.2786 H   0  0  0  0  0  0  0  0  0  0  0  0  # atno 6909 bound_to 6896
  146.2110  140.3219  142.8391 H   0  0  0  0  0  0  0  0  0  0  0  0  # atno 7974 bound_to 7965
  154.4077  140.1635  156.2344 H   0  0  0  0  0  0  0  0  0  0  0  0  # atno 8008 bound_to 7997
  155.9255  140.3418  155.6184 H   0  0  0  0  0  0  0  0  0  0  0  0  # atno 8009 bound_to 7997
  155.7170  140.0764  157.2337 H   0  0  0  0  0  0  0  0  0  0  0  0  # atno 8010 bound_to 7997
  139.8003  144.6816  150.9774 H   0  0  0  0  0  0  0  0  0  0  0  0  # atno 10167 bound_to 10162
  157.0125  130.6122  149.5710 H   0  0  0  0  0  0  0  0  0  0  0  0  # atno 10718 bound_to 10713
  154.7316  135.3048  154.8882 H   0  0  0  0  0  0  0  0  0  0  0  0  # atno 10763 bound_to 10752
  153.9723  135.6740  153.4751 H   0  0  0  0  0  0  0  0  0  0  0  0  # atno 10764 bound_to 10752
  153.0923  135.4953  154.8635 H   0  0  0  0  0  0  0  0  0  0  0  0  # atno 10765 bound_to 10752
  141.0600  133.6712  156.3204 H   0  0  0  0  0  0  0  0  0  0  0  0  # atno 11005 bound_to 11000
  144.8914  140.7528  143.5924 LP  0  0  0  0  0  0  0  0  0  0  0  0  # atno 17320 bound_to 7965
  145.3141  139.1809  143.4623 LP  0  0  0  0  0  0  0  0  0  0  0  0  # atno 17321 bound_to 7965
  140.7820  143.4289  151.0726 LP  0  0  0  0  0  0  0  0  0  0  0  0  # atno 17342 bound_to 10162
  139.7961  143.8150  152.3157 LP  0  0  0  0  0  0  0  0  0  0  0  0  # atno 17343 bound_to 10162
  156.0131  130.5224  150.8051 LP  0  0  0  0  0  0  0  0  0  0  0  0  # atno 17370 bound_to 10713
  157.5310  131.0936  150.9955 LP  0  0  0  0  0  0  0  0  0  0  0  0  # atno 17371 bound_to 10713
  140.5887  134.5672  157.5495 LP  0  0  0  0  0  0  0  0  0  0  0  0  # atno 17394 bound_to 11000
  139.9424  134.7763  156.0645 LP  0  0  0  0  0  0  0  0  0  0  0  0  # atno 17395 bound_to 11000

$$$$
