AV-unprocessed.smi:1565|AV-procd|sdf|6302|dock1
  -GOLD-   22720 6503D 1   1.00000     0.00000
 Structure written by MMmdl.
 39 40  0  0  0  0  0  0  0  0  2 V2000
  144.3310  133.0344  151.1376 C   0  0  0  0  0  0  0  0  0  0  0  0
  145.8082  132.6027  151.1633 C   0  0  1  0  0  0  0  0  0  0  0  0
  146.5663  133.0896  152.4134 C   0  0  0  0  0  0  0  0  0  0  0  0
  146.2018  132.3022  153.5876 N   0  0  0  0  0  0  0  0  0  0  0  0
  146.6155  132.8396  154.8249 C   0  0  0  0  0  0  0  0  0  0  0  0
  145.6523  133.2772  155.7632 C   0  0  0  0  0  0  0  0  0  0  0  0
  146.0841  133.8193  156.9892 C   0  0  0  0  0  0  0  0  0  0  0  0
  147.4696  133.9044  157.2566 C   0  0  0  0  0  0  0  0  0  0  0  0
  148.0043  134.5083  158.5271 C   0  0  0  0  0  0  0  0  0  0  0  0
  149.2240  134.6893  158.6133 O   0  0  0  0  0  0  0  0  0  0  0  0
  147.0260  134.7313  159.4499 N   0  5  0  0  0  0  0  0  0  0  0  0
  147.2172  135.4985  160.6834 C   0  0  0  0  0  0  0  0  0  0  0  0
  147.0457  134.6087  161.9314 C   0  0  0  0  0  0  0  0  0  0  0  0
  145.7559  134.3022  162.0706 F   0  0  0  0  0  0  0  0  0  0  0  0
  147.7359  133.4747  161.8016 F   0  0  0  0  0  0  0  0  0  0  0  0
  147.4471  135.2425  163.0342 F   0  0  0  0  0  0  0  0  0  0  0  0
  148.3528  133.4461  156.2555 C   0  0  0  0  0  0  0  0  0  0  0  0
  147.9443  132.9236  155.0791 N   0  0  0  0  0  0  0  0  0  0  0  0
  146.3473  130.8642  153.3819 C   0  0  0  0  0  0  0  0  0  0  0  0
  145.5552  130.4184  152.1402 C   0  0  2  0  0  0  0  0  0  0  0  0
  145.7899  128.9400  151.8139 C   0  0  0  0  0  0  0  0  0  0  0  0
  145.9616  131.1898  151.0104 O   0  0  0  0  0  0  0  0  0  0  0  0
  144.2480  134.1211  151.1178 H   0  0  0  0  0  0  0  0  0  0  0  0
  143.7827  132.6853  152.0121 H   0  0  0  0  0  0  0  0  0  0  0  0
  143.8283  132.6493  150.2502 H   0  0  0  0  0  0  0  0  0  0  0  0
  146.2827  133.0545  150.2918 H   0  0  0  0  0  0  0  0  0  0  0  0
  147.6399  132.9823  152.2533 H   0  0  0  0  0  0  0  0  0  0  0  0
  146.3790  134.1528  152.5598 H   0  0  0  0  0  0  0  0  0  0  0  0
  144.5945  133.1960  155.5625 H   0  0  0  0  0  0  0  0  0  0  0  0
  145.3527  134.1655  157.7048 H   0  0  0  0  0  0  0  0  0  0  0  0
  148.1947  135.9823  160.7200 H   0  0  0  0  0  0  0  0  0  0  0  0
  146.4972  136.3157  160.7383 H   0  0  0  0  0  0  0  0  0  0  0  0
  149.4229  133.4942  156.3966 H   0  0  0  0  0  0  0  0  0  0  0  0
  147.4050  130.6245  153.2620 H   0  0  0  0  0  0  0  0  0  0  0  0
  145.9859  130.3203  154.2557 H   0  0  0  0  0  0  0  0  0  0  0  0
  144.4889  130.5591  152.3170 H   0  0  0  0  0  0  0  0  0  0  0  0
  145.4859  128.3018  152.6439 H   0  0  0  0  0  0  0  0  0  0  0  0
  146.8425  128.7437  151.6080 H   0  0  0  0  0  0  0  0  0  0  0  0
  145.2168  128.6394  150.9365 H   0  0  0  0  0  0  0  0  0  0  0  0
  1  2  1  0  0  0  0
  1 23  1  0  0  0  0
  1 24  1  0  0  0  0
  1 25  1  0  0  0  0
  2 22  1  0  0  0  0
  2  3  1  0  0  0  0
  2 26  1  0  0  0  0
  3  4  1  0  0  0  0
  3 27  1  0  0  0  0
  3 28  1  0  0  0  0
  4  5  1  0  0  0  0
  4 19  1  0  0  0  0
  5 18  1  0  0  0  0
  5  6  2  0  0  0  0
  6  7  1  0  0  0  0
  6 29  1  0  0  0  0
  7  8  2  0  0  0  0
  7 30  1  0  0  0  0
  8  9  1  0  0  0  0
  8 17  1  0  0  0  0
  9 10  2  0  0  0  0
  9 11  1  0  0  0  0
 11 12  1  0  0  0  0
 12 13  1  0  0  0  0
 12 31  1  0  0  0  0
 12 32  1  0  0  0  0
 13 14  1  0  0  0  0
 13 15  1  0  0  0  0
 13 16  1  0  0  0  0
 17 18  2  0  0  0  0
 17 33  1  0  0  0  0
 19 20  1  0  0  0  0
 19 34  1  0  0  0  0
 19 35  1  0  0  0  0
 20 21  1  0  0  0  0
 20 22  1  0  0  0  0
 20 36  1  0  0  0  0
 21 37  1  0  0  0  0
 21 38  1  0  0  0  0
 21 39  1  0  0  0  0
M  CHG  1  11  -1
M  END
> <s_m_source_file>
AV-unprocessed.smi

> <i_m_source_file_index>
1565

> <i_lp_mmshare_version>
43012

> <i_f3d_flags>
0

> <s_epik_input>
W0NIM11bQ0BASF0xW0NIMl1OKFtDSDJdW0NASF0oTzEpW0NIM10pYzJbY0hdW2NIXWMoW2NIXW4yKUMoPU8pW05IXVtDSDJdQyhGKShGKUY=

> <s_epik_cmdline>
J2VwaWtfcHl0aG9uJywgJy1waCcsICc3LjAnLCAnLXRuJywgJzgnLCAnLW1hJywgJzIwMCcsICctbWV0YWxfYmluZGluZycsICctaW1hZScsICc8aW5maWxlLm1hZT4nLCAnLW9tYWUnLCAnPG91dGZpbGUubWFlPic=

> <r_lp_tautomer_probability>
1

> <r_epik_Ionization_Penalty>
6.78525

> <r_epik_Ionization_Penalty_Charging>
6.78469

> <r_epik_Ionization_Penalty_Neutral>
0.000559052

> <r_epik_State_Penalty>
6.78469

> <r_epik_Charging_Adjusted_Penalty>
13.5694

> <i_epik_Tot_Q>
-1

> <i_epik_Tot_abs_Q>
1

> <r_epik_Metal_State_Penalty>
2.70441

> <b_epik_Metal_Only>
1

> <s_lp_Force_Field>
OPLS_2005

> <r_lp_Energy>
29.3503

> <b_lp_Chiralities_Consistent>
1

> <s_lp_Variant>
AV-unprocessed.smi:1565-6

> <Gold.Version>
5.8.1

> <Gold.Id.Protein>
6NUR|6NUR_protein|mol2

> <Gold.PLP.Fitness>
35.3302

> <Gold.PLP.PLP>
-32.6294

> <Gold.PLP.part.hbond>
-1.0000

> <Gold.PLP.part.metal>
0.0000

> <Gold.PLP.part.buried>
-5.9705

> <Gold.PLP.part.nonpolar>
-26.7720

> <Gold.PLP.part.repulsive>
0.3528

> <Gold.PLP.ligand.clash>
0.0000

> <Gold.PLP.ligand.torsion>
0.3449

> <Gold.PLP.Chemscore.Hbond>
1.0000

> <Gold.PLP.Chemscore.CHOScore>
0.0000

> <Gold.PLP.Chemscore.Metal>
0.0000

> <Gold.Chemscore.Hbonds>
donor molecule, donor type, donor heavy atom, donor atom, acceptor molecule, acceptor atom, score
      P1  H  6896  6907       L1    10  1.00

> <Gold.PLP.Chemscore.Internal.Correction>
0.3906

> <Gold.Rescore>
     Score         DG    S(hbond)    S(metal)    S(lipo)     H(rot)  DE(clash)    DE(int)     intcor
     12.43     -12.84       0.99        0.00      62.93       1.29       0.16       0.26       ----

> <Gold.Chemscore.Fitness>
12.4251

> <Gold.Chemscore.DG>
-12.8374

> <Gold.Chemscore.ZeroCoef>
-5.4800

> <Gold.Chemscore.Hbond>
0.9886

> <Gold.Chemscore.Metal>
0.0000

> <Gold.Chemscore.Lipo>
62.9338

> <Gold.Chemscore.Internal_Hbond>
0.0000

> <Gold.Chemscore.DEClash>
0.1566

> <Gold.Chemscore.DEInternal>
0.2556

> <Gold.Chemscore.Rot>
1.2921

> <Gold.Chemscore.Internal.Correction>
   9.000000E+99

> <Gold.Chemscore.Hbonds>
donor molecule, donor type, donor heavy atom, donor atom, acceptor molecule, acceptor atom, score
      P1  H  6896  6907       L1    10  0.98

> <Gold.Chemscore.Hbond.Weighted>
-3.3019

> <Gold.Chemscore.Metal.Weighted>
-0.0000

> <Gold.Chemscore.Lipo.Weighted>
-7.3633

> <Gold.Chemscore.Internal_Hbond.Weighted>
0.0000

> <Gold.Chemscore.DEClash.Weighted>
0.1566

> <Gold.Chemscore.DEInternal.Weighted>
0.2556

> <Gold.Chemscore.Rot.Weighted>
3.3078

> <Gold.Chemscore.Internal.Correction.Weighted>
   9.000000E+99

> <Gold.Protein.RotatedTorsions>
[ 6907 6896 6895 6894 ] final -103.01 input  -60.11 | X-H torsion
[ 7974 7965 7964 7962 ] final  134.37 input  175.53 | X-H torsion
[ 8008 7997 7996 7995 ] final   98.13 input   59.86 | X-H torsion
[ 10167 10162 10161 10158 ] final  -35.44 input  -65.29 | X-H torsion
[ 10718 10713 10712 10709 ] final   74.21 input   66.30 | X-H torsion
[ 10763 10752 10751 10750 ] final   18.84 input  -60.55 | X-H torsion
[ 11005 11000 10999 10996 ] final  162.18 input  -57.11 | X-H torsion

> <Gold.Protein.ActiveResidues>
 VAL166  LYS551  ARG553  GLY616  TRP617  ASP618  TYR619  PRO620  LYS621  CYS622 
 ASP623  PHE694  ASN695  SER759  ASP760  ASP761  ALA762  ILE779  LEU786  VAL792 
 PHE793  MET794  SER795  GLU796  ALA797  LYS798  CYS799  TRP800  GLU811  SER814 

> <Gold.Protein.RotatedAtoms>
  150.7221  134.0495  159.3793 H   0  0  0  0  0  0  0  0  0  0  0  0  # atno 6907 bound_to 6896
  151.8471  135.0568  160.0464 H   0  0  0  0  0  0  0  0  0  0  0  0  # atno 6908 bound_to 6896
  152.2818  133.5442  159.5539 H   0  0  0  0  0  0  0  0  0  0  0  0  # atno 6909 bound_to 6896
  144.9771  139.4544  143.5404 H   0  0  0  0  0  0  0  0  0  0  0  0  # atno 7974 bound_to 7965
  156.0972  140.3248  155.7894 H   0  0  0  0  0  0  0  0  0  0  0  0  # atno 8008 bound_to 7997
  155.4897  140.0560  157.2972 H   0  0  0  0  0  0  0  0  0  0  0  0  # atno 8009 bound_to 7997
  154.4674  140.1995  156.0098 H   0  0  0  0  0  0  0  0  0  0  0  0  # atno 8010 bound_to 7997
  140.7165  143.3477  151.2221 H   0  0  0  0  0  0  0  0  0  0  0  0  # atno 10167 bound_to 10162
  157.6582  130.9666  150.1178 H   0  0  0  0  0  0  0  0  0  0  0  0  # atno 10718 bound_to 10713
  153.1214  135.6720  153.9330 H   0  0  0  0  0  0  0  0  0  0  0  0  # atno 10763 bound_to 10752
  153.8844  135.3054  155.3447 H   0  0  0  0  0  0  0  0  0  0  0  0  # atno 10764 bound_to 10752
  154.7625  135.4981  153.9570 H   0  0  0  0  0  0  0  0  0  0  0  0  # atno 10765 bound_to 10752
  140.2232  134.8180  157.3242 H   0  0  0  0  0  0  0  0  0  0  0  0  # atno 11005 bound_to 11000
  146.3398  139.9020  142.8793 LP  0  0  0  0  0  0  0  0  0  0  0  0  # atno 17320 bound_to 7965
  145.2475  141.0032  143.3900 LP  0  0  0  0  0  0  0  0  0  0  0  0  # atno 17321 bound_to 7965
  139.7001  143.9548  152.2901 LP  0  0  0  0  0  0  0  0  0  0  0  0  # atno 17342 bound_to 10162
  139.9238  144.6783  150.8434 LP  0  0  0  0  0  0  0  0  0  0  0  0  # atno 17343 bound_to 10162
  156.2057  130.3663  149.8732 LP  0  0  0  0  0  0  0  0  0  0  0  0  # atno 17370 bound_to 10713
  156.6624  130.8787  151.3549 LP  0  0  0  0  0  0  0  0  0  0  0  0  # atno 17371 bound_to 10713
  140.1828  134.4469  155.7762 LP  0  0  0  0  0  0  0  0  0  0  0  0  # atno 17394 bound_to 11000
  141.2222  133.6991  156.7896 LP  0  0  0  0  0  0  0  0  0  0  0  0  # atno 17395 bound_to 11000

$$$$
