AV-unprocessed.smi:2971|AV-procd|sdf|11332|dock5
  -GOLD-   2272016243D 1   1.00000     0.00000
 Structure written by MMmdl.
 36 38  0  0  0  0  0  0  0  0  1 V2000
  151.2228  140.2044  155.1126 O   0  0  0  0  0  0  0  0  0  0  0  0
  150.2394  140.9673  155.7847 C   0  0  2  0  0  0  0  0  0  0  0  0
  149.0845  141.2414  154.8085 C   0  0  0  0  0  0  0  0  0  0  0  0
  147.8618  140.8527  155.4207 O   0  0  0  0  0  0  0  0  0  0  0  0
  146.7545  141.6549  155.2399 C   0  0  0  0  0  0  0  0  0  0  0  0
  146.5264  142.4467  154.0853 C   0  0  0  0  0  0  0  0  0  0  0  0
  145.3665  143.2390  153.9809 C   0  0  0  0  0  0  0  0  0  0  0  0
  144.4228  143.2523  155.0242 C   0  0  0  0  0  0  0  0  0  0  0  0
  144.6407  142.4711  156.1739 C   0  0  0  0  0  0  0  0  0  0  0  0
  145.7995  141.6772  156.2791 C   0  0  0  0  0  0  0  0  0  0  0  0
  145.9960  140.9285  157.3907 F   0  0  0  0  0  0  0  0  0  0  0  0
  150.8808  142.2725  156.2950 C   0  0  0  0  0  0  0  0  0  0  0  0
  151.4318  142.1387  157.6323 N   0  0  0  0  0  0  0  0  0  0  0  0
  151.9327  141.0209  158.1920 C   0  0  0  0  0  0  0  0  0  0  0  0
  152.3854  141.1130  159.4390 N   0  0  0  0  0  0  0  0  0  0  0  0
  152.1518  142.4479  159.7225 C   0  0  0  0  0  0  0  0  0  0  0  0
  152.4065  143.1944  160.8953 C   0  0  0  0  0  0  0  0  0  0  0  0
  152.0788  144.5650  160.9551 C   0  0  0  0  0  0  0  0  0  0  0  0
  151.4943  145.2097  159.8455 C   0  0  0  0  0  0  0  0  0  0  0  0
  151.2308  144.4866  158.6663 C   0  0  0  0  0  0  0  0  0  0  0  0
  151.5568  143.1187  158.6114 C   0  0  0  0  0  0  0  0  0  0  0  0
  150.8301  139.3913  154.8331 H   0  0  0  0  0  0  0  0  0  0  0  0
  149.8698  140.3968  156.6381 H   0  0  0  0  0  0  0  0  0  0  0  0
  149.0373  142.3113  154.5985 H   0  0  0  0  0  0  0  0  0  0  0  0
  149.2463  140.7225  153.8617 H   0  0  0  0  0  0  0  0  0  0  0  0
  147.2263  142.4649  153.2641 H   0  0  0  0  0  0  0  0  0  0  0  0
  145.2014  143.8380  153.0973 H   0  0  0  0  0  0  0  0  0  0  0  0
  143.5338  143.8603  154.9431 H   0  0  0  0  0  0  0  0  0  0  0  0
  143.9184  142.4800  156.9768 H   0  0  0  0  0  0  0  0  0  0  0  0
  151.6724  142.6005  155.6197 H   0  0  0  0  0  0  0  0  0  0  0  0
  150.1401  143.0729  156.3151 H   0  0  0  0  0  0  0  0  0  0  0  0
  151.9658  140.0855  157.6525 H   0  0  0  0  0  0  0  0  0  0  0  0
  152.8553  142.7114  161.7506 H   0  0  0  0  0  0  0  0  0  0  0  0
  152.2777  145.1251  161.8569 H   0  0  0  0  0  0  0  0  0  0  0  0
  151.2491  146.2603  159.9000 H   0  0  0  0  0  0  0  0  0  0  0  0
  150.7866  144.9772  157.8130 H   0  0  0  0  0  0  0  0  0  0  0  0
  1  2  1  0  0  0  0
  1 22  1  0  0  0  0
  2  3  1  0  0  0  0
  2 12  1  0  0  0  0
  2 23  1  0  0  0  0
  3  4  1  0  0  0  0
  3 24  1  0  0  0  0
  3 25  1  0  0  0  0
  4  5  1  0  0  0  0
  5 10  1  0  0  0  0
  5  6  2  0  0  0  0
  6  7  1  0  0  0  0
  6 26  1  0  0  0  0
  7  8  2  0  0  0  0
  7 27  1  0  0  0  0
  8  9  1  0  0  0  0
  8 28  1  0  0  0  0
  9 10  2  0  0  0  0
  9 29  1  0  0  0  0
 10 11  1  0  0  0  0
 12 13  1  0  0  0  0
 12 30  1  0  0  0  0
 12 31  1  0  0  0  0
 13 21  1  0  0  0  0
 13 14  1  0  0  0  0
 14 15  2  0  0  0  0
 14 32  1  0  0  0  0
 15 16  1  0  0  0  0
 16 21  2  0  0  0  0
 16 17  1  0  0  0  0
 17 18  2  0  0  0  0
 17 33  1  0  0  0  0
 18 19  1  0  0  0  0
 18 34  1  0  0  0  0
 19 20  2  0  0  0  0
 19 35  1  0  0  0  0
 20 21  1  0  0  0  0
 20 36  1  0  0  0  0
M  END
> <s_m_source_file>
AV-unprocessed.smi

> <i_m_source_file_index>
2971

> <i_lp_mmshare_version>
43012

> <i_f3d_flags>
0

> <s_epik_input>
W2NIXTFbY0hdW2NIXVtjSF1jKGMxMiluKFtjSF1uMilbQ0gyXVtDQEhdKFtPSF0pW0NIMl1PYzNbY0hdW2NIXVtjSF1bY0hdYzNG

> <s_epik_cmdline>
J2VwaWtfcHl0aG9uJywgJy1waCcsICc3LjAnLCAnLXRuJywgJzgnLCAnLW1hJywgJzIwMCcsICctbWV0YWxfYmluZGluZycsICctaW1hZScsICc8aW5maWxlLm1hZT4nLCAnLW9tYWUnLCAnPG91dGZpbGUubWFlPic=

> <r_lp_tautomer_probability>
1

> <r_epik_Ionization_Penalty>
0.0600913

> <r_epik_Ionization_Penalty_Charging>
0

> <r_epik_Ionization_Penalty_Neutral>
0.0600913

> <r_epik_State_Penalty>
0.0520726

> <r_epik_Charging_Adjusted_Penalty>
0.0520726

> <i_epik_Tot_Q>
0

> <i_epik_Tot_abs_Q>
0

> <r_epik_Metal_State_Penalty>
5.44269e-05

> <b_epik_Metal_Only>
0

> <s_lp_Force_Field>
OPLS_2005

> <r_lp_Energy>
16.3694

> <b_lp_Chiralities_Consistent>
1

> <s_lp_Variant>
AV-unprocessed.smi:2971-1

> <Gold.Version>
5.8.1

> <Gold.Id.Protein>
6NUR|6NUR_protein|mol2

> <Gold.PLP.Fitness>
48.8274

> <Gold.PLP.PLP>
-49.9908

> <Gold.PLP.part.hbond>
-1.0000

> <Gold.PLP.part.metal>
0.0000

> <Gold.PLP.part.buried>
-8.9037

> <Gold.PLP.part.nonpolar>
-39.6920

> <Gold.PLP.part.repulsive>
0.0854

> <Gold.PLP.ligand.clash>
0.0000

> <Gold.PLP.ligand.torsion>
2.1229

> <Gold.PLP.Chemscore.Hbond>
1.0000

> <Gold.PLP.Chemscore.CHOScore>
0.0000

> <Gold.PLP.Chemscore.Metal>
0.0000

> <Gold.Chemscore.Hbonds>
donor molecule, donor type, donor heavy atom, donor atom, acceptor molecule, acceptor atom, score
      P1  H  7989  7998       L1     1  0.95

> <Gold.PLP.Chemscore.Internal.Correction>
0.0825

> <Gold.Rescore>
     Score         DG    S(hbond)    S(metal)    S(lipo)     H(rot)  DE(clash)    DE(int)     intcor
     13.48     -16.09       0.76        0.00     120.80       2.37       0.49       2.12       ----

> <Gold.Chemscore.Fitness>
13.4781

> <Gold.Chemscore.DG>
-16.0879

> <Gold.Chemscore.ZeroCoef>
-5.4800

> <Gold.Chemscore.Hbond>
0.7635

> <Gold.Chemscore.Metal>
0.0000

> <Gold.Chemscore.Lipo>
120.8041

> <Gold.Chemscore.Internal_Hbond>
0.0000

> <Gold.Chemscore.DEClash>
0.4892

> <Gold.Chemscore.DEInternal>
2.1205

> <Gold.Chemscore.Rot>
2.3735

> <Gold.Chemscore.Internal.Correction>
   9.000000E+99

> <Gold.Chemscore.Hbonds>
donor molecule, donor type, donor heavy atom, donor atom, acceptor molecule, acceptor atom, score
      P1  H  7989  7998       L1     1  0.18

> <Gold.Chemscore.Hbond.Weighted>
-2.5500

> <Gold.Chemscore.Metal.Weighted>
-0.0000

> <Gold.Chemscore.Lipo.Weighted>
-14.1341

> <Gold.Chemscore.Internal_Hbond.Weighted>
0.0000

> <Gold.Chemscore.DEClash.Weighted>
0.4892

> <Gold.Chemscore.DEInternal.Weighted>
2.1205

> <Gold.Chemscore.Rot.Weighted>
6.0762

> <Gold.Chemscore.Internal.Correction.Weighted>
   9.000000E+99

> <Gold.Protein.RotatedTorsions>
[ 6907 6896 6895 6894 ] final  -81.62 input  -60.11 | X-H torsion
[ 7974 7965 7964 7962 ] final  -61.06 input  175.53 | X-H torsion
[ 8008 7997 7996 7995 ] final  -82.33 input   59.86 | X-H torsion
[ 10167 10162 10161 10158 ] final  152.23 input  -65.29 | X-H torsion
[ 10718 10713 10712 10709 ] final  126.30 input   66.30 | X-H torsion
[ 10763 10752 10751 10750 ] final -110.72 input  -60.55 | X-H torsion
[ 11005 11000 10999 10996 ] final  172.14 input  -57.11 | X-H torsion

> <Gold.Protein.ActiveResidues>
 VAL166  LYS551  ARG553  GLY616  TRP617  ASP618  TYR619  PRO620  LYS621  CYS622 
 ASP623  PHE694  ASN695  SER759  ASP760  ASP761  ALA762  ILE779  LEU786  VAL792 
 PHE793  MET794  SER795  GLU796  ALA797  LYS798  CYS799  TRP800  GLU811  SER814 

> <Gold.Protein.RotatedAtoms>
  150.6909  134.3790  159.5025 H   0  0  0  0  0  0  0  0  0  0  0  0  # atno 6907 bound_to 6896
  152.1595  134.8921  160.0552 H   0  0  0  0  0  0  0  0  0  0  0  0  # atno 6908 bound_to 6896
  151.9988  133.3783  159.4210 H   0  0  0  0  0  0  0  0  0  0  0  0  # atno 6909 bound_to 6896
  145.8081  140.8615  143.0196 H   0  0  0  0  0  0  0  0  0  0  0  0  # atno 7974 bound_to 7965
  154.6075  140.0635  156.9450 H   0  0  0  0  0  0  0  0  0  0  0  0  # atno 8008 bound_to 7997
  155.2029  140.3316  155.4322 H   0  0  0  0  0  0  0  0  0  0  0  0  # atno 8009 bound_to 7997
  156.2356  140.1861  156.7111 H   0  0  0  0  0  0  0  0  0  0  0  0  # atno 8010 bound_to 7997
  139.4834  144.5375  151.7620 H   0  0  0  0  0  0  0  0  0  0  0  0  # atno 10167 bound_to 10162
  157.5431  131.1096  150.8827 H   0  0  0  0  0  0  0  0  0  0  0  0  # atno 10718 bound_to 10713
  154.8263  135.4554  154.0929 H   0  0  0  0  0  0  0  0  0  0  0  0  # atno 10763 bound_to 10752
  153.2240  135.6897  153.7973 H   0  0  0  0  0  0  0  0  0  0  0  0  # atno 10764 bound_to 10752
  153.7380  135.3317  155.3275 H   0  0  0  0  0  0  0  0  0  0  0  0  # atno 10765 bound_to 10752
  140.3265  134.7393  157.4103 H   0  0  0  0  0  0  0  0  0  0  0  0  # atno 11005 bound_to 11000
  144.6760  140.0355  143.7482 LP  0  0  0  0  0  0  0  0  0  0  0  0  # atno 17320 bound_to 7965
  145.9807  139.2939  143.1044 LP  0  0  0  0  0  0  0  0  0  0  0  0  # atno 17321 bound_to 7965
  140.4910  144.1311  150.5950 LP  0  0  0  0  0  0  0  0  0  0  0  0  # atno 17342 bound_to 10162
  140.4171  143.2629  151.9761 LP  0  0  0  0  0  0  0  0  0  0  0  0  # atno 17343 bound_to 10162
  156.9374  130.5372  149.5279 LP  0  0  0  0  0  0  0  0  0  0  0  0  # atno 17370 bound_to 10713
  156.0513  130.5582  150.8994 LP  0  0  0  0  0  0  0  0  0  0  0  0  # atno 17371 bound_to 10713
  140.0897  134.5618  155.8456 LP  0  0  0  0  0  0  0  0  0  0  0  0  # atno 17394 bound_to 11000
  141.2074  133.6664  156.6303 LP  0  0  0  0  0  0  0  0  0  0  0  0  # atno 17395 bound_to 11000

$$$$
