AV-unprocessed.smi:3266|AV-procd|sdf|12502|dock6
  -GOLD-   2272018403D 1   1.00000     0.00000
 Structure written by MMmdl.
 39 40  0  0  0  0  0  0  0  0  2 V2000
  150.5081  137.6714  156.6837 O   0  0  0  0  0  0  0  0  0  0  0  0
  150.6837  138.2588  157.7518 C   0  0  0  0  0  0  0  0  0  0  0  0
  150.3592  137.5729  159.0821 C   0  0  0  0  0  0  0  0  0  0  0  0
  148.9306  137.0002  159.1309 C   0  0  0  0  0  0  0  0  0  0  0  0
  148.6133  136.3143  160.4678 C   0  0  2  0  0  0  0  0  0  0  0  0
  147.7352  135.0707  160.3288 C   0  0  0  0  0  0  0  0  0  0  0  0
  147.0647  135.0157  161.6818 C   0  0  0  0  0  0  0  0  0  0  0  0
  146.8177  136.4945  161.9602 C   0  0  0  0  0  0  0  0  0  0  0  0
  147.8859  137.1922  161.3251 O   0  0  0  0  0  0  0  0  0  0  0  0
  151.1560  139.5126  157.8284 N   0  0  0  0  0  0  0  0  0  0  0  0
  151.5165  140.3393  156.6825 C   0  0  0  0  0  0  0  0  0  0  0  0
  150.6967  141.6401  156.6397 C   0  0  0  0  0  0  0  0  0  0  0  0
  151.2114  142.6757  157.6201 C   0  0  0  0  0  0  0  0  0  0  0  0
  152.2195  142.3840  158.5646 C   0  0  0  0  0  0  0  0  0  0  0  0
  152.6486  143.3966  159.4480 C   0  0  0  0  0  0  0  0  0  0  0  0
  152.0616  144.6767  159.3690 C   0  0  0  0  0  0  0  0  0  0  0  0
  151.0577  144.9123  158.4076 C   0  0  0  0  0  0  0  0  0  0  0  0
  150.6733  143.9165  157.5792 N   0  3  0  0  0  0  0  0  0  0  0  0
  151.0794  136.7726  159.2609 H   0  0  0  0  0  0  0  0  0  0  0  0
  150.4966  138.3012  159.8821 H   0  0  0  0  0  0  0  0  0  0  0  0
  148.2022  137.7930  158.9541 H   0  0  0  0  0  0  0  0  0  0  0  0
  148.8040  136.2781  158.3228 H   0  0  0  0  0  0  0  0  0  0  0  0
  149.5372  136.0393  160.9792 H   0  0  0  0  0  0  0  0  0  0  0  0
  146.9847  135.2116  159.5494 H   0  0  0  0  0  0  0  0  0  0  0  0
  148.3049  134.1707  160.0960 H   0  0  0  0  0  0  0  0  0  0  0  0
  146.1508  134.4211  161.6859 H   0  0  0  0  0  0  0  0  0  0  0  0
  147.7490  134.6011  162.4233 H   0  0  0  0  0  0  0  0  0  0  0  0
  145.8787  136.8148  161.5069 H   0  0  0  0  0  0  0  0  0  0  0  0
  146.7722  136.7165  163.0265 H   0  0  0  0  0  0  0  0  0  0  0  0
  151.2659  139.9241  158.7443 H   0  0  0  0  0  0  0  0  0  0  0  0
  152.5854  140.5585  156.7083 H   0  0  0  0  0  0  0  0  0  0  0  0
  151.3402  139.7594  155.7761 H   0  0  0  0  0  0  0  0  0  0  0  0
  150.7146  142.0590  155.6325 H   0  0  0  0  0  0  0  0  0  0  0  0
  149.6494  141.4385  156.8694 H   0  0  0  0  0  0  0  0  0  0  0  0
  152.6595  141.3985  158.6130 H   0  0  0  0  0  0  0  0  0  0  0  0
  153.4191  143.1935  160.1776 H   0  0  0  0  0  0  0  0  0  0  0  0
  152.3766  145.4658  160.0361 H   0  0  0  0  0  0  0  0  0  0  0  0
  150.5544  145.8593  158.2771 H   0  0  0  0  0  0  0  0  0  0  0  0
  149.9442  144.1085  156.8914 H   0  0  0  0  0  0  0  0  0  0  0  0
  1  2  2  0  0  0  0
  2  3  1  0  0  0  0
  2 10  1  0  0  0  0
  3  4  1  0  0  0  0
  3 19  1  0  0  0  0
  3 20  1  0  0  0  0
  4  5  1  0  0  0  0
  4 21  1  0  0  0  0
  4 22  1  0  0  0  0
  5  9  1  0  0  0  0
  5  6  1  0  0  0  0
  5 23  1  0  0  0  0
  6  7  1  0  0  0  0
  6 24  1  0  0  0  0
  6 25  1  0  0  0  0
  7  8  1  0  0  0  0
  7 26  1  0  0  0  0
  7 27  1  0  0  0  0
  8  9  1  0  0  0  0
  8 28  1  0  0  0  0
  8 29  1  0  0  0  0
 10 11  1  0  0  0  0
 10 30  1  0  0  0  0
 11 12  1  0  0  0  0
 11 31  1  0  0  0  0
 11 32  1  0  0  0  0
 12 13  1  0  0  0  0
 12 33  1  0  0  0  0
 12 34  1  0  0  0  0
 13 18  1  0  0  0  0
 13 14  2  0  0  0  0
 14 15  1  0  0  0  0
 14 35  1  0  0  0  0
 15 16  2  0  0  0  0
 15 36  1  0  0  0  0
 16 17  1  0  0  0  0
 16 37  1  0  0  0  0
 17 18  2  0  0  0  0
 17 38  1  0  0  0  0
 18 39  1  0  0  0  0
M  CHG  1  18   1
M  END
> <s_m_source_file>
AV-unprocessed.smi

> <i_m_source_file_index>
3266

> <i_lp_mmshare_version>
43012

> <i_f3d_flags>
0

> <s_epik_input>
TzFbQ0gyXVtDSDJdW0NIMl1bQ0BIXTFbQ0gyXVtDSDJdQyg9TylbTkhdW0NIMl1bQ0gyXWMyW2NIXVtjSF1bY0hdW2NIXW4y

> <s_epik_cmdline>
J2VwaWtfcHl0aG9uJywgJy1waCcsICc3LjAnLCAnLXRuJywgJzgnLCAnLW1hJywgJzIwMCcsICctbWV0YWxfYmluZGluZycsICctaW1hZScsICc8aW5maWxlLm1hZT4nLCAnLW9tYWUnLCAnPG91dGZpbGUubWFlPic=

> <r_epik_Ionization_Penalty>
1.8495

> <r_epik_Ionization_Penalty_Charging>
1.8495

> <r_epik_Ionization_Penalty_Neutral>
1.53068e-08

> <r_epik_State_Penalty>
1.96688

> <r_epik_Charging_Adjusted_Penalty>
3.81638

> <i_epik_Tot_Q>
1

> <i_epik_Tot_abs_Q>
1

> <r_epik_Metal_State_Penalty>
1.99263

> <b_epik_Metal_Only>
0

> <s_lp_Force_Field>
OPLS_2005

> <r_lp_Energy>
20.4442

> <b_lp_Chiralities_Consistent>
1

> <s_lp_Variant>
AV-unprocessed.smi:3266-3

> <Gold.Version>
5.8.1

> <Gold.Id.Protein>
6NUR|6NUR_protein|mol2

> <Gold.PLP.Fitness>
48.5812

> <Gold.PLP.PLP>
-38.7937

> <Gold.PLP.part.hbond>
-3.0000

> <Gold.PLP.part.metal>
0.0000

> <Gold.PLP.part.buried>
-4.7935

> <Gold.PLP.part.nonpolar>
-31.2097

> <Gold.PLP.part.repulsive>
0.0795

> <Gold.PLP.ligand.clash>
0.0000

> <Gold.PLP.ligand.torsion>
0.7006

> <Gold.PLP.Chemscore.Hbond>
3.7200

> <Gold.PLP.Chemscore.CHOScore>
0.0000

> <Gold.PLP.Chemscore.Metal>
0.0000

> <Gold.Chemscore.Hbonds>
donor molecule, donor type, donor heavy atom, donor atom, acceptor molecule, acceptor atom, score
      L1  H    18    39       P1  8028  2.00
      P1  H  6931  6943       L1     9  1.00
      P1  H  6934  6947       L1     9  0.74

> <Gold.PLP.Chemscore.Internal.Correction>
0.0287

> <Gold.Rescore>
     Score         DG    S(hbond)    S(metal)    S(lipo)     H(rot)  DE(clash)    DE(int)     intcor
     19.22     -20.17       2.02        0.00     108.21       1.84       0.21       0.74       ----

> <Gold.Chemscore.Fitness>
19.2248

> <Gold.Chemscore.DG>
-20.1678

> <Gold.Chemscore.ZeroCoef>
-5.4800

> <Gold.Chemscore.Hbond>
2.0158

> <Gold.Chemscore.Metal>
0.0000

> <Gold.Chemscore.Lipo>
108.2120

> <Gold.Chemscore.Internal_Hbond>
0.0000

> <Gold.Chemscore.DEClash>
0.2062

> <Gold.Chemscore.DEInternal>
0.7368

> <Gold.Chemscore.Rot>
1.8382

> <Gold.Chemscore.Internal.Correction>
   9.000000E+99

> <Gold.Chemscore.Hbonds>
donor molecule, donor type, donor heavy atom, donor atom, acceptor molecule, acceptor atom, score
      L1  H    18    39       P1  8028  0.93
      P1  H  6931  6943       L1     9  0.48
      P1  H  6934  6947       L1     9  0.39

> <Gold.Chemscore.Hbond.Weighted>
-6.7327

> <Gold.Chemscore.Metal.Weighted>
-0.0000

> <Gold.Chemscore.Lipo.Weighted>
-12.6608

> <Gold.Chemscore.Internal_Hbond.Weighted>
0.0000

> <Gold.Chemscore.DEClash.Weighted>
0.2062

> <Gold.Chemscore.DEInternal.Weighted>
0.7368

> <Gold.Chemscore.Rot.Weighted>
4.7058

> <Gold.Chemscore.Internal.Correction.Weighted>
   9.000000E+99

> <Gold.Protein.RotatedTorsions>
[ 6907 6896 6895 6894 ] final  -89.52 input  -60.11 | X-H torsion
[ 7974 7965 7964 7962 ] final -173.64 input  175.53 | X-H torsion
[ 8008 7997 7996 7995 ] final   35.75 input   59.86 | X-H torsion
[ 10167 10162 10161 10158 ] final  128.88 input  -65.29 | X-H torsion
[ 10718 10713 10712 10709 ] final   84.63 input   66.30 | X-H torsion
[ 10763 10752 10751 10750 ] final -169.62 input  -60.55 | X-H torsion
[ 11005 11000 10999 10996 ] final -177.65 input  -57.11 | X-H torsion

> <Gold.Protein.ActiveResidues>
 VAL166  LYS551  ARG553  GLY616  TRP617  ASP618  TYR619  PRO620  LYS621  CYS622 
 ASP623  PHE694  ASN695  SER759  ASP760  ASP761  ALA762  ILE779  LEU786  VAL792 
 PHE793  MET794  SER795  GLU796  ALA797  LYS798  CYS799  TRP800  GLU811  SER814 

> <Gold.Protein.RotatedAtoms>
  150.6874  134.2574  159.4534 H   0  0  0  0  0  0  0  0  0  0  0  0  # atno 6907 bound_to 6896
  152.0506  134.9653  160.0584 H   0  0  0  0  0  0  0  0  0  0  0  0  # atno 6908 bound_to 6896
  152.1119  133.4270  159.4672 H   0  0  0  0  0  0  0  0  0  0  0  0  # atno 6909 bound_to 6896
  144.7136  140.1591  143.6377 H   0  0  0  0  0  0  0  0  0  0  0  0  # atno 7974 bound_to 7965
  155.1762  140.3296  155.4383 H   0  0  0  0  0  0  0  0  0  0  0  0  # atno 8008 bound_to 7997
  156.2493  140.1935  156.6813 H   0  0  0  0  0  0  0  0  0  0  0  0  # atno 8009 bound_to 7997
  154.6303  140.0583  156.9710 H   0  0  0  0  0  0  0  0  0  0  0  0  # atno 8010 bound_to 7997
  139.5505  144.6809  151.4339 H   0  0  0  0  0  0  0  0  0  0  0  0  # atno 10167 bound_to 10162
  157.6901  131.0141  150.2701 H   0  0  0  0  0  0  0  0  0  0  0  0  # atno 10718 bound_to 10713
  154.6504  135.2910  154.9994 H   0  0  0  0  0  0  0  0  0  0  0  0  # atno 10763 bound_to 10752
  154.1089  135.6565  153.4885 H   0  0  0  0  0  0  0  0  0  0  0  0  # atno 10764 bound_to 10752
  153.0373  135.5260  154.7409 H   0  0  0  0  0  0  0  0  0  0  0  0  # atno 10765 bound_to 10752
  140.4385  134.6453  157.4746 H   0  0  0  0  0  0  0  0  0  0  0  0  # atno 11005 bound_to 11000
  145.9046  139.2451  143.1473 LP  0  0  0  0  0  0  0  0  0  0  0  0  # atno 17320 bound_to 7965
  145.9776  140.8709  143.0130 LP  0  0  0  0  0  0  0  0  0  0  0  0  # atno 17321 bound_to 7965
  140.6766  143.8176  150.7066 LP  0  0  0  0  0  0  0  0  0  0  0  0  # atno 17342 bound_to 10162
  140.1617  143.4270  152.2062 LP  0  0  0  0  0  0  0  0  0  0  0  0  # atno 17343 bound_to 10162
  156.3265  130.3794  149.7528 LP  0  0  0  0  0  0  0  0  0  0  0  0  # atno 17370 bound_to 10713
  156.5082  130.8160  151.3158 LP  0  0  0  0  0  0  0  0  0  0  0  0  # atno 17371 bound_to 10713
  140.0086  134.6726  155.9416 LP  0  0  0  0  0  0  0  0  0  0  0  0  # atno 17394 bound_to 11000
  141.1715  133.6537  156.4671 LP  0  0  0  0  0  0  0  0  0  0  0  0  # atno 17395 bound_to 11000

$$$$
