AV-unprocessed.smi:674|AV-procd|sdf|3300|dock6
  -GOLD-   22720 0263D 1   1.00000     0.00000
 Structure written by MMmdl.
 47 48  0  0  0  0  0  0  0  0  1 V2000
  145.9975  132.8103  150.6439 C   0  0  0  0  0  0  0  0  0  0  0  0
  144.7222  133.1429  151.4269 C   0  0  0  0  0  0  0  0  0  0  0  0
  144.6430  134.6004  151.7855 C   0  0  0  0  0  0  0  0  0  0  0  0
  143.6028  135.2713  152.4919 C   0  0  0  0  0  0  0  0  0  0  0  0
  144.0467  136.5650  152.5278 C   0  0  0  0  0  0  0  0  0  0  0  0
  143.4482  137.6554  153.0768 N   0  0  0  0  0  0  0  0  0  0  0  0
  142.5072  137.7050  154.0355 C   0  0  0  0  0  0  0  0  0  0  0  0
  142.0414  136.7341  154.6326 O   0  0  0  0  0  0  0  0  0  0  0  0
  142.1257  138.9671  154.2727 N   0  0  0  0  0  0  0  0  0  0  0  0
  141.1141  139.3514  155.2511 C   0  0  1  0  0  0  0  0  0  0  0  0
  140.2426  140.5106  154.7728 C   0  0  0  0  0  0  0  0  0  0  0  0
  139.0738  139.8111  155.4910 C   0  0  1  0  0  0  0  0  0  0  0  0
  138.7525  140.2421  156.9305 C   0  0  0  0  0  0  0  0  0  0  0  0
  137.8794  139.8055  154.7073 O   0  0  0  0  0  0  0  0  0  0  0  0
  137.2583  141.0666  154.4948 C   0  0  0  0  0  0  0  0  0  0  0  0
  139.8397  138.4681  155.2572 C   0  0  0  0  0  0  0  0  0  0  0  0
  139.5085  137.7166  153.9519 C   0  0  0  0  0  0  0  0  0  0  0  0
  139.7563  137.4227  156.3741 C   0  0  0  0  0  0  0  0  0  0  0  0
  145.2616  136.6362  151.8803 N   0  0  0  0  0  0  0  0  0  0  0  0
  146.1346  137.7712  151.6503 C   0  0  0  0  0  0  0  0  0  0  0  0
  145.6262  135.4186  151.4254 N   0  0  0  0  0  0  0  0  0  0  0  0
  146.0300  131.7519  150.3852 H   0  0  0  0  0  0  0  0  0  0  0  0
  146.8898  133.0374  151.2280 H   0  0  0  0  0  0  0  0  0  0  0  0
  146.0493  133.3816  149.7167 H   0  0  0  0  0  0  0  0  0  0  0  0
  143.8520  132.8610  150.8334 H   0  0  0  0  0  0  0  0  0  0  0  0
  144.6808  132.5326  152.3300 H   0  0  0  0  0  0  0  0  0  0  0  0
  142.6916  134.8537  152.8926 H   0  0  0  0  0  0  0  0  0  0  0  0
  143.7471  138.5436  152.7022 H   0  0  0  0  0  0  0  0  0  0  0  0
  142.5550  139.7092  153.7398 H   0  0  0  0  0  0  0  0  0  0  0  0
  141.5146  139.5320  156.2511 H   0  0  0  0  0  0  0  0  0  0  0  0
  140.5174  141.4817  155.1854 H   0  0  0  0  0  0  0  0  0  0  0  0
  140.1277  140.5561  153.6881 H   0  0  0  0  0  0  0  0  0  0  0  0
  139.6116  140.1267  157.5910 H   0  0  0  0  0  0  0  0  0  0  0  0
  137.9378  139.6504  157.3484 H   0  0  0  0  0  0  0  0  0  0  0  0
  138.4630  141.2910  156.9861 H   0  0  0  0  0  0  0  0  0  0  0  0
  136.4134  140.9377  153.8185 H   0  0  0  0  0  0  0  0  0  0  0  0
  137.9387  141.7848  154.0374 H   0  0  0  0  0  0  0  0  0  0  0  0
  136.8692  141.4911  155.4197 H   0  0  0  0  0  0  0  0  0  0  0  0
  138.5105  137.2786  153.9876 H   0  0  0  0  0  0  0  0  0  0  0  0
  140.2098  136.9026  153.7658 H   0  0  0  0  0  0  0  0  0  0  0  0
  139.5390  138.3688  153.0790 H   0  0  0  0  0  0  0  0  0  0  0  0
  138.7336  137.0728  156.5162 H   0  0  0  0  0  0  0  0  0  0  0  0
  140.1013  137.8171  157.3297 H   0  0  0  0  0  0  0  0  0  0  0  0
  140.3749  136.5515  156.1559 H   0  0  0  0  0  0  0  0  0  0  0  0
  145.6328  138.7027  151.9116 H   0  0  0  0  0  0  0  0  0  0  0  0
  146.4194  137.8114  150.5984 H   0  0  0  0  0  0  0  0  0  0  0  0
  147.0329  137.6702  152.2599 H   0  0  0  0  0  0  0  0  0  0  0  0
  1  2  1  0  0  0  0
  1 22  1  0  0  0  0
  1 23  1  0  0  0  0
  1 24  1  0  0  0  0
  2  3  1  0  0  0  0
  2 25  1  0  0  0  0
  2 26  1  0  0  0  0
  3 21  2  0  0  0  0
  3  4  1  0  0  0  0
  4  5  2  0  0  0  0
  4 27  1  0  0  0  0
  5  6  1  0  0  0  0
  5 19  1  0  0  0  0
  6  7  1  0  0  0  0
  6 28  1  0  0  0  0
  7  8  2  0  0  0  0
  7  9  1  0  0  0  0
  9 10  1  0  0  0  0
  9 29  1  0  0  0  0
 10 16  1  0  0  0  0
 10 11  1  0  0  0  0
 10 30  1  0  0  0  0
 11 12  1  0  0  0  0
 11 31  1  0  0  0  0
 11 32  1  0  0  0  0
 12 13  1  0  0  0  0
 12 14  1  0  0  0  0
 12 16  1  0  0  0  0
 13 33  1  0  0  0  0
 13 34  1  0  0  0  0
 13 35  1  0  0  0  0
 14 15  1  0  0  0  0
 15 36  1  0  0  0  0
 15 37  1  0  0  0  0
 15 38  1  0  0  0  0
 16 17  1  0  0  0  0
 16 18  1  0  0  0  0
 17 39  1  0  0  0  0
 17 40  1  0  0  0  0
 17 41  1  0  0  0  0
 18 42  1  0  0  0  0
 18 43  1  0  0  0  0
 18 44  1  0  0  0  0
 19 20  1  0  0  0  0
 19 21  1  0  0  0  0
 20 45  1  0  0  0  0
 20 46  1  0  0  0  0
 20 47  1  0  0  0  0
M  END
> <s_m_source_file>
AV-unprocessed.smi

> <i_m_source_file_index>
674

> <i_lp_mmshare_version>
43012

> <i_f3d_flags>
0

> <s_epik_input>
W0NIM11bQ0gyXWMxW2NIXWMobihuMSlbQ0gzXSlbTkhdQyg9TylbTkhdW0NAQEhdKEMyKFtDSDNdKVtDSDNdKVtDSDJdW0NAQF0yKFtDSDNdKU9bQ0gzXQ==

> <s_epik_cmdline>
J2VwaWtfcHl0aG9uJywgJy1waCcsICc3LjAnLCAnLXRuJywgJzgnLCAnLW1hJywgJzIwMCcsICctbWV0YWxfYmluZGluZycsICctaW1hZScsICc8aW5maWxlLm1hZT4nLCAnLW9tYWUnLCAnPG91dGZpbGUubWFlPic=

> <r_lp_tautomer_probability>
1

> <r_epik_Ionization_Penalty>
0.000101626

> <r_epik_Ionization_Penalty_Charging>
0

> <r_epik_Ionization_Penalty_Neutral>
0.000101626

> <r_epik_State_Penalty>
-0

> <r_epik_Charging_Adjusted_Penalty>
0

> <i_epik_Tot_Q>
0

> <i_epik_Tot_abs_Q>
0

> <r_epik_Metal_State_Penalty>
-0

> <b_epik_Metal_Only>
0

> <s_lp_Force_Field>
OPLS_2005

> <r_lp_Energy>
22.8754

> <b_lp_Chiralities_Consistent>
1

> <s_lp_Variant>
AV-unprocessed.smi:674-2

> <Gold.Version>
5.8.1

> <Gold.Id.Protein>
6NUR|6NUR_protein|mol2

> <Gold.PLP.Fitness>
38.2053

> <Gold.PLP.PLP>
-32.7462

> <Gold.PLP.part.hbond>
-2.4111

> <Gold.PLP.part.metal>
0.0000

> <Gold.PLP.part.buried>
-4.6682

> <Gold.PLP.part.nonpolar>
-26.3140

> <Gold.PLP.part.repulsive>
0.3411

> <Gold.PLP.ligand.clash>
0.0027

> <Gold.PLP.ligand.torsion>
0.4608

> <Gold.PLP.Chemscore.Hbond>
2.0000

> <Gold.PLP.Chemscore.CHOScore>
0.0000

> <Gold.PLP.Chemscore.Metal>
0.0000

> <Gold.Chemscore.Hbonds>
donor molecule, donor type, donor heavy atom, donor atom, acceptor molecule, acceptor atom, score
      L1  H     6    28       P1 10175  1.00
      L1  H     9    29       P1 10175  1.00

> <Gold.PLP.Chemscore.Internal.Correction>
0.3833

> <Gold.Rescore>
     Score         DG    S(hbond)    S(metal)    S(lipo)     H(rot)  DE(clash)    DE(int)     intcor
     15.19     -17.50       1.89        0.00      78.82       1.37       0.93       1.38       ----

> <Gold.Chemscore.Fitness>
15.1866

> <Gold.Chemscore.DG>
-17.5031

> <Gold.Chemscore.ZeroCoef>
-5.4800

> <Gold.Chemscore.Hbond>
1.8854

> <Gold.Chemscore.Metal>
0.0000

> <Gold.Chemscore.Lipo>
78.8229

> <Gold.Chemscore.Internal_Hbond>
0.0000

> <Gold.Chemscore.DEClash>
0.9322

> <Gold.Chemscore.DEInternal>
1.3843

> <Gold.Chemscore.Rot>
1.3658

> <Gold.Chemscore.Internal.Correction>
   9.000000E+99

> <Gold.Chemscore.Hbonds>
donor molecule, donor type, donor heavy atom, donor atom, acceptor molecule, acceptor atom, score
      L1  H     6    28       P1 10175  0.97
      L1  H     9    29       P1 10175  0.99

> <Gold.Chemscore.Hbond.Weighted>
-6.2972

> <Gold.Chemscore.Metal.Weighted>
-0.0000

> <Gold.Chemscore.Lipo.Weighted>
-9.2223

> <Gold.Chemscore.Internal_Hbond.Weighted>
0.0000

> <Gold.Chemscore.DEClash.Weighted>
0.9322

> <Gold.Chemscore.DEInternal.Weighted>
1.3843

> <Gold.Chemscore.Rot.Weighted>
3.4963

> <Gold.Chemscore.Internal.Correction.Weighted>
   9.000000E+99

> <Gold.Protein.RotatedTorsions>
[ 6907 6896 6895 6894 ] final   92.07 input  -60.11 | X-H torsion
[ 7974 7965 7964 7962 ] final -160.61 input  175.53 | X-H torsion
[ 8008 7997 7996 7995 ] final    3.30 input   59.86 | X-H torsion
[ 10167 10162 10161 10158 ] final -160.87 input  -65.29 | X-H torsion
[ 10718 10713 10712 10709 ] final  168.20 input   66.30 | X-H torsion
[ 10763 10752 10751 10750 ] final   58.82 input  -60.55 | X-H torsion
[ 11005 11000 10999 10996 ] final  -74.21 input  -57.11 | X-H torsion

> <Gold.Protein.ActiveResidues>
 VAL166  LYS551  ARG553  GLY616  TRP617  ASP618  TYR619  PRO620  LYS621  CYS622 
 ASP623  PHE694  ASN695  SER759  ASP760  ASP761  ALA762  ILE779  LEU786  VAL792 
 PHE793  MET794  SER795  GLU796  ALA797  LYS798  CYS799  TRP800  GLU811  SER814 

> <Gold.Protein.RotatedAtoms>
  152.5452  134.1558  159.8537 H   0  0  0  0  0  0  0  0  0  0  0  0  # atno 6907 bound_to 6896
  151.1581  133.4856  159.2602 H   0  0  0  0  0  0  0  0  0  0  0  0  # atno 6908 bound_to 6896
  151.1402  135.0186  159.8677 H   0  0  0  0  0  0  0  0  0  0  0  0  # atno 6909 bound_to 6896
  144.7421  140.3517  143.6114 H   0  0  0  0  0  0  0  0  0  0  0  0  # atno 7974 bound_to 7965
  154.7020  140.2675  155.6710 H   0  0  0  0  0  0  0  0  0  0  0  0  # atno 8008 bound_to 7997
  156.2768  140.2770  156.1557 H   0  0  0  0  0  0  0  0  0  0  0  0  # atno 8009 bound_to 7997
  155.0752  140.0372  157.2611 H   0  0  0  0  0  0  0  0  0  0  0  0  # atno 8010 bound_to 7997
  139.6507  144.0089  152.2159 H   0  0  0  0  0  0  0  0  0  0  0  0  # atno 10167 bound_to 10162
  157.0405  131.0285  151.2715 H   0  0  0  0  0  0  0  0  0  0  0  0  # atno 10718 bound_to 10713
  152.9879  135.5593  154.5613 H   0  0  0  0  0  0  0  0  0  0  0  0  # atno 10763 bound_to 10752
  154.5032  135.2798  155.1406 H   0  0  0  0  0  0  0  0  0  0  0  0  # atno 10764 bound_to 10752
  154.2828  135.6341  153.5407 H   0  0  0  0  0  0  0  0  0  0  0  0  # atno 10765 bound_to 10752
  141.1632  133.6903  156.7329 H   0  0  0  0  0  0  0  0  0  0  0  0  # atno 11005 bound_to 11000
  145.7269  139.1725  143.2452 LP  0  0  0  0  0  0  0  0  0  0  0  0  # atno 17320 bound_to 7965
  146.1235  140.7278  142.9446 LP  0  0  0  0  0  0  0  0  0  0  0  0  # atno 17321 bound_to 7965
  139.9802  144.6433  150.7907 LP  0  0  0  0  0  0  0  0  0  0  0  0  # atno 17342 bound_to 10162
  140.7536  143.3012  151.3076 LP  0  0  0  0  0  0  0  0  0  0  0  0  # atno 17343 bound_to 10162
  157.5108  130.7937  149.7703 LP  0  0  0  0  0  0  0  0  0  0  0  0  # atno 17370 bound_to 10713
  156.0040  130.3865  150.2500 LP  0  0  0  0  0  0  0  0  0  0  0  0  # atno 17371 bound_to 10713
  140.2732  134.8376  157.3866 LP  0  0  0  0  0  0  0  0  0  0  0  0  # atno 17394 bound_to 11000
  140.1502  134.4859  155.7967 LP  0  0  0  0  0  0  0  0  0  0  0  0  # atno 17395 bound_to 11000

$$$$
