AV-unprocessed.smi:2351|AV-procd|sdf|9374|dock4
  -GOLD-   2272013 03D 1   1.00000     0.00000
 Structure written by MMmdl.
 47 49  0  0  0  0  0  0  0  0  2 V2000
  150.7272  136.3873  156.0565 O   0  0  0  0  0  0  0  0  0  0  0  0
  150.2900  136.3960  154.9055 C   0  0  0  0  0  0  0  0  0  0  0  0
  150.0161  135.3009  154.1779 N   0  0  0  0  0  0  0  0  0  0  0  0
  150.1914  133.9501  154.5744 C   0  0  0  0  0  0  0  0  0  0  0  0
  151.0308  133.6808  155.6750 C   0  0  0  0  0  0  0  0  0  0  0  0
  151.1938  132.3441  156.0905 C   0  0  0  0  0  0  0  0  0  0  0  0
  150.5742  131.3017  155.4976 N   0  0  0  0  0  0  0  0  0  0  0  0
  149.7507  131.5652  154.4603 C   0  0  0  0  0  0  0  0  0  0  0  0
  149.5152  132.8641  153.9655 C   0  0  0  0  0  0  0  0  0  0  0  0
  148.6352  133.0482  152.9519 F   0  0  0  0  0  0  0  0  0  0  0  0
  150.0088  137.5188  154.2284 N   0  0  0  0  0  0  0  0  0  0  0  0
  150.1928  138.8736  154.7407 C   0  0  2  0  0  0  0  0  0  0  0  0
  151.6469  139.0673  155.1980 C   0  0  0  0  0  0  0  0  0  0  0  0
  151.8524  140.4571  155.8238 C   0  0  0  0  0  0  0  0  0  0  0  0
  150.9184  140.6806  156.9576 N   0  3  1  0  0  0  0  0  0  0  0  0
  151.1896  141.9570  157.6674 C   0  0  0  0  0  0  0  0  0  0  0  0
  151.7824  141.7390  159.0737 C   0  0  2  0  0  0  0  0  0  0  0  0
  152.2894  143.0105  159.7240 C   0  0  0  0  0  0  0  0  0  0  0  0
  153.2141  142.4646  160.8081 C   0  0  0  0  0  0  0  0  0  0  0  0
  153.7402  141.2460  160.2902 O   0  0  0  0  0  0  0  0  0  0  0  0
  153.0486  140.8810  159.1001 C   0  0  0  0  0  0  0  0  0  0  0  0
  149.5012  140.5363  156.5304 C   0  0  0  0  0  0  0  0  0  0  0  0
  149.2431  139.1488  155.9210 C   0  0  0  0  0  0  0  0  0  0  0  0
  149.5401  135.4454  153.2997 H   0  0  0  0  0  0  0  0  0  0  0  0
  151.5498  134.4779  156.1871 H   0  0  0  0  0  0  0  0  0  0  0  0
  151.8385  132.1062  156.9238 H   0  0  0  0  0  0  0  0  0  0  0  0
  149.2522  130.7148  154.0192 H   0  0  0  0  0  0  0  0  0  0  0  0
  149.6452  137.4300  153.2907 H   0  0  0  0  0  0  0  0  0  0  0  0
  149.9864  139.5885  153.9415 H   0  0  0  0  0  0  0  0  0  0  0  0
  151.9135  138.2998  155.9265 H   0  0  0  0  0  0  0  0  0  0  0  0
  152.3250  138.9404  154.3533 H   0  0  0  0  0  0  0  0  0  0  0  0
  152.8825  140.5400  156.1724 H   0  0  0  0  0  0  0  0  0  0  0  0
  151.7082  141.2349  155.0721 H   0  0  0  0  0  0  0  0  0  0  0  0
  151.8941  142.5554  157.0876 H   0  0  0  0  0  0  0  0  0  0  0  0
  150.2713  142.5434  157.7256 H   0  0  0  0  0  0  0  0  0  0  0  0
  151.0414  141.2982  159.7410 H   0  0  0  0  0  0  0  0  0  0  0  0
  152.8631  143.6038  159.0103 H   0  0  0  0  0  0  0  0  0  0  0  0
  151.4912  143.6366  160.1241 H   0  0  0  0  0  0  0  0  0  0  0  0
  154.0085  143.1641  161.0691 H   0  0  0  0  0  0  0  0  0  0  0  0
  152.6488  142.2405  161.7136 H   0  0  0  0  0  0  0  0  0  0  0  0
  152.8294  139.8131  159.0811 H   0  0  0  0  0  0  0  0  0  0  0  0
  153.6905  141.1086  158.2478 H   0  0  0  0  0  0  0  0  0  0  0  0
  148.8312  140.6765  157.3775 H   0  0  0  0  0  0  0  0  0  0  0  0
  149.2570  141.3137  155.8047 H   0  0  0  0  0  0  0  0  0  0  0  0
  148.2045  139.0825  155.5944 H   0  0  0  0  0  0  0  0  0  0  0  0
  149.3739  138.3853  156.6895 H   0  0  0  0  0  0  0  0  0  0  0  0
  151.1031  139.9415  157.6208 H   0  0  0  0  0  0  0  0  0  0  0  0
  1  2  2  0  0  0  0
  2  3  1  0  0  0  0
  2 11  1  0  0  0  0
  3  4  1  0  0  0  0
  3 24  1  0  0  0  0
  4  9  1  0  0  0  0
  4  5  2  0  0  0  0
  5  6  1  0  0  0  0
  5 25  1  0  0  0  0
  6  7  2  0  0  0  0
  6 26  1  0  0  0  0
  7  8  1  0  0  0  0
  8  9  2  0  0  0  0
  8 27  1  0  0  0  0
  9 10  1  0  0  0  0
 11 12  1  0  0  0  0
 11 28  1  0  0  0  0
 12 23  1  0  0  0  0
 12 13  1  0  0  0  0
 12 29  1  0  0  0  0
 13 14  1  0  0  0  0
 13 30  1  0  0  0  0
 13 31  1  0  0  0  0
 14 15  1  0  0  0  0
 14 32  1  0  0  0  0
 14 33  1  0  0  0  0
 15 16  1  0  0  0  0
 15 22  1  0  0  0  0
 15 47  1  0  0  0  0
 16 17  1  0  0  0  0
 16 34  1  0  0  0  0
 16 35  1  0  0  0  0
 17 21  1  0  0  0  0
 17 18  1  0  0  0  0
 17 36  1  0  0  0  0
 18 19  1  0  0  0  0
 18 37  1  0  0  0  0
 18 38  1  0  0  0  0
 19 20  1  0  0  0  0
 19 39  1  0  0  0  0
 19 40  1  0  0  0  0
 20 21  1  0  0  0  0
 21 41  1  0  0  0  0
 21 42  1  0  0  0  0
 22 23  1  0  0  0  0
 22 43  1  0  0  0  0
 22 44  1  0  0  0  0
 23 45  1  0  0  0  0
 23 46  1  0  0  0  0
M  CHG  1  15   1
M  END
> <s_m_source_file>
AV-unprocessed.smi

> <i_m_source_file_index>
2351

> <i_lp_mmshare_version>
43012

> <i_f3d_flags>
0

> <s_epik_input>
RmMxW2NIXW5bY0hdW2NIXWMxW05IXUMoPU8pW05IXVtDSF0yW0NIMl1bQ0gyXU4oW0NIMl1bQ0gyXTIpW0NIMl1bQ0BASF0zW0NIMl1bQ0gyXU9bQ0gyXTM=

> <s_epik_cmdline>
J2VwaWtfcHl0aG9uJywgJy1waCcsICc3LjAnLCAnLXRuJywgJzgnLCAnLW1hJywgJzIwMCcsICctbWV0YWxfYmluZGluZycsICctaW1hZScsICc8aW5maWxlLm1hZT4nLCAnLW9tYWUnLCAnPG91dGZpbGUubWFlPic=

> <r_epik_Ionization_Penalty>
0.0102464

> <r_epik_Ionization_Penalty_Charging>
0.00747775

> <r_epik_Ionization_Penalty_Neutral>
0.00276864

> <r_epik_State_Penalty>
0.00558817

> <r_epik_Charging_Adjusted_Penalty>
0.0130659

> <i_epik_Tot_Q>
1

> <i_epik_Tot_abs_Q>
1

> <r_epik_Metal_State_Penalty>
-0

> <b_epik_Metal_Only>
0

> <s_lp_Force_Field>
OPLS_2005

> <r_lp_Energy>
40.2239

> <b_lp_Chiralities_Consistent>
1

> <s_lp_Variant>
AV-unprocessed.smi:2351-1

> <Gold.Version>
5.8.1

> <Gold.Id.Protein>
6NUR|6NUR_protein|mol2

> <Gold.PLP.Fitness>
46.0326

> <Gold.PLP.PLP>
-41.6618

> <Gold.PLP.part.hbond>
-2.5026

> <Gold.PLP.part.metal>
0.0000

> <Gold.PLP.part.buried>
-5.2304

> <Gold.PLP.part.nonpolar>
-34.6339

> <Gold.PLP.part.repulsive>
0.1697

> <Gold.PLP.ligand.clash>
0.0000

> <Gold.PLP.ligand.torsion>
0.8607

> <Gold.PLP.Chemscore.Hbond>
1.9760

> <Gold.PLP.Chemscore.CHOScore>
0.0000

> <Gold.PLP.Chemscore.Metal>
0.0000

> <Gold.Chemscore.Hbonds>
donor molecule, donor type, donor heavy atom, donor atom, acceptor molecule, acceptor atom, score
      L1  H     3    24       P1  7948  0.60
      L1  H    11    28       P1  7948  0.96

> <Gold.PLP.Chemscore.Internal.Correction>
0.1642

> <Gold.Rescore>
     Score         DG    S(hbond)    S(metal)    S(lipo)     H(rot)  DE(clash)    DE(int)     intcor
     14.98     -18.62       1.55        0.00      99.65       1.45       0.34       3.30       ----

> <Gold.Chemscore.Fitness>
14.9814

> <Gold.Chemscore.DG>
-18.6204

> <Gold.Chemscore.ZeroCoef>
-5.4800

> <Gold.Chemscore.Hbond>
1.5535

> <Gold.Chemscore.Metal>
0.0000

> <Gold.Chemscore.Lipo>
99.6526

> <Gold.Chemscore.Internal_Hbond>
0.0000

> <Gold.Chemscore.DEClash>
0.3374

> <Gold.Chemscore.DEInternal>
3.3016

> <Gold.Chemscore.Rot>
1.4483

> <Gold.Chemscore.Internal.Correction>
   9.000000E+99

> <Gold.Chemscore.Hbonds>
donor molecule, donor type, donor heavy atom, donor atom, acceptor molecule, acceptor atom, score
      L1  H     3    24       P1  7948  0.04
      L1  H    11    28       P1  7948  0.68

> <Gold.Chemscore.Hbond.Weighted>
-5.1888

> <Gold.Chemscore.Metal.Weighted>
-0.0000

> <Gold.Chemscore.Lipo.Weighted>
-11.6594

> <Gold.Chemscore.Internal_Hbond.Weighted>
0.0000

> <Gold.Chemscore.DEClash.Weighted>
0.3374

> <Gold.Chemscore.DEInternal.Weighted>
3.3016

> <Gold.Chemscore.Rot.Weighted>
3.7077

> <Gold.Chemscore.Internal.Correction.Weighted>
   9.000000E+99

> <Gold.Protein.RotatedTorsions>
[ 6907 6896 6895 6894 ] final   20.26 input  -60.11 | X-H torsion
[ 7974 7965 7964 7962 ] final   45.00 input  175.53 | X-H torsion
[ 8008 7997 7996 7995 ] final   71.61 input   59.86 | X-H torsion
[ 10167 10162 10161 10158 ] final   99.12 input  -65.29 | X-H torsion
[ 10718 10713 10712 10709 ] final   20.44 input   66.30 | X-H torsion
[ 10763 10752 10751 10750 ] final   85.25 input  -60.55 | X-H torsion
[ 11005 11000 10999 10996 ] final  169.81 input  -57.11 | X-H torsion

> <Gold.Protein.ActiveResidues>
 VAL166  LYS551  ARG553  GLY616  TRP617  ASP618  TYR619  PRO620  LYS621  CYS622 
 ASP623  PHE694  ASN695  SER759  ASP760  ASP761  ALA762  ILE779  LEU786  VAL792 
 PHE793  MET794  SER795  GLU796  ALA797  LYS798  CYS799  TRP800  GLU811  SER814 

> <Gold.Protein.RotatedAtoms>
  151.8936  135.0406  160.0499 H   0  0  0  0  0  0  0  0  0  0  0  0  # atno 6907 bound_to 6896
  152.2416  133.5135  159.5281 H   0  0  0  0  0  0  0  0  0  0  0  0  # atno 6908 bound_to 6896
  150.7055  134.0998  159.4004 H   0  0  0  0  0  0  0  0  0  0  0  0  # atno 6909 bound_to 6896
  146.0519  139.5012  142.9713 H   0  0  0  0  0  0  0  0  0  0  0  0  # atno 7974 bound_to 7965
  155.7565  140.3487  155.5176 H   0  0  0  0  0  0  0  0  0  0  0  0  # atno 8008 bound_to 7997
  155.8955  140.1025  157.1409 H   0  0  0  0  0  0  0  0  0  0  0  0  # atno 8009 bound_to 7997
  154.4038  140.1296  156.4356 H   0  0  0  0  0  0  0  0  0  0  0  0  # atno 8010 bound_to 7997
  139.7647  144.6943  151.0242 H   0  0  0  0  0  0  0  0  0  0  0  0  # atno 10167 bound_to 10162
  157.1245  130.6564  149.5933 H   0  0  0  0  0  0  0  0  0  0  0  0  # atno 10718 bound_to 10713
  153.1458  135.4624  154.9563 H   0  0  0  0  0  0  0  0  0  0  0  0  # atno 10763 bound_to 10752
  154.7784  135.3180  154.8044 H   0  0  0  0  0  0  0  0  0  0  0  0  # atno 10764 bound_to 10752
  153.8558  135.6917  153.4842 H   0  0  0  0  0  0  0  0  0  0  0  0  # atno 10765 bound_to 10752
  140.3017  134.7590  157.3921 H   0  0  0  0  0  0  0  0  0  0  0  0  # atno 11005 bound_to 11000
  145.6710  141.0216  143.1657 LP  0  0  0  0  0  0  0  0  0  0  0  0  # atno 17320 bound_to 7965
  144.7127  139.8311  143.7409 LP  0  0  0  0  0  0  0  0  0  0  0  0  # atno 17321 bound_to 7965
  140.7810  143.4657  151.0216 LP  0  0  0  0  0  0  0  0  0  0  0  0  # atno 17342 bound_to 10162
  139.8342  143.7650  152.3180 LP  0  0  0  0  0  0  0  0  0  0  0  0  # atno 17343 bound_to 10162
  155.9821  130.4833  150.6864 LP  0  0  0  0  0  0  0  0  0  0  0  0  # atno 17370 bound_to 10713
  157.4447  131.0865  151.0907 LP  0  0  0  0  0  0  0  0  0  0  0  0  # atno 17371 bound_to 10713
  140.1103  134.5354  155.8272 LP  0  0  0  0  0  0  0  0  0  0  0  0  # atno 17394 bound_to 11000
  141.2127  133.6722  156.6677 LP  0  0  0  0  0  0  0  0  0  0  0  0  # atno 17395 bound_to 11000

$$$$
