AV-unprocessed.smi:1674|AV-procd|sdf|6714|dock1
  -GOLD-   22720 7453D 1   1.00000     0.00000
 Structure written by MMmdl.
 47 48  0  0  0  0  0  0  0  0  1 V2000
  148.8537  132.3868  153.1700 C   0  0  0  0  0  0  0  0  0  0  0  0
  149.6335  133.0295  154.2847 C   0  0  0  0  0  0  0  0  0  0  0  0
  149.6179  134.3206  154.3343 N   0  0  0  0  0  0  0  0  0  0  0  0
  150.2869  135.0108  155.3266 N   0  0  0  0  0  0  0  0  0  0  0  0
  150.1100  136.4689  155.2711 C   0  0  0  0  0  0  0  0  0  0  0  0
  151.4527  137.2334  155.1968 C   0  0  1  0  0  0  0  0  0  0  0  0
  151.9241  137.1820  153.8659 O   0  0  0  0  0  0  0  0  0  0  0  0
  151.3492  138.6619  155.7170 C   0  0  0  0  0  0  0  0  0  0  0  0
  152.1465  139.0759  156.8052 C   0  0  0  0  0  0  0  0  0  0  0  0
  152.0311  140.3837  157.3135 C   0  0  0  0  0  0  0  0  0  0  0  0
  151.1193  141.2912  156.7357 C   0  0  0  0  0  0  0  0  0  0  0  0
  150.9931  142.7034  157.2812 C   0  0  0  0  0  0  0  0  0  0  0  0
  152.1626  143.1153  158.1989 C   0  0  0  0  0  0  0  0  0  0  0  0
  152.1239  142.3957  159.5579 C   0  0  0  0  0  0  0  0  0  0  0  0
  152.1966  144.6390  158.3890 C   0  0  0  0  0  0  0  0  0  0  0  0
  150.3212  140.8797  155.6484 C   0  0  0  0  0  0  0  0  0  0  0  0
  150.4350  139.5711  155.1418 C   0  0  0  0  0  0  0  0  0  0  0  0
  151.0300  134.4297  156.3106 C   0  0  0  0  0  0  0  0  0  0  0  0
  151.6140  135.0860  157.1741 O   0  0  0  0  0  0  0  0  0  0  0  0
  151.0501  132.9667  156.2441 C   0  0  0  0  0  0  0  0  0  0  0  0
  151.8113  132.3168  157.2618 C   0  0  0  0  0  0  0  0  0  0  0  0
  152.4386  131.8074  158.0909 N   0  0  0  0  0  0  0  0  0  0  0  0
  150.3849  132.2770  155.2839 C   0  0  0  0  0  0  0  0  0  0  0  0
  150.3678  130.7586  155.1740 C   0  0  0  0  0  0  0  0  0  0  0  0
  149.5074  131.7880  152.5358 H   0  0  0  0  0  0  0  0  0  0  0  0
  148.3666  133.1278  152.5340 H   0  0  0  0  0  0  0  0  0  0  0  0
  148.0766  131.7346  153.5687 H   0  0  0  0  0  0  0  0  0  0  0  0
  149.4747  136.7384  154.4254 H   0  0  0  0  0  0  0  0  0  0  0  0
  149.5607  136.7958  156.1567 H   0  0  0  0  0  0  0  0  0  0  0  0
  152.1902  136.7058  155.8027 H   0  0  0  0  0  0  0  0  0  0  0  0
  151.2428  136.8168  153.3220 H   0  0  0  0  0  0  0  0  0  0  0  0
  152.8427  138.3877  157.2619 H   0  0  0  0  0  0  0  0  0  0  0  0
  152.6463  140.6877  158.1477 H   0  0  0  0  0  0  0  0  0  0  0  0
  150.9335  143.3854  156.4319 H   0  0  0  0  0  0  0  0  0  0  0  0
  150.0465  142.8043  157.8142 H   0  0  0  0  0  0  0  0  0  0  0  0
  153.0933  142.8354  157.7036 H   0  0  0  0  0  0  0  0  0  0  0  0
  151.1981  142.6103  160.0927 H   0  0  0  0  0  0  0  0  0  0  0  0
  152.9542  142.7094  160.1913 H   0  0  0  0  0  0  0  0  0  0  0  0
  152.1989  141.3145  159.4415 H   0  0  0  0  0  0  0  0  0  0  0  0
  151.2901  144.9977  158.8775 H   0  0  0  0  0  0  0  0  0  0  0  0
  152.2846  145.1534  157.4316 H   0  0  0  0  0  0  0  0  0  0  0  0
  153.0467  144.9408  159.0016 H   0  0  0  0  0  0  0  0  0  0  0  0
  149.6180  141.5671  155.2011 H   0  0  0  0  0  0  0  0  0  0  0  0
  149.8113  139.2643  154.3149 H   0  0  0  0  0  0  0  0  0  0  0  0
  150.9593  130.2809  155.9542 H   0  0  0  0  0  0  0  0  0  0  0  0
  150.7742  130.4397  154.2138 H   0  0  0  0  0  0  0  0  0  0  0  0
  149.3482  130.3809  155.2588 H   0  0  0  0  0  0  0  0  0  0  0  0
  1  2  1  0  0  0  0
  1 25  1  0  0  0  0
  1 26  1  0  0  0  0
  1 27  1  0  0  0  0
  2 23  1  0  0  0  0
  2  3  2  0  0  0  0
  3  4  1  0  0  0  0
  4  5  1  0  0  0  0
  4 18  1  0  0  0  0
  5  6  1  0  0  0  0
  5 28  1  0  0  0  0
  5 29  1  0  0  0  0
  6  7  1  0  0  0  0
  6  8  1  0  0  0  0
  6 30  1  0  0  0  0
  7 31  1  0  0  0  0
  8 17  1  0  0  0  0
  8  9  2  0  0  0  0
  9 10  1  0  0  0  0
  9 32  1  0  0  0  0
 10 11  2  0  0  0  0
 10 33  1  0  0  0  0
 11 12  1  0  0  0  0
 11 16  1  0  0  0  0
 12 13  1  0  0  0  0
 12 34  1  0  0  0  0
 12 35  1  0  0  0  0
 13 14  1  0  0  0  0
 13 15  1  0  0  0  0
 13 36  1  0  0  0  0
 14 37  1  0  0  0  0
 14 38  1  0  0  0  0
 14 39  1  0  0  0  0
 15 40  1  0  0  0  0
 15 41  1  0  0  0  0
 15 42  1  0  0  0  0
 16 17  2  0  0  0  0
 16 43  1  0  0  0  0
 17 44  1  0  0  0  0
 18 19  2  0  0  0  0
 18 20  1  0  0  0  0
 20 21  1  0  0  0  0
 20 23  2  0  0  0  0
 21 22  3  0  0  0  0
 23 24  1  0  0  0  0
 24 45  1  0  0  0  0
 24 46  1  0  0  0  0
 24 47  1  0  0  0  0
M  END
> <s_m_source_file>
AV-unprocessed.smi

> <i_m_source_file_index>
1674

> <i_lp_mmshare_version>
43012

> <i_f3d_flags>
0

> <s_epik_input>
TiNDYyhjMVtDSDNdKWMoPU8pbihuYzFbQ0gzXSlbQ0gyXVtDQEhdKFtPSF0pYzJbY0hdW2NIXWMoW2NIXVtjSF0yKVtDSDJdW0NIXShbQ0gzXSlbQ0gzXQ==

> <s_epik_cmdline>
J2VwaWtfcHl0aG9uJywgJy1waCcsICc3LjAnLCAnLXRuJywgJzgnLCAnLW1hJywgJzIwMCcsICctbWV0YWxfYmluZGluZycsICctaW1hZScsICc8aW5maWxlLm1hZT4nLCAnLW9tYWUnLCAnPG91dGZpbGUubWFlPic=

> <r_lp_tautomer_probability>
1

> <r_epik_Ionization_Penalty>
4.60566e-08

> <r_epik_Ionization_Penalty_Charging>
1.40848e-10

> <r_epik_Ionization_Penalty_Neutral>
4.59158e-08

> <r_epik_State_Penalty>
-0

> <r_epik_Charging_Adjusted_Penalty>
1.40848e-10

> <i_epik_Tot_Q>
0

> <i_epik_Tot_abs_Q>
0

> <r_epik_Metal_State_Penalty>
-0

> <b_epik_Metal_Only>
0

> <s_lp_Force_Field>
OPLS_2005

> <r_lp_Energy>
26.1271

> <b_lp_Chiralities_Consistent>
1

> <s_lp_Variant>
AV-unprocessed.smi:1674-2

> <Gold.Version>
5.8.1

> <Gold.Id.Protein>
6NUR|6NUR_protein|mol2

> <Gold.PLP.Fitness>
54.9461

> <Gold.PLP.PLP>
-48.4887

> <Gold.PLP.part.hbond>
-4.0000

> <Gold.PLP.part.metal>
0.0000

> <Gold.PLP.part.buried>
-5.3646

> <Gold.PLP.part.nonpolar>
-42.1118

> <Gold.PLP.part.repulsive>
1.4592

> <Gold.PLP.ligand.clash>
0.0000

> <Gold.PLP.ligand.torsion>
0.5430

> <Gold.PLP.Chemscore.Hbond>
2.4720

> <Gold.PLP.Chemscore.CHOScore>
0.0000

> <Gold.PLP.Chemscore.Metal>
0.0000

> <Gold.Chemscore.Hbonds>
donor molecule, donor type, donor heavy atom, donor atom, acceptor molecule, acceptor atom, score
      L1  H     7    31       P1  7949  0.70
      P1  H  6896  6907       L1    22  0.45
      P1  H 10752 10763       L1     7  0.95

> <Gold.PLP.Chemscore.Internal.Correction>
0.1274

> <Gold.Rescore>
     Score         DG    S(hbond)    S(metal)    S(lipo)     H(rot)  DE(clash)    DE(int)     intcor
     13.74     -17.47       0.96        0.00     121.54       2.13       1.00       2.73       ----

> <Gold.Chemscore.Fitness>
13.7402

> <Gold.Chemscore.DG>
-17.4697

> <Gold.Chemscore.ZeroCoef>
-5.4800

> <Gold.Chemscore.Hbond>
0.9646

> <Gold.Chemscore.Metal>
0.0000

> <Gold.Chemscore.Lipo>
121.5437

> <Gold.Chemscore.Internal_Hbond>
0.0000

> <Gold.Chemscore.DEClash>
0.9971

> <Gold.Chemscore.DEInternal>
2.7324

> <Gold.Chemscore.Rot>
2.1299

> <Gold.Chemscore.Internal.Correction>
   9.000000E+99

> <Gold.Chemscore.Hbonds>
donor molecule, donor type, donor heavy atom, donor atom, acceptor molecule, acceptor atom, score
      L1  H     7    31       P1  7949  0.40
      P1  H  6896  6907       L1    22  0.02
      P1  H 10752 10763       L1     7  0.08

> <Gold.Chemscore.Hbond.Weighted>
-3.2217

> <Gold.Chemscore.Metal.Weighted>
-0.0000

> <Gold.Chemscore.Lipo.Weighted>
-14.2206

> <Gold.Chemscore.Internal_Hbond.Weighted>
0.0000

> <Gold.Chemscore.DEClash.Weighted>
0.9971

> <Gold.Chemscore.DEInternal.Weighted>
2.7324

> <Gold.Chemscore.Rot.Weighted>
5.4526

> <Gold.Chemscore.Internal.Correction.Weighted>
   9.000000E+99

> <Gold.Protein.RotatedTorsions>
[ 6907 6896 6895 6894 ] final  165.50 input  -60.11 | X-H torsion
[ 7974 7965 7964 7962 ] final   89.14 input  175.53 | X-H torsion
[ 8008 7997 7996 7995 ] final -114.54 input   59.86 | X-H torsion
[ 10167 10162 10161 10158 ] final   47.37 input  -65.29 | X-H torsion
[ 10718 10713 10712 10709 ] final  151.76 input   66.30 | X-H torsion
[ 10763 10752 10751 10750 ] final   16.48 input  -60.55 | X-H torsion
[ 11005 11000 10999 10996 ] final -119.19 input  -57.11 | X-H torsion

> <Gold.Protein.ActiveResidues>
 VAL166  LYS551  ARG553  GLY616  TRP617  ASP618  TYR619  PRO620  LYS621  CYS622 
 ASP623  PHE694  ASN695  SER759  ASP760  ASP761  ALA762  ILE779  LEU786  VAL792 
 PHE793  MET794  SER795  GLU796  ALA797  LYS798  CYS799  TRP800  GLU811  SER814 

> <Gold.Protein.RotatedAtoms>
  151.8935  133.3521  159.3806 H   0  0  0  0  0  0  0  0  0  0  0  0  # atno 6907 bound_to 6896
  150.7097  134.4900  159.5520 H   0  0  0  0  0  0  0  0  0  0  0  0  # atno 6908 bound_to 6896
  152.2474  134.8167  160.0502 H   0  0  0  0  0  0  0  0  0  0  0  0  # atno 6909 bound_to 6896
  145.5363  139.2286  143.2591 H   0  0  0  0  0  0  0  0  0  0  0  0  # atno 7974 bound_to 7965
  155.0380  140.0392  157.2499 H   0  0  0  0  0  0  0  0  0  0  0  0  # atno 8008 bound_to 7997
  154.7240  140.2717  155.6491 H   0  0  0  0  0  0  0  0  0  0  0  0  # atno 8009 bound_to 7997
  156.2824  140.2697  156.1920 H   0  0  0  0  0  0  0  0  0  0  0  0  # atno 8010 bound_to 7997
  140.3043  144.2896  150.6212 H   0  0  0  0  0  0  0  0  0  0  0  0  # atno 10167 bound_to 10162
  157.2665  131.0808  151.1630 H   0  0  0  0  0  0  0  0  0  0  0  0  # atno 10718 bound_to 10713
  153.1427  135.6763  153.9002 H   0  0  0  0  0  0  0  0  0  0  0  0  # atno 10763 bound_to 10752
  153.8454  135.3100  155.3430 H   0  0  0  0  0  0  0  0  0  0  0  0  # atno 10764 bound_to 10752
  154.7800  135.4893  153.9909 H   0  0  0  0  0  0  0  0  0  0  0  0  # atno 10765 bound_to 10752
  141.0233  134.0092  157.3251 H   0  0  0  0  0  0  0  0  0  0  0  0  # atno 11005 bound_to 11000
  146.2011  140.6181  142.9102 LP  0  0  0  0  0  0  0  0  0  0  0  0  # atno 17320 bound_to 7965
  144.7600  140.5399  143.6742 LP  0  0  0  0  0  0  0  0  0  0  0  0  # atno 17321 bound_to 7965
  140.5624  143.2190  151.7743 LP  0  0  0  0  0  0  0  0  0  0  0  0  # atno 17342 bound_to 10162
  139.4908  144.4331  151.9850 LP  0  0  0  0  0  0  0  0  0  0  0  0  # atno 17343 bound_to 10162
  157.3119  130.6894  149.6220 LP  0  0  0  0  0  0  0  0  0  0  0  0  # atno 17370 bound_to 10713
  155.9663  130.4361  150.5120 LP  0  0  0  0  0  0  0  0  0  0  0  0  # atno 17371 bound_to 10713
  139.9160  135.0196  156.7881 LP  0  0  0  0  0  0  0  0  0  0  0  0  # atno 17394 bound_to 11000
  140.6535  133.9709  155.7767 LP  0  0  0  0  0  0  0  0  0  0  0  0  # atno 17395 bound_to 11000

$$$$
