AV-unprocessed.smi:102|AV-procd|sdf|964|dock5
  -GOLD-   2262017503D 1   1.00000     0.00000
 Structure written by MMmdl.
 43 44  0  0  0  0  0  0  0  0  2 V2000
  149.0603  131.5259  162.0605 C   0  0  0  0  0  0  0  0  0  0  0  0
  148.4287  132.8498  161.6490 C   0  0  0  0  0  0  0  0  0  0  0  0
  147.9273  133.6060  162.4811 O   0  0  0  0  0  0  0  0  0  0  0  0
  148.4936  133.0646  160.3266 O   0  0  0  0  0  0  0  0  0  0  0  0
  147.9926  134.2775  159.7903 C   0  0  0  0  0  0  0  0  0  0  0  0
  148.9560  135.4279  160.1399 C   0  0  1  0  0  0  0  0  0  0  0  0
  149.9172  135.5637  159.0989 O   0  0  0  0  0  0  0  0  0  0  0  0
  149.3981  136.3797  158.0922 C   0  0  2  0  0  0  0  0  0  0  0  0
  150.5212  137.1856  157.4793 N   0  0  0  0  0  0  0  0  0  0  0  0
  150.7861  137.0453  156.1285 C   0  0  0  0  0  0  0  0  0  0  0  0
  151.7970  137.7146  155.5379 C   0  0  0  0  0  0  0  0  0  0  0  0
  152.0240  137.5601  154.2220 F   0  0  0  0  0  0  0  0  0  0  0  0
  152.6397  138.6020  156.3367 C   0  0  0  0  0  0  0  0  0  0  0  0
  153.5515  139.2215  155.7908 O   0  0  0  0  0  0  0  0  0  0  0  0
  152.3734  138.7021  157.6711 N   0  5  0  0  0  0  0  0  0  0  0  0
  151.3573  138.0188  158.2753 C   0  0  0  0  0  0  0  0  0  0  0  0
  151.1329  138.0883  159.4823 O   0  0  0  0  0  0  0  0  0  0  0  0
  148.2847  137.2505  158.7038 C   0  0  1  0  0  0  0  0  0  0  0  0
  147.0568  136.9338  158.0535 O   0  0  0  0  0  0  0  0  0  0  0  0
  145.9289  137.5993  158.3581 C   0  0  0  0  0  0  0  0  0  0  0  0
  144.7502  137.1635  157.4982 C   0  0  0  0  0  0  0  0  0  0  0  0
  145.8049  138.4611  159.2281 O   0  0  0  0  0  0  0  0  0  0  0  0
  148.3015  136.8165  160.1702 C   0  0  1  0  0  0  0  0  0  0  0  0
  147.0118  136.8456  160.7744 O   0  0  0  0  0  0  0  0  0  0  0  0
  146.8839  137.0426  162.0974 C   0  0  0  0  0  0  0  0  0  0  0  0
  145.4309  137.0025  162.5513 C   0  0  0  0  0  0  0  0  0  0  0  0
  147.8022  137.2267  162.8962 O   0  0  0  0  0  0  0  0  0  0  0  0
  149.3778  130.9563  161.1867 H   0  0  0  0  0  0  0  0  0  0  0  0
  148.3448  130.9249  162.6218 H   0  0  0  0  0  0  0  0  0  0  0  0
  149.9314  131.7046  162.6910 H   0  0  0  0  0  0  0  0  0  0  0  0
  147.8550  134.1921  158.7120 H   0  0  0  0  0  0  0  0  0  0  0  0
  147.0116  134.4634  160.2290 H   0  0  0  0  0  0  0  0  0  0  0  0
  149.4489  135.2205  161.0903 H   0  0  0  0  0  0  0  0  0  0  0  0
  149.0250  135.7417  157.2895 H   0  0  0  0  0  0  0  0  0  0  0  0
  150.1732  136.3911  155.5259 H   0  0  0  0  0  0  0  0  0  0  0  0
  148.5302  138.3078  158.5962 H   0  0  0  0  0  0  0  0  0  0  0  0
  145.0505  137.0812  156.4534 H   0  0  0  0  0  0  0  0  0  0  0  0
  143.9379  137.8873  157.5672 H   0  0  0  0  0  0  0  0  0  0  0  0
  144.3792  136.1939  157.8309 H   0  0  0  0  0  0  0  0  0  0  0  0
  148.9647  137.4970  160.7054 H   0  0  0  0  0  0  0  0  0  0  0  0
  144.7848  137.4729  161.8098 H   0  0  0  0  0  0  0  0  0  0  0  0
  145.3121  137.5305  163.4976 H   0  0  0  0  0  0  0  0  0  0  0  0
  145.1083  135.9703  162.6879 H   0  0  0  0  0  0  0  0  0  0  0  0
  1  2  1  0  0  0  0
  1 28  1  0  0  0  0
  1 29  1  0  0  0  0
  1 30  1  0  0  0  0
  2  3  2  0  0  0  0
  2  4  1  0  0  0  0
  4  5  1  0  0  0  0
  5  6  1  0  0  0  0
  5 31  1  0  0  0  0
  5 32  1  0  0  0  0
  6 23  1  0  0  0  0
  6  7  1  0  0  0  0
  6 33  1  0  0  0  0
  7  8  1  0  0  0  0
  8  9  1  0  0  0  0
  8 18  1  0  0  0  0
  8 34  1  0  0  0  0
  9 16  1  0  0  0  0
  9 10  1  0  0  0  0
 10 11  2  0  0  0  0
 10 35  1  0  0  0  0
 11 12  1  0  0  0  0
 11 13  1  0  0  0  0
 13 14  2  0  0  0  0
 13 15  1  0  0  0  0
 15 16  1  0  0  0  0
 16 17  2  0  0  0  0
 18 19  1  0  0  0  0
 18 23  1  0  0  0  0
 18 36  1  0  0  0  0
 19 20  1  0  0  0  0
 20 21  1  0  0  0  0
 20 22  2  0  0  0  0
 21 37  1  0  0  0  0
 21 38  1  0  0  0  0
 21 39  1  0  0  0  0
 23 24  1  0  0  0  0
 23 40  1  0  0  0  0
 24 25  1  0  0  0  0
 25 26  1  0  0  0  0
 25 27  2  0  0  0  0
 26 41  1  0  0  0  0
 26 42  1  0  0  0  0
 26 43  1  0  0  0  0
M  CHG  1  15  -1
M  END
> <s_m_source_file>
AV-unprocessed.smi

> <i_m_source_file_index>
102

> <i_lp_mmshare_version>
43012

> <i_f3d_flags>
0

> <s_epik_input>
W0NIM11DKD1PKU9bQ0gyXVtDQEBIXTFPW0NASF0oW0NAQEhdKE9DKD1PKVtDSDNdKVtDQEhdMU9DKD1PKVtDSDNdKW4yW2NIXWMoRiljKD1PKVtuSF1jMj1P

> <s_epik_cmdline>
J2VwaWtfcHl0aG9uJywgJy1waCcsICc3LjAnLCAnLXRuJywgJzgnLCAnLW1hJywgJzIwMCcsICctbWV0YWxfYmluZGluZycsICctaW1hZScsICc8aW5maWxlLm1hZT4nLCAnLW9tYWUnLCAnPG91dGZpbGUubWFlPic=

> <r_epik_Ionization_Penalty>
1.40304

> <r_epik_Ionization_Penalty_Charging>
1.43915e-08

> <r_epik_Ionization_Penalty_Neutral>
1.40304

> <r_epik_State_Penalty>
1.48536

> <r_epik_Charging_Adjusted_Penalty>
1.48536

> <i_epik_Tot_Q>
-1

> <i_epik_Tot_abs_Q>
1

> <r_epik_Metal_State_Penalty>
0.00663881

> <b_epik_Metal_Only>
0

> <s_epik_Chemistry_Notes>
This compound has an ester and may undergo hydrolysis at high or low pH. This compound contains an acetal/aminal-like group ( X-CH(R)-Y where X, Y are N, S, or O) that may be acid/base labile, releasing an aldehyde.

> <s_lp_Force_Field>
OPLS_2005

> <r_lp_Energy>
22.8402

> <b_lp_Chiralities_Consistent>
1

> <s_lp_Variant>
AV-unprocessed.smi:102-20

> <Gold.Version>
5.8.1

> <Gold.Id.Protein>
6NUR|6NUR_protein|mol2

> <Gold.PLP.Fitness>
36.9820

> <Gold.PLP.PLP>
-29.9633

> <Gold.PLP.part.hbond>
-5.4939

> <Gold.PLP.part.metal>
0.0000

> <Gold.PLP.part.buried>
-5.0113

> <Gold.PLP.part.nonpolar>
-19.9240

> <Gold.PLP.part.repulsive>
0.0015

> <Gold.PLP.ligand.clash>
0.0000

> <Gold.PLP.ligand.torsion>
0.7833

> <Gold.PLP.Chemscore.Hbond>
2.8176

> <Gold.PLP.Chemscore.CHOScore>
0.0000

> <Gold.PLP.Chemscore.Metal>
0.0000

> <Gold.Chemscore.Hbonds>
donor molecule, donor type, donor heavy atom, donor atom, acceptor molecule, acceptor atom, score
      P1  H  6896  6908       L1     7  0.30
      P1  H  6931  6943       L1    27  0.70
      P1  H  6934  6947       L1    22  0.27
      P1  H  7997  8008       L1    14  0.43

> <Gold.PLP.Chemscore.Internal.Correction>
0.1324

> <Gold.Rescore>
     Score         DG    S(hbond)    S(metal)    S(lipo)     H(rot)  DE(clash)    DE(int)     intcor
      0.20      -5.71       1.89        0.00      35.51       4.00       0.05       5.47       ----

> <Gold.Chemscore.Fitness>
0.1975

> <Gold.Chemscore.DG>
-5.7126

> <Gold.Chemscore.ZeroCoef>
-5.4800

> <Gold.Chemscore.Hbond>
1.8877

> <Gold.Chemscore.Metal>
0.0000

> <Gold.Chemscore.Lipo>
35.5139

> <Gold.Chemscore.Internal_Hbond>
0.0000

> <Gold.Chemscore.DEClash>
0.0451

> <Gold.Chemscore.DEInternal>
5.4699

> <Gold.Chemscore.Rot>
3.9951

> <Gold.Chemscore.Internal.Correction>
   9.000000E+99

> <Gold.Chemscore.Hbonds>
donor molecule, donor type, donor heavy atom, donor atom, acceptor molecule, acceptor atom, score
      P1  H  6896  6908       L1     7  0.04
      P1  H  6931  6943       L1    27  0.32
      P1  H  6934  6947       L1    22  0.26
      P1  H  7997  8008       L1    14  0.43

> <Gold.Chemscore.Hbond.Weighted>
-6.3049

> <Gold.Chemscore.Metal.Weighted>
-0.0000

> <Gold.Chemscore.Lipo.Weighted>
-4.1551

> <Gold.Chemscore.Internal_Hbond.Weighted>
0.0000

> <Gold.Chemscore.DEClash.Weighted>
0.0451

> <Gold.Chemscore.DEInternal.Weighted>
5.4699

> <Gold.Chemscore.Rot.Weighted>
10.2274

> <Gold.Chemscore.Internal.Correction.Weighted>
   9.000000E+99

> <Gold.Protein.RotatedTorsions>
[ 6907 6896 6895 6894 ] final -170.97 input  -60.11 | X-H torsion
[ 7974 7965 7964 7962 ] final -104.02 input  175.53 | X-H torsion
[ 8008 7997 7996 7995 ] final  -15.98 input   59.86 | X-H torsion
[ 10167 10162 10161 10158 ] final  -90.80 input  -65.29 | X-H torsion
[ 10718 10713 10712 10709 ] final  168.26 input   66.30 | X-H torsion
[ 10763 10752 10751 10750 ] final  -38.89 input  -60.55 | X-H torsion
[ 11005 11000 10999 10996 ] final  -70.64 input  -57.11 | X-H torsion

> <Gold.Protein.ActiveResidues>
 VAL166  LYS551  ARG553  GLY616  TRP617  ASP618  TYR619  PRO620  LYS621  CYS622 
 ASP623  PHE694  ASN695  SER759  ASP760  ASP761  ALA762  ILE779  LEU786  VAL792 
 PHE793  MET794  SER795  GLU796  ALA797  LYS798  CYS799  TRP800  GLU811  SER814 

> <Gold.Protein.RotatedAtoms>
  151.5163  133.3475  159.2893 H   0  0  0  0  0  0  0  0  0  0  0  0  # atno 6907 bound_to 6896
  150.8681  134.8051  159.7145 H   0  0  0  0  0  0  0  0  0  0  0  0  # atno 6908 bound_to 6896
  152.4678  134.5042  159.9786 H   0  0  0  0  0  0  0  0  0  0  0  0  # atno 6909 bound_to 6896
  145.2484  140.9229  143.3109 H   0  0  0  0  0  0  0  0  0  0  0  0  # atno 7974 bound_to 7965
  154.5088  140.2182  155.9197 H   0  0  0  0  0  0  0  0  0  0  0  0  # atno 8008 bound_to 7997
  156.1527  140.3158  155.8641 H   0  0  0  0  0  0  0  0  0  0  0  0  # atno 8009 bound_to 7997
  155.3907  140.0478  157.3031 H   0  0  0  0  0  0  0  0  0  0  0  0  # atno 8010 bound_to 7997
  140.3513  143.2890  151.9723 H   0  0  0  0  0  0  0  0  0  0  0  0  # atno 10167 bound_to 10162
  157.0396  131.0283  151.2717 H   0  0  0  0  0  0  0  0  0  0  0  0  # atno 10718 bound_to 10713
  153.9204  135.6783  153.4748 H   0  0  0  0  0  0  0  0  0  0  0  0  # atno 10763 bound_to 10752
  153.1032  135.4818  154.8901 H   0  0  0  0  0  0  0  0  0  0  0  0  # atno 10764 bound_to 10752
  154.7481  135.3177  154.8564 H   0  0  0  0  0  0  0  0  0  0  0  0  # atno 10765 bound_to 10752
  141.1578  133.6795  156.6783 H   0  0  0  0  0  0  0  0  0  0  0  0  # atno 11005 bound_to 11000
  144.9525  139.4067  143.6395 LP  0  0  0  0  0  0  0  0  0  0  0  0  # atno 17320 bound_to 7965
  146.3309  139.8539  142.8868 LP  0  0  0  0  0  0  0  0  0  0  0  0  # atno 17321 bound_to 7965
  139.4826  144.6074  151.7497 LP  0  0  0  0  0  0  0  0  0  0  0  0  # atno 17342 bound_to 10162
  140.5216  144.0869  150.6024 LP  0  0  0  0  0  0  0  0  0  0  0  0  # atno 17343 bound_to 10162
  157.5114  130.7941  149.7709 LP  0  0  0  0  0  0  0  0  0  0  0  0  # atno 17370 bound_to 10713
  156.0042  130.3864  150.2491 LP  0  0  0  0  0  0  0  0  0  0  0  0  # atno 17371 bound_to 10713
  140.3122  134.8077  157.4185 LP  0  0  0  0  0  0  0  0  0  0  0  0  # atno 17394 bound_to 11000
  140.1169  134.5271  155.8217 LP  0  0  0  0  0  0  0  0  0  0  0  0  # atno 17395 bound_to 11000

$$$$
