AV-unprocessed.smi:2307|AV-procd|sdf|9251|dock6
  -GOLD-   2272012473D 1   1.00000     0.00000
 Structure written by MMmdl.
 38 39  0  0  0  0  0  0  0  0  1 V2000
  152.4565  144.9183  160.0051 C   0  0  0  0  0  0  0  0  0  0  0  0
  152.0044  143.6778  159.2553 C   0  0  0  0  0  0  0  0  0  0  0  0
  151.1151  143.9010  158.1999 N   0  0  0  0  0  0  0  0  0  0  0  0
  150.6785  142.9035  157.5025 C   0  0  0  0  0  0  0  0  0  0  0  0
  151.0765  141.5844  157.7730 N   0  0  0  0  0  0  0  0  0  0  0  0
  150.5084  140.5404  156.9039 C   0  0  0  0  0  0  0  0  0  0  0  0
  150.2610  141.0462  155.4656 C   0  0  1  0  0  0  0  0  0  0  0  0
  150.5472  139.9975  154.5609 O   0  0  0  0  0  0  0  0  0  0  0  0
  148.8332  141.5452  155.3039 C   0  0  0  0  0  0  0  0  0  0  0  0
  148.3132  141.7792  154.0148 C   0  0  0  0  0  0  0  0  0  0  0  0
  146.9965  142.2511  153.8557 C   0  0  0  0  0  0  0  0  0  0  0  0
  146.1761  142.4998  154.9750 C   0  0  0  0  0  0  0  0  0  0  0  0
  144.8998  142.9599  154.7214 O   0  0  0  0  0  0  0  0  0  0  0  0
  144.5882  144.2787  154.8460 C   0  0  0  0  0  0  0  0  0  0  0  0
  143.2412  144.4238  154.8576 F   0  0  0  0  0  0  0  0  0  0  0  0
  145.0505  144.8009  156.0099 F   0  0  0  0  0  0  0  0  0  0  0  0
  145.0546  145.0107  153.8031 F   0  0  0  0  0  0  0  0  0  0  0  0
  146.7048  142.2684  156.2701 C   0  0  0  0  0  0  0  0  0  0  0  0
  148.0222  141.7974  156.4306 C   0  0  0  0  0  0  0  0  0  0  0  0
  151.9327  141.2770  158.7902 C   0  0  0  0  0  0  0  0  0  0  0  0
  152.2630  140.1136  159.0282 O   0  0  0  0  0  0  0  0  0  0  0  0
  152.4234  142.4226  159.5734 C   0  0  0  0  0  0  0  0  0  0  0  0
  153.3902  142.1188  160.7111 C   0  0  0  0  0  0  0  0  0  0  0  0
  153.5393  145.0288  159.9427 H   0  0  0  0  0  0  0  0  0  0  0  0
  152.1717  144.8547  161.0557 H   0  0  0  0  0  0  0  0  0  0  0  0
  152.0043  145.8204  159.5910 H   0  0  0  0  0  0  0  0  0  0  0  0
  149.9797  143.0233  156.6728 H   0  0  0  0  0  0  0  0  0  0  0  0
  151.1125  139.6306  156.8932 H   0  0  0  0  0  0  0  0  0  0  0  0
  149.5587  140.2247  157.3404 H   0  0  0  0  0  0  0  0  0  0  0  0
  150.9357  141.8713  155.2335 H   0  0  0  0  0  0  0  0  0  0  0  0
  150.0908  139.2216  154.8491 H   0  0  0  0  0  0  0  0  0  0  0  0
  148.9233  141.6006  153.1414 H   0  0  0  0  0  0  0  0  0  0  0  0
  146.6116  142.4251  152.8616 H   0  0  0  0  0  0  0  0  0  0  0  0
  146.1196  142.4464  157.1589 H   0  0  0  0  0  0  0  0  0  0  0  0
  148.4088  141.6330  157.4257 H   0  0  0  0  0  0  0  0  0  0  0  0
  152.9215  141.4523  161.4361 H   0  0  0  0  0  0  0  0  0  0  0  0
  153.7165  143.0085  161.2471 H   0  0  0  0  0  0  0  0  0  0  0  0
  154.2816  141.6242  160.3239 H   0  0  0  0  0  0  0  0  0  0  0  0
  1  2  1  0  0  0  0
  1 24  1  0  0  0  0
  1 25  1  0  0  0  0
  1 26  1  0  0  0  0
  2 22  2  0  0  0  0
  2  3  1  0  0  0  0
  3  4  2  0  0  0  0
  4  5  1  0  0  0  0
  4 27  1  0  0  0  0
  5  6  1  0  0  0  0
  5 20  1  0  0  0  0
  6  7  1  0  0  0  0
  6 28  1  0  0  0  0
  6 29  1  0  0  0  0
  7  8  1  0  0  0  0
  7  9  1  0  0  0  0
  7 30  1  0  0  0  0
  8 31  1  0  0  0  0
  9 19  1  0  0  0  0
  9 10  2  0  0  0  0
 10 11  1  0  0  0  0
 10 32  1  0  0  0  0
 11 12  2  0  0  0  0
 11 33  1  0  0  0  0
 12 13  1  0  0  0  0
 12 18  1  0  0  0  0
 13 14  1  0  0  0  0
 14 15  1  0  0  0  0
 14 16  1  0  0  0  0
 14 17  1  0  0  0  0
 18 19  2  0  0  0  0
 18 34  1  0  0  0  0
 19 35  1  0  0  0  0
 20 21  2  0  0  0  0
 20 22  1  0  0  0  0
 22 23  1  0  0  0  0
 23 36  1  0  0  0  0
 23 37  1  0  0  0  0
 23 38  1  0  0  0  0
M  END
> <s_m_source_file>
AV-unprocessed.smi

> <i_m_source_file_index>
2307

> <i_lp_mmshare_version>
43012

> <i_f3d_flags>
0

> <s_epik_input>
W0NIM11jMW5bY0hdbihjKD1PKWMxW0NIM10pW0NIMl1bQ0BIXShbT0hdKWMyW2NIXVtjSF1jKE9DKEYpKEYpRilbY0hdW2NIXTI=

> <s_epik_cmdline>
J2VwaWtfcHl0aG9uJywgJy1waCcsICc3LjAnLCAnLXRuJywgJzgnLCAnLW1hJywgJzIwMCcsICctbWV0YWxfYmluZGluZycsICctaW1hZScsICc8aW5maWxlLm1hZT4nLCAnLW9tYWUnLCAnPG91dGZpbGUubWFlPic=

> <r_lp_tautomer_probability>
1

> <r_epik_Ionization_Penalty>
5.07003e-05

> <r_epik_Ionization_Penalty_Charging>
7.56727e-08

> <r_epik_Ionization_Penalty_Neutral>
5.06246e-05

> <r_epik_State_Penalty>
-0

> <r_epik_Charging_Adjusted_Penalty>
7.56727e-08

> <i_epik_Tot_Q>
0

> <i_epik_Tot_abs_Q>
0

> <r_epik_Metal_State_Penalty>
-0

> <b_epik_Metal_Only>
0

> <s_lp_Force_Field>
OPLS_2005

> <r_lp_Energy>
18.0652

> <b_lp_Chiralities_Consistent>
1

> <s_lp_Variant>
AV-unprocessed.smi:2307-2

> <Gold.Version>
5.8.1

> <Gold.Id.Protein>
6NUR|6NUR_protein|mol2

> <Gold.PLP.Fitness>
48.0698

> <Gold.PLP.PLP>
-45.1988

> <Gold.PLP.part.hbond>
-1.0000

> <Gold.PLP.part.metal>
0.0000

> <Gold.PLP.part.buried>
-6.2886

> <Gold.PLP.part.nonpolar>
-38.0252

> <Gold.PLP.part.repulsive>
0.3431

> <Gold.PLP.ligand.clash>
0.0000

> <Gold.PLP.ligand.torsion>
1.6233

> <Gold.PLP.Chemscore.Hbond>
1.0000

> <Gold.PLP.Chemscore.CHOScore>
1.0000

> <Gold.PLP.Chemscore.Metal>
0.0000

> <Gold.Chemscore.Hbonds>
donor molecule, donor type, donor heavy atom, donor atom, acceptor molecule, acceptor atom, score
      P1  H  7989  7998       L1     8  0.90
      L1  C     4    27       P1  8028  1.00

> <Gold.PLP.Chemscore.Internal.Correction>
0.1176

> <Gold.Rescore>
     Score         DG    S(hbond)    S(metal)    S(lipo)     H(rot)  DE(clash)    DE(int)     intcor
     10.46     -12.42       0.95        0.00      91.03       2.69       0.21       1.75       ----

> <Gold.Chemscore.Fitness>
10.4604

> <Gold.Chemscore.DG>
-12.4156

> <Gold.Chemscore.ZeroCoef>
-5.4800

> <Gold.Chemscore.Hbond>
0.9462

> <Gold.Chemscore.Metal>
0.0000

> <Gold.Chemscore.Lipo>
91.0294

> <Gold.Chemscore.Internal_Hbond>
0.0000

> <Gold.Chemscore.DEClash>
0.2084

> <Gold.Chemscore.DEInternal>
1.7468

> <Gold.Chemscore.Rot>
2.6856

> <Gold.Chemscore.Internal.Correction>
   9.000000E+99

> <Gold.Chemscore.Hbonds>
donor molecule, donor type, donor heavy atom, donor atom, acceptor molecule, acceptor atom, score
      P1  H  7989  7998       L1     8  0.18

> <Gold.Chemscore.Hbond.Weighted>
-3.1603

> <Gold.Chemscore.Metal.Weighted>
-0.0000

> <Gold.Chemscore.Lipo.Weighted>
-10.6504

> <Gold.Chemscore.Internal_Hbond.Weighted>
0.0000

> <Gold.Chemscore.DEClash.Weighted>
0.2084

> <Gold.Chemscore.DEInternal.Weighted>
1.7468

> <Gold.Chemscore.Rot.Weighted>
6.8751

> <Gold.Chemscore.Internal.Correction.Weighted>
   9.000000E+99

> <Gold.Protein.RotatedTorsions>
[ 6907 6896 6895 6894 ] final  -45.26 input  -60.11 | X-H torsion
[ 7974 7965 7964 7962 ] final   -1.37 input  175.53 | X-H torsion
[ 8008 7997 7996 7995 ] final   37.00 input   59.86 | X-H torsion
[ 10167 10162 10161 10158 ] final  -80.28 input  -65.29 | X-H torsion
[ 10718 10713 10712 10709 ] final   96.51 input   66.30 | X-H torsion
[ 10763 10752 10751 10750 ] final  168.18 input  -60.55 | X-H torsion
[ 11005 11000 10999 10996 ] final  -43.24 input  -57.11 | X-H torsion

> <Gold.Protein.ActiveResidues>
 VAL166  LYS551  ARG553  GLY616  TRP617  ASP618  TYR619  PRO620  LYS621  CYS622 
 ASP623  PHE694  ASN695  SER759  ASP760  ASP761  ALA762  ILE779  LEU786  VAL792 
 PHE793  MET794  SER795  GLU796  ALA797  LYS798  CYS799  TRP800  GLU811  SER814 

> <Gold.Protein.RotatedAtoms>
  150.9239  134.8656  159.7506 H   0  0  0  0  0  0  0  0  0  0  0  0  # atno 6907 bound_to 6896
  152.5006  134.4178  159.9480 H   0  0  0  0  0  0  0  0  0  0  0  0  # atno 6908 bound_to 6896
  151.4210  133.3658  159.2791 H   0  0  0  0  0  0  0  0  0  0  0  0  # atno 6909 bound_to 6896
  146.2417  140.1411  142.8335 H   0  0  0  0  0  0  0  0  0  0  0  0  # atno 7974 bound_to 7965
  155.1967  140.3312  155.4350 H   0  0  0  0  0  0  0  0  0  0  0  0  # atno 8008 bound_to 7997
  156.2422  140.1901  156.7006 H   0  0  0  0  0  0  0  0  0  0  0  0  # atno 8009 bound_to 7997
  154.6169  140.0601  156.9552 H   0  0  0  0  0  0  0  0  0  0  0  0  # atno 8010 bound_to 7997
  140.4517  143.2481  151.8478 H   0  0  0  0  0  0  0  0  0  0  0  0  # atno 10167 bound_to 10162
  157.6926  131.0580  150.4503 H   0  0  0  0  0  0  0  0  0  0  0  0  # atno 10718 bound_to 10713
  154.3647  135.2753  155.2300 H   0  0  0  0  0  0  0  0  0  0  0  0  # atno 10763 bound_to 10752
  154.4473  135.5939  153.6172 H   0  0  0  0  0  0  0  0  0  0  0  0  # atno 10764 bound_to 10752
  152.9841  135.6033  154.3871 H   0  0  0  0  0  0  0  0  0  0  0  0  # atno 10765 bound_to 10752
  141.0370  133.6795  156.2706 H   0  0  0  0  0  0  0  0  0  0  0  0  # atno 11005 bound_to 11000
  145.0246  140.8821  143.5146 LP  0  0  0  0  0  0  0  0  0  0  0  0  # atno 17320 bound_to 7965
  145.1465  139.2540  143.5463 LP  0  0  0  0  0  0  0  0  0  0  0  0  # atno 17321 bound_to 7965
  139.4797  144.5112  151.8930 LP  0  0  0  0  0  0  0  0  0  0  0  0  # atno 17342 bound_to 10162
  140.4199  144.2257  150.5887 LP  0  0  0  0  0  0  0  0  0  0  0  0  # atno 17343 bound_to 10162
  156.4854  130.4083  149.6437 LP  0  0  0  0  0  0  0  0  0  0  0  0  # atno 17370 bound_to 10713
  156.3467  130.7410  151.2364 LP  0  0  0  0  0  0  0  0  0  0  0  0  # atno 17371 bound_to 10713
  140.6303  134.5271  157.5558 LP  0  0  0  0  0  0  0  0  0  0  0  0  # atno 17394 bound_to 11000
  139.9248  134.8077  156.1101 LP  0  0  0  0  0  0  0  0  0  0  0  0  # atno 17395 bound_to 11000

$$$$
