AV-unprocessed.smi:229|AV-procd|sdf|1749|dock5
  -GOLD-   2262020273D 1   1.00000     0.00000
 Structure written by MMmdl.
 58 62  0  0  0  0  0  0  0  0  1 V2000
  158.3233  132.3966  161.7209 C   0  0  0  0  0  0  0  0  0  0  0  0
  157.8476  133.8133  161.3721 C   0  0  0  0  0  0  0  0  0  0  0  0
  156.4390  134.1402  161.8949 C   0  0  2  0  0  0  0  0  0  0  0  0
  155.9574  135.5435  161.4846 C   0  0  0  0  0  0  0  0  0  0  0  0
  154.6724  135.8324  162.1093 N   0  0  0  0  0  0  0  0  0  0  0  0
  153.9991  136.8827  161.5743 C   0  0  0  0  0  0  0  0  0  0  0  0
  152.8088  136.6807  160.9476 N   0  0  0  0  0  0  0  0  0  0  0  0
  152.1318  137.7119  160.4331 C   0  0  0  0  0  0  0  0  0  0  0  0
  152.4566  139.0060  160.4308 N   0  0  0  0  0  0  0  0  0  0  0  0
  153.6547  139.2142  161.0475 C   0  0  0  0  0  0  0  0  0  0  0  0
  154.4845  138.2196  161.6388 C   0  0  0  0  0  0  0  0  0  0  0  0
  155.6318  138.8098  162.1573 N   0  0  0  0  0  0  0  0  0  0  0  0
  155.4814  140.0806  161.9007 C   0  0  0  0  0  0  0  0  0  0  0  0
  154.3208  140.4108  161.2392 N   0  0  0  0  0  0  0  0  0  0  0  0
  153.8955  141.7398  160.8369 C   0  0  0  0  0  0  0  0  0  0  0  0
  152.7533  141.7012  159.8023 C   0  0  1  0  0  0  0  0  0  0  0  0
  151.5482  141.3405  160.4512 O   0  0  0  0  0  0  0  0  0  0  0  0
  152.5517  143.0586  159.1046 C   0  0  2  0  0  0  0  0  0  0  0  0
  152.3052  144.2291  160.0548 C   0  0  0  0  0  0  0  0  0  0  0  0
  151.6471  145.2536  159.1514 C   0  0  0  0  0  0  0  0  0  0  0  0
  150.9826  144.4025  158.0652 C   0  0  0  0  0  0  0  0  0  0  0  0
  151.3578  143.0560  158.3358 O   0  0  0  0  0  0  0  0  0  0  0  0
  154.7098  135.7058  163.5628 C   0  0  0  0  0  0  0  0  0  0  0  0
  155.2399  134.3144  163.9797 C   0  0  1  0  0  0  0  0  0  0  0  0
  155.4902  134.2515  165.4829 C   0  0  0  0  0  0  0  0  0  0  0  0
  154.2049  133.6460  166.0259 C   0  0  0  0  0  0  0  0  0  0  0  0
  153.9061  132.6556  165.0602 O   0  0  0  0  0  0  0  0  0  0  0  0
  154.2058  133.1825  163.7726 C   0  0  0  0  0  0  0  0  0  0  0  0
  156.4843  134.0603  163.3208 O   0  0  0  0  0  0  0  0  0  0  0  0
  159.3477  132.2402  161.3827 H   0  0  0  0  0  0  0  0  0  0  0  0
  157.7030  131.6360  161.2471 H   0  0  0  0  0  0  0  0  0  0  0  0
  158.3000  132.2276  162.7977 H   0  0  0  0  0  0  0  0  0  0  0  0
  158.5540  134.5268  161.7977 H   0  0  0  0  0  0  0  0  0  0  0  0
  157.8849  133.9580  160.2918 H   0  0  0  0  0  0  0  0  0  0  0  0
  155.7457  133.3929  161.5077 H   0  0  0  0  0  0  0  0  0  0  0  0
  156.6804  136.2971  161.8000 H   0  0  0  0  0  0  0  0  0  0  0  0
  155.8896  135.6071  160.3999 H   0  0  0  0  0  0  0  0  0  0  0  0
  151.1944  137.4643  159.9573 H   0  0  0  0  0  0  0  0  0  0  0  0
  156.2151  140.8176  162.1929 H   0  0  0  0  0  0  0  0  0  0  0  0
  153.5881  142.2916  161.7264 H   0  0  0  0  0  0  0  0  0  0  0  0
  154.7605  142.2639  160.4286 H   0  0  0  0  0  0  0  0  0  0  0  0
  152.9724  140.9385  159.0535 H   0  0  0  0  0  0  0  0  0  0  0  0
  151.7627  140.9581  161.2884 H   0  0  0  0  0  0  0  0  0  0  0  0
  153.3938  143.2832  158.4471 H   0  0  0  0  0  0  0  0  0  0  0  0
  151.6128  143.9351  160.8451 H   0  0  0  0  0  0  0  0  0  0  0  0
  153.2180  144.6001  160.5218 H   0  0  0  0  0  0  0  0  0  0  0  0
  150.9348  145.8795  159.6897 H   0  0  0  0  0  0  0  0  0  0  0  0
  152.4000  145.9054  158.7064 H   0  0  0  0  0  0  0  0  0  0  0  0
  149.8962  144.4950  158.0789 H   0  0  0  0  0  0  0  0  0  0  0  0
  151.3351  144.6937  157.0751 H   0  0  0  0  0  0  0  0  0  0  0  0
  155.3618  136.4849  163.9608 H   0  0  0  0  0  0  0  0  0  0  0  0
  153.7174  135.8712  163.9846 H   0  0  0  0  0  0  0  0  0  0  0  0
  156.3185  133.5747  165.6985 H   0  0  0  0  0  0  0  0  0  0  0  0
  155.7287  135.2171  165.9302 H   0  0  0  0  0  0  0  0  0  0  0  0
  154.3262  133.2161  167.0203 H   0  0  0  0  0  0  0  0  0  0  0  0
  153.4032  134.3854  166.0607 H   0  0  0  0  0  0  0  0  0  0  0  0
  153.2898  133.5568  163.3138 H   0  0  0  0  0  0  0  0  0  0  0  0
  154.5814  132.3734  163.1468 H   0  0  0  0  0  0  0  0  0  0  0  0
  1  2  1  0  0  0  0
  1 30  1  0  0  0  0
  1 31  1  0  0  0  0
  1 32  1  0  0  0  0
  2  3  1  0  0  0  0
  2 33  1  0  0  0  0
  2 34  1  0  0  0  0
  3 29  1  0  0  0  0
  3  4  1  0  0  0  0
  3 35  1  0  0  0  0
  4  5  1  0  0  0  0
  4 36  1  0  0  0  0
  4 37  1  0  0  0  0
  5  6  1  0  0  0  0
  5 23  1  0  0  0  0
  6 11  1  0  0  0  0
  6  7  2  0  0  0  0
  7  8  1  0  0  0  0
  8  9  2  0  0  0  0
  8 38  1  0  0  0  0
  9 10  1  0  0  0  0
 10 14  1  0  0  0  0
 10 11  2  0  0  0  0
 11 12  1  0  0  0  0
 12 13  2  0  0  0  0
 13 14  1  0  0  0  0
 13 39  1  0  0  0  0
 14 15  1  0  0  0  0
 15 16  1  0  0  0  0
 15 40  1  0  0  0  0
 15 41  1  0  0  0  0
 16 17  1  0  0  0  0
 16 18  1  0  0  0  0
 16 42  1  0  0  0  0
 17 43  1  0  0  0  0
 18 22  1  0  0  0  0
 18 19  1  0  0  0  0
 18 44  1  0  0  0  0
 19 20  1  0  0  0  0
 19 45  1  0  0  0  0
 19 46  1  0  0  0  0
 20 21  1  0  0  0  0
 20 47  1  0  0  0  0
 20 48  1  0  0  0  0
 21 22  1  0  0  0  0
 21 49  1  0  0  0  0
 21 50  1  0  0  0  0
 23 24  1  0  0  0  0
 23 51  1  0  0  0  0
 23 52  1  0  0  0  0
 24 28  1  0  0  0  0
 24 25  1  0  0  0  0
 24 29  1  0  0  0  0
 25 26  1  0  0  0  0
 25 53  1  0  0  0  0
 25 54  1  0  0  0  0
 26 27  1  0  0  0  0
 26 55  1  0  0  0  0
 26 56  1  0  0  0  0
 27 28  1  0  0  0  0
 28 57  1  0  0  0  0
 28 58  1  0  0  0  0
M  END
> <s_m_source_file>
AV-unprocessed.smi

> <i_m_source_file_index>
229

> <i_lp_mmshare_version>
43012

> <i_f3d_flags>
0

> <s_epik_input>
W0NIMl0xT1tDSDJdW0NIMl1bQ0BdMTJbQ0gyXU4oW0NIMl1bQ0BIXShPMilbQ0gyXVtDSDNdKWMobltjSF1uMyljKGMzNCluW2NIXW40W0NIMl1bQ0BIXShbT0hdKVtDQEBIXTVbQ0gyXVtDSDJdW0NIMl1PNQ==

> <s_epik_cmdline>
J2VwaWtfcHl0aG9uJywgJy1waCcsICc3LjAnLCAnLXRuJywgJzgnLCAnLW1hJywgJzIwMCcsICctbWV0YWxfYmluZGluZycsICctaW1hZScsICc8aW5maWxlLm1hZT4nLCAnLW9tYWUnLCAnPG91dGZpbGUubWFlPic=

> <r_lp_tautomer_probability>
1

> <r_epik_Ionization_Penalty>
0.00318402

> <r_epik_Ionization_Penalty_Charging>
0

> <r_epik_Ionization_Penalty_Neutral>
0.00318402

> <r_epik_State_Penalty>
0.00215642

> <r_epik_Charging_Adjusted_Penalty>
0.00215642

> <i_epik_Tot_Q>
0

> <i_epik_Tot_abs_Q>
0

> <r_epik_Metal_State_Penalty>
-0

> <b_epik_Metal_Only>
0

> <s_lp_Force_Field>
OPLS_2005

> <r_lp_Energy>
54.6587

> <b_lp_Chiralities_Consistent>
1

> <s_lp_Variant>
AV-unprocessed.smi:229-3

> <Gold.Version>
5.8.1

> <Gold.Id.Protein>
6NUR|6NUR_protein|mol2

> <Gold.PLP.Fitness>
48.8858

> <Gold.PLP.PLP>
-46.5796

> <Gold.PLP.part.hbond>
-1.2588

> <Gold.PLP.part.metal>
0.0000

> <Gold.PLP.part.buried>
-4.4392

> <Gold.PLP.part.nonpolar>
-40.4041

> <Gold.PLP.part.repulsive>
0.0531

> <Gold.PLP.ligand.clash>
0.0000

> <Gold.PLP.ligand.torsion>
0.5312

> <Gold.PLP.Chemscore.Hbond>
1.0000

> <Gold.PLP.Chemscore.CHOScore>
0.0000

> <Gold.PLP.Chemscore.Metal>
0.0000

> <Gold.Chemscore.Hbonds>
donor molecule, donor type, donor heavy atom, donor atom, acceptor molecule, acceptor atom, score
      P1  H  6896  6907       L1     7  1.00

> <Gold.PLP.Chemscore.Internal.Correction>
0.3686

> <Gold.Rescore>
     Score         DG    S(hbond)    S(metal)    S(lipo)     H(rot)  DE(clash)    DE(int)     intcor
     13.77     -15.87       0.86        0.00     118.11       2.46       0.18       1.91       ----

> <Gold.Chemscore.Fitness>
13.7662

> <Gold.Chemscore.DG>
-15.8655

> <Gold.Chemscore.ZeroCoef>
-5.4800

> <Gold.Chemscore.Hbond>
0.8568

> <Gold.Chemscore.Metal>
0.0000

> <Gold.Chemscore.Lipo>
118.1109

> <Gold.Chemscore.Internal_Hbond>
0.0000

> <Gold.Chemscore.DEClash>
0.1844

> <Gold.Chemscore.DEInternal>
1.9149

> <Gold.Chemscore.Rot>
2.4591

> <Gold.Chemscore.Internal.Correction>
   9.000000E+99

> <Gold.Chemscore.Hbonds>
donor molecule, donor type, donor heavy atom, donor atom, acceptor molecule, acceptor atom, score
      P1  H  6896  6907       L1     7  0.48

> <Gold.Chemscore.Hbond.Weighted>
-2.8618

> <Gold.Chemscore.Metal.Weighted>
-0.0000

> <Gold.Chemscore.Lipo.Weighted>
-13.8190

> <Gold.Chemscore.Internal_Hbond.Weighted>
0.0000

> <Gold.Chemscore.DEClash.Weighted>
0.1844

> <Gold.Chemscore.DEInternal.Weighted>
1.9149

> <Gold.Chemscore.Rot.Weighted>
6.2953

> <Gold.Chemscore.Internal.Correction.Weighted>
   9.000000E+99

> <Gold.Protein.RotatedTorsions>
[ 6907 6896 6895 6894 ] final   26.68 input  -60.11 | X-H torsion
[ 7974 7965 7964 7962 ] final -166.15 input  175.53 | X-H torsion
[ 8008 7997 7996 7995 ] final   47.88 input   59.86 | X-H torsion
[ 10167 10162 10161 10158 ] final  -33.65 input  -65.29 | X-H torsion
[ 10718 10713 10712 10709 ] final  -84.15 input   66.30 | X-H torsion
[ 10763 10752 10751 10750 ] final  -56.28 input  -60.55 | X-H torsion
[ 11005 11000 10999 10996 ] final -157.58 input  -57.11 | X-H torsion

> <Gold.Protein.ActiveResidues>
 VAL166  LYS551  ARG553  GLY616  TRP617  ASP618  TYR619  PRO620  LYS621  CYS622 
 ASP623  PHE694  ASN695  SER759  ASP760  ASP761  ALA762  ILE779  LEU786  VAL792 
 PHE793  MET794  SER795  GLU796  ALA797  LYS798  CYS799  TRP800  GLU811  SER814 

> <Gold.Protein.RotatedAtoms>
  151.9910  134.9979  160.0561 H   0  0  0  0  0  0  0  0  0  0  0  0  # atno 6907 bound_to 6896
  152.1608  133.4576  159.4868 H   0  0  0  0  0  0  0  0  0  0  0  0  # atno 6908 bound_to 6896
  150.6887  134.1991  159.4358 H   0  0  0  0  0  0  0  0  0  0  0  0  # atno 6909 bound_to 6896
  144.7252  140.2708  143.6251 H   0  0  0  0  0  0  0  0  0  0  0  0  # atno 7974 bound_to 7965
  155.3764  140.3426  155.4245 H   0  0  0  0  0  0  0  0  0  0  0  0  # atno 8008 bound_to 7997
  156.1634  140.1608  156.8606 H   0  0  0  0  0  0  0  0  0  0  0  0  # atno 8009 bound_to 7997
  154.5162  140.0778  156.8067 H   0  0  0  0  0  0  0  0  0  0  0  0  # atno 8010 bound_to 7997
  140.7200  143.3605  151.1973 H   0  0  0  0  0  0  0  0  0  0  0  0  # atno 10167 bound_to 10162
  156.0009  130.4688  150.4366 H   0  0  0  0  0  0  0  0  0  0  0  0  # atno 10718 bound_to 10713
  154.2041  135.6406  153.5095 H   0  0  0  0  0  0  0  0  0  0  0  0  # atno 10763 bound_to 10752
  153.0005  135.5458  154.6284 H   0  0  0  0  0  0  0  0  0  0  0  0  # atno 10764 bound_to 10752
  154.5705  135.2916  155.0805 H   0  0  0  0  0  0  0  0  0  0  0  0  # atno 10765 bound_to 10752
  140.6630  134.4329  157.5234 H   0  0  0  0  0  0  0  0  0  0  0  0  # atno 11005 bound_to 11000
  145.8044  139.1977  143.2029 LP  0  0  0  0  0  0  0  0  0  0  0  0  # atno 17320 bound_to 7965
  146.0649  140.7931  142.9716 LP  0  0  0  0  0  0  0  0  0  0  0  0  # atno 17321 bound_to 7965
  139.7155  143.9307  152.2965 LP  0  0  0  0  0  0  0  0  0  0  0  0  # atno 17342 bound_to 10162
  139.9046  144.6892  150.8628 LP  0  0  0  0  0  0  0  0  0  0  0  0  # atno 17343 bound_to 10162
  157.2411  131.0525  151.2436 LP  0  0  0  0  0  0  0  0  0  0  0  0  # atno 17370 bound_to 10713
  157.3619  130.7136  149.6507 LP  0  0  0  0  0  0  0  0  0  0  0  0  # atno 17371 bound_to 10713
  139.9006  134.8564  156.1910 LP  0  0  0  0  0  0  0  0  0  0  0  0  # atno 17394 bound_to 11000
  141.0451  133.6918  156.1668 LP  0  0  0  0  0  0  0  0  0  0  0  0  # atno 17395 bound_to 11000

$$$$
