AV-unprocessed.smi:3303|AV-procd|sdf|12680|dock5
  -GOLD-   2272019 13D 1   1.00000     0.00000
 Structure written by MMmdl.
 44 45  0  0  0  0  0  0  0  0  2 V2000
  153.9831  139.8515  159.5770 C   0  0  0  0  0  0  0  0  0  0  0  0
  152.8079  140.8322  159.7319 C   0  0  1  0  0  0  0  0  0  0  0  0
  153.1918  141.9705  160.6976 C   0  0  0  0  0  0  0  0  0  0  0  0
  152.0786  142.9000  160.9065 N   0  0  0  0  0  0  0  0  0  0  0  0
  152.5057  143.8666  161.9149 C   0  0  0  0  0  0  0  0  0  0  0  0
  151.7133  143.5513  159.6369 C   0  0  2  0  0  0  0  0  0  0  0  0
  150.5819  144.5842  159.8168 C   0  0  0  0  0  0  0  0  0  0  0  0
  151.2672  142.4719  158.6282 C   0  0  0  0  0  0  0  0  0  0  0  0
  152.3589  141.4218  158.3809 C   0  0  2  0  0  0  0  0  0  0  0  0
  151.8363  140.3632  157.4881 N   0  3  0  0  0  0  0  0  0  0  0  0
  151.2275  140.8535  156.2355 C   0  0  0  0  0  0  0  0  0  0  0  0
  150.5458  139.7107  155.4709 C   0  0  0  0  0  0  0  0  0  0  0  0
  149.3037  140.1731  154.7336 C   0  0  0  0  0  0  0  0  0  0  0  0
  148.4801  139.2479  154.0574 C   0  0  0  0  0  0  0  0  0  0  0  0
  147.3420  139.7312  153.3829 C   0  0  0  0  0  0  0  0  0  0  0  0
  147.0733  141.1132  153.4103 C   0  0  0  0  0  0  0  0  0  0  0  0
  147.9587  141.9546  154.1132 C   0  0  0  0  0  0  0  0  0  0  0  0
  149.0542  141.5016  154.7611 N   0  0  0  0  0  0  0  0  0  0  0  0
  154.8461  140.3357  159.1188 H   0  0  0  0  0  0  0  0  0  0  0  0
  153.7136  138.9956  158.9581 H   0  0  0  0  0  0  0  0  0  0  0  0
  154.2977  139.4625  160.5458 H   0  0  0  0  0  0  0  0  0  0  0  0
  151.9714  140.2860  160.1717 H   0  0  0  0  0  0  0  0  0  0  0  0
  153.4805  141.5367  161.6562 H   0  0  0  0  0  0  0  0  0  0  0  0
  154.0623  142.5105  160.3206 H   0  0  0  0  0  0  0  0  0  0  0  0
  151.6842  144.5141  162.2195 H   0  0  0  0  0  0  0  0  0  0  0  0
  153.3212  144.4913  161.5476 H   0  0  0  0  0  0  0  0  0  0  0  0
  152.8482  143.3566  162.8161 H   0  0  0  0  0  0  0  0  0  0  0  0
  152.5895  144.0662  159.2384 H   0  0  0  0  0  0  0  0  0  0  0  0
  150.2405  144.9571  158.8507 H   0  0  0  0  0  0  0  0  0  0  0  0
  150.9058  145.4558  160.3853 H   0  0  0  0  0  0  0  0  0  0  0  0
  149.7200  144.1489  160.3237 H   0  0  0  0  0  0  0  0  0  0  0  0
  150.3616  141.9847  158.9943 H   0  0  0  0  0  0  0  0  0  0  0  0
  150.9996  142.9426  157.6811 H   0  0  0  0  0  0  0  0  0  0  0  0
  153.2106  141.9179  157.9114 H   0  0  0  0  0  0  0  0  0  0  0  0
  152.6004  139.7463  157.2522 H   0  0  0  0  0  0  0  0  0  0  0  0
  150.5034  141.6339  156.4732 H   0  0  0  0  0  0  0  0  0  0  0  0
  152.0003  141.3060  155.6124 H   0  0  0  0  0  0  0  0  0  0  0  0
  151.2432  139.2728  154.7552 H   0  0  0  0  0  0  0  0  0  0  0  0
  150.2701  138.9108  156.1598 H   0  0  0  0  0  0  0  0  0  0  0  0
  148.7121  138.1929  154.0534 H   0  0  0  0  0  0  0  0  0  0  0  0
  146.6876  139.0543  152.8538 H   0  0  0  0  0  0  0  0  0  0  0  0
  146.2093  141.5189  152.9049 H   0  0  0  0  0  0  0  0  0  0  0  0
  147.7831  143.0194  154.1550 H   0  0  0  0  0  0  0  0  0  0  0  0
  151.1423  139.8324  157.9951 H   0  0  0  0  0  0  0  0  0  0  0  0
  1  2  1  0  0  0  0
  1 19  1  0  0  0  0
  1 20  1  0  0  0  0
  1 21  1  0  0  0  0
  2  9  1  0  0  0  0
  2  3  1  0  0  0  0
  2 22  1  0  0  0  0
  3  4  1  0  0  0  0
  3 23  1  0  0  0  0
  3 24  1  0  0  0  0
  4  5  1  0  0  0  0
  4  6  1  0  0  0  0
  5 25  1  0  0  0  0
  5 26  1  0  0  0  0
  5 27  1  0  0  0  0
  6  7  1  0  0  0  0
  6  8  1  0  0  0  0
  6 28  1  0  0  0  0
  7 29  1  0  0  0  0
  7 30  1  0  0  0  0
  7 31  1  0  0  0  0
  8  9  1  0  0  0  0
  8 32  1  0  0  0  0
  8 33  1  0  0  0  0
  9 10  1  0  0  0  0
  9 34  1  0  0  0  0
 10 11  1  0  0  0  0
 10 35  1  0  0  0  0
 10 44  1  0  0  0  0
 11 12  1  0  0  0  0
 11 36  1  0  0  0  0
 11 37  1  0  0  0  0
 12 13  1  0  0  0  0
 12 38  1  0  0  0  0
 12 39  1  0  0  0  0
 13 18  1  0  0  0  0
 13 14  2  0  0  0  0
 14 15  1  0  0  0  0
 14 40  1  0  0  0  0
 15 16  2  0  0  0  0
 15 41  1  0  0  0  0
 16 17  1  0  0  0  0
 16 42  1  0  0  0  0
 17 18  2  0  0  0  0
 17 43  1  0  0  0  0
M  CHG  1  10   1
M  END
> <s_m_source_file>
AV-unprocessed.smi

> <i_m_source_file_index>
3303

> <i_lp_mmshare_version>
43012

> <i_f3d_flags>
0

> <s_epik_input>
W0NIM11bQ0BASF0xW0NIMl1OKFtDSDNdKVtDQEBIXShbQ0gzXSlbQ0gyXVtDQEhdMVtOSF1bQ0gyXVtDSDJdYzJbY0hdW2NIXVtjSF1bY0hdbjI=

> <s_epik_cmdline>
J2VwaWtfcHl0aG9uJywgJy1waCcsICc3LjAnLCAnLXRuJywgJzgnLCAnLW1hJywgJzIwMCcsICctbWV0YWxfYmluZGluZycsICctaW1hZScsICc8aW5maWxlLm1hZT4nLCAnLW9tYWUnLCAnPG91dGZpbGUubWFlPic=

> <r_epik_Ionization_Penalty>
1.37325

> <r_epik_Ionization_Penalty_Charging>
0.000251572

> <r_epik_Ionization_Penalty_Neutral>
1.373

> <r_epik_State_Penalty>
1.46343

> <r_epik_Charging_Adjusted_Penalty>
1.46368

> <i_epik_Tot_Q>
1

> <i_epik_Tot_abs_Q>
1

> <r_epik_Metal_State_Penalty>
1.46331

> <b_epik_Metal_Only>
0

> <s_lp_Force_Field>
OPLS_2005

> <r_lp_Energy>
21.6133

> <b_lp_Chiralities_Consistent>
1

> <s_lp_Variant>
AV-unprocessed.smi:3303-24

> <Gold.Version>
5.8.1

> <Gold.Id.Protein>
6NUR|6NUR_protein|mol2

> <Gold.PLP.Fitness>
42.3797

> <Gold.PLP.PLP>
-39.9864

> <Gold.PLP.part.hbond>
-0.0517

> <Gold.PLP.part.metal>
0.0000

> <Gold.PLP.part.buried>
-5.0022

> <Gold.PLP.part.nonpolar>
-33.7656

> <Gold.PLP.part.repulsive>
0.2985

> <Gold.PLP.ligand.clash>
0.0000

> <Gold.PLP.ligand.torsion>
0.2987

> <Gold.PLP.Chemscore.Hbond>
0.0000

> <Gold.PLP.Chemscore.CHOScore>
0.9950

> <Gold.PLP.Chemscore.Metal>
0.0000

> <Gold.Chemscore.Hbonds>
donor molecule, donor type, donor heavy atom, donor atom, acceptor molecule, acceptor atom, score
      L1  C    17    43       P1  8028  0.99

> <Gold.PLP.Chemscore.Internal.Correction>
0.0055

> <Gold.Rescore>
     Score         DG    S(hbond)    S(metal)    S(lipo)     H(rot)  DE(clash)    DE(int)     intcor
     16.67     -17.12       0.00        0.00     128.59       1.33       0.14       0.31       ----

> <Gold.Chemscore.Fitness>
16.6713

> <Gold.Chemscore.DG>
-17.1203

> <Gold.Chemscore.ZeroCoef>
-5.4800

> <Gold.Chemscore.Hbond>
0.0000

> <Gold.Chemscore.Metal>
0.0000

> <Gold.Chemscore.Lipo>
128.5862

> <Gold.Chemscore.Internal_Hbond>
0.0000

> <Gold.Chemscore.DEClash>
0.1415

> <Gold.Chemscore.DEInternal>
0.3075

> <Gold.Chemscore.Rot>
1.3298

> <Gold.Chemscore.Internal.Correction>
   9.000000E+99

> <Gold.Chemscore.Hbond.Weighted>
-0.0000

> <Gold.Chemscore.Metal.Weighted>
-0.0000

> <Gold.Chemscore.Lipo.Weighted>
-15.0446

> <Gold.Chemscore.Internal_Hbond.Weighted>
0.0000

> <Gold.Chemscore.DEClash.Weighted>
0.1415

> <Gold.Chemscore.DEInternal.Weighted>
0.3075

> <Gold.Chemscore.Rot.Weighted>
3.4043

> <Gold.Chemscore.Internal.Correction.Weighted>
   9.000000E+99

> <Gold.Protein.RotatedTorsions>
[ 6907 6896 6895 6894 ] final  150.26 input  -60.11 | X-H torsion
[ 7974 7965 7964 7962 ] final    2.91 input  175.53 | X-H torsion
[ 8008 7997 7996 7995 ] final  101.20 input   59.86 | X-H torsion
[ 10167 10162 10161 10158 ] final   88.46 input  -65.29 | X-H torsion
[ 10718 10713 10712 10709 ] final  -79.04 input   66.30 | X-H torsion
[ 10763 10752 10751 10750 ] final  139.13 input  -60.55 | X-H torsion
[ 11005 11000 10999 10996 ] final   10.42 input  -57.11 | X-H torsion

> <Gold.Protein.ActiveResidues>
 VAL166  LYS551  ARG553  GLY616  TRP617  ASP618  TYR619  PRO620  LYS621  CYS622 
 ASP623  PHE694  ASN695  SER759  ASP760  ASP761  ALA762  ILE779  LEU786  VAL792 
 PHE793  MET794  SER795  GLU796  ALA797  LYS798  CYS799  TRP800  GLU811  SER814 

> <Gold.Protein.RotatedAtoms>
  152.1169  133.4331  159.4656 H   0  0  0  0  0  0  0  0  0  0  0  0  # atno 6907 bound_to 6896
  150.6870  134.2582  159.4547 H   0  0  0  0  0  0  0  0  0  0  0  0  # atno 6908 bound_to 6896
  152.0455  134.9685  160.0625 H   0  0  0  0  0  0  0  0  0  0  0  0  # atno 6909 bound_to 6896
  146.2444  140.0765  142.8359 H   0  0  0  0  0  0  0  0  0  0  0  0  # atno 7974 bound_to 7965
  156.1277  140.3201  155.8302 H   0  0  0  0  0  0  0  0  0  0  0  0  # atno 8008 bound_to 7997
  155.4389  140.0524  157.3029 H   0  0  0  0  0  0  0  0  0  0  0  0  # atno 8009 bound_to 7997
  154.4875  140.2078  155.9636 H   0  0  0  0  0  0  0  0  0  0  0  0  # atno 8010 bound_to 7997
  139.8670  144.6513  150.8992 H   0  0  0  0  0  0  0  0  0  0  0  0  # atno 10167 bound_to 10162
  156.0102  130.4534  150.3588 H   0  0  0  0  0  0  0  0  0  0  0  0  # atno 10718 bound_to 10713
  153.9010  135.3022  155.3448 H   0  0  0  0  0  0  0  0  0  0  0  0  # atno 10763 bound_to 10752
  154.7670  135.4905  153.9577 H   0  0  0  0  0  0  0  0  0  0  0  0  # atno 10764 bound_to 10752
  153.1245  135.6790  153.9381 H   0  0  0  0  0  0  0  0  0  0  0  0  # atno 10765 bound_to 10752
  140.5147  134.0617  155.7828 H   0  0  0  0  0  0  0  0  0  0  0  0  # atno 11005 bound_to 11000
  145.0770  140.9195  143.4848 LP  0  0  0  0  0  0  0  0  0  0  0  0  # atno 17320 bound_to 7965
  145.0911  139.2890  143.5734 LP  0  0  0  0  0  0  0  0  0  0  0  0  # atno 17321 bound_to 7965
  140.7766  143.3695  151.1675 LP  0  0  0  0  0  0  0  0  0  0  0  0  # atno 17342 bound_to 10162
  139.7319  143.9059  152.3022 LP  0  0  0  0  0  0  0  0  0  0  0  0  # atno 17343 bound_to 10162
  157.1677  131.0361  151.2810 LP  0  0  0  0  0  0  0  0  0  0  0  0  # atno 17370 bound_to 10713
  157.4256  130.7462  149.6948 LP  0  0  0  0  0  0  0  0  0  0  0  0  # atno 17371 bound_to 10713
  141.1367  133.9210  157.2419 LP  0  0  0  0  0  0  0  0  0  0  0  0  # atno 17394 bound_to 11000
  139.9639  135.0147  156.9335 LP  0  0  0  0  0  0  0  0  0  0  0  0  # atno 17395 bound_to 11000

$$$$
