AV-unprocessed.smi:2520|AV-procd|sdf|9914|dock3
  -GOLD-   2272013553D 1   1.00000     0.00000
 Structure written by MMmdl.
 41 44  0  0  0  0  0  0  0  0  1 V2000
  145.3408  137.2394  153.8492 O   0  0  0  0  0  0  0  0  0  0  0  0
  146.3885  136.9565  153.2715 C   0  0  0  0  0  0  0  0  0  0  0  0
  147.4138  137.8336  153.2207 N   0  0  0  0  0  0  0  0  0  0  0  0
  147.5537  139.1526  153.7440 C   0  0  0  0  0  0  0  0  0  0  0  0
  148.8822  139.5404  154.0212 C   0  0  0  0  0  0  0  0  0  0  0  0
  149.1110  140.8269  154.5384 C   0  0  0  0  0  0  0  0  0  0  0  0
  147.9886  141.6467  154.7438 C   0  0  0  0  0  0  0  0  0  0  0  0
  146.7329  141.2381  154.4625 N   0  0  0  0  0  0  0  0  0  0  0  0
  146.5249  140.0125  153.9700 N   0  0  0  0  0  0  0  0  0  0  0  0
  146.5864  135.7762  152.6651 N   0  0  0  0  0  0  0  0  0  0  0  0
  145.6432  134.6651  152.6552 C   0  0  1  0  0  0  0  0  0  0  0  0
  145.5186  134.0272  151.2716 C   0  0  2  0  0  0  0  0  0  0  0  0
  144.4374  133.9534  150.2535 C   0  0  0  0  0  0  0  0  0  0  0  0
  144.5289  132.4340  149.9527 C   0  0  0  0  0  0  0  0  0  0  0  0
  145.3972  131.8789  150.9701 O   0  0  0  0  0  0  0  0  0  0  0  0
  145.2513  132.7636  152.0629 C   0  0  1  0  0  0  0  0  0  0  0  0
  146.2755  133.2873  153.0907 C   0  0  0  0  0  0  0  0  0  0  0  0
  146.0669  132.8643  154.5517 C   0  0  0  0  0  0  0  0  0  0  0  0
  147.3977  132.3511  155.1070 C   0  0  0  0  0  0  0  0  0  0  0  0
  148.4576  132.9524  154.1953 C   0  0  0  0  0  0  0  0  0  0  0  0
  147.7715  133.0107  152.8345 C   0  0  0  0  0  0  0  0  0  0  0  0
  148.2118  137.5090  152.6946 H   0  0  0  0  0  0  0  0  0  0  0  0
  149.7097  138.8690  153.8436 H   0  0  0  0  0  0  0  0  0  0  0  0
  150.1079  141.1719  154.7687 H   0  0  0  0  0  0  0  0  0  0  0  0
  148.0978  142.6457  155.1394 H   0  0  0  0  0  0  0  0  0  0  0  0
  147.4737  135.6245  152.2064 H   0  0  0  0  0  0  0  0  0  0  0  0
  144.6790  134.8899  153.1205 H   0  0  0  0  0  0  0  0  0  0  0  0
  146.4917  134.0092  150.7709 H   0  0  0  0  0  0  0  0  0  0  0  0
  143.4672  134.2305  150.6681 H   0  0  0  0  0  0  0  0  0  0  0  0
  144.6394  134.5677  149.3758 H   0  0  0  0  0  0  0  0  0  0  0  0
  143.5436  131.9687  149.9975 H   0  0  0  0  0  0  0  0  0  0  0  0
  144.9520  132.2383  148.9670 H   0  0  0  0  0  0  0  0  0  0  0  0
  144.2385  132.7037  152.4780 H   0  0  0  0  0  0  0  0  0  0  0  0
  145.7321  133.7146  155.1458 H   0  0  0  0  0  0  0  0  0  0  0  0
  145.2948  132.1003  154.6490 H   0  0  0  0  0  0  0  0  0  0  0  0
  147.5463  132.6149  156.1546 H   0  0  0  0  0  0  0  0  0  0  0  0
  147.4288  131.2635  155.0304 H   0  0  0  0  0  0  0  0  0  0  0  0
  148.6992  133.9626  154.5288 H   0  0  0  0  0  0  0  0  0  0  0  0
  149.3812  132.3735  154.1797 H   0  0  0  0  0  0  0  0  0  0  0  0
  147.8878  132.0482  152.3348 H   0  0  0  0  0  0  0  0  0  0  0  0
  148.2519  133.7514  152.1952 H   0  0  0  0  0  0  0  0  0  0  0  0
  1  2  2  0  0  0  0
  2  3  1  0  0  0  0
  2 10  1  0  0  0  0
  3  4  1  0  0  0  0
  3 22  1  0  0  0  0
  4  9  1  0  0  0  0
  4  5  2  0  0  0  0
  5  6  1  0  0  0  0
  5 23  1  0  0  0  0
  6  7  2  0  0  0  0
  6 24  1  0  0  0  0
  7  8  1  0  0  0  0
  7 25  1  0  0  0  0
  8  9  2  0  0  0  0
 10 11  1  0  0  0  0
 10 26  1  0  0  0  0
 11 17  1  0  0  0  0
 11 12  1  0  0  0  0
 11 27  1  0  0  0  0
 12 16  1  0  0  0  0
 12 13  1  0  0  0  0
 12 28  1  0  0  0  0
 13 14  1  0  0  0  0
 13 29  1  0  0  0  0
 13 30  1  0  0  0  0
 14 15  1  0  0  0  0
 14 31  1  0  0  0  0
 14 32  1  0  0  0  0
 15 16  1  0  0  0  0
 16 17  1  0  0  0  0
 16 33  1  0  0  0  0
 17 21  1  0  0  0  0
 17 18  1  0  0  0  0
 18 19  1  0  0  0  0
 18 34  1  0  0  0  0
 18 35  1  0  0  0  0
 19 20  1  0  0  0  0
 19 36  1  0  0  0  0
 19 37  1  0  0  0  0
 20 21  1  0  0  0  0
 20 38  1  0  0  0  0
 20 39  1  0  0  0  0
 21 40  1  0  0  0  0
 21 41  1  0  0  0  0
M  END
> <s_m_source_file>
AV-unprocessed.smi

> <i_m_source_file_index>
2520

> <i_lp_mmshare_version>
43012

> <i_f3d_flags>
0

> <s_epik_input>
bjFuW2NIXVtjSF1bY0hdYzFbTkhdQyg9TylbTkhdW0NAQEhdMltDQEBIXShbQ0gyXVtDSDJdTzMpW0NASF0zQzI0W0NIMl1bQ0gyXVtDSDJdW0NIMl00

> <s_epik_cmdline>
J2VwaWtfcHl0aG9uJywgJy1waCcsICc3LjAnLCAnLXRuJywgJzgnLCAnLW1hJywgJzIwMCcsICctbWV0YWxfYmluZGluZycsICctaW1hZScsICc8aW5maWxlLm1hZT4nLCAnLW9tYWUnLCAnPG91dGZpbGUubWFlPic=

> <r_lp_tautomer_probability>
1

> <r_epik_Ionization_Penalty>
0.00552561

> <r_epik_Ionization_Penalty_Charging>
0

> <r_epik_Ionization_Penalty_Neutral>
0.00552561

> <r_epik_State_Penalty>
-0

> <r_epik_Charging_Adjusted_Penalty>
0

> <i_epik_Tot_Q>
0

> <i_epik_Tot_abs_Q>
0

> <r_epik_Metal_State_Penalty>
-0

> <b_epik_Metal_Only>
0

> <s_lp_Force_Field>
OPLS_2005

> <r_lp_Energy>
83.483

> <b_lp_Chiralities_Consistent>
1

> <s_lp_Variant>
AV-unprocessed.smi:2520-8

> <Gold.Version>
5.8.1

> <Gold.Id.Protein>
6NUR|6NUR_protein|mol2

> <Gold.PLP.Fitness>
37.3856

> <Gold.PLP.PLP>
-28.9869

> <Gold.PLP.part.hbond>
-1.8793

> <Gold.PLP.part.metal>
0.0000

> <Gold.PLP.part.buried>
-2.0222

> <Gold.PLP.part.nonpolar>
-26.0171

> <Gold.PLP.part.repulsive>
0.5733

> <Gold.PLP.ligand.clash>
0.0000

> <Gold.PLP.ligand.torsion>
0.2978

> <Gold.PLP.Chemscore.Hbond>
1.9040

> <Gold.PLP.Chemscore.CHOScore>
1.0000

> <Gold.PLP.Chemscore.Metal>
0.0000

> <Gold.Chemscore.Hbonds>
donor molecule, donor type, donor heavy atom, donor atom, acceptor molecule, acceptor atom, score
      L1  H     3    22       P1  7948  0.98
      L1  H    10    26       P1  7948  0.96
      L1  C     7    25       P1  8028  1.00

> <Gold.PLP.Chemscore.Internal.Correction>
0.2823

> <Gold.Rescore>
     Score         DG    S(hbond)    S(metal)    S(lipo)     H(rot)  DE(clash)    DE(int)     intcor
     16.04     -17.26       1.89        0.00      68.54       1.00       0.01       1.20       ----

> <Gold.Chemscore.Fitness>
16.0428

> <Gold.Chemscore.DG>
-17.2602

> <Gold.Chemscore.ZeroCoef>
-5.4800

> <Gold.Chemscore.Hbond>
1.8925

> <Gold.Chemscore.Metal>
0.0000

> <Gold.Chemscore.Lipo>
68.5412

> <Gold.Chemscore.Internal_Hbond>
0.0000

> <Gold.Chemscore.DEClash>
0.0149

> <Gold.Chemscore.DEInternal>
1.2026

> <Gold.Chemscore.Rot>
1.0000

> <Gold.Chemscore.Internal.Correction>
   9.000000E+99

> <Gold.Chemscore.Hbonds>
donor molecule, donor type, donor heavy atom, donor atom, acceptor molecule, acceptor atom, score
      L1  H     3    22       P1  7948  0.93
      L1  H    10    26       P1  7948  0.91

> <Gold.Chemscore.Hbond.Weighted>
-6.3209

> <Gold.Chemscore.Metal.Weighted>
-0.0000

> <Gold.Chemscore.Lipo.Weighted>
-8.0193

> <Gold.Chemscore.Internal_Hbond.Weighted>
0.0000

> <Gold.Chemscore.DEClash.Weighted>
0.0149

> <Gold.Chemscore.DEInternal.Weighted>
1.2026

> <Gold.Chemscore.Rot.Weighted>
2.5600

> <Gold.Chemscore.Internal.Correction.Weighted>
   9.000000E+99

> <Gold.Protein.RotatedTorsions>
[ 6907 6896 6895 6894 ] final   85.31 input  -60.11 | X-H torsion
[ 7974 7965 7964 7962 ] final  -58.04 input  175.53 | X-H torsion
[ 8008 7997 7996 7995 ] final  -74.31 input   59.86 | X-H torsion
[ 10167 10162 10161 10158 ] final  143.54 input  -65.29 | X-H torsion
[ 10718 10713 10712 10709 ] final  111.70 input   66.30 | X-H torsion
[ 10763 10752 10751 10750 ] final   24.35 input  -60.55 | X-H torsion
[ 11005 11000 10999 10996 ] final  -16.56 input  -57.11 | X-H torsion

> <Gold.Protein.ActiveResidues>
 VAL166  LYS551  ARG553  GLY616  TRP617  ASP618  TYR619  PRO620  LYS621  CYS622 
 ASP623  PHE694  ASN695  SER759  ASP760  ASP761  ALA762  ILE779  LEU786  VAL792 
 PHE793  MET794  SER795  GLU796  ALA797  LYS798  CYS799  TRP800  GLU811  SER814 

> <Gold.Protein.RotatedAtoms>
  152.5372  134.2606  159.8933 H   0  0  0  0  0  0  0  0  0  0  0  0  # atno 6907 bound_to 6896
  151.2566  133.4316  159.2621 H   0  0  0  0  0  0  0  0  0  0  0  0  # atno 6908 bound_to 6896
  151.0490  134.9674  159.8258 H   0  0  0  0  0  0  0  0  0  0  0  0  # atno 6909 bound_to 6896
  145.8440  140.8398  143.0020 H   0  0  0  0  0  0  0  0  0  0  0  0  # atno 7974 bound_to 7965
  154.5320  140.0763  156.8362 H   0  0  0  0  0  0  0  0  0  0  0  0  # atno 8008 bound_to 7997
  155.3355  140.3404  155.4221 H   0  0  0  0  0  0  0  0  0  0  0  0  # atno 8009 bound_to 7997
  156.1791  140.1646  156.8295 H   0  0  0  0  0  0  0  0  0  0  0  0  # atno 8010 bound_to 7997
  139.4967  144.6033  151.6433 H   0  0  0  0  0  0  0  0  0  0  0  0  # atno 10167 bound_to 10162
  157.6431  131.0955  150.6787 H   0  0  0  0  0  0  0  0  0  0  0  0  # atno 10718 bound_to 10713
  153.0770  135.6607  154.0124 H   0  0  0  0  0  0  0  0  0  0  0  0  # atno 10763 bound_to 10752
  153.9755  135.2960  155.3425 H   0  0  0  0  0  0  0  0  0  0  0  0  # atno 10764 bound_to 10752
  154.7161  135.5184  153.8811 H   0  0  0  0  0  0  0  0  0  0  0  0  # atno 10765 bound_to 10752
  140.8080  133.8162  155.9535 H   0  0  0  0  0  0  0  0  0  0  0  0  # atno 11005 bound_to 11000
  144.6732  140.0854  143.7467 LP  0  0  0  0  0  0  0  0  0  0  0  0  # atno 17320 bound_to 7965
  145.9433  139.2684  143.1255 LP  0  0  0  0  0  0  0  0  0  0  0  0  # atno 17321 bound_to 7965
  140.5688  144.0144  150.6206 LP  0  0  0  0  0  0  0  0  0  0  0  0  # atno 17342 bound_to 10162
  140.3254  143.3111  152.0741 LP  0  0  0  0  0  0  0  0  0  0  0  0  # atno 17343 bound_to 10162
  156.7108  130.4651  149.5548 LP  0  0  0  0  0  0  0  0  0  0  0  0  # atno 17370 bound_to 10713
  156.1731  130.6450  151.0862 LP  0  0  0  0  0  0  0  0  0  0  0  0  # atno 17371 bound_to 10713
  140.9227  134.2122  157.4916 LP  0  0  0  0  0  0  0  0  0  0  0  0  # atno 17394 bound_to 11000
  139.8716  134.9799  156.5055 LP  0  0  0  0  0  0  0  0  0  0  0  0  # atno 17395 bound_to 11000

$$$$
