AV-unprocessed.smi:688|AV-procd|sdf|3355|dock1
  -GOLD-   22720 0333D 1   1.00000     0.00000
 Structure written by MMmdl.
 36 37  0  0  0  0  0  0  0  0  1 V2000
  144.8130  143.6646  155.5751 O   0  0  0  0  0  0  0  0  0  0  0  0
  145.7690  142.9454  155.2917 C   0  0  0  0  0  0  0  0  0  0  0  0
  146.2842  142.0640  156.2471 N   0  0  0  0  0  0  0  0  0  0  0  0
  147.3608  141.1975  156.0559 C   0  0  0  0  0  0  0  0  0  0  0  0
  147.7297  140.4651  156.9739 O   0  0  0  0  0  0  0  0  0  0  0  0
  147.9771  141.2180  154.7838 N   0  0  0  0  0  0  0  0  0  0  0  0
  149.1013  140.3381  154.5656 C   0  0  0  0  0  0  0  0  0  0  0  0
  150.2077  140.4453  155.6394 C   0  0  1  0  0  0  0  0  0  0  0  0
  151.3705  139.8526  155.0991 O   0  0  0  0  0  0  0  0  0  0  0  0
  150.5473  141.8946  156.0309 C   0  0  0  0  0  0  0  0  0  0  0  0
  151.0606  141.9031  157.3526 O   0  0  0  0  0  0  0  0  0  0  0  0
  151.0009  143.1833  157.9590 C   0  0  0  0  0  0  0  0  0  0  0  0
  151.3703  143.1155  159.4271 C   0  0  0  0  0  0  0  0  0  0  0  0
  151.9631  141.9464  159.9477 C   0  0  0  0  0  0  0  0  0  0  0  0
  152.3048  141.8729  161.3120 C   0  0  0  0  0  0  0  0  0  0  0  0
  152.0539  142.9683  162.1612 C   0  0  0  0  0  0  0  0  0  0  0  0
  152.4735  142.8788  163.8324 Cl  0  0  0  0  0  0  0  0  0  0  0  0
  151.4591  144.1363  161.6453 C   0  0  0  0  0  0  0  0  0  0  0  0
  151.1157  144.2093  160.2811 C   0  0  0  0  0  0  0  0  0  0  0  0
  147.4997  142.0774  153.8055 C   0  0  0  0  0  0  0  0  0  0  0  0
  146.4540  142.9168  154.0001 C   0  0  0  0  0  0  0  0  0  0  0  0
  145.9212  143.9618  152.7320 Cl  0  0  0  0  0  0  0  0  0  0  0  0
  145.8386  142.0531  157.1531 H   0  0  0  0  0  0  0  0  0  0  0  0
  148.6970  139.3259  154.4874 H   0  0  0  0  0  0  0  0  0  0  0  0
  149.4941  140.5813  153.5769 H   0  0  0  0  0  0  0  0  0  0  0  0
  149.9173  139.8825  156.5271 H   0  0  0  0  0  0  0  0  0  0  0  0
  151.7126  139.2388  155.7313 H   0  0  0  0  0  0  0  0  0  0  0  0
  151.2512  142.3382  155.3245 H   0  0  0  0  0  0  0  0  0  0  0  0
  149.6478  142.5106  156.0194 H   0  0  0  0  0  0  0  0  0  0  0  0
  151.6703  143.8708  157.4393 H   0  0  0  0  0  0  0  0  0  0  0  0
  149.9918  143.5900  157.8763 H   0  0  0  0  0  0  0  0  0  0  0  0
  152.1578  141.1039  159.3001 H   0  0  0  0  0  0  0  0  0  0  0  0
  152.7592  140.9754  161.7053 H   0  0  0  0  0  0  0  0  0  0  0  0
  151.2649  144.9775  162.2947 H   0  0  0  0  0  0  0  0  0  0  0  0
  150.6586  145.1084  159.8944 H   0  0  0  0  0  0  0  0  0  0  0  0
  147.9851  142.0863  152.8400 H   0  0  0  0  0  0  0  0  0  0  0  0
  1  2  2  0  0  0  0
  2 21  1  0  0  0  0
  2  3  1  0  0  0  0
  3 23  1  0  0  0  0
  3  4  1  0  0  0  0
  4  5  2  0  0  0  0
  4  6  1  0  0  0  0
  6  7  1  0  0  0  0
  6 20  1  0  0  0  0
  7  8  1  0  0  0  0
  7 24  1  0  0  0  0
  7 25  1  0  0  0  0
  8  9  1  0  0  0  0
  8 10  1  0  0  0  0
  8 26  1  0  0  0  0
  9 27  1  0  0  0  0
 10 11  1  0  0  0  0
 10 28  1  0  0  0  0
 10 29  1  0  0  0  0
 11 12  1  0  0  0  0
 12 13  1  0  0  0  0
 12 30  1  0  0  0  0
 12 31  1  0  0  0  0
 13 19  1  0  0  0  0
 13 14  2  0  0  0  0
 14 15  1  0  0  0  0
 14 32  1  0  0  0  0
 15 16  2  0  0  0  0
 15 33  1  0  0  0  0
 16 17  1  0  0  0  0
 16 18  1  0  0  0  0
 18 19  2  0  0  0  0
 18 34  1  0  0  0  0
 19 35  1  0  0  0  0
 20 21  2  0  0  0  0
 20 36  1  0  0  0  0
 21 22  1  0  0  0  0
M  END
> <s_m_source_file>
AV-unprocessed.smi

> <i_m_source_file_index>
688

> <i_lp_mmshare_version>
43012

> <i_f3d_flags>
0

> <s_epik_input>
Tz1jMVtuSF1jKD1PKW4oW2NIXWMxQ2wpW0NIMl1bQ0BIXShbT0hdKVtDSDJdT1tDSDJdYzJbY0hdW2NIXWMoQ2wpW2NIXVtjSF0y

> <s_epik_cmdline>
J2VwaWtfcHl0aG9uJywgJy1waCcsICc3LjAnLCAnLXRuJywgJzgnLCAnLW1hJywgJzIwMCcsICctbWV0YWxfYmluZGluZycsICctaW1hZScsICc8aW5maWxlLm1hZT4nLCAnLW9tYWUnLCAnPG91dGZpbGUubWFlPic=

> <r_lp_tautomer_probability>
0.999537

> <r_epik_Ionization_Penalty>
0.0280571

> <r_epik_Ionization_Penalty_Charging>
0.028057

> <r_epik_Ionization_Penalty_Neutral>
6.25502e-08

> <r_epik_State_Penalty>
0.0230008

> <r_epik_Charging_Adjusted_Penalty>
0.0510579

> <i_epik_Tot_Q>
0

> <i_epik_Tot_abs_Q>
0

> <r_epik_Metal_State_Penalty>
2.1942

> <b_epik_Metal_Only>
0

> <s_lp_Force_Field>
OPLS_2005

> <r_lp_Energy>
13.9943

> <b_lp_Chiralities_Consistent>
1

> <s_lp_Variant>
AV-unprocessed.smi:688-2

> <Gold.Version>
5.8.1

> <Gold.Id.Protein>
6NUR|6NUR_protein|mol2

> <Gold.PLP.Fitness>
54.5624

> <Gold.PLP.PLP>
-52.8905

> <Gold.PLP.part.hbond>
-1.0000

> <Gold.PLP.part.metal>
0.0000

> <Gold.PLP.part.buried>
-7.4132

> <Gold.PLP.part.nonpolar>
-43.7181

> <Gold.PLP.part.repulsive>
0.1801

> <Gold.PLP.ligand.clash>
0.0000

> <Gold.PLP.ligand.torsion>
0.7635

> <Gold.PLP.Chemscore.Hbond>
1.0000

> <Gold.PLP.Chemscore.CHOScore>
0.0000

> <Gold.PLP.Chemscore.Metal>
0.0000

> <Gold.Chemscore.Hbonds>
donor molecule, donor type, donor heavy atom, donor atom, acceptor molecule, acceptor atom, score
      P1  H  7989  7998       L1     9  1.00

> <Gold.PLP.Chemscore.Internal.Correction>
0.1989

> <Gold.Rescore>
     Score         DG    S(hbond)    S(metal)    S(lipo)     H(rot)  DE(clash)    DE(int)     intcor
     12.82     -14.69       0.60        0.00     125.86       2.94       0.33       1.54       ----

> <Gold.Chemscore.Fitness>
12.8206

> <Gold.Chemscore.DG>
-14.6867

> <Gold.Chemscore.ZeroCoef>
-5.4800

> <Gold.Chemscore.Hbond>
0.6033

> <Gold.Chemscore.Metal>
0.0000

> <Gold.Chemscore.Lipo>
125.8590

> <Gold.Chemscore.Internal_Hbond>
0.0000

> <Gold.Chemscore.DEClash>
0.3280

> <Gold.Chemscore.DEInternal>
1.5381

> <Gold.Chemscore.Rot>
2.9429

> <Gold.Chemscore.Internal.Correction>
   9.000000E+99

> <Gold.Chemscore.Hbonds>
donor molecule, donor type, donor heavy atom, donor atom, acceptor molecule, acceptor atom, score
      P1  H  7989  7998       L1     9  0.39

> <Gold.Chemscore.Hbond.Weighted>
-2.0150

> <Gold.Chemscore.Metal.Weighted>
-0.0000

> <Gold.Chemscore.Lipo.Weighted>
-14.7255

> <Gold.Chemscore.Internal_Hbond.Weighted>
0.0000

> <Gold.Chemscore.DEClash.Weighted>
0.3280

> <Gold.Chemscore.DEInternal.Weighted>
1.5381

> <Gold.Chemscore.Rot.Weighted>
7.5337

> <Gold.Chemscore.Internal.Correction.Weighted>
   9.000000E+99

> <Gold.Protein.RotatedTorsions>
[ 6907 6896 6895 6894 ] final  159.57 input  -60.11 | X-H torsion
[ 7974 7965 7964 7962 ] final  138.78 input  175.53 | X-H torsion
[ 8008 7997 7996 7995 ] final  -28.64 input   59.86 | X-H torsion
[ 10167 10162 10161 10158 ] final -153.41 input  -65.29 | X-H torsion
[ 10718 10713 10712 10709 ] final   34.95 input   66.30 | X-H torsion
[ 10763 10752 10751 10750 ] final -144.17 input  -60.55 | X-H torsion
[ 11005 11000 10999 10996 ] final -128.82 input  -57.11 | X-H torsion

> <Gold.Protein.ActiveResidues>
 VAL166  LYS551  ARG553  GLY616  TRP617  ASP618  TYR619  PRO620  LYS621  CYS622 
 ASP623  PHE694  ASN695  SER759  ASP760  ASP761  ALA762  ILE779  LEU786  VAL792 
 PHE793  MET794  SER795  GLU796  ALA797  LYS798  CYS799  TRP800  GLU811  SER814 

> <Gold.Protein.RotatedAtoms>
  151.9836  133.3766  159.4116 H   0  0  0  0  0  0  0  0  0  0  0  0  # atno 6907 bound_to 6896
  150.6931  134.4013  159.5129 H   0  0  0  0  0  0  0  0  0  0  0  0  # atno 6908 bound_to 6896
  152.1735  134.8814  160.0583 H   0  0  0  0  0  0  0  0  0  0  0  0  # atno 6909 bound_to 6896
  144.9340  139.5012  143.5604 H   0  0  0  0  0  0  0  0  0  0  0  0  # atno 7974 bound_to 7965
  154.4324  140.1840  156.1121 H   0  0  0  0  0  0  0  0  0  0  0  0  # atno 8008 bound_to 7997
  156.0209  140.3341  155.7013 H   0  0  0  0  0  0  0  0  0  0  0  0  # atno 8009 bound_to 7997
  155.5977  140.0637  157.2732 H   0  0  0  0  0  0  0  0  0  0  0  0  # atno 8010 bound_to 7997
  139.7099  143.9125  152.2464 H   0  0  0  0  0  0  0  0  0  0  0  0  # atno 10167 bound_to 10162
  157.3166  130.7427  149.6758 H   0  0  0  0  0  0  0  0  0  0  0  0  # atno 10718 bound_to 10713
  154.8439  135.3448  154.6303 H   0  0  0  0  0  0  0  0  0  0  0  0  # atno 10763 bound_to 10752
  153.6913  135.6975  153.5094 H   0  0  0  0  0  0  0  0  0  0  0  0  # atno 10764 bound_to 10752
  153.2593  135.4328  155.0833 H   0  0  0  0  0  0  0  0  0  0  0  0  # atno 10765 bound_to 10752
  140.9484  134.1099  157.4085 H   0  0  0  0  0  0  0  0  0  0  0  0  # atno 11005 bound_to 11000
  146.3259  139.8311  142.8908 LP  0  0  0  0  0  0  0  0  0  0  0  0  # atno 17320 bound_to 7965
  145.3096  141.0216  143.3562 LP  0  0  0  0  0  0  0  0  0  0  0  0  # atno 17321 bound_to 7965
  139.8991  144.6922  150.8685 LP  0  0  0  0  0  0  0  0  0  0  0  0  # atno 17342 bound_to 10162
  140.7731  143.3527  151.1982 LP  0  0  0  0  0  0  0  0  0  0  0  0  # atno 17343 bound_to 10162
  155.9682  130.4235  150.4567 LP  0  0  0  0  0  0  0  0  0  0  0  0  # atno 17370 bound_to 10713
  157.2575  131.0560  151.2341 LP  0  0  0  0  0  0  0  0  0  0  0  0  # atno 17371 bound_to 10713
  139.8840  135.0058  156.6339 LP  0  0  0  0  0  0  0  0  0  0  0  0  # atno 17394 bound_to 11000
  140.7637  133.8796  155.8438 LP  0  0  0  0  0  0  0  0  0  0  0  0  # atno 17395 bound_to 11000

$$$$
