AV-unprocessed.smi:356|AV-procd|sdf|2414|dock8
  -GOLD-   2262022353D 1   1.00000     0.00000
 Structure written by MMmdl.
 43 45  0  0  0  0  0  0  0  0  3 V2000
  145.5019  137.3335  152.6452 C   0  0  0  0  0  0  0  0  0  0  0  0
  145.3560  135.9690  152.0595 C   0  0  0  0  0  0  0  0  0  0  0  0
  146.3324  135.2628  151.4228 N   0  3  0  0  0  0  0  0  0  0  0  0
  145.8309  134.0269  151.0129 C   0  0  0  0  0  0  0  0  0  0  0  0
  146.4398  132.9749  150.3354 C   0  0  0  0  0  0  0  0  0  0  0  0
  145.6388  131.8444  150.0717 C   0  0  0  0  0  0  0  0  0  0  0  0
  144.2891  131.7898  150.4764 C   0  0  0  0  0  0  0  0  0  0  0  0
  143.6821  132.8631  151.1616 C   0  0  0  0  0  0  0  0  0  0  0  0
  144.4814  133.9767  151.4186 C   0  0  0  0  0  0  0  0  0  0  0  0
  144.2316  135.1963  152.0572 N   0  0  0  0  0  0  0  0  0  0  0  0
  142.8915  135.4618  152.6033 C   0  0  0  0  0  0  0  0  0  0  0  0
  142.7916  135.1873  154.1176 C   0  0  2  0  0  0  0  0  0  0  0  0
  141.7990  134.2041  154.3433 O   0  0  0  0  0  0  0  0  0  0  0  0
  142.4257  136.4667  154.8976 C   0  0  0  0  0  0  0  0  0  0  0  0
  140.9623  136.6380  155.0894 N   0  3  0  0  0  0  0  0  0  0  0  0
  140.6050  137.7280  156.0319 C   0  0  0  0  0  0  0  0  0  0  0  0
  139.0782  137.8159  156.1984 C   0  0  0  0  0  0  0  0  0  0  0  0
  138.4685  138.0094  154.9285 O   0  0  0  0  0  0  0  0  0  0  0  0
  138.7292  136.9273  154.0437 C   0  0  0  0  0  0  0  0  0  0  0  0
  140.2440  136.8126  153.8042 C   0  0  0  0  0  0  0  0  0  0  0  0
  146.5117  137.7123  152.4866 H   0  0  0  0  0  0  0  0  0  0  0  0
  145.3064  137.3058  153.7174 H   0  0  0  0  0  0  0  0  0  0  0  0
  144.7967  138.0218  152.1790 H   0  0  0  0  0  0  0  0  0  0  0  0
  147.4738  133.0139  150.0252 H   0  0  0  0  0  0  0  0  0  0  0  0
  146.0689  131.0019  149.5493 H   0  0  0  0  0  0  0  0  0  0  0  0
  143.7079  130.9058  150.2572 H   0  0  0  0  0  0  0  0  0  0  0  0
  142.6482  132.8105  151.4684 H   0  0  0  0  0  0  0  0  0  0  0  0
  142.6273  136.4953  152.3760 H   0  0  0  0  0  0  0  0  0  0  0  0
  142.1817  134.8388  152.0575 H   0  0  0  0  0  0  0  0  0  0  0  0
  143.7460  134.7896  154.4603 H   0  0  0  0  0  0  0  0  0  0  0  0
  142.2190  133.3919  154.5806 H   0  0  0  0  0  0  0  0  0  0  0  0
  142.9147  136.4701  155.8732 H   0  0  0  0  0  0  0  0  0  0  0  0
  142.8251  137.3266  154.3567 H   0  0  0  0  0  0  0  0  0  0  0  0
  141.0603  137.5599  157.0070 H   0  0  0  0  0  0  0  0  0  0  0  0
  140.9917  138.6772  155.6581 H   0  0  0  0  0  0  0  0  0  0  0  0
  138.6849  136.9141  156.6709 H   0  0  0  0  0  0  0  0  0  0  0  0
  138.8180  138.6534  156.8459 H   0  0  0  0  0  0  0  0  0  0  0  0
  138.3276  135.9997  154.4553 H   0  0  0  0  0  0  0  0  0  0  0  0
  138.2116  137.1078  153.1015 H   0  0  0  0  0  0  0  0  0  0  0  0
  140.6111  137.7070  153.2977 H   0  0  0  0  0  0  0  0  0  0  0  0
  140.4465  135.9655  153.1473 H   0  0  0  0  0  0  0  0  0  0  0  0
  140.6191  135.7749  155.4862 H   0  0  0  0  0  0  0  0  0  0  0  0
  147.2746  135.6041  151.2812 H   0  0  0  0  0  0  0  0  0  0  0  0
  1  2  1  0  0  0  0
  1 21  1  0  0  0  0
  1 22  1  0  0  0  0
  1 23  1  0  0  0  0
  2 10  1  0  0  0  0
  2  3  2  0  0  0  0
  3  4  1  0  0  0  0
  3 43  1  0  0  0  0
  4  9  2  0  0  0  0
  4  5  1  0  0  0  0
  5  6  2  0  0  0  0
  5 24  1  0  0  0  0
  6  7  1  0  0  0  0
  6 25  1  0  0  0  0
  7  8  2  0  0  0  0
  7 26  1  0  0  0  0
  8  9  1  0  0  0  0
  8 27  1  0  0  0  0
  9 10  1  0  0  0  0
 10 11  1  0  0  0  0
 11 12  1  0  0  0  0
 11 28  1  0  0  0  0
 11 29  1  0  0  0  0
 12 13  1  0  0  0  0
 12 14  1  0  0  0  0
 12 30  1  0  0  0  0
 13 31  1  0  0  0  0
 14 15  1  0  0  0  0
 14 32  1  0  0  0  0
 14 33  1  0  0  0  0
 15 20  1  0  0  0  0
 15 16  1  0  0  0  0
 15 42  1  0  0  0  0
 16 17  1  0  0  0  0
 16 34  1  0  0  0  0
 16 35  1  0  0  0  0
 17 18  1  0  0  0  0
 17 36  1  0  0  0  0
 17 37  1  0  0  0  0
 18 19  1  0  0  0  0
 19 20  1  0  0  0  0
 19 38  1  0  0  0  0
 19 39  1  0  0  0  0
 20 40  1  0  0  0  0
 20 41  1  0  0  0  0
M  CHG  1   3   1
M  CHG  1  15   1
M  END
> <s_m_source_file>
AV-unprocessed.smi

> <i_m_source_file_index>
356

> <i_lp_mmshare_version>
43012

> <i_f3d_flags>
0

> <s_epik_input>
W2NIXTFbY0hdW2NIXVtjSF1jKGMxMiluKGMobjIpW0NIM10pW0NIMl1bQ0BIXShbT0hdKVtDSDJdTjNbQ0gyXVtDSDJdT1tDSDJdW0NIMl0z

> <s_epik_cmdline>
J2VwaWtfcHl0aG9uJywgJy1waCcsICc3LjAnLCAnLXRuJywgJzgnLCAnLW1hJywgJzIwMCcsICctbWV0YWxfYmluZGluZycsICctaW1hZScsICc8aW5maWxlLm1hZT4nLCAnLW9tYWUnLCAnPG91dGZpbGUubWFlPic=

> <r_epik_Ionization_Penalty>
1.81899

> <r_epik_Ionization_Penalty_Charging>
1.81898

> <r_epik_Ionization_Penalty_Neutral>
1.42224e-05

> <r_epik_State_Penalty>
1.87399

> <r_epik_Charging_Adjusted_Penalty>
3.69296

> <i_epik_Tot_Q>
2

> <i_epik_Tot_abs_Q>
2

> <r_epik_Metal_State_Penalty>
5.87601

> <b_epik_Metal_Only>
0

> <s_lp_Force_Field>
OPLS_2005

> <r_lp_Energy>
28.369

> <b_lp_Chiralities_Consistent>
1

> <s_lp_Variant>
AV-unprocessed.smi:356-7

> <Gold.Version>
5.8.1

> <Gold.Id.Protein>
6NUR|6NUR_protein|mol2

> <Gold.PLP.Fitness>
47.9976

> <Gold.PLP.PLP>
-38.9780

> <Gold.PLP.part.hbond>
-4.0000

> <Gold.PLP.part.metal>
0.0000

> <Gold.PLP.part.buried>
-7.5261

> <Gold.PLP.part.nonpolar>
-28.2888

> <Gold.PLP.part.repulsive>
0.1179

> <Gold.PLP.ligand.clash>
0.0000

> <Gold.PLP.ligand.torsion>
1.4931

> <Gold.PLP.Chemscore.Hbond>
3.9913

> <Gold.PLP.Chemscore.CHOScore>
0.0000

> <Gold.PLP.Chemscore.Metal>
0.0000

> <Gold.Chemscore.Hbonds>
donor molecule, donor type, donor heavy atom, donor atom, acceptor molecule, acceptor atom, score
      L1  H     3    43       P1  7948  2.00
      L1  H    13    31       P1 10957  1.00
      L1  H    15    42       P1 11000  1.00

> <Gold.PLP.Chemscore.Internal.Correction>
0.0320

> <Gold.Rescore>
     Score         DG    S(hbond)    S(metal)    S(lipo)     H(rot)  DE(clash)    DE(int)     intcor
     18.53     -20.05       2.89        0.00      88.68       2.13       0.03       1.49       ----

> <Gold.Chemscore.Fitness>
18.5267

> <Gold.Chemscore.DG>
-20.0471

> <Gold.Chemscore.ZeroCoef>
-5.4800

> <Gold.Chemscore.Hbond>
2.8895

> <Gold.Chemscore.Metal>
0.0000

> <Gold.Chemscore.Lipo>
88.6832

> <Gold.Chemscore.Internal_Hbond>
0.0000

> <Gold.Chemscore.DEClash>
0.0299

> <Gold.Chemscore.DEInternal>
1.4905

> <Gold.Chemscore.Rot>
2.1327

> <Gold.Chemscore.Internal.Correction>
   9.000000E+99

> <Gold.Chemscore.Hbonds>
donor molecule, donor type, donor heavy atom, donor atom, acceptor molecule, acceptor atom, score
      L1  H     3    43       P1  7948  0.91
      L1  H    13    31       P1 10957  1.00
      L1  H    15    42       P1 11000  0.70

> <Gold.Chemscore.Hbond.Weighted>
-9.6508

> <Gold.Chemscore.Metal.Weighted>
-0.0000

> <Gold.Chemscore.Lipo.Weighted>
-10.3759

> <Gold.Chemscore.Internal_Hbond.Weighted>
0.0000

> <Gold.Chemscore.DEClash.Weighted>
0.0299

> <Gold.Chemscore.DEInternal.Weighted>
1.4905

> <Gold.Chemscore.Rot.Weighted>
5.4596

> <Gold.Chemscore.Internal.Correction.Weighted>
   9.000000E+99

> <Gold.Protein.RotatedTorsions>
[ 6907 6896 6895 6894 ] final -149.55 input  -60.11 | X-H torsion
[ 7974 7965 7964 7962 ] final  -89.64 input  175.53 | X-H torsion
[ 8008 7997 7996 7995 ] final -165.97 input   59.86 | X-H torsion
[ 10167 10162 10161 10158 ] final  104.09 input  -65.29 | X-H torsion
[ 10718 10713 10712 10709 ] final  -61.41 input   66.30 | X-H torsion
[ 10763 10752 10751 10750 ] final -150.69 input  -60.55 | X-H torsion
[ 11005 11000 10999 10996 ] final -121.90 input  -57.11 | X-H torsion

> <Gold.Protein.ActiveResidues>
 VAL166  LYS551  ARG553  GLY616  TRP617  ASP618  TYR619  PRO620  LYS621  CYS622 
 ASP623  PHE694  ASN695  SER759  ASP760  ASP761  ALA762  ILE779  LEU786  VAL792 
 PHE793  MET794  SER795  GLU796  ALA797  LYS798  CYS799  TRP800  GLU811  SER814 

> <Gold.Protein.RotatedAtoms>
  151.1857  133.4697  159.2594 H   0  0  0  0  0  0  0  0  0  0  0  0  # atno 6907 bound_to 6896
  151.1214  135.0081  159.8550 H   0  0  0  0  0  0  0  0  0  0  0  0  # atno 6908 bound_to 6896
  152.5456  134.1768  159.8672 H   0  0  0  0  0  0  0  0  0  0  0  0  # atno 6909 bound_to 6896
  145.4370  140.9558  143.2096 H   0  0  0  0  0  0  0  0  0  0  0  0  # atno 7974 bound_to 7965
  155.8573  140.0972  157.1636 H   0  0  0  0  0  0  0  0  0  0  0  0  # atno 8008 bound_to 7997
  154.3988  140.1372  156.3979 H   0  0  0  0  0  0  0  0  0  0  0  0  # atno 8009 bound_to 7997
  155.7896  140.3456  155.5344 H   0  0  0  0  0  0  0  0  0  0  0  0  # atno 8010 bound_to 7997
  139.7207  144.7059  151.0877 H   0  0  0  0  0  0  0  0  0  0  0  0  # atno 10167 bound_to 10162
  156.0924  130.4198  150.0990 H   0  0  0  0  0  0  0  0  0  0  0  0  # atno 10718 bound_to 10713
  154.8104  135.3278  154.7321 H   0  0  0  0  0  0  0  0  0  0  0  0  # atno 10763 bound_to 10752
  153.7971  135.6906  153.4866 H   0  0  0  0  0  0  0  0  0  0  0  0  # atno 10764 bound_to 10752
  153.1878  135.4562  155.0057 H   0  0  0  0  0  0  0  0  0  0  0  0  # atno 10765 bound_to 10752
  141.0036  134.0367  157.3506 H   0  0  0  0  0  0  0  0  0  0  0  0  # atno 11005 bound_to 11000
  144.8146  139.5901  143.7014 LP  0  0  0  0  0  0  0  0  0  0  0  0  # atno 17320 bound_to 7965
  146.2576  139.6338  142.9384 LP  0  0  0  0  0  0  0  0  0  0  0  0  # atno 17321 bound_to 7965
  140.7753  143.5170  150.9582 LP  0  0  0  0  0  0  0  0  0  0  0  0  # atno 17342 bound_to 10162
  139.8857  143.7016  152.3151 LP  0  0  0  0  0  0  0  0  0  0  0  0  # atno 17343 bound_to 10162
  156.8997  130.9616  151.3578 LP  0  0  0  0  0  0  0  0  0  0  0  0  # atno 17370 bound_to 10713
  157.6076  130.8559  149.8900 LP  0  0  0  0  0  0  0  0  0  0  0  0  # atno 17371 bound_to 10713
  139.9051  135.0177  156.7450 LP  0  0  0  0  0  0  0  0  0  0  0  0  # atno 17394 bound_to 11000
  140.6849  133.9441  155.7932 LP  0  0  0  0  0  0  0  0  0  0  0  0  # atno 17395 bound_to 11000

$$$$
