AV-unprocessed.smi:2520|AV-procd|sdf|9910|dock1
  -GOLD-   2272013543D 1   1.00000     0.00000
 Structure written by MMmdl.
 41 44  0  0  0  0  0  0  0  0  1 V2000
  149.7957  138.1644  159.3064 O   0  0  0  0  0  0  0  0  0  0  0  0
  148.9836  137.6387  158.5470 C   0  0  0  0  0  0  0  0  0  0  0  0
  148.0127  136.8277  159.0180 N   0  0  0  0  0  0  0  0  0  0  0  0
  147.6973  136.4114  160.3444 C   0  0  0  0  0  0  0  0  0  0  0  0
  147.3141  135.0583  160.4641 C   0  0  0  0  0  0  0  0  0  0  0  0
  146.9955  134.5629  161.7400 C   0  0  0  0  0  0  0  0  0  0  0  0
  147.0843  135.4586  162.8189 C   0  0  0  0  0  0  0  0  0  0  0  0
  147.4602  136.7460  162.6615 N   0  0  0  0  0  0  0  0  0  0  0  0
  147.7626  137.2087  161.4440 N   0  0  0  0  0  0  0  0  0  0  0  0
  149.0051  137.8284  157.2185 N   0  0  0  0  0  0  0  0  0  0  0  0
  149.9431  138.6942  156.5151 C   0  0  1  0  0  0  0  0  0  0  0  0
  150.7733  137.9301  155.4706 C   0  0  2  0  0  0  0  0  0  0  0  0
  152.2595  137.7884  155.6534 C   0  0  0  0  0  0  0  0  0  0  0  0
  152.8170  138.9524  154.8292 C   0  0  0  0  0  0  0  0  0  0  0  0
  151.7337  139.8740  154.7279 O   0  0  0  0  0  0  0  0  0  0  0  0
  150.5413  139.1146  154.5441 C   0  0  2  0  0  0  0  0  0  0  0  0
  149.3120  139.5323  155.3783 C   0  0  0  0  0  0  0  0  0  0  0  0
  149.0921  141.0257  155.6049 C   0  0  0  0  0  0  0  0  0  0  0  0
  148.1638  141.5267  154.4923 C   0  0  0  0  0  0  0  0  0  0  0  0
  147.5052  140.2764  153.9007 C   0  0  0  0  0  0  0  0  0  0  0  0
  147.9571  139.1214  154.7945 C   0  0  0  0  0  0  0  0  0  0  0  0
  147.4378  136.4073  158.3024 H   0  0  0  0  0  0  0  0  0  0  0  0
  147.2635  134.4127  159.5994 H   0  0  0  0  0  0  0  0  0  0  0  0
  146.6948  133.5360  161.8863 H   0  0  0  0  0  0  0  0  0  0  0  0
  146.8520  135.1392  163.8238 H   0  0  0  0  0  0  0  0  0  0  0  0
  148.3065  137.3584  156.6602 H   0  0  0  0  0  0  0  0  0  0  0  0
  150.5719  139.2995  157.1723 H   0  0  0  0  0  0  0  0  0  0  0  0
  150.2693  137.0324  155.1068 H   0  0  0  0  0  0  0  0  0  0  0  0
  152.5339  137.8894  156.7040 H   0  0  0  0  0  0  0  0  0  0  0  0
  152.6365  136.8289  155.2985 H   0  0  0  0  0  0  0  0  0  0  0  0
  153.6933  139.4112  155.2874 H   0  0  0  0  0  0  0  0  0  0  0  0
  153.0906  138.6165  153.8281 H   0  0  0  0  0  0  0  0  0  0  0  0
  150.3518  138.8400  153.5052 H   0  0  0  0  0  0  0  0  0  0  0  0
  148.6133  141.1835  156.5723 H   0  0  0  0  0  0  0  0  0  0  0  0
  150.0247  141.5896  155.6262 H   0  0  0  0  0  0  0  0  0  0  0  0
  147.4236  142.2237  154.8862 H   0  0  0  0  0  0  0  0  0  0  0  0
  148.7321  142.0504  153.7229 H   0  0  0  0  0  0  0  0  0  0  0  0
  146.4188  140.3588  153.8573 H   0  0  0  0  0  0  0  0  0  0  0  0
  147.8653  140.1191  152.8833 H   0  0  0  0  0  0  0  0  0  0  0  0
  148.0031  138.1817  154.2429 H   0  0  0  0  0  0  0  0  0  0  0  0
  147.2210  138.9874  155.5880 H   0  0  0  0  0  0  0  0  0  0  0  0
  1  2  2  0  0  0  0
  2  3  1  0  0  0  0
  2 10  1  0  0  0  0
  3  4  1  0  0  0  0
  3 22  1  0  0  0  0
  4  9  1  0  0  0  0
  4  5  2  0  0  0  0
  5  6  1  0  0  0  0
  5 23  1  0  0  0  0
  6  7  2  0  0  0  0
  6 24  1  0  0  0  0
  7  8  1  0  0  0  0
  7 25  1  0  0  0  0
  8  9  2  0  0  0  0
 10 11  1  0  0  0  0
 10 26  1  0  0  0  0
 11 17  1  0  0  0  0
 11 12  1  0  0  0  0
 11 27  1  0  0  0  0
 12 16  1  0  0  0  0
 12 13  1  0  0  0  0
 12 28  1  0  0  0  0
 13 14  1  0  0  0  0
 13 29  1  0  0  0  0
 13 30  1  0  0  0  0
 14 15  1  0  0  0  0
 14 31  1  0  0  0  0
 14 32  1  0  0  0  0
 15 16  1  0  0  0  0
 16 17  1  0  0  0  0
 16 33  1  0  0  0  0
 17 21  1  0  0  0  0
 17 18  1  0  0  0  0
 18 19  1  0  0  0  0
 18 34  1  0  0  0  0
 18 35  1  0  0  0  0
 19 20  1  0  0  0  0
 19 36  1  0  0  0  0
 19 37  1  0  0  0  0
 20 21  1  0  0  0  0
 20 38  1  0  0  0  0
 20 39  1  0  0  0  0
 21 40  1  0  0  0  0
 21 41  1  0  0  0  0
M  END
> <s_m_source_file>
AV-unprocessed.smi

> <i_m_source_file_index>
2520

> <i_lp_mmshare_version>
43012

> <i_f3d_flags>
0

> <s_epik_input>
bjFuW2NIXVtjSF1bY0hdYzFbTkhdQyg9TylbTkhdW0NAQEhdMltDQEBIXShbQ0gyXVtDSDJdTzMpW0NASF0zQzI0W0NIMl1bQ0gyXVtDSDJdW0NIMl00

> <s_epik_cmdline>
J2VwaWtfcHl0aG9uJywgJy1waCcsICc3LjAnLCAnLXRuJywgJzgnLCAnLW1hJywgJzIwMCcsICctbWV0YWxfYmluZGluZycsICctaW1hZScsICc8aW5maWxlLm1hZT4nLCAnLW9tYWUnLCAnPG91dGZpbGUubWFlPic=

> <r_lp_tautomer_probability>
1

> <r_epik_Ionization_Penalty>
0.00552561

> <r_epik_Ionization_Penalty_Charging>
0

> <r_epik_Ionization_Penalty_Neutral>
0.00552561

> <r_epik_State_Penalty>
-0

> <r_epik_Charging_Adjusted_Penalty>
0

> <i_epik_Tot_Q>
0

> <i_epik_Tot_abs_Q>
0

> <r_epik_Metal_State_Penalty>
-0

> <b_epik_Metal_Only>
0

> <s_lp_Force_Field>
OPLS_2005

> <r_lp_Energy>
61.147

> <b_lp_Chiralities_Consistent>
1

> <s_lp_Variant>
AV-unprocessed.smi:2520-4

> <Gold.Version>
5.8.1

> <Gold.Id.Protein>
6NUR|6NUR_protein|mol2

> <Gold.PLP.Fitness>
41.6121

> <Gold.PLP.PLP>
-34.4274

> <Gold.PLP.part.hbond>
-4.4574

> <Gold.PLP.part.metal>
0.0000

> <Gold.PLP.part.buried>
-5.3597

> <Gold.PLP.part.nonpolar>
-25.7936

> <Gold.PLP.part.repulsive>
0.2253

> <Gold.PLP.ligand.clash>
0.0000

> <Gold.PLP.ligand.torsion>
0.4307

> <Gold.PLP.Chemscore.Hbond>
2.6200

> <Gold.PLP.Chemscore.CHOScore>
0.0000

> <Gold.PLP.Chemscore.Metal>
0.0000

> <Gold.Chemscore.Hbonds>
donor molecule, donor type, donor heavy atom, donor atom, acceptor molecule, acceptor atom, score
      P1  H  6931  6943       L1     9  0.90
      P1  H  6934  6947       L1     9  0.75
      P1  H  7989  7998       L1    15  1.00

> <Gold.PLP.Chemscore.Internal.Correction>
0.1860

> <Gold.Rescore>
     Score         DG    S(hbond)    S(metal)    S(lipo)     H(rot)  DE(clash)    DE(int)     intcor
     17.28     -17.70       1.66        0.00      79.04       1.00       0.01       0.41       ----

> <Gold.Chemscore.Fitness>
17.2753

> <Gold.Chemscore.DG>
-17.6986

> <Gold.Chemscore.ZeroCoef>
-5.4800

> <Gold.Chemscore.Hbond>
1.6561

> <Gold.Chemscore.Metal>
0.0000

> <Gold.Chemscore.Lipo>
79.0352

> <Gold.Chemscore.Internal_Hbond>
0.0000

> <Gold.Chemscore.DEClash>
0.0141

> <Gold.Chemscore.DEInternal>
0.4091

> <Gold.Chemscore.Rot>
1.0000

> <Gold.Chemscore.Internal.Correction>
   9.000000E+99

> <Gold.Chemscore.Hbonds>
donor molecule, donor type, donor heavy atom, donor atom, acceptor molecule, acceptor atom, score
      P1  H  6931  6943       L1     9  0.17
      P1  H  6934  6947       L1     9  0.51
      P1  H  7989  7998       L1    15  0.27

> <Gold.Chemscore.Hbond.Weighted>
-5.5314

> <Gold.Chemscore.Metal.Weighted>
-0.0000

> <Gold.Chemscore.Lipo.Weighted>
-9.2471

> <Gold.Chemscore.Internal_Hbond.Weighted>
0.0000

> <Gold.Chemscore.DEClash.Weighted>
0.0141

> <Gold.Chemscore.DEInternal.Weighted>
0.4091

> <Gold.Chemscore.Rot.Weighted>
2.5600

> <Gold.Chemscore.Internal.Correction.Weighted>
   9.000000E+99

> <Gold.Protein.RotatedTorsions>
[ 6907 6896 6895 6894 ] final -179.47 input  -60.11 | X-H torsion
[ 7974 7965 7964 7962 ] final  -90.44 input  175.53 | X-H torsion
[ 8008 7997 7996 7995 ] final -137.38 input   59.86 | X-H torsion
[ 10167 10162 10161 10158 ] final  127.46 input  -65.29 | X-H torsion
[ 10718 10713 10712 10709 ] final -120.87 input   66.30 | X-H torsion
[ 10763 10752 10751 10750 ] final -149.95 input  -60.55 | X-H torsion
[ 11005 11000 10999 10996 ] final  103.92 input  -57.11 | X-H torsion

> <Gold.Protein.ActiveResidues>
 VAL166  LYS551  ARG553  GLY616  TRP617  ASP618  TYR619  PRO620  LYS621  CYS622 
 ASP623  PHE694  ASN695  SER759  ASP760  ASP761  ALA762  ILE779  LEU786  VAL792 
 PHE793  MET794  SER795  GLU796  ALA797  LYS798  CYS799  TRP800  GLU811  SER814 

> <Gold.Protein.RotatedAtoms>
  151.6540  133.3319  159.3158 H   0  0  0  0  0  0  0  0  0  0  0  0  # atno 6907 bound_to 6896
  150.7946  134.7000  159.6554 H   0  0  0  0  0  0  0  0  0  0  0  0  # atno 6908 bound_to 6896
  152.4031  134.6256  160.0113 H   0  0  0  0  0  0  0  0  0  0  0  0  # atno 6909 bound_to 6896
  145.4264  140.9554  143.2152 H   0  0  0  0  0  0  0  0  0  0  0  0  # atno 7974 bound_to 7965
  155.4108  140.0512  157.3032 H   0  0  0  0  0  0  0  0  0  0  0  0  # atno 8008 bound_to 7997
  154.4947  140.2134  155.9432 H   0  0  0  0  0  0  0  0  0  0  0  0  # atno 8009 bound_to 7997
  156.1390  140.3158  155.8470 H   0  0  0  0  0  0  0  0  0  0  0  0  # atno 8010 bound_to 7997
  139.5577  144.6860  151.4134 H   0  0  0  0  0  0  0  0  0  0  0  0  # atno 10167 bound_to 10162
  156.1292  130.6382  150.9593 H   0  0  0  0  0  0  0  0  0  0  0  0  # atno 10718 bound_to 10713
  154.8148  135.3296  154.7207 H   0  0  0  0  0  0  0  0  0  0  0  0  # atno 10763 bound_to 10752
  153.7850  135.6915  153.4886 H   0  0  0  0  0  0  0  0  0  0  0  0  # atno 10764 bound_to 10752
  153.1955  135.4535  155.0149 H   0  0  0  0  0  0  0  0  0  0  0  0  # atno 10765 bound_to 10752
  139.8787  134.9281  156.5283 H   0  0  0  0  0  0  0  0  0  0  0  0  # atno 11005 bound_to 11000
  144.8211  139.5790  143.6986 LP  0  0  0  0  0  0  0  0  0  0  0  0  # atno 17320 bound_to 7965
  146.2630  139.6454  142.9349 LP  0  0  0  0  0  0  0  0  0  0  0  0  # atno 17321 bound_to 7965
  140.6852  143.7989  150.7177 LP  0  0  0  0  0  0  0  0  0  0  0  0  # atno 17342 bound_to 10162
  140.1455  143.4403  152.2166 LP  0  0  0  0  0  0  0  0  0  0  0  0  # atno 17343 bound_to 10162
  157.6471  131.0902  150.8130 LP  0  0  0  0  0  0  0  0  0  0  0  0  # atno 17370 bound_to 10713
  156.8217  130.4986  149.5342 LP  0  0  0  0  0  0  0  0  0  0  0  0  # atno 17371 bound_to 10713
  140.8399  133.8213  155.9065 LP  0  0  0  0  0  0  0  0  0  0  0  0  # atno 17394 bound_to 11000
  140.9247  134.2097  157.4903 LP  0  0  0  0  0  0  0  0  0  0  0  0  # atno 17395 bound_to 11000

$$$$
