AV-unprocessed.smi:2469|AV-procd|sdf|9733|dock1
  -GOLD-   2272013373D 1   1.00000     0.00000
 Structure written by MMmdl.
 32 33  0  0  0  0  0  0  0  0  1 V2000
  150.1360  135.3686  154.4419 O   0  0  0  0  0  0  0  0  0  0  0  0
  150.3633  136.0131  155.6773 C   0  0  0  0  0  0  0  0  0  0  0  0
  151.4531  137.0814  155.5266 C   0  0  0  0  0  0  0  0  0  0  0  0
  150.9222  138.1850  154.7983 O   0  0  0  0  0  0  0  0  0  0  0  0
  150.7471  139.3857  155.4550 C   0  0  0  0  0  0  0  0  0  0  0  0
  151.0990  139.4659  156.8168 C   0  0  0  0  0  0  0  0  0  0  0  0
  150.9229  140.6888  157.4915 C   0  0  0  0  0  0  0  0  0  0  0  0
  150.4029  141.7955  156.7900 C   0  0  0  0  0  0  0  0  0  0  0  0
  150.2320  143.0094  157.4726 N   0  0  0  0  0  0  0  0  0  0  0  0
  150.9456  143.2954  158.7107 C   0  0  2  0  0  0  0  0  0  0  0  0
  150.6934  144.6897  159.2521 C   0  0  0  0  0  0  0  0  0  0  0  0
  151.8929  144.8797  160.1748 C   0  0  0  0  0  0  0  0  0  0  0  0
  152.9590  144.1411  159.5830 O   0  0  0  0  0  0  0  0  0  0  0  0
  152.4613  143.3280  158.5240 C   0  0  0  0  0  0  0  0  0  0  0  0
  150.0767  141.6107  155.4250 C   0  0  0  0  0  0  0  0  0  0  0  0
  150.2426  140.4417  154.7707 N   0  0  0  0  0  0  0  0  0  0  0  0
  149.7177  135.9809  153.8561 H   0  0  0  0  0  0  0  0  0  0  0  0
  149.4267  136.4825  155.9795 H   0  0  0  0  0  0  0  0  0  0  0  0
  150.6229  135.2853  156.4465 H   0  0  0  0  0  0  0  0  0  0  0  0
  151.8369  137.3853  156.5023 H   0  0  0  0  0  0  0  0  0  0  0  0
  152.2844  136.6563  154.9615 H   0  0  0  0  0  0  0  0  0  0  0  0
  151.4972  138.6055  157.3342 H   0  0  0  0  0  0  0  0  0  0  0  0
  151.1870  140.7726  158.5357 H   0  0  0  0  0  0  0  0  0  0  0  0
  149.4537  143.6038  157.2255 H   0  0  0  0  0  0  0  0  0  0  0  0
  150.7054  142.5496  159.4696 H   0  0  0  0  0  0  0  0  0  0  0  0
  150.7242  145.4256  158.4469 H   0  0  0  0  0  0  0  0  0  0  0  0
  149.7404  144.7916  159.7714 H   0  0  0  0  0  0  0  0  0  0  0  0
  152.1570  145.9294  160.3038 H   0  0  0  0  0  0  0  0  0  0  0  0
  151.6855  144.4587  161.1593 H   0  0  0  0  0  0  0  0  0  0  0  0
  152.9069  142.3331  158.5389 H   0  0  0  0  0  0  0  0  0  0  0  0
  152.7278  143.8036  157.5788 H   0  0  0  0  0  0  0  0  0  0  0  0
  149.6693  142.4113  154.8266 H   0  0  0  0  0  0  0  0  0  0  0  0
  1  2  1  0  0  0  0
  1 17  1  0  0  0  0
  2  3  1  0  0  0  0
  2 18  1  0  0  0  0
  2 19  1  0  0  0  0
  3  4  1  0  0  0  0
  3 20  1  0  0  0  0
  3 21  1  0  0  0  0
  4  5  1  0  0  0  0
  5 16  1  0  0  0  0
  5  6  2  0  0  0  0
  6  7  1  0  0  0  0
  6 22  1  0  0  0  0
  7  8  2  0  0  0  0
  7 23  1  0  0  0  0
  8  9  1  0  0  0  0
  8 15  1  0  0  0  0
  9 10  1  0  0  0  0
  9 24  1  0  0  0  0
 10 14  1  0  0  0  0
 10 11  1  0  0  0  0
 10 25  1  0  0  0  0
 11 12  1  0  0  0  0
 11 26  1  0  0  0  0
 11 27  1  0  0  0  0
 12 13  1  0  0  0  0
 12 28  1  0  0  0  0
 12 29  1  0  0  0  0
 13 14  1  0  0  0  0
 14 30  1  0  0  0  0
 14 31  1  0  0  0  0
 15 16  2  0  0  0  0
 15 32  1  0  0  0  0
M  END
> <s_m_source_file>
AV-unprocessed.smi

> <i_m_source_file_index>
2469

> <i_lp_mmshare_version>
43012

> <i_f3d_flags>
0

> <s_epik_input>
W09IXVtDSDJdW0NIMl1PYzFbY0hdW2NIXWMoW2NIXW4xKVtOSF1bQ0BASF0yW0NIMl1bQ0gyXU9bQ0gyXTI=

> <s_epik_cmdline>
J2VwaWtfcHl0aG9uJywgJy1waCcsICc3LjAnLCAnLXRuJywgJzgnLCAnLW1hJywgJzIwMCcsICctbWV0YWxfYmluZGluZycsICctaW1hZScsICc8aW5maWxlLm1hZT4nLCAnLW9tYWUnLCAnPG91dGZpbGUubWFlPic=

> <r_lp_tautomer_probability>
1

> <r_epik_Ionization_Penalty>
0.000432265

> <r_epik_Ionization_Penalty_Charging>
0

> <r_epik_Ionization_Penalty_Neutral>
0.000432265

> <r_epik_State_Penalty>
-0

> <r_epik_Charging_Adjusted_Penalty>
0

> <i_epik_Tot_Q>
0

> <i_epik_Tot_abs_Q>
0

> <r_epik_Metal_State_Penalty>
-0

> <b_epik_Metal_Only>
0

> <s_lp_Force_Field>
OPLS_2005

> <r_lp_Energy>
22.9309

> <b_lp_Chiralities_Consistent>
1

> <s_lp_Variant>
AV-unprocessed.smi:2469-1

> <Gold.Version>
5.8.1

> <Gold.Id.Protein>
6NUR|6NUR_protein|mol2

> <Gold.PLP.Fitness>
38.2656

> <Gold.PLP.PLP>
-29.0738

> <Gold.PLP.part.hbond>
-3.8144

> <Gold.PLP.part.metal>
0.0000

> <Gold.PLP.part.buried>
-3.9498

> <Gold.PLP.part.nonpolar>
-21.9446

> <Gold.PLP.part.repulsive>
0.2554

> <Gold.PLP.ligand.clash>
0.5710

> <Gold.PLP.ligand.torsion>
0.4941

> <Gold.PLP.Chemscore.Hbond>
2.6080

> <Gold.PLP.Chemscore.CHOScore>
0.9318

> <Gold.PLP.Chemscore.Metal>
0.0000

> <Gold.Chemscore.Hbonds>
donor molecule, donor type, donor heavy atom, donor atom, acceptor molecule, acceptor atom, score
      L1  H     1    17       P1  7948  0.69
      L1  H     9    24       P1  8028  0.77
      P1  H  7989  7998       L1    16  0.99
      L1  C    15    32       P1  8028  0.87

> <Gold.PLP.Chemscore.Internal.Correction>
0.1316

> <Gold.Rescore>
     Score         DG    S(hbond)    S(metal)    S(lipo)     H(rot)  DE(clash)    DE(int)     intcor
     13.32     -13.95       1.74        0.00      73.64       2.32       0.07       0.57       ----

> <Gold.Chemscore.Fitness>
13.3188

> <Gold.Chemscore.DG>
-13.9532

> <Gold.Chemscore.ZeroCoef>
-5.4800

> <Gold.Chemscore.Hbond>
1.7374

> <Gold.Chemscore.Metal>
0.0000

> <Gold.Chemscore.Lipo>
73.6394

> <Gold.Chemscore.Internal_Hbond>
0.0000

> <Gold.Chemscore.DEClash>
0.0686

> <Gold.Chemscore.DEInternal>
0.5658

> <Gold.Chemscore.Rot>
2.3225

> <Gold.Chemscore.Internal.Correction>
   9.000000E+99

> <Gold.Chemscore.Hbonds>
donor molecule, donor type, donor heavy atom, donor atom, acceptor molecule, acceptor atom, score
      L1  H     1    17       P1  7948  0.20
      L1  H     9    24       P1  8028  0.55
      P1  H  7989  7998       L1    16  0.15

> <Gold.Chemscore.Hbond.Weighted>
-5.8030

> <Gold.Chemscore.Metal.Weighted>
-0.0000

> <Gold.Chemscore.Lipo.Weighted>
-8.6158

> <Gold.Chemscore.Internal_Hbond.Weighted>
0.0000

> <Gold.Chemscore.DEClash.Weighted>
0.0686

> <Gold.Chemscore.DEInternal.Weighted>
0.5658

> <Gold.Chemscore.Rot.Weighted>
5.9456

> <Gold.Chemscore.Internal.Correction.Weighted>
   9.000000E+99

> <Gold.Protein.RotatedTorsions>
[ 6907 6896 6895 6894 ] final  -83.80 input  -60.11 | X-H torsion
[ 7974 7965 7964 7962 ] final  -99.98 input  175.53 | X-H torsion
[ 8008 7997 7996 7995 ] final  132.76 input   59.86 | X-H torsion
[ 10167 10162 10161 10158 ] final  112.35 input  -65.29 | X-H torsion
[ 10718 10713 10712 10709 ] final  137.87 input   66.30 | X-H torsion
[ 10763 10752 10751 10750 ] final   80.21 input  -60.55 | X-H torsion
[ 11005 11000 10999 10996 ] final -114.73 input  -57.11 | X-H torsion

> <Gold.Protein.ActiveResidues>
 VAL166  LYS551  ARG553  GLY616  TRP617  ASP618  TYR619  PRO620  LYS621  CYS622 
 ASP623  PHE694  ASN695  SER759  ASP760  ASP761  ALA762  ILE779  LEU786  VAL792 
 PHE793  MET794  SER795  GLU796  ALA797  LYS798  CYS799  TRP800  GLU811  SER814 

> <Gold.Protein.RotatedAtoms>
  150.6882  134.3456  159.4886 H   0  0  0  0  0  0  0  0  0  0  0  0  # atno 6907 bound_to 6896
  152.1304  134.9136  160.0568 H   0  0  0  0  0  0  0  0  0  0  0  0  # atno 6908 bound_to 6896
  152.0309  133.3902  159.4333 H   0  0  0  0  0  0  0  0  0  0  0  0  # atno 6909 bound_to 6896
  145.3004  140.9376  143.2826 H   0  0  0  0  0  0  0  0  0  0  0  0  # atno 7974 bound_to 7965
  156.2986  140.2538  156.3142 H   0  0  0  0  0  0  0  0  0  0  0  0  # atno 8008 bound_to 7997
  154.9297  140.0398  157.2060 H   0  0  0  0  0  0  0  0  0  0  0  0  # atno 8009 bound_to 7997
  154.8230  140.2863  155.5778 H   0  0  0  0  0  0  0  0  0  0  0  0  # atno 8010 bound_to 7997
  139.6542  144.7129  151.1989 H   0  0  0  0  0  0  0  0  0  0  0  0  # atno 10167 bound_to 10162
  157.4315  131.1049  151.0245 H   0  0  0  0  0  0  0  0  0  0  0  0  # atno 10718 bound_to 10713
  153.1015  135.4811  154.8875 H   0  0  0  0  0  0  0  0  0  0  0  0  # atno 10763 bound_to 10752
  154.7384  135.3076  154.8774 H   0  0  0  0  0  0  0  0  0  0  0  0  # atno 10764 bound_to 10752
  153.9389  135.6836  153.4798 H   0  0  0  0  0  0  0  0  0  0  0  0  # atno 10765 bound_to 10752
  141.0533  133.9652  157.2798 H   0  0  0  0  0  0  0  0  0  0  0  0  # atno 11005 bound_to 11000
  144.9098  139.4543  143.6592 LP  0  0  0  0  0  0  0  0  0  0  0  0  # atno 17320 bound_to 7965
  146.3154  139.7899  142.8988 LP  0  0  0  0  0  0  0  0  0  0  0  0  # atno 17321 bound_to 7965
  140.7551  143.6100  150.8615 LP  0  0  0  0  0  0  0  0  0  0  0  0  # atno 17342 bound_to 10162
  139.9751  143.6013  152.2961 LP  0  0  0  0  0  0  0  0  0  0  0  0  # atno 17343 bound_to 10162
  157.1140  130.6033  149.5489 LP  0  0  0  0  0  0  0  0  0  0  0  0  # atno 17370 bound_to 10713
  155.9915  130.4970  150.7301 LP  0  0  0  0  0  0  0  0  0  0  0  0  # atno 17371 bound_to 10713
  139.9369  135.0195  156.8584 LP  0  0  0  0  0  0  0  0  0  0  0  0  # atno 17394 bound_to 11000
  140.6012  134.0170  155.7538 LP  0  0  0  0  0  0  0  0  0  0  0  0  # atno 17395 bound_to 11000

$$$$
