AV-unprocessed.smi:2407|AV-procd|sdf|9518|dock5
  -GOLD-   2272013153D 1   1.00000     0.00000
 Structure written by MMmdl.
 38 39  0  0  0  0  0  0  0  0  1 V2000
  145.3876  142.4109  156.8838 C   0  0  0  0  0  0  0  0  0  0  0  0
  146.5446  142.0331  156.0073 C   0  0  0  0  0  0  0  0  0  0  0  0
  146.3888  141.6588  154.6146 C   0  0  0  0  0  0  0  0  0  0  0  0
  147.4808  141.3266  153.8929 C   0  0  0  0  0  0  0  0  0  0  0  0
  148.8199  141.3335  154.4782 C   0  0  0  0  0  0  0  0  0  0  0  0
  149.8331  141.0283  153.8498 O   0  0  0  0  0  0  0  0  0  0  0  0
  148.8430  141.7072  155.7917 N   0  0  0  0  0  0  0  0  0  0  0  0
  150.1020  141.7729  156.5438 C   0  0  0  0  0  0  0  0  0  0  0  0
  150.7461  140.3801  156.7214 C   0  0  2  0  0  0  0  0  0  0  0  0
  149.7573  139.5117  157.2395 O   0  0  0  0  0  0  0  0  0  0  0  0
  151.9023  140.4083  157.7352 C   0  0  0  0  0  0  0  0  0  0  0  0
  152.1129  141.7518  158.1493 O   0  0  0  0  0  0  0  0  0  0  0  0
  152.5232  141.9909  159.4448 C   0  0  0  0  0  0  0  0  0  0  0  0
  153.2203  141.0393  160.2329 C   0  0  0  0  0  0  0  0  0  0  0  0
  153.6099  141.3464  161.5496 C   0  0  0  0  0  0  0  0  0  0  0  0
  153.3091  142.6051  162.0968 C   0  0  0  0  0  0  0  0  0  0  0  0
  152.6186  143.5571  161.3257 C   0  0  0  0  0  0  0  0  0  0  0  0
  152.2228  143.2591  160.0018 C   0  0  0  0  0  0  0  0  0  0  0  0
  151.4740  144.2973  159.1717 C   0  0  0  0  0  0  0  0  0  0  0  0
  151.4021  145.4752  159.7934 F   0  0  0  0  0  0  0  0  0  0  0  0
  152.0971  144.4800  158.0073 F   0  0  0  0  0  0  0  0  0  0  0  0
  150.2310  143.8766  158.9355 F   0  0  0  0  0  0  0  0  0  0  0  0
  147.7248  142.0463  156.5345 N   0  0  0  0  0  0  0  0  0  0  0  0
  144.4556  142.4354  156.3185 H   0  0  0  0  0  0  0  0  0  0  0  0
  145.5371  143.3980  157.3225 H   0  0  0  0  0  0  0  0  0  0  0  0
  145.2665  141.6939  157.6963 H   0  0  0  0  0  0  0  0  0  0  0  0
  145.4058  141.6487  154.1672 H   0  0  0  0  0  0  0  0  0  0  0  0
  147.3636  141.0481  152.8560 H   0  0  0  0  0  0  0  0  0  0  0  0
  150.7876  142.4343  156.0110 H   0  0  0  0  0  0  0  0  0  0  0  0
  149.9522  142.2518  157.5137 H   0  0  0  0  0  0  0  0  0  0  0  0
  151.1110  140.0024  155.7653 H   0  0  0  0  0  0  0  0  0  0  0  0
  148.9637  140.0077  157.3716 H   0  0  0  0  0  0  0  0  0  0  0  0
  151.6295  139.8226  158.6145 H   0  0  0  0  0  0  0  0  0  0  0  0
  152.8050  139.9690  157.3067 H   0  0  0  0  0  0  0  0  0  0  0  0
  153.4702  140.0616  159.8503 H   0  0  0  0  0  0  0  0  0  0  0  0
  154.1402  140.6140  162.1403 H   0  0  0  0  0  0  0  0  0  0  0  0
  153.6074  142.8409  163.1078 H   0  0  0  0  0  0  0  0  0  0  0  0
  152.3966  144.5186  161.7641 H   0  0  0  0  0  0  0  0  0  0  0  0
  1  2  1  0  0  0  0
  1 24  1  0  0  0  0
  1 25  1  0  0  0  0
  1 26  1  0  0  0  0
  2 23  2  0  0  0  0
  2  3  1  0  0  0  0
  3  4  2  0  0  0  0
  3 27  1  0  0  0  0
  4  5  1  0  0  0  0
  4 28  1  0  0  0  0
  5  6  2  0  0  0  0
  5  7  1  0  0  0  0
  7  8  1  0  0  0  0
  7 23  1  0  0  0  0
  8  9  1  0  0  0  0
  8 29  1  0  0  0  0
  8 30  1  0  0  0  0
  9 10  1  0  0  0  0
  9 11  1  0  0  0  0
  9 31  1  0  0  0  0
 10 32  1  0  0  0  0
 11 12  1  0  0  0  0
 11 33  1  0  0  0  0
 11 34  1  0  0  0  0
 12 13  1  0  0  0  0
 13 18  1  0  0  0  0
 13 14  2  0  0  0  0
 14 15  1  0  0  0  0
 14 35  1  0  0  0  0
 15 16  2  0  0  0  0
 15 36  1  0  0  0  0
 16 17  1  0  0  0  0
 16 37  1  0  0  0  0
 17 18  2  0  0  0  0
 17 38  1  0  0  0  0
 18 19  1  0  0  0  0
 19 20  1  0  0  0  0
 19 21  1  0  0  0  0
 19 22  1  0  0  0  0
M  END
> <s_m_source_file>
AV-unprocessed.smi

> <i_m_source_file_index>
2407

> <i_lp_mmshare_version>
43012

> <i_f3d_flags>
0

> <s_epik_input>
W0NIM11jMVtjSF1bY0hdYyg9TyluKG4xKVtDSDJdW0NASF0oW09IXSlbQ0gyXU9jMltjSF1bY0hdW2NIXVtjSF1jMkMoRikoRilG

> <s_epik_cmdline>
J2VwaWtfcHl0aG9uJywgJy1waCcsICc3LjAnLCAnLXRuJywgJzgnLCAnLW1hJywgJzIwMCcsICctbWV0YWxfYmluZGluZycsICctaW1hZScsICc8aW5maWxlLm1hZT4nLCAnLW9tYWUnLCAnPG91dGZpbGUubWFlPic=

> <r_lp_tautomer_probability>
1

> <r_epik_Ionization_Penalty>
5.91655e-06

> <r_epik_Ionization_Penalty_Charging>
5.79937e-06

> <r_epik_Ionization_Penalty_Neutral>
1.17174e-07

> <r_epik_State_Penalty>
-0

> <r_epik_Charging_Adjusted_Penalty>
5.79937e-06

> <i_epik_Tot_Q>
0

> <i_epik_Tot_abs_Q>
0

> <r_epik_Metal_State_Penalty>
-0

> <b_epik_Metal_Only>
0

> <s_lp_Force_Field>
OPLS_2005

> <r_lp_Energy>
33.5011

> <b_lp_Chiralities_Consistent>
1

> <s_lp_Variant>
AV-unprocessed.smi:2407-1

> <Gold.Version>
5.8.1

> <Gold.Id.Protein>
6NUR|6NUR_protein|mol2

> <Gold.PLP.Fitness>
52.8009

> <Gold.PLP.PLP>
-51.8509

> <Gold.PLP.part.hbond>
-1.6801

> <Gold.PLP.part.metal>
0.0000

> <Gold.PLP.part.buried>
-4.2542

> <Gold.PLP.part.nonpolar>
-47.6531

> <Gold.PLP.part.repulsive>
2.7548

> <Gold.PLP.ligand.clash>
0.3676

> <Gold.PLP.ligand.torsion>
1.5309

> <Gold.PLP.Chemscore.Hbond>
1.2563

> <Gold.PLP.Chemscore.CHOScore>
0.0000

> <Gold.PLP.Chemscore.Metal>
0.0000

> <Gold.Chemscore.Hbonds>
donor molecule, donor type, donor heavy atom, donor atom, acceptor molecule, acceptor atom, score
      P1  H  7989  7998       L1     6  0.38
      P1  H  8011  8017       L1     6  0.83

> <Gold.PLP.Chemscore.Internal.Correction>
0.6104

> <Gold.Rescore>
     Score         DG    S(hbond)    S(metal)    S(lipo)     H(rot)  DE(clash)    DE(int)     intcor
      9.34     -13.81       0.73        0.00     107.44       2.60       0.17       4.30       ----

> <Gold.Chemscore.Fitness>
9.3353

> <Gold.Chemscore.DG>
-13.8131

> <Gold.Chemscore.ZeroCoef>
-5.4800

> <Gold.Chemscore.Hbond>
0.7267

> <Gold.Chemscore.Metal>
0.0000

> <Gold.Chemscore.Lipo>
107.4433

> <Gold.Chemscore.Internal_Hbond>
0.0000

> <Gold.Chemscore.DEClash>
0.1741

> <Gold.Chemscore.DEInternal>
4.3037

> <Gold.Chemscore.Rot>
2.6035

> <Gold.Chemscore.Internal.Correction>
   9.000000E+99

> <Gold.Chemscore.Hbonds>
donor molecule, donor type, donor heavy atom, donor atom, acceptor molecule, acceptor atom, score
      P1  H  7989  7998       L1     6  0.38
      P1  H  8011  8017       L1     6  0.27

> <Gold.Chemscore.Hbond.Weighted>
-2.4271

> <Gold.Chemscore.Metal.Weighted>
-0.0000

> <Gold.Chemscore.Lipo.Weighted>
-12.5709

> <Gold.Chemscore.Internal_Hbond.Weighted>
0.0000

> <Gold.Chemscore.DEClash.Weighted>
0.1741

> <Gold.Chemscore.DEInternal.Weighted>
4.3037

> <Gold.Chemscore.Rot.Weighted>
6.6649

> <Gold.Chemscore.Internal.Correction.Weighted>
   9.000000E+99

> <Gold.Protein.RotatedTorsions>
[ 6907 6896 6895 6894 ] final  129.01 input  -60.11 | X-H torsion
[ 7974 7965 7964 7962 ] final -105.24 input  175.53 | X-H torsion
[ 8008 7997 7996 7995 ] final  151.19 input   59.86 | X-H torsion
[ 10167 10162 10161 10158 ] final -148.10 input  -65.29 | X-H torsion
[ 10718 10713 10712 10709 ] final -133.25 input   66.30 | X-H torsion
[ 10763 10752 10751 10750 ] final   74.64 input  -60.55 | X-H torsion
[ 11005 11000 10999 10996 ] final   -3.56 input  -57.11 | X-H torsion

> <Gold.Protein.ActiveResidues>
 VAL166  LYS551  ARG553  GLY616  TRP617  ASP618  TYR619  PRO620  LYS621  CYS622 
 ASP623  PHE694  ASN695  SER759  ASP760  ASP761  ALA762  ILE779  LEU786  VAL792 
 PHE793  MET794  SER795  GLU796  ALA797  LYS798  CYS799  TRP800  GLU811  SER814 

> <Gold.Protein.RotatedAtoms>
  152.3665  133.6363  159.6054 H   0  0  0  0  0  0  0  0  0  0  0  0  # atno 6907 bound_to 6896
  150.7638  133.9339  159.3444 H   0  0  0  0  0  0  0  0  0  0  0  0  # atno 6908 bound_to 6896
  151.7169  135.0903  160.0328 H   0  0  0  0  0  0  0  0  0  0  0  0  # atno 6909 bound_to 6896
  145.2330  140.9177  143.3194 H   0  0  0  0  0  0  0  0  0  0  0  0  # atno 7974 bound_to 7965
  156.2684  140.2054  156.6137 H   0  0  0  0  0  0  0  0  0  0  0  0  # atno 8008 bound_to 7997
  154.6811  140.0540  157.0291 H   0  0  0  0  0  0  0  0  0  0  0  0  # atno 8009 bound_to 7997
  155.0999  140.3205  155.4553 H   0  0  0  0  0  0  0  0  0  0  0  0  # atno 8010 bound_to 7997
  139.7562  143.8445  152.2597 H   0  0  0  0  0  0  0  0  0  0  0  0  # atno 10167 bound_to 10162
  156.2430  130.7107  151.0976 H   0  0  0  0  0  0  0  0  0  0  0  0  # atno 10718 bound_to 10713
  153.0600  135.5018  154.8072 H   0  0  0  0  0  0  0  0  0  0  0  0  # atno 10763 bound_to 10752
  154.6868  135.2977  154.9538 H   0  0  0  0  0  0  0  0  0  0  0  0  # atno 10764 bound_to 10752
  154.0306  135.6730  153.4833 H   0  0  0  0  0  0  0  0  0  0  0  0  # atno 10765 bound_to 10752
  140.6707  133.9239  155.8492 H   0  0  0  0  0  0  0  0  0  0  0  0  # atno 11005 bound_to 11000
  144.9659  139.3930  143.6333 LP  0  0  0  0  0  0  0  0  0  0  0  0  # atno 17320 bound_to 7965
  146.3348  139.8734  142.8836 LP  0  0  0  0  0  0  0  0  0  0  0  0  # atno 17321 bound_to 7965
  139.8437  144.7197  150.9299 LP  0  0  0  0  0  0  0  0  0  0  0  0  # atno 17342 bound_to 10162
  140.7803  143.3960  151.1229 LP  0  0  0  0  0  0  0  0  0  0  0  0  # atno 17343 bound_to 10162
  157.7183  131.0697  150.6238 LP  0  0  0  0  0  0  0  0  0  0  0  0  # atno 17370 bound_to 10713
  156.6313  130.4433  149.5786 LP  0  0  0  0  0  0  0  0  0  0  0  0  # atno 17371 bound_to 10713
  141.0394  134.0642  157.3920 LP  0  0  0  0  0  0  0  0  0  0  0  0  # atno 17394 bound_to 11000
  139.8982  135.0154  156.7140 LP  0  0  0  0  0  0  0  0  0  0  0  0  # atno 17395 bound_to 11000

$$$$
