AV-unprocessed.smi:2164|AV-procd|sdf|8809|dock1
  -GOLD-   2272011593D 1   1.00000     0.00000
 Structure written by MMmdl.
 40 42  0  0  0  0  0  0  0  0  2 V2000
  150.5669  139.4607  154.5141 O   0  0  0  0  0  0  0  0  0  0  0  0
  150.8243  138.8734  155.5662 C   0  0  0  0  0  0  0  0  0  0  0  0
  151.1976  139.5366  156.6756 N   0  0  0  0  0  0  0  0  0  0  0  0
  151.3552  140.9845  156.7970 C   0  0  0  0  0  0  0  0  0  0  0  0
  152.1024  141.3922  158.0820 C   0  0  0  0  0  0  0  0  0  0  0  0
  151.6002  142.6871  158.6969 C   0  0  0  0  0  0  0  0  0  0  0  0
  152.1853  143.1930  159.8789 C   0  0  0  0  0  0  0  0  0  0  0  0
  151.7192  144.4112  160.4153 C   0  0  0  0  0  0  0  0  0  0  0  0
  150.6766  145.0961  159.7583 C   0  0  0  0  0  0  0  0  0  0  0  0
  150.1380  144.5796  158.6318 N   0  3  0  0  0  0  0  0  0  0  0  0
  150.5556  143.4159  158.0871 C   0  0  0  0  0  0  0  0  0  0  0  0
  150.7451  137.4219  155.7448 C   0  0  0  0  0  0  0  0  0  0  0  0
  149.9868  136.6864  154.9094 C   0  0  0  0  0  0  0  0  0  0  0  0
  149.8540  135.2996  155.0047 N   0  0  0  0  0  0  0  0  0  0  0  0
  148.9262  134.6364  154.0955 C   0  0  0  0  0  0  0  0  0  0  0  0
  149.5172  133.3271  153.5983 C   0  0  0  0  0  0  0  0  0  0  0  0
  149.7277  132.2634  155.0765 S   0  0  0  0  0  0  0  0  0  0  0  0
  148.4031  132.0609  155.6838 O   0  0  0  0  0  0  0  0  0  0  0  0
  150.5298  131.0938  154.6873 O   0  0  0  0  0  0  0  0  0  0  0  0
  150.6340  133.2747  156.0595 N   0  0  0  0  0  0  0  0  0  0  0  0
  150.5923  134.5696  155.9712 C   0  0  0  0  0  0  0  0  0  0  0  0
  151.3798  135.3642  156.9004 C   0  0  0  0  0  0  0  0  0  0  0  0
  151.4555  136.7071  156.7971 C   0  0  0  0  0  0  0  0  0  0  0  0
  151.3954  138.9907  157.5019 H   0  0  0  0  0  0  0  0  0  0  0  0
  151.9161  141.3316  155.9288 H   0  0  0  0  0  0  0  0  0  0  0  0
  150.3856  141.4829  156.7470 H   0  0  0  0  0  0  0  0  0  0  0  0
  152.0265  140.5920  158.8194 H   0  0  0  0  0  0  0  0  0  0  0  0
  153.1656  141.5023  157.8651 H   0  0  0  0  0  0  0  0  0  0  0  0
  152.9899  142.6597  160.3641 H   0  0  0  0  0  0  0  0  0  0  0  0
  152.1580  144.8156  161.3158 H   0  0  0  0  0  0  0  0  0  0  0  0
  150.2609  146.0340  160.0967 H   0  0  0  0  0  0  0  0  0  0  0  0
  150.0519  143.1120  157.1810 H   0  0  0  0  0  0  0  0  0  0  0  0
  149.4240  137.1304  154.0999 H   0  0  0  0  0  0  0  0  0  0  0  0
  147.9795  134.4648  154.6088 H   0  0  0  0  0  0  0  0  0  0  0  0
  148.7067  135.2740  153.2385 H   0  0  0  0  0  0  0  0  0  0  0  0
  148.8516  132.8241  152.8969 H   0  0  0  0  0  0  0  0  0  0  0  0
  150.4840  133.4713  153.1145 H   0  0  0  0  0  0  0  0  0  0  0  0
  151.9381  134.8957  157.6983 H   0  0  0  0  0  0  0  0  0  0  0  0
  152.0619  137.2336  157.5191 H   0  0  0  0  0  0  0  0  0  0  0  0
  149.3843  145.0913  158.1720 H   0  0  0  0  0  0  0  0  0  0  0  0
  1  2  2  0  0  0  0
  2  3  1  0  0  0  0
  2 12  1  0  0  0  0
  3  4  1  0  0  0  0
  3 24  1  0  0  0  0
  4  5  1  0  0  0  0
  4 25  1  0  0  0  0
  4 26  1  0  0  0  0
  5  6  1  0  0  0  0
  5 27  1  0  0  0  0
  5 28  1  0  0  0  0
  6 11  1  0  0  0  0
  6  7  2  0  0  0  0
  7  8  1  0  0  0  0
  7 29  1  0  0  0  0
  8  9  2  0  0  0  0
  8 30  1  0  0  0  0
  9 10  1  0  0  0  0
  9 31  1  0  0  0  0
 10 11  2  0  0  0  0
 10 40  1  0  0  0  0
 11 32  1  0  0  0  0
 12 23  1  0  0  0  0
 12 13  2  0  0  0  0
 13 14  1  0  0  0  0
 13 33  1  0  0  0  0
 14 21  1  0  0  0  0
 14 15  1  0  0  0  0
 15 16  1  0  0  0  0
 15 34  1  0  0  0  0
 15 35  1  0  0  0  0
 16 17  1  0  0  0  0
 16 36  1  0  0  0  0
 16 37  1  0  0  0  0
 17 18  2  0  0  0  0
 17 19  2  0  0  0  0
 17 20  1  0  0  0  0
 20 21  2  0  0  0  0
 21 22  1  0  0  0  0
 22 23  2  0  0  0  0
 22 38  1  0  0  0  0
 23 39  1  0  0  0  0
M  CHG  1  10   1
M  END
> <s_m_source_file>
AV-unprocessed.smi

> <i_m_source_file_index>
2164

> <i_lp_mmshare_version>
43012

> <i_f3d_flags>
0

> <s_epik_input>
W0NIMl0xW0NIMl1TKD1PKSg9TylOPUMoTjEyKVtDSF09W0NIXUMoPVtDSF0yKUMoPU8pW05IXVtDSDJdW0NIMl1jM1tjSF1bY0hdW2NIXW5bY0hdMw==

> <s_epik_cmdline>
J2VwaWtfcHl0aG9uJywgJy1waCcsICc3LjAnLCAnLXRuJywgJzgnLCAnLW1hJywgJzIwMCcsICctbWV0YWxfYmluZGluZycsICctaW1hZScsICc8aW5maWxlLm1hZT4nLCAnLW9tYWUnLCAnPG91dGZpbGUubWFlPic=

> <r_epik_Ionization_Penalty>
2.45963

> <r_epik_Ionization_Penalty_Charging>
2.45946

> <r_epik_Ionization_Penalty_Neutral>
0.000170278

> <r_epik_State_Penalty>
2.62155

> <r_epik_Charging_Adjusted_Penalty>
5.08101

> <i_epik_Tot_Q>
1

> <i_epik_Tot_abs_Q>
1

> <r_epik_Metal_State_Penalty>
2.85721

> <b_epik_Metal_Only>
0

> <s_lp_Force_Field>
OPLS_2005

> <r_lp_Energy>
29.3092

> <b_lp_Chiralities_Consistent>
1

> <s_lp_Variant>
AV-unprocessed.smi:2164-2

> <Gold.Version>
5.8.1

> <Gold.Id.Protein>
6NUR|6NUR_protein|mol2

> <Gold.PLP.Fitness>
44.5267

> <Gold.PLP.PLP>
-33.5476

> <Gold.PLP.part.hbond>
-2.6716

> <Gold.PLP.part.metal>
0.0000

> <Gold.PLP.part.buried>
-2.2622

> <Gold.PLP.part.nonpolar>
-28.6681

> <Gold.PLP.part.repulsive>
0.3634

> <Gold.PLP.ligand.clash>
0.0000

> <Gold.PLP.ligand.torsion>
0.5242

> <Gold.PLP.Chemscore.Hbond>
2.9913

> <Gold.PLP.Chemscore.CHOScore>
0.9949

> <Gold.PLP.Chemscore.Metal>
0.0000

> <Gold.Chemscore.Hbonds>
donor molecule, donor type, donor heavy atom, donor atom, acceptor molecule, acceptor atom, score
      L1  H    10    40       P1  8029  2.00
      P1  H  7989  7998       L1     1  0.99
      L1  C    13    33       P1  7948  0.97

> <Gold.PLP.Chemscore.Internal.Correction>
0.0689

> <Gold.Rescore>
     Score         DG    S(hbond)    S(metal)    S(lipo)     H(rot)  DE(clash)    DE(int)     intcor
     17.06     -19.04       1.95        0.00      93.80       1.54       1.39       0.60       ----

> <Gold.Chemscore.Fitness>
17.0561

> <Gold.Chemscore.DG>
-19.0390

> <Gold.Chemscore.ZeroCoef>
-5.4800

> <Gold.Chemscore.Hbond>
1.9508

> <Gold.Chemscore.Metal>
0.0000

> <Gold.Chemscore.Lipo>
93.7969

> <Gold.Chemscore.Internal_Hbond>
0.0000

> <Gold.Chemscore.DEClash>
1.3855

> <Gold.Chemscore.DEInternal>
0.5974

> <Gold.Chemscore.Rot>
1.5355

> <Gold.Chemscore.Internal.Correction>
   9.000000E+99

> <Gold.Chemscore.Hbonds>
donor molecule, donor type, donor heavy atom, donor atom, acceptor molecule, acceptor atom, score
      L1  H    10    40       P1  8029  0.39
      P1  H  7989  7998       L1     1  0.92

> <Gold.Chemscore.Hbond.Weighted>
-6.5157

> <Gold.Chemscore.Metal.Weighted>
-0.0000

> <Gold.Chemscore.Lipo.Weighted>
-10.9742

> <Gold.Chemscore.Internal_Hbond.Weighted>
0.0000

> <Gold.Chemscore.DEClash.Weighted>
1.3855

> <Gold.Chemscore.DEInternal.Weighted>
0.5974

> <Gold.Chemscore.Rot.Weighted>
3.9309

> <Gold.Chemscore.Internal.Correction.Weighted>
   9.000000E+99

> <Gold.Protein.RotatedTorsions>
[ 6907 6896 6895 6894 ] final  -17.65 input  -60.11 | X-H torsion
[ 7974 7965 7964 7962 ] final -102.50 input  175.53 | X-H torsion
[ 8008 7997 7996 7995 ] final   59.11 input   59.86 | X-H torsion
[ 10167 10162 10161 10158 ] final  -95.30 input  -65.29 | X-H torsion
[ 10718 10713 10712 10709 ] final  151.04 input   66.30 | X-H torsion
[ 10763 10752 10751 10750 ] final -114.29 input  -60.55 | X-H torsion
[ 11005 11000 10999 10996 ] final   72.03 input  -57.11 | X-H torsion

> <Gold.Protein.ActiveResidues>
 VAL166  LYS551  ARG553  GLY616  TRP617  ASP618  TYR619  PRO620  LYS621  CYS622 
 ASP623  PHE694  ASN695  SER759  ASP760  ASP761  ALA762  ILE779  LEU786  VAL792 
 PHE793  MET794  SER795  GLU796  ALA797  LYS798  CYS799  TRP800  GLU811  SER814 

> <Gold.Protein.RotatedAtoms>
  151.2901  135.0739  159.9200 H   0  0  0  0  0  0  0  0  0  0  0  0  # atno 6907 bound_to 6896
  152.5318  133.9940  159.7874 H   0  0  0  0  0  0  0  0  0  0  0  0  # atno 6908 bound_to 6896
  151.0209  133.5827  159.2702 H   0  0  0  0  0  0  0  0  0  0  0  0  # atno 6909 bound_to 6896
  145.2679  140.9289  143.3003 H   0  0  0  0  0  0  0  0  0  0  0  0  # atno 7974 bound_to 7965
  155.5610  140.3488  155.4491 H   0  0  0  0  0  0  0  0  0  0  0  0  # atno 8008 bound_to 7997
  156.0514  140.1318  157.0071 H   0  0  0  0  0  0  0  0  0  0  0  0  # atno 8009 bound_to 7997
  154.4436  140.1004  156.6367 H   0  0  0  0  0  0  0  0  0  0  0  0  # atno 8010 bound_to 7997
  140.3056  143.3136  152.0203 H   0  0  0  0  0  0  0  0  0  0  0  0  # atno 10167 bound_to 10162
  157.2758  131.0826  151.1567 H   0  0  0  0  0  0  0  0  0  0  0  0  # atno 10718 bound_to 10713
  154.8433  135.4423  154.1482 H   0  0  0  0  0  0  0  0  0  0  0  0  # atno 10763 bound_to 10752
  153.2650  135.6940  153.7546 H   0  0  0  0  0  0  0  0  0  0  0  0  # atno 10764 bound_to 10752
  153.6808  135.3403  155.3153 H   0  0  0  0  0  0  0  0  0  0  0  0  # atno 10765 bound_to 10752
  139.9512  134.7224  156.0858 H   0  0  0  0  0  0  0  0  0  0  0  0  # atno 11005 bound_to 11000
  144.9361  139.4242  143.6471 LP  0  0  0  0  0  0  0  0  0  0  0  0  # atno 17320 bound_to 7965
  146.3255  139.8297  142.8911 LP  0  0  0  0  0  0  0  0  0  0  0  0  # atno 17321 bound_to 7965
  139.4905  144.6423  151.6850 LP  0  0  0  0  0  0  0  0  0  0  0  0  # atno 17342 bound_to 10162
  140.5613  144.0263  150.6171 LP  0  0  0  0  0  0  0  0  0  0  0  0  # atno 17343 bound_to 10162
  157.3021  130.6848  149.6169 LP  0  0  0  0  0  0  0  0  0  0  0  0  # atno 17370 bound_to 10713
  155.9663  130.4389  150.5236 LP  0  0  0  0  0  0  0  0  0  0  0  0  # atno 17371 bound_to 10713
  141.1175  133.6623  156.3131 LP  0  0  0  0  0  0  0  0  0  0  0  0  # atno 17394 bound_to 11000
  140.5715  134.5836  157.5458 LP  0  0  0  0  0  0  0  0  0  0  0  0  # atno 17395 bound_to 11000

$$$$
