AV-unprocessed.smi:2237|AV-procd|sdf|9052|dock4
  -GOLD-   2272012253D 1   1.00000     0.00000
 Structure written by MMmdl.
 54 56  0  0  0  0  0  0  0  0  2 V2000
  145.8089  130.4910  152.0886 C   0  0  0  0  0  0  0  0  0  0  0  0
  147.0789  130.8283  152.8413 C   0  0  0  0  0  0  0  0  0  0  0  0
  147.8457  129.8196  153.4571 C   0  0  0  0  0  0  0  0  0  0  0  0
  149.0148  130.1998  154.1400 C   0  0  0  0  0  0  0  0  0  0  0  0
  149.3661  131.5630  154.1795 C   0  0  0  0  0  0  0  0  0  0  0  0
  148.5400  132.5126  153.5370 C   0  0  0  0  0  0  0  0  0  0  0  0
  148.9823  133.8588  153.6331 N   0  0  0  0  0  0  0  0  0  0  0  0
  149.6727  134.4371  154.6318 C   0  0  0  0  0  0  0  0  0  0  0  0
  150.0660  133.8688  155.6510 O   0  0  0  0  0  0  0  0  0  0  0  0
  149.8927  135.7363  154.3811 N   0  0  0  0  0  0  0  0  0  0  0  0
  150.6054  136.6528  155.2664 C   0  0  2  0  0  0  0  0  0  0  0  0
  149.6244  137.2874  156.2602 C   0  0  0  0  0  0  0  0  0  0  0  0
  150.3192  138.3276  157.1561 C   0  0  0  0  0  0  0  0  0  0  0  0
  150.9934  139.3897  156.3533 N   0  3  1  0  0  0  0  0  0  0  0  0
  151.6002  140.5067  157.1492 C   0  0  0  0  0  0  0  0  0  0  0  0
  152.4927  140.0394  158.3248 C   0  0  0  0  0  0  0  0  0  0  0  0
  153.0012  141.2238  159.1649 C   0  0  0  0  0  0  0  0  0  0  0  0
  151.8727  141.9804  159.7016 N   0  0  0  0  0  0  0  0  0  0  0  0
  152.3712  143.0565  160.5465 C   0  0  0  0  0  0  0  0  0  0  0  0
  151.0953  142.5481  158.6028 C   0  0  0  0  0  0  0  0  0  0  0  0
  150.5025  141.4223  157.7384 C   0  0  0  0  0  0  0  0  0  0  0  0
  151.9670  138.7848  155.3989 C   0  0  0  0  0  0  0  0  0  0  0  0
  151.2959  137.7662  154.4640 C   0  0  0  0  0  0  0  0  0  0  0  0
  147.4144  132.1359  152.8809 N   0  0  0  0  0  0  0  0  0  0  0  0
  145.7277  129.4179  151.9135 H   0  0  0  0  0  0  0  0  0  0  0  0
  145.7921  130.9939  151.1210 H   0  0  0  0  0  0  0  0  0  0  0  0
  144.9367  130.8123  152.6584 H   0  0  0  0  0  0  0  0  0  0  0  0
  147.5484  128.7824  153.4090 H   0  0  0  0  0  0  0  0  0  0  0  0
  149.6327  129.4592  154.6259 H   0  0  0  0  0  0  0  0  0  0  0  0
  150.2617  131.8708  154.6996 H   0  0  0  0  0  0  0  0  0  0  0  0
  148.7379  134.4510  152.8534 H   0  0  0  0  0  0  0  0  0  0  0  0
  149.5362  136.1199  153.5179 H   0  0  0  0  0  0  0  0  0  0  0  0
  151.3570  136.0970  155.8311 H   0  0  0  0  0  0  0  0  0  0  0  0
  148.8075  137.7676  155.7191 H   0  0  0  0  0  0  0  0  0  0  0  0
  149.1701  136.5140  156.8809 H   0  0  0  0  0  0  0  0  0  0  0  0
  149.5464  138.7530  157.7948 H   0  0  0  0  0  0  0  0  0  0  0  0
  151.0478  137.8422  157.8075 H   0  0  0  0  0  0  0  0  0  0  0  0
  152.2293  141.0953  156.4789 H   0  0  0  0  0  0  0  0  0  0  0  0
  151.9409  139.3518  158.9678 H   0  0  0  0  0  0  0  0  0  0  0  0
  153.3657  139.5004  157.9564 H   0  0  0  0  0  0  0  0  0  0  0  0
  153.6112  140.8484  159.9878 H   0  0  0  0  0  0  0  0  0  0  0  0
  153.6403  141.8716  158.5622 H   0  0  0  0  0  0  0  0  0  0  0  0
  151.5430  143.6284  160.9663 H   0  0  0  0  0  0  0  0  0  0  0  0
  153.0098  143.7414  159.9865 H   0  0  0  0  0  0  0  0  0  0  0  0
  152.9496  142.6532  161.3786 H   0  0  0  0  0  0  0  0  0  0  0  0
  150.2865  143.1579  159.0076 H   0  0  0  0  0  0  0  0  0  0  0  0
  151.7196  143.2057  157.9952 H   0  0  0  0  0  0  0  0  0  0  0  0
  149.9061  141.8834  156.9531 H   0  0  0  0  0  0  0  0  0  0  0  0
  149.8105  140.8302  158.3397 H   0  0  0  0  0  0  0  0  0  0  0  0
  152.4371  139.5479  154.7820 H   0  0  0  0  0  0  0  0  0  0  0  0
  152.7695  138.3007  155.9580 H   0  0  0  0  0  0  0  0  0  0  0  0
  152.0438  137.3390  153.7946 H   0  0  0  0  0  0  0  0  0  0  0  0
  150.5693  138.2768  153.8300 H   0  0  0  0  0  0  0  0  0  0  0  0
  150.2641  139.8124  155.7967 H   0  0  0  0  0  0  0  0  0  0  0  0
  1  2  1  0  0  0  0
  1 25  1  0  0  0  0
  1 26  1  0  0  0  0
  1 27  1  0  0  0  0
  2 24  1  0  0  0  0
  2  3  2  0  0  0  0
  3  4  1  0  0  0  0
  3 28  1  0  0  0  0
  4  5  2  0  0  0  0
  4 29  1  0  0  0  0
  5  6  1  0  0  0  0
  5 30  1  0  0  0  0
  6  7  1  0  0  0  0
  6 24  2  0  0  0  0
  7  8  1  0  0  0  0
  7 31  1  0  0  0  0
  8  9  2  0  0  0  0
  8 10  1  0  0  0  0
 10 11  1  0  0  0  0
 10 32  1  0  0  0  0
 11 23  1  0  0  0  0
 11 12  1  0  0  0  0
 11 33  1  0  0  0  0
 12 13  1  0  0  0  0
 12 34  1  0  0  0  0
 12 35  1  0  0  0  0
 13 14  1  0  0  0  0
 13 36  1  0  0  0  0
 13 37  1  0  0  0  0
 14 15  1  0  0  0  0
 14 22  1  0  0  0  0
 14 54  1  0  0  0  0
 15 21  1  0  0  0  0
 15 16  1  0  0  0  0
 15 38  1  0  0  0  0
 16 17  1  0  0  0  0
 16 39  1  0  0  0  0
 16 40  1  0  0  0  0
 17 18  1  0  0  0  0
 17 41  1  0  0  0  0
 17 42  1  0  0  0  0
 18 19  1  0  0  0  0
 18 20  1  0  0  0  0
 19 43  1  0  0  0  0
 19 44  1  0  0  0  0
 19 45  1  0  0  0  0
 20 21  1  0  0  0  0
 20 46  1  0  0  0  0
 20 47  1  0  0  0  0
 21 48  1  0  0  0  0
 21 49  1  0  0  0  0
 22 23  1  0  0  0  0
 22 50  1  0  0  0  0
 22 51  1  0  0  0  0
 23 52  1  0  0  0  0
 23 53  1  0  0  0  0
M  CHG  1  14   1
M  END
> <s_m_source_file>
AV-unprocessed.smi

> <i_m_source_file_index>
2237

> <i_lp_mmshare_version>
43012

> <i_f3d_flags>
0

> <s_epik_input>
W0NIM11jMVtjSF1bY0hdW2NIXWMobjEpW05IXUMoPU8pW05IXVtDSF0yW0NIMl1bQ0gyXU4oW0NIMl1bQ0gyXTIpW0NIXTNbQ0gyXVtDSDJdTihbQ0gzXSlbQ0gyXVtDSDJdMw==

> <s_epik_cmdline>
J2VwaWtfcHl0aG9uJywgJy1waCcsICc3LjAnLCAnLXRuJywgJzgnLCAnLW1hJywgJzIwMCcsICctbWV0YWxfYmluZGluZycsICctaW1hZScsICc8aW5maWxlLm1hZT4nLCAnLW9tYWUnLCAnPG91dGZpbGUubWFlPic=

> <r_epik_Ionization_Penalty>
1.37251

> <r_epik_Ionization_Penalty_Charging>
0.00081195

> <r_epik_Ionization_Penalty_Neutral>
1.3717

> <r_epik_State_Penalty>
1.55149

> <r_epik_Charging_Adjusted_Penalty>
1.5523

> <i_epik_Tot_Q>
1

> <i_epik_Tot_abs_Q>
1

> <r_epik_Metal_State_Penalty>
1.55149

> <b_epik_Metal_Only>
0

> <s_lp_Force_Field>
OPLS_2005

> <r_lp_Energy>
32.6589

> <b_lp_Chiralities_Consistent>
1

> <s_lp_Variant>
AV-unprocessed.smi:2237-7

> <Gold.Version>
5.8.1

> <Gold.Id.Protein>
6NUR|6NUR_protein|mol2

> <Gold.PLP.Fitness>
45.1719

> <Gold.PLP.PLP>
-40.8855

> <Gold.PLP.part.hbond>
-2.1644

> <Gold.PLP.part.metal>
0.0000

> <Gold.PLP.part.buried>
-6.0493

> <Gold.PLP.part.nonpolar>
-33.2310

> <Gold.PLP.part.repulsive>
0.2748

> <Gold.PLP.ligand.clash>
0.0000

> <Gold.PLP.ligand.torsion>
0.8136

> <Gold.PLP.Chemscore.Hbond>
1.9600

> <Gold.PLP.Chemscore.CHOScore>
0.0000

> <Gold.PLP.Chemscore.Metal>
0.0000

> <Gold.Chemscore.Hbonds>
donor molecule, donor type, donor heavy atom, donor atom, acceptor molecule, acceptor atom, score
      L1  H     7    31       P1  7948  0.64
      L1  H    10    32       P1  7948  1.00

> <Gold.PLP.Chemscore.Internal.Correction>
0.0337

> <Gold.Rescore>
     Score         DG    S(hbond)    S(metal)    S(lipo)     H(rot)  DE(clash)    DE(int)     intcor
     16.86     -19.10       1.49        0.00     100.54       1.21       0.11       2.14       ----

> <Gold.Chemscore.Fitness>
16.8570

> <Gold.Chemscore.DG>
-19.1035

> <Gold.Chemscore.ZeroCoef>
-5.4800

> <Gold.Chemscore.Hbond>
1.4853

> <Gold.Chemscore.Metal>
0.0000

> <Gold.Chemscore.Lipo>
100.5434

> <Gold.Chemscore.Internal_Hbond>
0.0000

> <Gold.Chemscore.DEClash>
0.1104

> <Gold.Chemscore.DEInternal>
2.1361

> <Gold.Chemscore.Rot>
1.2113

> <Gold.Chemscore.Internal.Correction>
   9.000000E+99

> <Gold.Chemscore.Hbonds>
donor molecule, donor type, donor heavy atom, donor atom, acceptor molecule, acceptor atom, score
      L1  H     7    31       P1  7948  0.05
      L1  H    10    32       P1  7948  0.45

> <Gold.Chemscore.Hbond.Weighted>
-4.9608

> <Gold.Chemscore.Metal.Weighted>
-0.0000

> <Gold.Chemscore.Lipo.Weighted>
-11.7636

> <Gold.Chemscore.Internal_Hbond.Weighted>
0.0000

> <Gold.Chemscore.DEClash.Weighted>
0.1104

> <Gold.Chemscore.DEInternal.Weighted>
2.1361

> <Gold.Chemscore.Rot.Weighted>
3.1009

> <Gold.Chemscore.Internal.Correction.Weighted>
   9.000000E+99

> <Gold.Protein.RotatedTorsions>
[ 6907 6896 6895 6894 ] final   85.69 input  -60.11 | X-H torsion
[ 7974 7965 7964 7962 ] final -121.56 input  175.53 | X-H torsion
[ 8008 7997 7996 7995 ] final -144.40 input   59.86 | X-H torsion
[ 10167 10162 10161 10158 ] final   23.59 input  -65.29 | X-H torsion
[ 10718 10713 10712 10709 ] final  143.35 input   66.30 | X-H torsion
[ 10763 10752 10751 10750 ] final   36.75 input  -60.55 | X-H torsion
[ 11005 11000 10999 10996 ] final    2.68 input  -57.11 | X-H torsion

> <Gold.Protein.ActiveResidues>
 VAL166  LYS551  ARG553  GLY616  TRP617  ASP618  TYR619  PRO620  LYS621  CYS622 
 ASP623  PHE694  ASN695  SER759  ASP760  ASP761  ALA762  ILE779  LEU786  VAL792 
 PHE793  MET794  SER795  GLU796  ALA797  LYS798  CYS799  TRP800  GLU811  SER814 

> <Gold.Protein.RotatedAtoms>
  152.5380  134.2548  159.8912 H   0  0  0  0  0  0  0  0  0  0  0  0  # atno 6907 bound_to 6896
  151.2509  133.4344  159.2619 H   0  0  0  0  0  0  0  0  0  0  0  0  # atno 6908 bound_to 6896
  151.0540  134.9706  159.8282 H   0  0  0  0  0  0  0  0  0  0  0  0  # atno 6909 bound_to 6896
  145.0390  140.8129  143.4278 H   0  0  0  0  0  0  0  0  0  0  0  0  # atno 7974 bound_to 7965
  155.5263  140.0596  157.2897 H   0  0  0  0  0  0  0  0  0  0  0  0  # atno 8008 bound_to 7997
  154.4500  140.1943  156.0494 H   0  0  0  0  0  0  0  0  0  0  0  0  # atno 8009 bound_to 7997
  156.0683  140.3263  155.7549 H   0  0  0  0  0  0  0  0  0  0  0  0  # atno 8010 bound_to 7997
  140.5256  143.9928  150.6439 H   0  0  0  0  0  0  0  0  0  0  0  0  # atno 10167 bound_to 10162
  157.3700  131.0977  151.0837 H   0  0  0  0  0  0  0  0  0  0  0  0  # atno 10718 bound_to 10713
  153.0064  135.6297  154.2035 H   0  0  0  0  0  0  0  0  0  0  0  0  # atno 10763 bound_to 10752
  154.1779  135.2815  155.3063 H   0  0  0  0  0  0  0  0  0  0  0  0  # atno 10764 bound_to 10752
  154.5858  135.5633  153.7289 H   0  0  0  0  0  0  0  0  0  0  0  0  # atno 10765 bound_to 10752
  140.6016  133.9830  155.8135 H   0  0  0  0  0  0  0  0  0  0  0  0  # atno 11005 bound_to 11000
  145.1673  139.2424  143.5360 LP  0  0  0  0  0  0  0  0  0  0  0  0  # atno 17320 bound_to 7965
  146.3507  140.1415  142.8594 LP  0  0  0  0  0  0  0  0  0  0  0  0  # atno 17321 bound_to 7965
  140.3289  143.3090  152.0707 LP  0  0  0  0  0  0  0  0  0  0  0  0  # atno 17342 bound_to 10162
  139.4937  144.6523  151.6649 LP  0  0  0  0  0  0  0  0  0  0  0  0  # atno 17343 bound_to 10162
  157.1945  130.6366  149.5716 LP  0  0  0  0  0  0  0  0  0  0  0  0  # atno 17370 bound_to 10713
  155.9753  130.4711  150.6454 LP  0  0  0  0  0  0  0  0  0  0  0  0  # atno 17371 bound_to 10713
  141.0868  133.9978  157.3300 LP  0  0  0  0  0  0  0  0  0  0  0  0  # atno 17394 bound_to 11000
  139.9230  135.0201  156.8133 LP  0  0  0  0  0  0  0  0  0  0  0  0  # atno 17395 bound_to 11000

$$$$
