AV-unprocessed.smi:1254|AV-procd|sdf|5278|dock8
  -GOLD-   22720 4393D 1   1.00000     0.00000
 Structure written by MMmdl.
 45 46  0  0  0  0  0  0  0  0  3 V2000
  151.2385  140.5492  155.9597 C   0  0  0  0  0  0  0  0  0  0  0  0
  151.0085  139.0989  155.7038 C   0  0  0  0  0  0  0  0  0  0  0  0
  151.4396  138.2504  154.7239 C   0  0  0  0  0  0  0  0  0  0  0  0
  150.8399  137.0116  155.0798 C   0  0  0  0  0  0  0  0  0  0  0  0
  150.9761  135.8518  154.4186 N   0  5  0  0  0  0  0  0  0  0  0  0
  150.3270  134.7445  154.8455 C   0  0  0  0  0  0  0  0  0  0  0  0
  150.6246  134.0484  155.8188 O   0  0  0  0  0  0  0  0  0  0  0  0
  149.2643  134.4235  154.0975 N   0  0  0  0  0  0  0  0  0  0  0  0
  148.3882  133.2838  154.3317 C   0  0  0  0  0  0  0  0  0  0  0  0
  147.8921  132.7020  153.0013 C   0  0  1  0  0  0  0  0  0  0  0  0
  147.4694  131.2264  153.1415 C   0  0  0  0  0  0  0  0  0  0  0  0
  146.9281  130.7144  151.8581 N   0  3  1  0  0  0  0  0  0  0  0  0
  146.5427  129.2804  151.9015 C   0  0  0  0  0  0  0  0  0  0  0  0
  147.7496  128.3310  152.0631 C   0  0  0  0  0  0  0  0  0  0  0  0
  148.0933  127.6097  150.7488 C   0  0  0  0  0  0  0  0  0  0  0  0
  147.4861  127.3108  153.1806 C   0  0  0  0  0  0  0  0  0  0  0  0
  145.8246  131.5811  151.3814 C   0  0  0  0  0  0  0  0  0  0  0  0
  146.2878  133.0442  151.2997 C   0  0  0  0  0  0  0  0  0  0  0  0
  146.7650  133.4599  152.5719 O   0  0  0  0  0  0  0  0  0  0  0  0
  150.1233  137.0964  156.1885 N   0  0  0  0  0  0  0  0  0  0  0  0
  150.2202  138.4339  156.5909 O   0  0  0  0  0  0  0  0  0  0  0  0
  152.3019  140.7843  155.9178 H   0  0  0  0  0  0  0  0  0  0  0  0
  150.8670  140.8390  156.9428 H   0  0  0  0  0  0  0  0  0  0  0  0
  150.7279  141.1569  155.2126 H   0  0  0  0  0  0  0  0  0  0  0  0
  152.0784  138.4789  153.8839 H   0  0  0  0  0  0  0  0  0  0  0  0
  149.0498  135.0190  153.3112 H   0  0  0  0  0  0  0  0  0  0  0  0
  148.9426  132.5266  154.8881 H   0  0  0  0  0  0  0  0  0  0  0  0
  147.5418  133.5852  154.9512 H   0  0  0  0  0  0  0  0  0  0  0  0
  148.6901  132.7821  152.2600 H   0  0  0  0  0  0  0  0  0  0  0  0
  148.3305  130.6359  153.4519 H   0  0  0  0  0  0  0  0  0  0  0  0
  146.7143  131.1246  153.9229 H   0  0  0  0  0  0  0  0  0  0  0  0
  145.8223  129.1281  152.7067 H   0  0  0  0  0  0  0  0  0  0  0  0
  146.0239  129.0181  150.9780 H   0  0  0  0  0  0  0  0  0  0  0  0
  148.6220  128.9087  152.3669 H   0  0  0  0  0  0  0  0  0  0  0  0
  147.2513  127.0171  150.3893 H   0  0  0  0  0  0  0  0  0  0  0  0
  148.9397  126.9351  150.8817 H   0  0  0  0  0  0  0  0  0  0  0  0
  148.3630  128.3162  149.9635 H   0  0  0  0  0  0  0  0  0  0  0  0
  146.6261  126.6810  152.9496 H   0  0  0  0  0  0  0  0  0  0  0  0
  147.2881  127.8089  154.1303 H   0  0  0  0  0  0  0  0  0  0  0  0
  148.3462  126.6568  153.3279 H   0  0  0  0  0  0  0  0  0  0  0  0
  145.4888  131.2493  150.3981 H   0  0  0  0  0  0  0  0  0  0  0  0
  144.9729  131.4953  152.0582 H   0  0  0  0  0  0  0  0  0  0  0  0
  147.0662  133.1675  150.5450 H   0  0  0  0  0  0  0  0  0  0  0  0
  145.4567  133.6864  151.0076 H   0  0  0  0  0  0  0  0  0  0  0  0
  147.6656  130.7939  151.1725 H   0  0  0  0  0  0  0  0  0  0  0  0
  1  2  1  0  0  0  0
  1 22  1  0  0  0  0
  1 23  1  0  0  0  0
  1 24  1  0  0  0  0
  2 21  1  0  0  0  0
  2  3  2  0  0  0  0
  3  4  1  0  0  0  0
  3 25  1  0  0  0  0
  4  5  1  0  0  0  0
  4 20  2  0  0  0  0
  5  6  1  0  0  0  0
  6  7  2  0  0  0  0
  6  8  1  0  0  0  0
  8  9  1  0  0  0  0
  8 26  1  0  0  0  0
  9 10  1  0  0  0  0
  9 27  1  0  0  0  0
  9 28  1  0  0  0  0
 10 19  1  0  0  0  0
 10 11  1  0  0  0  0
 10 29  1  0  0  0  0
 11 12  1  0  0  0  0
 11 30  1  0  0  0  0
 11 31  1  0  0  0  0
 12 13  1  0  0  0  0
 12 17  1  0  0  0  0
 12 45  1  0  0  0  0
 13 14  1  0  0  0  0
 13 32  1  0  0  0  0
 13 33  1  0  0  0  0
 14 15  1  0  0  0  0
 14 16  1  0  0  0  0
 14 34  1  0  0  0  0
 15 35  1  0  0  0  0
 15 36  1  0  0  0  0
 15 37  1  0  0  0  0
 16 38  1  0  0  0  0
 16 39  1  0  0  0  0
 16 40  1  0  0  0  0
 17 18  1  0  0  0  0
 17 41  1  0  0  0  0
 17 42  1  0  0  0  0
 18 19  1  0  0  0  0
 18 43  1  0  0  0  0
 18 44  1  0  0  0  0
 20 21  1  0  0  0  0
M  CHG  1   5  -1
M  CHG  1  12   1
M  END
> <s_m_source_file>
AV-unprocessed.smi

> <i_m_source_file_index>
1254

> <i_lp_mmshare_version>
43012

> <i_f3d_flags>
0

> <s_epik_input>
W0NIM11jMVtjSF1jKG5vMSlbTkhdQyg9TylbTkhdW0NIMl1bQ0BASF0yW0NIMl1OKFtDSDJdW0NIMl1PMilbQ0gyXVtDSF0oW0NIM10pW0NIM10=

> <s_epik_cmdline>
J2VwaWtfcHl0aG9uJywgJy1waCcsICc3LjAnLCAnLXRuJywgJzgnLCAnLW1hJywgJzIwMCcsICctbWV0YWxfYmluZGluZycsICctaW1hZScsICc8aW5maWxlLm1hZT4nLCAnLW9tYWUnLCAnPG91dGZpbGUubWFlPic=

> <r_epik_Ionization_Penalty>
6.33139

> <r_epik_Ionization_Penalty_Charging>
6.33128

> <r_epik_Ionization_Penalty_Neutral>
0.000104968

> <r_epik_State_Penalty>
6.32522

> <r_epik_Charging_Adjusted_Penalty>
12.6565

> <i_epik_Tot_Q>
0

> <i_epik_Tot_abs_Q>
2

> <r_epik_Metal_State_Penalty>
2.26285

> <b_epik_Metal_Only>
1

> <s_lp_Force_Field>
OPLS_2005

> <r_lp_Energy>
6.3285

> <b_lp_Chiralities_Consistent>
1

> <s_lp_Variant>
AV-unprocessed.smi:1254-10

> <Gold.Version>
5.8.1

> <Gold.Id.Protein>
6NUR|6NUR_protein|mol2

> <Gold.PLP.Fitness>
45.7980

> <Gold.PLP.PLP>
-37.3355

> <Gold.PLP.part.hbond>
-3.0000

> <Gold.PLP.part.metal>
0.0000

> <Gold.PLP.part.buried>
-5.4353

> <Gold.PLP.part.nonpolar>
-31.0361

> <Gold.PLP.part.repulsive>
1.6595

> <Gold.PLP.ligand.clash>
0.0000

> <Gold.PLP.ligand.torsion>
1.8525

> <Gold.PLP.Chemscore.Hbond>
4.0000

> <Gold.PLP.Chemscore.CHOScore>
0.0000

> <Gold.PLP.Chemscore.Metal>
0.0000

> <Gold.Chemscore.Hbonds>
donor molecule, donor type, donor heavy atom, donor atom, acceptor molecule, acceptor atom, score
      L1  H     8    26       P1  7948  0.95
      L1  H    12    45       P1 10747  1.00
      P1  H 10752 10765       L1     5  2.00

> <Gold.PLP.Chemscore.Internal.Correction>
0.1676

> <Gold.Rescore>
     Score         DG    S(hbond)    S(metal)    S(lipo)     H(rot)  DE(clash)    DE(int)     intcor
     16.01     -18.04       2.10        0.00      84.35       1.69       0.17       1.86       ----

> <Gold.Chemscore.Fitness>
16.0099

> <Gold.Chemscore.DG>
-18.0401

> <Gold.Chemscore.ZeroCoef>
-5.4800

> <Gold.Chemscore.Hbond>
2.1031

> <Gold.Chemscore.Metal>
0.0000

> <Gold.Chemscore.Lipo>
84.3485

> <Gold.Chemscore.Internal_Hbond>
0.0000

> <Gold.Chemscore.DEClash>
0.1688

> <Gold.Chemscore.DEInternal>
1.8614

> <Gold.Chemscore.Rot>
1.6926

> <Gold.Chemscore.Internal.Correction>
   9.000000E+99

> <Gold.Chemscore.Hbonds>
donor molecule, donor type, donor heavy atom, donor atom, acceptor molecule, acceptor atom, score
      L1  H     8    26       P1  7948  0.22
      L1  H    12    45       P1 10747  0.98
      P1  H 10752 10765       L1     5  0.38

> <Gold.Chemscore.Hbond.Weighted>
-7.0244

> <Gold.Chemscore.Metal.Weighted>
-0.0000

> <Gold.Chemscore.Lipo.Weighted>
-9.8688

> <Gold.Chemscore.Internal_Hbond.Weighted>
0.0000

> <Gold.Chemscore.DEClash.Weighted>
0.1688

> <Gold.Chemscore.DEInternal.Weighted>
1.8614

> <Gold.Chemscore.Rot.Weighted>
4.3330

> <Gold.Chemscore.Internal.Correction.Weighted>
   9.000000E+99

> <Gold.Protein.RotatedTorsions>
[ 6907 6896 6895 6894 ] final  -20.78 input  -60.11 | X-H torsion
[ 7974 7965 7964 7962 ] final  146.20 input  175.53 | X-H torsion
[ 8008 7997 7996 7995 ] final -159.09 input   59.86 | X-H torsion
[ 10167 10162 10161 10158 ] final   51.51 input  -65.29 | X-H torsion
[ 10718 10713 10712 10709 ] final -102.32 input   66.30 | X-H torsion
[ 10763 10752 10751 10750 ] final  160.24 input  -60.55 | X-H torsion
[ 11005 11000 10999 10996 ] final  103.68 input  -57.11 | X-H torsion

> <Gold.Protein.ActiveResidues>
 VAL166  LYS551  ARG553  GLY616  TRP617  ASP618  TYR619  PRO620  LYS621  CYS622 
 ASP623  PHE694  ASN695  SER759  ASP760  ASP761  ALA762  ILE779  LEU786  VAL792 
 PHE793  MET794  SER795  GLU796  ALA797  LYS798  CYS799  TRP800  GLU811  SER814 

> <Gold.Protein.RotatedAtoms>
  151.2430  135.0595  159.9032 H   0  0  0  0  0  0  0  0  0  0  0  0  # atno 6907 bound_to 6896
  152.5390  134.0413  159.8079 H   0  0  0  0  0  0  0  0  0  0  0  0  # atno 6908 bound_to 6896
  151.0610  133.5495  159.2665 H   0  0  0  0  0  0  0  0  0  0  0  0  # atno 6909 bound_to 6896
  144.8690  139.5876  143.5895 H   0  0  0  0  0  0  0  0  0  0  0  0  # atno 7974 bound_to 7965
  155.7573  140.0834  157.2172 H   0  0  0  0  0  0  0  0  0  0  0  0  # atno 8008 bound_to 7997
  154.4006  140.1549  156.2849 H   0  0  0  0  0  0  0  0  0  0  0  0  # atno 8009 bound_to 7997
  155.8873  140.3417  155.5933 H   0  0  0  0  0  0  0  0  0  0  0  0  # atno 8010 bound_to 7997
  140.2611  144.3371  150.6318 H   0  0  0  0  0  0  0  0  0  0  0  0  # atno 10167 bound_to 10162
  156.0225  130.5414  150.7091 H   0  0  0  0  0  0  0  0  0  0  0  0  # atno 10718 bound_to 10713
  154.2442  135.2773  155.2842 H   0  0  0  0  0  0  0  0  0  0  0  0  # atno 10763 bound_to 10752
  154.5519  135.5672  153.6933 H   0  0  0  0  0  0  0  0  0  0  0  0  # atno 10764 bound_to 10752
  152.9993  135.6276  154.2587 H   0  0  0  0  0  0  0  0  0  0  0  0  # atno 10765 bound_to 10752
  139.8785  134.9272  156.5247 H   0  0  0  0  0  0  0  0  0  0  0  0  # atno 11005 bound_to 11000
  146.2917  139.7158  142.9156 LP  0  0  0  0  0  0  0  0  0  0  0  0  # atno 17320 bound_to 7965
  145.4166  141.0402  143.2987 LP  0  0  0  0  0  0  0  0  0  0  0  0  # atno 17321 bound_to 7965
  140.5965  143.2167  151.7155 LP  0  0  0  0  0  0  0  0  0  0  0  0  # atno 17342 bound_to 10162
  139.5016  144.3860  152.0328 LP  0  0  0  0  0  0  0  0  0  0  0  0  # atno 17343 bound_to 10162
  157.4734  131.0895  151.0617 LP  0  0  0  0  0  0  0  0  0  0  0  0  # atno 17370 bound_to 10713
  157.1071  130.6006  149.5473 LP  0  0  0  0  0  0  0  0  0  0  0  0  # atno 17371 bound_to 10713
  140.8425  133.8194  155.9088 LP  0  0  0  0  0  0  0  0  0  0  0  0  # atno 17394 bound_to 11000
  140.9224  134.2125  157.4918 LP  0  0  0  0  0  0  0  0  0  0  0  0  # atno 17395 bound_to 11000

$$$$
