AV-unprocessed.smi:1225|AV-procd|sdf|5138|dock4
  -GOLD-   22720 4203D 1   1.00000     0.00000
 Structure written by MMmdl.
 49 51  0  0  0  0  0  0  0  0  2 V2000
  145.3498  133.7613  151.5747 C   0  0  0  0  0  0  0  0  0  0  0  0
  145.4800  135.1234  152.1656 C   0  0  0  0  0  0  0  0  0  0  0  0
  144.8456  136.1986  151.6929 N   0  0  0  0  0  0  0  0  0  0  0  0
  145.1351  137.3527  152.4246 C   0  0  0  0  0  0  0  0  0  0  0  0
  145.9988  137.1451  153.4717 C   0  0  0  0  0  0  0  0  0  0  0  0
  146.5113  138.1605  154.4434 C   0  0  0  0  0  0  0  0  0  0  0  0
  147.3964  137.6051  155.4684 N   0  0  0  0  0  0  0  0  0  0  0  0
  146.6720  137.3686  156.7172 C   0  0  0  0  0  0  0  0  0  0  0  0
  148.5535  138.4800  155.6723 C   0  0  0  0  0  0  0  0  0  0  0  0
  149.6385  138.4102  154.5795 C   0  0  2  0  0  0  0  0  0  0  0  0
  149.9498  137.0496  154.3580 O   0  0  0  0  0  0  0  0  0  0  0  0
  150.9246  139.1619  154.9797 C   0  0  0  0  0  0  0  0  0  0  0  0
  150.6538  140.4212  155.6846 N   0  0  0  0  0  0  0  0  0  0  0  0
  149.8096  141.4404  155.3682 C   0  0  0  0  0  0  0  0  0  0  0  0
  149.9249  142.3848  156.3431 N   0  3  0  0  0  0  0  0  0  0  0  0
  150.8593  141.9634  157.2920 C   0  0  0  0  0  0  0  0  0  0  0  0
  151.3162  142.5723  158.4548 C   0  0  0  0  0  0  0  0  0  0  0  0
  152.2839  141.8731  159.2116 C   0  0  0  0  0  0  0  0  0  0  0  0
  152.8042  142.5109  160.4886 C   0  0  0  0  0  0  0  0  0  0  0  0
  152.7616  140.6039  158.7929 C   0  0  0  0  0  0  0  0  0  0  0  0
  153.8017  139.8607  159.6140 C   0  0  0  0  0  0  0  0  0  0  0  0
  152.2849  140.0019  157.6065 C   0  0  0  0  0  0  0  0  0  0  0  0
  151.3315  140.7045  156.8742 C   0  0  0  0  0  0  0  0  0  0  0  0
  146.4901  135.4724  153.5630 S   0  0  0  0  0  0  0  0  0  0  0  0
  144.7634  133.7947  150.6560 H   0  0  0  0  0  0  0  0  0  0  0  0
  144.8550  133.0954  152.2818 H   0  0  0  0  0  0  0  0  0  0  0  0
  146.3364  133.3586  151.3449 H   0  0  0  0  0  0  0  0  0  0  0  0
  144.6774  138.2859  152.1312 H   0  0  0  0  0  0  0  0  0  0  0  0
  147.0470  138.9223  153.8758 H   0  0  0  0  0  0  0  0  0  0  0  0
  145.6735  138.6745  154.9172 H   0  0  0  0  0  0  0  0  0  0  0  0
  147.3031  136.8815  157.4586 H   0  0  0  0  0  0  0  0  0  0  0  0
  145.8163  136.7122  156.5592 H   0  0  0  0  0  0  0  0  0  0  0  0
  146.3051  138.3035  157.1426 H   0  0  0  0  0  0  0  0  0  0  0  0
  148.2135  139.5151  155.7316 H   0  0  0  0  0  0  0  0  0  0  0  0
  149.0017  138.2606  156.6431 H   0  0  0  0  0  0  0  0  0  0  0  0
  149.2540  138.7988  153.6375 H   0  0  0  0  0  0  0  0  0  0  0  0
  149.8476  136.8656  153.4369 H   0  0  0  0  0  0  0  0  0  0  0  0
  151.5593  138.5447  155.6168 H   0  0  0  0  0  0  0  0  0  0  0  0
  151.5162  139.4005  154.0947 H   0  0  0  0  0  0  0  0  0  0  0  0
  149.1644  141.4895  154.5026 H   0  0  0  0  0  0  0  0  0  0  0  0
  150.9480  143.5387  158.7669 H   0  0  0  0  0  0  0  0  0  0  0  0
  152.5648  141.8888  161.3512 H   0  0  0  0  0  0  0  0  0  0  0  0
  152.3614  143.4938  160.6528 H   0  0  0  0  0  0  0  0  0  0  0  0
  153.8860  142.6375  160.4417 H   0  0  0  0  0  0  0  0  0  0  0  0
  154.0408  138.8926  159.1729 H   0  0  0  0  0  0  0  0  0  0  0  0
  153.4372  139.6836  160.6260 H   0  0  0  0  0  0  0  0  0  0  0  0
  154.7251  140.4374  159.6734 H   0  0  0  0  0  0  0  0  0  0  0  0
  152.6480  139.0365  157.2857 H   0  0  0  0  0  0  0  0  0  0  0  0
  149.4044  143.2526  156.3562 H   0  0  0  0  0  0  0  0  0  0  0  0
  1  2  1  0  0  0  0
  1 25  1  0  0  0  0
  1 26  1  0  0  0  0
  1 27  1  0  0  0  0
  2 24  1  0  0  0  0
  2  3  2  0  0  0  0
  3  4  1  0  0  0  0
  4  5  2  0  0  0  0
  4 28  1  0  0  0  0
  5  6  1  0  0  0  0
  5 24  1  0  0  0  0
  6  7  1  0  0  0  0
  6 29  1  0  0  0  0
  6 30  1  0  0  0  0
  7  8  1  0  0  0  0
  7  9  1  0  0  0  0
  8 31  1  0  0  0  0
  8 32  1  0  0  0  0
  8 33  1  0  0  0  0
  9 10  1  0  0  0  0
  9 34  1  0  0  0  0
  9 35  1  0  0  0  0
 10 11  1  0  0  0  0
 10 12  1  0  0  0  0
 10 36  1  0  0  0  0
 11 37  1  0  0  0  0
 12 13  1  0  0  0  0
 12 38  1  0  0  0  0
 12 39  1  0  0  0  0
 13 23  1  0  0  0  0
 13 14  1  0  0  0  0
 14 15  2  0  0  0  0
 14 40  1  0  0  0  0
 15 16  1  0  0  0  0
 15 49  1  0  0  0  0
 16 23  2  0  0  0  0
 16 17  1  0  0  0  0
 17 18  2  0  0  0  0
 17 41  1  0  0  0  0
 18 19  1  0  0  0  0
 18 20  1  0  0  0  0
 19 42  1  0  0  0  0
 19 43  1  0  0  0  0
 19 44  1  0  0  0  0
 20 21  1  0  0  0  0
 20 22  2  0  0  0  0
 21 45  1  0  0  0  0
 21 46  1  0  0  0  0
 21 47  1  0  0  0  0
 22 23  1  0  0  0  0
 22 48  1  0  0  0  0
M  CHG  1  15   1
M  END
> <s_m_source_file>
AV-unprocessed.smi

> <i_m_source_file_index>
1225

> <i_lp_mmshare_version>
43012

> <i_f3d_flags>
0

> <s_epik_input>
W0NIM11jMW5bY0hdYyhzMSlbQ0gyXU4oW0NIM10pW0NIMl1bQ0BIXShbT0hdKVtDSDJdbihbY0hdbjIpYyhjMjMpW2NIXWMoW0NIM10pYyhbY0hdMylbQ0gzXQ==

> <s_epik_cmdline>
J2VwaWtfcHl0aG9uJywgJy1waCcsICc3LjAnLCAnLXRuJywgJzgnLCAnLW1hJywgJzIwMCcsICctbWV0YWxfYmluZGluZycsICctaW1hZScsICc8aW5maWxlLm1hZT4nLCAnLW9tYWUnLCAnPG91dGZpbGUubWFlPic=

> <r_epik_Ionization_Penalty>
1.25968

> <r_epik_Ionization_Penalty_Charging>
1.21782

> <r_epik_Ionization_Penalty_Neutral>
0.0418565

> <r_epik_State_Penalty>
1.29962

> <r_epik_Charging_Adjusted_Penalty>
2.51745

> <i_epik_Tot_Q>
1

> <i_epik_Tot_abs_Q>
1

> <r_epik_Metal_State_Penalty>
1.36802

> <b_epik_Metal_Only>
0

> <s_lp_Force_Field>
OPLS_2005

> <r_lp_Energy>
21.2232

> <b_lp_Chiralities_Consistent>
1

> <s_lp_Variant>
AV-unprocessed.smi:1225-3

> <Gold.Version>
5.8.1

> <Gold.Id.Protein>
6NUR|6NUR_protein|mol2

> <Gold.PLP.Fitness>
49.4471

> <Gold.PLP.PLP>
-36.5745

> <Gold.PLP.part.hbond>
-1.9641

> <Gold.PLP.part.metal>
0.0000

> <Gold.PLP.part.buried>
-3.9501

> <Gold.PLP.part.nonpolar>
-31.4571

> <Gold.PLP.part.repulsive>
0.3467

> <Gold.PLP.ligand.clash>
0.0000

> <Gold.PLP.ligand.torsion>
1.1008

> <Gold.PLP.Chemscore.Hbond>
3.0000

> <Gold.PLP.Chemscore.CHOScore>
1.9262

> <Gold.PLP.Chemscore.Metal>
0.0000

> <Gold.Chemscore.Hbonds>
donor molecule, donor type, donor heavy atom, donor atom, acceptor molecule, acceptor atom, score
      L1  H    11    37       P1  7948  1.00
      L1  H    15    49       P1  8028  2.00
      L1  C     4    28       P1 10171  0.81
      L1  C     4    28       P1 10175  1.00

> <Gold.PLP.Chemscore.Internal.Correction>
0.2956

> <Gold.Rescore>
     Score         DG    S(hbond)    S(metal)    S(lipo)     H(rot)  DE(clash)    DE(int)     intcor
     15.85     -16.91       1.96        0.00      93.39       2.36       0.00       1.05       ----

> <Gold.Chemscore.Fitness>
15.8478

> <Gold.Chemscore.DG>
-16.9064

> <Gold.Chemscore.ZeroCoef>
-5.4800

> <Gold.Chemscore.Hbond>
1.9623

> <Gold.Chemscore.Metal>
0.0000

> <Gold.Chemscore.Lipo>
93.3886

> <Gold.Chemscore.Internal_Hbond>
0.0000

> <Gold.Chemscore.DEClash>
0.0048

> <Gold.Chemscore.DEInternal>
1.0538

> <Gold.Chemscore.Rot>
2.3649

> <Gold.Chemscore.Internal.Correction>
   9.000000E+99

> <Gold.Chemscore.Hbonds>
donor molecule, donor type, donor heavy atom, donor atom, acceptor molecule, acceptor atom, score
      L1  H    11    37       P1  7948  0.34
      L1  H    15    49       P1  8028  0.97

> <Gold.Chemscore.Hbond.Weighted>
-6.5540

> <Gold.Chemscore.Metal.Weighted>
-0.0000

> <Gold.Chemscore.Lipo.Weighted>
-10.9265

> <Gold.Chemscore.Internal_Hbond.Weighted>
0.0000

> <Gold.Chemscore.DEClash.Weighted>
0.0048

> <Gold.Chemscore.DEInternal.Weighted>
1.0538

> <Gold.Chemscore.Rot.Weighted>
6.0540

> <Gold.Chemscore.Internal.Correction.Weighted>
   9.000000E+99

> <Gold.Protein.RotatedTorsions>
[ 6907 6896 6895 6894 ] final -121.33 input  -60.11 | X-H torsion
[ 7974 7965 7964 7962 ] final -168.42 input  175.53 | X-H torsion
[ 8008 7997 7996 7995 ] final  -48.18 input   59.86 | X-H torsion
[ 10167 10162 10161 10158 ] final   96.61 input  -65.29 | X-H torsion
[ 10718 10713 10712 10709 ] final  108.30 input   66.30 | X-H torsion
[ 10763 10752 10751 10750 ] final  103.24 input  -60.55 | X-H torsion
[ 11005 11000 10999 10996 ] final   18.95 input  -57.11 | X-H torsion

> <Gold.Protein.ActiveResidues>
 VAL166  LYS551  ARG553  GLY616  TRP617  ASP618  TYR619  PRO620  LYS621  CYS622 
 ASP623  PHE694  ASN695  SER759  ASP760  ASP761  ALA762  ILE779  LEU786  VAL792 
 PHE793  MET794  SER795  GLU796  ALA797  LYS798  CYS799  TRP800  GLU811  SER814 

> <Gold.Protein.RotatedAtoms>
  150.8473  133.7841  159.3037 H   0  0  0  0  0  0  0  0  0  0  0  0  # atno 6907 bound_to 6896
  151.5524  135.1065  159.9962 H   0  0  0  0  0  0  0  0  0  0  0  0  # atno 6908 bound_to 6896
  152.4524  133.7613  159.6804 H   0  0  0  0  0  0  0  0  0  0  0  0  # atno 6909 bound_to 6896
  144.7203  140.2372  143.6296 H   0  0  0  0  0  0  0  0  0  0  0  0  # atno 7974 bound_to 7965
  154.4025  140.1328  156.4297 H   0  0  0  0  0  0  0  0  0  0  0  0  # atno 8008 bound_to 7997
  155.7563  140.3487  155.5155 H   0  0  0  0  0  0  0  0  0  0  0  0  # atno 8009 bound_to 7997
  155.8902  140.1002  157.1414 H   0  0  0  0  0  0  0  0  0  0  0  0  # atno 8010 bound_to 7997
  139.7878  144.6864  150.9934 H   0  0  0  0  0  0  0  0  0  0  0  0  # atno 10167 bound_to 10162
  157.6592  131.0891  150.6284 H   0  0  0  0  0  0  0  0  0  0  0  0  # atno 10718 bound_to 10713
  153.3501  135.3983  155.1639 H   0  0  0  0  0  0  0  0  0  0  0  0  # atno 10763 bound_to 10752
  154.8660  135.3654  154.5233 H   0  0  0  0  0  0  0  0  0  0  0  0  # atno 10764 bound_to 10752
  153.5684  135.7079  153.5575 H   0  0  0  0  0  0  0  0  0  0  0  0  # atno 10765 bound_to 10752
  140.4191  134.1537  155.7671 H   0  0  0  0  0  0  0  0  0  0  0  0  # atno 11005 bound_to 11000
  145.8354  139.2105  143.1858 LP  0  0  0  0  0  0  0  0  0  0  0  0  # atno 17320 bound_to 7965
  146.0394  140.8180  142.9836 LP  0  0  0  0  0  0  0  0  0  0  0  0  # atno 17321 bound_to 7965
  140.7820  143.4413  151.0547 LP  0  0  0  0  0  0  0  0  0  0  0  0  # atno 17342 bound_to 10162
  139.8091  143.7976  152.3170 LP  0  0  0  0  0  0  0  0  0  0  0  0  # atno 17343 bound_to 10162
  156.6588  130.4506  149.5694 LP  0  0  0  0  0  0  0  0  0  0  0  0  # atno 17370 bound_to 10713
  156.2082  130.6662  151.1241 LP  0  0  0  0  0  0  0  0  0  0  0  0  # atno 17371 bound_to 10713
  141.1791  133.8452  157.1320 LP  0  0  0  0  0  0  0  0  0  0  0  0  # atno 17394 bound_to 11000
  140.0213  134.9944  157.0597 LP  0  0  0  0  0  0  0  0  0  0  0  0  # atno 17395 bound_to 11000

$$$$
