AV-unprocessed.smi:1635|AV-procd|sdf|6540|dock2
  -GOLD-   22720 7223D 1   1.00000     0.00000
 Structure written by MMmdl.
 37 38  0  0  0  0  0  0  0  0  1 V2000
  147.6998  133.1623  152.3417 C   0  0  0  0  0  0  0  0  0  0  0  0
  146.4159  133.2384  151.5315 C   0  0  0  0  0  0  0  0  0  0  0  0
  145.8393  132.0485  151.0385 C   0  0  0  0  0  0  0  0  0  0  0  0
  144.6509  132.1206  150.2921 C   0  0  0  0  0  0  0  0  0  0  0  0
  144.0864  133.3881  150.0683 C   0  0  0  0  0  0  0  0  0  0  0  0
  144.6315  134.5303  150.5343 N   0  0  0  0  0  0  0  0  0  0  0  0
  145.7788  134.4783  151.2567 C   0  0  0  0  0  0  0  0  0  0  0  0
  146.4119  135.6414  151.7792 N   0  0  0  0  0  0  0  0  0  0  0  0
  145.8509  136.6951  152.3985 C   0  0  0  0  0  0  0  0  0  0  0  0
  144.6479  136.8357  152.6209 O   0  0  0  0  0  0  0  0  0  0  0  0
  146.7791  137.5971  152.7501 N   0  0  0  0  0  0  0  0  0  0  0  0
  146.5278  138.8543  153.4551 C   0  0  2  0  0  0  0  0  0  0  0  0
  147.2070  140.0389  152.7191 C   0  0  0  0  0  0  0  0  0  0  0  0
  147.5782  141.2588  153.5882 C   0  0  0  0  0  0  0  0  0  0  0  0
  146.4246  141.8659  154.4122 C   0  0  0  0  0  0  0  0  0  0  0  0
  145.6460  140.8972  155.3336 C   0  0  0  0  0  0  0  0  0  0  0  0
  146.4147  139.7305  155.7644 N   0  0  0  0  0  0  0  0  0  0  0  0
  146.8389  138.7403  154.9604 C   0  0  0  0  0  0  0  0  0  0  0  0
  147.4720  137.7822  155.4024 O   0  0  0  0  0  0  0  0  0  0  0  0
  148.0347  132.1315  152.4598 H   0  0  0  0  0  0  0  0  0  0  0  0
  147.5480  133.5810  153.3370 H   0  0  0  0  0  0  0  0  0  0  0  0
  148.4964  133.7195  151.8484 H   0  0  0  0  0  0  0  0  0  0  0  0
  146.2999  131.0903  151.2291 H   0  0  0  0  0  0  0  0  0  0  0  0
  144.1842  131.2282  149.9018 H   0  0  0  0  0  0  0  0  0  0  0  0
  143.1734  133.4886  149.5002 H   0  0  0  0  0  0  0  0  0  0  0  0
  147.4143  135.6729  151.6666 H   0  0  0  0  0  0  0  0  0  0  0  0
  147.7440  137.3949  152.5321 H   0  0  0  0  0  0  0  0  0  0  0  0
  145.4502  139.0154  153.4036 H   0  0  0  0  0  0  0  0  0  0  0  0
  148.1243  139.6889  152.2430 H   0  0  0  0  0  0  0  0  0  0  0  0
  146.5604  140.3634  151.9029 H   0  0  0  0  0  0  0  0  0  0  0  0
  148.3958  140.9899  154.2584 H   0  0  0  0  0  0  0  0  0  0  0  0
  147.9893  142.0348  152.9417 H   0  0  0  0  0  0  0  0  0  0  0  0
  146.8458  142.6612  155.0280 H   0  0  0  0  0  0  0  0  0  0  0  0
  145.7187  142.3595  153.7434 H   0  0  0  0  0  0  0  0  0  0  0  0
  145.3077  141.4332  156.2206 H   0  0  0  0  0  0  0  0  0  0  0  0
  144.7346  140.5616  154.8375 H   0  0  0  0  0  0  0  0  0  0  0  0
  146.6275  139.6620  156.7489 H   0  0  0  0  0  0  0  0  0  0  0  0
  1  2  1  0  0  0  0
  1 20  1  0  0  0  0
  1 21  1  0  0  0  0
  1 22  1  0  0  0  0
  2  7  1  0  0  0  0
  2  3  2  0  0  0  0
  3  4  1  0  0  0  0
  3 23  1  0  0  0  0
  4  5  2  0  0  0  0
  4 24  1  0  0  0  0
  5  6  1  0  0  0  0
  5 25  1  0  0  0  0
  6  7  2  0  0  0  0
  7  8  1  0  0  0  0
  8  9  1  0  0  0  0
  8 26  1  0  0  0  0
  9 10  2  0  0  0  0
  9 11  1  0  0  0  0
 11 12  1  0  0  0  0
 11 27  1  0  0  0  0
 12 18  1  0  0  0  0
 12 13  1  0  0  0  0
 12 28  1  0  0  0  0
 13 14  1  0  0  0  0
 13 29  1  0  0  0  0
 13 30  1  0  0  0  0
 14 15  1  0  0  0  0
 14 31  1  0  0  0  0
 14 32  1  0  0  0  0
 15 16  1  0  0  0  0
 15 33  1  0  0  0  0
 15 34  1  0  0  0  0
 16 17  1  0  0  0  0
 16 35  1  0  0  0  0
 16 36  1  0  0  0  0
 17 18  1  0  0  0  0
 17 37  1  0  0  0  0
 18 19  2  0  0  0  0
M  END
> <s_m_source_file>
AV-unprocessed.smi

> <i_m_source_file_index>
1635

> <i_lp_mmshare_version>
43012

> <i_f3d_flags>
0

> <s_epik_input>
W0NIM11jMVtjSF1bY0hdW2NIXW5jMVtOSF1DKD1PKVtOSF1bQ0BASF0yW0NIMl1bQ0gyXVtDSDJdW0NIMl1bTkhdQzI9Tw==

> <s_epik_cmdline>
J2VwaWtfcHl0aG9uJywgJy1waCcsICc3LjAnLCAnLXRuJywgJzgnLCAnLW1hJywgJzIwMCcsICctbWV0YWxfYmluZGluZycsICctaW1hZScsICc8aW5maWxlLm1hZT4nLCAnLW9tYWUnLCAnPG91dGZpbGUubWFlPic=

> <r_lp_tautomer_probability>
1

> <r_epik_Ionization_Penalty>
5.14862e-05

> <r_epik_Ionization_Penalty_Charging>
0

> <r_epik_Ionization_Penalty_Neutral>
5.14862e-05

> <r_epik_State_Penalty>
-0

> <r_epik_Charging_Adjusted_Penalty>
0

> <i_epik_Tot_Q>
0

> <i_epik_Tot_abs_Q>
0

> <r_epik_Metal_State_Penalty>
-0

> <b_epik_Metal_Only>
0

> <s_lp_Force_Field>
OPLS_2005

> <r_lp_Energy>
17.2511

> <b_lp_Chiralities_Consistent>
1

> <s_lp_Variant>
AV-unprocessed.smi:1635-1

> <Gold.Version>
5.8.1

> <Gold.Id.Protein>
6NUR|6NUR_protein|mol2

> <Gold.PLP.Fitness>
36.9781

> <Gold.PLP.PLP>
-29.0916

> <Gold.PLP.part.hbond>
-2.0000

> <Gold.PLP.part.metal>
0.0000

> <Gold.PLP.part.buried>
-3.3422

> <Gold.PLP.part.nonpolar>
-24.5466

> <Gold.PLP.part.repulsive>
0.5445

> <Gold.PLP.ligand.clash>
0.0000

> <Gold.PLP.ligand.torsion>
0.5478

> <Gold.PLP.Chemscore.Hbond>
1.9760

> <Gold.PLP.Chemscore.CHOScore>
1.0000

> <Gold.PLP.Chemscore.Metal>
0.0000

> <Gold.Chemscore.Hbonds>
donor molecule, donor type, donor heavy atom, donor atom, acceptor molecule, acceptor atom, score
      L1  H     8    26       P1  7948  1.00
      L1  H    11    27       P1  7948  0.96
      L1  C     5    25       P1 10186  1.00

> <Gold.PLP.Chemscore.Internal.Correction>
0.0541

> <Gold.Rescore>
     Score         DG    S(hbond)    S(metal)    S(lipo)     H(rot)  DE(clash)    DE(int)     intcor
     16.74     -17.64       1.95        0.00      70.19       1.00       0.33       0.57       ----

> <Gold.Chemscore.Fitness>
16.7397

> <Gold.Chemscore.DG>
-17.6449

> <Gold.Chemscore.ZeroCoef>
-5.4800

> <Gold.Chemscore.Hbond>
1.9499

> <Gold.Chemscore.Metal>
0.0000

> <Gold.Chemscore.Lipo>
70.1895

> <Gold.Chemscore.Internal_Hbond>
0.0000

> <Gold.Chemscore.DEClash>
0.3340

> <Gold.Chemscore.DEInternal>
0.5712

> <Gold.Chemscore.Rot>
1.0000

> <Gold.Chemscore.Internal.Correction>
   9.000000E+99

> <Gold.Chemscore.Hbonds>
donor molecule, donor type, donor heavy atom, donor atom, acceptor molecule, acceptor atom, score
      L1  H     8    26       P1  7948  0.98
      L1  H    11    27       P1  7948  0.92

> <Gold.Chemscore.Hbond.Weighted>
-6.5127

> <Gold.Chemscore.Metal.Weighted>
-0.0000

> <Gold.Chemscore.Lipo.Weighted>
-8.2122

> <Gold.Chemscore.Internal_Hbond.Weighted>
0.0000

> <Gold.Chemscore.DEClash.Weighted>
0.3340

> <Gold.Chemscore.DEInternal.Weighted>
0.5712

> <Gold.Chemscore.Rot.Weighted>
2.5600

> <Gold.Chemscore.Internal.Correction.Weighted>
   9.000000E+99

> <Gold.Protein.RotatedTorsions>
[ 6907 6896 6895 6894 ] final  -51.88 input  -60.11 | X-H torsion
[ 7974 7965 7964 7962 ] final  -88.08 input  175.53 | X-H torsion
[ 8008 7997 7996 7995 ] final  -70.34 input   59.86 | X-H torsion
[ 10167 10162 10161 10158 ] final  -40.83 input  -65.29 | X-H torsion
[ 10718 10713 10712 10709 ] final  -75.24 input   66.30 | X-H torsion
[ 10763 10752 10751 10750 ] final   71.08 input  -60.55 | X-H torsion
[ 11005 11000 10999 10996 ] final  135.18 input  -57.11 | X-H torsion

> <Gold.Protein.ActiveResidues>
 VAL166  LYS551  ARG553  GLY616  TRP617  ASP618  TYR619  PRO620  LYS621  CYS622 
 ASP623  PHE694  ASN695  SER759  ASP760  ASP761  ALA762  ILE779  LEU786  VAL792 
 PHE793  MET794  SER795  GLU796  ALA797  LYS798  CYS799  TRP800  GLU811  SER814 

> <Gold.Protein.RotatedAtoms>
  150.8570  134.7911  159.7052 H   0  0  0  0  0  0  0  0  0  0  0  0  # atno 6907 bound_to 6896
  152.4618  134.5163  159.9779 H   0  0  0  0  0  0  0  0  0  0  0  0  # atno 6908 bound_to 6896
  151.5273  133.3417  159.2947 H   0  0  0  0  0  0  0  0  0  0  0  0  # atno 6909 bound_to 6896
  145.4579  140.9561  143.1986 H   0  0  0  0  0  0  0  0  0  0  0  0  # atno 7974 bound_to 7965
  154.5005  140.0836  156.7787 H   0  0  0  0  0  0  0  0  0  0  0  0  # atno 8008 bound_to 7997
  155.4015  140.3437  155.4239 H   0  0  0  0  0  0  0  0  0  0  0  0  # atno 8009 bound_to 7997
  156.1450  140.1541  156.8849 H   0  0  0  0  0  0  0  0  0  0  0  0  # atno 8010 bound_to 7997
  140.7022  143.3130  151.2980 H   0  0  0  0  0  0  0  0  0  0  0  0  # atno 10167 bound_to 10162
  156.0214  130.4436  150.3013 H   0  0  0  0  0  0  0  0  0  0  0  0  # atno 10718 bound_to 10713
  153.0378  135.5150  154.7539 H   0  0  0  0  0  0  0  0  0  0  0  0  # atno 10763 bound_to 10752
  154.6501  135.2924  155.0000 H   0  0  0  0  0  0  0  0  0  0  0  0  # atno 10764 bound_to 10752
  154.0887  135.6653  153.4901 H   0  0  0  0  0  0  0  0  0  0  0  0  # atno 10765 bound_to 10752
  139.9963  134.9496  156.9971 H   0  0  0  0  0  0  0  0  0  0  0  0  # atno 11005 bound_to 11000
  144.8021  139.6121  143.7067 LP  0  0  0  0  0  0  0  0  0  0  0  0  # atno 17320 bound_to 7965
  146.2467  139.6114  142.9454 LP  0  0  0  0  0  0  0  0  0  0  0  0  # atno 17321 bound_to 7965
  139.6559  144.0276  152.2659 LP  0  0  0  0  0  0  0  0  0  0  0  0  # atno 17342 bound_to 10162
  139.9828  144.6416  150.7885 LP  0  0  0  0  0  0  0  0  0  0  0  0  # atno 17343 bound_to 10162
  157.1116  131.0223  151.3046 LP  0  0  0  0  0  0  0  0  0  0  0  0  # atno 17370 bound_to 10713
  157.4700  130.7703  149.7314 LP  0  0  0  0  0  0  0  0  0  0  0  0  # atno 17371 bound_to 10713
  140.4812  134.1287  155.7217 LP  0  0  0  0  0  0  0  0  0  0  0  0  # atno 17394 bound_to 11000
  141.1607  133.8799  157.1856 LP  0  0  0  0  0  0  0  0  0  0  0  0  # atno 17395 bound_to 11000

$$$$
