AV-unprocessed.smi:1059|AV-procd|sdf|4655|dock6
  -GOLD-   22720 3163D 1   1.00000     0.00000
 Structure written by MMmdl.
 54 55  0  0  0  0  0  0  0  0  1 V2000
  152.6370  138.1085  156.3900 C   0  0  0  0  0  0  0  0  0  0  0  0
  152.1252  138.8948  157.6071 C   0  0  0  0  0  0  0  0  0  0  0  0
  152.2223  138.0260  158.8755 C   0  0  0  0  0  0  0  0  0  0  0  0
  150.6912  139.4206  157.3505 C   0  0  0  0  0  0  0  0  0  0  0  0
  150.5068  140.2647  156.0734 C   0  0  0  0  0  0  0  0  0  0  0  0
  151.4358  140.3452  155.2681 O   0  0  0  0  0  0  0  0  0  0  0  0
  149.3223  140.8918  155.8666 N   0  0  0  0  0  0  0  0  0  0  0  0
  149.0519  141.6991  154.6704 C   0  0  0  0  0  0  0  0  0  0  0  0
  148.0567  140.9440  153.7714 C   0  0  0  0  0  0  0  0  0  0  0  0
  146.7614  140.5946  154.5346 C   0  0  0  0  0  0  0  0  0  0  0  0
  145.9277  139.7274  153.7074 N   0  0  0  0  0  0  0  0  0  0  0  0
  146.1920  138.4463  153.4130 C   0  0  0  0  0  0  0  0  0  0  0  0
  147.1962  137.8517  153.8044 O   0  0  0  0  0  0  0  0  0  0  0  0
  145.2132  137.9088  152.6650 N   0  0  0  0  0  0  0  0  0  0  0  0
  145.1325  136.5929  152.1358 C   0  0  0  0  0  0  0  0  0  0  0  0
  146.0336  135.6245  152.6223 C   0  0  0  0  0  0  0  0  0  0  0  0
  145.9608  134.3086  152.1278 C   0  0  0  0  0  0  0  0  0  0  0  0
  144.9755  133.9993  151.1680 C   0  0  0  0  0  0  0  0  0  0  0  0
  144.8943  132.6920  150.6685 N   0  0  0  0  0  0  0  0  0  0  0  0
  144.8509  131.6814  151.7148 C   0  0  0  0  0  0  0  0  0  0  0  0
  143.9103  132.5536  149.6056 C   0  0  0  0  0  0  0  0  0  0  0  0
  144.0947  134.9177  150.7052 N   0  0  0  0  0  0  0  0  0  0  0  0
  144.1726  136.1794  151.1803 C   0  0  0  0  0  0  0  0  0  0  0  0
  147.0738  139.9265  155.8938 C   0  0  0  0  0  0  0  0  0  0  0  0
  148.1149  140.7348  156.6888 C   0  0  0  0  0  0  0  0  0  0  0  0
  152.0174  137.2326  156.1945 H   0  0  0  0  0  0  0  0  0  0  0  0
  153.6601  137.7645  156.5459 H   0  0  0  0  0  0  0  0  0  0  0  0
  152.6340  138.7257  155.4911 H   0  0  0  0  0  0  0  0  0  0  0  0
  152.7924  139.7488  157.7332 H   0  0  0  0  0  0  0  0  0  0  0  0
  151.5752  137.1515  158.8052 H   0  0  0  0  0  0  0  0  0  0  0  0
  151.9386  138.5760  159.7722 H   0  0  0  0  0  0  0  0  0  0  0  0
  153.2416  137.6698  159.0274 H   0  0  0  0  0  0  0  0  0  0  0  0
  150.0083  138.5732  157.2755 H   0  0  0  0  0  0  0  0  0  0  0  0
  150.3789  140.0053  158.2165 H   0  0  0  0  0  0  0  0  0  0  0  0
  148.6325  142.6606  154.9704 H   0  0  0  0  0  0  0  0  0  0  0  0
  149.9548  141.9361  154.1059 H   0  0  0  0  0  0  0  0  0  0  0  0
  147.8228  141.5433  152.8908 H   0  0  0  0  0  0  0  0  0  0  0  0
  148.5303  140.0307  153.4072 H   0  0  0  0  0  0  0  0  0  0  0  0
  146.2260  141.5274  154.7232 H   0  0  0  0  0  0  0  0  0  0  0  0
  145.0780  140.1321  153.3419 H   0  0  0  0  0  0  0  0  0  0  0  0
  144.4054  138.4918  152.5027 H   0  0  0  0  0  0  0  0  0  0  0  0
  146.7770  135.8847  153.3616 H   0  0  0  0  0  0  0  0  0  0  0  0
  146.6471  133.5526  152.4806 H   0  0  0  0  0  0  0  0  0  0  0  0
  145.6380  131.8510  152.4506 H   0  0  0  0  0  0  0  0  0  0  0  0
  144.9987  130.6897  151.2868 H   0  0  0  0  0  0  0  0  0  0  0  0
  143.8890  131.6917  152.2288 H   0  0  0  0  0  0  0  0  0  0  0  0
  144.0281  133.3419  148.8611 H   0  0  0  0  0  0  0  0  0  0  0  0
  142.8964  132.6039  150.0041 H   0  0  0  0  0  0  0  0  0  0  0  0
  144.0319  131.5945  149.1021 H   0  0  0  0  0  0  0  0  0  0  0  0
  143.4266  136.8554  150.7922 H   0  0  0  0  0  0  0  0  0  0  0  0
  146.1613  139.8221  156.4821 H   0  0  0  0  0  0  0  0  0  0  0  0
  147.4540  138.9166  155.7317 H   0  0  0  0  0  0  0  0  0  0  0  0
  148.2919  140.2541  157.6489 H   0  0  0  0  0  0  0  0  0  0  0  0
  147.7154  141.7211  156.9291 H   0  0  0  0  0  0  0  0  0  0  0  0
  1  2  1  0  0  0  0
  1 26  1  0  0  0  0
  1 27  1  0  0  0  0
  1 28  1  0  0  0  0
  2  3  1  0  0  0  0
  2  4  1  0  0  0  0
  2 29  1  0  0  0  0
  3 30  1  0  0  0  0
  3 31  1  0  0  0  0
  3 32  1  0  0  0  0
  4  5  1  0  0  0  0
  4 33  1  0  0  0  0
  4 34  1  0  0  0  0
  5  6  2  0  0  0  0
  5  7  1  0  0  0  0
  7 25  1  0  0  0  0
  7  8  1  0  0  0  0
  8  9  1  0  0  0  0
  8 35  1  0  0  0  0
  8 36  1  0  0  0  0
  9 10  1  0  0  0  0
  9 37  1  0  0  0  0
  9 38  1  0  0  0  0
 10 11  1  0  0  0  0
 10 24  1  0  0  0  0
 10 39  1  0  0  0  0
 11 12  1  0  0  0  0
 11 40  1  0  0  0  0
 12 13  2  0  0  0  0
 12 14  1  0  0  0  0
 14 15  1  0  0  0  0
 14 41  1  0  0  0  0
 15 23  1  0  0  0  0
 15 16  2  0  0  0  0
 16 17  1  0  0  0  0
 16 42  1  0  0  0  0
 17 18  2  0  0  0  0
 17 43  1  0  0  0  0
 18 19  1  0  0  0  0
 18 22  1  0  0  0  0
 19 20  1  0  0  0  0
 19 21  1  0  0  0  0
 20 44  1  0  0  0  0
 20 45  1  0  0  0  0
 20 46  1  0  0  0  0
 21 47  1  0  0  0  0
 21 48  1  0  0  0  0
 21 49  1  0  0  0  0
 22 23  2  0  0  0  0
 23 50  1  0  0  0  0
 24 25  1  0  0  0  0
 24 51  1  0  0  0  0
 24 52  1  0  0  0  0
 25 53  1  0  0  0  0
 25 54  1  0  0  0  0
M  END
> <s_m_source_file>
AV-unprocessed.smi

> <i_m_source_file_index>
1059

> <i_lp_mmshare_version>
43012

> <i_f3d_flags>
0

> <s_epik_input>
W0NIM11bQ0hdKFtDSDNdKVtDSDJdQyg9TylOMVtDSDJdW0NIMl1bQ0hdKFtDSDJdW0NIMl0xKVtOSF1DKD1PKVtOSF1jMltjSF1bY0hdYyhOKFtDSDNdKVtDSDNdKW5bY0hdMg==

> <s_epik_cmdline>
J2VwaWtfcHl0aG9uJywgJy1waCcsICc3LjAnLCAnLXRuJywgJzgnLCAnLW1hJywgJzIwMCcsICctbWV0YWxfYmluZGluZycsICctaW1hZScsICc8aW5maWxlLm1hZT4nLCAnLW9tYWUnLCAnPG91dGZpbGUubWFlPic=

> <r_lp_tautomer_probability>
1

> <r_epik_Ionization_Penalty>
0.622059

> <r_epik_Ionization_Penalty_Charging>
0

> <r_epik_Ionization_Penalty_Neutral>
0.622059

> <r_epik_State_Penalty>
0.637048

> <r_epik_Charging_Adjusted_Penalty>
0.637048

> <i_epik_Tot_Q>
0

> <i_epik_Tot_abs_Q>
0

> <r_epik_Metal_State_Penalty>
0.306613

> <b_epik_Metal_Only>
0

> <s_lp_Force_Field>
OPLS_2005

> <r_lp_Energy>
31.4899

> <b_lp_Chiralities_Consistent>
1

> <s_lp_Variant>
AV-unprocessed.smi:1059-2

> <Gold.Version>
5.8.1

> <Gold.Id.Protein>
6NUR|6NUR_protein|mol2

> <Gold.PLP.Fitness>
42.6531

> <Gold.PLP.PLP>
-32.1443

> <Gold.PLP.part.hbond>
-3.3392

> <Gold.PLP.part.metal>
0.0000

> <Gold.PLP.part.buried>
-1.5539

> <Gold.PLP.part.nonpolar>
-28.4811

> <Gold.PLP.part.repulsive>
0.8790

> <Gold.PLP.ligand.clash>
0.0000

> <Gold.PLP.ligand.torsion>
0.3041

> <Gold.PLP.Chemscore.Hbond>
2.7282

> <Gold.PLP.Chemscore.CHOScore>
0.8971

> <Gold.PLP.Chemscore.Metal>
0.0000

> <Gold.Chemscore.Hbonds>
donor molecule, donor type, donor heavy atom, donor atom, acceptor molecule, acceptor atom, score
      L1  H    11    40       P1 10175  1.00
      L1  H    14    41       P1 10175  0.80
      P1  H  7989  7998       L1     6  0.94
      L1  C    23    50       P1 10171  0.87

> <Gold.PLP.Chemscore.Internal.Correction>
0.2412

> <Gold.Rescore>
     Score         DG    S(hbond)    S(metal)    S(lipo)     H(rot)  DE(clash)    DE(int)     intcor
     14.57     -20.18       2.86        0.00      77.45       1.52       1.26       4.35       ----

> <Gold.Chemscore.Fitness>
14.5747

> <Gold.Chemscore.DG>
-20.1791

> <Gold.Chemscore.ZeroCoef>
-5.4800

> <Gold.Chemscore.Hbond>
2.8556

> <Gold.Chemscore.Metal>
0.0000

> <Gold.Chemscore.Lipo>
77.4499

> <Gold.Chemscore.Internal_Hbond>
0.0000

> <Gold.Chemscore.DEClash>
1.2594

> <Gold.Chemscore.DEInternal>
4.3450

> <Gold.Chemscore.Rot>
1.5235

> <Gold.Chemscore.Internal.Correction>
   9.000000E+99

> <Gold.Chemscore.Hbonds>
donor molecule, donor type, donor heavy atom, donor atom, acceptor molecule, acceptor atom, score
      L1  H    11    40       P1 10175  1.00
      L1  H    14    41       P1 10175  0.75
      P1  H  7989  7998       L1     6  0.91

> <Gold.Chemscore.Hbond.Weighted>
-9.5376

> <Gold.Chemscore.Metal.Weighted>
-0.0000

> <Gold.Chemscore.Lipo.Weighted>
-9.0616

> <Gold.Chemscore.Internal_Hbond.Weighted>
0.0000

> <Gold.Chemscore.DEClash.Weighted>
1.2594

> <Gold.Chemscore.DEInternal.Weighted>
4.3450

> <Gold.Chemscore.Rot.Weighted>
3.9001

> <Gold.Chemscore.Internal.Correction.Weighted>
   9.000000E+99

> <Gold.Protein.RotatedTorsions>
[ 6907 6896 6895 6894 ] final  -43.50 input  -60.11 | X-H torsion
[ 7974 7965 7964 7962 ] final  -77.78 input  175.53 | X-H torsion
[ 8008 7997 7996 7995 ] final -178.20 input   59.86 | X-H torsion
[ 10167 10162 10161 10158 ] final  149.71 input  -65.29 | X-H torsion
[ 10718 10713 10712 10709 ] final  -29.44 input   66.30 | X-H torsion
[ 10763 10752 10751 10750 ] final  -62.49 input  -60.55 | X-H torsion
[ 11005 11000 10999 10996 ] final   90.34 input  -57.11 | X-H torsion

> <Gold.Protein.ActiveResidues>
 VAL166  LYS551  ARG553  GLY616  TRP617  ASP618  TYR619  PRO620  LYS621  CYS622 
 ASP623  PHE694  ASN695  SER759  ASP760  ASP761  ALA762  ILE779  LEU786  VAL792 
 PHE793  MET794  SER795  GLU796  ALA797  LYS798  CYS799  TRP800  GLU811  SER814 

> <Gold.Protein.RotatedAtoms>
  150.9432  134.8839  159.7625 H   0  0  0  0  0  0  0  0  0  0  0  0  # atno 6907 bound_to 6896
  152.5089  134.3912  159.9394 H   0  0  0  0  0  0  0  0  0  0  0  0  # atno 6908 bound_to 6896
  151.3932  133.3742  159.2758 H   0  0  0  0  0  0  0  0  0  0  0  0  # atno 6909 bound_to 6896
  145.5951  140.9421  143.1271 H   0  0  0  0  0  0  0  0  0  0  0  0  # atno 7974 bound_to 7965
  156.0160  140.1251  157.0406 H   0  0  0  0  0  0  0  0  0  0  0  0  # atno 8008 bound_to 7997
  154.4293  140.1078  156.5966 H   0  0  0  0  0  0  0  0  0  0  0  0  # atno 8009 bound_to 7997
  155.6013  140.3470  155.4597 H   0  0  0  0  0  0  0  0  0  0  0  0  # atno 8010 bound_to 7997
  139.4858  144.5580  151.7283 H   0  0  0  0  0  0  0  0  0  0  0  0  # atno 10167 bound_to 10162
  156.4124  130.4410  149.7243 H   0  0  0  0  0  0  0  0  0  0  0  0  # atno 10718 bound_to 10713
  154.3007  135.6235  153.5423 H   0  0  0  0  0  0  0  0  0  0  0  0  # atno 10763 bound_to 10752
  152.9841  135.5677  154.5288 H   0  0  0  0  0  0  0  0  0  0  0  0  # atno 10764 bound_to 10752
  154.4917  135.2867  155.1467 H   0  0  0  0  0  0  0  0  0  0  0  0  # atno 10765 bound_to 10752
  139.8858  134.8607  156.3270 H   0  0  0  0  0  0  0  0  0  0  0  0  # atno 11005 bound_to 11000
  144.7334  139.7657  143.7338 LP  0  0  0  0  0  0  0  0  0  0  0  0  # atno 17320 bound_to 7965
  146.1618  139.4735  142.9983 LP  0  0  0  0  0  0  0  0  0  0  0  0  # atno 17321 bound_to 7965
  140.5145  144.0975  150.6004 LP  0  0  0  0  0  0  0  0  0  0  0  0  # atno 17342 bound_to 10162
  140.3912  143.2752  152.0058 LP  0  0  0  0  0  0  0  0  0  0  0  0  # atno 17343 bound_to 10162
  156.4216  130.7771  151.2789 LP  0  0  0  0  0  0  0  0  0  0  0  0  # atno 17370 bound_to 10713
  157.7507  131.0181  150.3612 LP  0  0  0  0  0  0  0  0  0  0  0  0  # atno 17371 bound_to 10713
  140.9748  133.7304  156.0587 LP  0  0  0  0  0  0  0  0  0  0  0  0  # atno 17394 bound_to 11000
  140.7824  134.3710  157.5484 LP  0  0  0  0  0  0  0  0  0  0  0  0  # atno 17395 bound_to 11000

$$$$
