AV-unprocessed.smi:827|AV-procd|sdf|3856|dock5
  -GOLD-   22720 1303D 1   1.00000     0.00000
 Structure written by MMmdl.
 46 47  0  0  0  0  0  0  0  0  1 V2000
  146.7226  132.9555  152.3714 C   0  0  0  0  0  0  0  0  0  0  0  0
  147.7236  133.6612  153.0971 O   0  0  0  0  0  0  0  0  0  0  0  0
  148.2335  133.0873  154.2463 C   0  0  0  0  0  0  0  0  0  0  0  0
  147.8040  131.8481  154.5937 N   0  0  0  0  0  0  0  0  0  0  0  0
  148.2974  131.2878  155.7171 C   0  0  0  0  0  0  0  0  0  0  0  0
  149.2306  131.9294  156.5522 C   0  0  0  0  0  0  0  0  0  0  0  0
  149.6781  133.2145  156.1939 C   0  0  0  0  0  0  0  0  0  0  0  0
  149.1822  133.8088  155.0082 C   0  0  0  0  0  0  0  0  0  0  0  0
  149.5548  135.1080  154.5656 N   0  0  0  0  0  0  0  0  0  0  0  0
  150.4862  135.9289  155.0794 C   0  0  0  0  0  0  0  0  0  0  0  0
  151.1950  135.6796  156.0547 O   0  0  0  0  0  0  0  0  0  0  0  0
  150.5717  137.0667  154.3758 N   0  0  0  0  0  0  0  0  0  0  0  0
  151.5096  138.1481  154.6515 C   0  0  0  0  0  0  0  0  0  0  0  0
  150.7944  139.3483  155.3022 C   0  0  0  0  0  0  0  0  0  0  0  0
  150.9247  139.3517  156.7585 N   0  0  0  0  0  0  0  0  0  0  0  0
  152.2752  138.9473  157.1709 C   0  0  0  0  0  0  0  0  0  0  0  0
  152.4022  138.9900  158.7063 C   0  0  0  0  0  0  0  0  0  0  0  0
  152.1160  140.3513  159.1696 N   0  0  0  0  0  0  0  0  0  0  0  0
  152.9936  141.1882  159.7724 C   0  0  0  0  0  0  0  0  0  0  0  0
  152.5416  142.6011  160.1480 C   0  0  0  0  0  0  0  0  0  0  0  0
  154.1505  140.8612  160.0369 O   0  0  0  0  0  0  0  0  0  0  0  0
  150.7571  140.7466  158.7912 C   0  0  0  0  0  0  0  0  0  0  0  0
  150.6363  140.7012  157.2558 C   0  0  0  0  0  0  0  0  0  0  0  0
  146.4342  133.5377  151.4964 H   0  0  0  0  0  0  0  0  0  0  0  0
  145.8274  132.8009  152.9753 H   0  0  0  0  0  0  0  0  0  0  0  0
  147.0891  131.9901  152.0196 H   0  0  0  0  0  0  0  0  0  0  0  0
  147.9328  130.3010  155.9607 H   0  0  0  0  0  0  0  0  0  0  0  0
  149.5913  131.4487  157.4494 H   0  0  0  0  0  0  0  0  0  0  0  0
  150.3779  133.7220  156.8396 H   0  0  0  0  0  0  0  0  0  0  0  0
  149.1160  135.4137  153.7094 H   0  0  0  0  0  0  0  0  0  0  0  0
  149.9531  137.1886  153.5873 H   0  0  0  0  0  0  0  0  0  0  0  0
  152.2795  137.7656  155.3224 H   0  0  0  0  0  0  0  0  0  0  0  0
  152.0130  138.4275  153.7257 H   0  0  0  0  0  0  0  0  0  0  0  0
  151.1594  140.2913  154.8918 H   0  0  0  0  0  0  0  0  0  0  0  0
  149.7362  139.2854  155.0443 H   0  0  0  0  0  0  0  0  0  0  0  0
  152.4882  137.9345  156.8313 H   0  0  0  0  0  0  0  0  0  0  0  0
  153.0198  139.6017  156.7143 H   0  0  0  0  0  0  0  0  0  0  0  0
  151.6910  138.2992  159.1620 H   0  0  0  0  0  0  0  0  0  0  0  0
  153.3877  138.6294  158.9967 H   0  0  0  0  0  0  0  0  0  0  0  0
  151.7015  142.5666  160.8423 H   0  0  0  0  0  0  0  0  0  0  0  0
  152.2466  143.1614  159.2606 H   0  0  0  0  0  0  0  0  0  0  0  0
  153.3513  143.1475  160.6327 H   0  0  0  0  0  0  0  0  0  0  0  0
  150.0382  140.0657  159.2498 H   0  0  0  0  0  0  0  0  0  0  0  0
  150.4943  141.7437  159.1469 H   0  0  0  0  0  0  0  0  0  0  0  0
  151.3197  141.4223  156.8035 H   0  0  0  0  0  0  0  0  0  0  0  0
  149.6258  140.9903  156.9644 H   0  0  0  0  0  0  0  0  0  0  0  0
  1  2  1  0  0  0  0
  1 24  1  0  0  0  0
  1 25  1  0  0  0  0
  1 26  1  0  0  0  0
  2  3  1  0  0  0  0
  3  8  1  0  0  0  0
  3  4  2  0  0  0  0
  4  5  1  0  0  0  0
  5  6  2  0  0  0  0
  5 27  1  0  0  0  0
  6  7  1  0  0  0  0
  6 28  1  0  0  0  0
  7  8  2  0  0  0  0
  7 29  1  0  0  0  0
  8  9  1  0  0  0  0
  9 10  1  0  0  0  0
  9 30  1  0  0  0  0
 10 11  2  0  0  0  0
 10 12  1  0  0  0  0
 12 13  1  0  0  0  0
 12 31  1  0  0  0  0
 13 14  1  0  0  0  0
 13 32  1  0  0  0  0
 13 33  1  0  0  0  0
 14 15  1  0  0  0  0
 14 34  1  0  0  0  0
 14 35  1  0  0  0  0
 15 23  1  0  0  0  0
 15 16  1  0  0  0  0
 16 17  1  0  0  0  0
 16 36  1  0  0  0  0
 16 37  1  0  0  0  0
 17 18  1  0  0  0  0
 17 38  1  0  0  0  0
 17 39  1  0  0  0  0
 18 19  1  0  0  0  0
 18 22  1  0  0  0  0
 19 20  1  0  0  0  0
 19 21  2  0  0  0  0
 20 40  1  0  0  0  0
 20 41  1  0  0  0  0
 20 42  1  0  0  0  0
 22 23  1  0  0  0  0
 22 43  1  0  0  0  0
 22 44  1  0  0  0  0
 23 45  1  0  0  0  0
 23 46  1  0  0  0  0
M  END
> <s_m_source_file>
AV-unprocessed.smi

> <i_m_source_file_index>
827

> <i_lp_mmshare_version>
43012

> <i_f3d_flags>
0

> <s_epik_input>
W0NIM11PYzFuW2NIXVtjSF1bY0hdYzFbTkhdQyg9TylbTkhdW0NIMl1bQ0gyXU4yW0NIMl1bQ0gyXU4oQyg9TylbQ0gzXSlbQ0gyXVtDSDJdMg==

> <s_epik_cmdline>
J2VwaWtfcHl0aG9uJywgJy1waCcsICc3LjAnLCAnLXRuJywgJzgnLCAnLW1hJywgJzIwMCcsICctbWV0YWxfYmluZGluZycsICctaW1hZScsICc8aW5maWxlLm1hZT4nLCAnLW9tYWUnLCAnPG91dGZpbGUubWFlPic=

> <r_lp_tautomer_probability>
1

> <r_epik_Ionization_Penalty>
0.251055

> <r_epik_Ionization_Penalty_Charging>
0

> <r_epik_Ionization_Penalty_Neutral>
0.251055

> <r_epik_State_Penalty>
0.242297

> <r_epik_Charging_Adjusted_Penalty>
0.242297

> <i_epik_Tot_Q>
0

> <i_epik_Tot_abs_Q>
0

> <r_epik_Metal_State_Penalty>
0.242294

> <b_epik_Metal_Only>
0

> <s_lp_Force_Field>
OPLS_2005

> <r_lp_Energy>
35.7173

> <b_lp_Chiralities_Consistent>
1

> <s_lp_Variant>
AV-unprocessed.smi:827-1

> <Gold.Version>
5.8.1

> <Gold.Id.Protein>
6NUR|6NUR_protein|mol2

> <Gold.PLP.Fitness>
45.3498

> <Gold.PLP.PLP>
-38.1199

> <Gold.PLP.part.hbond>
-4.7432

> <Gold.PLP.part.metal>
0.0000

> <Gold.PLP.part.buried>
-2.1254

> <Gold.PLP.part.nonpolar>
-31.1571

> <Gold.PLP.part.repulsive>
1.7571

> <Gold.PLP.ligand.clash>
0.0000

> <Gold.PLP.ligand.torsion>
0.5459

> <Gold.PLP.Chemscore.Hbond>
2.7558

> <Gold.PLP.Chemscore.CHOScore>
0.0000

> <Gold.PLP.Chemscore.Metal>
0.0000

> <Gold.Chemscore.Hbonds>
donor molecule, donor type, donor heavy atom, donor atom, acceptor molecule, acceptor atom, score
      L1  H     9    30       P1  7948  1.00
      L1  H    12    31       P1  7948  0.59
      P1  H 10752 10764       L1    11  0.32

> <Gold.PLP.Chemscore.Internal.Correction>
0.0541

> <Gold.Rescore>
     Score         DG    S(hbond)    S(metal)    S(lipo)     H(rot)  DE(clash)    DE(int)     intcor
     13.14     -15.33       2.00        0.00      67.14       1.83       0.12       2.07       ----

> <Gold.Chemscore.Fitness>
13.1380

> <Gold.Chemscore.DG>
-15.3322

> <Gold.Chemscore.ZeroCoef>
-5.4800

> <Gold.Chemscore.Hbond>
1.9990

> <Gold.Chemscore.Metal>
0.0000

> <Gold.Chemscore.Lipo>
67.1381

> <Gold.Chemscore.Internal_Hbond>
0.0000

> <Gold.Chemscore.DEClash>
0.1232

> <Gold.Chemscore.DEInternal>
2.0710

> <Gold.Chemscore.Rot>
1.8280

> <Gold.Chemscore.Internal.Correction>
   9.000000E+99

> <Gold.Chemscore.Hbonds>
donor molecule, donor type, donor heavy atom, donor atom, acceptor molecule, acceptor atom, score
      L1  H     9    30       P1  7948  0.58
      L1  H    12    31       P1  7948  0.26
      P1  H 10752 10764       L1    11  0.02

> <Gold.Chemscore.Hbond.Weighted>
-6.6767

> <Gold.Chemscore.Metal.Weighted>
-0.0000

> <Gold.Chemscore.Lipo.Weighted>
-7.8552

> <Gold.Chemscore.Internal_Hbond.Weighted>
0.0000

> <Gold.Chemscore.DEClash.Weighted>
0.1232

> <Gold.Chemscore.DEInternal.Weighted>
2.0710

> <Gold.Chemscore.Rot.Weighted>
4.6796

> <Gold.Chemscore.Internal.Correction.Weighted>
   9.000000E+99

> <Gold.Protein.RotatedTorsions>
[ 6907 6896 6895 6894 ] final  -47.76 input  -60.11 | X-H torsion
[ 7974 7965 7964 7962 ] final  -82.73 input  175.53 | X-H torsion
[ 8008 7997 7996 7995 ] final  160.44 input   59.86 | X-H torsion
[ 10167 10162 10161 10158 ] final  -82.85 input  -65.29 | X-H torsion
[ 10718 10713 10712 10709 ] final   12.10 input   66.30 | X-H torsion
[ 10763 10752 10751 10750 ] final  -48.78 input  -60.55 | X-H torsion
[ 11005 11000 10999 10996 ] final  -77.14 input  -57.11 | X-H torsion

> <Gold.Protein.ActiveResidues>
 VAL166  LYS551  ARG553  GLY616  TRP617  ASP618  TYR619  PRO620  LYS621  CYS622 
 ASP623  PHE694  ASN695  SER759  ASP760  ASP761  ALA762  ILE779  LEU786  VAL792 
 PHE793  MET794  SER795  GLU796  ALA797  LYS798  CYS799  TRP800  GLU811  SER814 

> <Gold.Protein.RotatedAtoms>
  150.8974  134.8384  159.7336 H   0  0  0  0  0  0  0  0  0  0  0  0  # atno 6907 bound_to 6896
  152.4873  134.4554  159.9598 H   0  0  0  0  0  0  0  0  0  0  0  0  # atno 6908 bound_to 6896
  151.4610  133.3554  159.2844 H   0  0  0  0  0  0  0  0  0  0  0  0  # atno 6909 bound_to 6896
  145.5294  140.9523  143.1611 H   0  0  0  0  0  0  0  0  0  0  0  0  # atno 7974 bound_to 7965
  156.2172  140.1804  156.7562 H   0  0  0  0  0  0  0  0  0  0  0  0  # atno 8008 bound_to 7997
  154.5809  140.0666  156.9132 H   0  0  0  0  0  0  0  0  0  0  0  0  # atno 8009 bound_to 7997
  155.2504  140.3328  155.4285 H   0  0  0  0  0  0  0  0  0  0  0  0  # atno 8010 bound_to 7997
  140.4281  143.2559  151.8797 H   0  0  0  0  0  0  0  0  0  0  0  0  # atno 10167 bound_to 10162
  157.0052  130.6095  149.5701 H   0  0  0  0  0  0  0  0  0  0  0  0  # atno 10718 bound_to 10713
  154.0834  135.6588  153.4841 H   0  0  0  0  0  0  0  0  0  0  0  0  # atno 10763 bound_to 10752
  153.0347  135.5185  154.7452 H   0  0  0  0  0  0  0  0  0  0  0  0  # atno 10764 bound_to 10752
  154.6553  135.3007  154.9903 H   0  0  0  0  0  0  0  0  0  0  0  0  # atno 10765 bound_to 10752
  141.1658  133.7011  156.7775 H   0  0  0  0  0  0  0  0  0  0  0  0  # atno 11005 bound_to 11000
  144.7634  139.6903  143.7225 LP  0  0  0  0  0  0  0  0  0  0  0  0  # atno 17320 bound_to 7965
  146.2054  139.5375  142.9716 LP  0  0  0  0  0  0  0  0  0  0  0  0  # atno 17321 bound_to 7965
  139.4784  144.5364  151.8592 LP  0  0  0  0  0  0  0  0  0  0  0  0  # atno 17342 bound_to 10162
  140.4458  144.1924  150.5894 LP  0  0  0  0  0  0  0  0  0  0  0  0  # atno 17343 bound_to 10162
  156.0156  130.5250  150.8124 LP  0  0  0  0  0  0  0  0  0  0  0  0  # atno 17370 bound_to 10713
  157.5361  131.0939  150.9890 LP  0  0  0  0  0  0  0  0  0  0  0  0  # atno 17371 bound_to 10713
  140.2419  134.8607  157.3582 LP  0  0  0  0  0  0  0  0  0  0  0  0  # atno 17394 bound_to 11000
  140.1788  134.4516  155.7785 LP  0  0  0  0  0  0  0  0  0  0  0  0  # atno 17395 bound_to 11000

$$$$
