AV-unprocessed.smi:1466|AV-procd|sdf|5954|dock9
  -GOLD-   22720 6 43D 1   1.00000     0.00000
 Structure written by MMmdl.
 48 49  0  0  0  0  0  0  0  0  1 V2000
  150.7465  141.8205  156.4312 C   0  0  0  0  0  0  0  0  0  0  0  0
  150.5467  140.5017  155.8434 N   0  0  0  0  0  0  0  0  0  0  0  0
  151.5925  139.4898  155.9535 C   0  0  0  0  0  0  0  0  0  0  0  0
  149.3292  140.1876  155.1967 C   0  0  0  0  0  0  0  0  0  0  0  0
  148.3405  141.1746  154.9601 C   0  0  0  0  0  0  0  0  0  0  0  0
  147.1436  140.8132  154.3117 C   0  0  0  0  0  0  0  0  0  0  0  0
  146.9554  139.4684  153.9181 C   0  0  0  0  0  0  0  0  0  0  0  0
  145.8060  138.9798  153.2396 N   0  0  0  0  0  0  0  0  0  0  0  0
  145.5254  137.7222  152.8573 C   0  0  0  0  0  0  0  0  0  0  0  0
  146.2618  136.7482  153.0109 O   0  0  0  0  0  0  0  0  0  0  0  0
  144.3287  137.6567  152.2565 N   0  0  0  0  0  0  0  0  0  0  0  0
  143.7307  136.4434  151.7126 C   0  0  0  0  0  0  0  0  0  0  0  0
  143.1787  135.5369  152.8284 C   0  0  0  0  0  0  0  0  0  0  0  0
  143.7241  134.1778  152.7354 N   0  0  0  0  0  0  0  0  0  0  0  0
  142.9766  133.2376  151.8854 C   0  0  0  0  0  0  0  0  0  0  0  0
  143.7063  132.8687  150.5731 C   0  0  0  0  0  0  0  0  0  0  0  0
  145.2470  132.8749  150.6260 C   0  0  0  0  0  0  0  0  0  0  0  0
  145.8654  132.0523  151.7758 C   0  0  0  0  0  0  0  0  0  0  0  0
  145.3756  132.3829  153.2063 C   0  0  0  0  0  0  0  0  0  0  0  0
  144.8582  133.8195  153.3863 C   0  0  0  0  0  0  0  0  0  0  0  0
  145.4882  134.5905  154.1106 O   0  0  0  0  0  0  0  0  0  0  0  0
  147.9989  138.5610  154.1842 C   0  0  0  0  0  0  0  0  0  0  0  0
  149.1463  138.9029  154.8056 N   0  0  0  0  0  0  0  0  0  0  0  0
  149.9927  142.0186  157.1938 H   0  0  0  0  0  0  0  0  0  0  0  0
  150.6828  142.5954  155.6666 H   0  0  0  0  0  0  0  0  0  0  0  0
  151.7256  141.9007  156.9037 H   0  0  0  0  0  0  0  0  0  0  0  0
  151.2297  138.6218  156.5048 H   0  0  0  0  0  0  0  0  0  0  0  0
  152.4669  139.8760  156.4772 H   0  0  0  0  0  0  0  0  0  0  0  0
  151.9143  139.1631  154.9641 H   0  0  0  0  0  0  0  0  0  0  0  0
  148.4763  142.2032  155.2575 H   0  0  0  0  0  0  0  0  0  0  0  0
  146.4071  141.5769  154.1190 H   0  0  0  0  0  0  0  0  0  0  0  0
  145.1341  139.6836  152.9706 H   0  0  0  0  0  0  0  0  0  0  0  0
  143.7921  138.5074  152.1694 H   0  0  0  0  0  0  0  0  0  0  0  0
  142.9491  136.7007  150.9956 H   0  0  0  0  0  0  0  0  0  0  0  0
  144.5016  135.9133  151.1527 H   0  0  0  0  0  0  0  0  0  0  0  0
  143.4076  135.9677  153.8042 H   0  0  0  0  0  0  0  0  0  0  0  0
  142.0885  135.5024  152.7820 H   0  0  0  0  0  0  0  0  0  0  0  0
  142.7651  132.3327  152.4552 H   0  0  0  0  0  0  0  0  0  0  0  0
  141.9876  133.6306  151.6463 H   0  0  0  0  0  0  0  0  0  0  0  0
  143.3555  131.8917  150.2388 H   0  0  0  0  0  0  0  0  0  0  0  0
  143.3995  133.5711  149.7975 H   0  0  0  0  0  0  0  0  0  0  0  0
  145.6317  132.4981  149.6780 H   0  0  0  0  0  0  0  0  0  0  0  0
  145.6023  133.9048  150.6845 H   0  0  0  0  0  0  0  0  0  0  0  0
  145.6896  130.9929  151.5866 H   0  0  0  0  0  0  0  0  0  0  0  0
  146.9481  132.1787  151.7392 H   0  0  0  0  0  0  0  0  0  0  0  0
  144.5922  131.6861  153.5038 H   0  0  0  0  0  0  0  0  0  0  0  0
  146.1878  132.2042  153.9123 H   0  0  0  0  0  0  0  0  0  0  0  0
  147.9119  137.5245  153.8926 H   0  0  0  0  0  0  0  0  0  0  0  0
  1  2  1  0  0  0  0
  1 24  1  0  0  0  0
  1 25  1  0  0  0  0
  1 26  1  0  0  0  0
  2  3  1  0  0  0  0
  2  4  1  0  0  0  0
  3 27  1  0  0  0  0
  3 28  1  0  0  0  0
  3 29  1  0  0  0  0
  4 23  1  0  0  0  0
  4  5  2  0  0  0  0
  5  6  1  0  0  0  0
  5 30  1  0  0  0  0
  6  7  2  0  0  0  0
  6 31  1  0  0  0  0
  7  8  1  0  0  0  0
  7 22  1  0  0  0  0
  8  9  1  0  0  0  0
  8 32  1  0  0  0  0
  9 10  2  0  0  0  0
  9 11  1  0  0  0  0
 11 12  1  0  0  0  0
 11 33  1  0  0  0  0
 12 13  1  0  0  0  0
 12 34  1  0  0  0  0
 12 35  1  0  0  0  0
 13 14  1  0  0  0  0
 13 36  1  0  0  0  0
 13 37  1  0  0  0  0
 14 20  1  0  0  0  0
 14 15  1  0  0  0  0
 15 16  1  0  0  0  0
 15 38  1  0  0  0  0
 15 39  1  0  0  0  0
 16 17  1  0  0  0  0
 16 40  1  0  0  0  0
 16 41  1  0  0  0  0
 17 18  1  0  0  0  0
 17 42  1  0  0  0  0
 17 43  1  0  0  0  0
 18 19  1  0  0  0  0
 18 44  1  0  0  0  0
 18 45  1  0  0  0  0
 19 20  1  0  0  0  0
 19 46  1  0  0  0  0
 19 47  1  0  0  0  0
 20 21  2  0  0  0  0
 22 23  2  0  0  0  0
 22 48  1  0  0  0  0
M  END
> <s_m_source_file>
AV-unprocessed.smi

> <i_m_source_file_index>
1466

> <i_lp_mmshare_version>
43012

> <i_f3d_flags>
0

> <s_epik_input>
W0NIM11OKFtDSDNdKWMxW2NIXVtjSF1jKFtjSF1uMSlbTkhdQyg9TylbTkhdW0NIMl1bQ0gyXU4yW0NIMl1bQ0gyXVtDSDJdW0NIMl1bQ0gyXUMyPU8=

> <s_epik_cmdline>
J2VwaWtfcHl0aG9uJywgJy1waCcsICc3LjAnLCAnLXRuJywgJzgnLCAnLW1hJywgJzIwMCcsICctbWV0YWxfYmluZGluZycsICctaW1hZScsICc8aW5maWxlLm1hZT4nLCAnLW9tYWUnLCAnPG91dGZpbGUubWFlPic=

> <r_lp_tautomer_probability>
1

> <r_epik_Ionization_Penalty>
0.597116

> <r_epik_Ionization_Penalty_Charging>
0

> <r_epik_Ionization_Penalty_Neutral>
0.597116

> <r_epik_State_Penalty>
0.610079

> <r_epik_Charging_Adjusted_Penalty>
0.610079

> <i_epik_Tot_Q>
0

> <i_epik_Tot_abs_Q>
0

> <r_epik_Metal_State_Penalty>
0.299962

> <b_epik_Metal_Only>
0

> <s_lp_Force_Field>
OPLS_2005

> <r_lp_Energy>
26.5805

> <b_lp_Chiralities_Consistent>
1

> <s_lp_Variant>
AV-unprocessed.smi:1466-2

> <Gold.Version>
5.8.1

> <Gold.Id.Protein>
6NUR|6NUR_protein|mol2

> <Gold.PLP.Fitness>
43.5752

> <Gold.PLP.PLP>
-36.2806

> <Gold.PLP.part.hbond>
-3.0000

> <Gold.PLP.part.metal>
0.0000

> <Gold.PLP.part.buried>
-3.7629

> <Gold.PLP.part.nonpolar>
-32.7126

> <Gold.PLP.part.repulsive>
2.7938

> <Gold.PLP.ligand.clash>
0.0000

> <Gold.PLP.ligand.torsion>
0.8634

> <Gold.PLP.Chemscore.Hbond>
2.0000

> <Gold.PLP.Chemscore.CHOScore>
1.0000

> <Gold.PLP.Chemscore.Metal>
0.0000

> <Gold.Chemscore.Hbonds>
donor molecule, donor type, donor heavy atom, donor atom, acceptor molecule, acceptor atom, score
      L1  H     8    32       P1 10175  1.00
      L1  H    11    33       P1 10175  0.99
      L1  C    22    48       P1  7948  0.78

> <Gold.PLP.Chemscore.Internal.Correction>
0.0214

> <Gold.Rescore>
     Score         DG    S(hbond)    S(metal)    S(lipo)     H(rot)  DE(clash)    DE(int)     intcor
     11.24     -17.71       1.93        0.00      81.96       1.48       2.60       3.87       ----

> <Gold.Chemscore.Fitness>
11.2396

> <Gold.Chemscore.DG>
-17.7117

> <Gold.Chemscore.ZeroCoef>
-5.4800

> <Gold.Chemscore.Hbond>
1.9263

> <Gold.Chemscore.Metal>
0.0000

> <Gold.Chemscore.Lipo>
81.9581

> <Gold.Chemscore.Internal_Hbond>
0.0000

> <Gold.Chemscore.DEClash>
2.6043

> <Gold.Chemscore.DEInternal>
3.8679

> <Gold.Chemscore.Rot>
1.4810

> <Gold.Chemscore.Internal.Correction>
   9.000000E+99

> <Gold.Chemscore.Hbonds>
donor molecule, donor type, donor heavy atom, donor atom, acceptor molecule, acceptor atom, score
      L1  H     8    32       P1 10175  1.00
      L1  H    11    33       P1 10175  0.93

> <Gold.Chemscore.Hbond.Weighted>
-6.4338

> <Gold.Chemscore.Metal.Weighted>
-0.0000

> <Gold.Chemscore.Lipo.Weighted>
-9.5891

> <Gold.Chemscore.Internal_Hbond.Weighted>
0.0000

> <Gold.Chemscore.DEClash.Weighted>
2.6043

> <Gold.Chemscore.DEInternal.Weighted>
3.8679

> <Gold.Chemscore.Rot.Weighted>
3.7912

> <Gold.Chemscore.Internal.Correction.Weighted>
   9.000000E+99

> <Gold.Protein.RotatedTorsions>
[ 6907 6896 6895 6894 ] final   67.05 input  -60.11 | X-H torsion
[ 7974 7965 7964 7962 ] final  135.38 input  175.53 | X-H torsion
[ 8008 7997 7996 7995 ] final  -83.49 input   59.86 | X-H torsion
[ 10167 10162 10161 10158 ] final  106.20 input  -65.29 | X-H torsion
[ 10718 10713 10712 10709 ] final  177.41 input   66.30 | X-H torsion
[ 10763 10752 10751 10750 ] final   37.38 input  -60.55 | X-H torsion
[ 11005 11000 10999 10996 ] final   -1.94 input  -57.11 | X-H torsion

> <Gold.Protein.ActiveResidues>
 VAL166  LYS551  ARG553  GLY616  TRP617  ASP618  TYR619  PRO620  LYS621  CYS622 
 ASP623  PHE694  ASN695  SER759  ASP760  ASP761  ALA762  ILE779  LEU786  VAL792 
 PHE793  MET794  SER795  GLU796  ALA797  LYS798  CYS799  TRP800  GLU811  SER814 

> <Gold.Protein.RotatedAtoms>
  152.4525  134.5364  159.9825 H   0  0  0  0  0  0  0  0  0  0  0  0  # atno 6907 bound_to 6896
  151.5433  133.3423  159.2947 H   0  0  0  0  0  0  0  0  0  0  0  0  # atno 6908 bound_to 6896
  150.8458  134.7798  159.7032 H   0  0  0  0  0  0  0  0  0  0  0  0  # atno 6909 bound_to 6896
  144.9669  139.4648  143.5452 H   0  0  0  0  0  0  0  0  0  0  0  0  # atno 7974 bound_to 7965
  154.6196  140.0618  156.9598 H   0  0  0  0  0  0  0  0  0  0  0  0  # atno 8008 bound_to 7997
  155.1839  140.3301  155.4352 H   0  0  0  0  0  0  0  0  0  0  0  0  # atno 8009 bound_to 7997
  156.2424  140.1893  156.6934 H   0  0  0  0  0  0  0  0  0  0  0  0  # atno 8010 bound_to 7997
  139.7029  144.7091  151.1155 H   0  0  0  0  0  0  0  0  0  0  0  0  # atno 10167 bound_to 10162
  156.9058  130.9893  151.3028 H   0  0  0  0  0  0  0  0  0  0  0  0  # atno 10718 bound_to 10713
  153.0040  135.6279  154.2136 H   0  0  0  0  0  0  0  0  0  0  0  0  # atno 10763 bound_to 10752
  154.1879  135.2810  155.3033 H   0  0  0  0  0  0  0  0  0  0  0  0  # atno 10764 bound_to 10752
  154.5783  135.5655  153.7220 H   0  0  0  0  0  0  0  0  0  0  0  0  # atno 10765 bound_to 10752
  140.6529  133.9388  155.8391 H   0  0  0  0  0  0  0  0  0  0  0  0  # atno 11005 bound_to 11000
  146.3370  139.8856  142.8817 LP  0  0  0  0  0  0  0  0  0  0  0  0  # atno 17320 bound_to 7965
  145.2616  141.0079  143.3823 LP  0  0  0  0  0  0  0  0  0  0  0  0  # atno 17321 bound_to 7965
  140.7714  143.5399  150.9325 LP  0  0  0  0  0  0  0  0  0  0  0  0  # atno 17342 bound_to 10162
  139.9081  143.6753  152.3120 LP  0  0  0  0  0  0  0  0  0  0  0  0  # atno 17343 bound_to 10162
  157.5998  130.8504  149.8785 LP  0  0  0  0  0  0  0  0  0  0  0  0  # atno 17370 bound_to 10713
  156.0560  130.3708  150.1091 LP  0  0  0  0  0  0  0  0  0  0  0  0  # atno 17371 bound_to 10713
  141.0523  134.0467  157.3767 LP  0  0  0  0  0  0  0  0  0  0  0  0  # atno 17394 bound_to 11000
  139.9039  135.0174  156.7398 LP  0  0  0  0  0  0  0  0  0  0  0  0  # atno 17395 bound_to 11000

$$$$
