AV-unprocessed.smi:1115|AV-procd|sdf|4806|dock4
  -GOLD-   22720 3353D 1   1.00000     0.00000
 Structure written by MMmdl.
 51 52  0  0  0  0  0  0  0  0  4 V2000
  150.1861  144.8873  159.0557 C   0  0  0  0  0  0  0  0  0  0  0  0
  151.4241  144.2906  158.5724 N   0  0  0  0  0  0  0  0  0  0  0  0
  152.6399  145.0915  158.4856 C   0  0  0  0  0  0  0  0  0  0  0  0
  151.4077  142.9841  158.0377 C   0  0  0  0  0  0  0  0  0  0  0  0
  152.2258  141.9361  158.5265 C   0  0  0  0  0  0  0  0  0  0  0  0
  152.1510  140.6561  157.9401 C   0  0  0  0  0  0  0  0  0  0  0  0
  151.2698  140.4275  156.8637 C   0  0  0  0  0  0  0  0  0  0  0  0
  151.2126  139.1148  156.3220 N   0  0  0  0  0  0  0  0  0  0  0  0
  152.1793  138.1824  156.2456 C   0  0  0  0  0  0  0  0  0  0  0  0
  153.2973  138.3997  156.7259 O   0  0  0  0  0  0  0  0  0  0  0  0
  151.7499  137.0522  155.6238 N   0  5  0  0  0  0  0  0  0  0  0  0
  150.6012  136.9918  154.7128 C   0  0  0  0  0  0  0  0  0  0  0  0
  149.4879  136.0358  155.2698 C   0  0  0  0  0  0  0  0  0  0  0  0
  149.8847  134.5520  155.0304 C   0  0  0  0  0  0  0  0  0  0  0  0
  149.4184  136.2086  156.8197 C   0  0  0  0  0  0  0  0  0  0  0  0
  148.1707  136.3606  154.5925 N   0  3  0  0  0  0  0  0  0  0  0  0
  146.9831  135.5675  155.0355 C   0  0  0  0  0  0  0  0  0  0  0  0
  145.7915  135.8133  154.0996 C   0  0  0  0  0  0  0  0  0  0  0  0
  145.4712  137.1969  154.1083 O   0  0  0  0  0  0  0  0  0  0  0  0
  146.5478  137.9853  153.6220 C   0  0  0  0  0  0  0  0  0  0  0  0
  147.7914  137.7998  154.5098 C   0  0  0  0  0  0  0  0  0  0  0  0
  150.4644  141.5020  156.4188 C   0  0  0  0  0  0  0  0  0  0  0  0
  150.5676  142.7123  157.0092 N   0  3  0  0  0  0  0  0  0  0  0  0
  149.4307  144.8940  158.2697 H   0  0  0  0  0  0  0  0  0  0  0  0
  150.3411  145.9173  159.3772 H   0  0  0  0  0  0  0  0  0  0  0  0
  149.7986  144.3277  159.9074 H   0  0  0  0  0  0  0  0  0  0  0  0
  152.9102  145.2646  157.4436 H   0  0  0  0  0  0  0  0  0  0  0  0
  153.4690  144.5854  158.9807 H   0  0  0  0  0  0  0  0  0  0  0  0
  152.5103  146.0621  158.9648 H   0  0  0  0  0  0  0  0  0  0  0  0
  152.9126  142.0911  159.3448 H   0  0  0  0  0  0  0  0  0  0  0  0
  152.7732  139.8563  158.3146 H   0  0  0  0  0  0  0  0  0  0  0  0
  150.3043  138.8192  155.9958 H   0  0  0  0  0  0  0  0  0  0  0  0
  150.1709  137.9831  154.5659 H   0  0  0  0  0  0  0  0  0  0  0  0
  150.8955  136.6582  153.7171 H   0  0  0  0  0  0  0  0  0  0  0  0
  150.7827  134.2733  155.5860 H   0  0  0  0  0  0  0  0  0  0  0  0
  150.0800  134.3139  153.9830 H   0  0  0  0  0  0  0  0  0  0  0  0
  149.0932  133.8815  155.3669 H   0  0  0  0  0  0  0  0  0  0  0  0
  150.3802  136.0269  157.3049 H   0  0  0  0  0  0  0  0  0  0  0  0
  148.7308  135.4923  157.2709 H   0  0  0  0  0  0  0  0  0  0  0  0
  149.0912  137.2048  157.1249 H   0  0  0  0  0  0  0  0  0  0  0  0
  147.1984  134.4993  155.0489 H   0  0  0  0  0  0  0  0  0  0  0  0
  146.7006  135.8491  156.0507 H   0  0  0  0  0  0  0  0  0  0  0  0
  146.0128  135.4771  153.0852 H   0  0  0  0  0  0  0  0  0  0  0  0
  144.9233  135.2494  154.4414 H   0  0  0  0  0  0  0  0  0  0  0  0
  146.7686  137.7169  152.5877 H   0  0  0  0  0  0  0  0  0  0  0  0
  146.2435  139.0320  153.6183 H   0  0  0  0  0  0  0  0  0  0  0  0
  147.6064  138.1900  155.5115 H   0  0  0  0  0  0  0  0  0  0  0  0
  148.5832  138.4002  154.0651 H   0  0  0  0  0  0  0  0  0  0  0  0
  149.7331  141.4436  155.6268 H   0  0  0  0  0  0  0  0  0  0  0  0
  149.9733  143.4648  156.6613 H   0  0  0  0  0  0  0  0  0  0  0  0
  148.3377  136.0859  153.6337 H   0  0  0  0  0  0  0  0  0  0  0  0
  1  2  1  0  0  0  0
  1 24  1  0  0  0  0
  1 25  1  0  0  0  0
  1 26  1  0  0  0  0
  2  3  1  0  0  0  0
  2  4  1  0  0  0  0
  3 27  1  0  0  0  0
  3 28  1  0  0  0  0
  3 29  1  0  0  0  0
  4 23  1  0  0  0  0
  4  5  2  0  0  0  0
  5  6  1  0  0  0  0
  5 30  1  0  0  0  0
  6  7  2  0  0  0  0
  6 31  1  0  0  0  0
  7  8  1  0  0  0  0
  7 22  1  0  0  0  0
  8  9  1  0  0  0  0
  8 32  1  0  0  0  0
  9 10  2  0  0  0  0
  9 11  1  0  0  0  0
 11 12  1  0  0  0  0
 12 13  1  0  0  0  0
 12 33  1  0  0  0  0
 12 34  1  0  0  0  0
 13 14  1  0  0  0  0
 13 15  1  0  0  0  0
 13 16  1  0  0  0  0
 14 35  1  0  0  0  0
 14 36  1  0  0  0  0
 14 37  1  0  0  0  0
 15 38  1  0  0  0  0
 15 39  1  0  0  0  0
 15 40  1  0  0  0  0
 16 21  1  0  0  0  0
 16 17  1  0  0  0  0
 16 51  1  0  0  0  0
 17 18  1  0  0  0  0
 17 41  1  0  0  0  0
 17 42  1  0  0  0  0
 18 19  1  0  0  0  0
 18 43  1  0  0  0  0
 18 44  1  0  0  0  0
 19 20  1  0  0  0  0
 20 21  1  0  0  0  0
 20 45  1  0  0  0  0
 20 46  1  0  0  0  0
 21 47  1  0  0  0  0
 21 48  1  0  0  0  0
 22 23  2  0  0  0  0
 22 49  1  0  0  0  0
 23 50  1  0  0  0  0
M  CHG  1  11  -1
M  CHG  1  16   1
M  CHG  1  23   1
M  END
> <s_m_source_file>
AV-unprocessed.smi

> <i_m_source_file_index>
1115

> <i_lp_mmshare_version>
43012

> <i_f3d_flags>
0

> <s_epik_input>
W0NIM11OKFtDSDNdKWMxW2NIXVtjSF1jKFtjSF1uMSlbTkhdQyg9TylbTkhdW0NIMl1DKFtDSDNdKShbQ0gzXSlOMltDSDJdW0NIMl1PW0NIMl1bQ0gyXTI=

> <s_epik_cmdline>
J2VwaWtfcHl0aG9uJywgJy1waCcsICc3LjAnLCAnLXRuJywgJzgnLCAnLW1hJywgJzIwMCcsICctbWV0YWxfYmluZGluZycsICctaW1hZScsICc8aW5maWxlLm1hZT4nLCAnLW9tYWUnLCAnPG91dGZpbGUubWFlPic=

> <r_lp_tautomer_probability>
0.999994

> <r_epik_Ionization_Penalty>
7.4335

> <r_epik_Ionization_Penalty_Charging>
7.4335

> <r_epik_Ionization_Penalty_Neutral>
3.43851e-06

> <r_epik_State_Penalty>
7.6346

> <r_epik_Charging_Adjusted_Penalty>
15.0681

> <i_epik_Tot_Q>
1

> <i_epik_Tot_abs_Q>
3

> <r_epik_Metal_State_Penalty>
3.83601

> <b_epik_Metal_Only>
1

> <s_lp_Force_Field>
OPLS_2005

> <r_lp_Energy>
31.3993

> <b_lp_Chiralities_Consistent>
1

> <s_lp_Variant>
AV-unprocessed.smi:1115-5

> <Gold.Version>
5.8.1

> <Gold.Id.Protein>
6NUR|6NUR_protein|mol2

> <Gold.PLP.Fitness>
49.4826

> <Gold.PLP.PLP>
-32.7587

> <Gold.PLP.part.hbond>
-4.0000

> <Gold.PLP.part.metal>
0.0000

> <Gold.PLP.part.buried>
-5.8162

> <Gold.PLP.part.nonpolar>
-24.2369

> <Gold.PLP.part.repulsive>
0.1998

> <Gold.PLP.ligand.clash>
0.6101

> <Gold.PLP.ligand.torsion>
1.7918

> <Gold.PLP.Chemscore.Hbond>
6.8945

> <Gold.PLP.Chemscore.CHOScore>
0.0000

> <Gold.PLP.Chemscore.Metal>
0.0000

> <Gold.Chemscore.Hbonds>
donor molecule, donor type, donor heavy atom, donor atom, acceptor molecule, acceptor atom, score
      L1  H    16    51       P1  7948  2.00
      L1  H    23    50       P1  8028  2.00
      P1  H  7997  8009       L1    10  0.94
      P1  H 10752 10763       L1    11  1.56

> <Gold.PLP.Chemscore.Internal.Correction>
0.2342

> <Gold.Rescore>
     Score         DG    S(hbond)    S(metal)    S(lipo)     H(rot)  DE(clash)    DE(int)     intcor
     19.52     -22.72       3.46        0.00      80.53       1.46       0.10       3.10       ----

> <Gold.Chemscore.Fitness>
19.5189

> <Gold.Chemscore.DG>
-22.7166

> <Gold.Chemscore.ZeroCoef>
-5.4800

> <Gold.Chemscore.Hbond>
3.4626

> <Gold.Chemscore.Metal>
0.0000

> <Gold.Chemscore.Lipo>
80.5251

> <Gold.Chemscore.Internal_Hbond>
0.0000

> <Gold.Chemscore.DEClash>
0.1022

> <Gold.Chemscore.DEInternal>
3.0955

> <Gold.Chemscore.Rot>
1.4648

> <Gold.Chemscore.Internal.Correction>
   9.000000E+99

> <Gold.Chemscore.Hbonds>
donor molecule, donor type, donor heavy atom, donor atom, acceptor molecule, acceptor atom, score
      L1  H    16    51       P1  7948  0.99
      L1  H    23    50       P1  8028  0.99
      P1  H  7997  8009       L1    10  0.88
      P1  H 10752 10763       L1    11  0.23

> <Gold.Chemscore.Hbond.Weighted>
-11.5651

> <Gold.Chemscore.Metal.Weighted>
-0.0000

> <Gold.Chemscore.Lipo.Weighted>
-9.4214

> <Gold.Chemscore.Internal_Hbond.Weighted>
0.0000

> <Gold.Chemscore.DEClash.Weighted>
0.1022

> <Gold.Chemscore.DEInternal.Weighted>
3.0955

> <Gold.Chemscore.Rot.Weighted>
3.7499

> <Gold.Chemscore.Internal.Correction.Weighted>
   9.000000E+99

> <Gold.Protein.RotatedTorsions>
[ 6907 6896 6895 6894 ] final   17.03 input  -60.11 | X-H torsion
[ 7974 7965 7964 7962 ] final  -37.38 input  175.53 | X-H torsion
[ 8008 7997 7996 7995 ] final -175.26 input   59.86 | X-H torsion
[ 10167 10162 10161 10158 ] final -118.32 input  -65.29 | X-H torsion
[ 10718 10713 10712 10709 ] final  119.67 input   66.30 | X-H torsion
[ 10763 10752 10751 10750 ] final   71.14 input  -60.55 | X-H torsion
[ 11005 11000 10999 10996 ] final  -87.32 input  -57.11 | X-H torsion

> <Gold.Protein.ActiveResidues>
 VAL166  LYS551  ARG553  GLY616  TRP617  ASP618  TYR619  PRO620  LYS621  CYS622 
 ASP623  PHE694  ASN695  SER759  ASP760  ASP761  ALA762  ILE779  LEU786  VAL792 
 PHE793  MET794  SER795  GLU796  ALA797  LYS798  CYS799  TRP800  GLU811  SER814 

> <Gold.Protein.RotatedAtoms>
  151.8432  135.0583  160.0450 H   0  0  0  0  0  0  0  0  0  0  0  0  # atno 6907 bound_to 6896
  152.2793  133.5450  159.5496 H   0  0  0  0  0  0  0  0  0  0  0  0  # atno 6908 bound_to 6896
  150.7183  134.0503  159.3838 H   0  0  0  0  0  0  0  0  0  0  0  0  # atno 6909 bound_to 6896
  146.0580  140.6389  142.9011 H   0  0  0  0  0  0  0  0  0  0  0  0  # atno 7974 bound_to 7965
  155.9804  140.1180  157.0731 H   0  0  0  0  0  0  0  0  0  0  0  0  # atno 8008 bound_to 7997
  154.4181  140.1145  156.5496 H   0  0  0  0  0  0  0  0  0  0  0  0  # atno 8009 bound_to 7997
  155.6478  140.3473  155.4739 H   0  0  0  0  0  0  0  0  0  0  0  0  # atno 8010 bound_to 7997
  140.0588  143.4988  152.2043 H   0  0  0  0  0  0  0  0  0  0  0  0  # atno 10167 bound_to 10162
  157.5945  131.1060  150.7928 H   0  0  0  0  0  0  0  0  0  0  0  0  # atno 10718 bound_to 10713
  153.0381  135.5148  154.7548 H   0  0  0  0  0  0  0  0  0  0  0  0  # atno 10763 bound_to 10752
  154.6507  135.2924  154.9993 H   0  0  0  0  0  0  0  0  0  0  0  0  # atno 10764 bound_to 10752
  154.0878  135.6654  153.4900 H   0  0  0  0  0  0  0  0  0  0  0  0  # atno 10765 bound_to 10752
  141.1618  133.7504  156.9289 H   0  0  0  0  0  0  0  0  0  0  0  0  # atno 11005 bound_to 11000
  144.7158  140.4205  143.7045 LP  0  0  0  0  0  0  0  0  0  0  0  0  # atno 17320 bound_to 7965
  145.6610  139.1581  143.2808 LP  0  0  0  0  0  0  0  0  0  0  0  0  # atno 17321 bound_to 7965
  139.5907  144.7549  151.3409 LP  0  0  0  0  0  0  0  0  0  0  0  0  # atno 17342 bound_to 10162
  140.7182  143.7209  150.7696 LP  0  0  0  0  0  0  0  0  0  0  0  0  # atno 17343 bound_to 10162
  156.8342  130.5026  149.5328 LP  0  0  0  0  0  0  0  0  0  0  0  0  # atno 17370 bound_to 10713
  156.1006  130.5966  150.9887 LP  0  0  0  0  0  0  0  0  0  0  0  0  # atno 17371 bound_to 10713
  140.1400  134.9300  157.2453 LP  0  0  0  0  0  0  0  0  0  0  0  0  # atno 17394 bound_to 11000
  140.2849  134.3307  155.7332 LP  0  0  0  0  0  0  0  0  0  0  0  0  # atno 17395 bound_to 11000

$$$$
