AV-unprocessed.smi:2159|AV-procd|sdf|8795|dock9
  -GOLD-   2272011573D 1   1.00000     0.00000
 Structure written by MMmdl.
 48 50  0  0  0  0  0  0  0  0  2 V2000
  152.2167  137.6463  154.0539 O   0  0  0  0  0  0  0  0  0  0  0  0
  151.5806  137.9052  155.0750 C   0  0  0  0  0  0  0  0  0  0  0  0
  151.5354  139.3362  155.6122 C   0  0  0  0  0  0  0  0  0  0  0  0
  151.5449  139.3687  157.1537 C   0  0  0  0  0  0  0  0  0  0  0  0
  151.7455  140.7294  157.6603 N   0  0  0  0  0  0  0  0  0  0  0  0
  152.7702  141.0894  158.4457 C   0  0  0  0  0  0  0  0  0  0  0  0
  153.6627  140.3479  158.8591 O   0  0  0  0  0  0  0  0  0  0  0  0
  152.7153  142.5793  158.7727 C   0  0  2  0  0  0  0  0  0  0  0  0
  152.6961  142.8448  160.2927 C   0  0  0  0  0  0  0  0  0  0  0  0
  152.2927  144.2977  160.5970 C   0  0  0  0  0  0  0  0  0  0  0  0
  150.9801  144.7301  159.9059 C   0  0  0  0  0  0  0  0  0  0  0  0
  150.3749  143.6457  158.9965 C   0  0  0  0  0  0  0  0  0  0  0  0
  151.4330  143.0435  158.0481 C   0  0  2  0  0  0  0  0  0  0  0  0
  150.9378  141.7619  157.3818 C   0  0  0  0  0  0  0  0  0  0  0  0
  149.9257  141.7237  156.6823 O   0  0  0  0  0  0  0  0  0  0  0  0
  150.8726  136.9908  155.7553 N   0  0  0  0  0  0  0  0  0  0  0  0
  150.6816  135.6013  155.3501 C   0  0  0  0  0  0  0  0  0  0  0  0
  149.3016  135.0409  155.7565 C   0  0  0  0  0  0  0  0  0  0  0  0
  148.8739  133.8276  154.9475 C   0  0  0  0  0  0  0  0  0  0  0  0
  148.7941  132.5374  155.5163 C   0  0  0  0  0  0  0  0  0  0  0  0
  148.4160  131.4477  154.7053 C   0  0  0  0  0  0  0  0  0  0  0  0
  148.1202  131.6713  153.3448 C   0  0  0  0  0  0  0  0  0  0  0  0
  148.2107  132.9806  152.8296 C   0  0  0  0  0  0  0  0  0  0  0  0
  148.5801  133.9983  153.6382 N   0  3  0  0  0  0  0  0  0  0  0  0
  152.3949  139.8847  155.2224 H   0  0  0  0  0  0  0  0  0  0  0  0
  150.6475  139.8398  155.2287 H   0  0  0  0  0  0  0  0  0  0  0  0
  150.6126  138.9525  157.5396 H   0  0  0  0  0  0  0  0  0  0  0  0
  152.3322  138.7225  157.5469 H   0  0  0  0  0  0  0  0  0  0  0  0
  153.5830  143.0679  158.3271 H   0  0  0  0  0  0  0  0  0  0  0  0
  152.0000  142.1664  160.7892 H   0  0  0  0  0  0  0  0  0  0  0  0
  153.6778  142.6387  160.7210 H   0  0  0  0  0  0  0  0  0  0  0  0
  152.2071  144.4361  161.6750 H   0  0  0  0  0  0  0  0  0  0  0  0
  153.0962  144.9611  160.2744 H   0  0  0  0  0  0  0  0  0  0  0  0
  150.2457  145.0222  160.6570 H   0  0  0  0  0  0  0  0  0  0  0  0
  151.1718  145.6256  159.3136 H   0  0  0  0  0  0  0  0  0  0  0  0
  149.9377  142.8621  159.6178 H   0  0  0  0  0  0  0  0  0  0  0  0
  149.5506  144.0680  158.4204 H   0  0  0  0  0  0  0  0  0  0  0  0
  151.6891  143.7686  157.2744 H   0  0  0  0  0  0  0  0  0  0  0  0
  150.3915  137.2929  156.5903 H   0  0  0  0  0  0  0  0  0  0  0  0
  150.8371  135.4947  154.2755 H   0  0  0  0  0  0  0  0  0  0  0  0
  151.4646  135.0166  155.8338 H   0  0  0  0  0  0  0  0  0  0  0  0
  149.3146  134.7673  156.8122 H   0  0  0  0  0  0  0  0  0  0  0  0
  148.5449  135.8202  155.6606 H   0  0  0  0  0  0  0  0  0  0  0  0
  149.0301  132.3813  156.5590 H   0  0  0  0  0  0  0  0  0  0  0  0
  148.3566  130.4527  155.1218 H   0  0  0  0  0  0  0  0  0  0  0  0
  147.8292  130.8498  152.7065 H   0  0  0  0  0  0  0  0  0  0  0  0
  148.0030  133.2422  151.8022 H   0  0  0  0  0  0  0  0  0  0  0  0
  148.6421  134.9368  153.2427 H   0  0  0  0  0  0  0  0  0  0  0  0
  1  2  2  0  0  0  0
  2  3  1  0  0  0  0
  2 16  1  0  0  0  0
  3  4  1  0  0  0  0
  3 25  1  0  0  0  0
  3 26  1  0  0  0  0
  4  5  1  0  0  0  0
  4 27  1  0  0  0  0
  4 28  1  0  0  0  0
  5 14  1  0  0  0  0
  5  6  1  0  0  0  0
  6  7  2  0  0  0  0
  6  8  1  0  0  0  0
  8 13  1  0  0  0  0
  8  9  1  0  0  0  0
  8 29  1  0  0  0  0
  9 10  1  0  0  0  0
  9 30  1  0  0  0  0
  9 31  1  0  0  0  0
 10 11  1  0  0  0  0
 10 32  1  0  0  0  0
 10 33  1  0  0  0  0
 11 12  1  0  0  0  0
 11 34  1  0  0  0  0
 11 35  1  0  0  0  0
 12 13  1  0  0  0  0
 12 36  1  0  0  0  0
 12 37  1  0  0  0  0
 13 14  1  0  0  0  0
 13 38  1  0  0  0  0
 14 15  2  0  0  0  0
 16 17  1  0  0  0  0
 16 39  1  0  0  0  0
 17 18  1  0  0  0  0
 17 40  1  0  0  0  0
 17 41  1  0  0  0  0
 18 19  1  0  0  0  0
 18 42  1  0  0  0  0
 18 43  1  0  0  0  0
 19 24  1  0  0  0  0
 19 20  2  0  0  0  0
 20 21  1  0  0  0  0
 20 44  1  0  0  0  0
 21 22  2  0  0  0  0
 21 45  1  0  0  0  0
 22 23  1  0  0  0  0
 22 46  1  0  0  0  0
 23 24  2  0  0  0  0
 23 47  1  0  0  0  0
 24 48  1  0  0  0  0
M  CHG  1  24   1
M  END
> <s_m_source_file>
AV-unprocessed.smi

> <i_m_source_file_index>
2159

> <i_lp_mmshare_version>
43012

> <i_f3d_flags>
0

> <s_epik_input>
bjFbY0hdW2NIXVtjSF1bY0hdYzFbQ0gyXVtDSDJdW05IXUMoPU8pW0NIMl1bQ0gyXU4oQzI9TylDKD1PKVtDQEhdKFtDQEBIXTIzKVtDSDJdW0NIMl1bQ0gyXVtDSDJdMw==

> <s_epik_cmdline>
J2VwaWtfcHl0aG9uJywgJy1waCcsICc3LjAnLCAnLXRuJywgJzgnLCAnLW1hJywgJzIwMCcsICctbWV0YWxfYmluZGluZycsICctaW1hZScsICc8aW5maWxlLm1hZT4nLCAnLW9tYWUnLCAnPG91dGZpbGUubWFlPic=

> <r_lp_tautomer_probability>
1

> <r_epik_Ionization_Penalty>
1.85146

> <r_epik_Ionization_Penalty_Charging>
1.85146

> <r_epik_Ionization_Penalty_Neutral>
2.95922e-08

> <r_epik_State_Penalty>
1.96899

> <r_epik_Charging_Adjusted_Penalty>
3.82044

> <i_epik_Tot_Q>
1

> <i_epik_Tot_abs_Q>
1

> <r_epik_Metal_State_Penalty>
1.99467

> <b_epik_Metal_Only>
0

> <s_lp_Force_Field>
OPLS_2005

> <r_lp_Energy>
31.2596

> <b_lp_Chiralities_Consistent>
1

> <s_lp_Variant>
AV-unprocessed.smi:2159-5

> <Gold.Version>
5.8.1

> <Gold.Id.Protein>
6NUR|6NUR_protein|mol2

> <Gold.PLP.Fitness>
53.0009

> <Gold.PLP.PLP>
-44.1275

> <Gold.PLP.part.hbond>
-3.0000

> <Gold.PLP.part.metal>
0.0000

> <Gold.PLP.part.buried>
-4.2814

> <Gold.PLP.part.nonpolar>
-36.7491

> <Gold.PLP.part.repulsive>
0.3176

> <Gold.PLP.ligand.clash>
0.0000

> <Gold.PLP.ligand.torsion>
0.7069

> <Gold.PLP.Chemscore.Hbond>
3.3858

> <Gold.PLP.Chemscore.CHOScore>
0.0000

> <Gold.PLP.Chemscore.Metal>
0.0000

> <Gold.Chemscore.Hbonds>
donor molecule, donor type, donor heavy atom, donor atom, acceptor molecule, acceptor atom, score
      L1  H    24    48       P1  7948  2.00
      P1  H  7997  8008       L1     7  0.82
      P1  H 10752 10765       L1     1  0.70

> <Gold.PLP.Chemscore.Internal.Correction>
0.1299

> <Gold.Rescore>
     Score         DG    S(hbond)    S(metal)    S(lipo)     H(rot)  DE(clash)    DE(int)     intcor
     18.70     -19.51       2.20        0.00     103.03       2.10       0.09       0.71       ----

> <Gold.Chemscore.Fitness>
18.7008

> <Gold.Chemscore.DG>
-19.5096

> <Gold.Chemscore.ZeroCoef>
-5.4800

> <Gold.Chemscore.Hbond>
2.1976

> <Gold.Chemscore.Metal>
0.0000

> <Gold.Chemscore.Lipo>
103.0346

> <Gold.Chemscore.Internal_Hbond>
0.0000

> <Gold.Chemscore.DEClash>
0.0942

> <Gold.Chemscore.DEInternal>
0.7146

> <Gold.Chemscore.Rot>
2.0959

> <Gold.Chemscore.Internal.Correction>
   9.000000E+99

> <Gold.Chemscore.Hbonds>
donor molecule, donor type, donor heavy atom, donor atom, acceptor molecule, acceptor atom, score
      L1  H    24    48       P1  7948  0.54
      P1  H  7997  8008       L1     7  0.38
      P1  H 10752 10765       L1     1  0.56

> <Gold.Chemscore.Hbond.Weighted>
-7.3401

> <Gold.Chemscore.Metal.Weighted>
-0.0000

> <Gold.Chemscore.Lipo.Weighted>
-12.0550

> <Gold.Chemscore.Internal_Hbond.Weighted>
0.0000

> <Gold.Chemscore.DEClash.Weighted>
0.0942

> <Gold.Chemscore.DEInternal.Weighted>
0.7146

> <Gold.Chemscore.Rot.Weighted>
5.3655

> <Gold.Chemscore.Internal.Correction.Weighted>
   9.000000E+99

> <Gold.Protein.RotatedTorsions>
[ 6907 6896 6895 6894 ] final   39.98 input  -60.11 | X-H torsion
[ 7974 7965 7964 7962 ] final  -21.48 input  175.53 | X-H torsion
[ 8008 7997 7996 7995 ] final -106.73 input   59.86 | X-H torsion
[ 10167 10162 10161 10158 ] final  -81.63 input  -65.29 | X-H torsion
[ 10718 10713 10712 10709 ] final  -19.34 input   66.30 | X-H torsion
[ 10763 10752 10751 10750 ] final  151.29 input  -60.55 | X-H torsion
[ 11005 11000 10999 10996 ] final   75.80 input  -57.11 | X-H torsion

> <Gold.Protein.ActiveResidues>
 VAL166  LYS551  ARG553  GLY616  TRP617  ASP618  TYR619  PRO620  LYS621  CYS622 
 ASP623  PHE694  ASN695  SER759  ASP760  ASP761  ALA762  ILE779  LEU786  VAL792 
 PHE793  MET794  SER795  GLU796  ALA797  LYS798  CYS799  TRP800  GLU811  SER814 

> <Gold.Protein.RotatedAtoms>
  152.1765  134.8790  160.0529 H   0  0  0  0  0  0  0  0  0  0  0  0  # atno 6907 bound_to 6896
  151.9730  133.3727  159.4086 H   0  0  0  0  0  0  0  0  0  0  0  0  # atno 6908 bound_to 6896
  150.6910  134.4043  159.5177 H   0  0  0  0  0  0  0  0  0  0  0  0  # atno 6909 bound_to 6896
  146.1730  140.4347  142.8524 H   0  0  0  0  0  0  0  0  0  0  0  0  # atno 7974 bound_to 7965
  154.9189  140.0408  157.1987 H   0  0  0  0  0  0  0  0  0  0  0  0  # atno 8008 bound_to 7997
  154.8274  140.2893  155.5724 H   0  0  0  0  0  0  0  0  0  0  0  0  # atno 8009 bound_to 7997
  156.2984  140.2507  156.3192 H   0  0  0  0  0  0  0  0  0  0  0  0  # atno 8010 bound_to 7997
  140.4394  143.2520  151.8647 H   0  0  0  0  0  0  0  0  0  0  0  0  # atno 10167 bound_to 10162
  156.5471  130.4692  149.6470 H   0  0  0  0  0  0  0  0  0  0  0  0  # atno 10718 bound_to 10713
  154.1013  135.2845  155.3251 H   0  0  0  0  0  0  0  0  0  0  0  0  # atno 10763 bound_to 10752
  154.6553  135.5354  153.7955 H   0  0  0  0  0  0  0  0  0  0  0  0  # atno 10764 bound_to 10752
  153.0378  135.6520  154.1176 H   0  0  0  0  0  0  0  0  0  0  0  0  # atno 10765 bound_to 10752
  139.9327  134.7548  156.1316 H   0  0  0  0  0  0  0  0  0  0  0  0  # atno 11005 bound_to 11000
  144.8193  140.6522  143.6364 LP  0  0  0  0  0  0  0  0  0  0  0  0  # atno 17320 bound_to 7965
  145.4288  139.1552  143.4034 LP  0  0  0  0  0  0  0  0  0  0  0  0  # atno 17321 bound_to 7965
  139.4789  144.5246  151.8753 LP  0  0  0  0  0  0  0  0  0  0  0  0  # atno 17342 bound_to 10162
  140.4336  144.2082  150.5888 LP  0  0  0  0  0  0  0  0  0  0  0  0  # atno 17343 bound_to 10162
  156.2919  130.7128  151.1979 LP  0  0  0  0  0  0  0  0  0  0  0  0  # atno 17370 bound_to 10713
  157.7394  131.0529  150.5230 LP  0  0  0  0  0  0  0  0  0  0  0  0  # atno 17371 bound_to 10713
  141.0924  133.6709  156.2571 LP  0  0  0  0  0  0  0  0  0  0  0  0  # atno 17394 bound_to 11000
  140.6159  134.5411  157.5540 LP  0  0  0  0  0  0  0  0  0  0  0  0  # atno 17395 bound_to 11000

$$$$
