AV-unprocessed.smi:703|AV-procd|sdf|3440|dock3
  -GOLD-   22720 0423D 1   1.00000     0.00000
 Structure written by MMmdl.
 37 38  0  0  0  0  0  0  0  0  3 V2000
  145.5772  135.9826  150.8215 C   0  0  0  0  0  0  0  0  0  0  0  0
  145.4842  136.3504  152.3084 C   0  0  0  0  0  0  0  0  0  0  0  0
  146.6154  137.2022  152.7447 N   0  3  1  0  0  0  0  0  0  0  0  0
  146.5016  138.6273  152.3505 C   0  0  0  0  0  0  0  0  0  0  0  0
  146.8507  139.4543  153.5994 C   0  0  2  0  0  0  0  0  0  0  0  0
  147.4827  140.8318  153.3087 C   0  0  0  0  0  0  0  0  0  0  0  0
  147.6343  138.4820  154.5018 C   0  0  2  0  0  0  0  0  0  0  0  0
  149.0367  138.4026  154.0997 N   0  5  0  0  0  0  0  0  0  0  0  0
  150.1978  138.8871  155.1239 S   0  0  0  0  0  0  0  0  0  0  0  0
  150.9188  140.0758  154.6399 O   0  0  0  0  0  0  0  0  0  0  0  0
  149.7421  138.9079  156.5232 O   0  0  0  0  0  0  0  0  0  0  0  0
  151.3827  137.4810  154.9909 C   0  0  0  0  0  0  0  0  0  0  0  0
  150.8626  136.2984  155.7587 C   0  0  0  0  0  0  0  0  0  0  0  0
  150.4745  135.0224  155.2639 C   0  0  0  0  0  0  0  0  0  0  0  0
  150.0908  134.3475  156.3864 C   0  0  0  0  0  0  0  0  0  0  0  0
  150.2189  135.1371  157.4824 O   0  0  0  0  0  0  0  0  0  0  0  0
  150.7089  136.3819  157.0713 N   0  0  0  0  0  0  0  0  0  0  0  0
  146.9145  137.1627  154.1947 C   0  0  0  0  0  0  0  0  0  0  0  0
  144.7031  135.4102  150.5108 H   0  0  0  0  0  0  0  0  0  0  0  0
  146.4574  135.3744  150.6117 H   0  0  0  0  0  0  0  0  0  0  0  0
  145.6282  136.8751  150.1970 H   0  0  0  0  0  0  0  0  0  0  0  0
  144.5538  136.8947  152.4756 H   0  0  0  0  0  0  0  0  0  0  0  0
  145.4372  135.4498  152.9226 H   0  0  0  0  0  0  0  0  0  0  0  0
  147.2000  138.8159  151.5328 H   0  0  0  0  0  0  0  0  0  0  0  0
  145.5026  138.8788  151.9904 H   0  0  0  0  0  0  0  0  0  0  0  0
  145.9092  139.6502  154.1157 H   0  0  0  0  0  0  0  0  0  0  0  0
  148.4097  140.7516  152.7387 H   0  0  0  0  0  0  0  0  0  0  0  0
  147.6997  141.3807  154.2266 H   0  0  0  0  0  0  0  0  0  0  0  0
  146.7995  141.4461  152.7215 H   0  0  0  0  0  0  0  0  0  0  0  0
  147.5217  138.7573  155.5505 H   0  0  0  0  0  0  0  0  0  0  0  0
  151.5137  137.2420  153.9353 H   0  0  0  0  0  0  0  0  0  0  0  0
  152.3469  137.8066  155.3803 H   0  0  0  0  0  0  0  0  0  0  0  0
  150.4853  134.6591  154.2469 H   0  0  0  0  0  0  0  0  0  0  0  0
  149.7195  133.3488  156.5613 H   0  0  0  0  0  0  0  0  0  0  0  0
  145.9795  137.1286  154.7564 H   0  0  0  0  0  0  0  0  0  0  0  0
  147.4842  136.2744  154.4657 H   0  0  0  0  0  0  0  0  0  0  0  0
  147.4463  136.8610  152.2828 H   0  0  0  0  0  0  0  0  0  0  0  0
  1  2  1  0  0  0  0
  1 19  1  0  0  0  0
  1 20  1  0  0  0  0
  1 21  1  0  0  0  0
  2  3  1  0  0  0  0
  2 22  1  0  0  0  0
  2 23  1  0  0  0  0
  3 18  1  0  0  0  0
  3  4  1  0  0  0  0
  3 37  1  0  0  0  0
  4  5  1  0  0  0  0
  4 24  1  0  0  0  0
  4 25  1  0  0  0  0
  5  6  1  0  0  0  0
  5  7  1  0  0  0  0
  5 26  1  0  0  0  0
  6 27  1  0  0  0  0
  6 28  1  0  0  0  0
  6 29  1  0  0  0  0
  7  8  1  0  0  0  0
  7 18  1  0  0  0  0
  7 30  1  0  0  0  0
  8  9  1  0  0  0  0
  9 10  2  0  0  0  0
  9 11  2  0  0  0  0
  9 12  1  0  0  0  0
 12 13  1  0  0  0  0
 12 31  1  0  0  0  0
 12 32  1  0  0  0  0
 13 17  2  0  0  0  0
 13 14  1  0  0  0  0
 14 15  2  0  0  0  0
 14 33  1  0  0  0  0
 15 16  1  0  0  0  0
 15 34  1  0  0  0  0
 16 17  1  0  0  0  0
 18 35  1  0  0  0  0
 18 36  1  0  0  0  0
M  CHG  1   3   1
M  CHG  1   8  -1
M  END
> <s_m_source_file>
AV-unprocessed.smi

> <i_m_source_file_index>
703

> <i_lp_mmshare_version>
43012

> <i_f3d_flags>
0

> <s_epik_input>
W0NIM11bQ0gyXU4xW0NIMl1bQ0BASF0oW0NIM10pW0NASF0oW0NIMl0xKVtOSF1TKD1PKSg9TylbQ0gyXWMyW2NIXVtjSF1vbjI=

> <s_epik_cmdline>
J2VwaWtfcHl0aG9uJywgJy1waCcsICc3LjAnLCAnLXRuJywgJzgnLCAnLW1hJywgJzIwMCcsICctbWV0YWxfYmluZGluZycsICctaW1hZScsICc8aW5maWxlLm1hZT4nLCAnLW9tYWUnLCAnPG91dGZpbGUubWFlPic=

> <r_epik_Ionization_Penalty>
3.62494

> <r_epik_Ionization_Penalty_Charging>
3.62494

> <r_epik_Ionization_Penalty_Neutral>
2.0321e-10

> <r_epik_State_Penalty>
3.62558

> <r_epik_Charging_Adjusted_Penalty>
7.25052

> <i_epik_Tot_Q>
0

> <i_epik_Tot_abs_Q>
2

> <r_epik_Metal_State_Penalty>
0.530836

> <b_epik_Metal_Only>
1

> <s_lp_Force_Field>
OPLS_2005

> <r_lp_Energy>
16.9152

> <b_lp_Chiralities_Consistent>
1

> <s_lp_Variant>
AV-unprocessed.smi:703-15

> <Gold.Version>
5.8.1

> <Gold.Id.Protein>
6NUR|6NUR_protein|mol2

> <Gold.PLP.Fitness>
35.0346

> <Gold.PLP.PLP>
-25.5910

> <Gold.PLP.part.hbond>
-3.0000

> <Gold.PLP.part.metal>
0.0000

> <Gold.PLP.part.buried>
-4.2209

> <Gold.PLP.part.nonpolar>
-19.9422

> <Gold.PLP.part.repulsive>
0.4085

> <Gold.PLP.ligand.clash>
0.0000

> <Gold.PLP.ligand.torsion>
1.1539

> <Gold.PLP.Chemscore.Hbond>
3.5616

> <Gold.PLP.Chemscore.CHOScore>
0.0000

> <Gold.PLP.Chemscore.Metal>
0.0000

> <Gold.Chemscore.Hbonds>
donor molecule, donor type, donor heavy atom, donor atom, acceptor molecule, acceptor atom, score
      L1  H     3    37       P1  7948  2.00
      P1  H  6896  6907       L1    16  0.50
      P1  H  7989  7998       L1    10  1.00

> <Gold.PLP.Chemscore.Internal.Correction>
1.0666

> <Gold.Rescore>
     Score         DG    S(hbond)    S(metal)    S(lipo)     H(rot)  DE(clash)    DE(int)     intcor
     14.85     -17.52       2.75        0.00      60.14       1.63       0.08       2.59       ----

> <Gold.Chemscore.Fitness>
14.8516

> <Gold.Chemscore.DG>
-17.5199

> <Gold.Chemscore.ZeroCoef>
-5.4800

> <Gold.Chemscore.Hbond>
2.7504

> <Gold.Chemscore.Metal>
0.0000

> <Gold.Chemscore.Lipo>
60.1377

> <Gold.Chemscore.Internal_Hbond>
0.0000

> <Gold.Chemscore.DEClash>
0.0766

> <Gold.Chemscore.DEInternal>
2.5917

> <Gold.Chemscore.Rot>
1.6338

> <Gold.Chemscore.Internal.Correction>
   9.000000E+99

> <Gold.Chemscore.Hbonds>
donor molecule, donor type, donor heavy atom, donor atom, acceptor molecule, acceptor atom, score
      L1  H     3    37       P1  7948  1.00
      P1  H  6896  6907       L1    16  0.48
      P1  H  7989  7998       L1    10  0.96

> <Gold.Chemscore.Hbond.Weighted>
-9.1863

> <Gold.Chemscore.Metal.Weighted>
-0.0000

> <Gold.Chemscore.Lipo.Weighted>
-7.0361

> <Gold.Chemscore.Internal_Hbond.Weighted>
0.0000

> <Gold.Chemscore.DEClash.Weighted>
0.0766

> <Gold.Chemscore.DEInternal.Weighted>
2.5917

> <Gold.Chemscore.Rot.Weighted>
4.1825

> <Gold.Chemscore.Internal.Correction.Weighted>
   9.000000E+99

> <Gold.Protein.RotatedTorsions>
[ 6907 6896 6895 6894 ] final  -84.50 input  -60.11 | X-H torsion
[ 7974 7965 7964 7962 ] final -126.77 input  175.53 | X-H torsion
[ 8008 7997 7996 7995 ] final  144.85 input   59.86 | X-H torsion
[ 10167 10162 10161 10158 ] final  -67.50 input  -65.29 | X-H torsion
[ 10718 10713 10712 10709 ] final  -28.80 input   66.30 | X-H torsion
[ 10763 10752 10751 10750 ] final  -62.39 input  -60.55 | X-H torsion
[ 11005 11000 10999 10996 ] final   20.86 input  -57.11 | X-H torsion

> <Gold.Protein.ActiveResidues>
 VAL166  LYS551  ARG553  GLY616  TRP617  ASP618  TYR619  PRO620  LYS621  CYS622 
 ASP623  PHE694  ASN695  SER759  ASP760  ASP761  ALA762  ILE779  LEU786  VAL792 
 PHE793  MET794  SER795  GLU796  ALA797  LYS798  CYS799  TRP800  GLU811  SER814 

> <Gold.Protein.RotatedAtoms>
  150.6876  134.3348  159.4842 H   0  0  0  0  0  0  0  0  0  0  0  0  # atno 6907 bound_to 6896
  152.1209  134.9204  160.0572 H   0  0  0  0  0  0  0  0  0  0  0  0  # atno 6908 bound_to 6896
  152.0410  133.3943  159.4374 H   0  0  0  0  0  0  0  0  0  0  0  0  # atno 6909 bound_to 6896
  144.9839  140.7667  143.4595 H   0  0  0  0  0  0  0  0  0  0  0  0  # atno 7974 bound_to 7965
  156.2898  140.2224  156.5120 H   0  0  0  0  0  0  0  0  0  0  0  0  # atno 8008 bound_to 7997
  154.7600  140.0474  157.0987 H   0  0  0  0  0  0  0  0  0  0  0  0  # atno 8009 bound_to 7997
  155.0002  140.3101  155.4873 H   0  0  0  0  0  0  0  0  0  0  0  0  # atno 8010 bound_to 7997
  140.5578  143.2312  151.6787 H   0  0  0  0  0  0  0  0  0  0  0  0  # atno 10167 bound_to 10162
  156.4206  130.4425  149.7187 H   0  0  0  0  0  0  0  0  0  0  0  0  # atno 10718 bound_to 10713
  154.2991  135.6238  153.5417 H   0  0  0  0  0  0  0  0  0  0  0  0  # atno 10763 bound_to 10752
  152.9842  135.5674  154.5304 H   0  0  0  0  0  0  0  0  0  0  0  0  # atno 10764 bound_to 10752
  154.4930  135.2868  155.1457 H   0  0  0  0  0  0  0  0  0  0  0  0  # atno 10765 bound_to 10752
  140.3980  134.1749  155.7663 H   0  0  0  0  0  0  0  0  0  0  0  0  # atno 11005 bound_to 11000
  145.2382  139.2084  143.5007 LP  0  0  0  0  0  0  0  0  0  0  0  0  # atno 17320 bound_to 7965
  146.3415  140.2272  142.8592 LP  0  0  0  0  0  0  0  0  0  0  0  0  # atno 17321 bound_to 7965
  139.5056  144.3712  152.0468 LP  0  0  0  0  0  0  0  0  0  0  0  0  # atno 17342 bound_to 10162
  140.2835  144.3833  150.6111 LP  0  0  0  0  0  0  0  0  0  0  0  0  # atno 17343 bound_to 10162
  156.4129  130.7731  151.2745 LP  0  0  0  0  0  0  0  0  0  0  0  0  # atno 17370 bound_to 10713
  157.7508  131.0206  150.3715 LP  0  0  0  0  0  0  0  0  0  0  0  0  # atno 17371 bound_to 10713
  141.1867  133.8296  157.1058 LP  0  0  0  0  0  0  0  0  0  0  0  0  # atno 17394 bound_to 11000
  140.0357  134.9879  157.0867 LP  0  0  0  0  0  0  0  0  0  0  0  0  # atno 17395 bound_to 11000

$$$$
