AV-unprocessed.smi:157|AV-procd|sdf|1322|dock5
  -GOLD-   2262019 13D 1   1.00000     0.00000
 Structure written by MMmdl.
 36 38  0  0  0  0  0  0  0  0  2 V2000
  151.1340  136.2017  158.3222 O   0  0  0  0  0  0  0  0  0  0  0  0
  150.5805  136.4318  157.0443 C   0  0  0  0  0  0  0  0  0  0  0  0
  151.5059  137.3391  156.2192 C   0  0  2  0  0  0  0  0  0  0  0  0
  151.5905  138.6060  156.8694 O   0  0  0  0  0  0  0  0  0  0  0  0
  151.6834  139.5846  155.8902 C   0  0  2  0  0  0  0  0  0  0  0  0
  151.2466  140.8943  156.4593 N   0  0  0  0  0  0  0  0  0  0  0  0
  150.2412  141.6758  156.0110 C   0  0  0  0  0  0  0  0  0  0  0  0
  150.0705  142.7914  156.7002 N   0  3  0  0  0  0  0  0  0  0  0  0
  151.0290  142.7897  157.6915 C   0  0  0  0  0  0  0  0  0  0  0  0
  151.7439  141.6003  157.5298 C   0  0  0  0  0  0  0  0  0  0  0  0
  152.8270  141.0934  158.2643 N   0  0  0  0  0  0  0  0  0  0  0  0
  153.1727  141.5557  159.4217 C   0  0  0  0  0  0  0  0  0  0  0  0
  152.6590  142.6344  160.1224 N   0  0  0  0  0  0  0  0  0  0  0  0
  152.3884  143.9251  159.5144 C   0  0  0  0  0  0  0  0  0  0  0  0
  151.1270  143.9425  158.6410 C   0  0  2  0  0  0  0  0  0  0  0  0
  149.9962  144.0530  159.4805 O   0  0  0  0  0  0  0  0  0  0  0  0
  150.7405  139.1305  154.7882 C   0  0  0  0  0  0  0  0  0  0  0  0
  150.9889  137.6314  154.7918 C   0  0  1  0  0  0  0  0  0  0  0  0
  151.9782  137.3032  153.8362 O   0  0  0  0  0  0  0  0  0  0  0  0
  152.5116  136.9147  156.1906 H   0  0  0  0  0  0  0  0  0  0  0  0
  152.7158  139.7224  155.5642 H   0  0  0  0  0  0  0  0  0  0  0  0
  151.1506  144.8573  158.0476 H   0  0  0  0  0  0  0  0  0  0  0  0
  150.0771  137.0827  154.5526 H   0  0  0  0  0  0  0  0  0  0  0  0
  152.0185  136.5346  158.3319 H   0  0  0  0  0  0  0  0  0  0  0  0
  150.4129  135.4804  156.5384 H   0  0  0  0  0  0  0  0  0  0  0  0
  149.6072  136.9056  157.1738 H   0  0  0  0  0  0  0  0  0  0  0  0
  149.6332  141.4114  155.1643 H   0  0  0  0  0  0  0  0  0  0  0  0
  153.9836  141.0666  159.9632 H   0  0  0  0  0  0  0  0  0  0  0  0
  152.8916  142.7288  161.1008 H   0  0  0  0  0  0  0  0  0  0  0  0
  152.3324  144.6901  160.2895 H   0  0  0  0  0  0  0  0  0  0  0  0
  153.2503  144.1825  158.8968 H   0  0  0  0  0  0  0  0  0  0  0  0
  149.3073  144.4945  159.0083 H   0  0  0  0  0  0  0  0  0  0  0  0
  149.7121  139.3446  155.0836 H   0  0  0  0  0  0  0  0  0  0  0  0
  150.9547  139.6301  153.8423 H   0  0  0  0  0  0  0  0  0  0  0  0
  151.5475  137.0275  153.0411 H   0  0  0  0  0  0  0  0  0  0  0  0
  149.3764  143.5067  156.5239 H   0  0  0  0  0  0  0  0  0  0  0  0
  1  2  1  0  0  0  0
  1 24  1  0  0  0  0
  2  3  1  0  0  0  0
  2 25  1  0  0  0  0
  2 26  1  0  0  0  0
  3 20  1  0  0  0  0
  3 18  1  0  0  0  0
  3  4  1  0  0  0  0
  4  5  1  0  0  0  0
  5 21  1  0  0  0  0
  5  6  1  0  0  0  0
  5 17  1  0  0  0  0
  6 10  1  0  0  0  0
  6  7  1  0  0  0  0
  7  8  2  0  0  0  0
  7 27  1  0  0  0  0
  8  9  1  0  0  0  0
  8 36  1  0  0  0  0
  9 15  1  0  0  0  0
  9 10  2  0  0  0  0
 10 11  1  0  0  0  0
 11 12  2  0  0  0  0
 12 13  1  0  0  0  0
 12 28  1  0  0  0  0
 13 14  1  0  0  0  0
 13 29  1  0  0  0  0
 14 15  1  0  0  0  0
 14 30  1  0  0  0  0
 14 31  1  0  0  0  0
 15 22  1  0  0  0  0
 15 16  1  0  0  0  0
 16 32  1  0  0  0  0
 17 18  1  0  0  0  0
 17 33  1  0  0  0  0
 17 34  1  0  0  0  0
 18 23  1  0  0  0  0
 18 19  1  0  0  0  0
 19 35  1  0  0  0  0
M  CHG  1   8   1
M  END
> <s_m_source_file>
AV-unprocessed.smi

> <i_m_source_file_index>
157

> <i_lp_mmshare_version>
43012

> <i_f3d_flags>
0

> <s_epik_input>
W09IXVtDSDJdW0NASF0xT1tDQEhdKFtDSDJdW0NAQEhdMVtPSF0pbihbY0hdbjIpYyhjMjMpTj1bQ0hdW05IXVtDSDJdW0NASF0zW09IXQ==

> <s_epik_cmdline>
J2VwaWtfcHl0aG9uJywgJy1waCcsICc3LjAnLCAnLXRuJywgJzgnLCAnLW1hJywgJzIwMCcsICctbWV0YWxfYmluZGluZycsICctaW1hZScsICc8aW5maWxlLm1hZT4nLCAnLW9tYWUnLCAnPG91dGZpbGUubWFlPic=

> <r_epik_Ionization_Penalty>
1.68594

> <r_epik_Ionization_Penalty_Charging>
0

> <r_epik_Ionization_Penalty_Neutral>
1.68594

> <r_epik_State_Penalty>
1.79006

> <r_epik_Charging_Adjusted_Penalty>
1.79006

> <i_epik_Tot_Q>
1

> <i_epik_Tot_abs_Q>
1

> <r_epik_Metal_State_Penalty>
5.85324

> <b_epik_Metal_Only>
0

> <s_epik_Chemistry_Notes>
This compound has an imine and may undergo hydrolysis. This compound contains an acetal/aminal-like group ( X-CH(R)-Y where X, Y are N, S, or O) that may be acid/base labile, releasing an aldehyde.

> <s_lp_Force_Field>
OPLS_2005

> <r_lp_Energy>
53.7485

> <b_lp_Chiralities_Consistent>
1

> <s_lp_Variant>
AV-unprocessed.smi:157-32

> <Gold.Version>
5.8.1

> <Gold.Id.Protein>
6NUR|6NUR_protein|mol2

> <Gold.PLP.Fitness>
48.1779

> <Gold.PLP.PLP>
-34.5801

> <Gold.PLP.part.hbond>
-4.3961

> <Gold.PLP.part.metal>
0.0000

> <Gold.PLP.part.buried>
-4.4408

> <Gold.PLP.part.nonpolar>
-25.5590

> <Gold.PLP.part.repulsive>
0.1135

> <Gold.PLP.ligand.clash>
0.0000

> <Gold.PLP.ligand.torsion>
0.0411

> <Gold.PLP.Chemscore.Hbond>
4.5520

> <Gold.PLP.Chemscore.CHOScore>
0.0000

> <Gold.PLP.Chemscore.Metal>
0.0000

> <Gold.Chemscore.Hbonds>
donor molecule, donor type, donor heavy atom, donor atom, acceptor molecule, acceptor atom, score
      L1  H     8    36       P1  8028  1.98
      L1  H    19    35       P1  7949  1.00
      P1  H  6896  6909       L1     1  0.58
      P1  H 10752 10765       L1    19  0.93

> <Gold.PLP.Chemscore.Internal.Correction>
0.0240

> <Gold.Rescore>
     Score         DG    S(hbond)    S(metal)    S(lipo)     H(rot)  DE(clash)    DE(int)     intcor
     11.21     -11.29       2.58        0.00      56.10       3.67       0.05       0.03       ----

> <Gold.Chemscore.Fitness>
11.2122

> <Gold.Chemscore.DG>
-11.2925

> <Gold.Chemscore.ZeroCoef>
-5.4800

> <Gold.Chemscore.Hbond>
2.5849

> <Gold.Chemscore.Metal>
0.0000

> <Gold.Chemscore.Lipo>
56.0992

> <Gold.Chemscore.Internal_Hbond>
0.0000

> <Gold.Chemscore.DEClash>
0.0521

> <Gold.Chemscore.DEInternal>
0.0282

> <Gold.Chemscore.Rot>
3.6659

> <Gold.Chemscore.Internal.Correction>
   9.000000E+99

> <Gold.Chemscore.Hbonds>
donor molecule, donor type, donor heavy atom, donor atom, acceptor molecule, acceptor atom, score
      L1  H     8    36       P1  8028  0.91
      L1  H    19    35       P1  7949  0.92
      P1  H  6896  6909       L1     1  0.32
      P1  H 10752 10765       L1    19  0.18

> <Gold.Chemscore.Hbond.Weighted>
-8.6337

> <Gold.Chemscore.Metal.Weighted>
-0.0000

> <Gold.Chemscore.Lipo.Weighted>
-6.5636

> <Gold.Chemscore.Internal_Hbond.Weighted>
0.0000

> <Gold.Chemscore.DEClash.Weighted>
0.0521

> <Gold.Chemscore.DEInternal.Weighted>
0.0282

> <Gold.Chemscore.Rot.Weighted>
9.3848

> <Gold.Chemscore.Internal.Correction.Weighted>
   9.000000E+99

> <Gold.Protein.RotatedTorsions>
[ 6907 6896 6895 6894 ] final   81.73 input  -60.11 | X-H torsion
[ 7974 7965 7964 7962 ] final  -44.45 input  175.53 | X-H torsion
[ 8008 7997 7996 7995 ] final  -48.11 input   59.86 | X-H torsion
[ 10167 10162 10161 10158 ] final -141.58 input  -65.29 | X-H torsion
[ 10718 10713 10712 10709 ] final   26.18 input   66.30 | X-H torsion
[ 10763 10752 10751 10750 ] final  159.63 input  -60.55 | X-H torsion
[ 11005 11000 10999 10996 ] final    3.17 input  -57.11 | X-H torsion

> <Gold.Protein.ActiveResidues>
 VAL166  LYS551  ARG553  GLY616  TRP617  ASP618  TYR619  PRO620  LYS621  CYS622 
 ASP623  PHE694  ASN695  SER759  ASP760  ASP761  ALA762  ILE779  LEU786  VAL792 
 PHE793  MET794  SER795  GLU796  ALA797  LYS798  CYS799  TRP800  GLU811  SER814 

> <Gold.Protein.RotatedAtoms>
  152.5277  134.3159  159.9130 H   0  0  0  0  0  0  0  0  0  0  0  0  # atno 6907 bound_to 6896
  151.3109  133.4075  159.2654 H   0  0  0  0  0  0  0  0  0  0  0  0  # atno 6908 bound_to 6896
  151.0039  134.9361  159.8027 H   0  0  0  0  0  0  0  0  0  0  0  0  # atno 6909 bound_to 6896
  145.9919  140.7171  142.9313 H   0  0  0  0  0  0  0  0  0  0  0  0  # atno 7974 bound_to 7965
  154.4025  140.1329  156.4286 H   0  0  0  0  0  0  0  0  0  0  0  0  # atno 8008 bound_to 7997
  155.7573  140.3487  155.5160 H   0  0  0  0  0  0  0  0  0  0  0  0  # atno 8009 bound_to 7997
  155.8892  140.1000  157.1421 H   0  0  0  0  0  0  0  0  0  0  0  0  # atno 8010 bound_to 7997
  139.8171  143.7624  152.2665 H   0  0  0  0  0  0  0  0  0  0  0  0  # atno 10167 bound_to 10162
  157.2033  130.6900  149.6197 H   0  0  0  0  0  0  0  0  0  0  0  0  # atno 10718 bound_to 10713
  154.2348  135.2777  155.2876 H   0  0  0  0  0  0  0  0  0  0  0  0  # atno 10763 bound_to 10752
  154.5594  135.5651  153.6997 H   0  0  0  0  0  0  0  0  0  0  0  0  # atno 10764 bound_to 10752
  153.0012  135.6294  154.2490 H   0  0  0  0  0  0  0  0  0  0  0  0  # atno 10765 bound_to 10752
  140.5961  133.9879  155.8110 H   0  0  0  0  0  0  0  0  0  0  0  0  # atno 11005 bound_to 11000
  144.6891  140.3084  143.7252 LP  0  0  0  0  0  0  0  0  0  0  0  0  # atno 17320 bound_to 7965
  145.7617  139.1827  143.2263 LP  0  0  0  0  0  0  0  0  0  0  0  0  # atno 17321 bound_to 7965
  139.7790  144.7451  151.0115 LP  0  0  0  0  0  0  0  0  0  0  0  0  # atno 17342 bound_to 10162
  140.7815  143.4562  151.0342 LP  0  0  0  0  0  0  0  0  0  0  0  0  # atno 17343 bound_to 10162
  155.9698  130.4575  150.5966 LP  0  0  0  0  0  0  0  0  0  0  0  0  # atno 17370 bound_to 10713
  157.3745  131.0771  151.1529 LP  0  0  0  0  0  0  0  0  0  0  0  0  # atno 17371 bound_to 10713
  141.0903  133.9927  157.3247 LP  0  0  0  0  0  0  0  0  0  0  0  0  # atno 17394 bound_to 11000
  139.9253  135.0201  156.8211 LP  0  0  0  0  0  0  0  0  0  0  0  0  # atno 17395 bound_to 11000

$$$$
