AV-unprocessed.smi:2021|AV-procd|sdf|8181|dock5
  -GOLD-   2272010433D 1   1.00000     0.00000
 Structure written by MMmdl.
 41 42  0  0  0  0  0  0  0  0  3 V2000
  146.1414  130.9645  152.3625 C   0  0  0  0  0  0  0  0  0  0  0  0
  145.6278  132.1983  151.6056 C   0  0  0  0  0  0  0  0  0  0  0  0
  144.7970  131.7716  150.3839 C   0  0  0  0  0  0  0  0  0  0  0  0
  146.8023  133.1189  151.2091 C   0  0  0  0  0  0  0  0  0  0  0  0
  147.2558  134.0011  152.3149 N   0  3  1  0  0  0  0  0  0  0  0  0
  146.1539  134.7540  152.9640 C   0  0  0  0  0  0  0  0  0  0  0  0
  146.7050  135.6584  154.0775 C   0  0  0  0  0  0  0  0  0  0  0  0
  147.4247  134.8669  155.0111 O   0  0  0  0  0  0  0  0  0  0  0  0
  148.5546  134.2283  154.4253 C   0  0  1  0  0  0  0  0  0  0  0  0
  149.3353  133.4852  155.5237 C   0  0  0  0  0  0  0  0  0  0  0  0
  149.5086  134.3142  156.7118 N   0  0  0  0  0  0  0  0  0  0  0  0
  148.7969  134.2272  157.8444 C   0  0  0  0  0  0  0  0  0  0  0  0
  147.9211  133.3667  157.9583 O   0  0  0  0  0  0  0  0  0  0  0  0
  149.1421  135.1470  158.7727 N   0  5  0  0  0  0  0  0  0  0  0  0
  148.2058  135.6638  159.5857 C   0  0  0  0  0  0  0  0  0  0  0  0
  148.4555  136.7015  160.4006 N   0  0  0  0  0  0  0  0  0  0  0  0
  147.3546  137.0776  161.1582 N   0  0  0  0  0  0  0  0  0  0  0  0
  146.3001  136.3044  160.9000 C   0  0  0  0  0  0  0  0  0  0  0  0
  146.5562  135.0461  159.7096 S   0  0  0  0  0  0  0  0  0  0  0  0
  148.0500  133.2684  153.3303 C   0  0  0  0  0  0  0  0  0  0  0  0
  146.8117  130.3679  151.7428 H   0  0  0  0  0  0  0  0  0  0  0  0
  145.3170  130.3221  152.6737 H   0  0  0  0  0  0  0  0  0  0  0  0
  146.6876  131.2532  153.2611 H   0  0  0  0  0  0  0  0  0  0  0  0
  144.9688  132.7307  152.2906 H   0  0  0  0  0  0  0  0  0  0  0  0
  145.4067  131.2320  149.6582 H   0  0  0  0  0  0  0  0  0  0  0  0
  144.3593  132.6321  149.8774 H   0  0  0  0  0  0  0  0  0  0  0  0
  143.9759  131.1173  150.6780 H   0  0  0  0  0  0  0  0  0  0  0  0
  147.6494  132.5303  150.8532 H   0  0  0  0  0  0  0  0  0  0  0  0
  146.4844  133.7322  150.3641 H   0  0  0  0  0  0  0  0  0  0  0  0
  145.6253  135.3671  152.2356 H   0  0  0  0  0  0  0  0  0  0  0  0
  145.4284  134.0542  153.3816 H   0  0  0  0  0  0  0  0  0  0  0  0
  147.3480  136.4390  153.6676 H   0  0  0  0  0  0  0  0  0  0  0  0
  145.8869  136.1588  154.5959 H   0  0  0  0  0  0  0  0  0  0  0  0
  149.2066  134.9798  153.9756 H   0  0  0  0  0  0  0  0  0  0  0  0
  148.8521  132.5387  155.7727 H   0  0  0  0  0  0  0  0  0  0  0  0
  150.3316  133.2341  155.1590 H   0  0  0  0  0  0  0  0  0  0  0  0
  150.2206  135.0288  156.6705 H   0  0  0  0  0  0  0  0  0  0  0  0
  145.3668  136.4741  161.4155 H   0  0  0  0  0  0  0  0  0  0  0  0
  147.4386  132.4792  153.7717 H   0  0  0  0  0  0  0  0  0  0  0  0
  148.9008  132.7845  152.8486 H   0  0  0  0  0  0  0  0  0  0  0  0
  147.8806  134.6815  151.9061 H   0  0  0  0  0  0  0  0  0  0  0  0
  1  2  1  0  0  0  0
  1 21  1  0  0  0  0
  1 22  1  0  0  0  0
  1 23  1  0  0  0  0
  2  3  1  0  0  0  0
  2  4  1  0  0  0  0
  2 24  1  0  0  0  0
  3 25  1  0  0  0  0
  3 26  1  0  0  0  0
  3 27  1  0  0  0  0
  4  5  1  0  0  0  0
  4 28  1  0  0  0  0
  4 29  1  0  0  0  0
  5 20  1  0  0  0  0
  5  6  1  0  0  0  0
  5 41  1  0  0  0  0
  6  7  1  0  0  0  0
  6 30  1  0  0  0  0
  6 31  1  0  0  0  0
  7  8  1  0  0  0  0
  7 32  1  0  0  0  0
  7 33  1  0  0  0  0
  8  9  1  0  0  0  0
  9 10  1  0  0  0  0
  9 20  1  0  0  0  0
  9 34  1  0  0  0  0
 10 11  1  0  0  0  0
 10 35  1  0  0  0  0
 10 36  1  0  0  0  0
 11 12  1  0  0  0  0
 11 37  1  0  0  0  0
 12 13  2  0  0  0  0
 12 14  1  0  0  0  0
 14 15  1  0  0  0  0
 15 19  1  0  0  0  0
 15 16  2  0  0  0  0
 16 17  1  0  0  0  0
 17 18  2  0  0  0  0
 18 19  1  0  0  0  0
 18 38  1  0  0  0  0
 20 39  1  0  0  0  0
 20 40  1  0  0  0  0
M  CHG  1   5   1
M  CHG  1  14  -1
M  END
> <s_m_source_file>
AV-unprocessed.smi

> <i_m_source_file_index>
2021

> <i_lp_mmshare_version>
43012

> <i_f3d_flags>
0

> <s_epik_input>
W0NIM11bQ0hdKFtDSDNdKVtDSDJdTjFbQ0gyXVtDSDJdT1tDQEhdKFtDSDJdMSlbQ0gyXVtOSF1DKD1PKVtOSF1jMm5uW2NIXXMy

> <s_epik_cmdline>
J2VwaWtfcHl0aG9uJywgJy1waCcsICc3LjAnLCAnLXRuJywgJzgnLCAnLW1hJywgJzIwMCcsICctbWV0YWxfYmluZGluZycsICctaW1hZScsICc8aW5maWxlLm1hZT4nLCAnLW9tYWUnLCAnPG91dGZpbGUubWFlPic=

> <r_lp_tautomer_probability>
1

> <r_epik_Ionization_Penalty>
3.15762

> <r_epik_Ionization_Penalty_Charging>
3.12229

> <r_epik_Ionization_Penalty_Neutral>
0.0353298

> <r_epik_State_Penalty>
3.11266

> <r_epik_Charging_Adjusted_Penalty>
6.23495

> <i_epik_Tot_Q>
0

> <i_epik_Tot_abs_Q>
2

> <r_epik_Metal_State_Penalty>
0.541462

> <b_epik_Metal_Only>
1

> <s_lp_Force_Field>
OPLS_2005

> <r_lp_Energy>
10.0285

> <b_lp_Chiralities_Consistent>
1

> <s_lp_Variant>
AV-unprocessed.smi:2021-7

> <Gold.Version>
5.8.1

> <Gold.Id.Protein>
6NUR|6NUR_protein|mol2

> <Gold.PLP.Fitness>
39.8849

> <Gold.PLP.PLP>
-26.4835

> <Gold.PLP.part.hbond>
-5.0000

> <Gold.PLP.part.metal>
0.0000

> <Gold.PLP.part.buried>
-2.4088

> <Gold.PLP.part.nonpolar>
-19.1231

> <Gold.PLP.part.repulsive>
0.1564

> <Gold.PLP.ligand.clash>
0.0000

> <Gold.PLP.ligand.torsion>
0.8097

> <Gold.PLP.Chemscore.Hbond>
4.9600

> <Gold.PLP.Chemscore.CHOScore>
0.0000

> <Gold.PLP.Chemscore.Metal>
0.0000

> <Gold.Chemscore.Hbonds>
donor molecule, donor type, donor heavy atom, donor atom, acceptor molecule, acceptor atom, score
      L1  H     5    41       P1  7948  2.00
      P1  H  6896  6909       L1    14  2.00
      P1  H  6934  6947       L1    17  1.00

> <Gold.PLP.Chemscore.Internal.Correction>
0.1409

> <Gold.Rescore>
     Score         DG    S(hbond)    S(metal)    S(lipo)     H(rot)  DE(clash)    DE(int)     intcor
     13.48     -16.08       2.67        0.00      54.62       1.85       0.20       2.40       ----

> <Gold.Chemscore.Fitness>
13.4796

> <Gold.Chemscore.DG>
-16.0771

> <Gold.Chemscore.ZeroCoef>
-5.4800

> <Gold.Chemscore.Hbond>
2.6746

> <Gold.Chemscore.Metal>
0.0000

> <Gold.Chemscore.Lipo>
54.6235

> <Gold.Chemscore.Internal_Hbond>
0.0000

> <Gold.Chemscore.DEClash>
0.1976

> <Gold.Chemscore.DEInternal>
2.3998

> <Gold.Chemscore.Rot>
1.8466

> <Gold.Chemscore.Internal.Correction>
   9.000000E+99

> <Gold.Chemscore.Hbonds>
donor molecule, donor type, donor heavy atom, donor atom, acceptor molecule, acceptor atom, score
      L1  H     5    41       P1  7948  0.30
      P1  H  6896  6909       L1    14  0.73
      P1  H  6934  6947       L1    17  0.51

> <Gold.Chemscore.Hbond.Weighted>
-8.9333

> <Gold.Chemscore.Metal.Weighted>
-0.0000

> <Gold.Chemscore.Lipo.Weighted>
-6.3910

> <Gold.Chemscore.Internal_Hbond.Weighted>
0.0000

> <Gold.Chemscore.DEClash.Weighted>
0.1976

> <Gold.Chemscore.DEInternal.Weighted>
2.3998

> <Gold.Chemscore.Rot.Weighted>
4.7272

> <Gold.Chemscore.Internal.Correction.Weighted>
   9.000000E+99

> <Gold.Protein.RotatedTorsions>
[ 6907 6896 6895 6894 ] final   62.35 input  -60.11 | X-H torsion
[ 7974 7965 7964 7962 ] final   14.57 input  175.53 | X-H torsion
[ 8008 7997 7996 7995 ] final -167.85 input   59.86 | X-H torsion
[ 10167 10162 10161 10158 ] final  152.39 input  -65.29 | X-H torsion
[ 10718 10713 10712 10709 ] final  -58.21 input   66.30 | X-H torsion
[ 10763 10752 10751 10750 ] final -120.97 input  -60.55 | X-H torsion
[ 11005 11000 10999 10996 ] final  -57.08 input  -57.11 | X-H torsion

> <Gold.Protein.ActiveResidues>
 VAL166  LYS551  ARG553  GLY616  TRP617  ASP618  TYR619  PRO620  LYS621  CYS622 
 ASP623  PHE694  ASN695  SER759  ASP760  ASP761  ALA762  ILE779  LEU786  VAL792 
 PHE793  MET794  SER795  GLU796  ALA797  LYS798  CYS799  TRP800  GLU811  SER814 

> <Gold.Protein.RotatedAtoms>
  152.4165  134.6032  160.0005 H   0  0  0  0  0  0  0  0  0  0  0  0  # atno 6907 bound_to 6896
  151.6194  133.3335  159.3092 H   0  0  0  0  0  0  0  0  0  0  0  0  # atno 6908 bound_to 6896
  150.8054  134.7214  159.6705 H   0  0  0  0  0  0  0  0  0  0  0  0  # atno 6909 bound_to 6896
  146.2301  139.9022  142.8537 H   0  0  0  0  0  0  0  0  0  0  0  0  # atno 7974 bound_to 7965
  155.8833  140.1012  157.1470 H   0  0  0  0  0  0  0  0  0  0  0  0  # atno 8008 bound_to 7997
  154.4007  140.1324  156.4288 H   0  0  0  0  0  0  0  0  0  0  0  0  # atno 8009 bound_to 7997
  155.7617  140.3463  155.5204 H   0  0  0  0  0  0  0  0  0  0  0  0  # atno 8010 bound_to 7997
  139.4833  144.5362  151.7642 H   0  0  0  0  0  0  0  0  0  0  0  0  # atno 10167 bound_to 10162
  156.1152  130.4171  150.0546 H   0  0  0  0  0  0  0  0  0  0  0  0  # atno 10718 bound_to 10713
  154.8657  135.4184  154.2545 H   0  0  0  0  0  0  0  0  0  0  0  0  # atno 10763 bound_to 10752
  153.3485  135.6997  153.6814 H   0  0  0  0  0  0  0  0  0  0  0  0  # atno 10764 bound_to 10752
  153.5763  135.3581  155.2830 H   0  0  0  0  0  0  0  0  0  0  0  0  # atno 10765 bound_to 10752
  141.1149  133.6610  156.4716 H   0  0  0  0  0  0  0  0  0  0  0  0  # atno 11005 bound_to 11000
  145.2312  140.9974  143.3989 LP  0  0  0  0  0  0  0  0  0  0  0  0  # atno 17320 bound_to 7965
  144.9529  139.4063  143.6394 LP  0  0  0  0  0  0  0  0  0  0  0  0  # atno 17321 bound_to 7965
  140.4894  144.1332  150.5947 LP  0  0  0  0  0  0  0  0  0  0  0  0  # atno 17342 bound_to 10162
  140.4188  143.2621  151.9742 LP  0  0  0  0  0  0  0  0  0  0  0  0  # atno 17343 bound_to 10162
  156.8499  130.9455  151.3626 LP  0  0  0  0  0  0  0  0  0  0  0  0  # atno 17370 bound_to 10713
  157.6335  130.8748  149.9317 LP  0  0  0  0  0  0  0  0  0  0  0  0  # atno 17371 bound_to 10713
  140.4673  134.6785  157.5113 LP  0  0  0  0  0  0  0  0  0  0  0  0  # atno 17394 bound_to 11000
  140.0065  134.6756  155.9447 LP  0  0  0  0  0  0  0  0  0  0  0  0  # atno 17395 bound_to 11000

$$$$
