AV-unprocessed.smi:1432|AV-procd|sdf|5832|dock1
  -GOLD-   22720 5493D 1   1.00000     0.00000
 Structure written by MMmdl.
 47 48  0  0  0  0  0  0  0  0  2 V2000
  146.9138  132.7563  152.1292 C   0  0  0  0  0  0  0  0  0  0  0  0
  146.2516  133.0273  150.7605 C   0  0  1  0  0  0  0  0  0  0  0  0
  145.5697  131.7712  150.1780 C   0  0  0  0  0  0  0  0  0  0  0  0
  144.2693  131.4240  150.9175 C   0  0  0  0  0  0  0  0  0  0  0  0
  143.3349  132.6398  150.9359 C   0  0  0  0  0  0  0  0  0  0  0  0
  144.0400  133.8747  151.5206 C   0  0  0  0  0  0  0  0  0  0  0  0
  145.2961  134.1755  150.7807 N   0  3  1  0  0  0  0  0  0  0  0  0
  145.9208  135.4657  151.1695 C   0  0  0  0  0  0  0  0  0  0  0  0
  144.8760  136.5049  151.6193 C   0  0  0  0  0  0  0  0  0  0  0  0
  145.4496  137.8437  151.6951 N   0  0  0  0  0  0  0  0  0  0  0  0
  146.3152  138.2558  152.6339 C   0  0  0  0  0  0  0  0  0  0  0  0
  146.7157  137.5256  153.5416 O   0  0  0  0  0  0  0  0  0  0  0  0
  146.7806  139.7150  152.5222 C   0  0  0  0  0  0  0  0  0  0  0  0
  147.5844  140.1647  153.6713 N   0  0  0  0  0  0  0  0  0  0  0  0
  148.7265  139.4032  153.9874 C   0  0  0  0  0  0  0  0  0  0  0  0
  149.5604  139.7165  154.9972 C   0  0  0  0  0  0  0  0  0  0  0  0
  150.7614  138.8463  155.3327 C   0  0  0  0  0  0  0  0  0  0  0  0
  150.5532  138.2124  156.4860 F   0  0  0  0  0  0  0  0  0  0  0  0
  150.9780  137.9323  154.3869 F   0  0  0  0  0  0  0  0  0  0  0  0
  151.8631  139.5863  155.4611 F   0  0  0  0  0  0  0  0  0  0  0  0
  149.2092  140.8806  155.7867 C   0  0  0  0  0  0  0  0  0  0  0  0
  148.1177  141.6175  155.5007 C   0  0  0  0  0  0  0  0  0  0  0  0
  147.2348  141.2786  154.3819 C   0  0  0  0  0  0  0  0  0  0  0  0
  146.2449  141.9541  154.0999 O   0  0  0  0  0  0  0  0  0  0  0  0
  147.6171  131.9264  152.0570 H   0  0  0  0  0  0  0  0  0  0  0  0
  146.1874  132.4976  152.8988 H   0  0  0  0  0  0  0  0  0  0  0  0
  147.4783  133.6184  152.4840 H   0  0  0  0  0  0  0  0  0  0  0  0
  147.0527  133.2935  150.0692 H   0  0  0  0  0  0  0  0  0  0  0  0
  145.3425  131.9437  149.1251 H   0  0  0  0  0  0  0  0  0  0  0  0
  146.2535  130.9219  150.2029 H   0  0  0  0  0  0  0  0  0  0  0  0
  143.7772  130.5802  150.4330 H   0  0  0  0  0  0  0  0  0  0  0  0
  144.4892  131.1084  151.9378 H   0  0  0  0  0  0  0  0  0  0  0  0
  142.9995  132.8579  149.9210 H   0  0  0  0  0  0  0  0  0  0  0  0
  142.4392  132.4124  151.5148 H   0  0  0  0  0  0  0  0  0  0  0  0
  143.3593  134.7232  151.4642 H   0  0  0  0  0  0  0  0  0  0  0  0
  144.2545  133.7233  152.5788 H   0  0  0  0  0  0  0  0  0  0  0  0
  146.6639  135.3008  151.9514 H   0  0  0  0  0  0  0  0  0  0  0  0
  146.4605  135.8694  150.3118 H   0  0  0  0  0  0  0  0  0  0  0  0
  144.0212  136.5065  150.9404 H   0  0  0  0  0  0  0  0  0  0  0  0
  144.4868  136.2614  152.6073 H   0  0  0  0  0  0  0  0  0  0  0  0
  145.1726  138.5031  150.9817 H   0  0  0  0  0  0  0  0  0  0  0  0
  147.3377  139.8364  151.5914 H   0  0  0  0  0  0  0  0  0  0  0  0
  145.9009  140.3508  152.4104 H   0  0  0  0  0  0  0  0  0  0  0  0
  148.8871  138.5464  153.3491 H   0  0  0  0  0  0  0  0  0  0  0  0
  149.8329  141.1716  156.6190 H   0  0  0  0  0  0  0  0  0  0  0  0
  147.8880  142.4803  156.1085 H   0  0  0  0  0  0  0  0  0  0  0  0
  145.0226  134.2960  149.8158 H   0  0  0  0  0  0  0  0  0  0  0  0
  1  2  1  0  0  0  0
  1 25  1  0  0  0  0
  1 26  1  0  0  0  0
  1 27  1  0  0  0  0
  2  7  1  0  0  0  0
  2  3  1  0  0  0  0
  2 28  1  0  0  0  0
  3  4  1  0  0  0  0
  3 29  1  0  0  0  0
  3 30  1  0  0  0  0
  4  5  1  0  0  0  0
  4 31  1  0  0  0  0
  4 32  1  0  0  0  0
  5  6  1  0  0  0  0
  5 33  1  0  0  0  0
  5 34  1  0  0  0  0
  6  7  1  0  0  0  0
  6 35  1  0  0  0  0
  6 36  1  0  0  0  0
  7  8  1  0  0  0  0
  7 47  1  0  0  0  0
  8  9  1  0  0  0  0
  8 37  1  0  0  0  0
  8 38  1  0  0  0  0
  9 10  1  0  0  0  0
  9 39  1  0  0  0  0
  9 40  1  0  0  0  0
 10 11  1  0  0  0  0
 10 41  1  0  0  0  0
 11 12  2  0  0  0  0
 11 13  1  0  0  0  0
 13 14  1  0  0  0  0
 13 42  1  0  0  0  0
 13 43  1  0  0  0  0
 14 23  1  0  0  0  0
 14 15  1  0  0  0  0
 15 16  2  0  0  0  0
 15 44  1  0  0  0  0
 16 17  1  0  0  0  0
 16 21  1  0  0  0  0
 17 18  1  0  0  0  0
 17 19  1  0  0  0  0
 17 20  1  0  0  0  0
 21 22  2  0  0  0  0
 21 45  1  0  0  0  0
 22 23  1  0  0  0  0
 22 46  1  0  0  0  0
 23 24  2  0  0  0  0
M  CHG  1   7   1
M  END
> <s_m_source_file>
AV-unprocessed.smi

> <i_m_source_file_index>
1432

> <i_lp_mmshare_version>
43012

> <i_f3d_flags>
0

> <s_epik_input>
W0NIM11bQ0BASF0xW0NIMl1bQ0gyXVtDSDJdW0NIMl1OMVtDSDJdW0NIMl1bTkhdQyg9TylbQ0gyXW4yW2NIXWMoQyhGKShGKUYpW2NIXVtjSF1jMj1P

> <s_epik_cmdline>
J2VwaWtfcHl0aG9uJywgJy1waCcsICc3LjAnLCAnLXRuJywgJzgnLCAnLW1hJywgJzIwMCcsICctbWV0YWxfYmluZGluZycsICctaW1hZScsICc8aW5maWxlLm1hZT4nLCAnLW9tYWUnLCAnPG91dGZpbGUubWFlPic=

> <r_lp_tautomer_probability>
1

> <r_epik_Ionization_Penalty>
0.00237222

> <r_epik_Ionization_Penalty_Charging>
0.00237213

> <r_epik_Ionization_Penalty_Neutral>
8.2065e-08

> <r_epik_State_Penalty>
0.00163922

> <r_epik_Charging_Adjusted_Penalty>
0.00401135

> <i_epik_Tot_Q>
1

> <i_epik_Tot_abs_Q>
1

> <r_epik_Metal_State_Penalty>
-0

> <b_epik_Metal_Only>
0

> <s_lp_Force_Field>
OPLS_2005

> <r_lp_Energy>
30.8691

> <b_lp_Chiralities_Consistent>
1

> <s_lp_Variant>
AV-unprocessed.smi:1432-2

> <Gold.Version>
5.8.1

> <Gold.Id.Protein>
6NUR|6NUR_protein|mol2

> <Gold.PLP.Fitness>
46.2477

> <Gold.PLP.PLP>
-43.4012

> <Gold.PLP.part.hbond>
-1.6259

> <Gold.PLP.part.metal>
0.0000

> <Gold.PLP.part.buried>
2.4857

> <Gold.PLP.part.nonpolar>
-46.0219

> <Gold.PLP.part.repulsive>
1.5112

> <Gold.PLP.ligand.clash>
1.1222

> <Gold.PLP.ligand.torsion>
0.7000

> <Gold.PLP.Chemscore.Hbond>
0.7360

> <Gold.PLP.Chemscore.CHOScore>
1.0072

> <Gold.PLP.Chemscore.Metal>
0.0000

> <Gold.Chemscore.Hbonds>
donor molecule, donor type, donor heavy atom, donor atom, acceptor molecule, acceptor atom, score
      L1  H    10    41       P1 10171  0.72
      L1  C    15    44       P1  7948  0.51
      L1  C    15    44       P1  7957  0.15

> <Gold.PLP.Chemscore.Internal.Correction>
0.1389

> <Gold.Rescore>
     Score         DG    S(hbond)    S(metal)    S(lipo)     H(rot)  DE(clash)    DE(int)     intcor
     11.65     -13.81       0.81        0.00      93.41       2.08       0.14       2.03       ----

> <Gold.Chemscore.Fitness>
11.6466

> <Gold.Chemscore.DG>
-13.8102

> <Gold.Chemscore.ZeroCoef>
-5.4800

> <Gold.Chemscore.Hbond>
0.8133

> <Gold.Chemscore.Metal>
0.0000

> <Gold.Chemscore.Lipo>
93.4078

> <Gold.Chemscore.Internal_Hbond>
0.0000

> <Gold.Chemscore.DEClash>
0.1359

> <Gold.Chemscore.DEInternal>
2.0277

> <Gold.Chemscore.Rot>
2.0762

> <Gold.Chemscore.Internal.Correction>
   9.000000E+99

> <Gold.Chemscore.Hbonds>
donor molecule, donor type, donor heavy atom, donor atom, acceptor molecule, acceptor atom, score
      L1  H     7    47       P1  7921  0.01
      L1  H    10    41       P1 10171  0.72

> <Gold.Chemscore.Hbond.Weighted>
-2.7165

> <Gold.Chemscore.Metal.Weighted>
-0.0000

> <Gold.Chemscore.Lipo.Weighted>
-10.9287

> <Gold.Chemscore.Internal_Hbond.Weighted>
0.0000

> <Gold.Chemscore.DEClash.Weighted>
0.1359

> <Gold.Chemscore.DEInternal.Weighted>
2.0277

> <Gold.Chemscore.Rot.Weighted>
5.3150

> <Gold.Chemscore.Internal.Correction.Weighted>
   9.000000E+99

> <Gold.Protein.RotatedTorsions>
[ 6907 6896 6895 6894 ] final  -10.01 input  -60.11 | X-H torsion
[ 7974 7965 7964 7962 ] final  -86.37 input  175.53 | X-H torsion
[ 8008 7997 7996 7995 ] final -174.61 input   59.86 | X-H torsion
[ 10167 10162 10161 10158 ] final   50.70 input  -65.29 | X-H torsion
[ 10718 10713 10712 10709 ] final    7.09 input   66.30 | X-H torsion
[ 10763 10752 10751 10750 ] final  121.71 input  -60.55 | X-H torsion
[ 11005 11000 10999 10996 ] final -133.02 input  -57.11 | X-H torsion

> <Gold.Protein.ActiveResidues>
 VAL166  LYS551  ARG553  GLY616  TRP617  ASP618  TYR619  PRO620  LYS621  CYS622 
 ASP623  PHE694  ASN695  SER759  ASP760  ASP761  ALA762  ILE779  LEU786  VAL792 
 PHE793  MET794  SER795  GLU796  ALA797  LYS798  CYS799  TRP800  GLU811  SER814 

> <Gold.Protein.RotatedAtoms>
  151.4088  135.0982  159.9578 H   0  0  0  0  0  0  0  0  0  0  0  0  # atno 6907 bound_to 6896
  152.5027  133.8818  159.7360 H   0  0  0  0  0  0  0  0  0  0  0  0  # atno 6908 bound_to 6896
  150.9308  133.6712  159.2839 H   0  0  0  0  0  0  0  0  0  0  0  0  # atno 6909 bound_to 6896
  145.4808  140.9557  143.1865 H   0  0  0  0  0  0  0  0  0  0  0  0  # atno 7974 bound_to 7965
  155.9723  140.1165  157.0801 H   0  0  0  0  0  0  0  0  0  0  0  0  # atno 8008 bound_to 7997
  154.4159  140.1161  156.5390 H   0  0  0  0  0  0  0  0  0  0  0  0  # atno 8009 bound_to 7997
  155.6580  140.3473  155.4774 H   0  0  0  0  0  0  0  0  0  0  0  0  # atno 8010 bound_to 7997
  140.2697  144.3280  150.6294 H   0  0  0  0  0  0  0  0  0  0  0  0  # atno 10167 bound_to 10162
  156.9318  130.5829  149.5650 H   0  0  0  0  0  0  0  0  0  0  0  0  # atno 10718 bound_to 10713
  153.6183  135.3418  155.3002 H   0  0  0  0  0  0  0  0  0  0  0  0  # atno 10763 bound_to 10752
  154.8605  135.4267  154.2235 H   0  0  0  0  0  0  0  0  0  0  0  0  # atno 10764 bound_to 10752
  153.3102  135.7031  153.7195 H   0  0  0  0  0  0  0  0  0  0  0  0  # atno 10765 bound_to 10752
  140.9118  134.1558  157.4383 H   0  0  0  0  0  0  0  0  0  0  0  0  # atno 11005 bound_to 11000
  144.7890  139.6367  143.7121 LP  0  0  0  0  0  0  0  0  0  0  0  0  # atno 17320 bound_to 7965
  146.2342  139.5873  142.9535 LP  0  0  0  0  0  0  0  0  0  0  0  0  # atno 17321 bound_to 7965
  140.5900  143.2168  151.7271 LP  0  0  0  0  0  0  0  0  0  0  0  0  # atno 17342 bound_to 10162
  139.4992  144.3954  152.0237 LP  0  0  0  0  0  0  0  0  0  0  0  0  # atno 17343 bound_to 10162
  156.0444  130.5522  150.8846 LP  0  0  0  0  0  0  0  0  0  0  0  0  # atno 17370 bound_to 10713
  157.5842  131.0946  150.9223 LP  0  0  0  0  0  0  0  0  0  0  0  0  # atno 17371 bound_to 10713
  139.8759  134.9938  156.5664 LP  0  0  0  0  0  0  0  0  0  0  0  0  # atno 17394 bound_to 11000
  140.8101  133.8436  155.8802 LP  0  0  0  0  0  0  0  0  0  0  0  0  # atno 17395 bound_to 11000

$$$$
