AV-unprocessed.smi:49|AV-procd|sdf|486|dock4
  -GOLD-   2262016343D 1   1.00000     0.00000
 Structure written by MMmdl.
 27 28  0  0  0  0  0  0  0  0  3 V2000
  152.5810  141.0687  159.3839 C   0  0  0  0  0  0  0  0  0  0  0  0
  152.2460  139.7869  158.6151 C   0  0  0  0  0  0  0  0  0  0  0  0
  151.7371  140.0764  157.2199 C   0  0  0  0  0  0  0  0  0  0  0  0
  150.6249  140.7390  156.9179 N   0  0  0  0  0  0  0  0  0  0  0  0
  150.5801  140.7882  155.5800 C   0  0  0  0  0  0  0  0  0  0  0  0
  149.4858  141.4789  154.7890 C   0  0  1  0  0  0  0  0  0  0  0  0
  148.6043  140.4824  154.0222 C   0  0  0  0  0  0  0  0  0  0  0  0
  147.3880  140.3029  154.9264 C   0  0  2  0  0  0  0  0  0  0  0  0
  146.2459  139.8884  154.2069 O   0  0  0  0  0  0  0  0  0  0  0  0
  147.2158  141.6934  155.5354 C   0  0  0  0  0  0  0  0  0  0  0  0
  148.5831  142.2218  155.6943 N   0  3  0  0  0  0  0  0  0  0  0  0
  151.6587  140.1914  155.0472 N   0  0  0  0  0  0  0  0  0  0  0  0
  152.3606  139.7564  156.0722 N   0  5  0  0  0  0  0  0  0  0  0  0
  149.9533  142.1785  154.0951 H   0  0  0  0  0  0  0  0  0  0  0  0
  147.6127  139.5776  155.7099 H   0  0  0  0  0  0  0  0  0  0  0  0
  152.9468  140.8376  160.3844 H   0  0  0  0  0  0  0  0  0  0  0  0
  151.7015  141.7047  159.4879 H   0  0  0  0  0  0  0  0  0  0  0  0
  153.3524  141.6435  158.8704 H   0  0  0  0  0  0  0  0  0  0  0  0
  153.1302  139.1529  158.5436 H   0  0  0  0  0  0  0  0  0  0  0  0
  151.4912  139.2143  159.1550 H   0  0  0  0  0  0  0  0  0  0  0  0
  148.2910  140.9398  153.0820 H   0  0  0  0  0  0  0  0  0  0  0  0
  149.1101  139.5470  153.7788 H   0  0  0  0  0  0  0  0  0  0  0  0
  145.6586  139.4473  154.8022 H   0  0  0  0  0  0  0  0  0  0  0  0
  146.6785  142.3485  154.8482 H   0  0  0  0  0  0  0  0  0  0  0  0
  146.6751  141.6777  156.4820 H   0  0  0  0  0  0  0  0  0  0  0  0
  148.8940  142.0516  156.6406 H   0  0  0  0  0  0  0  0  0  0  0  0
  148.6107  143.2120  155.4996 H   0  0  0  0  0  0  0  0  0  0  0  0
  1  2  1  0  0  0  0
  1 16  1  0  0  0  0
  1 17  1  0  0  0  0
  1 18  1  0  0  0  0
  2  3  1  0  0  0  0
  2 19  1  0  0  0  0
  2 20  1  0  0  0  0
  3 13  1  0  0  0  0
  3  4  2  0  0  0  0
  4  5  1  0  0  0  0
  5  6  1  0  0  0  0
  5 12  2  0  0  0  0
  6 14  1  0  0  0  0
  6 11  1  0  0  0  0
  6  7  1  0  0  0  0
  7  8  1  0  0  0  0
  7 21  1  0  0  0  0
  7 22  1  0  0  0  0
  8 15  1  0  0  0  0
  8  9  1  0  0  0  0
  8 10  1  0  0  0  0
  9 23  1  0  0  0  0
 10 11  1  0  0  0  0
 10 24  1  0  0  0  0
 10 25  1  0  0  0  0
 11 26  1  0  0  0  0
 11 27  1  0  0  0  0
 12 13  1  0  0  0  0
M  CHG  1  11   1
M  CHG  1  13  -1
M  END
> <s_m_source_file>
AV-unprocessed.smi

> <i_m_source_file_index>
49

> <i_lp_mmshare_version>
43012

> <i_f3d_flags>
0

> <s_epik_input>
W0NIM11bQ0gyXWMxbmMobltuSF0xKVtDQEBIXTJbQ0gyXVtDQEBIXShbT0hdKVtDSDJdW05IXTI=

> <s_epik_cmdline>
J2VwaWtfcHl0aG9uJywgJy1waCcsICc3LjAnLCAnLXRuJywgJzgnLCAnLW1hJywgJzIwMCcsICctbWV0YWxfYmluZGluZycsICctaW1hZScsICc8aW5maWxlLm1hZT4nLCAnLW9tYWUnLCAnPG91dGZpbGUubWFlPic=

> <r_lp_tautomer_probability>
0.948284

> <r_epik_Ionization_Penalty>
3.22013

> <r_epik_Ionization_Penalty_Charging>
3.22013

> <r_epik_Ionization_Penalty_Neutral>
3.9133e-08

> <r_epik_State_Penalty>
2.79459

> <r_epik_Charging_Adjusted_Penalty>
6.01472

> <i_epik_Tot_Q>
0

> <i_epik_Tot_abs_Q>
2

> <r_epik_Metal_State_Penalty>
0.589377

> <b_epik_Metal_Only>
1

> <s_lp_Force_Field>
OPLS_2005

> <r_lp_Energy>
10.3781

> <b_lp_Chiralities_Consistent>
1

> <s_lp_Variant>
AV-unprocessed.smi:49-24

> <Gold.Version>
5.8.1

> <Gold.Id.Protein>
6NUR|6NUR_protein|mol2

> <Gold.PLP.Fitness>
35.2862

> <Gold.PLP.PLP>
-20.7593

> <Gold.PLP.part.hbond>
-3.5442

> <Gold.PLP.part.metal>
0.0000

> <Gold.PLP.part.buried>
-1.6166

> <Gold.PLP.part.nonpolar>
-14.9327

> <Gold.PLP.part.repulsive>
0.1717

> <Gold.PLP.ligand.clash>
0.0000

> <Gold.PLP.ligand.torsion>
0.1839

> <Gold.PLP.Chemscore.Hbond>
4.9600

> <Gold.PLP.Chemscore.CHOScore>
0.0000

> <Gold.PLP.Chemscore.Metal>
0.0000

> <Gold.Chemscore.Hbonds>
donor molecule, donor type, donor heavy atom, donor atom, acceptor molecule, acceptor atom, score
      L1  H    11    27       P1  8028  1.98
      P1  H  7989  7998       L1    12  0.96
      P1  H  7997  8009       L1    13  2.00

> <Gold.PLP.Chemscore.Internal.Correction>
0.0148

> <Gold.Rescore>
     Score         DG    S(hbond)    S(metal)    S(lipo)     H(rot)  DE(clash)    DE(int)     intcor
     12.62     -12.94       2.47        0.00      33.85       1.86       0.02       0.29       ----

> <Gold.Chemscore.Fitness>
12.6238

> <Gold.Chemscore.DG>
-12.9356

> <Gold.Chemscore.ZeroCoef>
-5.4800

> <Gold.Chemscore.Hbond>
2.4694

> <Gold.Chemscore.Metal>
0.0000

> <Gold.Chemscore.Lipo>
33.8542

> <Gold.Chemscore.Internal_Hbond>
0.0000

> <Gold.Chemscore.DEClash>
0.0177

> <Gold.Chemscore.DEInternal>
0.2940

> <Gold.Chemscore.Rot>
1.8567

> <Gold.Chemscore.Internal.Correction>
   9.000000E+99

> <Gold.Chemscore.Hbonds>
donor molecule, donor type, donor heavy atom, donor atom, acceptor molecule, acceptor atom, score
      L1  H    11    27       P1  8028  0.92
      P1  H  7989  7998       L1    12  0.28
      P1  H  7997  8009       L1    13  0.61

> <Gold.Chemscore.Hbond.Weighted>
-8.2477

> <Gold.Chemscore.Metal.Weighted>
-0.0000

> <Gold.Chemscore.Lipo.Weighted>
-3.9609

> <Gold.Chemscore.Internal_Hbond.Weighted>
0.0000

> <Gold.Chemscore.DEClash.Weighted>
0.0177

> <Gold.Chemscore.DEInternal.Weighted>
0.2940

> <Gold.Chemscore.Rot.Weighted>
4.7531

> <Gold.Chemscore.Internal.Correction.Weighted>
   9.000000E+99

> <Gold.Protein.RotatedTorsions>
[ 6907 6896 6895 6894 ] final -165.86 input  -60.11 | X-H torsion
[ 7974 7965 7964 7962 ] final  100.80 input  175.53 | X-H torsion
[ 8008 7997 7996 7995 ] final -160.13 input   59.86 | X-H torsion
[ 10167 10162 10161 10158 ] final -106.86 input  -65.29 | X-H torsion
[ 10718 10713 10712 10709 ] final  137.34 input   66.30 | X-H torsion
[ 10763 10752 10751 10750 ] final  156.53 input  -60.55 | X-H torsion
[ 11005 11000 10999 10996 ] final   77.00 input  -57.11 | X-H torsion

> <Gold.Protein.ActiveResidues>
 VAL166  LYS551  ARG553  GLY616  TRP617  ASP618  TYR619  PRO620  LYS621  CYS622 
 ASP623  PHE694  ASN695  SER759  ASP760  ASP761  ALA762  ILE779  LEU786  VAL792 
 PHE793  MET794  SER795  GLU796  ALA797  LYS798  CYS799  TRP800  GLU811  SER814 

> <Gold.Protein.RotatedAtoms>
  151.4344  133.3661  159.2772 H   0  0  0  0  0  0  0  0  0  0  0  0  # atno 6907 bound_to 6896
  150.9202  134.8621  159.7494 H   0  0  0  0  0  0  0  0  0  0  0  0  # atno 6908 bound_to 6896
  152.4978  134.4281  159.9555 H   0  0  0  0  0  0  0  0  0  0  0  0  # atno 6909 bound_to 6896
  145.3808  139.2380  143.3404 H   0  0  0  0  0  0  0  0  0  0  0  0  # atno 7974 bound_to 7965
  155.7729  140.0854  157.2098 H   0  0  0  0  0  0  0  0  0  0  0  0  # atno 8008 bound_to 7997
  154.3995  140.1522  156.3020 H   0  0  0  0  0  0  0  0  0  0  0  0  # atno 8009 bound_to 7997
  155.8729  140.3424  155.5836 H   0  0  0  0  0  0  0  0  0  0  0  0  # atno 8010 bound_to 7997
  140.1832  143.3950  152.1265 H   0  0  0  0  0  0  0  0  0  0  0  0  # atno 10167 bound_to 10162
  157.4371  131.1054  151.0185 H   0  0  0  0  0  0  0  0  0  0  0  0  # atno 10718 bound_to 10713
  154.1857  135.2797  155.3038 H   0  0  0  0  0  0  0  0  0  0  0  0  # atno 10763 bound_to 10752
  154.5968  135.5542  153.7337 H   0  0  0  0  0  0  0  0  0  0  0  0  # atno 10764 bound_to 10752
  153.0126  135.6382  154.1996 H   0  0  0  0  0  0  0  0  0  0  0  0  # atno 10765 bound_to 10752
  139.9273  134.7647  156.1466 H   0  0  0  0  0  0  0  0  0  0  0  0  # atno 11005 bound_to 11000
  146.2843  140.4475  142.8764 LP  0  0  0  0  0  0  0  0  0  0  0  0  # atno 17320 bound_to 7965
  144.8509  140.6999  143.6169 LP  0  0  0  0  0  0  0  0  0  0  0  0  # atno 17321 bound_to 7965
  139.5287  144.7133  151.5134 LP  0  0  0  0  0  0  0  0  0  0  0  0  # atno 17342 bound_to 10162
  140.6505  143.8705  150.6781 LP  0  0  0  0  0  0  0  0  0  0  0  0  # atno 17343 bound_to 10162
  157.1061  130.6002  149.5471 LP  0  0  0  0  0  0  0  0  0  0  0  0  # atno 17370 bound_to 10713
  155.9934  130.4995  150.7381 LP  0  0  0  0  0  0  0  0  0  0  0  0  # atno 17371 bound_to 10713
  141.0840  133.6742  156.2396 LP  0  0  0  0  0  0  0  0  0  0  0  0  # atno 17394 bound_to 11000
  140.6299  134.5275  157.5558 LP  0  0  0  0  0  0  0  0  0  0  0  0  # atno 17395 bound_to 11000

$$$$
