AV-unprocessed.smi:1115|AV-procd|sdf|4802|dock3
  -GOLD-   22720 3343D 1   1.00000     0.00000
 Structure written by MMmdl.
 51 52  0  0  0  0  0  0  0  0  2 V2000
  151.6381  141.6506  158.2138 C   0  0  0  0  0  0  0  0  0  0  0  0
  151.1092  142.1386  156.9452 N   0  0  0  0  0  0  0  0  0  0  0  0
  151.1230  143.5641  156.6440 C   0  0  0  0  0  0  0  0  0  0  0  0
  150.4645  141.2437  156.0640 C   0  0  0  0  0  0  0  0  0  0  0  0
  150.8325  139.8821  155.9368 C   0  0  0  0  0  0  0  0  0  0  0  0
  150.1415  139.0505  155.0325 C   0  0  0  0  0  0  0  0  0  0  0  0
  149.0909  139.5774  154.2533 C   0  0  0  0  0  0  0  0  0  0  0  0
  148.4269  138.6899  153.3630 N   0  0  0  0  0  0  0  0  0  0  0  0
  147.1588  138.7254  152.9186 C   0  0  0  0  0  0  0  0  0  0  0  0
  146.3200  139.5736  153.2199 O   0  0  0  0  0  0  0  0  0  0  0  0
  146.9142  137.7030  152.0874 N   0  0  0  0  0  0  0  0  0  0  0  0
  145.6350  137.4100  151.4412 C   0  0  0  0  0  0  0  0  0  0  0  0
  144.7720  136.3938  152.2462 C   0  0  0  0  0  0  0  0  0  0  0  0
  144.9227  136.7739  153.7412 C   0  0  0  0  0  0  0  0  0  0  0  0
  143.2940  136.6441  151.8612 C   0  0  0  0  0  0  0  0  0  0  0  0
  145.2088  134.9895  152.0038 N   0  0  0  0  0  0  0  0  0  0  0  0
  145.2615  134.5931  150.5919 C   0  0  0  0  0  0  0  0  0  0  0  0
  145.6009  133.1024  150.4215 C   0  0  0  0  0  0  0  0  0  0  0  0
  146.8342  132.8136  151.0683 O   0  0  0  0  0  0  0  0  0  0  0  0
  146.8060  133.1280  152.4550 C   0  0  0  0  0  0  0  0  0  0  0  0
  146.4781  134.6192  152.6410 C   0  0  0  0  0  0  0  0  0  0  0  0
  148.7536  140.9418  154.4231 C   0  0  0  0  0  0  0  0  0  0  0  0
  149.4413  141.7022  155.3023 N   0  3  0  0  0  0  0  0  0  0  0  0
  152.3695  140.8595  158.0458 H   0  0  0  0  0  0  0  0  0  0  0  0
  150.8348  141.2549  158.8361 H   0  0  0  0  0  0  0  0  0  0  0  0
  152.1328  142.4468  158.7703 H   0  0  0  0  0  0  0  0  0  0  0  0
  150.1062  143.9448  156.5420 H   0  0  0  0  0  0  0  0  0  0  0  0
  151.6617  143.7542  155.7153 H   0  0  0  0  0  0  0  0  0  0  0  0
  151.6132  144.1316  157.4351 H   0  0  0  0  0  0  0  0  0  0  0  0
  151.6359  139.4578  156.5201 H   0  0  0  0  0  0  0  0  0  0  0  0
  150.4238  138.0121  154.9380 H   0  0  0  0  0  0  0  0  0  0  0  0
  148.9996  137.9470  152.9898 H   0  0  0  0  0  0  0  0  0  0  0  0
  147.6645  137.0531  151.9040 H   0  0  0  0  0  0  0  0  0  0  0  0
  145.0730  138.3297  151.2680 H   0  0  0  0  0  0  0  0  0  0  0  0
  145.8483  137.0335  150.4410 H   0  0  0  0  0  0  0  0  0  0  0  0
  144.7850  137.8444  153.8980 H   0  0  0  0  0  0  0  0  0  0  0  0
  145.9091  136.5132  154.1263 H   0  0  0  0  0  0  0  0  0  0  0  0
  144.1830  136.2779  154.3697 H   0  0  0  0  0  0  0  0  0  0  0  0
  143.0088  137.6776  152.0602 H   0  0  0  0  0  0  0  0  0  0  0  0
  142.6076  136.0152  152.4277 H   0  0  0  0  0  0  0  0  0  0  0  0
  143.1080  136.4670  150.8020 H   0  0  0  0  0  0  0  0  0  0  0  0
  144.3059  134.7714  150.1020 H   0  0  0  0  0  0  0  0  0  0  0  0
  146.0065  135.1860  150.0611 H   0  0  0  0  0  0  0  0  0  0  0  0
  144.8088  132.4764  150.8355 H   0  0  0  0  0  0  0  0  0  0  0  0
  145.6862  132.8521  149.3642 H   0  0  0  0  0  0  0  0  0  0  0  0
  146.0692  132.5039  152.9631 H   0  0  0  0  0  0  0  0  0  0  0  0
  147.7774  132.8969  152.8922 H   0  0  0  0  0  0  0  0  0  0  0  0
  147.2946  135.2107  152.2265 H   0  0  0  0  0  0  0  0  0  0  0  0
  146.4520  134.8218  153.7100 H   0  0  0  0  0  0  0  0  0  0  0  0
  147.9630  141.4619  153.9047 H   0  0  0  0  0  0  0  0  0  0  0  0
  149.1723  142.6815  155.3978 H   0  0  0  0  0  0  0  0  0  0  0  0
  1  2  1  0  0  0  0
  1 24  1  0  0  0  0
  1 25  1  0  0  0  0
  1 26  1  0  0  0  0
  2  3  1  0  0  0  0
  2  4  1  0  0  0  0
  3 27  1  0  0  0  0
  3 28  1  0  0  0  0
  3 29  1  0  0  0  0
  4 23  1  0  0  0  0
  4  5  2  0  0  0  0
  5  6  1  0  0  0  0
  5 30  1  0  0  0  0
  6  7  2  0  0  0  0
  6 31  1  0  0  0  0
  7  8  1  0  0  0  0
  7 22  1  0  0  0  0
  8  9  1  0  0  0  0
  8 32  1  0  0  0  0
  9 10  2  0  0  0  0
  9 11  1  0  0  0  0
 11 12  1  0  0  0  0
 11 33  1  0  0  0  0
 12 13  1  0  0  0  0
 12 34  1  0  0  0  0
 12 35  1  0  0  0  0
 13 14  1  0  0  0  0
 13 15  1  0  0  0  0
 13 16  1  0  0  0  0
 14 36  1  0  0  0  0
 14 37  1  0  0  0  0
 14 38  1  0  0  0  0
 15 39  1  0  0  0  0
 15 40  1  0  0  0  0
 15 41  1  0  0  0  0
 16 21  1  0  0  0  0
 16 17  1  0  0  0  0
 17 18  1  0  0  0  0
 17 42  1  0  0  0  0
 17 43  1  0  0  0  0
 18 19  1  0  0  0  0
 18 44  1  0  0  0  0
 18 45  1  0  0  0  0
 19 20  1  0  0  0  0
 20 21  1  0  0  0  0
 20 46  1  0  0  0  0
 20 47  1  0  0  0  0
 21 48  1  0  0  0  0
 21 49  1  0  0  0  0
 22 23  2  0  0  0  0
 22 50  1  0  0  0  0
 23 51  1  0  0  0  0
M  CHG  1  23   1
M  END
> <s_m_source_file>
AV-unprocessed.smi

> <i_m_source_file_index>
1115

> <i_lp_mmshare_version>
43012

> <i_f3d_flags>
0

> <s_epik_input>
W0NIM11OKFtDSDNdKWMxW2NIXVtjSF1jKFtjSF1uMSlbTkhdQyg9TylbTkhdW0NIMl1DKFtDSDNdKShbQ0gzXSlOMltDSDJdW0NIMl1PW0NIMl1bQ0gyXTI=

> <s_epik_cmdline>
J2VwaWtfcHl0aG9uJywgJy1waCcsICc3LjAnLCAnLXRuJywgJzgnLCAnLW1hJywgJzIwMCcsICctbWV0YWxfYmluZGluZycsICctaW1hZScsICc8aW5maWxlLm1hZT4nLCAnLW9tYWUnLCAnPG91dGZpbGUubWFlPic=

> <r_lp_tautomer_probability>
0.999994

> <r_epik_Ionization_Penalty>
0.525804

> <r_epik_Ionization_Penalty_Charging>
0.259793

> <r_epik_Ionization_Penalty_Neutral>
0.266011

> <r_epik_State_Penalty>
0.517093

> <r_epik_Charging_Adjusted_Penalty>
0.776886

> <i_epik_Tot_Q>
1

> <i_epik_Tot_abs_Q>
1

> <r_epik_Metal_State_Penalty>
0.804287

> <b_epik_Metal_Only>
0

> <s_lp_Force_Field>
OPLS_2005

> <r_lp_Energy>
49.9386

> <b_lp_Chiralities_Consistent>
1

> <s_lp_Variant>
AV-unprocessed.smi:1115-1

> <Gold.Version>
5.8.1

> <Gold.Id.Protein>
6NUR|6NUR_protein|mol2

> <Gold.PLP.Fitness>
40.6365

> <Gold.PLP.PLP>
-31.7086

> <Gold.PLP.part.hbond>
-3.9589

> <Gold.PLP.part.metal>
0.0000

> <Gold.PLP.part.buried>
-1.2216

> <Gold.PLP.part.nonpolar>
-29.4342

> <Gold.PLP.part.repulsive>
2.2314

> <Gold.PLP.ligand.clash>
0.0000

> <Gold.PLP.ligand.torsion>
1.2252

> <Gold.PLP.Chemscore.Hbond>
3.7691

> <Gold.PLP.Chemscore.CHOScore>
0.0000

> <Gold.PLP.Chemscore.Metal>
0.0000

> <Gold.Chemscore.Hbonds>
donor molecule, donor type, donor heavy atom, donor atom, acceptor molecule, acceptor atom, score
      L1  H     8    32       P1  7948  0.90
      L1  H    11    33       P1  7948  0.94
      L1  H    23    51       P1  8028  1.82

> <Gold.PLP.Chemscore.Internal.Correction>
0.0711

> <Gold.Rescore>
     Score         DG    S(hbond)    S(metal)    S(lipo)     H(rot)  DE(clash)    DE(int)     intcor
     14.58     -18.95       2.37        0.00      79.05       1.44       1.68       2.70       ----

> <Gold.Chemscore.Fitness>
14.5770

> <Gold.Chemscore.DG>
-18.9500

> <Gold.Chemscore.ZeroCoef>
-5.4800

> <Gold.Chemscore.Hbond>
2.3711

> <Gold.Chemscore.Metal>
0.0000

> <Gold.Chemscore.Lipo>
79.0500

> <Gold.Chemscore.Internal_Hbond>
0.0000

> <Gold.Chemscore.DEClash>
1.6753

> <Gold.Chemscore.DEInternal>
2.6977

> <Gold.Chemscore.Rot>
1.4447

> <Gold.Chemscore.Internal.Correction>
   9.000000E+99

> <Gold.Chemscore.Hbonds>
donor molecule, donor type, donor heavy atom, donor atom, acceptor molecule, acceptor atom, score
      L1  H     8    32       P1  7948  0.82
      L1  H    11    33       P1  7948  0.90
      L1  H    23    51       P1  8028  0.87

> <Gold.Chemscore.Hbond.Weighted>
-7.9196

> <Gold.Chemscore.Metal.Weighted>
-0.0000

> <Gold.Chemscore.Lipo.Weighted>
-9.2488

> <Gold.Chemscore.Internal_Hbond.Weighted>
0.0000

> <Gold.Chemscore.DEClash.Weighted>
1.6753

> <Gold.Chemscore.DEInternal.Weighted>
2.6977

> <Gold.Chemscore.Rot.Weighted>
3.6985

> <Gold.Chemscore.Internal.Correction.Weighted>
   9.000000E+99

> <Gold.Protein.RotatedTorsions>
[ 6907 6896 6895 6894 ] final  -17.41 input  -60.11 | X-H torsion
[ 7974 7965 7964 7962 ] final -155.43 input  175.53 | X-H torsion
[ 8008 7997 7996 7995 ] final -174.84 input   59.86 | X-H torsion
[ 10167 10162 10161 10158 ] final  -16.50 input  -65.29 | X-H torsion
[ 10718 10713 10712 10709 ] final  -17.15 input   66.30 | X-H torsion
[ 10763 10752 10751 10750 ] final  -43.23 input  -60.55 | X-H torsion
[ 11005 11000 10999 10996 ] final   81.33 input  -57.11 | X-H torsion

> <Gold.Protein.ActiveResidues>
 VAL166  LYS551  ARG553  GLY616  TRP617  ASP618  TYR619  PRO620  LYS621  CYS622 
 ASP623  PHE694  ASN695  SER759  ASP760  ASP761  ALA762  ILE779  LEU786  VAL792 
 PHE793  MET794  SER795  GLU796  ALA797  LYS798  CYS799  TRP800  GLU811  SER814 

> <Gold.Protein.RotatedAtoms>
  151.2937  135.0749  159.9213 H   0  0  0  0  0  0  0  0  0  0  0  0  # atno 6907 bound_to 6896
  152.5311  133.9905  159.7858 H   0  0  0  0  0  0  0  0  0  0  0  0  # atno 6908 bound_to 6896
  151.0179  133.5853  159.2705 H   0  0  0  0  0  0  0  0  0  0  0  0  # atno 6909 bound_to 6896
  144.7640  140.4250  143.5955 H   0  0  0  0  0  0  0  0  0  0  0  0  # atno 7974 bound_to 7965
  155.9752  140.1171  157.0777 H   0  0  0  0  0  0  0  0  0  0  0  0  # atno 8008 bound_to 7997
  154.4167  140.1155  156.5428 H   0  0  0  0  0  0  0  0  0  0  0  0  # atno 8009 bound_to 7997
  155.6544  140.3473  155.4762 H   0  0  0  0  0  0  0  0  0  0  0  0  # atno 8010 bound_to 7997
  140.7234  143.5110  150.9750 H   0  0  0  0  0  0  0  0  0  0  0  0  # atno 10167 bound_to 10162
  156.5776  130.4766  149.6334 H   0  0  0  0  0  0  0  0  0  0  0  0  # atno 10718 bound_to 10713
  153.9921  135.6704  153.4754 H   0  0  0  0  0  0  0  0  0  0  0  0  # atno 10763 bound_to 10752
  153.0700  135.4979  154.8280 H   0  0  0  0  0  0  0  0  0  0  0  0  # atno 10764 bound_to 10752
  154.7103  135.3096  154.9170 H   0  0  0  0  0  0  0  0  0  0  0  0  # atno 10765 bound_to 10752
  139.9102  134.7988  156.2027 H   0  0  0  0  0  0  0  0  0  0  0  0  # atno 11005 bound_to 11000
  145.6528  139.1568  143.2852 LP  0  0  0  0  0  0  0  0  0  0  0  0  # atno 17320 bound_to 7965
  146.1731  140.6615  142.9224 LP  0  0  0  0  0  0  0  0  0  0  0  0  # atno 17321 bound_to 7965
  139.8823  143.7056  152.3155 LP  0  0  0  0  0  0  0  0  0  0  0  0  # atno 17342 bound_to 10162
  139.7343  144.7575  151.0753 LP  0  0  0  0  0  0  0  0  0  0  0  0  # atno 17343 bound_to 10162
  156.2659  130.6989  151.1772 LP  0  0  0  0  0  0  0  0  0  0  0  0  # atno 17370 bound_to 10713
  157.7334  131.0591  150.5579 LP  0  0  0  0  0  0  0  0  0  0  0  0  # atno 17371 bound_to 10713
  141.0515  133.6886  156.1780 LP  0  0  0  0  0  0  0  0  0  0  0  0  # atno 17394 bound_to 11000
  140.6803  134.4774  157.5589 LP  0  0  0  0  0  0  0  0  0  0  0  0  # atno 17395 bound_to 11000

$$$$
