AV-unprocessed.smi:2556|AV-procd|sdf|10025|dock9
  -GOLD-   2272014 73D 1   1.00000     0.00000
 Structure written by MMmdl.
 34 36  0  0  0  0  0  0  0  0  2 V2000
  145.4224  142.8532  155.5733 C   0  0  0  0  0  0  0  0  0  0  0  0
  146.7327  142.2256  155.3801 N   0  0  0  0  0  0  0  0  0  0  0  0
  147.2525  142.0521  154.1236 C   0  0  0  0  0  0  0  0  0  0  0  0
  146.5894  142.4351  153.1588 O   0  0  0  0  0  0  0  0  0  0  0  0
  148.4883  141.4610  153.9680 N   0  5  0  0  0  0  0  0  0  0  0  0
  149.2972  141.0058  154.9768 C   0  0  0  0  0  0  0  0  0  0  0  0
  150.4025  140.4814  154.8555 O   0  0  0  0  0  0  0  0  0  0  0  0
  148.6905  141.2110  156.3095 C   0  0  0  0  0  0  0  0  0  0  0  0
  147.4744  141.7907  156.5127 C   0  0  0  0  0  0  0  0  0  0  0  0
  147.1621  141.8568  157.8666 N   0  0  0  0  0  0  0  0  0  0  0  0
  148.2353  141.2995  158.4262 C   0  0  0  0  0  0  0  0  0  0  0  0
  149.1935  140.8884  157.5717 N   0  0  0  0  0  0  0  0  0  0  0  0
  150.4517  140.2582  157.9458 C   0  0  0  0  0  0  0  0  0  0  0  0
  151.6814  141.1124  157.5748 C   0  0  2  0  0  0  0  0  0  0  0  0
  152.8507  140.3168  157.5470 O   0  0  0  0  0  0  0  0  0  0  0  0
  151.8256  142.3044  158.5077 C   0  0  0  0  0  0  0  0  0  0  0  0
  152.2525  142.1147  159.8397 C   0  0  0  0  0  0  0  0  0  0  0  0
  152.3908  143.2182  160.7043 C   0  0  0  0  0  0  0  0  0  0  0  0
  152.1052  144.5171  160.2415 C   0  0  0  0  0  0  0  0  0  0  0  0
  151.6828  144.7127  158.9126 C   0  0  0  0  0  0  0  0  0  0  0  0
  151.5447  143.6099  158.0476 C   0  0  0  0  0  0  0  0  0  0  0  0
  145.4207  143.8663  155.1690 H   0  0  0  0  0  0  0  0  0  0  0  0
  145.1388  142.9209  156.6230 H   0  0  0  0  0  0  0  0  0  0  0  0
  144.6464  142.2813  155.0630 H   0  0  0  0  0  0  0  0  0  0  0  0
  148.3294  141.1879  159.4962 H   0  0  0  0  0  0  0  0  0  0  0  0
  150.4356  140.0919  159.0239 H   0  0  0  0  0  0  0  0  0  0  0  0
  150.5110  139.2674  157.4984 H   0  0  0  0  0  0  0  0  0  0  0  0
  151.5455  141.4885  156.5599 H   0  0  0  0  0  0  0  0  0  0  0  0
  152.5988  139.4092  157.6189 H   0  0  0  0  0  0  0  0  0  0  0  0
  152.4764  141.1226  160.2039 H   0  0  0  0  0  0  0  0  0  0  0  0
  152.7172  143.0683  161.7228 H   0  0  0  0  0  0  0  0  0  0  0  0
  152.2117  145.3628  160.9047 H   0  0  0  0  0  0  0  0  0  0  0  0
  151.4656  145.7085  158.5552 H   0  0  0  0  0  0  0  0  0  0  0  0
  151.2244  143.7684  157.0279 H   0  0  0  0  0  0  0  0  0  0  0  0
  1  2  1  0  0  0  0
  1 22  1  0  0  0  0
  1 23  1  0  0  0  0
  1 24  1  0  0  0  0
  2  9  1  0  0  0  0
  2  3  1  0  0  0  0
  3  4  2  0  0  0  0
  3  5  1  0  0  0  0
  5  6  1  0  0  0  0
  6  7  2  0  0  0  0
  6  8  1  0  0  0  0
  8 12  1  0  0  0  0
  8  9  2  0  0  0  0
  9 10  1  0  0  0  0
 10 11  2  0  0  0  0
 11 12  1  0  0  0  0
 11 25  1  0  0  0  0
 12 13  1  0  0  0  0
 13 14  1  0  0  0  0
 13 26  1  0  0  0  0
 13 27  1  0  0  0  0
 14 15  1  0  0  0  0
 14 16  1  0  0  0  0
 14 28  1  0  0  0  0
 15 29  1  0  0  0  0
 16 21  1  0  0  0  0
 16 17  2  0  0  0  0
 17 18  1  0  0  0  0
 17 30  1  0  0  0  0
 18 19  2  0  0  0  0
 18 31  1  0  0  0  0
 19 20  1  0  0  0  0
 19 32  1  0  0  0  0
 20 21  2  0  0  0  0
 20 33  1  0  0  0  0
 21 34  1  0  0  0  0
M  CHG  1   5  -1
M  END
> <s_m_source_file>
AV-unprocessed.smi

> <i_m_source_file_index>
2556

> <i_lp_mmshare_version>
43012

> <i_f3d_flags>
0

> <s_epik_input>
Tz1jMVtuSF1jKD1PKW4oW0NIM10pYyhjMTIpbltjSF1uMltDSDJdW0NASF0oW09IXSljM1tjSF1bY0hdW2NIXVtjSF1bY0hdMw==

> <s_epik_cmdline>
J2VwaWtfcHl0aG9uJywgJy1waCcsICc3LjAnLCAnLXRuJywgJzgnLCAnLW1hJywgJzIwMCcsICctbWV0YWxfYmluZGluZycsICctaW1hZScsICc8aW5maWxlLm1hZT4nLCAnLW9tYWUnLCAnPG91dGZpbGUubWFlPic=

> <r_lp_tautomer_probability>
1

> <r_epik_Ionization_Penalty>
4.84872

> <r_epik_Ionization_Penalty_Charging>
0.03865

> <r_epik_Ionization_Penalty_Neutral>
4.81007

> <r_epik_State_Penalty>
4.80988

> <r_epik_Charging_Adjusted_Penalty>
4.84853

> <i_epik_Tot_Q>
-1

> <i_epik_Tot_abs_Q>
1

> <r_epik_Metal_State_Penalty>
0.994041

> <b_epik_Metal_Only>
1

> <s_lp_Force_Field>
OPLS_2005

> <r_lp_Energy>
33.4055

> <b_lp_Chiralities_Consistent>
1

> <s_lp_Variant>
AV-unprocessed.smi:2556-3

> <Gold.Version>
5.8.1

> <Gold.Id.Protein>
6NUR|6NUR_protein|mol2

> <Gold.PLP.Fitness>
42.0418

> <Gold.PLP.PLP>
-35.0114

> <Gold.PLP.part.hbond>
-3.0000

> <Gold.PLP.part.metal>
0.0000

> <Gold.PLP.part.buried>
1.9841

> <Gold.PLP.part.nonpolar>
-33.2248

> <Gold.PLP.part.repulsive>
1.2218

> <Gold.PLP.ligand.clash>
0.0000

> <Gold.PLP.ligand.torsion>
0.3405

> <Gold.PLP.Chemscore.Hbond>
2.5610

> <Gold.PLP.Chemscore.CHOScore>
0.0000

> <Gold.PLP.Chemscore.Metal>
0.0000

> <Gold.Chemscore.Hbonds>
donor molecule, donor type, donor heavy atom, donor atom, acceptor molecule, acceptor atom, score
      P1  H  7989  7998       L1     7  1.00
      P1  H  7997  8008       L1    15  0.88
      P1  H  8011  8017       L1     5  0.23

> <Gold.PLP.Chemscore.Internal.Correction>
0.0284

> <Gold.Rescore>
     Score         DG    S(hbond)    S(metal)    S(lipo)     H(rot)  DE(clash)    DE(int)     intcor
     13.22     -16.12       1.83        0.00      88.50       2.28       2.19       0.71       ----

> <Gold.Chemscore.Fitness>
13.2157

> <Gold.Chemscore.DG>
-16.1160

> <Gold.Chemscore.ZeroCoef>
-5.4800

> <Gold.Chemscore.Hbond>
1.8335

> <Gold.Chemscore.Metal>
0.0000

> <Gold.Chemscore.Lipo>
88.5048

> <Gold.Chemscore.Internal_Hbond>
0.0000

> <Gold.Chemscore.DEClash>
2.1893

> <Gold.Chemscore.DEInternal>
0.7110

> <Gold.Chemscore.Rot>
2.2824

> <Gold.Chemscore.Internal.Correction>
   9.000000E+99

> <Gold.Chemscore.Hbonds>
donor molecule, donor type, donor heavy atom, donor atom, acceptor molecule, acceptor atom, score
      P1  H  7989  7998       L1     7  0.94
      P1  H  7997  8008       L1    15  0.20
      P1  H  8011  8017       L1     5  0.13

> <Gold.Chemscore.Hbond.Weighted>
-6.1240

> <Gold.Chemscore.Metal.Weighted>
-0.0000

> <Gold.Chemscore.Lipo.Weighted>
-10.3551

> <Gold.Chemscore.Internal_Hbond.Weighted>
0.0000

> <Gold.Chemscore.DEClash.Weighted>
2.1893

> <Gold.Chemscore.DEInternal.Weighted>
0.7110

> <Gold.Chemscore.Rot.Weighted>
5.8431

> <Gold.Chemscore.Internal.Correction.Weighted>
   9.000000E+99

> <Gold.Protein.RotatedTorsions>
[ 6907 6896 6895 6894 ] final  160.63 input  -60.11 | X-H torsion
[ 7974 7965 7964 7962 ] final -149.22 input  175.53 | X-H torsion
[ 8008 7997 7996 7995 ] final  -71.24 input   59.86 | X-H torsion
[ 10167 10162 10161 10158 ] final  -34.70 input  -65.29 | X-H torsion
[ 10718 10713 10712 10709 ] final  145.81 input   66.30 | X-H torsion
[ 10763 10752 10751 10750 ] final  -38.77 input  -60.55 | X-H torsion
[ 11005 11000 10999 10996 ] final   33.09 input  -57.11 | X-H torsion

> <Gold.Protein.ActiveResidues>
 VAL166  LYS551  ARG553  GLY616  TRP617  ASP618  TYR619  PRO620  LYS621  CYS622 
 ASP623  PHE694  ASN695  SER759  ASP760  ASP761  ALA762  ILE779  LEU786  VAL792 
 PHE793  MET794  SER795  GLU796  ALA797  LYS798  CYS799  TRP800  GLU811  SER814 

> <Gold.Protein.RotatedAtoms>
  151.9677  133.3715  159.4058 H   0  0  0  0  0  0  0  0  0  0  0  0  # atno 6907 bound_to 6896
  150.6954  134.4173  159.5198 H   0  0  0  0  0  0  0  0  0  0  0  0  # atno 6908 bound_to 6896
  152.1872  134.8703  160.0571 H   0  0  0  0  0  0  0  0  0  0  0  0  # atno 6909 bound_to 6896
  144.7980  140.5093  143.5726 H   0  0  0  0  0  0  0  0  0  0  0  0  # atno 7974 bound_to 7965
  154.5072  140.0819  156.7919 H   0  0  0  0  0  0  0  0  0  0  0  0  # atno 8008 bound_to 7997
  155.3866  140.3430  155.4231 H   0  0  0  0  0  0  0  0  0  0  0  0  # atno 8009 bound_to 7997
  156.1530  140.1564  156.8726 H   0  0  0  0  0  0  0  0  0  0  0  0  # atno 8010 bound_to 7997
  140.7180  143.3529  151.2118 H   0  0  0  0  0  0  0  0  0  0  0  0  # atno 10167 bound_to 10162
  157.3408  131.0935  151.1084 H   0  0  0  0  0  0  0  0  0  0  0  0  # atno 10718 bound_to 10713
  153.9184  135.6785  153.4748 H   0  0  0  0  0  0  0  0  0  0  0  0  # atno 10763 bound_to 10752
  153.1041  135.4814  154.8918 H   0  0  0  0  0  0  0  0  0  0  0  0  # atno 10764 bound_to 10752
  154.7491  135.3180  154.8547 H   0  0  0  0  0  0  0  0  0  0  0  0  # atno 10765 bound_to 10752
  140.2667  134.3130  155.7840 H   0  0  0  0  0  0  0  0  0  0  0  0  # atno 11005 bound_to 11000
  145.5623  139.1480  143.3334 LP  0  0  0  0  0  0  0  0  0  0  0  0  # atno 17320 bound_to 7965
  146.2254  140.5759  142.8998 LP  0  0  0  0  0  0  0  0  0  0  0  0  # atno 17321 bound_to 7965
  139.7064  143.9448  152.2929 LP  0  0  0  0  0  0  0  0  0  0  0  0  # atno 17342 bound_to 10162
  139.9158  144.6829  150.8514 LP  0  0  0  0  0  0  0  0  0  0  0  0  # atno 17343 bound_to 10162
  157.2296  130.6519  149.5844 LP  0  0  0  0  0  0  0  0  0  0  0  0  # atno 17370 bound_to 10713
  155.9707  130.4603  150.6067 LP  0  0  0  0  0  0  0  0  0  0  0  0  # atno 17371 bound_to 10713
  141.2183  133.7442  156.9271 LP  0  0  0  0  0  0  0  0  0  0  0  0  # atno 17394 bound_to 11000
  140.1412  134.9292  157.2470 LP  0  0  0  0  0  0  0  0  0  0  0  0  # atno 17395 bound_to 11000

$$$$
