AV-unprocessed.smi:84|AV-procd|sdf|808|dock10
  -GOLD-   2262017203D 1   1.00000     0.00000
 Structure written by MMmdl.
 51 55  0  0  0  0  0  0  0  0  1 V2000
  156.7117  133.3343  166.4678 O   0  0  0  0  0  0  0  0  0  0  0  0
  156.2292  134.1313  165.6667 C   0  0  0  0  0  0  0  0  0  0  0  0
  157.0593  135.0701  164.8065 C   0  0  0  0  0  0  0  0  0  0  0  0
  156.0177  136.0892  164.3048 C   0  0  1  0  0  0  0  0  0  0  0  0
  155.9617  137.3660  165.1643 C   0  0  0  0  0  0  0  0  0  0  0  0
  155.3484  138.4028  164.2246 C   0  0  0  0  0  0  0  0  0  0  0  0
  155.8189  138.0222  162.9015 N   0  0  0  0  0  0  0  0  0  0  0  0
  155.3932  138.6484  161.7741 C   0  0  0  0  0  0  0  0  0  0  0  0
  155.6041  138.0422  160.5756 N   0  0  0  0  0  0  0  0  0  0  0  0
  155.2061  138.6233  159.4408 C   0  0  0  0  0  0  0  0  0  0  0  0
  154.5791  139.7886  159.2773 N   0  0  0  0  0  0  0  0  0  0  0  0
  154.3464  140.3976  160.4747 C   0  0  0  0  0  0  0  0  0  0  0  0
  154.7198  139.9060  161.7591 C   0  0  0  0  0  0  0  0  0  0  0  0
  154.3165  140.8090  162.7374 N   0  0  0  0  0  0  0  0  0  0  0  0
  153.7548  141.7798  162.0710 C   0  0  0  0  0  0  0  0  0  0  0  0
  153.7028  141.6002  160.7081 N   0  0  0  0  0  0  0  0  0  0  0  0
  153.1780  142.5185  159.7405 C   0  0  0  0  0  0  0  0  0  0  0  0
  152.4548  143.7976  160.1696 C   0  0  0  0  0  0  0  0  0  0  0  0
  151.5528  143.6972  158.9184 C   0  0  0  0  0  0  0  0  0  0  0  0
  150.0671  144.0224  159.1443 C   0  0  0  0  0  0  0  0  0  0  0  0
  149.8287  145.4131  159.0631 O   0  0  0  0  0  0  0  0  0  0  0  0
  152.0571  144.4645  157.6793 C   0  0  0  0  0  0  0  0  0  0  0  0
  151.3774  144.0591  156.5086 O   0  0  0  0  0  0  0  0  0  0  0  0
  151.9090  142.1947  158.9484 C   0  0  0  0  0  0  0  0  0  0  0  0
  156.2881  136.6433  162.8937 C   0  0  0  0  0  0  0  0  0  0  0  0
  154.6853  135.3080  164.4021 C   0  0  0  0  0  0  0  0  0  0  0  0
  154.9321  134.3025  165.4180 N   0  0  0  0  0  0  0  0  0  0  0  0
  157.8728  135.5265  165.3714 H   0  0  0  0  0  0  0  0  0  0  0  0
  157.4895  134.4994  163.9826 H   0  0  0  0  0  0  0  0  0  0  0  0
  155.3981  137.2484  166.0909 H   0  0  0  0  0  0  0  0  0  0  0  0
  156.9704  137.6844  165.4315 H   0  0  0  0  0  0  0  0  0  0  0  0
  154.2591  138.3541  164.2560 H   0  0  0  0  0  0  0  0  0  0  0  0
  155.6569  139.4156  164.4863 H   0  0  0  0  0  0  0  0  0  0  0  0
  155.4195  138.0756  158.5348 H   0  0  0  0  0  0  0  0  0  0  0  0
  153.3540  142.6553  162.5611 H   0  0  0  0  0  0  0  0  0  0  0  0
  154.0053  142.7498  159.0673 H   0  0  0  0  0  0  0  0  0  0  0  0
  151.9021  143.6711  161.1026 H   0  0  0  0  0  0  0  0  0  0  0  0
  153.0924  144.6812  160.2133 H   0  0  0  0  0  0  0  0  0  0  0  0
  149.4455  143.5351  158.3922 H   0  0  0  0  0  0  0  0  0  0  0  0
  149.7179  143.6578  160.1105 H   0  0  0  0  0  0  0  0  0  0  0  0
  149.0655  145.5554  158.5241 H   0  0  0  0  0  0  0  0  0  0  0  0
  151.9099  145.5385  157.7929 H   0  0  0  0  0  0  0  0  0  0  0  0
  153.1277  144.3227  157.5303 H   0  0  0  0  0  0  0  0  0  0  0  0
  150.6501  144.6457  156.3662 H   0  0  0  0  0  0  0  0  0  0  0  0
  152.0890  141.7463  157.9709 H   0  0  0  0  0  0  0  0  0  0  0  0
  151.1982  141.5995  159.5256 H   0  0  0  0  0  0  0  0  0  0  0  0
  157.3575  136.6493  162.6804 H   0  0  0  0  0  0  0  0  0  0  0  0
  155.7957  136.0447  162.1267 H   0  0  0  0  0  0  0  0  0  0  0  0
  153.8347  135.9378  164.6653 H   0  0  0  0  0  0  0  0  0  0  0  0
  154.4466  134.7973  163.4683 H   0  0  0  0  0  0  0  0  0  0  0  0
  154.1913  133.7867  165.8707 H   0  0  0  0  0  0  0  0  0  0  0  0
  1  2  2  0  0  0  0
  2 27  1  0  0  0  0
  2  3  1  0  0  0  0
  3  4  1  0  0  0  0
  3 28  1  0  0  0  0
  3 29  1  0  0  0  0
  4 25  1  0  0  0  0
  4  5  1  0  0  0  0
  4 26  1  0  0  0  0
  5  6  1  0  0  0  0
  5 30  1  0  0  0  0
  5 31  1  0  0  0  0
  6  7  1  0  0  0  0
  6 32  1  0  0  0  0
  6 33  1  0  0  0  0
  7  8  1  0  0  0  0
  7 25  1  0  0  0  0
  8 13  1  0  0  0  0
  8  9  2  0  0  0  0
  9 10  1  0  0  0  0
 10 11  2  0  0  0  0
 10 34  1  0  0  0  0
 11 12  1  0  0  0  0
 12 16  1  0  0  0  0
 12 13  2  0  0  0  0
 13 14  1  0  0  0  0
 14 15  2  0  0  0  0
 15 16  1  0  0  0  0
 15 35  1  0  0  0  0
 16 17  1  0  0  0  0
 17 24  1  0  0  0  0
 17 18  1  0  0  0  0
 17 36  1  0  0  0  0
 18 19  1  0  0  0  0
 18 37  1  0  0  0  0
 18 38  1  0  0  0  0
 19 20  1  0  0  0  0
 19 22  1  0  0  0  0
 19 24  1  0  0  0  0
 20 21  1  0  0  0  0
 20 39  1  0  0  0  0
 20 40  1  0  0  0  0
 21 41  1  0  0  0  0
 22 23  1  0  0  0  0
 22 42  1  0  0  0  0
 22 43  1  0  0  0  0
 23 44  1  0  0  0  0
 24 45  1  0  0  0  0
 24 46  1  0  0  0  0
 25 47  1  0  0  0  0
 25 48  1  0  0  0  0
 26 27  1  0  0  0  0
 26 49  1  0  0  0  0
 26 50  1  0  0  0  0
 27 51  1  0  0  0  0
M  END
> <s_m_source_file>
AV-unprocessed.smi

> <i_m_source_file_index>
84

> <i_lp_mmshare_version>
43012

> <i_f3d_flags>
0

> <s_epik_input>
W0NIMl0xW05IXUMoPU8pW0NIMl1bQ0BdMTJbQ0gyXVtDSDJdTihbQ0gyXTIpYyhuW2NIXW4zKWMoYzM0KW5bY0hdbjRbQ0hdKFtDSDJdNSlbQ0gyXUM1KFtDSDJdW09IXSlbQ0gyXVtPSF0=

> <s_epik_cmdline>
J2VwaWtfcHl0aG9uJywgJy1waCcsICc3LjAnLCAnLXRuJywgJzgnLCAnLW1hJywgJzIwMCcsICctbWV0YWxfYmluZGluZycsICctaW1hZScsICc8aW5maWxlLm1hZT4nLCAnLW9tYWUnLCAnPG91dGZpbGUubWFlPic=

> <r_lp_tautomer_probability>
1

> <r_epik_Ionization_Penalty>
0.00201507

> <r_epik_Ionization_Penalty_Charging>
0

> <r_epik_Ionization_Penalty_Neutral>
0.00201507

> <r_epik_State_Penalty>
0.00133787

> <r_epik_Charging_Adjusted_Penalty>
0.00133787

> <i_epik_Tot_Q>
0

> <i_epik_Tot_abs_Q>
0

> <r_epik_Metal_State_Penalty>
-0

> <b_epik_Metal_Only>
0

> <s_lp_Force_Field>
OPLS_2005

> <r_lp_Energy>
65.4538

> <b_lp_Chiralities_Consistent>
1

> <s_lp_Variant>
AV-unprocessed.smi:84-1

> <Gold.Version>
5.8.1

> <Gold.Id.Protein>
6NUR|6NUR_protein|mol2

> <Gold.PLP.Fitness>
52.0998

> <Gold.PLP.PLP>
-44.0660

> <Gold.PLP.part.hbond>
-4.8636

> <Gold.PLP.part.metal>
0.0000

> <Gold.PLP.part.buried>
-4.0921

> <Gold.PLP.part.nonpolar>
-35.2455

> <Gold.PLP.part.repulsive>
0.0931

> <Gold.PLP.ligand.clash>
0.0000

> <Gold.PLP.ligand.torsion>
0.4558

> <Gold.PLP.Chemscore.Hbond>
2.7640

> <Gold.PLP.Chemscore.CHOScore>
0.0000

> <Gold.PLP.Chemscore.Metal>
0.0000

> <Gold.Chemscore.Hbonds>
donor molecule, donor type, donor heavy atom, donor atom, acceptor molecule, acceptor atom, score
      L1  H    21    41       P1  8029  1.00
      L1  H    23    44       P1  8028  0.88
      P1  H  7997  8008       L1    11  0.90

> <Gold.PLP.Chemscore.Internal.Correction>
0.6534

> <Gold.Rescore>
     Score         DG    S(hbond)    S(metal)    S(lipo)     H(rot)  DE(clash)    DE(int)     intcor
     15.44     -17.05       2.46        0.00      93.55       2.96       0.16       1.44       ----

> <Gold.Chemscore.Fitness>
15.4391

> <Gold.Chemscore.DG>
-17.0480

> <Gold.Chemscore.ZeroCoef>
-5.4800

> <Gold.Chemscore.Hbond>
2.4590

> <Gold.Chemscore.Metal>
0.0000

> <Gold.Chemscore.Lipo>
93.5472

> <Gold.Chemscore.Internal_Hbond>
0.0000

> <Gold.Chemscore.DEClash>
0.1649

> <Gold.Chemscore.DEInternal>
1.4440

> <Gold.Chemscore.Rot>
2.9649

> <Gold.Chemscore.Internal.Correction>
   9.000000E+99

> <Gold.Chemscore.Hbonds>
donor molecule, donor type, donor heavy atom, donor atom, acceptor molecule, acceptor atom, score
      L1  H    21    41       P1  8029  0.99
      L1  H    23    44       P1  8028  0.86
      P1  H  7997  8008       L1    11  0.19

> <Gold.Chemscore.Hbond.Weighted>
-8.2132

> <Gold.Chemscore.Metal.Weighted>
-0.0000

> <Gold.Chemscore.Lipo.Weighted>
-10.9450

> <Gold.Chemscore.Internal_Hbond.Weighted>
0.0000

> <Gold.Chemscore.DEClash.Weighted>
0.1649

> <Gold.Chemscore.DEInternal.Weighted>
1.4440

> <Gold.Chemscore.Rot.Weighted>
7.5902

> <Gold.Chemscore.Internal.Correction.Weighted>
   9.000000E+99

> <Gold.Protein.RotatedTorsions>
[ 6907 6896 6895 6894 ] final -139.36 input  -60.11 | X-H torsion
[ 7974 7965 7964 7962 ] final  145.12 input  175.53 | X-H torsion
[ 8008 7997 7996 7995 ] final -106.62 input   59.86 | X-H torsion
[ 10167 10162 10161 10158 ] final  108.94 input  -65.29 | X-H torsion
[ 10718 10713 10712 10709 ] final   88.36 input   66.30 | X-H torsion
[ 10763 10752 10751 10750 ] final  138.11 input  -60.55 | X-H torsion
[ 11005 11000 10999 10996 ] final -100.85 input  -57.11 | X-H torsion

> <Gold.Protein.ActiveResidues>
 VAL166  LYS551  ARG553  GLY616  TRP617  ASP618  TYR619  PRO620  LYS621  CYS622 
 ASP623  PHE694  ASN695  SER759  ASP760  ASP761  ALA762  ILE779  LEU786  VAL792 
 PHE793  MET794  SER795  GLU796  ALA797  LYS798  CYS799  TRP800  GLU811  SER814 

> <Gold.Protein.RotatedAtoms>
  151.0468  133.5658  159.2645 H   0  0  0  0  0  0  0  0  0  0  0  0  # atno 6907 bound_to 6896
  151.2684  135.0676  159.9134 H   0  0  0  0  0  0  0  0  0  0  0  0  # atno 6908 bound_to 6896
  152.5374  134.0202  159.8032 H   0  0  0  0  0  0  0  0  0  0  0  0  # atno 6909 bound_to 6896
  144.8779  139.5744  143.5856 H   0  0  0  0  0  0  0  0  0  0  0  0  # atno 7974 bound_to 7965
  154.9172  140.0408  157.1978 H   0  0  0  0  0  0  0  0  0  0  0  0  # atno 8008 bound_to 7997
  154.8289  140.2896  155.5714 H   0  0  0  0  0  0  0  0  0  0  0  0  # atno 8009 bound_to 7997
  156.2985  140.2504  156.3211 H   0  0  0  0  0  0  0  0  0  0  0  0  # atno 8010 bound_to 7997
  139.6806  144.7118  151.1523 H   0  0  0  0  0  0  0  0  0  0  0  0  # atno 10167 bound_to 10162
  157.6948  131.0291  150.3263 H   0  0  0  0  0  0  0  0  0  0  0  0  # atno 10718 bound_to 10713
  153.8841  135.3041  155.3446 H   0  0  0  0  0  0  0  0  0  0  0  0  # atno 10763 bound_to 10752
  154.7747  135.4867  153.9723 H   0  0  0  0  0  0  0  0  0  0  0  0  # atno 10764 bound_to 10752
  153.1334  135.6809  153.9239 H   0  0  0  0  0  0  0  0  0  0  0  0  # atno 10765 bound_to 10752
  141.1254  133.8431  157.1155 H   0  0  0  0  0  0  0  0  0  0  0  0  # atno 11005 bound_to 11000
  146.2975  139.7322  142.9116 LP  0  0  0  0  0  0  0  0  0  0  0  0  # atno 17320 bound_to 7965
  145.4008  141.0385  143.3071 LP  0  0  0  0  0  0  0  0  0  0  0  0  # atno 17321 bound_to 7965
  140.7651  143.5705  150.9000 LP  0  0  0  0  0  0  0  0  0  0  0  0  # atno 17342 bound_to 10162
  139.9377  143.6418  152.3061 LP  0  0  0  0  0  0  0  0  0  0  0  0  # atno 17343 bound_to 10162
  156.3743  130.3869  149.7151 LP  0  0  0  0  0  0  0  0  0  0  0  0  # atno 17370 bound_to 10713
  156.4555  130.7927  151.2948 LP  0  0  0  0  0  0  0  0  0  0  0  0  # atno 17371 bound_to 10713
  140.0249  134.9929  157.0665 LP  0  0  0  0  0  0  0  0  0  0  0  0  # atno 17394 bound_to 11000
  140.4380  134.1711  155.7172 LP  0  0  0  0  0  0  0  0  0  0  0  0  # atno 17395 bound_to 11000

$$$$
