AV-unprocessed.smi:826|AV-procd|sdf|3855|dock6
  -GOLD-   22720 1303D 1   1.00000     0.00000
 Structure written by MMmdl.
 38 39  0  0  0  0  0  0  0  0  2 V2000
  145.9347  133.2263  161.8266 C   0  0  0  0  0  0  0  0  0  0  0  0
  146.5779  134.5505  161.5958 C   0  0  0  0  0  0  0  0  0  0  0  0
  146.6006  135.5163  162.5176 N   0  0  0  0  0  0  0  0  0  0  0  0
  147.2607  136.6514  162.0695 N   0  0  0  0  0  0  0  0  0  0  0  0
  147.7374  136.5245  160.8228 C   0  0  0  0  0  0  0  0  0  0  0  0
  148.4102  137.5094  160.2052 N   0  5  0  0  0  0  0  0  0  0  0  0
  149.3170  137.2088  159.2476 C   0  0  0  0  0  0  0  0  0  0  0  0
  149.5220  136.0941  158.7607 O   0  0  0  0  0  0  0  0  0  0  0  0
  150.0267  138.2650  158.8218 N   0  0  0  0  0  0  0  0  0  0  0  0
  151.0614  138.2416  157.7887 C   0  0  1  0  0  0  0  0  0  0  0  0
  150.3974  138.5745  156.4417 C   0  0  0  0  0  0  0  0  0  0  0  0
  152.1291  139.3087  158.0767 C   0  0  0  0  0  0  0  0  0  0  0  0
  153.3226  139.0066  158.1265 O   0  0  0  0  0  0  0  0  0  0  0  0
  151.6768  140.5541  158.2853 N   0  0  0  0  0  0  0  0  0  0  0  0
  152.5119  141.7116  158.5917 C   0  0  0  0  0  0  0  0  0  0  0  0
  152.6481  141.9241  160.1143 C   0  0  0  0  0  0  0  0  0  0  0  0
  152.2781  143.3858  160.3770 C   0  0  0  0  0  0  0  0  0  0  0  0
  151.3181  143.7453  159.2471 C   0  0  0  0  0  0  0  0  0  0  0  0
  151.8750  142.9976  158.0359 C   0  0  0  0  0  0  0  0  0  0  0  0
  147.3738  134.9634  160.0871 S   0  0  0  0  0  0  0  0  0  0  0  0
  146.6795  132.5065  162.1664 H   0  0  0  0  0  0  0  0  0  0  0  0
  145.4884  132.8597  160.9022 H   0  0  0  0  0  0  0  0  0  0  0  0
  145.1530  133.3073  162.5827 H   0  0  0  0  0  0  0  0  0  0  0  0
  149.8348  139.1567  159.2538 H   0  0  0  0  0  0  0  0  0  0  0  0
  151.5150  137.2498  157.7330 H   0  0  0  0  0  0  0  0  0  0  0  0
  151.1260  138.5731  155.6302 H   0  0  0  0  0  0  0  0  0  0  0  0
  149.9137  139.5524  156.4545 H   0  0  0  0  0  0  0  0  0  0  0  0
  149.6350  137.8357  156.1931 H   0  0  0  0  0  0  0  0  0  0  0  0
  150.6819  140.7120  158.2198 H   0  0  0  0  0  0  0  0  0  0  0  0
  153.4957  141.5816  158.1366 H   0  0  0  0  0  0  0  0  0  0  0  0
  151.9561  141.2781  160.6572 H   0  0  0  0  0  0  0  0  0  0  0  0
  153.6513  141.6900  160.4717 H   0  0  0  0  0  0  0  0  0  0  0  0
  151.8409  143.5368  161.3642 H   0  0  0  0  0  0  0  0  0  0  0  0
  153.1712  144.0085  160.3097 H   0  0  0  0  0  0  0  0  0  0  0  0
  150.3189  143.3756  159.4806 H   0  0  0  0  0  0  0  0  0  0  0  0
  151.2473  144.8206  159.0806 H   0  0  0  0  0  0  0  0  0  0  0  0
  152.6493  143.6061  157.5666 H   0  0  0  0  0  0  0  0  0  0  0  0
  151.1123  142.8126  157.2781 H   0  0  0  0  0  0  0  0  0  0  0  0
  1  2  1  0  0  0  0
  1 21  1  0  0  0  0
  1 22  1  0  0  0  0
  1 23  1  0  0  0  0
  2 20  1  0  0  0  0
  2  3  2  0  0  0  0
  3  4  1  0  0  0  0
  4  5  2  0  0  0  0
  5  6  1  0  0  0  0
  5 20  1  0  0  0  0
  6  7  1  0  0  0  0
  7  8  2  0  0  0  0
  7  9  1  0  0  0  0
  9 10  1  0  0  0  0
  9 24  1  0  0  0  0
 10 11  1  0  0  0  0
 10 12  1  0  0  0  0
 10 25  1  0  0  0  0
 11 26  1  0  0  0  0
 11 27  1  0  0  0  0
 11 28  1  0  0  0  0
 12 13  2  0  0  0  0
 12 14  1  0  0  0  0
 14 15  1  0  0  0  0
 14 29  1  0  0  0  0
 15 19  1  0  0  0  0
 15 16  1  0  0  0  0
 15 30  1  0  0  0  0
 16 17  1  0  0  0  0
 16 31  1  0  0  0  0
 16 32  1  0  0  0  0
 17 18  1  0  0  0  0
 17 33  1  0  0  0  0
 17 34  1  0  0  0  0
 18 19  1  0  0  0  0
 18 35  1  0  0  0  0
 18 36  1  0  0  0  0
 19 37  1  0  0  0  0
 19 38  1  0  0  0  0
M  CHG  1   6  -1
M  END
> <s_m_source_file>
AV-unprocessed.smi

> <i_m_source_file_index>
826

> <i_lp_mmshare_version>
43012

> <i_f3d_flags>
0

> <s_epik_input>
W0NIM11jMW5uYyhzMSlbTkhdQyg9TylbTkhdW0NASF0oW0NIM10pQyg9TylbTkhdW0NIXTJbQ0gyXVtDSDJdW0NIMl1bQ0gyXTI=

> <s_epik_cmdline>
J2VwaWtfcHl0aG9uJywgJy1waCcsICc3LjAnLCAnLXRuJywgJzgnLCAnLW1hJywgJzIwMCcsICctbWV0YWxfYmluZGluZycsICctaW1hZScsICc8aW5maWxlLm1hZT4nLCAnLW9tYWUnLCAnPG91dGZpbGUubWFlPic=

> <r_lp_tautomer_probability>
1

> <r_epik_Ionization_Penalty>
3.15008

> <r_epik_Ionization_Penalty_Charging>
3.01509

> <r_epik_Ionization_Penalty_Neutral>
0.134987

> <r_epik_State_Penalty>
3.01143

> <r_epik_Charging_Adjusted_Penalty>
6.02652

> <i_epik_Tot_Q>
-1

> <i_epik_Tot_abs_Q>
1

> <r_epik_Metal_State_Penalty>
0.454645

> <b_epik_Metal_Only>
1

> <s_lp_Force_Field>
OPLS_2005

> <r_lp_Energy>
16.5176

> <b_lp_Chiralities_Consistent>
1

> <s_lp_Variant>
AV-unprocessed.smi:826-4

> <Gold.Version>
5.8.1

> <Gold.Id.Protein>
6NUR|6NUR_protein|mol2

> <Gold.PLP.Fitness>
41.7799

> <Gold.PLP.PLP>
-33.3129

> <Gold.PLP.part.hbond>
-4.0000

> <Gold.PLP.part.metal>
0.0000

> <Gold.PLP.part.buried>
-5.7034

> <Gold.PLP.part.nonpolar>
-24.5350

> <Gold.PLP.part.repulsive>
0.3244

> <Gold.PLP.ligand.clash>
0.0000

> <Gold.PLP.ligand.torsion>
0.9936

> <Gold.PLP.Chemscore.Hbond>
3.4714

> <Gold.PLP.Chemscore.CHOScore>
0.0000

> <Gold.PLP.Chemscore.Metal>
0.0000

> <Gold.Chemscore.Hbonds>
donor molecule, donor type, donor heavy atom, donor atom, acceptor molecule, acceptor atom, score
      P1  H  6896  6907       L1     8  1.00
      P1  H  6931  6943       L1     6  0.64
      P1  H  6934  6947       L1     6  0.71
      P1  H  7997  8010       L1    13  1.00

> <Gold.PLP.Chemscore.Internal.Correction>
0.0401

> <Gold.Rescore>
     Score         DG    S(hbond)    S(metal)    S(lipo)     H(rot)  DE(clash)    DE(int)     intcor
     16.67     -17.94       2.35        0.00      74.93       1.62       0.05       1.22       ----

> <Gold.Chemscore.Fitness>
16.6661

> <Gold.Chemscore.DG>
-17.9376

> <Gold.Chemscore.ZeroCoef>
-5.4800

> <Gold.Chemscore.Hbond>
2.3468

> <Gold.Chemscore.Metal>
0.0000

> <Gold.Chemscore.Lipo>
74.9291

> <Gold.Chemscore.Internal_Hbond>
0.0000

> <Gold.Chemscore.DEClash>
0.0473

> <Gold.Chemscore.DEInternal>
1.2243

> <Gold.Chemscore.Rot>
1.6201

> <Gold.Chemscore.Internal.Correction>
   9.000000E+99

> <Gold.Chemscore.Hbonds>
donor molecule, donor type, donor heavy atom, donor atom, acceptor molecule, acceptor atom, score
      P1  H  6896  6907       L1     8  0.91
      P1  H  6931  6943       L1     6  0.03
      P1  H  6934  6947       L1     6  0.05
      P1  H  7997  8010       L1    13  0.96

> <Gold.Chemscore.Hbond.Weighted>
-7.8384

> <Gold.Chemscore.Metal.Weighted>
-0.0000

> <Gold.Chemscore.Lipo.Weighted>
-8.7667

> <Gold.Chemscore.Internal_Hbond.Weighted>
0.0000

> <Gold.Chemscore.DEClash.Weighted>
0.0473

> <Gold.Chemscore.DEInternal.Weighted>
1.2243

> <Gold.Chemscore.Rot.Weighted>
4.1475

> <Gold.Chemscore.Internal.Correction.Weighted>
   9.000000E+99

> <Gold.Protein.RotatedTorsions>
[ 6907 6896 6895 6894 ] final  -51.42 input  -60.11 | X-H torsion
[ 7974 7965 7964 7962 ] final   46.96 input  175.53 | X-H torsion
[ 8008 7997 7996 7995 ] final   31.68 input   59.86 | X-H torsion
[ 10167 10162 10161 10158 ] final  -60.45 input  -65.29 | X-H torsion
[ 10718 10713 10712 10709 ] final   79.06 input   66.30 | X-H torsion
[ 10763 10752 10751 10750 ] final -160.54 input  -60.55 | X-H torsion
[ 11005 11000 10999 10996 ] final  -46.13 input  -57.11 | X-H torsion

> <Gold.Protein.ActiveResidues>
 VAL166  LYS551  ARG553  GLY616  TRP617  ASP618  TYR619  PRO620  LYS621  CYS622 
 ASP623  PHE694  ASN695  SER759  ASP760  ASP761  ALA762  ILE779  LEU786  VAL792 
 PHE793  MET794  SER795  GLU796  ALA797  LYS798  CYS799  TRP800  GLU811  SER814 

> <Gold.Protein.RotatedAtoms>
  150.8613  134.7965  159.7084 H   0  0  0  0  0  0  0  0  0  0  0  0  # atno 6907 bound_to 6896
  152.4649  134.5095  159.9759 H   0  0  0  0  0  0  0  0  0  0  0  0  # atno 6908 bound_to 6896
  151.5199  133.3430  159.2935 H   0  0  0  0  0  0  0  0  0  0  0  0  # atno 6909 bound_to 6896
  146.0342  139.4800  142.9819 H   0  0  0  0  0  0  0  0  0  0  0  0  # atno 7974 bound_to 7965
  155.1103  140.3238  155.4523 H   0  0  0  0  0  0  0  0  0  0  0  0  # atno 8008 bound_to 7997
  156.2692  140.2045  156.6175 H   0  0  0  0  0  0  0  0  0  0  0  0  # atno 8009 bound_to 7997
  154.6761  140.0531  157.0204 H   0  0  0  0  0  0  0  0  0  0  0  0  # atno 8010 bound_to 7997
  140.6070  143.2376  151.5797 H   0  0  0  0  0  0  0  0  0  0  0  0  # atno 10167 bound_to 10162
  157.6765  130.9897  150.1877 H   0  0  0  0  0  0  0  0  0  0  0  0  # atno 10718 bound_to 10713
  154.7382  135.3062  154.8775 H   0  0  0  0  0  0  0  0  0  0  0  0  # atno 10763 bound_to 10752
  153.9597  135.6754  153.4749 H   0  0  0  0  0  0  0  0  0  0  0  0  # atno 10764 bound_to 10752
  153.0983  135.4925  154.8743 H   0  0  0  0  0  0  0  0  0  0  0  0  # atno 10765 bound_to 10752
  141.0559  133.6726  156.3111 H   0  0  0  0  0  0  0  0  0  0  0  0  # atno 11005 bound_to 11000
  145.6991  141.0141  143.1514 LP  0  0  0  0  0  0  0  0  0  0  0  0  # atno 17320 bound_to 7965
  144.7044  139.8623  143.7434 LP  0  0  0  0  0  0  0  0  0  0  0  0  # atno 17321 bound_to 7965
  139.5332  144.2854  152.1195 LP  0  0  0  0  0  0  0  0  0  0  0  0  # atno 17342 bound_to 10162
  140.2046  144.4624  150.6415 LP  0  0  0  0  0  0  0  0  0  0  0  0  # atno 17343 bound_to 10162
  156.2595  130.3709  149.8145 LP  0  0  0  0  0  0  0  0  0  0  0  0  # atno 17370 bound_to 10713
  156.5894  130.8500  151.3404 LP  0  0  0  0  0  0  0  0  0  0  0  0  # atno 17371 bound_to 10713
  140.5964  134.5599  157.5509 LP  0  0  0  0  0  0  0  0  0  0  0  0  # atno 17394 bound_to 11000
  139.9390  134.7822  156.0728 LP  0  0  0  0  0  0  0  0  0  0  0  0  # atno 17395 bound_to 11000

$$$$
