AV-unprocessed.smi:2189|AV-procd|sdf|8887|dock7
  -GOLD-   2272012 93D 1   1.00000     0.00000
 Structure written by MMmdl.
 39 41  0  0  0  0  0  0  0  0  3 V2000
  158.0210  135.2781  156.5459 O   0  0  0  0  0  0  0  0  0  0  0  0
  157.0999  135.8714  155.9698 C   0  0  0  0  0  0  0  0  0  0  0  0
  155.8649  136.1226  156.5035 N   0  5  0  0  0  0  0  0  0  0  0  0
  155.4122  135.7195  157.8367 C   0  0  0  0  0  0  0  0  0  0  0  0
  154.7751  136.9239  158.5642 C   0  0  0  0  0  0  0  0  0  0  0  0
  154.5856  136.7339  160.0666 C   0  0  0  0  0  0  0  0  0  0  0  0
  153.9770  137.7224  160.8732 C   0  0  0  0  0  0  0  0  0  0  0  0
  153.8233  137.4908  162.2554 C   0  0  0  0  0  0  0  0  0  0  0  0
  154.2878  136.2795  162.8079 C   0  0  0  0  0  0  0  0  0  0  0  0
  154.8938  135.3287  161.9618 C   0  0  0  0  0  0  0  0  0  0  0  0
  155.0218  135.5870  160.6420 N   0  3  0  0  0  0  0  0  0  0  0  0
  157.3060  136.3324  154.5851 C   0  0  0  0  0  0  0  0  0  0  0  0
  156.7967  137.5390  154.2234 C   0  0  0  0  0  0  0  0  0  0  0  0
  156.9687  138.0686  152.8938 C   0  0  0  0  0  0  0  0  0  0  0  0
  157.6262  137.3213  152.0006 C   0  0  0  0  0  0  0  0  0  0  0  0
  158.1483  136.0624  152.2939 N   0  0  0  0  0  0  0  0  0  0  0  0
  158.7592  135.3267  151.1921 C   0  0  0  0  0  0  0  0  0  0  0  0
  160.0199  134.6230  151.6603 C   0  0  0  0  0  0  0  0  0  0  0  0
  159.4758  133.4068  152.9128 S   0  0  0  0  0  0  0  0  0  0  0  0
  158.5338  132.4784  152.2680 O   0  0  0  0  0  0  0  0  0  0  0  0
  160.6730  132.8721  153.5791 O   0  0  0  0  0  0  0  0  0  0  0  0
  158.6362  134.4064  153.9620 N   0  0  0  0  0  0  0  0  0  0  0  0
  158.0621  135.5217  153.6083 C   0  0  0  0  0  0  0  0  0  0  0  0
  154.6847  134.9071  157.8119 H   0  0  0  0  0  0  0  0  0  0  0  0
  156.2439  135.3495  158.4364 H   0  0  0  0  0  0  0  0  0  0  0  0
  155.3970  137.8058  158.4072 H   0  0  0  0  0  0  0  0  0  0  0  0
  153.8100  137.1578  158.1124 H   0  0  0  0  0  0  0  0  0  0  0  0
  153.6208  138.6424  160.4330 H   0  0  0  0  0  0  0  0  0  0  0  0
  153.3532  138.2332  162.8831 H   0  0  0  0  0  0  0  0  0  0  0  0
  154.1786  136.0819  163.8641 H   0  0  0  0  0  0  0  0  0  0  0  0
  155.2746  134.3753  162.2971 H   0  0  0  0  0  0  0  0  0  0  0  0
  156.2359  138.1377  154.9270 H   0  0  0  0  0  0  0  0  0  0  0  0
  156.5789  139.0401  152.6279 H   0  0  0  0  0  0  0  0  0  0  0  0
  157.7864  137.6635  150.9886 H   0  0  0  0  0  0  0  0  0  0  0  0
  158.0396  134.6120  150.7916 H   0  0  0  0  0  0  0  0  0  0  0  0
  159.0169  136.0010  150.3748 H   0  0  0  0  0  0  0  0  0  0  0  0
  160.5153  134.0925  150.8476 H   0  0  0  0  0  0  0  0  0  0  0  0
  160.7330  135.3140  152.1115 H   0  0  0  0  0  0  0  0  0  0  0  0
  155.4563  134.8817  160.0467 H   0  0  0  0  0  0  0  0  0  0  0  0
  1  2  2  0  0  0  0
  2  3  1  0  0  0  0
  2 12  1  0  0  0  0
  3  4  1  0  0  0  0
  4  5  1  0  0  0  0
  4 24  1  0  0  0  0
  4 25  1  0  0  0  0
  5  6  1  0  0  0  0
  5 26  1  0  0  0  0
  5 27  1  0  0  0  0
  6 11  1  0  0  0  0
  6  7  2  0  0  0  0
  7  8  1  0  0  0  0
  7 28  1  0  0  0  0
  8  9  2  0  0  0  0
  8 29  1  0  0  0  0
  9 10  1  0  0  0  0
  9 30  1  0  0  0  0
 10 11  2  0  0  0  0
 10 31  1  0  0  0  0
 11 39  1  0  0  0  0
 12 23  1  0  0  0  0
 12 13  2  0  0  0  0
 13 14  1  0  0  0  0
 13 32  1  0  0  0  0
 14 15  2  0  0  0  0
 14 33  1  0  0  0  0
 15 16  1  0  0  0  0
 15 34  1  0  0  0  0
 16 23  1  0  0  0  0
 16 17  1  0  0  0  0
 17 18  1  0  0  0  0
 17 35  1  0  0  0  0
 17 36  1  0  0  0  0
 18 19  1  0  0  0  0
 18 37  1  0  0  0  0
 18 38  1  0  0  0  0
 19 20  2  0  0  0  0
 19 21  2  0  0  0  0
 19 22  1  0  0  0  0
 22 23  2  0  0  0  0
M  CHG  1   3  -1
M  CHG  1  11   1
M  END
> <s_m_source_file>
AV-unprocessed.smi

> <i_m_source_file_index>
2189

> <i_lp_mmshare_version>
43012

> <i_f3d_flags>
0

> <s_epik_input>
W0NIMl0xW0NIMl1TKD1PKSg9TylOPUMoTjEyKUMoPVtDSF1bQ0hdPVtDSF0yKUMoPU8pW05IXVtDSDJdW0NIMl1jM1tjSF1bY0hdW2NIXVtjSF1uMw==

> <s_epik_cmdline>
J2VwaWtfcHl0aG9uJywgJy1waCcsICc3LjAnLCAnLXRuJywgJzgnLCAnLW1hJywgJzIwMCcsICctbWV0YWxfYmluZGluZycsICctaW1hZScsICc8aW5maWxlLm1hZT4nLCAnLW9tYWUnLCAnPG91dGZpbGUubWFlPic=

> <r_epik_Ionization_Penalty>
6.52844

> <r_epik_Ionization_Penalty_Charging>
6.52844

> <r_epik_Ionization_Penalty_Neutral>
1.18271e-13

> <r_epik_State_Penalty>
7.49351

> <r_epik_Charging_Adjusted_Penalty>
14.0219

> <i_epik_Tot_Q>
0

> <i_epik_Tot_abs_Q>
2

> <r_epik_Metal_State_Penalty>
3.53414

> <b_epik_Metal_Only>
1

> <s_lp_Force_Field>
OPLS_2005

> <r_lp_Energy>
35.7172

> <b_lp_Chiralities_Consistent>
1

> <s_lp_Variant>
AV-unprocessed.smi:2189-4

> <Gold.Version>
5.8.1

> <Gold.Id.Protein>
6NUR|6NUR_protein|mol2

> <Gold.PLP.Fitness>
43.2063

> <Gold.PLP.PLP>
-32.7605

> <Gold.PLP.part.hbond>
-2.0000

> <Gold.PLP.part.metal>
0.0000

> <Gold.PLP.part.buried>
-3.2399

> <Gold.PLP.part.nonpolar>
-28.4546

> <Gold.PLP.part.repulsive>
0.2500

> <Gold.PLP.ligand.clash>
0.0000

> <Gold.PLP.ligand.torsion>
0.7118

> <Gold.PLP.Chemscore.Hbond>
2.8294

> <Gold.PLP.Chemscore.CHOScore>
1.0000

> <Gold.PLP.Chemscore.Metal>
0.0000

> <Gold.Chemscore.Hbonds>
donor molecule, donor type, donor heavy atom, donor atom, acceptor molecule, acceptor atom, score
      P1  H 10713 10718       L1    20  0.76
      P1  H 10752 10765       L1     3  2.00
      L1  C    15    34       P1 10674  1.00

> <Gold.PLP.Chemscore.Internal.Correction>
0.3811

> <Gold.Rescore>
     Score         DG    S(hbond)    S(metal)    S(lipo)     H(rot)  DE(clash)    DE(int)     intcor
     15.91     -18.25       1.51        0.00      99.05       1.51       0.11       2.23       ----

> <Gold.Chemscore.Fitness>
15.9115

> <Gold.Chemscore.DG>
-18.2503

> <Gold.Chemscore.ZeroCoef>
-5.4800

> <Gold.Chemscore.Hbond>
1.5119

> <Gold.Chemscore.Metal>
0.0000

> <Gold.Chemscore.Lipo>
99.0471

> <Gold.Chemscore.Internal_Hbond>
0.0000

> <Gold.Chemscore.DEClash>
0.1103

> <Gold.Chemscore.DEInternal>
2.2286

> <Gold.Chemscore.Rot>
1.5109

> <Gold.Chemscore.Internal.Correction>
   9.000000E+99

> <Gold.Chemscore.Hbonds>
donor molecule, donor type, donor heavy atom, donor atom, acceptor molecule, acceptor atom, score
      P1  H 10713 10718       L1    20  0.73
      P1  H 10752 10765       L1     3  0.24

> <Gold.Chemscore.Hbond.Weighted>
-5.0499

> <Gold.Chemscore.Metal.Weighted>
-0.0000

> <Gold.Chemscore.Lipo.Weighted>
-11.5885

> <Gold.Chemscore.Internal_Hbond.Weighted>
0.0000

> <Gold.Chemscore.DEClash.Weighted>
0.1103

> <Gold.Chemscore.DEInternal.Weighted>
2.2286

> <Gold.Chemscore.Rot.Weighted>
3.8680

> <Gold.Chemscore.Internal.Correction.Weighted>
   9.000000E+99

> <Gold.Protein.RotatedTorsions>
[ 6907 6896 6895 6894 ] final -176.60 input  -60.11 | X-H torsion
[ 7974 7965 7964 7962 ] final  148.41 input  175.53 | X-H torsion
[ 8008 7997 7996 7995 ] final  143.64 input   59.86 | X-H torsion
[ 10167 10162 10161 10158 ] final  157.38 input  -65.29 | X-H torsion
[ 10718 10713 10712 10709 ] final  139.69 input   66.30 | X-H torsion
[ 10763 10752 10751 10750 ] final  -57.80 input  -60.55 | X-H torsion
[ 11005 11000 10999 10996 ] final  -99.63 input  -57.11 | X-H torsion

> <Gold.Protein.ActiveResidues>
 VAL166  LYS551  ARG553  GLY616  TRP617  ASP618  TYR619  PRO620  LYS621  CYS622 
 ASP623  PHE694  ASN695  SER759  ASP760  ASP761  ALA762  ILE779  LEU786  VAL792 
 PHE793  MET794  SER795  GLU796  ALA797  LYS798  CYS799  TRP800  GLU811  SER814 

> <Gold.Protein.RotatedAtoms>
  151.6074  133.3350  159.3059 H   0  0  0  0  0  0  0  0  0  0  0  0  # atno 6907 bound_to 6896
  150.8175  134.7368  159.6754 H   0  0  0  0  0  0  0  0  0  0  0  0  # atno 6908 bound_to 6896
  152.4270  134.5855  160.0011 H   0  0  0  0  0  0  0  0  0  0  0  0  # atno 6909 bound_to 6896
  144.8516  139.6150  143.5971 H   0  0  0  0  0  0  0  0  0  0  0  0  # atno 7974 bound_to 7965
  156.2926  140.2257  156.4923 H   0  0  0  0  0  0  0  0  0  0  0  0  # atno 8008 bound_to 7997
  154.7760  140.0463  157.1111 H   0  0  0  0  0  0  0  0  0  0  0  0  # atno 8009 bound_to 7997
  154.9816  140.3079  155.4947 H   0  0  0  0  0  0  0  0  0  0  0  0  # atno 8010 bound_to 7997
  139.4823  144.4923  151.8291 H   0  0  0  0  0  0  0  0  0  0  0  0  # atno 10167 bound_to 10162
  157.4116  131.1028  151.0448 H   0  0  0  0  0  0  0  0  0  0  0  0  # atno 10718 bound_to 10713
  154.2281  135.6366  153.5166 H   0  0  0  0  0  0  0  0  0  0  0  0  # atno 10763 bound_to 10752
  152.9955  135.5513  154.6042 H   0  0  0  0  0  0  0  0  0  0  0  0  # atno 10764 bound_to 10752
  154.5519  135.2902  155.0975 H   0  0  0  0  0  0  0  0  0  0  0  0  # atno 10765 bound_to 10752
  141.1301  133.8336  157.0997 H   0  0  0  0  0  0  0  0  0  0  0  0  # atno 11005 bound_to 11000
  146.2789  139.6826  142.9243 LP  0  0  0  0  0  0  0  0  0  0  0  0  # atno 17320 bound_to 7965
  145.4488  141.0427  143.2816 LP  0  0  0  0  0  0  0  0  0  0  0  0  # atno 17321 bound_to 7965
  140.4408  144.1989  150.5891 LP  0  0  0  0  0  0  0  0  0  0  0  0  # atno 17342 bound_to 10162
  140.4685  143.2422  151.9122 LP  0  0  0  0  0  0  0  0  0  0  0  0  # atno 17343 bound_to 10162
  157.1411  130.6143  149.5555 LP  0  0  0  0  0  0  0  0  0  0  0  0  # atno 17370 bound_to 10713
  155.9852  130.4881  150.7021 LP  0  0  0  0  0  0  0  0  0  0  0  0  # atno 17371 bound_to 10713
  140.0341  134.9887  157.0837 LP  0  0  0  0  0  0  0  0  0  0  0  0  # atno 17394 bound_to 11000
  140.4238  134.1852  155.7165 LP  0  0  0  0  0  0  0  0  0  0  0  0  # atno 17395 bound_to 11000

$$$$
