AV-unprocessed.smi:2243|AV-procd|sdf|9068|dock8
  -GOLD-   2272012273D 1   1.00000     0.00000
 Structure written by MMmdl.
 34 35  0  0  0  0  0  0  0  0  1 V2000
  149.3690  134.6494  155.6662 C   0  0  0  0  0  0  0  0  0  0  0  0
  150.2717  135.6883  156.3534 C   0  0  2  0  0  0  0  0  0  0  0  0
  149.5205  136.2716  157.4662 N   0  0  0  0  0  0  0  0  0  0  0  0
  148.9143  135.6036  158.4604 C   0  0  0  0  0  0  0  0  0  0  0  0
  148.9421  134.3706  158.5271 O   0  0  0  0  0  0  0  0  0  0  0  0
  148.3088  136.5005  159.3291 N   0  0  0  0  0  0  0  0  0  0  0  0
  147.7850  136.0809  160.4403 C   0  0  0  0  0  0  0  0  0  0  0  0
  147.6737  134.8209  161.0225 N   0  0  0  0  0  0  0  0  0  0  0  0
  147.0198  134.9581  162.2149 C   0  0  0  0  0  0  0  0  0  0  0  0
  146.7309  136.2453  162.3802 C   0  0  0  0  0  0  0  0  0  0  0  0
  147.1860  136.9565  161.3107 O   0  0  0  0  0  0  0  0  0  0  0  0
  150.7698  136.8013  155.3933 C   0  0  0  0  0  0  0  0  0  0  0  0
  151.7242  137.7973  156.0832 C   0  0  0  0  0  0  0  0  0  0  0  0
  152.1388  138.9288  155.1284 C   0  0  0  0  0  0  0  0  0  0  0  0
  150.9857  139.5997  154.6364 O   0  0  0  0  0  0  0  0  0  0  0  0
  150.1375  138.7458  153.8791 C   0  0  0  0  0  0  0  0  0  0  0  0
  149.6112  137.6064  154.7660 C   0  0  0  0  0  0  0  0  0  0  0  0
  149.9105  134.0773  154.9136 H   0  0  0  0  0  0  0  0  0  0  0  0
  148.5161  135.1235  155.1795 H   0  0  0  0  0  0  0  0  0  0  0  0
  148.9807  133.9308  156.3888 H   0  0  0  0  0  0  0  0  0  0  0  0
  151.1454  135.1566  156.7335 H   0  0  0  0  0  0  0  0  0  0  0  0
  149.4569  137.2792  157.4820 H   0  0  0  0  0  0  0  0  0  0  0  0
  148.0014  133.9355  160.6634 H   0  0  0  0  0  0  0  0  0  0  0  0
  146.8255  134.0956  162.8351 H   0  0  0  0  0  0  0  0  0  0  0  0
  146.2289  136.7892  163.1666 H   0  0  0  0  0  0  0  0  0  0  0  0
  151.3181  136.3232  154.5798 H   0  0  0  0  0  0  0  0  0  0  0  0
  151.2403  138.2251  156.9620 H   0  0  0  0  0  0  0  0  0  0  0  0
  152.6228  137.2918  156.4355 H   0  0  0  0  0  0  0  0  0  0  0  0
  152.7657  139.6493  155.6538 H   0  0  0  0  0  0  0  0  0  0  0  0
  152.7299  138.5402  154.2976 H   0  0  0  0  0  0  0  0  0  0  0  0
  149.3046  139.3325  153.4911 H   0  0  0  0  0  0  0  0  0  0  0  0
  150.6763  138.3502  153.0165 H   0  0  0  0  0  0  0  0  0  0  0  0
  148.9697  136.9613  154.1656 H   0  0  0  0  0  0  0  0  0  0  0  0
  148.9825  138.0222  155.5545 H   0  0  0  0  0  0  0  0  0  0  0  0
  1  2  1  0  0  0  0
  1 18  1  0  0  0  0
  1 19  1  0  0  0  0
  1 20  1  0  0  0  0
  2  3  1  0  0  0  0
  2 12  1  0  0  0  0
  2 21  1  0  0  0  0
  3 22  1  0  0  0  0
  3  4  1  0  0  0  0
  4  6  1  0  0  0  0
  4  5  2  0  0  0  0
  6  7  2  0  0  0  0
  7 11  1  0  0  0  0
  7  8  1  0  0  0  0
  8 23  1  0  0  0  0
  8  9  1  0  0  0  0
  9 24  1  0  0  0  0
  9 10  2  0  0  0  0
 10 25  1  0  0  0  0
 10 11  1  0  0  0  0
 12 17  1  0  0  0  0
 12 13  1  0  0  0  0
 12 26  1  0  0  0  0
 13 14  1  0  0  0  0
 13 27  1  0  0  0  0
 13 28  1  0  0  0  0
 14 15  1  0  0  0  0
 14 29  1  0  0  0  0
 14 30  1  0  0  0  0
 15 16  1  0  0  0  0
 16 17  1  0  0  0  0
 16 31  1  0  0  0  0
 16 32  1  0  0  0  0
 17 33  1  0  0  0  0
 17 34  1  0  0  0  0
M  END
> <s_m_source_file>
AV-unprocessed.smi

> <i_m_source_file_index>
2243

> <i_lp_mmshare_version>
43012

> <i_f3d_flags>
0

> <s_epik_input>
W0NIMl0xW0NIMl1PW0NIMl1bQ0gyXVtDSF0xW0NASF0oW0NIM10pW05IXUMoPU8pW05IXWMybltjSF1bY0hdbzI=

> <s_epik_cmdline>
J2VwaWtfcHl0aG9uJywgJy1waCcsICc3LjAnLCAnLXRuJywgJzgnLCAnLW1hJywgJzIwMCcsICctbWV0YWxfYmluZGluZycsICctaW1hZScsICc8aW5maWxlLm1hZT4nLCAnLW9tYWUnLCAnPG91dGZpbGUubWFlPic=

> <r_lp_tautomer_probability>
0.107061

> <r_epik_Ionization_Penalty>
1.44639

> <r_epik_Ionization_Penalty_Charging>
1.44602

> <r_epik_Ionization_Penalty_Neutral>
0.000368208

> <r_epik_State_Penalty>
2.61815

> <r_epik_Charging_Adjusted_Penalty>
4.06418

> <i_epik_Tot_Q>
0

> <i_epik_Tot_abs_Q>
0

> <r_epik_Metal_State_Penalty>
3.54171

> <b_epik_Metal_Only>
0

> <s_lp_Force_Field>
OPLS_2005

> <r_lp_Energy>
34.9147

> <b_lp_Chiralities_Consistent>
1

> <s_lp_Variant>
AV-unprocessed.smi:2243-7

> <Gold.Version>
5.8.1

> <Gold.Id.Protein>
6NUR|6NUR_protein|mol2

> <Gold.PLP.Fitness>
39.2705

> <Gold.PLP.PLP>
-28.0975

> <Gold.PLP.part.hbond>
-4.0000

> <Gold.PLP.part.metal>
0.0000

> <Gold.PLP.part.buried>
-3.5013

> <Gold.PLP.part.nonpolar>
-20.9731

> <Gold.PLP.part.repulsive>
0.2068

> <Gold.PLP.ligand.clash>
0.0000

> <Gold.PLP.ligand.torsion>
0.0367

> <Gold.PLP.Chemscore.Hbond>
3.7440

> <Gold.PLP.Chemscore.CHOScore>
0.0000

> <Gold.PLP.Chemscore.Metal>
0.0000

> <Gold.Chemscore.Hbonds>
donor molecule, donor type, donor heavy atom, donor atom, acceptor molecule, acceptor atom, score
      P1  H  6896  6907       L1     5  1.00
      P1  H  6931  6943       L1    11  0.25
      P1  H  6934  6947       L1    11  0.83
      P1  H  7989  7998       L1    15  1.00

> <Gold.PLP.Chemscore.Internal.Correction>
0.0144

> <Gold.Rescore>
     Score         DG    S(hbond)    S(metal)    S(lipo)     H(rot)  DE(clash)    DE(int)     intcor
     15.07     -16.47       2.29        0.00      57.55       1.32       0.26       1.14       ----

> <Gold.Chemscore.Fitness>
15.0666

> <Gold.Chemscore.DG>
-16.4693

> <Gold.Chemscore.ZeroCoef>
-5.4800

> <Gold.Chemscore.Hbond>
2.2862

> <Gold.Chemscore.Metal>
0.0000

> <Gold.Chemscore.Lipo>
57.5458

> <Gold.Chemscore.Internal_Hbond>
0.0000

> <Gold.Chemscore.DEClash>
0.2639

> <Gold.Chemscore.DEInternal>
1.1388

> <Gold.Chemscore.Rot>
1.3201

> <Gold.Chemscore.Internal.Correction>
   9.000000E+99

> <Gold.Chemscore.Hbonds>
donor molecule, donor type, donor heavy atom, donor atom, acceptor molecule, acceptor atom, score
      P1  H  6896  6907       L1     5  0.25
      P1  H  6931  6943       L1    11  0.05
      P1  H  6934  6947       L1    11  0.79
      P1  H  7989  7998       L1    15  0.30

> <Gold.Chemscore.Hbond.Weighted>
-7.6358

> <Gold.Chemscore.Metal.Weighted>
-0.0000

> <Gold.Chemscore.Lipo.Weighted>
-6.7329

> <Gold.Chemscore.Internal_Hbond.Weighted>
0.0000

> <Gold.Chemscore.DEClash.Weighted>
0.2639

> <Gold.Chemscore.DEInternal.Weighted>
1.1388

> <Gold.Chemscore.Rot.Weighted>
3.3794

> <Gold.Chemscore.Internal.Correction.Weighted>
   9.000000E+99

> <Gold.Protein.RotatedTorsions>
[ 6907 6896 6895 6894 ] final  -99.96 input  -60.11 | X-H torsion
[ 7974 7965 7964 7962 ] final  -83.32 input  175.53 | X-H torsion
[ 8008 7997 7996 7995 ] final -159.85 input   59.86 | X-H torsion
[ 10167 10162 10161 10158 ] final   73.50 input  -65.29 | X-H torsion
[ 10718 10713 10712 10709 ] final  130.71 input   66.30 | X-H torsion
[ 10763 10752 10751 10750 ] final  -97.30 input  -60.55 | X-H torsion
[ 11005 11000 10999 10996 ] final  -87.75 input  -57.11 | X-H torsion

> <Gold.Protein.ActiveResidues>
 VAL166  LYS551  ARG553  GLY616  TRP617  ASP618  TYR619  PRO620  LYS621  CYS622 
 ASP623  PHE694  ASN695  SER759  ASP760  ASP761  ALA762  ILE779  LEU786  VAL792 
 PHE793  MET794  SER795  GLU796  ALA797  LYS798  CYS799  TRP800  GLU811  SER814 

> <Gold.Protein.RotatedAtoms>
  150.7098  134.0960  159.3948 H   0  0  0  0  0  0  0  0  0  0  0  0  # atno 6907 bound_to 6896
  151.8946  135.0400  160.0510 H   0  0  0  0  0  0  0  0  0  0  0  0  # atno 6908 bound_to 6896
  152.2464  133.5142  159.5336 H   0  0  0  0  0  0  0  0  0  0  0  0  # atno 6909 bound_to 6896
  145.5215  140.9531  143.1652 H   0  0  0  0  0  0  0  0  0  0  0  0  # atno 7974 bound_to 7965
  155.7688  140.0849  157.2118 H   0  0  0  0  0  0  0  0  0  0  0  0  # atno 8008 bound_to 7997
  154.3998  140.1529  156.2974 H   0  0  0  0  0  0  0  0  0  0  0  0  # atno 8009 bound_to 7997
  155.8768  140.3422  155.5862 H   0  0  0  0  0  0  0  0  0  0  0  0  # atno 8010 bound_to 7997
  140.0238  144.5520  150.7561 H   0  0  0  0  0  0  0  0  0  0  0  0  # atno 10167 bound_to 10162
  157.5036  131.1095  150.9392 H   0  0  0  0  0  0  0  0  0  0  0  0  # atno 10718 bound_to 10713
  154.7316  135.5051  153.8973 H   0  0  0  0  0  0  0  0  0  0  0  0  # atno 10763 bound_to 10752
  153.0955  135.6671  153.9779 H   0  0  0  0  0  0  0  0  0  0  0  0  # atno 10764 bound_to 10752
  153.9579  135.3051  155.3414 H   0  0  0  0  0  0  0  0  0  0  0  0  # atno 10765 bound_to 10752
  141.1612  133.7529  156.9352 H   0  0  0  0  0  0  0  0  0  0  0  0  # atno 11005 bound_to 11000
  144.7673  139.6815  143.7209 LP  0  0  0  0  0  0  0  0  0  0  0  0  # atno 17320 bound_to 7965
  146.2103  139.5454  142.9685 LP  0  0  0  0  0  0  0  0  0  0  0  0  # atno 17321 bound_to 7965
  140.7331  143.2713  151.3878 LP  0  0  0  0  0  0  0  0  0  0  0  0  # atno 17342 bound_to 10162
  139.6122  144.1075  152.2310 LP  0  0  0  0  0  0  0  0  0  0  0  0  # atno 17343 bound_to 10162
  157.0055  130.5616  149.5315 LP  0  0  0  0  0  0  0  0  0  0  0  0  # atno 17370 bound_to 10713
  156.0244  130.5339  150.8367 LP  0  0  0  0  0  0  0  0  0  0  0  0  # atno 17371 bound_to 10713
  140.1359  134.9325  157.2401 LP  0  0  0  0  0  0  0  0  0  0  0  0  # atno 17394 bound_to 11000
  140.2896  134.3256  155.7319 LP  0  0  0  0  0  0  0  0  0  0  0  0  # atno 17395 bound_to 11000

$$$$
