AV-unprocessed.smi:862|AV-procd|sdf|3978|dock7
  -GOLD-   22720 1453D 1   1.00000     0.00000
 Structure written by MMmdl.
 44 46  0  0  0  0  0  0  0  0  2 V2000
  143.2888  133.6630  150.6276 N   0  0  0  0  0  0  0  0  0  0  0  0
  143.9386  132.6873  149.9861 C   0  0  0  0  0  0  0  0  0  0  0  0
  143.4558  132.1561  148.9877 O   0  0  0  0  0  0  0  0  0  0  0  0
  145.1577  132.3725  150.4920 N   0  0  0  0  0  0  0  0  0  0  0  0
  145.8387  133.0554  151.6045 C   0  0  0  0  0  0  0  0  0  0  0  0
  145.7469  132.1708  152.8617 C   0  0  0  0  0  0  0  0  0  0  0  0
  146.3402  130.7658  152.6029 C   0  0  0  0  0  0  0  0  0  0  0  0
  146.1094  129.8569  153.7477 N   0  3  0  0  0  0  0  0  0  0  0  0
  146.4808  128.4363  153.5424 C   0  0  2  0  0  0  0  0  0  0  0  0
  146.2959  127.5659  154.7909 C   0  0  0  0  0  0  0  0  0  0  0  0
  147.2263  126.3632  154.5826 C   0  0  0  0  0  0  0  0  0  0  0  0
  148.2178  126.7573  153.4736 C   0  0  0  0  0  0  0  0  0  0  0  0
  147.9575  128.2388  153.1520 C   0  0  2  0  0  0  0  0  0  0  0  0
  148.8716  129.1319  153.8625 N   0  0  0  0  0  0  0  0  0  0  0  0
  149.1644  130.4671  153.5985 C   0  0  0  0  0  0  0  0  0  0  0  0
  150.1107  130.8562  154.5188 C   0  0  0  0  0  0  0  0  0  0  0  0
  150.4262  129.7833  155.3468 N   0  0  0  0  0  0  0  0  0  0  0  0
  149.6550  128.8016  154.8999 C   0  0  0  0  0  0  0  0  0  0  0  0
  145.7469  130.1483  151.3193 C   0  0  0  0  0  0  0  0  0  0  0  0
  145.8452  131.1260  150.1348 C   0  0  0  0  0  0  0  0  0  0  0  0
  142.3810  133.9581  150.2979 H   0  0  0  0  0  0  0  0  0  0  0  0
  143.7095  134.1099  151.4286 H   0  0  0  0  0  0  0  0  0  0  0  0
  146.8842  133.2164  151.3383 H   0  0  0  0  0  0  0  0  0  0  0  0
  145.4415  134.0466  151.8227 H   0  0  0  0  0  0  0  0  0  0  0  0
  146.2669  132.6629  153.6834 H   0  0  0  0  0  0  0  0  0  0  0  0
  144.7023  132.0825  153.1645 H   0  0  0  0  0  0  0  0  0  0  0  0
  147.4146  130.8657  152.4457 H   0  0  0  0  0  0  0  0  0  0  0  0
  146.6250  130.2163  154.5384 H   0  0  0  0  0  0  0  0  0  0  0  0
  145.8747  128.0196  152.7375 H   0  0  0  0  0  0  0  0  0  0  0  0
  146.6007  128.1146  155.6829 H   0  0  0  0  0  0  0  0  0  0  0  0
  145.2597  127.2590  154.9359 H   0  0  0  0  0  0  0  0  0  0  0  0
  147.7431  126.1091  155.5087 H   0  0  0  0  0  0  0  0  0  0  0  0
  146.6572  125.4836  154.2793 H   0  0  0  0  0  0  0  0  0  0  0  0
  149.2536  126.5589  153.7518 H   0  0  0  0  0  0  0  0  0  0  0  0
  148.0126  126.1566  152.5866 H   0  0  0  0  0  0  0  0  0  0  0  0
  148.0924  128.4169  152.0838 H   0  0  0  0  0  0  0  0  0  0  0  0
  148.6900  131.0228  152.8035 H   0  0  0  0  0  0  0  0  0  0  0  0
  150.5891  131.8165  154.6436 H   0  0  0  0  0  0  0  0  0  0  0  0
  149.6674  127.8126  155.3341 H   0  0  0  0  0  0  0  0  0  0  0  0
  146.2657  129.2201  151.0763 H   0  0  0  0  0  0  0  0  0  0  0  0
  144.7004  129.8846  151.4811 H   0  0  0  0  0  0  0  0  0  0  0  0
  145.4375  130.6655  149.2336 H   0  0  0  0  0  0  0  0  0  0  0  0
  146.8908  131.3401  149.9085 H   0  0  0  0  0  0  0  0  0  0  0  0
  145.1256  129.8802  153.9760 H   0  0  0  0  0  0  0  0  0  0  0  0
  1  2  1  0  0  0  0
  1 21  1  0  0  0  0
  1 22  1  0  0  0  0
  2  3  2  0  0  0  0
  2  4  1  0  0  0  0
  4 20  1  0  0  0  0
  4  5  1  0  0  0  0
  5  6  1  0  0  0  0
  5 23  1  0  0  0  0
  5 24  1  0  0  0  0
  6  7  1  0  0  0  0
  6 25  1  0  0  0  0
  6 26  1  0  0  0  0
  7  8  1  0  0  0  0
  7 19  1  0  0  0  0
  7 27  1  0  0  0  0
  8  9  1  0  0  0  0
  8 28  1  0  0  0  0
  8 44  1  0  0  0  0
  9 13  1  0  0  0  0
  9 10  1  0  0  0  0
  9 29  1  0  0  0  0
 10 11  1  0  0  0  0
 10 30  1  0  0  0  0
 10 31  1  0  0  0  0
 11 12  1  0  0  0  0
 11 32  1  0  0  0  0
 11 33  1  0  0  0  0
 12 13  1  0  0  0  0
 12 34  1  0  0  0  0
 12 35  1  0  0  0  0
 13 14  1  0  0  0  0
 13 36  1  0  0  0  0
 14 18  1  0  0  0  0
 14 15  1  0  0  0  0
 15 16  2  0  0  0  0
 15 37  1  0  0  0  0
 16 17  1  0  0  0  0
 16 38  1  0  0  0  0
 17 18  2  0  0  0  0
 18 39  1  0  0  0  0
 19 20  1  0  0  0  0
 19 40  1  0  0  0  0
 19 41  1  0  0  0  0
 20 42  1  0  0  0  0
 20 43  1  0  0  0  0
M  CHG  1   8   1
M  END
> <s_m_source_file>
AV-unprocessed.smi

> <i_m_source_file_index>
862

> <i_lp_mmshare_version>
43012

> <i_f3d_flags>
0

> <s_epik_input>
W05IMl1DKD1PKU4xW0NIMl1bQ0gyXVtDSF0oW0NIMl1bQ0gyXTEpW05IXVtDQEBIXTJbQ0gyXVtDSDJdW0NIMl1bQ0BIXTJuM1tjSF1bY0hdbltjSF0z

> <s_epik_cmdline>
J2VwaWtfcHl0aG9uJywgJy1waCcsICc3LjAnLCAnLXRuJywgJzgnLCAnLW1hJywgJzIwMCcsICctbWV0YWxfYmluZGluZycsICctaW1hZScsICc8aW5maWxlLm1hZT4nLCAnLW9tYWUnLCAnPG91dGZpbGUubWFlPic=

> <r_lp_tautomer_probability>
1

> <r_epik_Ionization_Penalty>
0.0731506

> <r_epik_Ionization_Penalty_Charging>
0.0731

> <r_epik_Ionization_Penalty_Neutral>
5.05966e-05

> <r_epik_State_Penalty>
0.128895

> <r_epik_Charging_Adjusted_Penalty>
0.201995

> <i_epik_Tot_Q>
1

> <i_epik_Tot_abs_Q>
1

> <r_epik_Metal_State_Penalty>
0.113934

> <b_epik_Metal_Only>
0

> <s_lp_Force_Field>
OPLS_2005

> <r_lp_Energy>
57.2527

> <b_lp_Chiralities_Consistent>
1

> <s_lp_Variant>
AV-unprocessed.smi:862-3

> <Gold.Version>
5.8.1

> <Gold.Id.Protein>
6NUR|6NUR_protein|mol2

> <Gold.PLP.Fitness>
45.0464

> <Gold.PLP.PLP>
-31.5612

> <Gold.PLP.part.hbond>
-3.0000

> <Gold.PLP.part.metal>
0.0000

> <Gold.PLP.part.buried>
-6.5243

> <Gold.PLP.part.nonpolar>
-23.2221

> <Gold.PLP.part.repulsive>
0.3147

> <Gold.PLP.ligand.clash>
0.0000

> <Gold.PLP.ligand.torsion>
0.5807

> <Gold.PLP.Chemscore.Hbond>
3.8945

> <Gold.PLP.Chemscore.CHOScore>
0.9670

> <Gold.PLP.Chemscore.Metal>
0.0000

> <Gold.Chemscore.Hbonds>
donor molecule, donor type, donor heavy atom, donor atom, acceptor molecule, acceptor atom, score
      L1  H     1    21       P1 10186  1.00
      L1  H     8    44       P1 10956  1.98
      P1  H 10785 10796       L1     3  0.89
      L1  C    15    37       P1 10747  0.98

> <Gold.PLP.Chemscore.Internal.Correction>
0.0620

> <Gold.Rescore>
     Score         DG    S(hbond)    S(metal)    S(lipo)     H(rot)  DE(clash)    DE(int)     intcor
     17.62     -18.39       2.74        0.00      68.08       1.64       0.27       0.50       ----

> <Gold.Chemscore.Fitness>
17.6208

> <Gold.Chemscore.DG>
-18.3898

> <Gold.Chemscore.ZeroCoef>
-5.4800

> <Gold.Chemscore.Hbond>
2.7382

> <Gold.Chemscore.Metal>
0.0000

> <Gold.Chemscore.Lipo>
68.0827

> <Gold.Chemscore.Internal_Hbond>
0.0000

> <Gold.Chemscore.DEClash>
0.2687

> <Gold.Chemscore.DEInternal>
0.5002

> <Gold.Chemscore.Rot>
1.6411

> <Gold.Chemscore.Internal.Correction>
   9.000000E+99

> <Gold.Chemscore.Hbonds>
donor molecule, donor type, donor heavy atom, donor atom, acceptor molecule, acceptor atom, score
      L1  H     1    21       P1 10186  0.95
      L1  H     8    44       P1 10956  0.37
      P1  H 10785 10796       L1     3  0.81

> <Gold.Chemscore.Hbond.Weighted>
-9.1455

> <Gold.Chemscore.Metal.Weighted>
-0.0000

> <Gold.Chemscore.Lipo.Weighted>
-7.9657

> <Gold.Chemscore.Internal_Hbond.Weighted>
0.0000

> <Gold.Chemscore.DEClash.Weighted>
0.2687

> <Gold.Chemscore.DEInternal.Weighted>
0.5002

> <Gold.Chemscore.Rot.Weighted>
4.2013

> <Gold.Chemscore.Internal.Correction.Weighted>
   9.000000E+99

> <Gold.Protein.RotatedTorsions>
[ 6907 6896 6895 6894 ] final    2.95 input  -60.11 | X-H torsion
[ 7974 7965 7964 7962 ] final  137.55 input  175.53 | X-H torsion
[ 8008 7997 7996 7995 ] final  -63.07 input   59.86 | X-H torsion
[ 10167 10162 10161 10158 ] final   49.46 input  -65.29 | X-H torsion
[ 10718 10713 10712 10709 ] final -176.55 input   66.30 | X-H torsion
[ 10763 10752 10751 10750 ] final  -25.56 input  -60.55 | X-H torsion
[ 11005 11000 10999 10996 ] final   28.14 input  -57.11 | X-H torsion

> <Gold.Protein.ActiveResidues>
 VAL166  LYS551  ARG553  GLY616  TRP617  ASP618  TYR619  PRO620  LYS621  CYS622 
 ASP623  PHE694  ASN695  SER759  ASP760  ASP761  ALA762  ILE779  LEU786  VAL792 
 PHE793  MET794  SER795  GLU796  ALA797  LYS798  CYS799  TRP800  GLU811  SER814 

> <Gold.Protein.RotatedAtoms>
  151.6171  135.1035  160.0093 H   0  0  0  0  0  0  0  0  0  0  0  0  # atno 6907 bound_to 6896
  152.4177  133.7061  159.6463 H   0  0  0  0  0  0  0  0  0  0  0  0  # atno 6908 bound_to 6896
  150.8065  133.8427  159.3224 H   0  0  0  0  0  0  0  0  0  0  0  0  # atno 6909 bound_to 6896
  144.9457  139.4877  143.5550 H   0  0  0  0  0  0  0  0  0  0  0  0  # atno 7974 bound_to 7965
  154.4534  140.0982  156.6686 H   0  0  0  0  0  0  0  0  0  0  0  0  # atno 8008 bound_to 7997
  155.5213  140.3479  155.4389 H   0  0  0  0  0  0  0  0  0  0  0  0  # atno 8009 bound_to 7997
  156.0728  140.1353  156.9796 H   0  0  0  0  0  0  0  0  0  0  0  0  # atno 8010 bound_to 7997
  140.2826  144.3138  150.6260 H   0  0  0  0  0  0  0  0  0  0  0  0  # atno 10167 bound_to 10162
  156.8163  130.9604  151.3114 H   0  0  0  0  0  0  0  0  0  0  0  0  # atno 10718 bound_to 10713
  153.7018  135.6956  153.5061 H   0  0  0  0  0  0  0  0  0  0  0  0  # atno 10763 bound_to 10752
  153.2337  135.4329  155.0622 H   0  0  0  0  0  0  0  0  0  0  0  0  # atno 10764 bound_to 10752
  154.8342  135.3490  154.6557 H   0  0  0  0  0  0  0  0  0  0  0  0  # atno 10765 bound_to 10752
  140.3187  134.2567  155.7721 H   0  0  0  0  0  0  0  0  0  0  0  0  # atno 11005 bound_to 11000
  146.3303  139.8508  142.8873 LP  0  0  0  0  0  0  0  0  0  0  0  0  # atno 17320 bound_to 7965
  145.2921  141.0170  143.3657 LP  0  0  0  0  0  0  0  0  0  0  0  0  # atno 17321 bound_to 7965
  140.5799  143.2173  151.7448 LP  0  0  0  0  0  0  0  0  0  0  0  0  # atno 17342 bound_to 10162
  139.4958  144.4096  152.0095 LP  0  0  0  0  0  0  0  0  0  0  0  0  # atno 17343 bound_to 10162
  157.6480  130.8860  149.9577 LP  0  0  0  0  0  0  0  0  0  0  0  0  # atno 17370 bound_to 10713
  156.1015  130.3655  150.0210 LP  0  0  0  0  0  0  0  0  0  0  0  0  # atno 17371 bound_to 10713
  141.2091  133.7757  157.0015 LP  0  0  0  0  0  0  0  0  0  0  0  0  # atno 17394 bound_to 11000
  140.0960  134.9564  157.1850 LP  0  0  0  0  0  0  0  0  0  0  0  0  # atno 17395 bound_to 11000

$$$$
