AV-unprocessed.smi:72|AV-procd|sdf|680|dock9
  -GOLD-   2262016593D 1   1.00000     0.00000
 Structure written by MMmdl.
 29 30  0  0  0  0  0  0  0  0  1 V2000
  143.8498  138.3261  153.9801 N   0  0  0  0  0  0  0  0  0  0  0  0
  143.9344  137.1018  153.6002 C   0  0  0  0  0  0  0  0  0  0  0  0
  143.8545  135.9831  154.4429 N   0  0  0  0  0  0  0  0  0  0  0  0
  143.9586  134.8009  153.9181 C   0  0  0  0  0  0  0  0  0  0  0  0
  144.1578  134.6010  152.4893 N   0  0  0  0  0  0  0  0  0  0  0  0
  144.2758  133.2189  151.8742 C   0  0  1  0  0  0  0  0  0  0  0  0
  143.5252  133.1621  150.6925 O   0  0  0  0  0  0  0  0  0  0  0  0
  144.3958  133.0036  149.5784 C   0  0  2  0  0  0  0  0  0  0  0  0
  143.6438  132.3999  148.3783 C   0  0  0  0  0  0  0  0  0  0  0  0
  142.8305  133.3524  147.7248 O   0  0  0  0  0  0  0  0  0  0  0  0
  145.5706  132.2048  150.1437 C   0  0  1  0  0  0  0  0  0  0  0  0
  146.7350  132.2819  149.3426 O   0  0  0  0  0  0  0  0  0  0  0  0
  145.7350  132.8255  151.5281 C   0  0  1  0  0  0  0  0  0  0  0  0
  146.6325  133.9262  151.5223 O   0  0  0  0  0  0  0  0  0  0  0  0
  144.2288  135.7208  151.6254 C   0  0  0  0  0  0  0  0  0  0  0  0
  144.3724  135.6055  150.4085 O   0  0  0  0  0  0  0  0  0  0  0  0
  144.1201  136.9269  152.2230 N   0  0  0  0  0  0  0  0  0  0  0  0
  143.8072  132.5366  152.5855 H   0  0  0  0  0  0  0  0  0  0  0  0
  144.7438  134.0003  149.3013 H   0  0  0  0  0  0  0  0  0  0  0  0
  145.2950  131.1568  150.2653 H   0  0  0  0  0  0  0  0  0  0  0  0
  146.0976  132.0944  152.2513 H   0  0  0  0  0  0  0  0  0  0  0  0
  143.9367  138.9423  153.1845 H   0  0  0  0  0  0  0  0  0  0  0  0
  143.9007  133.8909  154.5152 H   0  0  0  0  0  0  0  0  0  0  0  0
  144.3455  131.9662  147.6655 H   0  0  0  0  0  0  0  0  0  0  0  0
  142.9975  131.5915  148.7205 H   0  0  0  0  0  0  0  0  0  0  0  0
  142.5196  132.9776  146.9147 H   0  0  0  0  0  0  0  0  0  0  0  0
  147.4081  131.7519  149.7410 H   0  0  0  0  0  0  0  0  0  0  0  0
  146.9824  134.0216  150.6497 H   0  0  0  0  0  0  0  0  0  0  0  0
  144.1703  137.7473  151.6368 H   0  0  0  0  0  0  0  0  0  0  0  0
  1  2  2  0  0  0  0
  1 22  1  0  0  0  0
  2 17  1  0  0  0  0
  2  3  1  0  0  0  0
  3  4  2  0  0  0  0
  4  5  1  0  0  0  0
  4 23  1  0  0  0  0
  5  6  1  0  0  0  0
  5 15  1  0  0  0  0
  6 18  1  0  0  0  0
  6 13  1  0  0  0  0
  6  7  1  0  0  0  0
  7  8  1  0  0  0  0
  8 19  1  0  0  0  0
  8  9  1  0  0  0  0
  8 11  1  0  0  0  0
  9 10  1  0  0  0  0
  9 24  1  0  0  0  0
  9 25  1  0  0  0  0
 10 26  1  0  0  0  0
 11 20  1  0  0  0  0
 11 12  1  0  0  0  0
 11 13  1  0  0  0  0
 12 27  1  0  0  0  0
 13 21  1  0  0  0  0
 13 14  1  0  0  0  0
 14 28  1  0  0  0  0
 15 16  2  0  0  0  0
 15 17  1  0  0  0  0
 17 29  1  0  0  0  0
M  END
> <s_m_source_file>
AV-unprocessed.smi

> <i_m_source_file_index>
72

> <i_lp_mmshare_version>
43012

> <i_f3d_flags>
0

> <s_epik_input>
W05IMl1jMW5bY0hdbihjKD1PKW4xKVtDQEBIXTJPW0NASF0oW0NIMl1bT0hdKVtDQEBIXShbT0hdKVtDQEhdMltPSF0=

> <s_epik_cmdline>
J2VwaWtfcHl0aG9uJywgJy1waCcsICc3LjAnLCAnLXRuJywgJzgnLCAnLW1hJywgJzIwMCcsICctbWV0YWxfYmluZGluZycsICctaW1hZScsICc8aW5maWxlLm1hZT4nLCAnLW9tYWUnLCAnPG91dGZpbGUubWFlPic=

> <r_lp_tautomer_probability>
7.17554e-07

> <r_epik_Ionization_Penalty>
0.0066451

> <r_epik_Ionization_Penalty_Charging>
0.00663793

> <r_epik_Ionization_Penalty_Neutral>
7.17052e-06

> <r_epik_State_Penalty>
0.419231

> <r_epik_Charging_Adjusted_Penalty>
0.425868

> <i_epik_Tot_Q>
0

> <i_epik_Tot_abs_Q>
0

> <r_epik_Metal_State_Penalty>
1.44144

> <b_epik_Metal_Only>
0

> <s_epik_Chemistry_Notes>
This compound contains an acetal/aminal-like group ( X-CH(R)-Y where X, Y are N, S, or O) that may be acid/base labile, releasing an aldehyde.

> <s_lp_Force_Field>
OPLS_2005

> <r_lp_Energy>
48.597

> <b_lp_Chiralities_Consistent>
1

> <s_lp_Variant>
AV-unprocessed.smi:72-18

> <Gold.Version>
5.8.1

> <Gold.Id.Protein>
6NUR|6NUR_protein|mol2

> <Gold.PLP.Fitness>
40.3509

> <Gold.PLP.PLP>
-26.2564

> <Gold.PLP.part.hbond>
-7.8351

> <Gold.PLP.part.metal>
0.0000

> <Gold.PLP.part.buried>
-3.2621

> <Gold.PLP.part.nonpolar>
-17.2877

> <Gold.PLP.part.repulsive>
1.4346

> <Gold.PLP.ligand.clash>
0.6802

> <Gold.PLP.ligand.torsion>
0.5942

> <Gold.PLP.Chemscore.Hbond>
4.3050

> <Gold.PLP.Chemscore.CHOScore>
1.0000

> <Gold.PLP.Chemscore.Metal>
0.0000

> <Gold.Chemscore.Hbonds>
donor molecule, donor type, donor heavy atom, donor atom, acceptor molecule, acceptor atom, score
      L1  H     1    22       P1 10175  0.99
      L1  H    10    26       P1 10195  0.96
      L1  H    12    27       P1 10747  1.00
      L1  H    17    29       P1 10171  0.96
      P1  H 10192 10197       L1    10  0.38
      L1  C     4    23       P1 10957  1.00

> <Gold.PLP.Chemscore.Internal.Correction>
0.0482

> <Gold.Rescore>
     Score         DG    S(hbond)    S(metal)    S(lipo)     H(rot)  DE(clash)    DE(int)     intcor
      6.96     -12.03       3.69        0.00      39.56       4.06       0.35       4.72       ----

> <Gold.Chemscore.Fitness>
6.9637

> <Gold.Chemscore.DG>
-12.0342

> <Gold.Chemscore.ZeroCoef>
-5.4800

> <Gold.Chemscore.Hbond>
3.6886

> <Gold.Chemscore.Metal>
0.0000

> <Gold.Chemscore.Lipo>
39.5554

> <Gold.Chemscore.Internal_Hbond>
0.0000

> <Gold.Chemscore.DEClash>
0.3464

> <Gold.Chemscore.DEInternal>
4.7241

> <Gold.Chemscore.Rot>
4.0600

> <Gold.Chemscore.Internal.Correction>
   9.000000E+99

> <Gold.Chemscore.Hbonds>
donor molecule, donor type, donor heavy atom, donor atom, acceptor molecule, acceptor atom, score
      L1  H     1    22       P1 10175  0.93
      L1  H    10    26       P1 10195  0.89
      L1  H    12    27       P1 10747  1.00
      L1  H    17    29       P1 10171  0.86
      P1  H 10192 10197       L1    10  0.01

> <Gold.Chemscore.Hbond.Weighted>
-12.3198

> <Gold.Chemscore.Metal.Weighted>
-0.0000

> <Gold.Chemscore.Lipo.Weighted>
-4.6280

> <Gold.Chemscore.Internal_Hbond.Weighted>
0.0000

> <Gold.Chemscore.DEClash.Weighted>
0.3464

> <Gold.Chemscore.DEInternal.Weighted>
4.7241

> <Gold.Chemscore.Rot.Weighted>
10.3936

> <Gold.Chemscore.Internal.Correction.Weighted>
   9.000000E+99

> <Gold.Protein.RotatedTorsions>
[ 6907 6896 6895 6894 ] final  -51.02 input  -60.11 | X-H torsion
[ 7974 7965 7964 7962 ] final   65.65 input  175.53 | X-H torsion
[ 8008 7997 7996 7995 ] final   90.54 input   59.86 | X-H torsion
[ 10167 10162 10161 10158 ] final   26.46 input  -65.29 | X-H torsion
[ 10718 10713 10712 10709 ] final  -74.02 input   66.30 | X-H torsion
[ 10763 10752 10751 10750 ] final  150.44 input  -60.55 | X-H torsion
[ 11005 11000 10999 10996 ] final -163.33 input  -57.11 | X-H torsion

> <Gold.Protein.ActiveResidues>
 VAL166  LYS551  ARG553  GLY616  TRP617  ASP618  TYR619  PRO620  LYS621  CYS622 
 ASP623  PHE694  ASN695  SER759  ASP760  ASP761  ALA762  ILE779  LEU786  VAL792 
 PHE793  MET794  SER795  GLU796  ALA797  LYS798  CYS799  TRP800  GLU811  SER814 

> <Gold.Protein.RotatedAtoms>
  150.8652  134.8013  159.7112 H   0  0  0  0  0  0  0  0  0  0  0  0  # atno 6907 bound_to 6896
  152.4675  134.5036  159.9742 H   0  0  0  0  0  0  0  0  0  0  0  0  # atno 6908 bound_to 6896
  151.5133  133.3442  159.2924 H   0  0  0  0  0  0  0  0  0  0  0  0  # atno 6909 bound_to 6896
  145.8359  139.3166  143.0960 H   0  0  0  0  0  0  0  0  0  0  0  0  # atno 7974 bound_to 7965
  156.0132  140.3348  155.6962 H   0  0  0  0  0  0  0  0  0  0  0  0  # atno 8008 bound_to 7997
  155.6128  140.0667  157.2719 H   0  0  0  0  0  0  0  0  0  0  0  0  # atno 8009 bound_to 7997
  154.4289  140.1790  156.1278 H   0  0  0  0  0  0  0  0  0  0  0  0  # atno 8010 bound_to 7997
  140.5021  144.0298  150.6337 H   0  0  0  0  0  0  0  0  0  0  0  0  # atno 10167 bound_to 10162
  156.0258  130.4407  150.2830 H   0  0  0  0  0  0  0  0  0  0  0  0  # atno 10718 bound_to 10713
  154.0875  135.2855  155.3278 H   0  0  0  0  0  0  0  0  0  0  0  0  # atno 10763 bound_to 10752
  154.6642  135.5323  153.8060 H   0  0  0  0  0  0  0  0  0  0  0  0  # atno 10764 bound_to 10752
  153.0426  135.6541  154.1046 H   0  0  0  0  0  0  0  0  0  0  0  0  # atno 10765 bound_to 10752
  140.5993  134.4964  157.5203 H   0  0  0  0  0  0  0  0  0  0  0  0  # atno 11005 bound_to 11000
  145.9519  140.8902  143.0255 LP  0  0  0  0  0  0  0  0  0  0  0  0  # atno 17320 bound_to 7965
  144.6736  140.1692  143.7416 LP  0  0  0  0  0  0  0  0  0  0  0  0  # atno 17321 bound_to 7965
  140.3597  143.2915  152.0397 LP  0  0  0  0  0  0  0  0  0  0  0  0  # atno 17342 bound_to 10162
  139.4874  144.6312  151.7066 LP  0  0  0  0  0  0  0  0  0  0  0  0  # atno 17343 bound_to 10162
  157.0934  131.0176  151.3113 LP  0  0  0  0  0  0  0  0  0  0  0  0  # atno 17370 bound_to 10713
  157.4837  130.7780  149.7439 LP  0  0  0  0  0  0  0  0  0  0  0  0  # atno 17371 bound_to 10713
  139.9240  134.8093  156.1126 LP  0  0  0  0  0  0  0  0  0  0  0  0  # atno 17394 bound_to 11000
  141.0883  133.6725  156.2485 LP  0  0  0  0  0  0  0  0  0  0  0  0  # atno 17395 bound_to 11000

$$$$
