AV-unprocessed.smi:2751|AV-procd|sdf|10601|dock10
  -GOLD-   2272015 53D 1   1.00000     0.00000
 Structure written by MMmdl.
 34 35  0  0  0  0  0  0  0  0  1 V2000
  150.8319  140.2989  154.8145 O   0  0  0  0  0  0  0  0  0  0  0  0
  150.2602  141.3824  154.6563 C   0  0  0  0  0  0  0  0  0  0  0  0
  150.5181  142.4328  155.4499 N   0  0  0  0  0  0  0  0  0  0  0  0
  151.4704  142.4464  156.5551 C   0  0  0  0  0  0  0  0  0  0  0  0
  150.8416  143.0138  157.8394 C   0  0  0  0  0  0  0  0  0  0  0  0
  151.8590  143.1796  158.9794 C   0  0  2  0  0  0  0  0  0  0  0  0
  152.4480  141.8274  159.4272 C   0  0  0  0  0  0  0  0  0  0  0  0
  153.3978  142.0183  160.6154 C   0  0  0  0  0  0  0  0  0  0  0  0
  152.6836  142.7921  161.7283 C   0  0  0  0  0  0  0  0  0  0  0  0
  152.0792  144.0907  161.1715 C   0  0  0  0  0  0  0  0  0  0  0  0
  151.2034  143.7923  160.0885 O   0  0  0  0  0  0  0  0  0  0  0  0
  149.3148  141.7286  153.7010 N   0  0  0  0  0  0  0  0  0  0  0  0
  148.6375  140.8049  153.0898 C   0  0  0  0  0  0  0  0  0  0  0  0
  148.6384  139.4149  153.1717 N   0  0  0  0  0  0  0  0  0  0  0  0
  147.7159  138.9346  152.2849 C   0  0  0  0  0  0  0  0  0  0  0  0
  147.1560  139.9725  151.6708 C   0  0  0  0  0  0  0  0  0  0  0  0
  147.6991  141.1297  152.1428 O   0  0  0  0  0  0  0  0  0  0  0  0
  150.0186  143.2919  155.2698 H   0  0  0  0  0  0  0  0  0  0  0  0
  151.8587  141.4414  156.7292 H   0  0  0  0  0  0  0  0  0  0  0  0
  152.3217  143.0578  156.2553 H   0  0  0  0  0  0  0  0  0  0  0  0
  150.3704  143.9743  157.6264 H   0  0  0  0  0  0  0  0  0  0  0  0
  150.0438  142.3484  158.1716 H   0  0  0  0  0  0  0  0  0  0  0  0
  152.6670  143.8286  158.6365 H   0  0  0  0  0  0  0  0  0  0  0  0
  151.6415  141.1503  159.7115 H   0  0  0  0  0  0  0  0  0  0  0  0
  152.9781  141.3524  158.6013 H   0  0  0  0  0  0  0  0  0  0  0  0
  153.7452  141.0532  160.9846 H   0  0  0  0  0  0  0  0  0  0  0  0
  154.2823  142.5694  160.2937 H   0  0  0  0  0  0  0  0  0  0  0  0
  151.8911  142.1749  162.1532 H   0  0  0  0  0  0  0  0  0  0  0  0
  153.3774  143.0144  162.5395 H   0  0  0  0  0  0  0  0  0  0  0  0
  151.5144  144.6049  161.9494 H   0  0  0  0  0  0  0  0  0  0  0  0
  152.8625  144.7752  160.8420 H   0  0  0  0  0  0  0  0  0  0  0  0
  149.2036  138.8245  153.7652 H   0  0  0  0  0  0  0  0  0  0  0  0
  147.5546  137.8713  152.1854 H   0  0  0  0  0  0  0  0  0  0  0  0
  146.3937  140.0506  150.9098 H   0  0  0  0  0  0  0  0  0  0  0  0
  1  2  2  0  0  0  0
  2 12  1  0  0  0  0
  2  3  1  0  0  0  0
  3  4  1  0  0  0  0
  3 18  1  0  0  0  0
  4  5  1  0  0  0  0
  4 19  1  0  0  0  0
  4 20  1  0  0  0  0
  5  6  1  0  0  0  0
  5 21  1  0  0  0  0
  5 22  1  0  0  0  0
  6 11  1  0  0  0  0
  6  7  1  0  0  0  0
  6 23  1  0  0  0  0
  7  8  1  0  0  0  0
  7 24  1  0  0  0  0
  7 25  1  0  0  0  0
  8  9  1  0  0  0  0
  8 26  1  0  0  0  0
  8 27  1  0  0  0  0
  9 10  1  0  0  0  0
  9 28  1  0  0  0  0
  9 29  1  0  0  0  0
 10 11  1  0  0  0  0
 10 30  1  0  0  0  0
 10 31  1  0  0  0  0
 12 13  2  0  0  0  0
 13 17  1  0  0  0  0
 13 14  1  0  0  0  0
 14 32  1  0  0  0  0
 14 15  1  0  0  0  0
 15 33  1  0  0  0  0
 15 16  2  0  0  0  0
 16 34  1  0  0  0  0
 16 17  1  0  0  0  0
M  END
> <s_m_source_file>
AV-unprocessed.smi

> <i_m_source_file_index>
2751

> <i_lp_mmshare_version>
43012

> <i_f3d_flags>
0

> <s_epik_input>
bzFbY0hdW2NIXW5jMVtOSF1DKD1PKVtOSF1bQ0gyXVtDSDJdW0NAQEhdMltDSDJdW0NIMl1bQ0gyXVtDSDJdTzI=

> <s_epik_cmdline>
J2VwaWtfcHl0aG9uJywgJy1waCcsICc3LjAnLCAnLXRuJywgJzgnLCAnLW1hJywgJzIwMCcsICctbWV0YWxfYmluZGluZycsICctaW1hZScsICc8aW5maWxlLm1hZT4nLCAnLW9tYWUnLCAnPG91dGZpbGUubWFlPic=

> <r_lp_tautomer_probability>
0.107061

> <r_epik_Ionization_Penalty>
1.421

> <r_epik_Ionization_Penalty_Charging>
1.42064

> <r_epik_Ionization_Penalty_Neutral>
0.0003614

> <r_epik_State_Penalty>
2.61489

> <r_epik_Charging_Adjusted_Penalty>
4.03553

> <i_epik_Tot_Q>
0

> <i_epik_Tot_abs_Q>
0

> <r_epik_Metal_State_Penalty>
3.57288

> <b_epik_Metal_Only>
0

> <s_lp_Force_Field>
OPLS_2005

> <r_lp_Energy>
32.5826

> <b_lp_Chiralities_Consistent>
1

> <s_lp_Variant>
AV-unprocessed.smi:2751-7

> <Gold.Version>
5.8.1

> <Gold.Id.Protein>
6NUR|6NUR_protein|mol2

> <Gold.PLP.Fitness>
47.2380

> <Gold.PLP.PLP>
-34.8826

> <Gold.PLP.part.hbond>
-4.7083

> <Gold.PLP.part.metal>
0.0000

> <Gold.PLP.part.buried>
1.4881

> <Gold.PLP.part.nonpolar>
-31.4624

> <Gold.PLP.part.repulsive>
0.7234

> <Gold.PLP.ligand.clash>
0.0000

> <Gold.PLP.ligand.torsion>
0.1543

> <Gold.PLP.Chemscore.Hbond>
2.0473

> <Gold.PLP.Chemscore.CHOScore>
2.1686

> <Gold.PLP.Chemscore.Metal>
0.0000

> <Gold.Chemscore.Hbonds>
donor molecule, donor type, donor heavy atom, donor atom, acceptor molecule, acceptor atom, score
      L1  H     3    18       P1  8028  1.00
      P1  H  8011  8017       L1    12  0.46
      L1  C    15    33       P1  7948  1.00

> <Gold.PLP.Chemscore.Internal.Correction>
0.0161

> <Gold.Rescore>
     Score         DG    S(hbond)    S(metal)    S(lipo)     H(rot)  DE(clash)    DE(int)     intcor
     12.86     -14.81       0.99        0.00      87.14       1.63       1.89       0.06       ----

> <Gold.Chemscore.Fitness>
12.8626

> <Gold.Chemscore.DG>
-14.8130

> <Gold.Chemscore.ZeroCoef>
-5.4800

> <Gold.Chemscore.Hbond>
0.9932

> <Gold.Chemscore.Metal>
0.0000

> <Gold.Chemscore.Lipo>
87.1423

> <Gold.Chemscore.Internal_Hbond>
0.0000

> <Gold.Chemscore.DEClash>
1.8917

> <Gold.Chemscore.DEInternal>
0.0588

> <Gold.Chemscore.Rot>
1.6328

> <Gold.Chemscore.Internal.Correction>
   9.000000E+99

> <Gold.Chemscore.Hbonds>
donor molecule, donor type, donor heavy atom, donor atom, acceptor molecule, acceptor atom, score
      L1  H     3    18       P1  8028  0.99
      P1  H  8011  8017       L1    12  0.05

> <Gold.Chemscore.Hbond.Weighted>
-3.3173

> <Gold.Chemscore.Metal.Weighted>
-0.0000

> <Gold.Chemscore.Lipo.Weighted>
-10.1956

> <Gold.Chemscore.Internal_Hbond.Weighted>
0.0000

> <Gold.Chemscore.DEClash.Weighted>
1.8917

> <Gold.Chemscore.DEInternal.Weighted>
0.0588

> <Gold.Chemscore.Rot.Weighted>
4.1799

> <Gold.Chemscore.Internal.Correction.Weighted>
   9.000000E+99

> <Gold.Protein.RotatedTorsions>
[ 6907 6896 6895 6894 ] final  -72.61 input  -60.11 | X-H torsion
[ 7974 7965 7964 7962 ] final   14.39 input  175.53 | X-H torsion
[ 8008 7997 7996 7995 ] final -129.73 input   59.86 | X-H torsion
[ 10167 10162 10161 10158 ] final  149.75 input  -65.29 | X-H torsion
[ 10718 10713 10712 10709 ] final   64.84 input   66.30 | X-H torsion
[ 10763 10752 10751 10750 ] final  -28.36 input  -60.55 | X-H torsion
[ 11005 11000 10999 10996 ] final  -80.72 input  -57.11 | X-H torsion

> <Gold.Protein.ActiveResidues>
 VAL166  LYS551  ARG553  GLY616  TRP617  ASP618  TYR619  PRO620  LYS621  CYS622 
 ASP623  PHE694  ASN695  SER759  ASP760  ASP761  ALA762  ILE779  LEU786  VAL792 
 PHE793  MET794  SER795  GLU796  ALA797  LYS798  CYS799  TRP800  GLU811  SER814 

> <Gold.Protein.RotatedAtoms>
  150.7163  134.5137  159.5619 H   0  0  0  0  0  0  0  0  0  0  0  0  # atno 6907 bound_to 6896
  152.2708  134.7932  160.0423 H   0  0  0  0  0  0  0  0  0  0  0  0  # atno 6908 bound_to 6896
  151.8612  133.3422  159.3741 H   0  0  0  0  0  0  0  0  0  0  0  0  # atno 6909 bound_to 6896
  146.2306  139.9048  142.8533 H   0  0  0  0  0  0  0  0  0  0  0  0  # atno 7974 bound_to 7965
  155.2840  140.0445  157.3018 H   0  0  0  0  0  0  0  0  0  0  0  0  # atno 8008 bound_to 7997
  154.5580  140.2337  155.8348 H   0  0  0  0  0  0  0  0  0  0  0  0  # atno 8009 bound_to 7997
  156.2023  140.3022  155.9561 H   0  0  0  0  0  0  0  0  0  0  0  0  # atno 8010 bound_to 7997
  139.4858  144.5577  151.7288 H   0  0  0  0  0  0  0  0  0  0  0  0  # atno 10167 bound_to 10162
  157.6066  130.9181  149.9898 H   0  0  0  0  0  0  0  0  0  0  0  0  # atno 10718 bound_to 10713
  153.7470  135.6928  153.4954 H   0  0  0  0  0  0  0  0  0  0  0  0  # atno 10763 bound_to 10752
  153.2029  135.4430  155.0287 H   0  0  0  0  0  0  0  0  0  0  0  0  # atno 10764 bound_to 10752
  154.8201  135.3417  154.6993 H   0  0  0  0  0  0  0  0  0  0  0  0  # atno 10765 bound_to 10752
  141.1667  133.7163  156.8315 H   0  0  0  0  0  0  0  0  0  0  0  0  # atno 11005 bound_to 11000
  145.2288  140.9964  143.4003 LP  0  0  0  0  0  0  0  0  0  0  0  0  # atno 17320 bound_to 7965
  144.9548  139.4043  143.6385 LP  0  0  0  0  0  0  0  0  0  0  0  0  # atno 17321 bound_to 7965
  140.5141  144.0980  150.6003 LP  0  0  0  0  0  0  0  0  0  0  0  0  # atno 17342 bound_to 10162
  140.3915  143.2750  152.0054 LP  0  0  0  0  0  0  0  0  0  0  0  0  # atno 17343 bound_to 10162
  156.1154  130.3648  149.9977 LP  0  0  0  0  0  0  0  0  0  0  0  0  # atno 17370 bound_to 10713
  156.8067  130.9310  151.3645 LP  0  0  0  0  0  0  0  0  0  0  0  0  # atno 17371 bound_to 10713
  140.2047  134.8871  157.3209 LP  0  0  0  0  0  0  0  0  0  0  0  0  # atno 17394 bound_to 11000
  140.2149  134.4093  155.7594 LP  0  0  0  0  0  0  0  0  0  0  0  0  # atno 17395 bound_to 11000

$$$$
