AV-unprocessed.smi:2806|AV-procd|sdf|10815|dock3
  -GOLD-   2272015253D 1   1.00000     0.00000
 Structure written by MMmdl.
 47 48  0  0  0  0  0  0  0  0  1 V2000
  152.8682  144.5594  158.1993 C   0  0  0  0  0  0  0  0  0  0  0  0
  151.8702  144.1759  159.3052 C   0  0  0  0  0  0  0  0  0  0  0  0
  152.6498  143.9405  160.6109 C   0  0  0  0  0  0  0  0  0  0  0  0
  150.8650  145.3278  159.4882 C   0  0  0  0  0  0  0  0  0  0  0  0
  151.0038  142.6582  158.7636 S   0  0  0  0  0  0  0  0  0  0  0  0
  152.2718  141.3492  158.7305 C   0  0  0  0  0  0  0  0  0  0  0  0
  152.1639  140.4077  157.5301 C   0  0  0  0  0  0  0  0  0  0  0  0
  152.8626  139.3960  157.4671 O   0  0  0  0  0  0  0  0  0  0  0  0
  151.2710  140.7455  156.5875 N   0  0  0  0  0  0  0  0  0  0  0  0
  150.9677  139.9436  155.4086 C   0  0  0  0  0  0  0  0  0  0  0  0
  149.5734  140.2047  154.8657 C   0  0  0  0  0  0  0  0  0  0  0  0
  149.0963  141.5210  154.7149 C   0  0  0  0  0  0  0  0  0  0  0  0
  147.7982  141.7051  154.2050 C   0  0  0  0  0  0  0  0  0  0  0  0
  146.9885  140.6837  153.8553 N   0  0  0  0  0  0  0  0  0  0  0  0
  147.4383  139.4116  153.9929 C   0  0  0  0  0  0  0  0  0  0  0  0
  146.5771  138.3545  153.6269 N   0  0  0  0  0  0  0  0  0  0  0  0
  145.4401  138.0604  154.4974 C   0  0  0  0  0  0  0  0  0  0  0  0
  144.8088  136.7110  154.1153 C   0  0  0  0  0  0  0  0  0  0  0  0
  144.4585  136.7181  152.7353 O   0  0  0  0  0  0  0  0  0  0  0  0
  145.5973  136.8988  151.9002 C   0  0  0  0  0  0  0  0  0  0  0  0
  146.2561  138.2546  152.2057 C   0  0  0  0  0  0  0  0  0  0  0  0
  148.7301  139.1343  154.5006 C   0  0  0  0  0  0  0  0  0  0  0  0
  153.4176  145.4668  158.4529 H   0  0  0  0  0  0  0  0  0  0  0  0
  152.3603  144.7383  157.2508 H   0  0  0  0  0  0  0  0  0  0  0  0
  153.6004  143.7678  158.0355 H   0  0  0  0  0  0  0  0  0  0  0  0
  153.2886  143.0590  160.5436 H   0  0  0  0  0  0  0  0  0  0  0  0
  151.9831  143.8085  161.4617 H   0  0  0  0  0  0  0  0  0  0  0  0
  153.2899  144.7918  160.8420 H   0  0  0  0  0  0  0  0  0  0  0  0
  151.3777  146.2645  159.7098 H   0  0  0  0  0  0  0  0  0  0  0  0
  150.1740  145.1425  160.3093 H   0  0  0  0  0  0  0  0  0  0  0  0
  150.2730  145.4836  158.5857 H   0  0  0  0  0  0  0  0  0  0  0  0
  153.2681  141.7836  158.7977 H   0  0  0  0  0  0  0  0  0  0  0  0
  152.1403  140.7439  159.6275 H   0  0  0  0  0  0  0  0  0  0  0  0
  150.7387  141.5939  156.7147 H   0  0  0  0  0  0  0  0  0  0  0  0
  151.6923  140.1888  154.6319 H   0  0  0  0  0  0  0  0  0  0  0  0
  151.0996  138.8830  155.6295 H   0  0  0  0  0  0  0  0  0  0  0  0
  149.7076  142.3713  154.9787 H   0  0  0  0  0  0  0  0  0  0  0  0
  147.3978  142.6998  154.0756 H   0  0  0  0  0  0  0  0  0  0  0  0
  145.7597  138.0265  155.5398 H   0  0  0  0  0  0  0  0  0  0  0  0
  144.7008  138.8575  154.4076 H   0  0  0  0  0  0  0  0  0  0  0  0
  145.4947  135.8881  154.3233 H   0  0  0  0  0  0  0  0  0  0  0  0
  143.9117  136.5351  154.7090 H   0  0  0  0  0  0  0  0  0  0  0  0
  146.3045  136.0807  152.0476 H   0  0  0  0  0  0  0  0  0  0  0  0
  145.2815  136.8623  150.8574 H   0  0  0  0  0  0  0  0  0  0  0  0
  145.5723  139.0634  151.9461 H   0  0  0  0  0  0  0  0  0  0  0  0
  147.1395  138.3708  151.5798 H   0  0  0  0  0  0  0  0  0  0  0  0
  149.0745  138.1186  154.6260 H   0  0  0  0  0  0  0  0  0  0  0  0
  1  2  1  0  0  0  0
  1 23  1  0  0  0  0
  1 24  1  0  0  0  0
  1 25  1  0  0  0  0
  2  3  1  0  0  0  0
  2  4  1  0  0  0  0
  2  5  1  0  0  0  0
  3 26  1  0  0  0  0
  3 27  1  0  0  0  0
  3 28  1  0  0  0  0
  4 29  1  0  0  0  0
  4 30  1  0  0  0  0
  4 31  1  0  0  0  0
  5  6  1  0  0  0  0
  6  7  1  0  0  0  0
  6 32  1  0  0  0  0
  6 33  1  0  0  0  0
  7  8  2  0  0  0  0
  7  9  1  0  0  0  0
  9 10  1  0  0  0  0
  9 34  1  0  0  0  0
 10 11  1  0  0  0  0
 10 35  1  0  0  0  0
 10 36  1  0  0  0  0
 11 22  1  0  0  0  0
 11 12  2  0  0  0  0
 12 13  1  0  0  0  0
 12 37  1  0  0  0  0
 13 14  2  0  0  0  0
 13 38  1  0  0  0  0
 14 15  1  0  0  0  0
 15 16  1  0  0  0  0
 15 22  2  0  0  0  0
 16 21  1  0  0  0  0
 16 17  1  0  0  0  0
 17 18  1  0  0  0  0
 17 39  1  0  0  0  0
 17 40  1  0  0  0  0
 18 19  1  0  0  0  0
 18 41  1  0  0  0  0
 18 42  1  0  0  0  0
 19 20  1  0  0  0  0
 20 21  1  0  0  0  0
 20 43  1  0  0  0  0
 20 44  1  0  0  0  0
 21 45  1  0  0  0  0
 21 46  1  0  0  0  0
 22 47  1  0  0  0  0
M  END
> <s_m_source_file>
AV-unprocessed.smi

> <i_m_source_file_index>
2806

> <i_lp_mmshare_version>
43012

> <i_f3d_flags>
0

> <s_epik_input>
W0NIM11DKFtDSDNdKShbQ0gzXSlTW0NIMl1DKD1PKVtOSF1bQ0gyXWMxW2NIXVtjSF1uYyhbY0hdMSlOMltDSDJdW0NIMl1PW0NIMl1bQ0gyXTI=

> <s_epik_cmdline>
J2VwaWtfcHl0aG9uJywgJy1waCcsICc3LjAnLCAnLXRuJywgJzgnLCAnLW1hJywgJzIwMCcsICctbWV0YWxfYmluZGluZycsICctaW1hZScsICc8aW5maWxlLm1hZT4nLCAnLW9tYWUnLCAnPG91dGZpbGUubWFlPic=

> <r_lp_tautomer_probability>
1

> <r_epik_Ionization_Penalty>
0.00423361

> <r_epik_Ionization_Penalty_Charging>
0

> <r_epik_Ionization_Penalty_Neutral>
0.00423361

> <r_epik_State_Penalty>
0.00304279

> <r_epik_Charging_Adjusted_Penalty>
0.00304279

> <i_epik_Tot_Q>
0

> <i_epik_Tot_abs_Q>
0

> <r_epik_Metal_State_Penalty>
-0

> <b_epik_Metal_Only>
0

> <s_lp_Force_Field>
OPLS_2005

> <r_lp_Energy>
13.38

> <b_lp_Chiralities_Consistent>
1

> <s_lp_Variant>
AV-unprocessed.smi:2806-1

> <Gold.Version>
5.8.1

> <Gold.Id.Protein>
6NUR|6NUR_protein|mol2

> <Gold.PLP.Fitness>
45.4776

> <Gold.PLP.PLP>
-43.4441

> <Gold.PLP.part.hbond>
-1.0000

> <Gold.PLP.part.metal>
0.0000

> <Gold.PLP.part.buried>
-1.7983

> <Gold.PLP.part.nonpolar>
-41.5728

> <Gold.PLP.part.repulsive>
0.6960

> <Gold.PLP.ligand.clash>
0.0000

> <Gold.PLP.ligand.torsion>
0.9153

> <Gold.PLP.Chemscore.Hbond>
1.0000

> <Gold.PLP.Chemscore.CHOScore>
0.1525

> <Gold.PLP.Chemscore.Metal>
0.0000

> <Gold.Chemscore.Hbonds>
donor molecule, donor type, donor heavy atom, donor atom, acceptor molecule, acceptor atom, score
      P1  H  7997  8008       L1     8  1.00
      L1  C    13    38       P1  8028  0.01

> <Gold.PLP.Chemscore.Internal.Correction>
0.4067

> <Gold.Rescore>
     Score         DG    S(hbond)    S(metal)    S(lipo)     H(rot)  DE(clash)    DE(int)     intcor
     17.30     -18.23       0.91        0.00     120.96       1.73       0.10       0.82       ----

> <Gold.Chemscore.Fitness>
17.3016

> <Gold.Chemscore.DG>
-18.2259

> <Gold.Chemscore.ZeroCoef>
-5.4800

> <Gold.Chemscore.Hbond>
0.9055

> <Gold.Chemscore.Metal>
0.0000

> <Gold.Chemscore.Lipo>
120.9614

> <Gold.Chemscore.Internal_Hbond>
0.0000

> <Gold.Chemscore.DEClash>
0.1002

> <Gold.Chemscore.DEInternal>
0.8241

> <Gold.Chemscore.Rot>
1.7308

> <Gold.Chemscore.Internal.Correction>
   9.000000E+99

> <Gold.Chemscore.Hbonds>
donor molecule, donor type, donor heavy atom, donor atom, acceptor molecule, acceptor atom, score
      P1  H  7997  8008       L1     8  0.35

> <Gold.Chemscore.Hbond.Weighted>
-3.0244

> <Gold.Chemscore.Metal.Weighted>
-0.0000

> <Gold.Chemscore.Lipo.Weighted>
-14.1525

> <Gold.Chemscore.Internal_Hbond.Weighted>
0.0000

> <Gold.Chemscore.DEClash.Weighted>
0.1002

> <Gold.Chemscore.DEInternal.Weighted>
0.8241

> <Gold.Chemscore.Rot.Weighted>
4.4309

> <Gold.Chemscore.Internal.Correction.Weighted>
   9.000000E+99

> <Gold.Protein.RotatedTorsions>
[ 6907 6896 6895 6894 ] final  -98.91 input  -60.11 | X-H torsion
[ 7974 7965 7964 7962 ] final  -80.27 input  175.53 | X-H torsion
[ 8008 7997 7996 7995 ] final  -67.92 input   59.86 | X-H torsion
[ 10167 10162 10161 10158 ] final  -32.17 input  -65.29 | X-H torsion
[ 10718 10713 10712 10709 ] final  108.02 input   66.30 | X-H torsion
[ 10763 10752 10751 10750 ] final  -71.86 input  -60.55 | X-H torsion
[ 11005 11000 10999 10996 ] final  129.74 input  -57.11 | X-H torsion

> <Gold.Protein.ActiveResidues>
 VAL166  LYS551  ARG553  GLY616  TRP617  ASP618  TYR619  PRO620  LYS621  CYS622 
 ASP623  PHE694  ASN695  SER759  ASP760  ASP761  ALA762  ILE779  LEU786  VAL792 
 PHE793  MET794  SER795  GLU796  ALA797  LYS798  CYS799  TRP800  GLU811  SER814 

> <Gold.Protein.RotatedAtoms>
  150.7062  134.1121  159.4003 H   0  0  0  0  0  0  0  0  0  0  0  0  # atno 6907 bound_to 6896
  151.9108  135.0337  160.0523 H   0  0  0  0  0  0  0  0  0  0  0  0  # atno 6908 bound_to 6896
  152.2337  133.5043  159.5267 H   0  0  0  0  0  0  0  0  0  0  0  0  # atno 6909 bound_to 6896
  145.5622  140.9480  143.1441 H   0  0  0  0  0  0  0  0  0  0  0  0  # atno 7974 bound_to 7965
  154.4833  140.0883  156.7427 H   0  0  0  0  0  0  0  0  0  0  0  0  # atno 8008 bound_to 7997
  155.4415  140.3454  155.4272 H   0  0  0  0  0  0  0  0  0  0  0  0  # atno 8009 bound_to 7997
  156.1223  140.1478  156.9174 H   0  0  0  0  0  0  0  0  0  0  0  0  # atno 8010 bound_to 7997
  140.7225  143.3715  151.1769 H   0  0  0  0  0  0  0  0  0  0  0  0  # atno 10167 bound_to 10162
  157.6604  131.0885  150.6243 H   0  0  0  0  0  0  0  0  0  0  0  0  # atno 10718 bound_to 10713
  154.4377  135.5948  153.6109 H   0  0  0  0  0  0  0  0  0  0  0  0  # atno 10763 bound_to 10752
  152.9803  135.5990  154.3761 H   0  0  0  0  0  0  0  0  0  0  0  0  # atno 10764 bound_to 10752
  154.3607  135.2841  155.2300 H   0  0  0  0  0  0  0  0  0  0  0  0  # atno 10765 bound_to 10752
  139.9633  134.9597  156.9193 H   0  0  0  0  0  0  0  0  0  0  0  0  # atno 11005 bound_to 11000
  144.7477  139.7275  143.7285 LP  0  0  0  0  0  0  0  0  0  0  0  0  # atno 17320 bound_to 7965
  146.1843  139.5051  142.9846 LP  0  0  0  0  0  0  0  0  0  0  0  0  # atno 17321 bound_to 7965
  139.7287  143.9107  152.3012 LP  0  0  0  0  0  0  0  0  0  0  0  0  # atno 17342 bound_to 10162
  139.8889  144.6977  150.8793 LP  0  0  0  0  0  0  0  0  0  0  0  0  # atno 17343 bound_to 10162
  156.6547  130.4495  149.5707 LP  0  0  0  0  0  0  0  0  0  0  0  0  # atno 17370 bound_to 10713
  156.2111  130.6680  151.1271 LP  0  0  0  0  0  0  0  0  0  0  0  0  # atno 17371 bound_to 10713
  140.5453  134.0680  155.7353 LP  0  0  0  0  0  0  0  0  0  0  0  0  # atno 17394 bound_to 11000
  141.1311  133.9300  157.2533 LP  0  0  0  0  0  0  0  0  0  0  0  0  # atno 17395 bound_to 11000

$$$$
