AV-unprocessed.smi:3115|AV-procd|sdf|11861|dock3
  -GOLD-   2272017243D 1   1.00000     0.00000
 Structure written by MMmdl.
 32 33  0  0  0  0  0  0  0  0  1 V2000
  151.9949  145.4959  159.3808 C   0  0  0  0  0  0  0  0  0  0  0  0
  151.8665  143.9854  159.6043 C   0  0  1  0  0  0  0  0  0  0  0  0
  151.7521  143.2114  158.2765 C   0  0  0  0  0  0  0  0  0  0  0  0
  151.7287  141.7769  158.5325 N   0  0  0  0  0  0  0  0  0  0  0  0
  151.5023  141.0128  157.3791 C   0  0  0  0  0  0  0  0  0  0  0  0
  150.3804  141.3055  156.5754 C   0  0  0  0  0  0  0  0  0  0  0  0
  150.1609  140.5416  155.4108 C   0  0  0  0  0  0  0  0  0  0  0  0
  148.9699  140.8217  154.5169 C   0  0  0  0  0  0  0  0  0  0  0  0
  148.9211  142.1997  154.0699 N   0  0  0  0  0  0  0  0  0  0  0  0
  151.0719  139.5138  155.0955 C   0  0  0  0  0  0  0  0  0  0  0  0
  152.1618  139.2968  155.9610 C   0  0  0  0  0  0  0  0  0  0  0  0
  152.3784  140.0241  157.0776 N   0  0  0  0  0  0  0  0  0  0  0  0
  152.8747  141.3334  159.3160 C   0  0  0  0  0  0  0  0  0  0  0  0
  152.9638  142.1466  160.6181 C   0  0  0  0  0  0  0  0  0  0  0  0
  153.0224  143.5364  160.3087 O   0  0  0  0  0  0  0  0  0  0  0  0
  151.1262  145.8895  158.8526 H   0  0  0  0  0  0  0  0  0  0  0  0
  152.8811  145.7333  158.7916 H   0  0  0  0  0  0  0  0  0  0  0  0
  152.0744  146.0251  160.3307 H   0  0  0  0  0  0  0  0  0  0  0  0
  150.9818  143.7980  160.2155 H   0  0  0  0  0  0  0  0  0  0  0  0
  150.8441  143.5041  157.7476 H   0  0  0  0  0  0  0  0  0  0  0  0
  152.5957  143.4549  157.6287 H   0  0  0  0  0  0  0  0  0  0  0  0
  149.7024  142.1025  156.8445 H   0  0  0  0  0  0  0  0  0  0  0  0
  148.9938  140.1672  153.6451 H   0  0  0  0  0  0  0  0  0  0  0  0
  148.0539  140.5929  155.0621 H   0  0  0  0  0  0  0  0  0  0  0  0
  148.9510  142.8122  154.8724 H   0  0  0  0  0  0  0  0  0  0  0  0
  149.7501  142.4055  153.5307 H   0  0  0  0  0  0  0  0  0  0  0  0
  150.9432  138.9052  154.2126 H   0  0  0  0  0  0  0  0  0  0  0  0
  152.8799  138.5181  155.7502 H   0  0  0  0  0  0  0  0  0  0  0  0
  152.7795  140.2707  159.5418 H   0  0  0  0  0  0  0  0  0  0  0  0
  153.7911  141.4609  158.7378 H   0  0  0  0  0  0  0  0  0  0  0  0
  152.1082  141.9424  161.2640 H   0  0  0  0  0  0  0  0  0  0  0  0
  153.8581  141.8677  161.1753 H   0  0  0  0  0  0  0  0  0  0  0  0
  1  2  1  0  0  0  0
  1 16  1  0  0  0  0
  1 17  1  0  0  0  0
  1 18  1  0  0  0  0
  2 15  1  0  0  0  0
  2  3  1  0  0  0  0
  2 19  1  0  0  0  0
  3  4  1  0  0  0  0
  3 20  1  0  0  0  0
  3 21  1  0  0  0  0
  4  5  1  0  0  0  0
  4 13  1  0  0  0  0
  5 12  1  0  0  0  0
  5  6  2  0  0  0  0
  6  7  1  0  0  0  0
  6 22  1  0  0  0  0
  7  8  1  0  0  0  0
  7 10  2  0  0  0  0
  8  9  1  0  0  0  0
  8 23  1  0  0  0  0
  8 24  1  0  0  0  0
  9 25  1  0  0  0  0
  9 26  1  0  0  0  0
 10 11  1  0  0  0  0
 10 27  1  0  0  0  0
 11 12  2  0  0  0  0
 11 28  1  0  0  0  0
 13 14  1  0  0  0  0
 13 29  1  0  0  0  0
 13 30  1  0  0  0  0
 14 15  1  0  0  0  0
 14 31  1  0  0  0  0
 14 32  1  0  0  0  0
M  END
> <s_m_source_file>
AV-unprocessed.smi

> <i_m_source_file_index>
3115

> <i_lp_mmshare_version>
43012

> <i_f3d_flags>
0

> <s_epik_input>
W0NIM11bQ0BASF0xW0NIMl1OKFtDSDJdW0NIMl1PMSljMltjSF1jKFtDSDJdW05IMl0pW2NIXVtjSF1uMg==

> <s_epik_cmdline>
J2VwaWtfcHl0aG9uJywgJy1waCcsICc3LjAnLCAnLXRuJywgJzgnLCAnLW1hJywgJzIwMCcsICctbWV0YWxfYmluZGluZycsICctaW1hZScsICc8aW5maWxlLm1hZT4nLCAnLW9tYWUnLCAnPG91dGZpbGUubWFlPic=

> <r_lp_tautomer_probability>
1

> <r_epik_Ionization_Penalty>
1.27341

> <r_epik_Ionization_Penalty_Charging>
0

> <r_epik_Ionization_Penalty_Neutral>
1.27341

> <r_epik_State_Penalty>
2.46834

> <r_epik_Charging_Adjusted_Penalty>
2.46834

> <i_epik_Tot_Q>
0

> <i_epik_Tot_abs_Q>
0

> <r_epik_Metal_State_Penalty>
2.44319

> <b_epik_Metal_Only>
0

> <s_lp_Force_Field>
OPLS_2005

> <r_lp_Energy>
15.6545

> <b_lp_Chiralities_Consistent>
1

> <s_lp_Variant>
AV-unprocessed.smi:3115-4

> <Gold.Version>
5.8.1

> <Gold.Id.Protein>
6NUR|6NUR_protein|mol2

> <Gold.PLP.Fitness>
42.1013

> <Gold.PLP.PLP>
-36.3687

> <Gold.PLP.part.hbond>
-3.0000

> <Gold.PLP.part.metal>
0.0000

> <Gold.PLP.part.buried>
-2.0346

> <Gold.PLP.part.nonpolar>
-31.2240

> <Gold.PLP.part.repulsive>
0.0000

> <Gold.PLP.ligand.clash>
0.0000

> <Gold.PLP.ligand.torsion>
0.0762

> <Gold.PLP.Chemscore.Hbond>
1.9280

> <Gold.PLP.Chemscore.CHOScore>
0.0000

> <Gold.PLP.Chemscore.Metal>
0.0000

> <Gold.Chemscore.Hbonds>
donor molecule, donor type, donor heavy atom, donor atom, acceptor molecule, acceptor atom, score
      L1  H     9    25       P1  8028  0.94
      P1  H  7997  8008       L1    12  0.57

> <Gold.PLP.Chemscore.Internal.Correction>
0.1009

> <Gold.Rescore>
     Score         DG    S(hbond)    S(metal)    S(lipo)     H(rot)  DE(clash)    DE(int)     intcor
     17.71     -17.99       1.48        0.00      92.50       1.28       0.22       0.06       ----

> <Gold.Chemscore.Fitness>
17.7098

> <Gold.Chemscore.DG>
-17.9903

> <Gold.Chemscore.ZeroCoef>
-5.4800

> <Gold.Chemscore.Hbond>
1.4836

> <Gold.Chemscore.Metal>
0.0000

> <Gold.Chemscore.Lipo>
92.4977

> <Gold.Chemscore.Internal_Hbond>
0.0000

> <Gold.Chemscore.DEClash>
0.2159

> <Gold.Chemscore.DEInternal>
0.0646

> <Gold.Chemscore.Rot>
1.2762

> <Gold.Chemscore.Internal.Correction>
   9.000000E+99

> <Gold.Chemscore.Hbonds>
donor molecule, donor type, donor heavy atom, donor atom, acceptor molecule, acceptor atom, score
      L1  H     9    25       P1  8028  0.83
      P1  H  7997  8008       L1    12  0.04

> <Gold.Chemscore.Hbond.Weighted>
-4.9551

> <Gold.Chemscore.Metal.Weighted>
-0.0000

> <Gold.Chemscore.Lipo.Weighted>
-10.8222

> <Gold.Chemscore.Internal_Hbond.Weighted>
0.0000

> <Gold.Chemscore.DEClash.Weighted>
0.2159

> <Gold.Chemscore.DEInternal.Weighted>
0.0646

> <Gold.Chemscore.Rot.Weighted>
3.2671

> <Gold.Chemscore.Internal.Correction.Weighted>
   9.000000E+99

> <Gold.Protein.RotatedTorsions>
[ 6907 6896 6895 6894 ] final  175.59 input  -60.11 | X-H torsion
[ 7974 7965 7964 7962 ] final  -39.05 input  175.53 | X-H torsion
[ 8008 7997 7996 7995 ] final  -65.43 input   59.86 | X-H torsion
[ 10167 10162 10161 10158 ] final  153.21 input  -65.29 | X-H torsion
[ 10718 10713 10712 10709 ] final  -19.38 input   66.30 | X-H torsion
[ 10763 10752 10751 10750 ] final  103.90 input  -60.55 | X-H torsion
[ 11005 11000 10999 10996 ] final  117.47 input  -57.11 | X-H torsion

> <Gold.Protein.ActiveResidues>
 VAL166  LYS551  ARG553  GLY616  TRP617  ASP618  TYR619  PRO620  LYS621  CYS622 
 ASP623  PHE694  ASN695  SER759  ASP760  ASP761  ALA762  ILE779  LEU786  VAL792 
 PHE793  MET794  SER795  GLU796  ALA797  LYS798  CYS799  TRP800  GLU811  SER814 

> <Gold.Protein.RotatedAtoms>
  151.7338  133.3319  159.3347 H   0  0  0  0  0  0  0  0  0  0  0  0  # atno 6907 bound_to 6896
  150.7601  134.6339  159.6210 H   0  0  0  0  0  0  0  0  0  0  0  0  # atno 6908 bound_to 6896
  152.3575  134.6922  160.0269 H   0  0  0  0  0  0  0  0  0  0  0  0  # atno 6909 bound_to 6896
  146.0432  140.6581  142.9077 H   0  0  0  0  0  0  0  0  0  0  0  0  # atno 7974 bound_to 7965
  154.4671  140.0933  156.7049 H   0  0  0  0  0  0  0  0  0  0  0  0  # atno 8008 bound_to 7997
  155.4827  140.3468  155.4324 H   0  0  0  0  0  0  0  0  0  0  0  0  # atno 8009 bound_to 7997
  156.0975  140.1413  156.9500 H   0  0  0  0  0  0  0  0  0  0  0  0  # atno 8010 bound_to 7997
  139.4828  144.5292  151.7751 H   0  0  0  0  0  0  0  0  0  0  0  0  # atno 10167 bound_to 10162
  156.5464  130.4691  149.6473 H   0  0  0  0  0  0  0  0  0  0  0  0  # atno 10718 bound_to 10713
  153.3588  135.3961  155.1702 H   0  0  0  0  0  0  0  0  0  0  0  0  # atno 10763 bound_to 10752
  154.8675  135.3674  154.5126 H   0  0  0  0  0  0  0  0  0  0  0  0  # atno 10764 bound_to 10752
  153.5584  135.7081  153.5619 H   0  0  0  0  0  0  0  0  0  0  0  0  # atno 10765 bound_to 10752
  139.9076  134.9610  156.7356 H   0  0  0  0  0  0  0  0  0  0  0  0  # atno 11005 bound_to 11000
  144.7084  140.3945  143.7099 LP  0  0  0  0  0  0  0  0  0  0  0  0  # atno 17320 bound_to 7965
  145.6850  139.1626  143.2679 LP  0  0  0  0  0  0  0  0  0  0  0  0  # atno 17321 bound_to 7965
  140.4816  144.1441  150.5933 LP  0  0  0  0  0  0  0  0  0  0  0  0  # atno 17342 bound_to 10162
  140.4271  143.2585  151.9642 LP  0  0  0  0  0  0  0  0  0  0  0  0  # atno 17343 bound_to 10162
  156.2924  130.7131  151.1983 LP  0  0  0  0  0  0  0  0  0  0  0  0  # atno 17370 bound_to 10713
  157.7396  131.0527  150.5223 LP  0  0  0  0  0  0  0  0  0  0  0  0  # atno 17371 bound_to 10713
  140.6890  133.9406  155.7955 LP  0  0  0  0  0  0  0  0  0  0  0  0  # atno 17394 bound_to 11000
  141.0455  134.0560  157.3849 LP  0  0  0  0  0  0  0  0  0  0  0  0  # atno 17395 bound_to 11000

$$$$
