AV-unprocessed.smi:2044|AV-procd|sdf|8299|dock5
  -GOLD-   2272010563D 1   1.00000     0.00000
 Structure written by MMmdl.
 39 40  0  0  0  0  0  0  0  0  1 V2000
  151.8298  144.7846  159.0174 C   0  0  0  0  0  0  0  0  0  0  0  0
  152.3593  143.7106  159.9049 C   0  0  0  0  0  0  0  0  0  0  0  0
  153.1146  142.5963  159.6682 C   0  0  0  0  0  0  0  0  0  0  0  0
  153.2518  142.0223  160.9602 C   0  0  0  0  0  0  0  0  0  0  0  0
  153.9845  140.8227  161.1510 N   0  0  0  0  0  0  0  0  0  0  0  0
  154.2849  139.8911  160.2297 C   0  0  0  0  0  0  0  0  0  0  0  0
  153.9634  139.9376  159.0418 O   0  0  0  0  0  0  0  0  0  0  0  0
  154.9912  138.8850  160.7656 N   0  0  0  0  0  0  0  0  0  0  0  0
  155.4776  137.7187  160.0329 C   0  0  0  0  0  0  0  0  0  0  0  0
  154.8961  136.3719  160.5535 C   0  0  1  0  0  0  0  0  0  0  0  0
  155.5629  135.2071  159.7783 C   0  0  0  0  0  0  0  0  0  0  0  0
  155.0019  136.2157  162.0236 N   0  0  0  0  0  0  0  0  0  0  0  0
  154.9980  134.8080  162.4394 C   0  0  0  0  0  0  0  0  0  0  0  0
  155.0733  134.6324  163.9662 C   0  0  0  0  0  0  0  0  0  0  0  0
  153.9968  135.3254  164.5819 O   0  0  0  0  0  0  0  0  0  0  0  0
  154.0080  136.7112  164.2698 C   0  0  0  0  0  0  0  0  0  0  0  0
  153.9237  136.9018  162.7455 C   0  0  0  0  0  0  0  0  0  0  0  0
  152.6369  142.7234  161.9004 N   0  0  0  0  0  0  0  0  0  0  0  0
  152.0625  143.8091  161.2290 O   0  0  0  0  0  0  0  0  0  0  0  0
  151.8269  144.4628  157.9758 H   0  0  0  0  0  0  0  0  0  0  0  0
  152.4420  145.6835  159.0920 H   0  0  0  0  0  0  0  0  0  0  0  0
  150.8079  145.0472  159.2919 H   0  0  0  0  0  0  0  0  0  0  0  0
  153.5037  142.2507  158.7219 H   0  0  0  0  0  0  0  0  0  0  0  0
  154.3137  140.6555  162.0901 H   0  0  0  0  0  0  0  0  0  0  0  0
  155.2134  138.9283  161.7493 H   0  0  0  0  0  0  0  0  0  0  0  0
  155.2235  137.8495  158.9807 H   0  0  0  0  0  0  0  0  0  0  0  0
  156.5647  137.7458  160.0910 H   0  0  0  0  0  0  0  0  0  0  0  0
  153.8363  136.3587  160.2941 H   0  0  0  0  0  0  0  0  0  0  0  0
  155.5304  135.3526  158.6992 H   0  0  0  0  0  0  0  0  0  0  0  0
  155.0605  134.2560  159.9497 H   0  0  0  0  0  0  0  0  0  0  0  0
  156.6097  135.0924  160.0622 H   0  0  0  0  0  0  0  0  0  0  0  0
  154.1006  134.3145  162.0630 H   0  0  0  0  0  0  0  0  0  0  0  0
  155.8510  134.2804  162.0164 H   0  0  0  0  0  0  0  0  0  0  0  0
  155.0107  133.5764  164.2288 H   0  0  0  0  0  0  0  0  0  0  0  0
  156.0244  135.0028  164.3520 H   0  0  0  0  0  0  0  0  0  0  0  0
  153.1600  137.1918  164.7579 H   0  0  0  0  0  0  0  0  0  0  0  0
  154.9116  137.1756  164.6681 H   0  0  0  0  0  0  0  0  0  0  0  0
  153.9563  137.9735  162.5617 H   0  0  0  0  0  0  0  0  0  0  0  0
  152.9554  136.5468  162.3892 H   0  0  0  0  0  0  0  0  0  0  0  0
  1  2  1  0  0  0  0
  1 20  1  0  0  0  0
  1 21  1  0  0  0  0
  1 22  1  0  0  0  0
  2 19  1  0  0  0  0
  2  3  2  0  0  0  0
  3  4  1  0  0  0  0
  3 23  1  0  0  0  0
  4  5  1  0  0  0  0
  4 18  2  0  0  0  0
  5  6  1  0  0  0  0
  5 24  1  0  0  0  0
  6  7  2  0  0  0  0
  6  8  1  0  0  0  0
  8  9  1  0  0  0  0
  8 25  1  0  0  0  0
  9 10  1  0  0  0  0
  9 26  1  0  0  0  0
  9 27  1  0  0  0  0
 10 11  1  0  0  0  0
 10 12  1  0  0  0  0
 10 28  1  0  0  0  0
 11 29  1  0  0  0  0
 11 30  1  0  0  0  0
 11 31  1  0  0  0  0
 12 17  1  0  0  0  0
 12 13  1  0  0  0  0
 13 14  1  0  0  0  0
 13 32  1  0  0  0  0
 13 33  1  0  0  0  0
 14 15  1  0  0  0  0
 14 34  1  0  0  0  0
 14 35  1  0  0  0  0
 15 16  1  0  0  0  0
 16 17  1  0  0  0  0
 16 36  1  0  0  0  0
 16 37  1  0  0  0  0
 17 38  1  0  0  0  0
 17 39  1  0  0  0  0
 18 19  1  0  0  0  0
M  END
> <s_m_source_file>
AV-unprocessed.smi

> <i_m_source_file_index>
2044

> <i_lp_mmshare_version>
43012

> <i_f3d_flags>
0

> <s_epik_input>
W0NIM11jMVtjSF1jKG5vMSlbTkhdQyg9TylbTkhdW0NIMl1bQ0BIXShbQ0gzXSlOMltDSDJdW0NIMl1PW0NIMl1bQ0gyXTI=

> <s_epik_cmdline>
J2VwaWtfcHl0aG9uJywgJy1waCcsICc3LjAnLCAnLXRuJywgJzgnLCAnLW1hJywgJzIwMCcsICctbWV0YWxfYmluZGluZycsICctaW1hZScsICc8aW5maWxlLm1hZT4nLCAnLW9tYWUnLCAnPG91dGZpbGUubWFlPic=

> <r_epik_Ionization_Penalty>
0.214073

> <r_epik_Ionization_Penalty_Charging>
0

> <r_epik_Ionization_Penalty_Neutral>
0.214073

> <r_epik_State_Penalty>
0.204211

> <r_epik_Charging_Adjusted_Penalty>
0.204211

> <i_epik_Tot_Q>
0

> <i_epik_Tot_abs_Q>
0

> <r_epik_Metal_State_Penalty>
0.217151

> <b_epik_Metal_Only>
0

> <s_lp_Force_Field>
OPLS_2005

> <r_lp_Energy>
26.3951

> <b_lp_Chiralities_Consistent>
1

> <s_lp_Variant>
AV-unprocessed.smi:2044-2

> <Gold.Version>
5.8.1

> <Gold.Id.Protein>
6NUR|6NUR_protein|mol2

> <Gold.PLP.Fitness>
37.6803

> <Gold.PLP.PLP>
-36.0790

> <Gold.PLP.part.hbond>
-1.0000

> <Gold.PLP.part.metal>
0.0000

> <Gold.PLP.part.buried>
-6.7334

> <Gold.PLP.part.nonpolar>
-29.0059

> <Gold.PLP.part.repulsive>
0.3464

> <Gold.PLP.ligand.clash>
0.0607

> <Gold.PLP.ligand.torsion>
0.6880

> <Gold.PLP.Chemscore.Hbond>
1.0000

> <Gold.PLP.Chemscore.CHOScore>
0.0000

> <Gold.PLP.Chemscore.Metal>
0.0000

> <Gold.Chemscore.Hbonds>
donor molecule, donor type, donor heavy atom, donor atom, acceptor molecule, acceptor atom, score
      P1  H  7997  8010       L1     7  1.00

> <Gold.PLP.Chemscore.Internal.Correction>
0.0380

> <Gold.Rescore>
     Score         DG    S(hbond)    S(metal)    S(lipo)     H(rot)  DE(clash)    DE(int)     intcor
     12.04     -14.31       0.99        0.00      81.74       1.58       0.02       2.25       ----

> <Gold.Chemscore.Fitness>
12.0372

> <Gold.Chemscore.DG>
-14.3125

> <Gold.Chemscore.ZeroCoef>
-5.4800

> <Gold.Chemscore.Hbond>
0.9886

> <Gold.Chemscore.Metal>
0.0000

> <Gold.Chemscore.Lipo>
81.7394

> <Gold.Chemscore.Internal_Hbond>
0.0000

> <Gold.Chemscore.DEClash>
0.0224

> <Gold.Chemscore.DEInternal>
2.2530

> <Gold.Chemscore.Rot>
1.5753

> <Gold.Chemscore.Internal.Correction>
   9.000000E+99

> <Gold.Chemscore.Hbonds>
donor molecule, donor type, donor heavy atom, donor atom, acceptor molecule, acceptor atom, score
      P1  H  7997  8010       L1     7  0.93

> <Gold.Chemscore.Hbond.Weighted>
-3.3019

> <Gold.Chemscore.Metal.Weighted>
-0.0000

> <Gold.Chemscore.Lipo.Weighted>
-9.5635

> <Gold.Chemscore.Internal_Hbond.Weighted>
0.0000

> <Gold.Chemscore.DEClash.Weighted>
0.0224

> <Gold.Chemscore.DEInternal.Weighted>
2.2530

> <Gold.Chemscore.Rot.Weighted>
4.0329

> <Gold.Chemscore.Internal.Correction.Weighted>
   9.000000E+99

> <Gold.Protein.RotatedTorsions>
[ 6907 6896 6895 6894 ] final -171.11 input  -60.11 | X-H torsion
[ 7974 7965 7964 7962 ] final  -31.60 input  175.53 | X-H torsion
[ 8008 7997 7996 7995 ] final   14.56 input   59.86 | X-H torsion
[ 10167 10162 10161 10158 ] final   32.09 input  -65.29 | X-H torsion
[ 10718 10713 10712 10709 ] final   -7.55 input   66.30 | X-H torsion
[ 10763 10752 10751 10750 ] final  -95.84 input  -60.55 | X-H torsion
[ 11005 11000 10999 10996 ] final  -51.25 input  -57.11 | X-H torsion

> <Gold.Protein.ActiveResidues>
 VAL166  LYS551  ARG553  GLY616  TRP617  ASP618  TYR619  PRO620  LYS621  CYS622 
 ASP623  PHE694  ASN695  SER759  ASP760  ASP761  ALA762  ILE779  LEU786  VAL792 
 PHE793  MET794  SER795  GLU796  ALA797  LYS798  CYS799  TRP800  GLU811  SER814 

> <Gold.Protein.RotatedAtoms>
  151.5185  133.3471  159.2896 H   0  0  0  0  0  0  0  0  0  0  0  0  # atno 6907 bound_to 6896
  150.8667  134.8034  159.7135 H   0  0  0  0  0  0  0  0  0  0  0  0  # atno 6908 bound_to 6896
  152.4669  134.5063  159.9792 H   0  0  0  0  0  0  0  0  0  0  0  0  # atno 6909 bound_to 6896
  146.1054  140.5688  142.8802 H   0  0  0  0  0  0  0  0  0  0  0  0  # atno 7974 bound_to 7965
  154.8502  140.2928  155.5603 H   0  0  0  0  0  0  0  0  0  0  0  0  # atno 8008 bound_to 7997
  156.3016  140.2497  156.3392 H   0  0  0  0  0  0  0  0  0  0  0  0  # atno 8009 bound_to 7997
  154.9029  140.0391  157.1892 H   0  0  0  0  0  0  0  0  0  0  0  0  # atno 8010 bound_to 7997
  140.4530  144.1020  150.6196 H   0  0  0  0  0  0  0  0  0  0  0  0  # atno 10167 bound_to 10162
  156.7156  130.5135  149.5881 H   0  0  0  0  0  0  0  0  0  0  0  0  # atno 10718 bound_to 10713
  154.7186  135.5105  153.8776 H   0  0  0  0  0  0  0  0  0  0  0  0  # atno 10763 bound_to 10752
  153.0842  135.6640  153.9992 H   0  0  0  0  0  0  0  0  0  0  0  0  # atno 10764 bound_to 10752
  153.9820  135.3028  155.3399 H   0  0  0  0  0  0  0  0  0  0  0  0  # atno 10765 bound_to 10752
  141.0861  133.6642  156.3849 H   0  0  0  0  0  0  0  0  0  0  0  0  # atno 11005 bound_to 11000
  144.7467  140.5086  143.6831 LP  0  0  0  0  0  0  0  0  0  0  0  0  # atno 17320 bound_to 7965
  145.5770  139.1486  143.3256 LP  0  0  0  0  0  0  0  0  0  0  0  0  # atno 17321 bound_to 7965
  140.4184  143.2623  151.9745 LP  0  0  0  0  0  0  0  0  0  0  0  0  # atno 17342 bound_to 10162
  139.4798  144.5853  151.7865 LP  0  0  0  0  0  0  0  0  0  0  0  0  # atno 17343 bound_to 10162
  156.1630  130.6387  151.0743 LP  0  0  0  0  0  0  0  0  0  0  0  0  # atno 17370 bound_to 10713
  157.6918  131.0807  150.7084 LP  0  0  0  0  0  0  0  0  0  0  0  0  # atno 17371 bound_to 10713
  140.5360  134.6166  157.5365 LP  0  0  0  0  0  0  0  0  0  0  0  0  # atno 17394 bound_to 11000
  139.9679  134.7342  156.0101 LP  0  0  0  0  0  0  0  0  0  0  0  0  # atno 17395 bound_to 11000

$$$$
