AV-unprocessed.smi:1866|AV-procd|sdf|7558|dock2
  -GOLD-   22720 9273D 1   1.00000     0.00000
 Structure written by MMmdl.
 29 30  0  0  0  0  0  0  0  0  2 V2000
  146.9514  133.5938  161.6205 C   0  0  0  0  0  0  0  0  0  0  0  0
  147.4530  134.9196  161.1608 C   0  0  0  0  0  0  0  0  0  0  0  0
  147.3602  136.0241  161.9050 N   0  0  0  0  0  0  0  0  0  0  0  0
  147.8940  137.1329  161.2638 N   0  0  0  0  0  0  0  0  0  0  0  0
  148.3727  136.8545  160.0430 C   0  0  0  0  0  0  0  0  0  0  0  0
  148.9359  137.7895  159.2601 N   0  5  0  0  0  0  0  0  0  0  0  0
  149.9586  137.4579  158.4393 C   0  0  0  0  0  0  0  0  0  0  0  0
  150.5441  136.3734  158.4038 O   0  0  0  0  0  0  0  0  0  0  0  0
  150.3279  138.4488  157.6138 N   0  0  0  0  0  0  0  0  0  0  0  0
  151.3850  138.4004  156.6023 C   0  0  2  0  0  0  0  0  0  0  0  0
  151.3818  139.7382  155.8303 C   0  0  0  0  0  0  0  0  0  0  0  0
  150.2209  139.8330  154.8353 C   0  0  0  0  0  0  0  0  0  0  0  0
  150.3179  138.6938  153.8138 C   0  0  0  0  0  0  0  0  0  0  0  0
  150.6253  137.4055  154.4305 N   0  0  0  0  0  0  0  0  0  0  0  0
  151.1420  137.2008  155.6562 C   0  0  0  0  0  0  0  0  0  0  0  0
  151.4261  136.0663  156.0353 O   0  0  0  0  0  0  0  0  0  0  0  0
  148.2130  135.1558  159.5959 S   0  0  0  0  0  0  0  0  0  0  0  0
  145.8663  133.5530  161.5254 H   0  0  0  0  0  0  0  0  0  0  0  0
  147.2201  133.4296  162.6643 H   0  0  0  0  0  0  0  0  0  0  0  0
  147.3862  132.7950  161.0195 H   0  0  0  0  0  0  0  0  0  0  0  0
  149.8147  139.3148  157.6847 H   0  0  0  0  0  0  0  0  0  0  0  0
  152.3533  138.2794  157.0910 H   0  0  0  0  0  0  0  0  0  0  0  0
  151.3453  140.5755  156.5287 H   0  0  0  0  0  0  0  0  0  0  0  0
  152.3233  139.8427  155.2892 H   0  0  0  0  0  0  0  0  0  0  0  0
  149.2708  139.7740  155.3679 H   0  0  0  0  0  0  0  0  0  0  0  0
  150.2318  140.7967  154.3255 H   0  0  0  0  0  0  0  0  0  0  0  0
  149.3892  138.6112  153.2488 H   0  0  0  0  0  0  0  0  0  0  0  0
  151.1067  138.9124  153.0933 H   0  0  0  0  0  0  0  0  0  0  0  0
  150.4677  136.5882  153.8591 H   0  0  0  0  0  0  0  0  0  0  0  0
  1  2  1  0  0  0  0
  1 18  1  0  0  0  0
  1 19  1  0  0  0  0
  1 20  1  0  0  0  0
  2 17  1  0  0  0  0
  2  3  2  0  0  0  0
  3  4  1  0  0  0  0
  4  5  2  0  0  0  0
  5  6  1  0  0  0  0
  5 17  1  0  0  0  0
  6  7  1  0  0  0  0
  7  8  2  0  0  0  0
  7  9  1  0  0  0  0
  9 10  1  0  0  0  0
  9 21  1  0  0  0  0
 10 15  1  0  0  0  0
 10 11  1  0  0  0  0
 10 22  1  0  0  0  0
 11 12  1  0  0  0  0
 11 23  1  0  0  0  0
 11 24  1  0  0  0  0
 12 13  1  0  0  0  0
 12 25  1  0  0  0  0
 12 26  1  0  0  0  0
 13 14  1  0  0  0  0
 13 27  1  0  0  0  0
 13 28  1  0  0  0  0
 14 15  1  0  0  0  0
 14 29  1  0  0  0  0
 15 16  2  0  0  0  0
M  CHG  1   6  -1
M  END
> <s_m_source_file>
AV-unprocessed.smi

> <i_m_source_file_index>
1866

> <i_lp_mmshare_version>
43012

> <i_f3d_flags>
0

> <s_epik_input>
W0NIM11jMW5uYyhzMSlbTkhdQyg9TylbTkhdW0NAQEhdMltDSDJdW0NIMl1bQ0gyXVtOSF1DMj1P

> <s_epik_cmdline>
J2VwaWtfcHl0aG9uJywgJy1waCcsICc3LjAnLCAnLXRuJywgJzgnLCAnLW1hJywgJzIwMCcsICctbWV0YWxfYmluZGluZycsICctaW1hZScsICc8aW5maWxlLm1hZT4nLCAnLW9tYWUnLCAnPG91dGZpbGUubWFlPic=

> <r_lp_tautomer_probability>
1

> <r_epik_Ionization_Penalty>
3.97471

> <r_epik_Ionization_Penalty_Charging>
3.84029

> <r_epik_Ionization_Penalty_Neutral>
0.134427

> <r_epik_State_Penalty>
3.83938

> <r_epik_Charging_Adjusted_Penalty>
7.67966

> <i_epik_Tot_Q>
-1

> <i_epik_Tot_abs_Q>
1

> <r_epik_Metal_State_Penalty>
0.577306

> <b_epik_Metal_Only>
1

> <s_lp_Force_Field>
OPLS_2005

> <r_lp_Energy>
8.91555

> <b_lp_Chiralities_Consistent>
1

> <s_lp_Variant>
AV-unprocessed.smi:1866-3

> <Gold.Version>
5.8.1

> <Gold.Id.Protein>
6NUR|6NUR_protein|mol2

> <Gold.PLP.Fitness>
36.1676

> <Gold.PLP.PLP>
-25.3856

> <Gold.PLP.part.hbond>
-5.3410

> <Gold.PLP.part.metal>
0.0000

> <Gold.PLP.part.buried>
-2.2548

> <Gold.PLP.part.nonpolar>
-16.8207

> <Gold.PLP.part.repulsive>
0.1294

> <Gold.PLP.ligand.clash>
0.0000

> <Gold.PLP.ligand.torsion>
0.2629

> <Gold.PLP.Chemscore.Hbond>
3.7520

> <Gold.PLP.Chemscore.CHOScore>
0.0000

> <Gold.PLP.Chemscore.Metal>
0.0000

> <Gold.Chemscore.Hbonds>
donor molecule, donor type, donor heavy atom, donor atom, acceptor molecule, acceptor atom, score
      P1  H  6896  6907       L1     8  0.88
      P1  H  6931  6943       L1     4  1.00
      P1  H  6934  6947       L1     4  0.73
      P1  H 10752 10765       L1    16  0.89

> <Gold.PLP.Chemscore.Internal.Correction>
0.0518

> <Gold.Rescore>
     Score         DG    S(hbond)    S(metal)    S(lipo)     H(rot)  DE(clash)    DE(int)     intcor
     12.21     -16.20       2.35        0.00      46.34       1.00       0.20       3.79       ----

> <Gold.Chemscore.Fitness>
12.2092

> <Gold.Chemscore.DG>
-16.1982

> <Gold.Chemscore.ZeroCoef>
-5.4800

> <Gold.Chemscore.Hbond>
2.3523

> <Gold.Chemscore.Metal>
0.0000

> <Gold.Chemscore.Lipo>
46.3372

> <Gold.Chemscore.Internal_Hbond>
0.0000

> <Gold.Chemscore.DEClash>
0.2039

> <Gold.Chemscore.DEInternal>
3.7851

> <Gold.Chemscore.Rot>
1.0000

> <Gold.Chemscore.Internal.Correction>
   9.000000E+99

> <Gold.Chemscore.Hbonds>
donor molecule, donor type, donor heavy atom, donor atom, acceptor molecule, acceptor atom, score
      P1  H  6896  6907       L1     8  0.84
      P1  H  6931  6943       L1     4  0.43
      P1  H  6934  6947       L1     4  0.18
      P1  H 10752 10765       L1    16  0.61

> <Gold.Chemscore.Hbond.Weighted>
-7.8568

> <Gold.Chemscore.Metal.Weighted>
-0.0000

> <Gold.Chemscore.Lipo.Weighted>
-5.4214

> <Gold.Chemscore.Internal_Hbond.Weighted>
0.0000

> <Gold.Chemscore.DEClash.Weighted>
0.2039

> <Gold.Chemscore.DEInternal.Weighted>
3.7851

> <Gold.Chemscore.Rot.Weighted>
2.5600

> <Gold.Chemscore.Internal.Correction.Weighted>
   9.000000E+99

> <Gold.Protein.RotatedTorsions>
[ 6907 6896 6895 6894 ] final  -45.07 input  -60.11 | X-H torsion
[ 7974 7965 7964 7962 ] final  -10.94 input  175.53 | X-H torsion
[ 8008 7997 7996 7995 ] final  -37.70 input   59.86 | X-H torsion
[ 10167 10162 10161 10158 ] final  105.60 input  -65.29 | X-H torsion
[ 10718 10713 10712 10709 ] final  -83.37 input   66.30 | X-H torsion
[ 10763 10752 10751 10750 ] final -147.77 input  -60.55 | X-H torsion
[ 11005 11000 10999 10996 ] final   64.28 input  -57.11 | X-H torsion

> <Gold.Protein.ActiveResidues>
 VAL166  LYS551  ARG553  GLY616  TRP617  ASP618  TYR619  PRO620  LYS621  CYS622 
 ASP623  PHE694  ASN695  SER759  ASP760  ASP761  ALA762  ILE779  LEU786  VAL792 
 PHE793  MET794  SER795  GLU796  ALA797  LYS798  CYS799  TRP800  GLU811  SER814 

> <Gold.Protein.RotatedAtoms>
  150.9259  134.8676  159.7519 H   0  0  0  0  0  0  0  0  0  0  0  0  # atno 6907 bound_to 6896
  152.5015  134.4149  159.9471 H   0  0  0  0  0  0  0  0  0  0  0  0  # atno 6908 bound_to 6896
  151.4180  133.3667  159.2787 H   0  0  0  0  0  0  0  0  0  0  0  0  # atno 6909 bound_to 6896
  146.2204  140.2838  142.8364 H   0  0  0  0  0  0  0  0  0  0  0  0  # atno 7974 bound_to 7965
  154.4049  140.1597  156.2580 H   0  0  0  0  0  0  0  0  0  0  0  0  # atno 8008 bound_to 7997
  155.9062  140.3430  155.6041 H   0  0  0  0  0  0  0  0  0  0  0  0  # atno 8009 bound_to 7997
  155.7390  140.0790  157.2245 H   0  0  0  0  0  0  0  0  0  0  0  0  # atno 8010 bound_to 7997
  139.7079  144.7083  151.1076 H   0  0  0  0  0  0  0  0  0  0  0  0  # atno 10167 bound_to 10162
  156.0019  130.4663  150.4247 H   0  0  0  0  0  0  0  0  0  0  0  0  # atno 10718 bound_to 10713
  154.8268  135.3351  154.6870 H   0  0  0  0  0  0  0  0  0  0  0  0  # atno 10763 bound_to 10752
  153.7494  135.6940  153.4953 H   0  0  0  0  0  0  0  0  0  0  0  0  # atno 10764 bound_to 10752
  153.2187  135.4456  155.0414 H   0  0  0  0  0  0  0  0  0  0  0  0  # atno 10765 bound_to 10752
  139.9969  134.6503  155.9996 H   0  0  0  0  0  0  0  0  0  0  0  0  # atno 11005 bound_to 11000
  144.9177  140.7832  143.5767 LP  0  0  0  0  0  0  0  0  0  0  0  0  # atno 17320 bound_to 7965
  145.2773  139.1932  143.4810 LP  0  0  0  0  0  0  0  0  0  0  0  0  # atno 17321 bound_to 7965
  140.7726  143.5334  150.9397 LP  0  0  0  0  0  0  0  0  0  0  0  0  # atno 17342 bound_to 10162
  139.9017  143.6827  152.3130 LP  0  0  0  0  0  0  0  0  0  0  0  0  # atno 17343 bound_to 10162
  157.2300  131.0502  151.2497 LP  0  0  0  0  0  0  0  0  0  0  0  0  # atno 17370 bound_to 10713
  157.3720  130.7186  149.6571 LP  0  0  0  0  0  0  0  0  0  0  0  0  # atno 17371 bound_to 10713
  141.1611  133.6539  156.4323 LP  0  0  0  0  0  0  0  0  0  0  0  0  # atno 17394 bound_to 11000
  140.4802  134.6672  157.5167 LP  0  0  0  0  0  0  0  0  0  0  0  0  # atno 17395 bound_to 11000

$$$$
