AV-unprocessed.smi:1749|AV-procd|sdf|7047|dock6
  -GOLD-   22720 8263D 1   1.00000     0.00000
 Structure written by MMmdl.
 32 33  0  0  0  0  0  0  0  0  1 V2000
  144.6928  132.5456  148.7969 C   0  0  0  0  0  0  0  0  0  0  0  0
  144.7994  132.4222  150.3233 C   0  0  1  0  0  0  0  0  0  0  0  0
  145.4362  131.0818  150.7371 C   0  0  0  0  0  0  0  0  0  0  0  0
  145.5490  130.9560  152.2647 C   0  0  0  0  0  0  0  0  0  0  0  0
  146.3257  132.1392  152.8687 C   0  0  0  0  0  0  0  0  0  0  0  0
  145.7201  133.4970  152.4645 C   0  0  2  0  0  0  0  0  0  0  0  0
  144.4268  133.6827  153.1178 N   0  0  0  0  0  0  0  0  0  0  0  0
  143.6858  134.8026  153.1031 C   0  0  0  0  0  0  0  0  0  0  0  0
  144.0587  135.8420  152.5619 O   0  0  0  0  0  0  0  0  0  0  0  0
  142.4926  134.7321  153.7309 N   0  0  0  0  0  0  0  0  0  0  0  0
  141.4668  135.7054  153.9114 C   0  0  0  0  0  0  0  0  0  0  0  0
  140.2412  135.4361  154.3914 N   0  0  0  0  0  0  0  0  0  0  0  0
  139.4380  136.5670  154.4397 N   0  0  0  0  0  0  0  0  0  0  0  0
  140.0817  137.6442  153.9822 C   0  0  0  0  0  0  0  0  0  0  0  0
  141.7323  137.3804  153.4472 S   0  0  0  0  0  0  0  0  0  0  0  0
  145.5865  133.6033  150.9300 C   0  0  0  0  0  0  0  0  0  0  0  0
  145.6764  132.5255  148.3270 H   0  0  0  0  0  0  0  0  0  0  0  0
  144.2067  133.4792  148.5124 H   0  0  0  0  0  0  0  0  0  0  0  0
  144.1061  131.7280  148.3773 H   0  0  0  0  0  0  0  0  0  0  0  0
  143.7838  132.4487  150.7212 H   0  0  0  0  0  0  0  0  0  0  0  0
  144.8466  130.2519  150.3462 H   0  0  0  0  0  0  0  0  0  0  0  0
  146.4281  130.9917  150.2920 H   0  0  0  0  0  0  0  0  0  0  0  0
  144.5511  130.9054  152.7022 H   0  0  0  0  0  0  0  0  0  0  0  0
  146.0435  130.0195  152.5232 H   0  0  0  0  0  0  0  0  0  0  0  0
  146.3602  132.0486  153.9551 H   0  0  0  0  0  0  0  0  0  0  0  0
  147.3610  132.0947  152.5282 H   0  0  0  0  0  0  0  0  0  0  0  0
  146.3949  134.2812  152.8126 H   0  0  0  0  0  0  0  0  0  0  0  0
  144.0439  132.8768  153.5917 H   0  0  0  0  0  0  0  0  0  0  0  0
  142.3217  133.8570  154.2047 H   0  0  0  0  0  0  0  0  0  0  0  0
  139.5802  138.6001  153.9561 H   0  0  0  0  0  0  0  0  0  0  0  0
  146.5842  133.6331  150.4900 H   0  0  0  0  0  0  0  0  0  0  0  0
  145.1123  134.5477  150.6598 H   0  0  0  0  0  0  0  0  0  0  0  0
  1  2  1  0  0  0  0
  1 17  1  0  0  0  0
  1 18  1  0  0  0  0
  1 19  1  0  0  0  0
  2 16  1  0  0  0  0
  2  3  1  0  0  0  0
  2 20  1  0  0  0  0
  3  4  1  0  0  0  0
  3 21  1  0  0  0  0
  3 22  1  0  0  0  0
  4  5  1  0  0  0  0
  4 23  1  0  0  0  0
  4 24  1  0  0  0  0
  5  6  1  0  0  0  0
  5 25  1  0  0  0  0
  5 26  1  0  0  0  0
  6  7  1  0  0  0  0
  6 16  1  0  0  0  0
  6 27  1  0  0  0  0
  7  8  1  0  0  0  0
  7 28  1  0  0  0  0
  8  9  2  0  0  0  0
  8 10  1  0  0  0  0
 10 11  1  0  0  0  0
 10 29  1  0  0  0  0
 11 15  1  0  0  0  0
 11 12  2  0  0  0  0
 12 13  1  0  0  0  0
 13 14  2  0  0  0  0
 14 15  1  0  0  0  0
 14 30  1  0  0  0  0
 16 31  1  0  0  0  0
 16 32  1  0  0  0  0
M  END
> <s_m_source_file>
AV-unprocessed.smi

> <i_m_source_file_index>
1749

> <i_lp_mmshare_version>
43012

> <i_f3d_flags>
0

> <s_epik_input>
W0NIM11bQ0BASF0xW0NIMl1bQ0gyXVtDSDJdW0NASF0oW0NIMl0xKVtOSF1DKD1PKVtOSF1jMm5uW2NIXXMy

> <s_epik_cmdline>
J2VwaWtfcHl0aG9uJywgJy1waCcsICc3LjAnLCAnLXRuJywgJzgnLCAnLW1hJywgJzIwMCcsICctbWV0YWxfYmluZGluZycsICctaW1hZScsICc8aW5maWxlLm1hZT4nLCAnLW9tYWUnLCAnPG91dGZpbGUubWFlPic=

> <r_lp_tautomer_probability>
1

> <r_epik_Ionization_Penalty>
0.000318591

> <r_epik_Ionization_Penalty_Charging>
0

> <r_epik_Ionization_Penalty_Neutral>
0.000318591

> <r_epik_State_Penalty>
-0

> <r_epik_Charging_Adjusted_Penalty>
0

> <i_epik_Tot_Q>
0

> <i_epik_Tot_abs_Q>
0

> <r_epik_Metal_State_Penalty>
0.169791

> <b_epik_Metal_Only>
0

> <s_lp_Force_Field>
OPLS_2005

> <r_lp_Energy>
10.2473

> <b_lp_Chiralities_Consistent>
1

> <s_lp_Variant>
AV-unprocessed.smi:1749-4

> <Gold.Version>
5.8.1

> <Gold.Id.Protein>
6NUR|6NUR_protein|mol2

> <Gold.PLP.Fitness>
34.1071

> <Gold.PLP.PLP>
-27.4102

> <Gold.PLP.part.hbond>
-3.2910

> <Gold.PLP.part.metal>
0.0000

> <Gold.PLP.part.buried>
-5.7341

> <Gold.PLP.part.nonpolar>
-19.2123

> <Gold.PLP.part.repulsive>
0.3930

> <Gold.PLP.ligand.clash>
0.0000

> <Gold.PLP.ligand.torsion>
0.0554

> <Gold.PLP.Chemscore.Hbond>
2.2675

> <Gold.PLP.Chemscore.CHOScore>
0.0000

> <Gold.PLP.Chemscore.Metal>
0.0000

> <Gold.Chemscore.Hbonds>
donor molecule, donor type, donor heavy atom, donor atom, acceptor molecule, acceptor atom, score
      L1  H     7    28       P1 10957  0.76
      L1  H    10    29       P1 10957  0.62
      P1  H 11000 11005       L1    12  1.00

> <Gold.PLP.Chemscore.Internal.Correction>
0.0054

> <Gold.Rescore>
     Score         DG    S(hbond)    S(metal)    S(lipo)     H(rot)  DE(clash)    DE(int)     intcor
     17.69     -18.97       2.38        0.00      69.20       1.00       0.04       1.25       ----

> <Gold.Chemscore.Fitness>
17.6884

> <Gold.Chemscore.DG>
-18.9702

> <Gold.Chemscore.ZeroCoef>
-5.4800

> <Gold.Chemscore.Hbond>
2.3812

> <Gold.Chemscore.Metal>
0.0000

> <Gold.Chemscore.Lipo>
69.2042

> <Gold.Chemscore.Internal_Hbond>
0.0000

> <Gold.Chemscore.DEClash>
0.0366

> <Gold.Chemscore.DEInternal>
1.2452

> <Gold.Chemscore.Rot>
1.0000

> <Gold.Chemscore.Internal.Correction>
   9.000000E+99

> <Gold.Chemscore.Hbonds>
donor molecule, donor type, donor heavy atom, donor atom, acceptor molecule, acceptor atom, score
      L1  H     7    28       P1 10957  0.55
      L1  H    10    29       P1 10957  0.60
      P1  H 11000 11005       L1    12  0.81

> <Gold.Chemscore.Hbond.Weighted>
-7.9533

> <Gold.Chemscore.Metal.Weighted>
-0.0000

> <Gold.Chemscore.Lipo.Weighted>
-8.0969

> <Gold.Chemscore.Internal_Hbond.Weighted>
0.0000

> <Gold.Chemscore.DEClash.Weighted>
0.0366

> <Gold.Chemscore.DEInternal.Weighted>
1.2452

> <Gold.Chemscore.Rot.Weighted>
2.5600

> <Gold.Chemscore.Internal.Correction.Weighted>
   9.000000E+99

> <Gold.Protein.RotatedTorsions>
[ 6907 6896 6895 6894 ] final  -43.23 input  -60.11 | X-H torsion
[ 7974 7965 7964 7962 ] final  163.64 input  175.53 | X-H torsion
[ 8008 7997 7996 7995 ] final  -60.46 input   59.86 | X-H torsion
[ 10167 10162 10161 10158 ] final   45.55 input  -65.29 | X-H torsion
[ 10718 10713 10712 10709 ] final -163.21 input   66.30 | X-H torsion
[ 10763 10752 10751 10750 ] final   45.93 input  -60.55 | X-H torsion
[ 11005 11000 10999 10996 ] final   34.33 input  -57.11 | X-H torsion

> <Gold.Protein.ActiveResidues>
 VAL166  LYS551  ARG553  GLY616  TRP617  ASP618  TYR619  PRO620  LYS621  CYS622 
 ASP623  PHE694  ASN695  SER759  ASP760  ASP761  ALA762  ILE779  LEU786  VAL792 
 PHE793  MET794  SER795  GLU796  ALA797  LYS798  CYS799  TRP800  GLU811  SER814 

> <Gold.Protein.RotatedAtoms>
  150.9462  134.8867  159.7643 H   0  0  0  0  0  0  0  0  0  0  0  0  # atno 6907 bound_to 6896
  152.5101  134.3871  159.9381 H   0  0  0  0  0  0  0  0  0  0  0  0  # atno 6908 bound_to 6896
  151.3889  133.3755  159.2753 H   0  0  0  0  0  0  0  0  0  0  0  0  # atno 6909 bound_to 6896
  144.7581  139.8211  143.6342 H   0  0  0  0  0  0  0  0  0  0  0  0  # atno 7974 bound_to 7965
  154.4400  140.1039  156.6277 H   0  0  0  0  0  0  0  0  0  0  0  0  # atno 8008 bound_to 7997
  155.5638  140.3488  155.4479 H   0  0  0  0  0  0  0  0  0  0  0  0  # atno 8009 bound_to 7997
  156.0440  140.1288  157.0114 H   0  0  0  0  0  0  0  0  0  0  0  0  # atno 8010 bound_to 7997
  140.3230  144.2682  150.6180 H   0  0  0  0  0  0  0  0  0  0  0  0  # atno 10167 bound_to 10162
  156.6214  130.8892  151.2958 H   0  0  0  0  0  0  0  0  0  0  0  0  # atno 10718 bound_to 10713
  152.9817  135.6024  154.3518 H   0  0  0  0  0  0  0  0  0  0  0  0  # atno 10763 bound_to 10752
  154.3206  135.2770  155.2523 H   0  0  0  0  0  0  0  0  0  0  0  0  # atno 10764 bound_to 10752
  154.4691  135.5946  153.6365 H   0  0  0  0  0  0  0  0  0  0  0  0  # atno 10765 bound_to 10752
  140.2539  134.3271  155.7880 H   0  0  0  0  0  0  0  0  0  0  0  0  # atno 11005 bound_to 11000
  146.1613  139.4729  142.9986 LP  0  0  0  0  0  0  0  0  0  0  0  0  # atno 17320 bound_to 7965
  145.6712  141.0216  143.1656 LP  0  0  0  0  0  0  0  0  0  0  0  0  # atno 17321 bound_to 7965
  140.5467  143.2213  151.7996 LP  0  0  0  0  0  0  0  0  0  0  0  0  # atno 17342 bound_to 10162
  139.4870  144.4530  151.9631 LP  0  0  0  0  0  0  0  0  0  0  0  0  # atno 17343 bound_to 10162
  157.7226  130.9579  150.1502 LP  0  0  0  0  0  0  0  0  0  0  0  0  # atno 17370 bound_to 10713
  156.2308  130.3682  149.8447 LP  0  0  0  0  0  0  0  0  0  0  0  0  # atno 17371 bound_to 10713
  141.2198  133.7369  156.9080 LP  0  0  0  0  0  0  0  0  0  0  0  0  # atno 17394 bound_to 11000
  140.1531  134.9217  157.2618 LP  0  0  0  0  0  0  0  0  0  0  0  0  # atno 17395 bound_to 11000

$$$$
