AV-unprocessed.smi:2527|AV-procd|sdf|9944|dock3
  -GOLD-   2272013583D 1   1.00000     0.00000
 Structure written by MMmdl.
 37 39  0  0  0  0  0  0  0  0  2 V2000
  139.9284  138.1298  153.4482 C   0  0  0  0  0  0  0  0  0  0  0  0
  141.0269  137.6104  154.1760 O   0  0  0  0  0  0  0  0  0  0  0  0
  142.1739  137.4147  153.3651 C   0  0  0  0  0  0  0  0  0  0  0  0
  142.9026  136.1323  153.7911 C   0  0  0  0  0  0  0  0  0  0  0  0
  144.1768  135.9516  153.0797 N   0  0  0  0  0  0  0  0  0  0  0  0
  145.3205  136.6901  153.1241 C   0  0  0  0  0  0  0  0  0  0  0  0
  145.5885  138.1359  154.1001 S   0  0  0  0  0  0  0  0  0  0  0  0
  147.0362  138.9592  153.3833 C   0  0  0  0  0  0  0  0  0  0  0  0
  147.1847  140.4095  153.7914 C   0  0  0  0  0  0  0  0  0  0  0  0
  146.0980  141.2315  153.6318 N   0  0  0  0  0  0  0  0  0  0  0  0
  146.4759  142.4304  154.0587 C   0  0  0  0  0  0  0  0  0  0  0  0
  145.8090  143.4617  154.0929 O   0  0  0  0  0  0  0  0  0  0  0  0
  147.7466  142.2614  154.4437 N   0  0  0  0  0  0  0  0  0  0  0  0
  148.2157  140.9984  154.2872 N   0  0  0  0  0  0  0  0  0  0  0  0
  146.2203  136.1095  152.2824 N   0  3  0  0  0  0  0  0  0  0  0  0
  145.6477  134.9797  151.6954 C   0  0  0  0  0  0  0  0  0  0  0  0
  146.1659  134.0665  150.7823 C   0  0  0  0  0  0  0  0  0  0  0  0
  145.3160  133.0130  150.3855 C   0  0  0  0  0  0  0  0  0  0  0  0
  145.8916  131.8418  149.2574 Cl  0  0  0  0  0  0  0  0  0  0  0  0
  144.0058  132.8989  150.8948 C   0  0  0  0  0  0  0  0  0  0  0  0
  143.4894  133.8315  151.8181 C   0  0  0  0  0  0  0  0  0  0  0  0
  144.3361  134.8704  152.2042 C   0  0  0  0  0  0  0  0  0  0  0  0
  148.3563  142.9703  154.8256 H   0  0  0  0  0  0  0  0  0  0  0  0
  145.1971  140.9674  153.2611 H   0  0  0  0  0  0  0  0  0  0  0  0
  139.0747  138.2552  154.1140 H   0  0  0  0  0  0  0  0  0  0  0  0
  139.6325  137.4545  152.6444 H   0  0  0  0  0  0  0  0  0  0  0  0
  140.1660  139.1036  153.0184 H   0  0  0  0  0  0  0  0  0  0  0  0
  141.8812  137.3407  152.3167 H   0  0  0  0  0  0  0  0  0  0  0  0
  142.8456  138.2699  153.4561 H   0  0  0  0  0  0  0  0  0  0  0  0
  143.0856  136.1242  154.8657 H   0  0  0  0  0  0  0  0  0  0  0  0
  142.2791  135.2626  153.5817 H   0  0  0  0  0  0  0  0  0  0  0  0
  147.9276  138.4006  153.6710 H   0  0  0  0  0  0  0  0  0  0  0  0
  146.9681  138.9068  152.2965 H   0  0  0  0  0  0  0  0  0  0  0  0
  147.1700  134.1512  150.3929 H   0  0  0  0  0  0  0  0  0  0  0  0
  143.3823  132.0777  150.5721 H   0  0  0  0  0  0  0  0  0  0  0  0
  142.4862  133.7287  152.2048 H   0  0  0  0  0  0  0  0  0  0  0  0
  147.1560  136.4599  152.1247 H   0  0  0  0  0  0  0  0  0  0  0  0
  1  2  1  0  0  0  0
  1 25  1  0  0  0  0
  1 26  1  0  0  0  0
  1 27  1  0  0  0  0
  2  3  1  0  0  0  0
  3  4  1  0  0  0  0
  3 28  1  0  0  0  0
  3 29  1  0  0  0  0
  4  5  1  0  0  0  0
  4 30  1  0  0  0  0
  4 31  1  0  0  0  0
  5 22  1  0  0  0  0
  5  6  1  0  0  0  0
  6  7  1  0  0  0  0
  6 15  2  0  0  0  0
  7  8  1  0  0  0  0
  8 32  1  0  0  0  0
  8 33  1  0  0  0  0
  8  9  1  0  0  0  0
  9 14  2  0  0  0  0
  9 10  1  0  0  0  0
 10 11  1  0  0  0  0
 10 24  1  0  0  0  0
 11 13  1  0  0  0  0
 11 12  2  0  0  0  0
 13 14  1  0  0  0  0
 13 23  1  0  0  0  0
 15 16  1  0  0  0  0
 15 37  1  0  0  0  0
 16 22  2  0  0  0  0
 16 17  1  0  0  0  0
 17 18  2  0  0  0  0
 17 34  1  0  0  0  0
 18 19  1  0  0  0  0
 18 20  1  0  0  0  0
 20 21  2  0  0  0  0
 20 35  1  0  0  0  0
 21 22  1  0  0  0  0
 21 36  1  0  0  0  0
M  CHG  1  15   1
M  END
> <s_m_source_file>
AV-unprocessed.smi

> <i_m_source_file_index>
2527

> <i_lp_mmshare_version>
43012

> <i_f3d_flags>
0

> <s_epik_input>
W2NIXTFjKENsKVtjSF1bY0hdYyhjMTIpbihbQ0gyXVtDSDJdT1tDSDNdKWMobjIpU1tDSDJdYzNuYyg9TylbbkhdW25IXTM=

> <s_epik_cmdline>
J2VwaWtfcHl0aG9uJywgJy1waCcsICc3LjAnLCAnLXRuJywgJzgnLCAnLW1hJywgJzIwMCcsICctbWV0YWxfYmluZGluZycsICctaW1hZScsICc8aW5maWxlLm1hZT4nLCAnLW9tYWUnLCAnPG91dGZpbGUubWFlPic=

> <r_lp_tautomer_probability>
0.999897

> <r_epik_Ionization_Penalty>
2.55529

> <r_epik_Ionization_Penalty_Charging>
2.55529

> <r_epik_Ionization_Penalty_Neutral>
1.25843e-08

> <r_epik_State_Penalty>
2.65345

> <r_epik_Charging_Adjusted_Penalty>
5.20874

> <i_epik_Tot_Q>
1

> <i_epik_Tot_abs_Q>
1

> <r_epik_Metal_State_Penalty>
3.01692

> <b_epik_Metal_Only>
0

> <s_lp_Force_Field>
OPLS_2005

> <r_lp_Energy>
34.0124

> <b_lp_Chiralities_Consistent>
1

> <s_lp_Variant>
AV-unprocessed.smi:2527-3

> <Gold.Version>
5.8.1

> <Gold.Id.Protein>
6NUR|6NUR_protein|mol2

> <Gold.PLP.Fitness>
50.0336

> <Gold.PLP.PLP>
-39.2941

> <Gold.PLP.part.hbond>
-3.0858

> <Gold.PLP.part.metal>
0.0000

> <Gold.PLP.part.buried>
-8.9093

> <Gold.PLP.part.nonpolar>
-28.3649

> <Gold.PLP.part.repulsive>
0.7118

> <Gold.PLP.ligand.clash>
0.0000

> <Gold.PLP.ligand.torsion>
0.6734

> <Gold.PLP.Chemscore.Hbond>
4.0000

> <Gold.PLP.Chemscore.CHOScore>
0.0000

> <Gold.PLP.Chemscore.Metal>
0.0000

> <Gold.Chemscore.Hbonds>
donor molecule, donor type, donor heavy atom, donor atom, acceptor molecule, acceptor atom, score
      L1  H    10    24       P1 10175  1.00
      L1  H    13    23       P1  8028  1.00
      L1  H    15    37       P1  7948  2.00

> <Gold.PLP.Chemscore.Internal.Correction>
0.0863

> <Gold.Rescore>
     Score         DG    S(hbond)    S(metal)    S(lipo)     H(rot)  DE(clash)    DE(int)     intcor
     14.86     -16.08       2.79        0.00      74.85       2.93       0.18       1.04       ----

> <Gold.Chemscore.Fitness>
14.8635

> <Gold.Chemscore.DG>
-16.0777

> <Gold.Chemscore.ZeroCoef>
-5.4800

> <Gold.Chemscore.Hbond>
2.7944

> <Gold.Chemscore.Metal>
0.0000

> <Gold.Chemscore.Lipo>
74.8518

> <Gold.Chemscore.Internal_Hbond>
0.0000

> <Gold.Chemscore.DEClash>
0.1753

> <Gold.Chemscore.DEInternal>
1.0390

> <Gold.Chemscore.Rot>
2.9270

> <Gold.Chemscore.Internal.Correction>
   9.000000E+99

> <Gold.Chemscore.Hbonds>
donor molecule, donor type, donor heavy atom, donor atom, acceptor molecule, acceptor atom, score
      L1  H    10    24       P1 10175  0.50
      L1  H    13    23       P1  8028  0.96
      L1  H    15    37       P1  7948  0.96

> <Gold.Chemscore.Hbond.Weighted>
-9.3333

> <Gold.Chemscore.Metal.Weighted>
-0.0000

> <Gold.Chemscore.Lipo.Weighted>
-8.7577

> <Gold.Chemscore.Internal_Hbond.Weighted>
0.0000

> <Gold.Chemscore.DEClash.Weighted>
0.1753

> <Gold.Chemscore.DEInternal.Weighted>
1.0390

> <Gold.Chemscore.Rot.Weighted>
7.4932

> <Gold.Chemscore.Internal.Correction.Weighted>
   9.000000E+99

> <Gold.Protein.RotatedTorsions>
[ 6907 6896 6895 6894 ] final  179.67 input  -60.11 | X-H torsion
[ 7974 7965 7964 7962 ] final -170.76 input  175.53 | X-H torsion
[ 8008 7997 7996 7995 ] final  -76.32 input   59.86 | X-H torsion
[ 10167 10162 10161 10158 ] final  135.71 input  -65.29 | X-H torsion
[ 10718 10713 10712 10709 ] final   94.19 input   66.30 | X-H torsion
[ 10763 10752 10751 10750 ] final  -94.88 input  -60.55 | X-H torsion
[ 11005 11000 10999 10996 ] final -104.47 input  -57.11 | X-H torsion

> <Gold.Protein.ActiveResidues>
 VAL166  LYS551  ARG553  GLY616  TRP617  ASP618  TYR619  PRO620  LYS621  CYS622 
 ASP623  PHE694  ASN695  SER759  ASP760  ASP761  ALA762  ILE779  LEU786  VAL792 
 PHE793  MET794  SER795  GLU796  ALA797  LYS798  CYS799  TRP800  GLU811  SER814 

> <Gold.Protein.RotatedAtoms>
  151.6679  133.3315  159.3189 H   0  0  0  0  0  0  0  0  0  0  0  0  # atno 6907 bound_to 6896
  150.7882  134.6888  159.6494 H   0  0  0  0  0  0  0  0  0  0  0  0  # atno 6908 bound_to 6896
  152.3956  134.6374  160.0142 H   0  0  0  0  0  0  0  0  0  0  0  0  # atno 6909 bound_to 6896
  144.7165  140.2023  143.6337 H   0  0  0  0  0  0  0  0  0  0  0  0  # atno 7974 bound_to 7965
  154.5495  140.0729  156.8644 H   0  0  0  0  0  0  0  0  0  0  0  0  # atno 8008 bound_to 7997
  155.3021  140.3385  155.4229 H   0  0  0  0  0  0  0  0  0  0  0  0  # atno 8009 bound_to 7997
  156.1948  140.1699  156.8005 H   0  0  0  0  0  0  0  0  0  0  0  0  # atno 8010 bound_to 7997
  139.5207  144.6502  151.5323 H   0  0  0  0  0  0  0  0  0  0  0  0  # atno 10167 bound_to 10162
  157.6950  131.0504  150.4148 H   0  0  0  0  0  0  0  0  0  0  0  0  # atno 10718 bound_to 10713
  154.7096  135.5141  153.8647 H   0  0  0  0  0  0  0  0  0  0  0  0  # atno 10763 bound_to 10752
  153.0770  135.6619  154.0135 H   0  0  0  0  0  0  0  0  0  0  0  0  # atno 10764 bound_to 10752
  153.9979  135.3013  155.3385 H   0  0  0  0  0  0  0  0  0  0  0  0  # atno 10765 bound_to 10752
  141.1099  133.8726  157.1615 H   0  0  0  0  0  0  0  0  0  0  0  0  # atno 11005 bound_to 11000
  145.8668  139.2251  143.1684 LP  0  0  0  0  0  0  0  0  0  0  0  0  # atno 17320 bound_to 7965
  146.0122  140.8425  142.9965 LP  0  0  0  0  0  0  0  0  0  0  0  0  # atno 17321 bound_to 7965
  140.6304  143.9086  150.6601 LP  0  0  0  0  0  0  0  0  0  0  0  0  # atno 17342 bound_to 10162
  140.2389  143.3679  152.1503 LP  0  0  0  0  0  0  0  0  0  0  0  0  # atno 17343 bound_to 10162
  156.4529  130.4015  149.6624 LP  0  0  0  0  0  0  0  0  0  0  0  0  # atno 17370 bound_to 10713
  156.3767  130.7558  151.2547 LP  0  0  0  0  0  0  0  0  0  0  0  0  # atno 17371 bound_to 10713
  139.9987  135.0036  157.0141 LP  0  0  0  0  0  0  0  0  0  0  0  0  # atno 17394 bound_to 11000
  140.4804  134.1295  155.7216 LP  0  0  0  0  0  0  0  0  0  0  0  0  # atno 17395 bound_to 11000

$$$$
