AV-unprocessed.smi:2414|AV-procd|sdf|9540|dock9
  -GOLD-   2272013173D 1   1.00000     0.00000
 Structure written by MMmdl.
 43 44  0  0  0  0  0  0  0  0  1 V2000
  152.0352  143.1978  159.0348 C   0  0  0  0  0  0  0  0  0  0  0  0
  151.6900  142.3050  157.8914 C   0  0  0  0  0  0  0  0  0  0  0  0
  151.0630  142.6526  156.7207 C   0  0  0  0  0  0  0  0  0  0  0  0
  150.8769  141.5838  155.8415 N   0  0  0  0  0  0  0  0  0  0  0  0
  151.3558  140.4340  156.3247 C   0  0  0  0  0  0  0  0  0  0  0  0
  151.2762  139.1273  155.5947 C   0  0  2  0  0  0  0  0  0  0  0  0
  152.5015  138.8928  154.6994 C   0  0  0  0  0  0  0  0  0  0  0  0
  149.9415  138.9344  154.8489 C   0  0  0  0  0  0  0  0  0  0  0  0
  149.7736  137.5610  154.3872 N   0  0  0  0  0  0  0  0  0  0  0  0
  150.0242  136.4771  155.1315 C   0  0  0  0  0  0  0  0  0  0  0  0
  150.4147  136.5196  156.2983 O   0  0  0  0  0  0  0  0  0  0  0  0
  149.7962  135.3464  154.4506 N   0  0  0  0  0  0  0  0  0  0  0  0
  149.9508  133.9932  154.9764 C   0  0  0  0  0  0  0  0  0  0  0  0
  148.8504  133.0467  154.4503 C   0  0  2  0  0  0  0  0  0  0  0  0
  148.9591  131.6282  155.0431 C   0  0  0  0  0  0  0  0  0  0  0  0
  148.8302  133.0033  152.9115 C   0  0  0  0  0  0  0  0  0  0  0  0
  147.3540  133.0152  152.5804 C   0  0  0  0  0  0  0  0  0  0  0  0
  146.8147  133.9198  153.6776 C   0  0  0  0  0  0  0  0  0  0  0  0
  147.5730  133.5680  154.8276 O   0  0  0  0  0  0  0  0  0  0  0  0
  152.0754  140.6040  157.9220 S   0  0  0  0  0  0  0  0  0  0  0  0
  151.1925  143.8394  159.2931 H   0  0  0  0  0  0  0  0  0  0  0  0
  152.8816  143.8369  158.7831 H   0  0  0  0  0  0  0  0  0  0  0  0
  152.3002  142.6201  159.9204 H   0  0  0  0  0  0  0  0  0  0  0  0
  150.7148  143.6335  156.4322 H   0  0  0  0  0  0  0  0  0  0  0  0
  151.3120  138.3520  156.3616 H   0  0  0  0  0  0  0  0  0  0  0  0
  153.4245  138.9355  155.2785 H   0  0  0  0  0  0  0  0  0  0  0  0
  152.5670  139.6440  153.9117 H   0  0  0  0  0  0  0  0  0  0  0  0
  152.4566  137.9141  154.2212 H   0  0  0  0  0  0  0  0  0  0  0  0
  149.1111  139.1865  155.5107 H   0  0  0  0  0  0  0  0  0  0  0  0
  149.8860  139.6128  153.9961 H   0  0  0  0  0  0  0  0  0  0  0  0
  149.4563  137.4299  153.4379 H   0  0  0  0  0  0  0  0  0  0  0  0
  149.4775  135.4227  153.4956 H   0  0  0  0  0  0  0  0  0  0  0  0
  150.9350  133.6285  154.6804 H   0  0  0  0  0  0  0  0  0  0  0  0
  149.9349  133.9915  156.0676 H   0  0  0  0  0  0  0  0  0  0  0  0
  149.9206  131.1744  154.8015 H   0  0  0  0  0  0  0  0  0  0  0  0
  148.1779  130.9760  154.6518 H   0  0  0  0  0  0  0  0  0  0  0  0
  148.8588  131.6337  156.1286 H   0  0  0  0  0  0  0  0  0  0  0  0
  149.2947  133.8974  152.4932 H   0  0  0  0  0  0  0  0  0  0  0  0
  149.3508  132.1401  152.4950 H   0  0  0  0  0  0  0  0  0  0  0  0
  147.1410  133.3857  151.5775 H   0  0  0  0  0  0  0  0  0  0  0  0
  146.9347  132.0127  152.6745 H   0  0  0  0  0  0  0  0  0  0  0  0
  146.9997  134.9677  153.4369 H   0  0  0  0  0  0  0  0  0  0  0  0
  145.7455  133.7897  153.8458 H   0  0  0  0  0  0  0  0  0  0  0  0
  1  2  1  0  0  0  0
  1 21  1  0  0  0  0
  1 22  1  0  0  0  0
  1 23  1  0  0  0  0
  2 20  1  0  0  0  0
  2  3  2  0  0  0  0
  3  4  1  0  0  0  0
  3 24  1  0  0  0  0
  4  5  2  0  0  0  0
  5  6  1  0  0  0  0
  5 20  1  0  0  0  0
  6  7  1  0  0  0  0
  6  8  1  0  0  0  0
  6 25  1  0  0  0  0
  7 26  1  0  0  0  0
  7 27  1  0  0  0  0
  7 28  1  0  0  0  0
  8  9  1  0  0  0  0
  8 29  1  0  0  0  0
  8 30  1  0  0  0  0
  9 10  1  0  0  0  0
  9 31  1  0  0  0  0
 10 11  2  0  0  0  0
 10 12  1  0  0  0  0
 12 13  1  0  0  0  0
 12 32  1  0  0  0  0
 13 14  1  0  0  0  0
 13 33  1  0  0  0  0
 13 34  1  0  0  0  0
 14 19  1  0  0  0  0
 14 15  1  0  0  0  0
 14 16  1  0  0  0  0
 15 35  1  0  0  0  0
 15 36  1  0  0  0  0
 15 37  1  0  0  0  0
 16 17  1  0  0  0  0
 16 38  1  0  0  0  0
 16 39  1  0  0  0  0
 17 18  1  0  0  0  0
 17 40  1  0  0  0  0
 17 41  1  0  0  0  0
 18 19  1  0  0  0  0
 18 42  1  0  0  0  0
 18 43  1  0  0  0  0
M  END
> <s_m_source_file>
AV-unprocessed.smi

> <i_m_source_file_index>
2414

> <i_lp_mmshare_version>
43012

> <i_f3d_flags>
0

> <s_epik_input>
W0NIM11jMVtjSF1uYyhzMSlbQ0BIXShbQ0gzXSlbQ0gyXVtOSF1DKD1PKVtOSF1bQ0gyXVtDQEBdMihbQ0gzXSlbQ0gyXVtDSDJdW0NIMl1PMg==

> <s_epik_cmdline>
J2VwaWtfcHl0aG9uJywgJy1waCcsICc3LjAnLCAnLXRuJywgJzgnLCAnLW1hJywgJzIwMCcsICctbWV0YWxfYmluZGluZycsICctaW1hZScsICc8aW5maWxlLm1hZT4nLCAnLW9tYWUnLCAnPG91dGZpbGUubWFlPic=

> <r_epik_Ionization_Penalty>
0.000646956

> <r_epik_Ionization_Penalty_Charging>
0

> <r_epik_Ionization_Penalty_Neutral>
0.000646956

> <r_epik_State_Penalty>
0.000375727

> <r_epik_Charging_Adjusted_Penalty>
0.000375727

> <i_epik_Tot_Q>
0

> <i_epik_Tot_abs_Q>
0

> <r_epik_Metal_State_Penalty>
-0

> <b_epik_Metal_Only>
0

> <s_lp_Force_Field>
OPLS_2005

> <r_lp_Energy>
9.0626

> <b_lp_Chiralities_Consistent>
1

> <s_lp_Variant>
AV-unprocessed.smi:2414-3

> <Gold.Version>
5.8.1

> <Gold.Id.Protein>
6NUR|6NUR_protein|mol2

> <Gold.PLP.Fitness>
42.2516

> <Gold.PLP.PLP>
-35.6515

> <Gold.PLP.part.hbond>
-2.3014

> <Gold.PLP.part.metal>
0.0000

> <Gold.PLP.part.buried>
-3.2184

> <Gold.PLP.part.nonpolar>
-30.1541

> <Gold.PLP.part.repulsive>
0.1959

> <Gold.PLP.ligand.clash>
0.0000

> <Gold.PLP.ligand.torsion>
0.9576

> <Gold.PLP.Chemscore.Hbond>
1.8000

> <Gold.PLP.Chemscore.CHOScore>
1.0000

> <Gold.PLP.Chemscore.Metal>
0.0000

> <Gold.Chemscore.Hbonds>
donor molecule, donor type, donor heavy atom, donor atom, acceptor molecule, acceptor atom, score
      L1  H     9    31       P1  7948  1.00
      L1  H    12    32       P1  7948  0.80
      L1  C     3    24       P1  8028  1.00

> <Gold.PLP.Chemscore.Internal.Correction>
0.1152

> <Gold.Rescore>
     Score         DG    S(hbond)    S(metal)    S(lipo)     H(rot)  DE(clash)    DE(int)     intcor
     14.41     -16.60       1.49        0.00      88.71       1.65       0.01       2.18       ----

> <Gold.Chemscore.Fitness>
14.4137

> <Gold.Chemscore.DG>
-16.6002

> <Gold.Chemscore.ZeroCoef>
-5.4800

> <Gold.Chemscore.Hbond>
1.4883

> <Gold.Chemscore.Metal>
0.0000

> <Gold.Chemscore.Lipo>
88.7077

> <Gold.Chemscore.Internal_Hbond>
0.0000

> <Gold.Chemscore.DEClash>
0.0106

> <Gold.Chemscore.DEInternal>
2.1760

> <Gold.Chemscore.Rot>
1.6522

> <Gold.Chemscore.Internal.Correction>
   9.000000E+99

> <Gold.Chemscore.Hbonds>
donor molecule, donor type, donor heavy atom, donor atom, acceptor molecule, acceptor atom, score
      L1  H     9    31       P1  7948  0.87
      L1  H    12    32       P1  7948  0.12

> <Gold.Chemscore.Hbond.Weighted>
-4.9710

> <Gold.Chemscore.Metal.Weighted>
-0.0000

> <Gold.Chemscore.Lipo.Weighted>
-10.3788

> <Gold.Chemscore.Internal_Hbond.Weighted>
0.0000

> <Gold.Chemscore.DEClash.Weighted>
0.0106

> <Gold.Chemscore.DEInternal.Weighted>
2.1760

> <Gold.Chemscore.Rot.Weighted>
4.2295

> <Gold.Chemscore.Internal.Correction.Weighted>
   9.000000E+99

> <Gold.Protein.RotatedTorsions>
[ 6907 6896 6895 6894 ] final   55.78 input  -60.11 | X-H torsion
[ 7974 7965 7964 7962 ] final  -46.63 input  175.53 | X-H torsion
[ 8008 7997 7996 7995 ] final  -35.86 input   59.86 | X-H torsion
[ 10167 10162 10161 10158 ] final   33.22 input  -65.29 | X-H torsion
[ 10718 10713 10712 10709 ] final  103.69 input   66.30 | X-H torsion
[ 10763 10752 10751 10750 ] final  116.64 input  -60.55 | X-H torsion
[ 11005 11000 10999 10996 ] final  -68.29 input  -57.11 | X-H torsion

> <Gold.Protein.ActiveResidues>
 VAL166  LYS551  ARG553  GLY616  TRP617  ASP618  TYR619  PRO620  LYS621  CYS622 
 ASP623  PHE694  ASN695  SER759  ASP760  ASP761  ALA762  ILE779  LEU786  VAL792 
 PHE793  MET794  SER795  GLU796  ALA797  LYS798  CYS799  TRP800  GLU811  SER814 

> <Gold.Protein.RotatedAtoms>
  152.3572  134.6924  160.0218 H   0  0  0  0  0  0  0  0  0  0  0  0  # atno 6907 bound_to 6896
  151.7259  133.3310  159.3335 H   0  0  0  0  0  0  0  0  0  0  0  0  # atno 6908 bound_to 6896
  150.7579  134.6341  159.6246 H   0  0  0  0  0  0  0  0  0  0  0  0  # atno 6909 bound_to 6896
  145.9699  140.7394  142.9415 H   0  0  0  0  0  0  0  0  0  0  0  0  # atno 7974 bound_to 7965
  154.4086  140.1646  156.2279 H   0  0  0  0  0  0  0  0  0  0  0  0  # atno 8008 bound_to 7997
  155.9307  140.3415  155.6224 H   0  0  0  0  0  0  0  0  0  0  0  0  # atno 8009 bound_to 7997
  155.7109  140.0756  157.2362 H   0  0  0  0  0  0  0  0  0  0  0  0  # atno 8010 bound_to 7997
  140.4427  144.1164  150.6177 H   0  0  0  0  0  0  0  0  0  0  0  0  # atno 10167 bound_to 10162
  157.6764  131.0785  150.5593 H   0  0  0  0  0  0  0  0  0  0  0  0  # atno 10718 bound_to 10713
  153.5403  135.3560  155.2715 H   0  0  0  0  0  0  0  0  0  0  0  0  # atno 10763 bound_to 10752
  154.8718  135.4089  154.3051 H   0  0  0  0  0  0  0  0  0  0  0  0  # atno 10764 bound_to 10752
  153.3757  135.7066  153.6672 H   0  0  0  0  0  0  0  0  0  0  0  0  # atno 10765 bound_to 10752
  141.1528  133.6737  156.6423 H   0  0  0  0  0  0  0  0  0  0  0  0  # atno 11005 bound_to 11000
  144.6834  140.2731  143.7303 LP  0  0  0  0  0  0  0  0  0  0  0  0  # atno 17320 bound_to 7965
  145.7921  139.1931  143.2097 LP  0  0  0  0  0  0  0  0  0  0  0  0  # atno 17321 bound_to 7965
  140.4299  143.2573  151.9608 LP  0  0  0  0  0  0  0  0  0  0  0  0  # atno 17342 bound_to 10162
  139.4790  144.5753  151.8021 LP  0  0  0  0  0  0  0  0  0  0  0  0  # atno 17343 bound_to 10162
  156.5896  130.4325  149.5942 LP  0  0  0  0  0  0  0  0  0  0  0  0  # atno 17370 bound_to 10713
  156.2594  130.6954  151.1717 LP  0  0  0  0  0  0  0  0  0  0  0  0  # atno 17371 bound_to 10713
  140.3384  134.7870  157.4379 LP  0  0  0  0  0  0  0  0  0  0  0  0  # atno 17394 bound_to 11000
  140.0958  134.5539  155.8400 LP  0  0  0  0  0  0  0  0  0  0  0  0  # atno 17395 bound_to 11000

$$$$
