AV-unprocessed.smi:890|AV-procd|sdf|4060|dock5
  -GOLD-   22720 1553D 1   1.00000     0.00000
 Structure written by MMmdl.
 53 56  0  0  0  0  0  0  0  0  3 V2000
  146.8885  137.2328  153.2868 O   0  0  0  0  0  0  0  0  0  0  0  0
  146.1682  138.1819  152.9828 C   0  0  0  0  0  0  0  0  0  0  0  0
  146.4102  139.4745  153.2628 N   0  0  0  0  0  0  0  0  0  0  0  0
  147.5196  140.0799  153.9271 C   0  0  0  0  0  0  0  0  0  0  0  0
  148.7908  139.4626  154.0692 C   0  0  0  0  0  0  0  0  0  0  0  0
  149.8292  140.1414  154.7374 C   0  0  0  0  0  0  0  0  0  0  0  0
  149.5884  141.4273  155.2529 C   0  0  0  0  0  0  0  0  0  0  0  0
  148.3725  141.9904  155.0997 N   0  3  0  0  0  0  0  0  0  0  0  0
  147.3404  141.3814  154.4658 C   0  0  0  0  0  0  0  0  0  0  0  0
  146.1137  142.0609  154.3640 N   0  0  0  0  0  0  0  0  0  0  0  0
  146.1624  143.3498  153.6943 C   0  0  0  0  0  0  0  0  0  0  0  0
  144.8343  144.0292  154.0326 C   0  0  0  0  0  0  0  0  0  0  0  0
  144.3773  143.3662  155.3377 C   0  0  0  0  0  0  0  0  0  0  0  0
  145.4271  142.2879  155.6251 C   0  0  0  0  0  0  0  0  0  0  0  0
  145.0131  138.0423  152.3163 N   0  0  0  0  0  0  0  0  0  0  0  0
  144.4714  136.7761  151.8302 C   0  0  2  0  0  0  0  0  0  0  0  0
  144.0984  135.8763  153.0200 C   0  0  0  0  0  0  0  0  0  0  0  0
  143.5963  134.5040  152.5400 C   0  0  0  0  0  0  0  0  0  0  0  0
  144.6064  133.8379  151.6807 N   0  3  1  0  0  0  0  0  0  0  0  0
  144.1957  132.4694  151.2981 C   0  0  0  0  0  0  0  0  0  0  0  0
  144.9431  131.9237  150.1035 C   0  0  0  0  0  0  0  0  0  0  0  0
  143.5131  132.3923  149.9522 C   0  0  0  0  0  0  0  0  0  0  0  0
  144.9576  134.6678  150.5013 C   0  0  0  0  0  0  0  0  0  0  0  0
  145.4875  136.0463  150.9312 C   0  0  0  0  0  0  0  0  0  0  0  0
  145.6995  140.1224  152.9558 H   0  0  0  0  0  0  0  0  0  0  0  0
  149.0070  138.4817  153.6797 H   0  0  0  0  0  0  0  0  0  0  0  0
  150.7992  139.6795  154.8505 H   0  0  0  0  0  0  0  0  0  0  0  0
  150.3251  142.0189  155.7769 H   0  0  0  0  0  0  0  0  0  0  0  0
  146.9943  143.9478  154.0689 H   0  0  0  0  0  0  0  0  0  0  0  0
  146.2893  143.2309  152.6178 H   0  0  0  0  0  0  0  0  0  0  0  0
  144.9446  145.1097  154.1281 H   0  0  0  0  0  0  0  0  0  0  0  0
  144.1031  143.8385  153.2460 H   0  0  0  0  0  0  0  0  0  0  0  0
  144.3083  144.0799  156.1592 H   0  0  0  0  0  0  0  0  0  0  0  0
  143.3919  142.9180  155.2042 H   0  0  0  0  0  0  0  0  0  0  0  0
  144.9671  141.3695  155.9907 H   0  0  0  0  0  0  0  0  0  0  0  0
  146.1270  142.6389  156.3849 H   0  0  0  0  0  0  0  0  0  0  0  0
  144.4781  138.8740  152.1119 H   0  0  0  0  0  0  0  0  0  0  0  0
  143.5646  136.9744  151.2549 H   0  0  0  0  0  0  0  0  0  0  0  0
  144.9652  135.7376  153.6683 H   0  0  0  0  0  0  0  0  0  0  0  0
  143.3310  136.3571  153.6280 H   0  0  0  0  0  0  0  0  0  0  0  0
  143.3771  133.8746  153.4033 H   0  0  0  0  0  0  0  0  0  0  0  0
  142.6633  134.6174  151.9854 H   0  0  0  0  0  0  0  0  0  0  0  0
  143.8951  131.8089  152.1094 H   0  0  0  0  0  0  0  0  0  0  0  0
  145.7219  132.5386  149.6556 H   0  0  0  0  0  0  0  0  0  0  0  0
  145.1221  130.8508  150.0708 H   0  0  0  0  0  0  0  0  0  0  0  0
  142.7502  131.6279  149.8188 H   0  0  0  0  0  0  0  0  0  0  0  0
  143.3438  133.3180  149.4053 H   0  0  0  0  0  0  0  0  0  0  0  0
  145.7155  134.1561  149.9070 H   0  0  0  0  0  0  0  0  0  0  0  0
  144.0806  134.7853  149.8623 H   0  0  0  0  0  0  0  0  0  0  0  0
  145.7086  136.6439  150.0460 H   0  0  0  0  0  0  0  0  0  0  0  0
  146.4322  135.9210  151.4628 H   0  0  0  0  0  0  0  0  0  0  0  0
  145.4463  133.7438  152.2337 H   0  0  0  0  0  0  0  0  0  0  0  0
  148.2228  142.9245  155.4814 H   0  0  0  0  0  0  0  0  0  0  0  0
  1  2  2  0  0  0  0
  2  3  1  0  0  0  0
  2 15  1  0  0  0  0
  3  4  1  0  0  0  0
  3 25  1  0  0  0  0
  4  9  1  0  0  0  0
  4  5  2  0  0  0  0
  5  6  1  0  0  0  0
  5 26  1  0  0  0  0
  6  7  2  0  0  0  0
  6 27  1  0  0  0  0
  7  8  1  0  0  0  0
  7 28  1  0  0  0  0
  8  9  2  0  0  0  0
  8 53  1  0  0  0  0
  9 10  1  0  0  0  0
 10 14  1  0  0  0  0
 10 11  1  0  0  0  0
 11 12  1  0  0  0  0
 11 29  1  0  0  0  0
 11 30  1  0  0  0  0
 12 13  1  0  0  0  0
 12 31  1  0  0  0  0
 12 32  1  0  0  0  0
 13 14  1  0  0  0  0
 13 33  1  0  0  0  0
 13 34  1  0  0  0  0
 14 35  1  0  0  0  0
 14 36  1  0  0  0  0
 15 16  1  0  0  0  0
 15 37  1  0  0  0  0
 16 24  1  0  0  0  0
 16 17  1  0  0  0  0
 16 38  1  0  0  0  0
 17 18  1  0  0  0  0
 17 39  1  0  0  0  0
 17 40  1  0  0  0  0
 18 19  1  0  0  0  0
 18 41  1  0  0  0  0
 18 42  1  0  0  0  0
 19 20  1  0  0  0  0
 19 23  1  0  0  0  0
 19 52  1  0  0  0  0
 20 22  1  0  0  0  0
 20 21  1  0  0  0  0
 20 43  1  0  0  0  0
 21 22  1  0  0  0  0
 21 44  1  0  0  0  0
 21 45  1  0  0  0  0
 22 46  1  0  0  0  0
 22 47  1  0  0  0  0
 23 24  1  0  0  0  0
 23 48  1  0  0  0  0
 23 49  1  0  0  0  0
 24 50  1  0  0  0  0
 24 51  1  0  0  0  0
M  CHG  1   8   1
M  CHG  1  19   1
M  END
> <s_m_source_file>
AV-unprocessed.smi

> <i_m_source_file_index>
890

> <i_lp_mmshare_version>
43012

> <i_f3d_flags>
0

> <s_epik_input>
W0NIMl0xW0NIMl1bQ0hdMU4oW0NIMl1bQ0gyXTIpW0NIMl1bQ0gyXVtDSF0yW05IXUMoPU8pW05IXWMzW2NIXVtjSF1bY0hdbmMzTjRbQ0gyXVtDSDJdW0NIMl1bQ0gyXTQ=

> <s_epik_cmdline>
J2VwaWtfcHl0aG9uJywgJy1waCcsICc3LjAnLCAnLXRuJywgJzgnLCAnLW1hJywgJzIwMCcsICctbWV0YWxfYmluZGluZycsICctaW1hZScsICc8aW5maWxlLm1hZT4nLCAnLW9tYWUnLCAnPG91dGZpbGUubWFlPic=

> <r_lp_tautomer_probability>
0.999994

> <r_epik_Ionization_Penalty>
1.36901

> <r_epik_Ionization_Penalty_Charging>
1.36899

> <r_epik_Ionization_Penalty_Neutral>
1.88098e-05

> <r_epik_State_Penalty>
1.38441

> <r_epik_Charging_Adjusted_Penalty>
2.7534

> <i_epik_Tot_Q>
2

> <i_epik_Tot_abs_Q>
2

> <r_epik_Metal_State_Penalty>
1.45718

> <b_epik_Metal_Only>
0

> <s_lp_Force_Field>
OPLS_2005

> <r_lp_Energy>
65.7128

> <b_lp_Chiralities_Consistent>
1

> <s_lp_Variant>
AV-unprocessed.smi:890-4

> <Gold.Version>
5.8.1

> <Gold.Id.Protein>
6NUR|6NUR_protein|mol2

> <Gold.PLP.Fitness>
53.4648

> <Gold.PLP.PLP>
-42.4854

> <Gold.PLP.part.hbond>
-4.0000

> <Gold.PLP.part.metal>
0.0000

> <Gold.PLP.part.buried>
-3.4046

> <Gold.PLP.part.nonpolar>
-38.1422

> <Gold.PLP.part.repulsive>
2.9569

> <Gold.PLP.ligand.clash>
0.0000

> <Gold.PLP.ligand.torsion>
0.7957

> <Gold.PLP.Chemscore.Hbond>
3.7611

> <Gold.PLP.Chemscore.CHOScore>
0.0000

> <Gold.PLP.Chemscore.Metal>
0.0000

> <Gold.Chemscore.Hbonds>
donor molecule, donor type, donor heavy atom, donor atom, acceptor molecule, acceptor atom, score
      L1  H     3    25       P1 10175  0.81
      L1  H     8    53       P1  8028  1.92
      L1  H    15    37       P1 10175  1.00

> <Gold.PLP.Chemscore.Internal.Correction>
1.2874

> <Gold.Rescore>
     Score         DG    S(hbond)    S(metal)    S(lipo)     H(rot)  DE(clash)    DE(int)     intcor
     17.16     -22.41       2.57        0.00     100.76       1.35       2.52       2.73       ----

> <Gold.Chemscore.Fitness>
17.1574

> <Gold.Chemscore.DG>
-22.4058

> <Gold.Chemscore.ZeroCoef>
-5.4800

> <Gold.Chemscore.Hbond>
2.5718

> <Gold.Chemscore.Metal>
0.0000

> <Gold.Chemscore.Lipo>
100.7622

> <Gold.Chemscore.Internal_Hbond>
0.0000

> <Gold.Chemscore.DEClash>
2.5194

> <Gold.Chemscore.DEInternal>
2.7291

> <Gold.Chemscore.Rot>
1.3489

> <Gold.Chemscore.Internal.Correction>
   9.000000E+99

> <Gold.Chemscore.Hbonds>
donor molecule, donor type, donor heavy atom, donor atom, acceptor molecule, acceptor atom, score
      L1  H     3    25       P1 10175  0.73
      L1  H     8    53       P1  8028  0.89
      L1  H    15    37       P1 10175  0.99

> <Gold.Chemscore.Hbond.Weighted>
-8.5899

> <Gold.Chemscore.Metal.Weighted>
-0.0000

> <Gold.Chemscore.Lipo.Weighted>
-11.7892

> <Gold.Chemscore.Internal_Hbond.Weighted>
0.0000

> <Gold.Chemscore.DEClash.Weighted>
2.5194

> <Gold.Chemscore.DEInternal.Weighted>
2.7291

> <Gold.Chemscore.Rot.Weighted>
3.4532

> <Gold.Chemscore.Internal.Correction.Weighted>
   9.000000E+99

> <Gold.Protein.RotatedTorsions>
[ 6907 6896 6895 6894 ] final   20.75 input  -60.11 | X-H torsion
[ 7974 7965 7964 7962 ] final  105.81 input  175.53 | X-H torsion
[ 8008 7997 7996 7995 ] final  115.00 input   59.86 | X-H torsion
[ 10167 10162 10161 10158 ] final  133.21 input  -65.29 | X-H torsion
[ 10718 10713 10712 10709 ] final  -82.14 input   66.30 | X-H torsion
[ 10763 10752 10751 10750 ] final  -81.32 input  -60.55 | X-H torsion
[ 11005 11000 10999 10996 ] final  155.37 input  -57.11 | X-H torsion

> <Gold.Protein.ActiveResidues>
 VAL166  LYS551  ARG553  GLY616  TRP617  ASP618  TYR619  PRO620  LYS621  CYS622 
 ASP623  PHE694  ASN695  SER759  ASP760  ASP761  ALA762  ILE779  LEU786  VAL792 
 PHE793  MET794  SER795  GLU796  ALA797  LYS798  CYS799  TRP800  GLU811  SER814 

> <Gold.Protein.RotatedAtoms>
  151.9013  135.0377  160.0506 H   0  0  0  0  0  0  0  0  0  0  0  0  # atno 6907 bound_to 6896
  152.2356  133.5089  159.5249 H   0  0  0  0  0  0  0  0  0  0  0  0  # atno 6908 bound_to 6896
  150.7038  134.1074  159.4030 H   0  0  0  0  0  0  0  0  0  0  0  0  # atno 6909 bound_to 6896
  145.3149  139.2529  143.3743 H   0  0  0  0  0  0  0  0  0  0  0  0  # atno 7974 bound_to 7965
  156.2355  140.2947  156.0301 H   0  0  0  0  0  0  0  0  0  0  0  0  # atno 8008 bound_to 7997
  155.2104  140.0412  157.2949 H   0  0  0  0  0  0  0  0  0  0  0  0  # atno 8009 bound_to 7997
  154.6071  140.2442  155.7724 H   0  0  0  0  0  0  0  0  0  0  0  0  # atno 8010 bound_to 7997
  139.5306  144.6626  151.4964 H   0  0  0  0  0  0  0  0  0  0  0  0  # atno 10167 bound_to 10162
  156.0038  130.4625  150.4060 H   0  0  0  0  0  0  0  0  0  0  0  0  # atno 10718 bound_to 10713
  154.5621  135.5630  153.7017 H   0  0  0  0  0  0  0  0  0  0  0  0  # atno 10763 bound_to 10752
  153.0021  135.6276  154.2230 H   0  0  0  0  0  0  0  0  0  0  0  0  # atno 10764 bound_to 10752
  154.2168  135.2871  155.2919 H   0  0  0  0  0  0  0  0  0  0  0  0  # atno 10765 bound_to 10752
  140.1575  134.8632  157.2532 H   0  0  0  0  0  0  0  0  0  0  0  0  # atno 11005 bound_to 11000
  146.3104  140.3693  142.8672 LP  0  0  0  0  0  0  0  0  0  0  0  0  # atno 17320 bound_to 7965
  144.8986  140.7614  143.5881 LP  0  0  0  0  0  0  0  0  0  0  0  0  # atno 17321 bound_to 7965
  140.6482  143.8751  150.6758 LP  0  0  0  0  0  0  0  0  0  0  0  0  # atno 17342 bound_to 10162
  140.2107  143.3885  152.1720 LP  0  0  0  0  0  0  0  0  0  0  0  0  # atno 17343 bound_to 10162
  157.2126  131.0464  151.2591 LP  0  0  0  0  0  0  0  0  0  0  0  0  # atno 17370 bound_to 10713
  157.3875  130.7264  149.6673 LP  0  0  0  0  0  0  0  0  0  0  0  0  # atno 17371 bound_to 10713
  140.2530  134.3661  155.7435 LP  0  0  0  0  0  0  0  0  0  0  0  0  # atno 17394 bound_to 11000
  141.2206  133.7327  156.8964 LP  0  0  0  0  0  0  0  0  0  0  0  0  # atno 17395 bound_to 11000

$$$$
