AV-unprocessed.smi:738|AV-procd|sdf|3538|dock4
  -GOLD-   22720 0533D 1   1.00000     0.00000
 Structure written by MMmdl.
 35 37  0  0  0  0  0  0  0  0  1 V2000
  143.6899  137.5271  152.0652 N   0  0  0  0  0  0  0  0  0  0  0  0
  144.5610  136.6772  152.6180 C   0  0  0  0  0  0  0  0  0  0  0  0
  144.4284  135.4570  152.5461 O   0  0  0  0  0  0  0  0  0  0  0  0
  145.7581  137.2935  153.2820 C   0  0  0  0  0  0  0  0  0  0  0  0
  146.1208  138.6306  153.0113 C   0  0  0  0  0  0  0  0  0  0  0  0
  147.1950  139.2366  153.5591 N   0  0  0  0  0  0  0  0  0  0  0  0
  147.9781  138.5302  154.4094 C   0  0  0  0  0  0  0  0  0  0  0  0
  149.1044  139.1720  154.9569 N   0  0  0  0  0  0  0  0  0  0  0  0
  150.3435  138.5716  154.4844 C   0  0  0  0  0  0  0  0  0  0  0  0
  151.5176  139.0789  155.3313 C   0  0  0  0  0  0  0  0  0  0  0  0
  151.5874  140.4999  155.2616 O   0  0  0  0  0  0  0  0  0  0  0  0
  150.3831  141.1789  155.6244 C   0  0  2  0  0  0  0  0  0  0  0  0
  150.0501  141.1837  157.1237 C   0  0  0  0  0  0  0  0  0  0  0  0
  148.5251  141.3560  157.2001 C   0  0  0  0  0  0  0  0  0  0  0  0
  147.9955  141.2651  155.7593 C   0  0  0  0  0  0  0  0  0  0  0  0
  149.1252  140.6374  154.9255 C   0  0  2  0  0  0  0  0  0  0  0  0
  147.7079  137.1788  154.7337 C   0  0  0  0  0  0  0  0  0  0  0  0
  148.7111  136.2877  155.8249 Cl  0  0  0  0  0  0  0  0  0  0  0  0
  146.5840  136.5553  154.1583 C   0  0  0  0  0  0  0  0  0  0  0  0
  142.8685  137.1681  151.6002 H   0  0  0  0  0  0  0  0  0  0  0  0
  143.8554  138.5221  152.1081 H   0  0  0  0  0  0  0  0  0  0  0  0
  145.5340  139.2399  152.3392 H   0  0  0  0  0  0  0  0  0  0  0  0
  150.2891  137.4839  154.5430 H   0  0  0  0  0  0  0  0  0  0  0  0
  150.4956  138.8301  153.4356 H   0  0  0  0  0  0  0  0  0  0  0  0
  151.4226  138.7450  156.3646 H   0  0  0  0  0  0  0  0  0  0  0  0
  152.4542  138.6659  154.9567 H   0  0  0  0  0  0  0  0  0  0  0  0
  150.5099  142.2189  155.3203 H   0  0  0  0  0  0  0  0  0  0  0  0
  150.3225  140.2400  157.5944 H   0  0  0  0  0  0  0  0  0  0  0  0
  150.5833  141.9734  157.6535 H   0  0  0  0  0  0  0  0  0  0  0  0
  148.0921  140.5676  157.8167 H   0  0  0  0  0  0  0  0  0  0  0  0
  148.2526  142.3094  157.6536 H   0  0  0  0  0  0  0  0  0  0  0  0
  147.0467  140.7316  155.6963 H   0  0  0  0  0  0  0  0  0  0  0  0
  147.8108  142.2747  155.3905 H   0  0  0  0  0  0  0  0  0  0  0  0
  149.0904  140.9778  153.8895 H   0  0  0  0  0  0  0  0  0  0  0  0
  146.3680  135.5227  154.3915 H   0  0  0  0  0  0  0  0  0  0  0  0
  1  2  1  0  0  0  0
  1 20  1  0  0  0  0
  1 21  1  0  0  0  0
  2  3  2  0  0  0  0
  2  4  1  0  0  0  0
  4 19  1  0  0  0  0
  4  5  2  0  0  0  0
  5  6  1  0  0  0  0
  5 22  1  0  0  0  0
  6  7  2  0  0  0  0
  7  8  1  0  0  0  0
  7 17  1  0  0  0  0
  8 16  1  0  0  0  0
  8  9  1  0  0  0  0
  9 10  1  0  0  0  0
  9 23  1  0  0  0  0
  9 24  1  0  0  0  0
 10 11  1  0  0  0  0
 10 25  1  0  0  0  0
 10 26  1  0  0  0  0
 11 12  1  0  0  0  0
 12 16  1  0  0  0  0
 12 13  1  0  0  0  0
 12 27  1  0  0  0  0
 13 14  1  0  0  0  0
 13 28  1  0  0  0  0
 13 29  1  0  0  0  0
 14 15  1  0  0  0  0
 14 30  1  0  0  0  0
 14 31  1  0  0  0  0
 15 16  1  0  0  0  0
 15 32  1  0  0  0  0
 15 33  1  0  0  0  0
 16 34  1  0  0  0  0
 17 18  1  0  0  0  0
 17 19  2  0  0  0  0
 19 35  1  0  0  0  0
M  END
> <s_m_source_file>
AV-unprocessed.smi

> <i_m_source_file_index>
738

> <i_lp_mmshare_version>
43012

> <i_f3d_flags>
0

> <s_epik_input>
W05IMl1DKD1PKWMxW2NIXW5jKGMoQ2wpW2NIXTEpTihbQ0gyXVtDSDJdTzIpW0NASF0oW0NASF0yMylbQ0gyXVtDSDJdW0NIMl0z

> <s_epik_cmdline>
J2VwaWtfcHl0aG9uJywgJy1waCcsICc3LjAnLCAnLXRuJywgJzgnLCAnLW1hJywgJzIwMCcsICctbWV0YWxfYmluZGluZycsICctaW1hZScsICc8aW5maWxlLm1hZT4nLCAnLW9tYWUnLCAnPG91dGZpbGUubWFlPic=

> <r_lp_tautomer_probability>
1

> <r_epik_Ionization_Penalty>
6.75978e-06

> <r_epik_Ionization_Penalty_Charging>
0

> <r_epik_Ionization_Penalty_Neutral>
6.75978e-06

> <r_epik_State_Penalty>
-0

> <r_epik_Charging_Adjusted_Penalty>
0

> <i_epik_Tot_Q>
0

> <i_epik_Tot_abs_Q>
0

> <r_epik_Metal_State_Penalty>
-0

> <b_epik_Metal_Only>
0

> <s_lp_Force_Field>
OPLS_2005

> <r_lp_Energy>
42.794

> <b_lp_Chiralities_Consistent>
1

> <s_lp_Variant>
AV-unprocessed.smi:738-1

> <Gold.Version>
5.8.1

> <Gold.Id.Protein>
6NUR|6NUR_protein|mol2

> <Gold.PLP.Fitness>
30.7059

> <Gold.PLP.PLP>
-22.9311

> <Gold.PLP.part.hbond>
-2.6883

> <Gold.PLP.part.metal>
0.0000

> <Gold.PLP.part.buried>
-2.1729

> <Gold.PLP.part.nonpolar>
-18.1679

> <Gold.PLP.part.repulsive>
0.4754

> <Gold.PLP.ligand.clash>
0.0000

> <Gold.PLP.ligand.torsion>
0.4200

> <Gold.PLP.Chemscore.Hbond>
1.8160

> <Gold.PLP.Chemscore.CHOScore>
1.0000

> <Gold.PLP.Chemscore.Metal>
0.0000

> <Gold.Chemscore.Hbonds>
donor molecule, donor type, donor heavy atom, donor atom, acceptor molecule, acceptor atom, score
      L1  H     1    21       P1 10175  1.00
      P1  H  7989  7998       L1    11  0.82
      L1  C     5    22       P1 10175  1.00

> <Gold.PLP.Chemscore.Internal.Correction>
0.1669

> <Gold.Rescore>
     Score         DG    S(hbond)    S(metal)    S(lipo)     H(rot)  DE(clash)    DE(int)     intcor
     12.39     -12.88       1.10        0.00      53.75       1.00       0.05       0.45       ----

> <Gold.Chemscore.Fitness>
12.3860

> <Gold.Chemscore.DG>
-12.8814

> <Gold.Chemscore.ZeroCoef>
-5.4800

> <Gold.Chemscore.Hbond>
1.0995

> <Gold.Chemscore.Metal>
0.0000

> <Gold.Chemscore.Lipo>
53.7532

> <Gold.Chemscore.Internal_Hbond>
0.0000

> <Gold.Chemscore.DEClash>
0.0479

> <Gold.Chemscore.DEInternal>
0.4476

> <Gold.Chemscore.Rot>
1.0000

> <Gold.Chemscore.Internal.Correction>
   9.000000E+99

> <Gold.Chemscore.Hbonds>
donor molecule, donor type, donor heavy atom, donor atom, acceptor molecule, acceptor atom, score
      L1  H     1    21       P1 10175  0.99
      P1  H  7989  7998       L1    11  0.10

> <Gold.Chemscore.Hbond.Weighted>
-3.6723

> <Gold.Chemscore.Metal.Weighted>
-0.0000

> <Gold.Chemscore.Lipo.Weighted>
-6.2891

> <Gold.Chemscore.Internal_Hbond.Weighted>
0.0000

> <Gold.Chemscore.DEClash.Weighted>
0.0479

> <Gold.Chemscore.DEInternal.Weighted>
0.4476

> <Gold.Chemscore.Rot.Weighted>
2.5600

> <Gold.Chemscore.Internal.Correction.Weighted>
   9.000000E+99

> <Gold.Protein.RotatedTorsions>
[ 6907 6896 6895 6894 ] final  117.87 input  -60.11 | X-H torsion
[ 7974 7965 7964 7962 ] final   18.78 input  175.53 | X-H torsion
[ 8008 7997 7996 7995 ] final  114.20 input   59.86 | X-H torsion
[ 10167 10162 10161 10158 ] final  129.59 input  -65.29 | X-H torsion
[ 10718 10713 10712 10709 ] final -102.40 input   66.30 | X-H torsion
[ 10763 10752 10751 10750 ] final -171.93 input  -60.55 | X-H torsion
[ 11005 11000 10999 10996 ] final   94.15 input  -57.11 | X-H torsion

> <Gold.Protein.ActiveResidues>
 VAL166  LYS551  ARG553  GLY616  TRP617  ASP618  TYR619  PRO620  LYS621  CYS622 
 ASP623  PHE694  ASN695  SER759  ASP760  ASP761  ALA762  ILE779  LEU786  VAL792 
 PHE793  MET794  SER795  GLU796  ALA797  LYS798  CYS799  TRP800  GLU811  SER814 

> <Gold.Protein.RotatedAtoms>
  152.4582  133.7767  159.6828 H   0  0  0  0  0  0  0  0  0  0  0  0  # atno 6907 bound_to 6896
  150.8516  133.7768  159.3029 H   0  0  0  0  0  0  0  0  0  0  0  0  # atno 6908 bound_to 6896
  151.5361  135.1071  159.9967 H   0  0  0  0  0  0  0  0  0  0  0  0  # atno 6909 bound_to 6896
  146.2173  139.8407  142.8641 H   0  0  0  0  0  0  0  0  0  0  0  0  # atno 7974 bound_to 7965
  156.2306  140.2964  156.0179 H   0  0  0  0  0  0  0  0  0  0  0  0  # atno 8008 bound_to 7997
  155.2235  140.0416  157.2969 H   0  0  0  0  0  0  0  0  0  0  0  0  # atno 8009 bound_to 7997
  154.5990  140.2422  155.7826 H   0  0  0  0  0  0  0  0  0  0  0  0  # atno 8010 bound_to 7997
  139.5470  144.6782  151.4441 H   0  0  0  0  0  0  0  0  0  0  0  0  # atno 10167 bound_to 10162
  156.0227  130.5418  150.7103 H   0  0  0  0  0  0  0  0  0  0  0  0  # atno 10718 bound_to 10713
  154.6250  135.2879  155.0283 H   0  0  0  0  0  0  0  0  0  0  0  0  # atno 10763 bound_to 10752
  154.1464  135.6510  153.4957 H   0  0  0  0  0  0  0  0  0  0  0  0  # atno 10764 bound_to 10752
  153.0253  135.5345  154.7054 H   0  0  0  0  0  0  0  0  0  0  0  0  # atno 10765 bound_to 10752
  139.8802  134.8830  156.3822 H   0  0  0  0  0  0  0  0  0  0  0  0  # atno 11005 bound_to 11000
  145.2902  141.0165  143.3667 LP  0  0  0  0  0  0  0  0  0  0  0  0  # atno 17320 bound_to 7965
  144.9083  139.4561  143.6599 LP  0  0  0  0  0  0  0  0  0  0  0  0  # atno 17321 bound_to 7965
  140.6722  143.8269  150.7013 LP  0  0  0  0  0  0  0  0  0  0  0  0  # atno 17342 bound_to 10162
  140.1697  143.4205  152.2009 LP  0  0  0  0  0  0  0  0  0  0  0  0  # atno 17343 bound_to 10162
  157.4743  131.0896  151.0608 LP  0  0  0  0  0  0  0  0  0  0  0  0  # atno 17370 bound_to 10713
  157.1059  130.6001  149.5471 LP  0  0  0  0  0  0  0  0  0  0  0  0  # atno 17371 bound_to 10713
  140.9390  133.7527  156.0122 LP  0  0  0  0  0  0  0  0  0  0  0  0  # atno 17394 bound_to 11000
  140.8241  134.3255  157.5371 LP  0  0  0  0  0  0  0  0  0  0  0  0  # atno 17395 bound_to 11000

$$$$
