AV-unprocessed.smi:3047|AV-procd|sdf|11624|dock3
  -GOLD-   2272017 13D 1   1.00000     0.00000
 Structure written by MMmdl.
 37 38  0  0  0  0  0  0  0  0  1 V2000
  151.1689  141.6854  156.3468 C   0  0  0  0  0  0  0  0  0  0  0  0
  150.7968  140.0471  155.5945 S   0  0  0  0  0  0  0  0  0  0  0  0
  151.8659  139.7373  154.6330 O   0  0  0  0  0  0  0  0  0  0  0  0
  150.4758  139.0954  156.6691 O   0  0  0  0  0  0  0  0  0  0  0  0
  149.3500  140.3420  154.6826 N   0  0  0  0  0  0  0  0  0  0  0  0
  148.7182  141.6578  154.6263 C   0  0  0  0  0  0  0  0  0  0  0  0
  147.6479  141.5118  153.5488 C   0  0  0  0  0  0  0  0  0  0  0  0
  147.2213  140.0494  153.6492 C   0  0  0  0  0  0  0  0  0  0  0  0
  148.4874  139.2937  154.1074 C   0  0  2  0  0  0  0  0  0  0  0  0
  148.1590  138.1262  155.0513 C   0  0  0  0  0  0  0  0  0  0  0  0
  147.6874  138.3348  156.1698 O   0  0  0  0  0  0  0  0  0  0  0  0
  148.4429  136.8975  154.5971 N   0  0  0  0  0  0  0  0  0  0  0  0
  148.2742  135.6751  155.3684 C   0  0  0  0  0  0  0  0  0  0  0  0
  149.5572  134.8351  155.3292 C   0  0  0  0  0  0  0  0  0  0  0  0
  149.3256  133.5409  154.7208 N   0  0  0  0  0  0  0  0  0  0  0  0
  148.5874  133.2728  153.5756 C   0  0  0  0  0  0  0  0  0  0  0  0
  148.6414  131.9105  153.3838 C   0  0  0  0  0  0  0  0  0  0  0  0
  149.4016  131.3246  154.3936 N   0  0  0  0  0  0  0  0  0  0  0  0
  149.7724  132.3517  155.1473 C   0  0  0  0  0  0  0  0  0  0  0  0
  152.1214  141.6303  156.8732 H   0  0  0  0  0  0  0  0  0  0  0  0
  150.3894  141.9599  157.0552 H   0  0  0  0  0  0  0  0  0  0  0  0
  151.2332  142.4410  155.5646 H   0  0  0  0  0  0  0  0  0  0  0  0
  148.2738  141.8826  155.5965 H   0  0  0  0  0  0  0  0  0  0  0  0
  149.4433  142.4350  154.3841 H   0  0  0  0  0  0  0  0  0  0  0  0
  146.8173  142.2056  153.6809 H   0  0  0  0  0  0  0  0  0  0  0  0
  148.0876  141.6993  152.5682 H   0  0  0  0  0  0  0  0  0  0  0  0
  146.4079  139.9685  154.3716 H   0  0  0  0  0  0  0  0  0  0  0  0
  146.8446  139.6753  152.6966 H   0  0  0  0  0  0  0  0  0  0  0  0
  149.0006  138.9048  153.2263 H   0  0  0  0  0  0  0  0  0  0  0  0
  148.8396  136.8091  153.6726 H   0  0  0  0  0  0  0  0  0  0  0  0
  148.0270  135.9308  156.4002 H   0  0  0  0  0  0  0  0  0  0  0  0
  147.4356  135.1048  154.9655 H   0  0  0  0  0  0  0  0  0  0  0  0
  150.3354  135.3502  154.7642 H   0  0  0  0  0  0  0  0  0  0  0  0
  149.9443  134.6805  156.3375 H   0  0  0  0  0  0  0  0  0  0  0  0
  148.0976  134.0510  153.0089 H   0  0  0  0  0  0  0  0  0  0  0  0
  148.1948  131.3115  152.6038 H   0  0  0  0  0  0  0  0  0  0  0  0
  150.3818  132.2358  156.0318 H   0  0  0  0  0  0  0  0  0  0  0  0
  1  2  1  0  0  0  0
  1 20  1  0  0  0  0
  1 21  1  0  0  0  0
  1 22  1  0  0  0  0
  2  3  2  0  0  0  0
  2  4  2  0  0  0  0
  2  5  1  0  0  0  0
  5  9  1  0  0  0  0
  5  6  1  0  0  0  0
  6  7  1  0  0  0  0
  6 23  1  0  0  0  0
  6 24  1  0  0  0  0
  7  8  1  0  0  0  0
  7 25  1  0  0  0  0
  7 26  1  0  0  0  0
  8  9  1  0  0  0  0
  8 27  1  0  0  0  0
  8 28  1  0  0  0  0
  9 10  1  0  0  0  0
  9 29  1  0  0  0  0
 10 11  2  0  0  0  0
 10 12  1  0  0  0  0
 12 13  1  0  0  0  0
 12 30  1  0  0  0  0
 13 14  1  0  0  0  0
 13 31  1  0  0  0  0
 13 32  1  0  0  0  0
 14 15  1  0  0  0  0
 14 33  1  0  0  0  0
 14 34  1  0  0  0  0
 15 19  1  0  0  0  0
 15 16  1  0  0  0  0
 16 17  2  0  0  0  0
 16 35  1  0  0  0  0
 17 18  1  0  0  0  0
 17 36  1  0  0  0  0
 18 19  2  0  0  0  0
 19 37  1  0  0  0  0
M  END
> <s_m_source_file>
AV-unprocessed.smi

> <i_m_source_file_index>
3047

> <i_lp_mmshare_version>
43012

> <i_f3d_flags>
0

> <s_epik_input>
W0NIM11TKD1PKSg9TylOMVtDSDJdW0NIMl1bQ0gyXVtDQEhdMUMoPU8pW05IXVtDSDJdW0NIMl1uMltjSF1bY0hdbltjSF0y

> <s_epik_cmdline>
J2VwaWtfcHl0aG9uJywgJy1waCcsICc3LjAnLCAnLXRuJywgJzgnLCAnLW1hJywgJzIwMCcsICctbWV0YWxfYmluZGluZycsICctaW1hZScsICc8aW5maWxlLm1hZT4nLCAnLW9tYWUnLCAnPG91dGZpbGUubWFlPic=

> <r_lp_tautomer_probability>
1

> <r_epik_Ionization_Penalty>
0.575721

> <r_epik_Ionization_Penalty_Charging>
0.575721

> <r_epik_Ionization_Penalty_Neutral>
1.33078e-07

> <r_epik_State_Penalty>
0.588056

> <r_epik_Charging_Adjusted_Penalty>
1.16378

> <i_epik_Tot_Q>
0

> <i_epik_Tot_abs_Q>
0

> <r_epik_Metal_State_Penalty>
0.294357

> <b_epik_Metal_Only>
0

> <s_lp_Force_Field>
OPLS_2005

> <r_lp_Energy>
9.27481

> <b_lp_Chiralities_Consistent>
1

> <s_lp_Variant>
AV-unprocessed.smi:3047-4

> <Gold.Version>
5.8.1

> <Gold.Id.Protein>
6NUR|6NUR_protein|mol2

> <Gold.PLP.Fitness>
43.0555

> <Gold.PLP.PLP>
-33.0443

> <Gold.PLP.part.hbond>
-1.8196

> <Gold.PLP.part.metal>
0.0000

> <Gold.PLP.part.buried>
-4.1238

> <Gold.PLP.part.nonpolar>
-26.6043

> <Gold.PLP.part.repulsive>
0.1028

> <Gold.PLP.ligand.clash>
0.0000

> <Gold.PLP.ligand.torsion>
1.9336

> <Gold.PLP.Chemscore.Hbond>
2.0000

> <Gold.PLP.Chemscore.CHOScore>
1.9463

> <Gold.PLP.Chemscore.Metal>
0.0000

> <Gold.Chemscore.Hbonds>
donor molecule, donor type, donor heavy atom, donor atom, acceptor molecule, acceptor atom, score
      L1  H    12    30       P1  7948  1.00
      P1  H  7989  7998       L1     3  0.98
      L1  C    16    35       P1  7948  0.92
      L1  C    17    36       P1 10747  0.99

> <Gold.PLP.Chemscore.Internal.Correction>
2.0395

> <Gold.Rescore>
     Score         DG    S(hbond)    S(metal)    S(lipo)     H(rot)  DE(clash)    DE(int)     intcor
     10.21     -13.06       1.96        0.00      53.02       2.03       0.03       2.83       ----

> <Gold.Chemscore.Fitness>
10.2054

> <Gold.Chemscore.DG>
-13.0585

> <Gold.Chemscore.ZeroCoef>
-5.4800

> <Gold.Chemscore.Hbond>
1.9646

> <Gold.Chemscore.Metal>
0.0000

> <Gold.Chemscore.Lipo>
53.0173

> <Gold.Chemscore.Internal_Hbond>
0.0000

> <Gold.Chemscore.DEClash>
0.0252

> <Gold.Chemscore.DEInternal>
2.8279

> <Gold.Chemscore.Rot>
2.0259

> <Gold.Chemscore.Internal.Correction>
   9.000000E+99

> <Gold.Chemscore.Hbonds>
donor molecule, donor type, donor heavy atom, donor atom, acceptor molecule, acceptor atom, score
      L1  H    12    30       P1  7948  0.99
      P1  H  7989  7998       L1     3  0.37

> <Gold.Chemscore.Hbond.Weighted>
-6.5618

> <Gold.Chemscore.Metal.Weighted>
-0.0000

> <Gold.Chemscore.Lipo.Weighted>
-6.2030

> <Gold.Chemscore.Internal_Hbond.Weighted>
0.0000

> <Gold.Chemscore.DEClash.Weighted>
0.0252

> <Gold.Chemscore.DEInternal.Weighted>
2.8279

> <Gold.Chemscore.Rot.Weighted>
5.1863

> <Gold.Chemscore.Internal.Correction.Weighted>
   9.000000E+99

> <Gold.Protein.RotatedTorsions>
[ 6907 6896 6895 6894 ] final   20.07 input  -60.11 | X-H torsion
[ 7974 7965 7964 7962 ] final  149.39 input  175.53 | X-H torsion
[ 8008 7997 7996 7995 ] final   36.26 input   59.86 | X-H torsion
[ 10167 10162 10161 10158 ] final   23.85 input  -65.29 | X-H torsion
[ 10718 10713 10712 10709 ] final   -4.67 input   66.30 | X-H torsion
[ 10763 10752 10751 10750 ] final   10.92 input  -60.55 | X-H torsion
[ 11005 11000 10999 10996 ] final  -69.24 input  -57.11 | X-H torsion

> <Gold.Protein.ActiveResidues>
 VAL166  LYS551  ARG553  GLY616  TRP617  ASP618  TYR619  PRO620  LYS621  CYS622 
 ASP623  PHE694  ASN695  SER759  ASP760  ASP761  ALA762  ILE779  LEU786  VAL792 
 PHE793  MET794  SER795  GLU796  ALA797  LYS798  CYS799  TRP800  GLU811  SER814 

> <Gold.Protein.RotatedAtoms>
  151.8907  135.0417  160.0497 H   0  0  0  0  0  0  0  0  0  0  0  0  # atno 6907 bound_to 6896
  152.2438  133.5153  159.5294 H   0  0  0  0  0  0  0  0  0  0  0  0  # atno 6908 bound_to 6896
  150.7062  134.0969  159.3994 H   0  0  0  0  0  0  0  0  0  0  0  0  # atno 6909 bound_to 6896
  144.8441  139.6275  143.6003 H   0  0  0  0  0  0  0  0  0  0  0  0  # atno 7974 bound_to 7965
  155.1845  140.3302  155.4369 H   0  0  0  0  0  0  0  0  0  0  0  0  # atno 8008 bound_to 7997
  156.2465  140.1921  156.6891 H   0  0  0  0  0  0  0  0  0  0  0  0  # atno 8009 bound_to 7997
  154.6248  140.0590  156.9646 H   0  0  0  0  0  0  0  0  0  0  0  0  # atno 8010 bound_to 7997
  140.5235  143.9962  150.6429 H   0  0  0  0  0  0  0  0  0  0  0  0  # atno 10167 bound_to 10162
  156.7579  130.5260  149.5791 H   0  0  0  0  0  0  0  0  0  0  0  0  # atno 10718 bound_to 10713
  153.1981  135.6852  153.8266 H   0  0  0  0  0  0  0  0  0  0  0  0  # atno 10763 bound_to 10752
  153.7542  135.3219  155.3327 H   0  0  0  0  0  0  0  0  0  0  0  0  # atno 10764 bound_to 10752
  154.8156  135.4688  154.0734 H   0  0  0  0  0  0  0  0  0  0  0  0  # atno 10765 bound_to 10752
  141.1550  133.6760  156.6569 H   0  0  0  0  0  0  0  0  0  0  0  0  # atno 11005 bound_to 11000
  146.2729  139.6680  142.9283 LP  0  0  0  0  0  0  0  0  0  0  0  0  # atno 17320 bound_to 7965
  145.4632  141.0433  143.2740 LP  0  0  0  0  0  0  0  0  0  0  0  0  # atno 17321 bound_to 7965
  140.3317  143.3073  152.0680 LP  0  0  0  0  0  0  0  0  0  0  0  0  # atno 17342 bound_to 10162
  139.4931  144.6504  151.6687 LP  0  0  0  0  0  0  0  0  0  0  0  0  # atno 17343 bound_to 10162
  156.1358  130.6210  151.0398 LP  0  0  0  0  0  0  0  0  0  0  0  0  # atno 17370 bound_to 10713
  157.6748  131.0853  150.7523 LP  0  0  0  0  0  0  0  0  0  0  0  0  # atno 17371 bound_to 10713
  140.3277  134.7955  157.4302 LP  0  0  0  0  0  0  0  0  0  0  0  0  # atno 17394 bound_to 11000
  140.1043  134.5430  155.8324 LP  0  0  0  0  0  0  0  0  0  0  0  0  # atno 17395 bound_to 11000

$$$$
