AV-unprocessed.smi:804|AV-procd|sdf|3795|dock6
  -GOLD-   22720 1233D 1   1.00000     0.00000
 Structure written by MMmdl.
 38 39  0  0  0  0  0  0  0  0  2 V2000
  151.2127  137.7910  156.4350 C   0  0  0  0  0  0  0  0  0  0  0  0
  152.0191  139.0217  155.9837 C   0  0  0  0  0  0  0  0  0  0  0  0
  152.8043  138.6700  154.7027 C   0  0  0  0  0  0  0  0  0  0  0  0
  151.0504  140.1951  155.7271 C   0  0  0  0  0  0  0  0  0  0  0  0
  152.9475  139.3553  157.0750 N   0  5  0  0  0  0  0  0  0  0  0  0
  152.9620  138.8233  158.3349 C   0  0  0  0  0  0  0  0  0  0  0  0
  152.8113  137.6480  158.6828 O   0  0  0  0  0  0  0  0  0  0  0  0
  153.1984  139.8677  159.4024 C   0  0  0  0  0  0  0  0  0  0  0  0
  152.6623  141.1004  159.2100 N   0  0  0  0  0  0  0  0  0  0  0  0
  152.8627  142.0490  160.1303 C   0  0  0  0  0  0  0  0  0  0  0  0
  152.2894  143.3066  159.8993 N   0  0  0  0  0  0  0  0  0  0  0  0
  151.4202  143.5589  158.7468 C   0  0  0  0  0  0  0  0  0  0  0  0
  151.5366  145.0208  158.2839 C   0  0  0  0  0  0  0  0  0  0  0  0
  151.2625  145.8952  159.3718 O   0  0  0  0  0  0  0  0  0  0  0  0
  152.1961  145.7200  160.4304 C   0  0  0  0  0  0  0  0  0  0  0  0
  152.1065  144.2842  160.9747 C   0  0  0  0  0  0  0  0  0  0  0  0
  153.5717  141.8851  161.2530 N   0  0  0  0  0  0  0  0  0  0  0  0
  154.1169  140.6718  161.4743 C   0  0  0  0  0  0  0  0  0  0  0  0
  153.9618  139.6026  160.5714 C   0  0  0  0  0  0  0  0  0  0  0  0
  154.6619  138.0651  160.9501 Cl  0  0  0  0  0  0  0  0  0  0  0  0
  150.4985  137.4845  155.6701 H   0  0  0  0  0  0  0  0  0  0  0  0
  150.6482  137.9948  157.3459 H   0  0  0  0  0  0  0  0  0  0  0  0
  151.8628  136.9380  156.6351 H   0  0  0  0  0  0  0  0  0  0  0  0
  153.5162  137.8626  154.8800 H   0  0  0  0  0  0  0  0  0  0  0  0
  153.3618  139.5230  154.3154 H   0  0  0  0  0  0  0  0  0  0  0  0
  152.1313  138.3431  153.9097 H   0  0  0  0  0  0  0  0  0  0  0  0
  150.3016  139.9277  154.9811 H   0  0  0  0  0  0  0  0  0  0  0  0
  151.5673  141.0800  155.3558 H   0  0  0  0  0  0  0  0  0  0  0  0
  150.5187  140.4797  156.6359 H   0  0  0  0  0  0  0  0  0  0  0  0
  151.6602  142.9145  157.9010 H   0  0  0  0  0  0  0  0  0  0  0  0
  150.3913  143.3361  159.0311 H   0  0  0  0  0  0  0  0  0  0  0  0
  152.5302  145.2226  157.8801 H   0  0  0  0  0  0  0  0  0  0  0  0
  150.8230  145.2171  157.4836 H   0  0  0  0  0  0  0  0  0  0  0  0
  153.2062  145.9409  160.0813 H   0  0  0  0  0  0  0  0  0  0  0  0
  151.9704  146.4345  161.2221 H   0  0  0  0  0  0  0  0  0  0  0  0
  151.1321  144.1179  161.4350 H   0  0  0  0  0  0  0  0  0  0  0  0
  152.8513  144.1720  161.7619 H   0  0  0  0  0  0  0  0  0  0  0  0
  154.6785  140.5514  162.3889 H   0  0  0  0  0  0  0  0  0  0  0  0
  1  2  1  0  0  0  0
  1 21  1  0  0  0  0
  1 22  1  0  0  0  0
  1 23  1  0  0  0  0
  2  3  1  0  0  0  0
  2  4  1  0  0  0  0
  2  5  1  0  0  0  0
  3 24  1  0  0  0  0
  3 25  1  0  0  0  0
  3 26  1  0  0  0  0
  4 27  1  0  0  0  0
  4 28  1  0  0  0  0
  4 29  1  0  0  0  0
  5  6  1  0  0  0  0
  6  7  2  0  0  0  0
  6  8  1  0  0  0  0
  8 19  1  0  0  0  0
  8  9  2  0  0  0  0
  9 10  1  0  0  0  0
 10 11  1  0  0  0  0
 10 17  2  0  0  0  0
 11 16  1  0  0  0  0
 11 12  1  0  0  0  0
 12 13  1  0  0  0  0
 12 30  1  0  0  0  0
 12 31  1  0  0  0  0
 13 14  1  0  0  0  0
 13 32  1  0  0  0  0
 13 33  1  0  0  0  0
 14 15  1  0  0  0  0
 15 16  1  0  0  0  0
 15 34  1  0  0  0  0
 15 35  1  0  0  0  0
 16 36  1  0  0  0  0
 16 37  1  0  0  0  0
 17 18  1  0  0  0  0
 18 19  2  0  0  0  0
 18 38  1  0  0  0  0
 19 20  1  0  0  0  0
M  CHG  1   5  -1
M  END
> <s_m_source_file>
AV-unprocessed.smi

> <i_m_source_file_index>
804

> <i_lp_mmshare_version>
43012

> <i_f3d_flags>
0

> <s_epik_input>
W0NIM11DKFtDSDNdKShbQ0gzXSlbTkhdQyg9TyljMW5jKG5bY0hdYzFDbClOMltDSDJdW0NIMl1PW0NIMl1bQ0gyXTI=

> <s_epik_cmdline>
J2VwaWtfcHl0aG9uJywgJy1waCcsICc3LjAnLCAnLXRuJywgJzgnLCAnLW1hJywgJzIwMCcsICctbWV0YWxfYmluZGluZycsICctaW1hZScsICc8aW5maWxlLm1hZT4nLCAnLW9tYWUnLCAnPG91dGZpbGUubWFlPic=

> <r_lp_tautomer_probability>
1

> <r_epik_Ionization_Penalty>
6.49938

> <r_epik_Ionization_Penalty_Charging>
6.49935

> <r_epik_Ionization_Penalty_Neutral>
2.43511e-05

> <r_epik_State_Penalty>
6.49934

> <r_epik_Charging_Adjusted_Penalty>
12.9987

> <i_epik_Tot_Q>
-1

> <i_epik_Tot_abs_Q>
1

> <r_epik_Metal_State_Penalty>
2.42664

> <b_epik_Metal_Only>
1

> <s_lp_Force_Field>
OPLS_2005

> <r_lp_Energy>
19.224

> <b_lp_Chiralities_Consistent>
1

> <s_lp_Variant>
AV-unprocessed.smi:804-2

> <Gold.Version>
5.8.1

> <Gold.Id.Protein>
6NUR|6NUR_protein|mol2

> <Gold.PLP.Fitness>
45.7198

> <Gold.PLP.PLP>
-41.6979

> <Gold.PLP.part.hbond>
-2.6103

> <Gold.PLP.part.metal>
0.0000

> <Gold.PLP.part.buried>
-5.2941

> <Gold.PLP.part.nonpolar>
-33.7101

> <Gold.PLP.part.repulsive>
0.1914

> <Gold.PLP.ligand.clash>
0.0000

> <Gold.PLP.ligand.torsion>
1.0508

> <Gold.PLP.Chemscore.Hbond>
2.0000

> <Gold.PLP.Chemscore.CHOScore>
0.0000

> <Gold.PLP.Chemscore.Metal>
0.0000

> <Gold.Chemscore.Hbonds>
donor molecule, donor type, donor heavy atom, donor atom, acceptor molecule, acceptor atom, score
      P1  H  7997  8008       L1     5  2.00

> <Gold.PLP.Chemscore.Internal.Correction>
0.1237

> <Gold.Rescore>
     Score         DG    S(hbond)    S(metal)    S(lipo)     H(rot)  DE(clash)    DE(int)     intcor
     13.36     -17.03       0.83        0.00      96.79       1.00       0.00       3.67       ----

> <Gold.Chemscore.Fitness>
13.3566

> <Gold.Chemscore.DG>
-17.0267

> <Gold.Chemscore.ZeroCoef>
-5.4800

> <Gold.Chemscore.Hbond>
0.8329

> <Gold.Chemscore.Metal>
0.0000

> <Gold.Chemscore.Lipo>
96.7917

> <Gold.Chemscore.Internal_Hbond>
0.0000

> <Gold.Chemscore.DEClash>
0.0000

> <Gold.Chemscore.DEInternal>
3.6701

> <Gold.Chemscore.Rot>
1.0000

> <Gold.Chemscore.Internal.Correction>
   9.000000E+99

> <Gold.Chemscore.Hbonds>
donor molecule, donor type, donor heavy atom, donor atom, acceptor molecule, acceptor atom, score
      P1  H  7997  8008       L1     5  0.79

> <Gold.Chemscore.Hbond.Weighted>
-2.7820

> <Gold.Chemscore.Metal.Weighted>
-0.0000

> <Gold.Chemscore.Lipo.Weighted>
-11.3246

> <Gold.Chemscore.Internal_Hbond.Weighted>
0.0000

> <Gold.Chemscore.DEClash.Weighted>
0.0000

> <Gold.Chemscore.DEInternal.Weighted>
3.6701

> <Gold.Chemscore.Rot.Weighted>
2.5600

> <Gold.Chemscore.Internal.Correction.Weighted>
   9.000000E+99

> <Gold.Protein.RotatedTorsions>
[ 6907 6896 6895 6894 ] final  -94.38 input  -60.11 | X-H torsion
[ 7974 7965 7964 7962 ] final    9.27 input  175.53 | X-H torsion
[ 8008 7997 7996 7995 ] final  -63.55 input   59.86 | X-H torsion
[ 10167 10162 10161 10158 ] final  119.52 input  -65.29 | X-H torsion
[ 10718 10713 10712 10709 ] final   52.50 input   66.30 | X-H torsion
[ 10763 10752 10751 10750 ] final -163.53 input  -60.55 | X-H torsion
[ 11005 11000 10999 10996 ] final   46.58 input  -57.11 | X-H torsion

> <Gold.Protein.ActiveResidues>
 VAL166  LYS551  ARG553  GLY616  TRP617  ASP618  TYR619  PRO620  LYS621  CYS622 
 ASP623  PHE694  ASN695  SER759  ASP760  ASP761  ALA762  ILE779  LEU786  VAL792 
 PHE793  MET794  SER795  GLU796  ALA797  LYS798  CYS799  TRP800  GLU811  SER814 

> <Gold.Protein.RotatedAtoms>
  150.6941  134.1821  159.4252 H   0  0  0  0  0  0  0  0  0  0  0  0  # atno 6907 bound_to 6896
  151.9795  135.0033  160.0566 H   0  0  0  0  0  0  0  0  0  0  0  0  # atno 6908 bound_to 6896
  152.1768  133.4645  159.4974 H   0  0  0  0  0  0  0  0  0  0  0  0  # atno 6909 bound_to 6896
  146.2405  139.9808  142.8436 H   0  0  0  0  0  0  0  0  0  0  0  0  # atno 7974 bound_to 7965
  154.4560  140.0972  156.6759 H   0  0  0  0  0  0  0  0  0  0  0  0  # atno 8008 bound_to 7997
  155.5136  140.3477  155.4374 H   0  0  0  0  0  0  0  0  0  0  0  0  # atno 8009 bound_to 7997
  156.0779  140.1365  156.9737 H   0  0  0  0  0  0  0  0  0  0  0  0  # atno 8010 bound_to 7997
  139.6040  144.7065  151.2995 H   0  0  0  0  0  0  0  0  0  0  0  0  # atno 10167 bound_to 10162
  157.5080  130.8482  149.8399 H   0  0  0  0  0  0  0  0  0  0  0  0  # atno 10718 bound_to 10713
  154.7113  135.3007  154.9192 H   0  0  0  0  0  0  0  0  0  0  0  0  # atno 10763 bound_to 10752
  154.0093  135.6697  153.4768 H   0  0  0  0  0  0  0  0  0  0  0  0  # atno 10764 bound_to 10752
  153.0757  135.5036  154.8314 H   0  0  0  0  0  0  0  0  0  0  0  0  # atno 10765 bound_to 10752
  140.1356  134.4650  155.8488 H   0  0  0  0  0  0  0  0  0  0  0  0  # atno 11005 bound_to 11000
  145.1593  140.9664  143.4386 LP  0  0  0  0  0  0  0  0  0  0  0  0  # atno 17320 bound_to 7965
  145.0131  139.3492  143.6110 LP  0  0  0  0  0  0  0  0  0  0  0  0  # atno 17321 bound_to 7965
  140.7271  143.6971  150.7874 LP  0  0  0  0  0  0  0  0  0  0  0  0  # atno 17342 bound_to 10162
  140.0554  143.5208  152.2654 LP  0  0  0  0  0  0  0  0  0  0  0  0  # atno 17343 bound_to 10162
  156.0271  130.3776  150.1792 LP  0  0  0  0  0  0  0  0  0  0  0  0  # atno 17370 bound_to 10713
  156.9982  130.9914  151.3397 LP  0  0  0  0  0  0  0  0  0  0  0  0  # atno 17371 bound_to 10713
  141.2177  133.6812  156.7150 LP  0  0  0  0  0  0  0  0  0  0  0  0  # atno 17394 bound_to 11000
  140.2787  134.8334  157.3914 LP  0  0  0  0  0  0  0  0  0  0  0  0  # atno 17395 bound_to 11000

$$$$
