AV-unprocessed.smi:1506|AV-procd|sdf|6076|dock9
  -GOLD-   22720 6203D 1   1.00000     0.00000
 Structure written by MMmdl.
 39 41  0  0  0  0  0  0  0  0  1 V2000
  151.7498  145.3649  159.9049 C   0  0  0  0  0  0  0  0  0  0  0  0
  151.9378  143.9648  159.3576 C   0  0  0  0  0  0  0  0  0  0  0  0
  152.8521  143.0803  159.9634 C   0  0  0  0  0  0  0  0  0  0  0  0
  153.0193  141.7819  159.4475 C   0  0  0  0  0  0  0  0  0  0  0  0
  152.2775  141.3636  158.3259 C   0  0  0  0  0  0  0  0  0  0  0  0
  151.3579  142.2461  157.7048 C   0  0  0  0  0  0  0  0  0  0  0  0
  150.5964  141.9231  156.6024 O   0  0  0  0  0  0  0  0  0  0  0  0
  150.8893  140.7166  155.9080 C   0  0  0  0  0  0  0  0  0  0  0  0
  149.6500  140.2414  155.1312 C   0  0  2  0  0  0  0  0  0  0  0  0
  150.0674  139.5605  153.9640 O   0  0  0  0  0  0  0  0  0  0  0  0
  148.6497  141.3676  154.8027 C   0  0  0  0  0  0  0  0  0  0  0  0
  147.5835  141.4612  155.7838 N   0  0  0  0  0  0  0  0  0  0  0  0
  147.5654  140.9184  157.0164 C   0  0  0  0  0  0  0  0  0  0  0  0
  146.4795  141.1228  157.7565 N   0  0  0  0  0  0  0  0  0  0  0  0
  145.7013  141.8893  156.9055 C   0  0  0  0  0  0  0  0  0  0  0  0
  144.4130  142.4412  157.0878 C   0  0  0  0  0  0  0  0  0  0  0  0
  143.8080  143.1973  156.0620 C   0  0  0  0  0  0  0  0  0  0  0  0
  144.4797  143.4128  154.8411 C   0  0  0  0  0  0  0  0  0  0  0  0
  145.7639  142.8728  154.6362 C   0  0  0  0  0  0  0  0  0  0  0  0
  146.3643  142.1197  155.6624 C   0  0  0  0  0  0  0  0  0  0  0  0
  151.1985  143.5438  158.2334 C   0  0  0  0  0  0  0  0  0  0  0  0
  152.1633  145.4555  160.9099 H   0  0  0  0  0  0  0  0  0  0  0  0
  150.6903  145.6178  159.9513 H   0  0  0  0  0  0  0  0  0  0  0  0
  152.2489  146.0903  159.2621 H   0  0  0  0  0  0  0  0  0  0  0  0
  153.4268  143.3926  160.8230 H   0  0  0  0  0  0  0  0  0  0  0  0
  153.7195  141.1038  159.9128 H   0  0  0  0  0  0  0  0  0  0  0  0
  152.4334  140.3602  157.9608 H   0  0  0  0  0  0  0  0  0  0  0  0
  151.7310  140.8471  155.2254 H   0  0  0  0  0  0  0  0  0  0  0  0
  151.1667  139.9510  156.6344 H   0  0  0  0  0  0  0  0  0  0  0  0
  149.1408  139.4979  155.7458 H   0  0  0  0  0  0  0  0  0  0  0  0
  149.4115  139.6835  153.2948 H   0  0  0  0  0  0  0  0  0  0  0  0
  149.1655  142.3279  154.7623 H   0  0  0  0  0  0  0  0  0  0  0  0
  148.2006  141.2144  153.8207 H   0  0  0  0  0  0  0  0  0  0  0  0
  148.3958  140.3371  157.3898 H   0  0  0  0  0  0  0  0  0  0  0  0
  143.8885  142.2821  158.0183 H   0  0  0  0  0  0  0  0  0  0  0  0
  142.8226  143.6135  156.2123 H   0  0  0  0  0  0  0  0  0  0  0  0
  144.0079  143.9922  154.0610 H   0  0  0  0  0  0  0  0  0  0  0  0
  146.2803  143.0333  153.7013 H   0  0  0  0  0  0  0  0  0  0  0  0
  150.5003  144.2240  157.7676 H   0  0  0  0  0  0  0  0  0  0  0  0
  1  2  1  0  0  0  0
  1 22  1  0  0  0  0
  1 23  1  0  0  0  0
  1 24  1  0  0  0  0
  2 21  1  0  0  0  0
  2  3  2  0  0  0  0
  3  4  1  0  0  0  0
  3 25  1  0  0  0  0
  4  5  2  0  0  0  0
  4 26  1  0  0  0  0
  5  6  1  0  0  0  0
  5 27  1  0  0  0  0
  6  7  1  0  0  0  0
  6 21  2  0  0  0  0
  7  8  1  0  0  0  0
  8  9  1  0  0  0  0
  8 28  1  0  0  0  0
  8 29  1  0  0  0  0
  9 10  1  0  0  0  0
  9 11  1  0  0  0  0
  9 30  1  0  0  0  0
 10 31  1  0  0  0  0
 11 12  1  0  0  0  0
 11 32  1  0  0  0  0
 11 33  1  0  0  0  0
 12 20  1  0  0  0  0
 12 13  1  0  0  0  0
 13 14  2  0  0  0  0
 13 34  1  0  0  0  0
 14 15  1  0  0  0  0
 15 20  2  0  0  0  0
 15 16  1  0  0  0  0
 16 17  2  0  0  0  0
 16 35  1  0  0  0  0
 17 18  1  0  0  0  0
 17 36  1  0  0  0  0
 18 19  2  0  0  0  0
 18 37  1  0  0  0  0
 19 20  1  0  0  0  0
 19 38  1  0  0  0  0
 21 39  1  0  0  0  0
M  END
> <s_m_source_file>
AV-unprocessed.smi

> <i_m_source_file_index>
1506

> <i_lp_mmshare_version>
43012

> <i_f3d_flags>
0

> <s_epik_input>
W0NIM11jMVtjSF1bY0hdW2NIXWMoW2NIXTEpT1tDSDJdW0NASF0oW09IXSlbQ0gyXW4oW2NIXW4yKWMoYzIzKVtjSF1bY0hdW2NIXVtjSF0z

> <s_epik_cmdline>
J2VwaWtfcHl0aG9uJywgJy1waCcsICc3LjAnLCAnLXRuJywgJzgnLCAnLW1hJywgJzIwMCcsICctbWV0YWxfYmluZGluZycsICctaW1hZScsICc8aW5maWxlLm1hZT4nLCAnLW9tYWUnLCAnPG91dGZpbGUubWFlPic=

> <r_lp_tautomer_probability>
1

> <r_epik_Ionization_Penalty>
0.0608485

> <r_epik_Ionization_Penalty_Charging>
0

> <r_epik_Ionization_Penalty_Neutral>
0.0608485

> <r_epik_State_Penalty>
0.0527778

> <r_epik_Charging_Adjusted_Penalty>
0.0527778

> <i_epik_Tot_Q>
0

> <i_epik_Tot_abs_Q>
0

> <r_epik_Metal_State_Penalty>
5.51973e-05

> <b_epik_Metal_Only>
0

> <s_lp_Force_Field>
OPLS_2005

> <r_lp_Energy>
16.3702

> <b_lp_Chiralities_Consistent>
1

> <s_lp_Variant>
AV-unprocessed.smi:1506-1

> <Gold.Version>
5.8.1

> <Gold.Id.Protein>
6NUR|6NUR_protein|mol2

> <Gold.PLP.Fitness>
50.7573

> <Gold.PLP.PLP>
-49.0316

> <Gold.PLP.part.hbond>
-2.0000

> <Gold.PLP.part.metal>
0.0000

> <Gold.PLP.part.buried>
-2.6125

> <Gold.PLP.part.nonpolar>
-44.4674

> <Gold.PLP.part.repulsive>
0.1553

> <Gold.PLP.ligand.clash>
0.0000

> <Gold.PLP.ligand.torsion>
1.3961

> <Gold.PLP.Chemscore.Hbond>
1.4757

> <Gold.PLP.Chemscore.CHOScore>
0.0000

> <Gold.PLP.Chemscore.Metal>
0.0000

> <Gold.Chemscore.Hbonds>
donor molecule, donor type, donor heavy atom, donor atom, acceptor molecule, acceptor atom, score
      L1  H    10    31       P1  7957  0.40
      P1  H  7989  7998       L1    10  0.75

> <Gold.PLP.Chemscore.Internal.Correction>
0.0906

> <Gold.Rescore>
     Score         DG    S(hbond)    S(metal)    S(lipo)     H(rot)  DE(clash)    DE(int)     intcor
     15.15     -18.17       0.99        0.00     128.07       2.19       1.61       1.41       ----

> <Gold.Chemscore.Fitness>
15.1508

> <Gold.Chemscore.DG>
-18.1663

> <Gold.Chemscore.ZeroCoef>
-5.4800

> <Gold.Chemscore.Hbond>
0.9888

> <Gold.Chemscore.Metal>
0.0000

> <Gold.Chemscore.Lipo>
128.0687

> <Gold.Chemscore.Internal_Hbond>
0.0000

> <Gold.Chemscore.DEClash>
1.6069

> <Gold.Chemscore.DEInternal>
1.4085

> <Gold.Chemscore.Rot>
2.1877

> <Gold.Chemscore.Internal.Correction>
   9.000000E+99

> <Gold.Chemscore.Hbonds>
donor molecule, donor type, donor heavy atom, donor atom, acceptor molecule, acceptor atom, score
      L1  H    10    31       P1  7957  0.40
      P1  H  7989  7998       L1    10  0.06

> <Gold.Chemscore.Hbond.Weighted>
-3.3027

> <Gold.Chemscore.Metal.Weighted>
-0.0000

> <Gold.Chemscore.Lipo.Weighted>
-14.9840

> <Gold.Chemscore.Internal_Hbond.Weighted>
0.0000

> <Gold.Chemscore.DEClash.Weighted>
1.6069

> <Gold.Chemscore.DEInternal.Weighted>
1.4085

> <Gold.Chemscore.Rot.Weighted>
5.6005

> <Gold.Chemscore.Internal.Correction.Weighted>
   9.000000E+99

> <Gold.Protein.RotatedTorsions>
[ 6907 6896 6895 6894 ] final  126.63 input  -60.11 | X-H torsion
[ 7974 7965 7964 7962 ] final -104.60 input  175.53 | X-H torsion
[ 8008 7997 7996 7995 ] final  -69.24 input   59.86 | X-H torsion
[ 10167 10162 10161 10158 ] final -139.16 input  -65.29 | X-H torsion
[ 10718 10713 10712 10709 ] final  132.33 input   66.30 | X-H torsion
[ 10763 10752 10751 10750 ] final  148.40 input  -60.55 | X-H torsion
[ 11005 11000 10999 10996 ] final  157.42 input  -57.11 | X-H torsion

> <Gold.Protein.ActiveResidues>
 VAL166  LYS551  ARG553  GLY616  TRP617  ASP618  TYR619  PRO620  LYS621  CYS622 
 ASP623  PHE694  ASN695  SER759  ASP760  ASP761  ALA762  ILE779  LEU786  VAL792 
 PHE793  MET794  SER795  GLU796  ALA797  LYS798  CYS799  TRP800  GLU811  SER814 

> <Gold.Protein.RotatedAtoms>
  152.3886  133.6647  159.6218 H   0  0  0  0  0  0  0  0  0  0  0  0  # atno 6907 bound_to 6896
  150.7799  133.8992  159.3345 H   0  0  0  0  0  0  0  0  0  0  0  0  # atno 6908 bound_to 6896
  151.6784  135.0967  160.0262 H   0  0  0  0  0  0  0  0  0  0  0  0  # atno 6909 bound_to 6896
  145.2410  140.9205  143.3149 H   0  0  0  0  0  0  0  0  0  0  0  0  # atno 7974 bound_to 7965
  154.4925  140.0857  156.7625 H   0  0  0  0  0  0  0  0  0  0  0  0  # atno 8008 bound_to 7997
  155.4197  140.3445  155.4252 H   0  0  0  0  0  0  0  0  0  0  0  0  # atno 8009 bound_to 7997
  156.1349  140.1512  156.8998 H   0  0  0  0  0  0  0  0  0  0  0  0  # atno 8010 bound_to 7997
  139.8407  143.7326  152.2663 H   0  0  0  0  0  0  0  0  0  0  0  0  # atno 10167 bound_to 10162
  157.4881  131.1089  150.9592 H   0  0  0  0  0  0  0  0  0  0  0  0  # atno 10718 bound_to 10713
  154.0541  135.2879  155.3335 H   0  0  0  0  0  0  0  0  0  0  0  0  # atno 10763 bound_to 10752
  154.6850  135.5248  153.8318 H   0  0  0  0  0  0  0  0  0  0  0  0  # atno 10764 bound_to 10752
  153.0549  135.6591  154.0735 H   0  0  0  0  0  0  0  0  0  0  0  0  # atno 10765 bound_to 10752
  140.1768  134.8504  157.2756 H   0  0  0  0  0  0  0  0  0  0  0  0  # atno 11005 bound_to 11000
  144.9589  139.4002  143.6366 LP  0  0  0  0  0  0  0  0  0  0  0  0  # atno 17320 bound_to 7965
  146.3328  139.8632  142.8852 LP  0  0  0  0  0  0  0  0  0  0  0  0  # atno 17321 bound_to 7965
  139.7562  144.7520  151.0432 LP  0  0  0  0  0  0  0  0  0  0  0  0  # atno 17342 bound_to 10162
  140.7798  143.4803  151.0027 LP  0  0  0  0  0  0  0  0  0  0  0  0  # atno 17343 bound_to 10162
  157.0303  130.5709  149.5342 LP  0  0  0  0  0  0  0  0  0  0  0  0  # atno 17370 bound_to 10713
  156.0158  130.5252  150.8130 LP  0  0  0  0  0  0  0  0  0  0  0  0  # atno 17371 bound_to 10713
  140.2313  134.3906  155.7520 LP  0  0  0  0  0  0  0  0  0  0  0  0  # atno 17394 bound_to 11000
  141.2221  133.7216  156.8645 LP  0  0  0  0  0  0  0  0  0  0  0  0  # atno 17395 bound_to 11000

$$$$
