AV-unprocessed.smi:2134|AV-procd|sdf|8694|dock7
  -GOLD-   2272011453D 1   1.00000     0.00000
 Structure written by MMmdl.
 35 36  0  0  0  0  0  0  0  0  1 V2000
  151.0953  141.4164  156.6771 C   0  0  0  0  0  0  0  0  0  0  0  0
  150.9198  140.3377  155.7069 N   0  0  0  0  0  0  0  0  0  0  0  0
  149.7141  140.3522  155.0363 N   0  0  0  0  0  0  0  0  0  0  0  0
  149.3118  139.3484  154.3214 C   0  0  0  0  0  0  0  0  0  0  0  0
  147.9915  139.4021  153.6402 C   0  0  0  0  0  0  0  0  0  0  0  0
  147.2332  140.3586  153.8022 O   0  0  0  0  0  0  0  0  0  0  0  0
  147.7026  138.3630  152.8343 N   0  0  0  0  0  0  0  0  0  0  0  0
  146.5149  138.2413  151.9927 C   0  0  0  0  0  0  0  0  0  0  0  0
  145.3811  137.4789  152.7047 C   0  0  0  0  0  0  0  0  0  0  0  0
  145.0300  136.1569  152.0442 C   0  0  0  0  0  0  0  0  0  0  0  0
  143.8977  135.4199  152.4500 C   0  0  0  0  0  0  0  0  0  0  0  0
  143.6312  134.1867  151.8252 C   0  0  0  0  0  0  0  0  0  0  0  0
  144.5097  133.7429  150.8166 C   0  0  0  0  0  0  0  0  0  0  0  0
  145.5948  134.4409  150.4178 N   0  0  0  0  0  0  0  0  0  0  0  0
  145.8443  135.6217  151.0235 C   0  0  0  0  0  0  0  0  0  0  0  0
  150.1589  138.0969  154.2036 C   0  0  0  0  0  0  0  0  0  0  0  0
  151.6589  138.3912  154.4027 C   0  0  0  0  0  0  0  0  0  0  0  0
  151.9059  139.4292  155.5012 C   0  0  0  0  0  0  0  0  0  0  0  0
  152.9678  139.4194  156.1234 O   0  0  0  0  0  0  0  0  0  0  0  0
  151.9763  142.0130  156.4356 H   0  0  0  0  0  0  0  0  0  0  0  0
  151.2233  141.0101  157.6816 H   0  0  0  0  0  0  0  0  0  0  0  0
  150.2377  142.0910  156.7008 H   0  0  0  0  0  0  0  0  0  0  0  0
  148.3838  137.6202  152.7671 H   0  0  0  0  0  0  0  0  0  0  0  0
  146.1746  139.2440  151.7333 H   0  0  0  0  0  0  0  0  0  0  0  0
  146.7583  137.7515  151.0485 H   0  0  0  0  0  0  0  0  0  0  0  0
  145.6611  137.2937  153.7425 H   0  0  0  0  0  0  0  0  0  0  0  0
  144.4861  138.1011  152.7399 H   0  0  0  0  0  0  0  0  0  0  0  0
  143.2498  135.7859  153.2330 H   0  0  0  0  0  0  0  0  0  0  0  0
  142.7759  133.5938  152.1136 H   0  0  0  0  0  0  0  0  0  0  0  0
  144.3358  132.8013  150.3171 H   0  0  0  0  0  0  0  0  0  0  0  0
  146.7246  136.1513  150.6896 H   0  0  0  0  0  0  0  0  0  0  0  0
  149.8223  137.3652  154.9389 H   0  0  0  0  0  0  0  0  0  0  0  0
  150.0258  137.6330  153.2254 H   0  0  0  0  0  0  0  0  0  0  0  0
  152.1992  137.4708  154.6269 H   0  0  0  0  0  0  0  0  0  0  0  0
  152.0807  138.7865  153.4779 H   0  0  0  0  0  0  0  0  0  0  0  0
  1  2  1  0  0  0  0
  1 20  1  0  0  0  0
  1 21  1  0  0  0  0
  1 22  1  0  0  0  0
  2 18  1  0  0  0  0
  2  3  1  0  0  0  0
  3  4  2  0  0  0  0
  4  5  1  0  0  0  0
  4 16  1  0  0  0  0
  5  6  2  0  0  0  0
  5  7  1  0  0  0  0
  7  8  1  0  0  0  0
  7 23  1  0  0  0  0
  8  9  1  0  0  0  0
  8 24  1  0  0  0  0
  8 25  1  0  0  0  0
  9 10  1  0  0  0  0
  9 26  1  0  0  0  0
  9 27  1  0  0  0  0
 10 15  1  0  0  0  0
 10 11  2  0  0  0  0
 11 12  1  0  0  0  0
 11 28  1  0  0  0  0
 12 13  2  0  0  0  0
 12 29  1  0  0  0  0
 13 14  1  0  0  0  0
 13 30  1  0  0  0  0
 14 15  2  0  0  0  0
 15 31  1  0  0  0  0
 16 17  1  0  0  0  0
 16 32  1  0  0  0  0
 16 33  1  0  0  0  0
 17 18  1  0  0  0  0
 17 34  1  0  0  0  0
 17 35  1  0  0  0  0
 18 19  2  0  0  0  0
M  END
> <s_m_source_file>
AV-unprocessed.smi

> <i_m_source_file_index>
2134

> <i_lp_mmshare_version>
43012

> <i_f3d_flags>
0

> <s_epik_input>
Tz1DMVtDSDJdW0NIMl1DKD1OTjFbQ0gzXSlDKD1PKVtOSF1bQ0gyXVtDSDJdYzJbY0hdW2NIXVtjSF1uW2NIXTI=

> <s_epik_cmdline>
J2VwaWtfcHl0aG9uJywgJy1waCcsICc3LjAnLCAnLXRuJywgJzgnLCAnLW1hJywgJzIwMCcsICctbWV0YWxfYmluZGluZycsICctaW1hZScsICc8aW5maWxlLm1hZT4nLCAnLW9tYWUnLCAnPG91dGZpbGUubWFlPic=

> <r_epik_Ionization_Penalty>
0.00938916

> <r_epik_Ionization_Penalty_Charging>
0

> <r_epik_Ionization_Penalty_Neutral>
0.00938916

> <r_epik_State_Penalty>
0.00707201

> <r_epik_Charging_Adjusted_Penalty>
0.00707201

> <i_epik_Tot_Q>
0

> <i_epik_Tot_abs_Q>
0

> <r_epik_Metal_State_Penalty>
0.0638513

> <b_epik_Metal_Only>
0

> <s_epik_Chemistry_Notes>
This compound has an imine and may undergo hydrolysis.

> <s_lp_Force_Field>
OPLS_2005

> <r_lp_Energy>
16.2415

> <b_lp_Chiralities_Consistent>
1

> <s_lp_Variant>
AV-unprocessed.smi:2134-1

> <Gold.Version>
5.8.1

> <Gold.Id.Protein>
6NUR|6NUR_protein|mol2

> <Gold.PLP.Fitness>
43.5098

> <Gold.PLP.PLP>
-35.9917

> <Gold.PLP.part.hbond>
-3.1068

> <Gold.PLP.part.metal>
0.0000

> <Gold.PLP.part.buried>
-2.5640

> <Gold.PLP.part.nonpolar>
-32.1527

> <Gold.PLP.part.repulsive>
1.3681

> <Gold.PLP.ligand.clash>
0.0000

> <Gold.PLP.ligand.torsion>
0.6486

> <Gold.PLP.Chemscore.Hbond>
1.9440

> <Gold.PLP.Chemscore.CHOScore>
0.9894

> <Gold.PLP.Chemscore.Metal>
0.0000

> <Gold.Chemscore.Hbonds>
donor molecule, donor type, donor heavy atom, donor atom, acceptor molecule, acceptor atom, score
      L1  H     7    23       P1  7948  0.93
      P1  H  7997  8009       L1    19  1.00
      L1  C    15    31       P1  7948  0.95

> <Gold.PLP.Chemscore.Internal.Correction>
0.0150

> <Gold.Rescore>
     Score         DG    S(hbond)    S(metal)    S(lipo)     H(rot)  DE(clash)    DE(int)     intcor
     14.83     -16.41       1.91        0.00      70.42       1.45       0.90       0.68       ----

> <Gold.Chemscore.Fitness>
14.8284

> <Gold.Chemscore.DG>
-16.4066

> <Gold.Chemscore.ZeroCoef>
-5.4800

> <Gold.Chemscore.Hbond>
1.9144

> <Gold.Chemscore.Metal>
0.0000

> <Gold.Chemscore.Lipo>
70.4229

> <Gold.Chemscore.Internal_Hbond>
0.0000

> <Gold.Chemscore.DEClash>
0.8981

> <Gold.Chemscore.DEInternal>
0.6800

> <Gold.Chemscore.Rot>
1.4480

> <Gold.Chemscore.Internal.Correction>
   9.000000E+99

> <Gold.Chemscore.Hbonds>
donor molecule, donor type, donor heavy atom, donor atom, acceptor molecule, acceptor atom, score
      L1  H     7    23       P1  7948  0.91
      P1  H  7997  8009       L1    19  0.97

> <Gold.Chemscore.Hbond.Weighted>
-6.3941

> <Gold.Chemscore.Metal.Weighted>
-0.0000

> <Gold.Chemscore.Lipo.Weighted>
-8.2395

> <Gold.Chemscore.Internal_Hbond.Weighted>
0.0000

> <Gold.Chemscore.DEClash.Weighted>
0.8981

> <Gold.Chemscore.DEInternal.Weighted>
0.6800

> <Gold.Chemscore.Rot.Weighted>
3.7070

> <Gold.Chemscore.Internal.Correction.Weighted>
   9.000000E+99

> <Gold.Protein.RotatedTorsions>
[ 6907 6896 6895 6894 ] final   63.73 input  -60.11 | X-H torsion
[ 7974 7965 7964 7962 ] final   94.82 input  175.53 | X-H torsion
[ 8008 7997 7996 7995 ] final -171.47 input   59.86 | X-H torsion
[ 10167 10162 10161 10158 ] final  -80.65 input  -65.29 | X-H torsion
[ 10718 10713 10712 10709 ] final   95.77 input   66.30 | X-H torsion
[ 10763 10752 10751 10750 ] final  -39.22 input  -60.55 | X-H torsion
[ 11005 11000 10999 10996 ] final   21.39 input  -57.11 | X-H torsion

> <Gold.Protein.ActiveResidues>
 VAL166  LYS551  ARG553  GLY616  TRP617  ASP618  TYR619  PRO620  LYS621  CYS622 
 ASP623  PHE694  ASN695  SER759  ASP760  ASP761  ALA762  ILE779  LEU786  VAL792 
 PHE793  MET794  SER795  GLU796  ALA797  LYS798  CYS799  TRP800  GLU811  SER814 

> <Gold.Protein.RotatedAtoms>
  152.4276  134.5839  159.9955 H   0  0  0  0  0  0  0  0  0  0  0  0  # atno 6907 bound_to 6896
  151.5971  133.3354  159.3047 H   0  0  0  0  0  0  0  0  0  0  0  0  # atno 6908 bound_to 6896
  150.8166  134.7388  159.6801 H   0  0  0  0  0  0  0  0  0  0  0  0  # atno 6909 bound_to 6896
  145.4604  139.2287  143.2990 H   0  0  0  0  0  0  0  0  0  0  0  0  # atno 7974 bound_to 7965
  155.9320  140.1093  157.1125 H   0  0  0  0  0  0  0  0  0  0  0  0  # atno 8008 bound_to 7997
  154.4072  140.1236  156.4880 H   0  0  0  0  0  0  0  0  0  0  0  0  # atno 8009 bound_to 7997
  155.7069  140.3471  155.4959 H   0  0  0  0  0  0  0  0  0  0  0  0  # atno 8010 bound_to 7997
  140.4484  143.2491  151.8525 H   0  0  0  0  0  0  0  0  0  0  0  0  # atno 10167 bound_to 10162
  157.6935  131.0556  150.4389 H   0  0  0  0  0  0  0  0  0  0  0  0  # atno 10718 bound_to 10713
  153.9258  135.6777  153.4746 H   0  0  0  0  0  0  0  0  0  0  0  0  # atno 10763 bound_to 10752
  153.1005  135.4830  154.8854 H   0  0  0  0  0  0  0  0  0  0  0  0  # atno 10764 bound_to 10752
  154.7454  135.3171  154.8611 H   0  0  0  0  0  0  0  0  0  0  0  0  # atno 10765 bound_to 10752
  140.3921  134.1807  155.7663 H   0  0  0  0  0  0  0  0  0  0  0  0  # atno 11005 bound_to 11000
  146.2454  140.5373  142.8916 LP  0  0  0  0  0  0  0  0  0  0  0  0  # atno 17320 bound_to 7965
  144.8006  140.6206  143.6480 LP  0  0  0  0  0  0  0  0  0  0  0  0  # atno 17321 bound_to 7965
  139.4794  144.5149  151.8882 LP  0  0  0  0  0  0  0  0  0  0  0  0  # atno 17342 bound_to 10162
  140.4237  144.2209  150.5887 LP  0  0  0  0  0  0  0  0  0  0  0  0  # atno 17343 bound_to 10162
  156.4750  130.4061  149.6495 LP  0  0  0  0  0  0  0  0  0  0  0  0  # atno 17370 bound_to 10713
  156.3562  130.7458  151.2424 LP  0  0  0  0  0  0  0  0  0  0  0  0  # atno 17371 bound_to 10713
  141.1887  133.8255  157.0985 LP  0  0  0  0  0  0  0  0  0  0  0  0  # atno 17394 bound_to 11000
  140.0398  134.9860  157.0941 LP  0  0  0  0  0  0  0  0  0  0  0  0  # atno 17395 bound_to 11000

$$$$
