AV-unprocessed.smi:21|AV-procd|sdf|158|dock2
  -GOLD-   2262015393D 1   1.00000     0.00000
 Structure written by MMmdl.
 61 64  0  0  0  0  0  0  0  0  1 V2000
  152.0725  143.6510  159.3754 C   0  0  0  0  0  0  0  0  0  0  0  0
  152.4758  142.5203  158.6194 O   0  0  0  0  0  0  0  0  0  0  0  0
  151.3898  141.7095  158.1938 C   0  0  2  0  0  0  0  0  0  0  0  0
  151.8281  140.5420  157.2902 C   0  0  0  0  0  0  0  0  0  0  0  0
  151.1011  140.7863  155.9581 C   0  0  1  0  0  0  0  0  0  0  0  0
  150.7685  139.4873  155.1900 C   0  0  0  0  0  0  0  0  0  0  0  0
  151.6752  138.3837  155.5072 N   0  0  0  0  0  0  0  0  0  0  0  0
  152.9595  138.3331  154.8099 C   0  0  0  0  0  0  0  0  0  0  0  0
  151.2010  137.2465  156.0976 C   0  0  0  0  0  0  0  0  0  0  0  0
  151.9029  136.0922  155.9310 N   0  0  0  0  0  0  0  0  0  0  0  0
  151.4829  134.9460  156.4709 C   0  0  0  0  0  0  0  0  0  0  0  0
  150.3998  134.7242  157.2140 N   0  0  0  0  0  0  0  0  0  0  0  0
  149.6892  135.8714  157.4023 C   0  0  0  0  0  0  0  0  0  0  0  0
  150.0113  137.1628  156.8881 C   0  0  0  0  0  0  0  0  0  0  0  0
  149.0453  138.0733  157.3068 N   0  0  0  0  0  0  0  0  0  0  0  0
  148.2072  137.3675  158.0131 C   0  0  0  0  0  0  0  0  0  0  0  0
  148.5235  136.0354  158.1303 N   0  0  0  0  0  0  0  0  0  0  0  0
  147.7715  135.0315  158.8640 C   0  0  0  0  0  0  0  0  0  0  0  0
  147.6577  135.3435  160.3761 C   0  0  1  0  0  0  0  0  0  0  0  0
  146.7431  136.5679  160.6149 C   0  0  0  0  0  0  0  0  0  0  0  0
  147.2193  137.3379  161.6991 O   0  0  0  0  0  0  0  0  0  0  0  0
  147.2578  134.0968  161.2148 C   0  0  2  0  0  0  0  0  0  0  0  0
  145.9169  133.4588  160.8597 C   0  0  0  0  0  0  0  0  0  0  0  0
  145.4428  132.9090  162.1976 C   0  0  0  0  0  0  0  0  0  0  0  0
  145.8498  133.9181  163.1052 O   0  0  0  0  0  0  0  0  0  0  0  0
  147.1580  134.3330  162.7331 C   0  0  0  0  0  0  0  0  0  0  0  0
  149.9451  141.5960  156.3061 N   0  0  0  0  0  0  0  0  0  0  0  0
  149.3452  142.2808  155.1685 C   0  0  0  0  0  0  0  0  0  0  0  0
  150.4593  142.5251  157.2928 C   0  0  0  0  0  0  0  0  0  0  0  0
  150.8234  141.3348  159.0485 H   0  0  0  0  0  0  0  0  0  0  0  0
  151.7615  141.3985  155.3416 H   0  0  0  0  0  0  0  0  0  0  0  0
  152.9510  144.2255  159.6684 H   0  0  0  0  0  0  0  0  0  0  0  0
  151.5444  143.3620  160.2843 H   0  0  0  0  0  0  0  0  0  0  0  0
  151.4252  144.3048  158.7897 H   0  0  0  0  0  0  0  0  0  0  0  0
  152.9076  140.5006  157.1415 H   0  0  0  0  0  0  0  0  0  0  0  0
  151.5190  139.5976  157.7401 H   0  0  0  0  0  0  0  0  0  0  0  0
  149.7473  139.1883  155.4283 H   0  0  0  0  0  0  0  0  0  0  0  0
  150.7582  139.6491  154.1146 H   0  0  0  0  0  0  0  0  0  0  0  0
  153.7455  137.9700  155.4731 H   0  0  0  0  0  0  0  0  0  0  0  0
  153.2583  139.3212  154.4601 H   0  0  0  0  0  0  0  0  0  0  0  0
  152.9039  137.6741  153.9427 H   0  0  0  0  0  0  0  0  0  0  0  0
  152.1036  134.0832  156.2790 H   0  0  0  0  0  0  0  0  0  0  0  0
  147.3346  137.8030  158.4779 H   0  0  0  0  0  0  0  0  0  0  0  0
  146.7813  134.9688  158.4116 H   0  0  0  0  0  0  0  0  0  0  0  0
  148.2388  134.0581  158.7114 H   0  0  0  0  0  0  0  0  0  0  0  0
  148.6547  135.6238  160.7201 H   0  0  0  0  0  0  0  0  0  0  0  0
  146.6929  137.2040  159.7311 H   0  0  0  0  0  0  0  0  0  0  0  0
  145.7223  136.2670  160.8476 H   0  0  0  0  0  0  0  0  0  0  0  0
  146.6708  137.1708  162.4506 H   0  0  0  0  0  0  0  0  0  0  0  0
  148.0246  133.3317  161.0880 H   0  0  0  0  0  0  0  0  0  0  0  0
  145.1990  134.1976  160.5063 H   0  0  0  0  0  0  0  0  0  0  0  0
  146.0025  132.6862  160.0959 H   0  0  0  0  0  0  0  0  0  0  0  0
  144.3654  132.7462  162.2306 H   0  0  0  0  0  0  0  0  0  0  0  0
  145.9452  131.9704  162.4380 H   0  0  0  0  0  0  0  0  0  0  0  0
  147.8894  133.7187  163.2604 H   0  0  0  0  0  0  0  0  0  0  0  0
  147.3304  135.3672  163.0297 H   0  0  0  0  0  0  0  0  0  0  0  0
  148.5193  142.9135  155.4949 H   0  0  0  0  0  0  0  0  0  0  0  0
  148.9470  141.5676  154.4471 H   0  0  0  0  0  0  0  0  0  0  0  0
  150.0731  142.9113  154.6560 H   0  0  0  0  0  0  0  0  0  0  0  0
  149.6562  143.0061  157.8522 H   0  0  0  0  0  0  0  0  0  0  0  0
  151.0329  143.3102  156.7965 H   0  0  0  0  0  0  0  0  0  0  0  0
  1  2  1  0  0  0  0
  1 32  1  0  0  0  0
  1 33  1  0  0  0  0
  1 34  1  0  0  0  0
  2  3  1  0  0  0  0
  3 30  1  0  0  0  0
  3 29  1  0  0  0  0
  3  4  1  0  0  0  0
  4  5  1  0  0  0  0
  4 35  1  0  0  0  0
  4 36  1  0  0  0  0
  5 31  1  0  0  0  0
  5  6  1  0  0  0  0
  5 27  1  0  0  0  0
  6  7  1  0  0  0  0
  6 37  1  0  0  0  0
  6 38  1  0  0  0  0
  7  8  1  0  0  0  0
  7  9  1  0  0  0  0
  8 39  1  0  0  0  0
  8 40  1  0  0  0  0
  8 41  1  0  0  0  0
  9 14  1  0  0  0  0
  9 10  2  0  0  0  0
 10 11  1  0  0  0  0
 11 12  2  0  0  0  0
 11 42  1  0  0  0  0
 12 13  1  0  0  0  0
 13 17  1  0  0  0  0
 13 14  2  0  0  0  0
 14 15  1  0  0  0  0
 15 16  2  0  0  0  0
 16 17  1  0  0  0  0
 16 43  1  0  0  0  0
 17 18  1  0  0  0  0
 18 19  1  0  0  0  0
 18 44  1  0  0  0  0
 18 45  1  0  0  0  0
 19 20  1  0  0  0  0
 19 22  1  0  0  0  0
 19 46  1  0  0  0  0
 20 21  1  0  0  0  0
 20 47  1  0  0  0  0
 20 48  1  0  0  0  0
 21 49  1  0  0  0  0
 22 26  1  0  0  0  0
 22 23  1  0  0  0  0
 22 50  1  0  0  0  0
 23 24  1  0  0  0  0
 23 51  1  0  0  0  0
 23 52  1  0  0  0  0
 24 25  1  0  0  0  0
 24 53  1  0  0  0  0
 24 54  1  0  0  0  0
 25 26  1  0  0  0  0
 26 55  1  0  0  0  0
 26 56  1  0  0  0  0
 27 28  1  0  0  0  0
 27 29  1  0  0  0  0
 28 57  1  0  0  0  0
 28 58  1  0  0  0  0
 28 59  1  0  0  0  0
 29 60  1  0  0  0  0
 29 61  1  0  0  0  0
M  END
> <s_m_source_file>
AV-unprocessed.smi

> <i_m_source_file_index>
21

> <i_lp_mmshare_version>
43012

> <i_f3d_flags>
0

> <s_epik_input>
W0NIM11PW0NASF0xW0NIMl1bQ0BIXShOKFtDSDNdKVtDSDJdMSlbQ0gyXU4oW0NIM10pYyhuW2NIXW4yKWMoYzIzKW5bY0hdbjNbQ0gyXVtDQEhdKFtDSDJdW09IXSlbQ0BASF00W0NIMl1bQ0gyXU9bQ0gyXTQ=

> <s_epik_cmdline>
J2VwaWtfcHl0aG9uJywgJy1waCcsICc3LjAnLCAnLXRuJywgJzgnLCAnLW1hJywgJzIwMCcsICctbWV0YWxfYmluZGluZycsICctaW1hZScsICc8aW5maWxlLm1hZT4nLCAnLW9tYWUnLCAnPG91dGZpbGUubWFlPic=

> <r_lp_tautomer_probability>
1

> <r_epik_Ionization_Penalty>
2.17574

> <r_epik_Ionization_Penalty_Charging>
0

> <r_epik_Ionization_Penalty_Neutral>
2.17574

> <r_epik_State_Penalty>
2.31336

> <r_epik_Charging_Adjusted_Penalty>
2.31336

> <i_epik_Tot_Q>
0

> <i_epik_Tot_abs_Q>
0

> <r_epik_Metal_State_Penalty>
2.31025

> <b_epik_Metal_Only>
0

> <s_lp_Force_Field>
OPLS_2005

> <r_lp_Energy>
69.5253

> <b_lp_Chiralities_Consistent>
1

> <s_lp_Variant>
AV-unprocessed.smi:21-38

> <Gold.Version>
5.8.1

> <Gold.Id.Protein>
6NUR|6NUR_protein|mol2

> <Gold.PLP.Fitness>
48.4690

> <Gold.PLP.PLP>
-41.2059

> <Gold.PLP.part.hbond>
-5.0000

> <Gold.PLP.part.metal>
0.0000

> <Gold.PLP.part.buried>
0.3668

> <Gold.PLP.part.nonpolar>
-37.1115

> <Gold.PLP.part.repulsive>
0.1501

> <Gold.PLP.ligand.clash>
0.0000

> <Gold.PLP.ligand.torsion>
1.2733

> <Gold.PLP.Chemscore.Hbond>
2.9976

> <Gold.PLP.Chemscore.CHOScore>
0.0000

> <Gold.PLP.Chemscore.Metal>
0.0000

> <Gold.Chemscore.Hbonds>
donor molecule, donor type, donor heavy atom, donor atom, acceptor molecule, acceptor atom, score
      P1  H  6896  6908       L1    12  0.32
      P1  H  6931  6943       L1    21  0.79
      P1  H  6934  6947       L1    21  0.86
      P1  H 10752 10765       L1    10  0.95

> <Gold.PLP.Chemscore.Internal.Correction>
0.8170

> <Gold.Rescore>
     Score         DG    S(hbond)    S(metal)    S(lipo)     H(rot)  DE(clash)    DE(int)     intcor
     12.94     -16.38       1.92        0.00     103.99       3.00       1.35       2.09       ----

> <Gold.Chemscore.Fitness>
12.9428

> <Gold.Chemscore.DG>
-16.3790

> <Gold.Chemscore.ZeroCoef>
-5.4800

> <Gold.Chemscore.Hbond>
1.9222

> <Gold.Chemscore.Metal>
0.0000

> <Gold.Chemscore.Lipo>
103.9904

> <Gold.Chemscore.Internal_Hbond>
0.0000

> <Gold.Chemscore.DEClash>
1.3490

> <Gold.Chemscore.DEInternal>
2.0871

> <Gold.Chemscore.Rot>
3.0031

> <Gold.Chemscore.Internal.Correction>
   9.000000E+99

> <Gold.Chemscore.Hbonds>
donor molecule, donor type, donor heavy atom, donor atom, acceptor molecule, acceptor atom, score
      P1  H  6896  6908       L1    12  0.08
      P1  H  6931  6943       L1    21  0.72
      P1  H  6934  6947       L1    21  0.24
      P1  H 10752 10765       L1    10  0.21

> <Gold.Chemscore.Hbond.Weighted>
-6.4201

> <Gold.Chemscore.Metal.Weighted>
-0.0000

> <Gold.Chemscore.Lipo.Weighted>
-12.1669

> <Gold.Chemscore.Internal_Hbond.Weighted>
0.0000

> <Gold.Chemscore.DEClash.Weighted>
1.3490

> <Gold.Chemscore.DEInternal.Weighted>
2.0871

> <Gold.Chemscore.Rot.Weighted>
7.6880

> <Gold.Chemscore.Internal.Correction.Weighted>
   9.000000E+99

> <Gold.Protein.RotatedTorsions>
[ 6907 6896 6895 6894 ] final  139.08 input  -60.11 | X-H torsion
[ 7974 7965 7964 7962 ] final -174.50 input  175.53 | X-H torsion
[ 8008 7997 7996 7995 ] final   95.54 input   59.86 | X-H torsion
[ 10167 10162 10161 10158 ] final   97.52 input  -65.29 | X-H torsion
[ 10718 10713 10712 10709 ] final  -65.46 input   66.30 | X-H torsion
[ 10763 10752 10751 10750 ] final -157.06 input  -60.55 | X-H torsion
[ 11005 11000 10999 10996 ] final   81.22 input  -57.11 | X-H torsion

> <Gold.Protein.ActiveResidues>
 VAL166  LYS551  ARG553  GLY616  TRP617  ASP618  TYR619  PRO620  LYS621  CYS622 
 ASP623  PHE694  ASN695  SER759  ASP760  ASP761  ALA762  ILE779  LEU786  VAL792 
 PHE793  MET794  SER795  GLU796  ALA797  LYS798  CYS799  TRP800  GLU811  SER814 

> <Gold.Protein.RotatedAtoms>
  152.2591  133.5281  159.5370 H   0  0  0  0  0  0  0  0  0  0  0  0  # atno 6907 bound_to 6896
  150.7119  134.0854  159.3922 H   0  0  0  0  0  0  0  0  0  0  0  0  # atno 6908 bound_to 6896
  151.8772  135.0467  160.0536 H   0  0  0  0  0  0  0  0  0  0  0  0  # atno 6909 bound_to 6896
  144.7131  140.1462  143.6388 H   0  0  0  0  0  0  0  0  0  0  0  0  # atno 7974 bound_to 7965
  156.0700  140.3285  155.7564 H   0  0  0  0  0  0  0  0  0  0  0  0  # atno 8008 bound_to 7997
  155.5321  140.0594  157.2904 H   0  0  0  0  0  0  0  0  0  0  0  0  # atno 8009 bound_to 7997
  154.4525  140.1925  156.0495 H   0  0  0  0  0  0  0  0  0  0  0  0  # atno 8010 bound_to 7997
  139.7793  144.6894  151.0045 H   0  0  0  0  0  0  0  0  0  0  0  0  # atno 10167 bound_to 10162
  156.0668  130.4247  150.1568 H   0  0  0  0  0  0  0  0  0  0  0  0  # atno 10718 bound_to 10713
  154.7665  135.3132  154.8276 H   0  0  0  0  0  0  0  0  0  0  0  0  # atno 10763 bound_to 10752
  153.9022  135.6814  153.4759 H   0  0  0  0  0  0  0  0  0  0  0  0  # atno 10764 bound_to 10752
  153.1272  135.4796  154.9224 H   0  0  0  0  0  0  0  0  0  0  0  0  # atno 10765 bound_to 10752
  139.9106  134.7980  156.2012 H   0  0  0  0  0  0  0  0  0  0  0  0  # atno 11005 bound_to 11000
  145.9158  139.2515  143.1411 LP  0  0  0  0  0  0  0  0  0  0  0  0  # atno 17320 bound_to 7965
  145.9670  140.8790  143.0181 LP  0  0  0  0  0  0  0  0  0  0  0  0  # atno 17321 bound_to 7965
  140.7817  143.4501  151.0426 LP  0  0  0  0  0  0  0  0  0  0  0  0  # atno 17342 bound_to 10162
  139.8182  143.7857  152.3175 LP  0  0  0  0  0  0  0  0  0  0  0  0  # atno 17343 bound_to 10162
  156.9626  130.9809  151.3476 LP  0  0  0  0  0  0  0  0  0  0  0  0  # atno 17370 bound_to 10713
  157.5715  130.8313  149.8398 LP  0  0  0  0  0  0  0  0  0  0  0  0  # atno 17371 bound_to 10713
  141.0523  133.6882  156.1796 LP  0  0  0  0  0  0  0  0  0  0  0  0  # atno 17394 bound_to 11000
  140.6790  134.4787  157.5588 LP  0  0  0  0  0  0  0  0  0  0  0  0  # atno 17395 bound_to 11000

$$$$
