AV-unprocessed.smi:799|AV-procd|sdf|3786|dock7
  -GOLD-   22720 1223D 1   1.00000     0.00000
 Structure written by MMmdl.
 47 48  0  0  0  0  0  0  0  0  1 V2000
  149.4202  142.2230  155.5185 C   0  0  0  0  0  0  0  0  0  0  0  0
  149.3562  140.8270  154.9730 C   0  0  0  0  0  0  0  0  0  0  0  0
  148.2184  140.1338  154.4675 C   0  0  0  0  0  0  0  0  0  0  0  0
  148.7380  138.9186  154.1136 C   0  0  0  0  0  0  0  0  0  0  0  0
  148.0951  137.8439  153.5851 N   0  0  0  0  0  0  0  0  0  0  0  0
  146.8424  137.4183  153.8230 C   0  0  0  0  0  0  0  0  0  0  0  0
  146.0390  137.9670  154.5772 O   0  0  0  0  0  0  0  0  0  0  0  0
  146.5718  136.3098  153.1119 N   0  0  0  0  0  0  0  0  0  0  0  0
  145.3097  135.5543  153.0279 C   0  0  2  0  0  0  0  0  0  0  0  0
  144.1784  136.6076  152.9707 C   0  0  0  0  0  0  0  0  0  0  0  0
  145.1328  134.6979  154.3164 C   0  0  0  0  0  0  0  0  0  0  0  0
  143.7941  134.2781  154.5056 O   0  0  0  0  0  0  0  0  0  0  0  0
  145.2961  134.6423  151.7466 C   0  0  0  0  0  0  0  0  0  0  0  0
  143.9786  133.8468  151.5422 C   0  0  0  0  0  0  0  0  0  0  0  0
  143.9778  133.0732  150.2138 C   0  0  0  0  0  0  0  0  0  0  0  0
  145.1814  132.1261  150.1196 C   0  0  0  0  0  0  0  0  0  0  0  0
  146.4959  132.8931  150.3144 C   0  0  0  0  0  0  0  0  0  0  0  0
  146.4988  133.6685  151.6420 C   0  0  0  0  0  0  0  0  0  0  0  0
  150.0850  138.9080  154.4072 N   0  0  0  0  0  0  0  0  0  0  0  0
  151.0760  137.8645  154.2264 C   0  0  0  0  0  0  0  0  0  0  0  0
  150.4624  140.0931  154.9332 N   0  0  0  0  0  0  0  0  0  0  0  0
  148.4307  142.6798  155.5482 H   0  0  0  0  0  0  0  0  0  0  0  0
  150.0593  142.8561  154.9027 H   0  0  0  0  0  0  0  0  0  0  0  0
  149.8192  142.2307  156.5329 H   0  0  0  0  0  0  0  0  0  0  0  0
  147.2002  140.4846  154.3909 H   0  0  0  0  0  0  0  0  0  0  0  0
  148.6199  137.3216  152.8991 H   0  0  0  0  0  0  0  0  0  0  0  0
  147.3170  135.9586  152.5291 H   0  0  0  0  0  0  0  0  0  0  0  0
  143.1912  136.1469  152.9903 H   0  0  0  0  0  0  0  0  0  0  0  0
  144.2377  137.2264  152.0760 H   0  0  0  0  0  0  0  0  0  0  0  0
  144.2232  137.2865  153.8231 H   0  0  0  0  0  0  0  0  0  0  0  0
  145.7444  133.7974  154.2742 H   0  0  0  0  0  0  0  0  0  0  0  0
  145.4515  135.2451  155.2037 H   0  0  0  0  0  0  0  0  0  0  0  0
  143.7892  133.3425  154.6379 H   0  0  0  0  0  0  0  0  0  0  0  0
  145.3850  135.3073  150.8871 H   0  0  0  0  0  0  0  0  0  0  0  0
  143.8322  133.1415  152.3599 H   0  0  0  0  0  0  0  0  0  0  0  0
  143.1134  134.5091  151.5500 H   0  0  0  0  0  0  0  0  0  0  0  0
  143.0519  132.5061  150.1143 H   0  0  0  0  0  0  0  0  0  0  0  0
  143.9991  133.7771  149.3809 H   0  0  0  0  0  0  0  0  0  0  0  0
  145.0954  131.3470  150.8779 H   0  0  0  0  0  0  0  0  0  0  0  0
  145.1841  131.6210  149.1533 H   0  0  0  0  0  0  0  0  0  0  0  0
  147.3362  132.1987  150.2890 H   0  0  0  0  0  0  0  0  0  0  0  0
  146.6431  133.5854  149.4845 H   0  0  0  0  0  0  0  0  0  0  0  0
  147.4436  134.2041  151.7178 H   0  0  0  0  0  0  0  0  0  0  0  0
  146.4804  132.9530  152.4641 H   0  0  0  0  0  0  0  0  0  0  0  0
  150.6104  136.9480  153.8641 H   0  0  0  0  0  0  0  0  0  0  0  0
  151.5689  137.6563  155.1762 H   0  0  0  0  0  0  0  0  0  0  0  0
  151.8225  138.1906  153.5014 H   0  0  0  0  0  0  0  0  0  0  0  0
  1  2  1  0  0  0  0
  1 22  1  0  0  0  0
  1 23  1  0  0  0  0
  1 24  1  0  0  0  0
  2 21  2  0  0  0  0
  2  3  1  0  0  0  0
  3  4  2  0  0  0  0
  3 25  1  0  0  0  0
  4  5  1  0  0  0  0
  4 19  1  0  0  0  0
  5  6  1  0  0  0  0
  5 26  1  0  0  0  0
  6  7  2  0  0  0  0
  6  8  1  0  0  0  0
  8  9  1  0  0  0  0
  8 27  1  0  0  0  0
  9 10  1  0  0  0  0
  9 11  1  0  0  0  0
  9 13  1  0  0  0  0
 10 28  1  0  0  0  0
 10 29  1  0  0  0  0
 10 30  1  0  0  0  0
 11 12  1  0  0  0  0
 11 31  1  0  0  0  0
 11 32  1  0  0  0  0
 12 33  1  0  0  0  0
 13 18  1  0  0  0  0
 13 14  1  0  0  0  0
 13 34  1  0  0  0  0
 14 15  1  0  0  0  0
 14 35  1  0  0  0  0
 14 36  1  0  0  0  0
 15 16  1  0  0  0  0
 15 37  1  0  0  0  0
 15 38  1  0  0  0  0
 16 17  1  0  0  0  0
 16 39  1  0  0  0  0
 16 40  1  0  0  0  0
 17 18  1  0  0  0  0
 17 41  1  0  0  0  0
 17 42  1  0  0  0  0
 18 43  1  0  0  0  0
 18 44  1  0  0  0  0
 19 20  1  0  0  0  0
 19 21  1  0  0  0  0
 20 45  1  0  0  0  0
 20 46  1  0  0  0  0
 20 47  1  0  0  0  0
M  END
> <s_m_source_file>
AV-unprocessed.smi

> <i_m_source_file_index>
799

> <i_lp_mmshare_version>
43012

> <i_f3d_flags>
0

> <s_epik_input>
W0NIM11jMVtjSF1jKG4objEpW0NIM10pW05IXUMoPU8pW05IXVtDQEBdKFtDSDNdKShbQ0gyXVtPSF0pW0NIXTJbQ0gyXVtDSDJdW0NIMl1bQ0gyXVtDSDJdMg==

> <s_epik_cmdline>
J2VwaWtfcHl0aG9uJywgJy1waCcsICc3LjAnLCAnLXRuJywgJzgnLCAnLW1hJywgJzIwMCcsICctbWV0YWxfYmluZGluZycsICctaW1hZScsICc8aW5maWxlLm1hZT4nLCAnLW9tYWUnLCAnPG91dGZpbGUubWFlPic=

> <r_lp_tautomer_probability>
1

> <r_epik_Ionization_Penalty>
9.86025e-05

> <r_epik_Ionization_Penalty_Charging>
0

> <r_epik_Ionization_Penalty_Neutral>
9.86025e-05

> <r_epik_State_Penalty>
-0

> <r_epik_Charging_Adjusted_Penalty>
0

> <i_epik_Tot_Q>
0

> <i_epik_Tot_abs_Q>
0

> <r_epik_Metal_State_Penalty>
-0

> <b_epik_Metal_Only>
0

> <s_lp_Force_Field>
OPLS_2005

> <r_lp_Energy>
22.5502

> <b_lp_Chiralities_Consistent>
1

> <s_lp_Variant>
AV-unprocessed.smi:799-2

> <Gold.Version>
5.8.1

> <Gold.Id.Protein>
6NUR|6NUR_protein|mol2

> <Gold.PLP.Fitness>
43.3349

> <Gold.PLP.PLP>
-33.1715

> <Gold.PLP.part.hbond>
-3.8946

> <Gold.PLP.part.metal>
0.0000

> <Gold.PLP.part.buried>
-0.1269

> <Gold.PLP.part.nonpolar>
-31.0859

> <Gold.PLP.part.repulsive>
0.1922

> <Gold.PLP.ligand.clash>
0.0000

> <Gold.PLP.ligand.torsion>
0.8423

> <Gold.PLP.Chemscore.Hbond>
3.9265

> <Gold.PLP.Chemscore.CHOScore>
0.0000

> <Gold.PLP.Chemscore.Metal>
0.0000

> <Gold.Chemscore.Hbonds>
donor molecule, donor type, donor heavy atom, donor atom, acceptor molecule, acceptor atom, score
      L1  H     5    26       P1  7948  0.99
      L1  H     8    27       P1  7948  0.96
      L1  H    12    33       P1 10957  0.91
      P1  H  7989  7998       L1    21  1.00

> <Gold.PLP.Chemscore.Internal.Correction>
0.0686

> <Gold.Rescore>
     Score         DG    S(hbond)    S(metal)    S(lipo)     H(rot)  DE(clash)    DE(int)     intcor
     16.29     -18.94       2.90        0.00      76.33       2.01       0.01       2.63       ----

> <Gold.Chemscore.Fitness>
16.2897

> <Gold.Chemscore.DG>
-18.9359

> <Gold.Chemscore.ZeroCoef>
-5.4800

> <Gold.Chemscore.Hbond>
2.8990

> <Gold.Chemscore.Metal>
0.0000

> <Gold.Chemscore.Lipo>
76.3266

> <Gold.Chemscore.Internal_Hbond>
0.0000

> <Gold.Chemscore.DEClash>
0.0121

> <Gold.Chemscore.DEInternal>
2.6341

> <Gold.Chemscore.Rot>
2.0144

> <Gold.Chemscore.Internal.Correction>
   9.000000E+99

> <Gold.Chemscore.Hbonds>
donor molecule, donor type, donor heavy atom, donor atom, acceptor molecule, acceptor atom, score
      L1  H     5    26       P1  7948  0.92
      L1  H     8    27       P1  7948  0.92
      L1  H    12    33       P1 10957  0.87
      P1  H  7989  7998       L1    21  0.23

> <Gold.Chemscore.Hbond.Weighted>
-9.6825

> <Gold.Chemscore.Metal.Weighted>
-0.0000

> <Gold.Chemscore.Lipo.Weighted>
-8.9302

> <Gold.Chemscore.Internal_Hbond.Weighted>
0.0000

> <Gold.Chemscore.DEClash.Weighted>
0.0121

> <Gold.Chemscore.DEInternal.Weighted>
2.6341

> <Gold.Chemscore.Rot.Weighted>
5.1568

> <Gold.Chemscore.Internal.Correction.Weighted>
   9.000000E+99

> <Gold.Protein.RotatedTorsions>
[ 6907 6896 6895 6894 ] final -105.14 input  -60.11 | X-H torsion
[ 7974 7965 7964 7962 ] final  -78.55 input  175.53 | X-H torsion
[ 8008 7997 7996 7995 ] final   75.81 input   59.86 | X-H torsion
[ 10167 10162 10161 10158 ] final -173.54 input  -65.29 | X-H torsion
[ 10718 10713 10712 10709 ] final  113.95 input   66.30 | X-H torsion
[ 10763 10752 10751 10750 ] final  -16.83 input  -60.55 | X-H torsion
[ 11005 11000 10999 10996 ] final -130.70 input  -57.11 | X-H torsion

> <Gold.Protein.ActiveResidues>
 VAL166  LYS551  ARG553  GLY616  TRP617  ASP618  TYR619  PRO620  LYS621  CYS622 
 ASP623  PHE694  ASN695  SER759  ASP760  ASP761  ALA762  ILE779  LEU786  VAL792 
 PHE793  MET794  SER795  GLU796  ALA797  LYS798  CYS799  TRP800  GLU811  SER814 

> <Gold.Protein.RotatedAtoms>
  150.7322  134.0172  159.3688 H   0  0  0  0  0  0  0  0  0  0  0  0  # atno 6907 bound_to 6896
  151.8135  135.0671  160.0425 H   0  0  0  0  0  0  0  0  0  0  0  0  # atno 6908 bound_to 6896
  152.3055  133.5663  159.5683 H   0  0  0  0  0  0  0  0  0  0  0  0  # atno 6909 bound_to 6896
  145.5850  140.9441  143.1323 H   0  0  0  0  0  0  0  0  0  0  0  0  # atno 7974 bound_to 7965
  155.8183  140.3470  155.5499 H   0  0  0  0  0  0  0  0  0  0  0  0  # atno 8008 bound_to 7997
  155.8368  140.0935  157.1779 H   0  0  0  0  0  0  0  0  0  0  0  0  # atno 8009 bound_to 7997
  154.4004  140.1402  156.3668 H   0  0  0  0  0  0  0  0  0  0  0  0  # atno 8010 bound_to 7997
  139.5683  144.1703  152.1345 H   0  0  0  0  0  0  0  0  0  0  0  0  # atno 10167 bound_to 10162
  157.6309  131.0991  150.7115 H   0  0  0  0  0  0  0  0  0  0  0  0  # atno 10718 bound_to 10713
  153.5645  135.7009  153.5532 H   0  0  0  0  0  0  0  0  0  0  0  0  # atno 10763 bound_to 10752
  153.3399  135.4024  155.1563 H   0  0  0  0  0  0  0  0  0  0  0  0  # atno 10764 bound_to 10752
  154.8643  135.3739  154.5165 H   0  0  0  0  0  0  0  0  0  0  0  0  # atno 10765 bound_to 10752
  140.9322  134.1304  157.4224 H   0  0  0  0  0  0  0  0  0  0  0  0  # atno 11005 bound_to 11000
  144.7376  139.7539  143.7323 LP  0  0  0  0  0  0  0  0  0  0  0  0  # atno 17320 bound_to 7965
  146.1688  139.4831  142.9941 LP  0  0  0  0  0  0  0  0  0  0  0  0  # atno 17321 bound_to 7965
  140.1230  144.5356  150.6850 LP  0  0  0  0  0  0  0  0  0  0  0  0  # atno 17342 bound_to 10162
  140.6967  143.2408  151.4981 LP  0  0  0  0  0  0  0  0  0  0  0  0  # atno 17343 bound_to 10162
  156.7454  130.4752  149.5468 LP  0  0  0  0  0  0  0  0  0  0  0  0  # atno 17370 bound_to 10713
  156.1512  130.6311  151.0598 LP  0  0  0  0  0  0  0  0  0  0  0  0  # atno 17371 bound_to 10713
  139.8799  135.0009  156.6036 LP  0  0  0  0  0  0  0  0  0  0  0  0  # atno 17394 bound_to 11000
  140.7847  133.8631  155.8596 LP  0  0  0  0  0  0  0  0  0  0  0  0  # atno 17395 bound_to 11000

$$$$
