AV-unprocessed.smi:3335|AV-procd|sdf|12850|dock8
  -GOLD-   2272019243D 1   1.00000     0.00000
 Structure written by MMmdl.
 46 47  0  0  0  0  0  0  0  0  1 V2000
  146.9721  134.5054  161.7211 C   0  0  0  0  0  0  0  0  0  0  0  0
  147.2737  135.7450  160.9296 C   0  0  0  0  0  0  0  0  0  0  0  0
  146.4718  136.9128  160.7926 C   0  0  0  0  0  0  0  0  0  0  0  0
  147.0327  137.8332  160.0268 N   0  0  0  0  0  0  0  0  0  0  0  0
  148.2073  137.2879  159.6369 N   0  0  0  0  0  0  0  0  0  0  0  0
  149.1362  138.0364  158.7919 C   0  0  1  0  0  0  0  0  0  0  0  0
  150.4120  137.2330  158.4695 C   0  0  0  0  0  0  0  0  0  0  0  0
  148.4607  138.6470  157.5332 C   0  0  2  0  0  0  0  0  0  0  0  0
  148.5683  137.7072  156.3149 C   0  0  0  0  0  0  0  0  0  0  0  0
  149.0355  139.9689  157.2652 N   0  0  0  0  0  0  0  0  0  0  0  0
  150.5004  140.0959  157.3671 C   0  0  1  0  0  0  0  0  0  0  0  0
  151.1583  139.3244  156.2128 C   0  0  0  0  0  0  0  0  0  0  0  0
  150.9712  141.5653  157.3325 C   0  0  0  0  0  0  0  0  0  0  0  0
  150.7218  142.2430  156.3338 O   0  0  0  0  0  0  0  0  0  0  0  0
  151.6326  142.0786  158.3924 N   0  0  0  0  0  0  0  0  0  0  0  0
  151.9738  141.2920  159.5766 C   0  0  0  0  0  0  0  0  0  0  0  0
  152.9244  142.1637  160.3964 C   0  0  0  0  0  0  0  0  0  0  0  0
  152.5657  143.5856  159.9907 C   0  0  0  0  0  0  0  0  0  0  0  0
  152.1056  143.4549  158.5389 C   0  0  0  0  0  0  0  0  0  0  0  0
  148.3776  136.0291  160.1770 C   0  0  0  0  0  0  0  0  0  0  0  0
  146.0351  134.5932  162.2714 H   0  0  0  0  0  0  0  0  0  0  0  0
  147.7540  134.2947  162.4507 H   0  0  0  0  0  0  0  0  0  0  0  0
  146.8860  133.6295  161.0781 H   0  0  0  0  0  0  0  0  0  0  0  0
  145.5056  137.1197  161.2286 H   0  0  0  0  0  0  0  0  0  0  0  0
  149.4722  138.8789  159.3983 H   0  0  0  0  0  0  0  0  0  0  0  0
  151.1302  137.8458  157.9240 H   0  0  0  0  0  0  0  0  0  0  0  0
  150.2007  136.3539  157.8604 H   0  0  0  0  0  0  0  0  0  0  0  0
  150.8995  136.8922  159.3831 H   0  0  0  0  0  0  0  0  0  0  0  0
  147.4032  138.7771  157.7673 H   0  0  0  0  0  0  0  0  0  0  0  0
  148.2848  136.6894  156.5832 H   0  0  0  0  0  0  0  0  0  0  0  0
  149.5828  137.6732  155.9167 H   0  0  0  0  0  0  0  0  0  0  0  0
  147.8996  138.0109  155.5107 H   0  0  0  0  0  0  0  0  0  0  0  0
  148.5469  140.6956  157.7699 H   0  0  0  0  0  0  0  0  0  0  0  0
  150.8088  139.6111  158.2921 H   0  0  0  0  0  0  0  0  0  0  0  0
  152.2463  139.3737  156.2717 H   0  0  0  0  0  0  0  0  0  0  0  0
  150.8595  139.7209  155.2413 H   0  0  0  0  0  0  0  0  0  0  0  0
  150.8788  138.2707  156.2389 H   0  0  0  0  0  0  0  0  0  0  0  0
  151.0628  141.0830  160.1391 H   0  0  0  0  0  0  0  0  0  0  0  0
  152.4383  140.3395  159.3164 H   0  0  0  0  0  0  0  0  0  0  0  0
  152.8350  141.9934  161.4696 H   0  0  0  0  0  0  0  0  0  0  0  0
  153.9549  141.9516  160.1084 H   0  0  0  0  0  0  0  0  0  0  0  0
  151.7384  143.9420  160.6058 H   0  0  0  0  0  0  0  0  0  0  0  0
  153.3955  144.2824  160.1107 H   0  0  0  0  0  0  0  0  0  0  0  0
  152.9438  143.6182  157.8598 H   0  0  0  0  0  0  0  0  0  0  0  0
  151.3285  144.1851  158.3091 H   0  0  0  0  0  0  0  0  0  0  0  0
  149.2665  135.4461  159.9866 H   0  0  0  0  0  0  0  0  0  0  0  0
  1  2  1  0  0  0  0
  1 21  1  0  0  0  0
  1 22  1  0  0  0  0
  1 23  1  0  0  0  0
  2 20  2  0  0  0  0
  2  3  1  0  0  0  0
  3  4  2  0  0  0  0
  3 24  1  0  0  0  0
  4  5  1  0  0  0  0
  5  6  1  0  0  0  0
  5 20  1  0  0  0  0
  6  7  1  0  0  0  0
  6  8  1  0  0  0  0
  6 25  1  0  0  0  0
  7 26  1  0  0  0  0
  7 27  1  0  0  0  0
  7 28  1  0  0  0  0
  8  9  1  0  0  0  0
  8 10  1  0  0  0  0
  8 29  1  0  0  0  0
  9 30  1  0  0  0  0
  9 31  1  0  0  0  0
  9 32  1  0  0  0  0
 10 11  1  0  0  0  0
 10 33  1  0  0  0  0
 11 12  1  0  0  0  0
 11 13  1  0  0  0  0
 11 34  1  0  0  0  0
 12 35  1  0  0  0  0
 12 36  1  0  0  0  0
 12 37  1  0  0  0  0
 13 14  2  0  0  0  0
 13 15  1  0  0  0  0
 15 19  1  0  0  0  0
 15 16  1  0  0  0  0
 16 17  1  0  0  0  0
 16 38  1  0  0  0  0
 16 39  1  0  0  0  0
 17 18  1  0  0  0  0
 17 40  1  0  0  0  0
 17 41  1  0  0  0  0
 18 19  1  0  0  0  0
 18 42  1  0  0  0  0
 18 43  1  0  0  0  0
 19 44  1  0  0  0  0
 19 45  1  0  0  0  0
 20 46  1  0  0  0  0
M  END
> <s_m_source_file>
AV-unprocessed.smi

> <i_m_source_file_index>
3335

> <i_lp_mmshare_version>
43012

> <i_f3d_flags>
0

> <s_epik_input>
W0NIM11jMVtjSF1ubihbY0hdMSlbQ0BIXShbQ0gzXSlbQ0BIXShbQ0gzXSlbTkhdW0NASF0oW0NIM10pQyg9TylOMltDSDJdW0NIMl1bQ0gyXVtDSDJdMg==

> <s_epik_cmdline>
J2VwaWtfcHl0aG9uJywgJy1waCcsICc3LjAnLCAnLXRuJywgJzgnLCAnLW1hJywgJzIwMCcsICctbWV0YWxfYmluZGluZycsICctaW1hZScsICc8aW5maWxlLm1hZT4nLCAnLW9tYWUnLCAnPG91dGZpbGUubWFlPic=

> <r_lp_tautomer_probability>
1

> <r_epik_Ionization_Penalty>
0.918803

> <r_epik_Ionization_Penalty_Charging>
0

> <r_epik_Ionization_Penalty_Neutral>
0.918803

> <r_epik_State_Penalty>
0.958258

> <r_epik_Charging_Adjusted_Penalty>
0.958258

> <i_epik_Tot_Q>
0

> <i_epik_Tot_abs_Q>
0

> <r_epik_Metal_State_Penalty>
0.956786

> <b_epik_Metal_Only>
0

> <s_lp_Force_Field>
OPLS_2005

> <r_lp_Energy>
40.2433

> <b_lp_Chiralities_Consistent>
1

> <s_lp_Variant>
AV-unprocessed.smi:3335-14

> <Gold.Version>
5.8.1

> <Gold.Id.Protein>
6NUR|6NUR_protein|mol2

> <Gold.PLP.Fitness>
35.2161

> <Gold.PLP.PLP>
-34.3966

> <Gold.PLP.part.hbond>
-1.0000

> <Gold.PLP.part.metal>
0.0000

> <Gold.PLP.part.buried>
-4.8370

> <Gold.PLP.part.nonpolar>
-29.4864

> <Gold.PLP.part.repulsive>
0.2268

> <Gold.PLP.ligand.clash>
0.0000

> <Gold.PLP.ligand.torsion>
1.1040

> <Gold.PLP.Chemscore.Hbond>
0.9280

> <Gold.PLP.Chemscore.CHOScore>
0.0000

> <Gold.PLP.Chemscore.Metal>
0.0000

> <Gold.Chemscore.Hbonds>
donor molecule, donor type, donor heavy atom, donor atom, acceptor molecule, acceptor atom, score
      P1  H  6934  6947       L1     4  0.89

> <Gold.PLP.Chemscore.Internal.Correction>
0.2435

> <Gold.Rescore>
     Score         DG    S(hbond)    S(metal)    S(lipo)     H(rot)  DE(clash)    DE(int)     intcor
     13.07     -14.41       0.94        0.00      85.07       1.62       0.03       1.31       ----

> <Gold.Chemscore.Fitness>
13.0716

> <Gold.Chemscore.DG>
-14.4107

> <Gold.Chemscore.ZeroCoef>
-5.4800

> <Gold.Chemscore.Hbond>
0.9358

> <Gold.Chemscore.Metal>
0.0000

> <Gold.Chemscore.Lipo>
85.0713

> <Gold.Chemscore.Internal_Hbond>
0.0000

> <Gold.Chemscore.DEClash>
0.0270

> <Gold.Chemscore.DEInternal>
1.3121

> <Gold.Chemscore.Rot>
1.6204

> <Gold.Chemscore.Internal.Correction>
   9.000000E+99

> <Gold.Chemscore.Hbonds>
donor molecule, donor type, donor heavy atom, donor atom, acceptor molecule, acceptor atom, score
      P1  H  6934  6947       L1     4  0.36

> <Gold.Chemscore.Hbond.Weighted>
-3.1255

> <Gold.Chemscore.Metal.Weighted>
-0.0000

> <Gold.Chemscore.Lipo.Weighted>
-9.9533

> <Gold.Chemscore.Internal_Hbond.Weighted>
0.0000

> <Gold.Chemscore.DEClash.Weighted>
0.0270

> <Gold.Chemscore.DEInternal.Weighted>
1.3121

> <Gold.Chemscore.Rot.Weighted>
4.1482

> <Gold.Chemscore.Internal.Correction.Weighted>
   9.000000E+99

> <Gold.Protein.RotatedTorsions>
[ 6907 6896 6895 6894 ] final -124.96 input  -60.11 | X-H torsion
[ 7974 7965 7964 7962 ] final  -14.71 input  175.53 | X-H torsion
[ 8008 7997 7996 7995 ] final  -99.65 input   59.86 | X-H torsion
[ 10167 10162 10161 10158 ] final  142.09 input  -65.29 | X-H torsion
[ 10718 10713 10712 10709 ] final   83.15 input   66.30 | X-H torsion
[ 10763 10752 10751 10750 ] final  -20.31 input  -60.55 | X-H torsion
[ 11005 11000 10999 10996 ] final  -18.29 input  -57.11 | X-H torsion

> <Gold.Protein.ActiveResidues>
 VAL166  LYS551  ARG553  GLY616  TRP617  ASP618  TYR619  PRO620  LYS621  CYS622 
 ASP623  PHE694  ASN695  SER759  ASP760  ASP761  ALA762  ILE779  LEU786  VAL792 
 PHE793  MET794  SER795  GLU796  ALA797  LYS798  CYS799  TRP800  GLU811  SER814 

> <Gold.Protein.RotatedAtoms>
  150.8820  133.7359  159.2929 H   0  0  0  0  0  0  0  0  0  0  0  0  # atno 6907 bound_to 6896
  151.4937  135.1057  159.9820 H   0  0  0  0  0  0  0  0  0  0  0  0  # atno 6908 bound_to 6896
  152.4766  133.8107  159.7057 H   0  0  0  0  0  0  0  0  0  0  0  0  # atno 6909 bound_to 6896
  146.2063  140.3388  142.8406 H   0  0  0  0  0  0  0  0  0  0  0  0  # atno 7974 bound_to 7965
  154.8177  140.0446  157.1389 H   0  0  0  0  0  0  0  0  0  0  0  0  # atno 8008 bound_to 7997
  154.9295  140.3038  155.5155 H   0  0  0  0  0  0  0  0  0  0  0  0  # atno 8009 bound_to 7997
  156.2977  140.2325  156.4353 H   0  0  0  0  0  0  0  0  0  0  0  0  # atno 8010 bound_to 7997
  139.5003  144.6129  151.6230 H   0  0  0  0  0  0  0  0  0  0  0  0  # atno 10167 bound_to 10162
  157.6873  131.0078  150.2480 H   0  0  0  0  0  0  0  0  0  0  0  0  # atno 10718 bound_to 10713
  153.6185  135.6993  153.5319 H   0  0  0  0  0  0  0  0  0  0  0  0  # atno 10763 bound_to 10752
  153.2957  135.4143  155.1207 H   0  0  0  0  0  0  0  0  0  0  0  0  # atno 10764 bound_to 10752
  154.8548  135.3636  154.5725 H   0  0  0  0  0  0  0  0  0  0  0  0  # atno 10765 bound_to 10752
  140.8253  133.8037  155.9702 H   0  0  0  0  0  0  0  0  0  0  0  0  # atno 11005 bound_to 11000
  144.8800  140.7388  143.5992 LP  0  0  0  0  0  0  0  0  0  0  0  0  # atno 17320 bound_to 7965
  145.3308  139.1760  143.4538 LP  0  0  0  0  0  0  0  0  0  0  0  0  # atno 17321 bound_to 7965
  140.5809  143.9948  150.6268 LP  0  0  0  0  0  0  0  0  0  0  0  0  # atno 17342 bound_to 10162
  140.3096  143.3206  152.0892 LP  0  0  0  0  0  0  0  0  0  0  0  0  # atno 17343 bound_to 10162
  156.3082  130.3768  149.7686 LP  0  0  0  0  0  0  0  0  0  0  0  0  # atno 17370 bound_to 10713
  156.5295  130.8251  151.3232 LP  0  0  0  0  0  0  0  0  0  0  0  0  # atno 17371 bound_to 10713
  140.9056  134.2325  157.5016 LP  0  0  0  0  0  0  0  0  0  0  0  0  # atno 17394 bound_to 11000
  139.8707  134.9726  156.4780 LP  0  0  0  0  0  0  0  0  0  0  0  0  # atno 17395 bound_to 11000

$$$$
