AV-unprocessed.smi:276|AV-procd|sdf|2073|dock2
  -GOLD-   2262021333D 1   1.00000     0.00000
 Structure written by MMmdl.
 57 61  0  0  0  0  0  0  0  0  1 V2000
  152.4999  139.0389  158.1238 C   0  0  0  0  0  0  0  0  0  0  0  0
  152.3177  139.9430  157.0484 O   0  0  0  0  0  0  0  0  0  0  0  0
  150.9727  139.9922  156.5993 C   0  0  1  0  0  0  0  0  0  0  0  0
  150.6418  141.1968  155.7096 C   0  0  0  0  0  0  0  0  0  0  0  0
  149.8162  140.2541  154.8119 C   0  0  2  0  0  0  0  0  0  0  0  0
  148.3991  140.2381  155.2041 N   0  0  0  0  0  0  0  0  0  0  0  0
  147.6207  141.4204  154.8492 C   0  0  0  0  0  0  0  0  0  0  0  0
  147.7112  139.1250  154.8662 C   0  0  0  0  0  0  0  0  0  0  0  0
  147.5207  138.1999  155.8391 N   0  0  0  0  0  0  0  0  0  0  0  0
  146.8749  137.0631  155.5627 C   0  0  0  0  0  0  0  0  0  0  0  0
  146.3517  136.6609  154.4025 N   0  0  0  0  0  0  0  0  0  0  0  0
  146.5275  137.5980  153.4270 C   0  0  0  0  0  0  0  0  0  0  0  0
  147.1789  138.8546  153.5730 C   0  0  0  0  0  0  0  0  0  0  0  0
  147.1511  139.5446  152.3668 N   0  0  0  0  0  0  0  0  0  0  0  0
  146.5372  138.7339  151.5494 C   0  0  0  0  0  0  0  0  0  0  0  0
  146.1535  137.5306  152.0965 N   0  0  0  0  0  0  0  0  0  0  0  0
  145.4773  136.4434  151.4122 C   0  0  0  0  0  0  0  0  0  0  0  0
  145.5315  135.1004  152.1771 C   0  0  2  0  0  0  0  0  0  0  0  0
  146.8835  134.6917  152.1258 O   0  0  0  0  0  0  0  0  0  0  0  0
  144.6839  133.9529  151.5772 C   0  0  2  0  0  0  0  0  0  0  0  0
  145.0404  132.5329  152.0346 C   0  0  0  0  0  0  0  0  0  0  0  0
  144.6647  131.6455  150.8579 C   0  0  0  0  0  0  0  0  0  0  0  0
  144.3813  132.6335  149.7285 C   0  0  0  0  0  0  0  0  0  0  0  0
  144.9436  133.8540  150.1837 O   0  0  0  0  0  0  0  0  0  0  0  0
  150.6897  139.0998  155.3777 C   0  0  0  0  0  0  0  0  0  0  0  0
  151.8600  138.5588  154.5355 C   0  0  0  0  0  0  0  0  0  0  0  0
  151.6983  137.2233  155.2661 C   0  0  0  0  0  0  0  0  0  0  0  0
  150.2517  137.6321  155.5518 C   0  0  0  0  0  0  0  0  0  0  0  0
  153.5475  139.0340  158.4239 H   0  0  0  0  0  0  0  0  0  0  0  0
  152.2279  138.0233  157.8337 H   0  0  0  0  0  0  0  0  0  0  0  0
  151.9036  139.3267  158.9904 H   0  0  0  0  0  0  0  0  0  0  0  0
  150.2399  139.8360  157.3938 H   0  0  0  0  0  0  0  0  0  0  0  0
  150.0976  141.9909  156.2198 H   0  0  0  0  0  0  0  0  0  0  0  0
  151.5204  141.5922  155.1970 H   0  0  0  0  0  0  0  0  0  0  0  0
  149.9825  140.4494  153.7523 H   0  0  0  0  0  0  0  0  0  0  0  0
  146.5508  141.2611  154.9930 H   0  0  0  0  0  0  0  0  0  0  0  0
  147.7857  141.6896  153.8055 H   0  0  0  0  0  0  0  0  0  0  0  0
  147.9040  142.2701  155.4693 H   0  0  0  0  0  0  0  0  0  0  0  0
  146.7693  136.3739  156.3876 H   0  0  0  0  0  0  0  0  0  0  0  0
  146.3613  138.9869  150.5138 H   0  0  0  0  0  0  0  0  0  0  0  0
  144.4423  136.7287  151.2201 H   0  0  0  0  0  0  0  0  0  0  0  0
  145.9536  136.3363  150.4365 H   0  0  0  0  0  0  0  0  0  0  0  0
  145.2628  135.2567  153.2224 H   0  0  0  0  0  0  0  0  0  0  0  0
  147.4245  135.4585  152.0152 H   0  0  0  0  0  0  0  0  0  0  0  0
  143.6189  134.1336  151.7374 H   0  0  0  0  0  0  0  0  0  0  0  0
  146.1122  132.4467  152.2163 H   0  0  0  0  0  0  0  0  0  0  0  0
  144.5172  132.2454  152.9460 H   0  0  0  0  0  0  0  0  0  0  0  0
  145.4901  130.9805  150.6030 H   0  0  0  0  0  0  0  0  0  0  0  0
  143.7895  131.0311  151.0716 H   0  0  0  0  0  0  0  0  0  0  0  0
  144.8165  132.3239  148.7781 H   0  0  0  0  0  0  0  0  0  0  0  0
  143.3069  132.7613  149.5879 H   0  0  0  0  0  0  0  0  0  0  0  0
  151.6139  138.4862  153.4746 H   0  0  0  0  0  0  0  0  0  0  0  0
  152.8202  139.0523  154.6878 H   0  0  0  0  0  0  0  0  0  0  0  0
  151.8104  136.3405  154.6368 H   0  0  0  0  0  0  0  0  0  0  0  0
  152.3062  137.1579  156.1699 H   0  0  0  0  0  0  0  0  0  0  0  0
  149.8908  137.3739  156.5475 H   0  0  0  0  0  0  0  0  0  0  0  0
  149.5817  137.2694  154.7733 H   0  0  0  0  0  0  0  0  0  0  0  0
  1  2  1  0  0  0  0
  1 29  1  0  0  0  0
  1 30  1  0  0  0  0
  1 31  1  0  0  0  0
  2  3  1  0  0  0  0
  3 25  1  0  0  0  0
  3  4  1  0  0  0  0
  3 32  1  0  0  0  0
  4  5  1  0  0  0  0
  4 33  1  0  0  0  0
  4 34  1  0  0  0  0
  5  6  1  0  0  0  0
  5 25  1  0  0  0  0
  5 35  1  0  0  0  0
  6  7  1  0  0  0  0
  6  8  1  0  0  0  0
  7 36  1  0  0  0  0
  7 37  1  0  0  0  0
  7 38  1  0  0  0  0
  8 13  1  0  0  0  0
  8  9  2  0  0  0  0
  9 10  1  0  0  0  0
 10 11  2  0  0  0  0
 10 39  1  0  0  0  0
 11 12  1  0  0  0  0
 12 16  1  0  0  0  0
 12 13  2  0  0  0  0
 13 14  1  0  0  0  0
 14 15  2  0  0  0  0
 15 16  1  0  0  0  0
 15 40  1  0  0  0  0
 16 17  1  0  0  0  0
 17 18  1  0  0  0  0
 17 41  1  0  0  0  0
 17 42  1  0  0  0  0
 18 19  1  0  0  0  0
 18 20  1  0  0  0  0
 18 43  1  0  0  0  0
 19 44  1  0  0  0  0
 20 24  1  0  0  0  0
 20 21  1  0  0  0  0
 20 45  1  0  0  0  0
 21 22  1  0  0  0  0
 21 46  1  0  0  0  0
 21 47  1  0  0  0  0
 22 23  1  0  0  0  0
 22 48  1  0  0  0  0
 22 49  1  0  0  0  0
 23 24  1  0  0  0  0
 23 50  1  0  0  0  0
 23 51  1  0  0  0  0
 25 28  1  0  0  0  0
 25 26  1  0  0  0  0
 26 27  1  0  0  0  0
 26 52  1  0  0  0  0
 26 53  1  0  0  0  0
 27 28  1  0  0  0  0
 27 54  1  0  0  0  0
 27 55  1  0  0  0  0
 28 56  1  0  0  0  0
 28 57  1  0  0  0  0
M  END
> <s_m_source_file>
AV-unprocessed.smi

> <i_m_source_file_index>
276

> <i_lp_mmshare_version>
43012

> <i_f3d_flags>
0

> <s_epik_input>
W0NIMl0xW0NIMl1bQ0gyXUMxMltDQEhdKE9bQ0gzXSlbQ0gyXVtDQEhdMk4oW0NIM10pYyhuW2NIXW4zKWMoYzM0KW5bY0hdbjRbQ0gyXVtDQEhdKFtPSF0pW0NAQEhdNVtDSDJdW0NIMl1bQ0gyXU81

> <s_epik_cmdline>
J2VwaWtfcHl0aG9uJywgJy1waCcsICc3LjAnLCAnLXRuJywgJzgnLCAnLW1hJywgJzIwMCcsICctbWV0YWxfYmluZGluZycsICctaW1hZScsICc8aW5maWxlLm1hZT4nLCAnLW9tYWUnLCAnPG91dGZpbGUubWFlPic=

> <r_lp_tautomer_probability>
1

> <r_epik_Ionization_Penalty>
0.00204117

> <r_epik_Ionization_Penalty_Charging>
0

> <r_epik_Ionization_Penalty_Neutral>
0.00204117

> <r_epik_State_Penalty>
0.00127401

> <r_epik_Charging_Adjusted_Penalty>
0.00127401

> <i_epik_Tot_Q>
0

> <i_epik_Tot_abs_Q>
0

> <r_epik_Metal_State_Penalty>
-0

> <b_epik_Metal_Only>
0

> <s_lp_Force_Field>
OPLS_2005

> <r_lp_Energy>
57.8978

> <b_lp_Chiralities_Consistent>
1

> <s_lp_Variant>
AV-unprocessed.smi:276-4

> <Gold.Version>
5.8.1

> <Gold.Id.Protein>
6NUR|6NUR_protein|mol2

> <Gold.PLP.Fitness>
45.1286

> <Gold.PLP.PLP>
-38.7242

> <Gold.PLP.part.hbond>
-2.0000

> <Gold.PLP.part.metal>
0.0000

> <Gold.PLP.part.buried>
-1.4002

> <Gold.PLP.part.nonpolar>
-37.5374

> <Gold.PLP.part.repulsive>
3.3040

> <Gold.PLP.ligand.clash>
0.0000

> <Gold.PLP.ligand.torsion>
1.2778

> <Gold.PLP.Chemscore.Hbond>
2.0000

> <Gold.PLP.Chemscore.CHOScore>
0.7027

> <Gold.PLP.Chemscore.Metal>
0.0000

> <Gold.Chemscore.Hbonds>
donor molecule, donor type, donor heavy atom, donor atom, acceptor molecule, acceptor atom, score
      L1  H    19    44       P1  7948  1.00
      P1  H  7997  8010       L1     2  0.73
      L1  C    15    40       P1 10171  0.57

> <Gold.PLP.Chemscore.Internal.Correction>
0.8520

> <Gold.Rescore>
     Score         DG    S(hbond)    S(metal)    S(lipo)     H(rot)  DE(clash)    DE(int)     intcor
      9.21     -13.41       0.96        0.00      99.71       2.72       0.39       3.81       ----

> <Gold.Chemscore.Fitness>
9.2075

> <Gold.Chemscore.DG>
-13.4055

> <Gold.Chemscore.ZeroCoef>
-5.4800

> <Gold.Chemscore.Hbond>
0.9628

> <Gold.Chemscore.Metal>
0.0000

> <Gold.Chemscore.Lipo>
99.7072

> <Gold.Chemscore.Internal_Hbond>
0.0000

> <Gold.Chemscore.DEClash>
0.3883

> <Gold.Chemscore.DEInternal>
3.8098

> <Gold.Chemscore.Rot>
2.7172

> <Gold.Chemscore.Internal.Correction>
   9.000000E+99

> <Gold.Chemscore.Hbonds>
donor molecule, donor type, donor heavy atom, donor atom, acceptor molecule, acceptor atom, score
      L1  H    19    44       P1  7948  0.95
      P1  H  7997  8010       L1     2  0.18

> <Gold.Chemscore.Hbond.Weighted>
-3.2158

> <Gold.Chemscore.Metal.Weighted>
-0.0000

> <Gold.Chemscore.Lipo.Weighted>
-11.6657

> <Gold.Chemscore.Internal_Hbond.Weighted>
0.0000

> <Gold.Chemscore.DEClash.Weighted>
0.3883

> <Gold.Chemscore.DEInternal.Weighted>
3.8098

> <Gold.Chemscore.Rot.Weighted>
6.9560

> <Gold.Chemscore.Internal.Correction.Weighted>
   9.000000E+99

> <Gold.Protein.RotatedTorsions>
[ 6907 6896 6895 6894 ] final  -57.28 input  -60.11 | X-H torsion
[ 7974 7965 7964 7962 ] final  -76.02 input  175.53 | X-H torsion
[ 8008 7997 7996 7995 ] final   77.22 input   59.86 | X-H torsion
[ 10167 10162 10161 10158 ] final   96.29 input  -65.29 | X-H torsion
[ 10718 10713 10712 10709 ] final  179.15 input   66.30 | X-H torsion
[ 10763 10752 10751 10750 ] final  -67.57 input  -60.55 | X-H torsion
[ 11005 11000 10999 10996 ] final  -42.75 input  -57.11 | X-H torsion

> <Gold.Protein.ActiveResidues>
 VAL166  LYS551  ARG553  GLY616  TRP617  ASP618  TYR619  PRO620  LYS621  CYS622 
 ASP623  PHE694  ASN695  SER759  ASP760  ASP761  ALA762  ILE779  LEU786  VAL792 
 PHE793  MET794  SER795  GLU796  ALA797  LYS798  CYS799  TRP800  GLU811  SER814 

> <Gold.Protein.RotatedAtoms>
  150.8099  134.7247  159.6678 H   0  0  0  0  0  0  0  0  0  0  0  0  # atno 6907 bound_to 6896
  152.4219  134.5936  159.9991 H   0  0  0  0  0  0  0  0  0  0  0  0  # atno 6908 bound_to 6896
  151.6149  133.3307  159.3111 H   0  0  0  0  0  0  0  0  0  0  0  0  # atno 6909 bound_to 6896
  145.6184  140.9369  143.1151 H   0  0  0  0  0  0  0  0  0  0  0  0  # atno 7974 bound_to 7965
  155.8385  140.3463  155.5617 H   0  0  0  0  0  0  0  0  0  0  0  0  # atno 8008 bound_to 7997
  155.8165  140.0906  157.1893 H   0  0  0  0  0  0  0  0  0  0  0  0  # atno 8009 bound_to 7997
  154.4004  140.1438  156.3437 H   0  0  0  0  0  0  0  0  0  0  0  0  # atno 8010 bound_to 7997
  139.7908  144.6852  150.9894 H   0  0  0  0  0  0  0  0  0  0  0  0  # atno 10167 bound_to 10162
  156.8801  130.9813  151.3063 H   0  0  0  0  0  0  0  0  0  0  0  0  # atno 10718 bound_to 10713
  154.3764  135.6084  153.5767 H   0  0  0  0  0  0  0  0  0  0  0  0  # atno 10763 bound_to 10752
  152.9789  135.5850  154.4461 H   0  0  0  0  0  0  0  0  0  0  0  0  # atno 10764 bound_to 10752
  154.4224  135.2846  155.1945 H   0  0  0  0  0  0  0  0  0  0  0  0  # atno 10765 bound_to 10752
  141.0337  133.6809  156.2638 H   0  0  0  0  0  0  0  0  0  0  0  0  # atno 11005 bound_to 11000
  144.7241  139.7933  143.7371 LP  0  0  0  0  0  0  0  0  0  0  0  0  # atno 17320 bound_to 7965
  146.1450  139.4517  143.0084 LP  0  0  0  0  0  0  0  0  0  0  0  0  # atno 17321 bound_to 7965
  140.7820  143.4382  151.0591 LP  0  0  0  0  0  0  0  0  0  0  0  0  # atno 17342 bound_to 10162
  139.8059  143.8018  152.3167 LP  0  0  0  0  0  0  0  0  0  0  0  0  # atno 17343 bound_to 10162
  157.6145  130.8608  149.9006 LP  0  0  0  0  0  0  0  0  0  0  0  0  # atno 17370 bound_to 10713
  156.0682  130.3689  150.0833 LP  0  0  0  0  0  0  0  0  0  0  0  0  # atno 17371 bound_to 10713
  140.6361  134.5214  157.5565 LP  0  0  0  0  0  0  0  0  0  0  0  0  # atno 17394 bound_to 11000
  139.9225  134.8120  156.1166 LP  0  0  0  0  0  0  0  0  0  0  0  0  # atno 17395 bound_to 11000

$$$$
