AV-unprocessed.smi:2039|AV-procd|sdf|8285|dock1
  -GOLD-   2272010553D 1   1.00000     0.00000
 Structure written by MMmdl.
 32 33  0  0  0  0  0  0  0  0  2 V2000
  145.8715  134.5221  162.4596 C   0  0  0  0  0  0  0  0  0  0  0  0
  146.8435  135.2861  161.6277 C   0  0  0  0  0  0  0  0  0  0  0  0
  146.9036  136.6200  161.6299 N   0  0  0  0  0  0  0  0  0  0  0  0
  147.8888  137.0999  160.7788 N   0  0  0  0  0  0  0  0  0  0  0  0
  148.5644  136.1252  160.1536 C   0  0  0  0  0  0  0  0  0  0  0  0
  149.5570  136.3792  159.2846 N   0  5  0  0  0  0  0  0  0  0  0  0
  149.7197  137.6278  158.7901 C   0  0  0  0  0  0  0  0  0  0  0  0
  148.8352  138.4739  158.6392 O   0  0  0  0  0  0  0  0  0  0  0  0
  150.9853  137.9135  158.4507 N   0  0  0  0  0  0  0  0  0  0  0  0
  151.4645  139.1775  157.8972 C   0  0  2  0  0  0  0  0  0  0  0  0
  150.8347  140.3719  158.6417 C   0  0  0  0  0  0  0  0  0  0  0  0
  151.2803  141.7137  158.0345 C   0  0  0  0  0  0  0  0  0  0  0  0
  151.0046  141.7921  156.5207 C   0  0  2  0  0  0  0  0  0  0  0  0
  149.6139  141.8880  156.2834 O   0  0  0  0  0  0  0  0  0  0  0  0
  151.5851  140.5762  155.7743 C   0  0  0  0  0  0  0  0  0  0  0  0
  151.1360  139.2413  156.3947 C   0  0  0  0  0  0  0  0  0  0  0  0
  148.0046  134.5049  160.5677 S   0  0  0  0  0  0  0  0  0  0  0  0
  146.2267  134.4658  163.4885 H   0  0  0  0  0  0  0  0  0  0  0  0
  145.7555  133.5096  162.0725 H   0  0  0  0  0  0  0  0  0  0  0  0
  144.8977  135.0123  162.4492 H   0  0  0  0  0  0  0  0  0  0  0  0
  151.6743  137.1891  158.5906 H   0  0  0  0  0  0  0  0  0  0  0  0
  152.5498  139.2239  158.0066 H   0  0  0  0  0  0  0  0  0  0  0  0
  149.7469  140.2978  158.6050 H   0  0  0  0  0  0  0  0  0  0  0  0
  151.1077  140.3437  159.6970 H   0  0  0  0  0  0  0  0  0  0  0  0
  150.7924  142.5401  158.5526 H   0  0  0  0  0  0  0  0  0  0  0  0
  152.3502  141.8379  158.2066 H   0  0  0  0  0  0  0  0  0  0  0  0
  151.4565  142.7016  156.1237 H   0  0  0  0  0  0  0  0  0  0  0  0
  149.4011  142.7912  156.1050 H   0  0  0  0  0  0  0  0  0  0  0  0
  151.3085  140.6119  154.7200 H   0  0  0  0  0  0  0  0  0  0  0  0
  152.6741  140.6289  155.8041 H   0  0  0  0  0  0  0  0  0  0  0  0
  151.6204  138.4154  155.8725 H   0  0  0  0  0  0  0  0  0  0  0  0
  150.0632  139.1120  156.2444 H   0  0  0  0  0  0  0  0  0  0  0  0
  1  2  1  0  0  0  0
  1 18  1  0  0  0  0
  1 19  1  0  0  0  0
  1 20  1  0  0  0  0
  2 17  1  0  0  0  0
  2  3  2  0  0  0  0
  3  4  1  0  0  0  0
  4  5  2  0  0  0  0
  5  6  1  0  0  0  0
  5 17  1  0  0  0  0
  6  7  1  0  0  0  0
  7  8  2  0  0  0  0
  7  9  1  0  0  0  0
  9 10  1  0  0  0  0
  9 21  1  0  0  0  0
 10 16  1  0  0  0  0
 10 11  1  0  0  0  0
 10 22  1  0  0  0  0
 11 12  1  0  0  0  0
 11 23  1  0  0  0  0
 11 24  1  0  0  0  0
 12 13  1  0  0  0  0
 12 25  1  0  0  0  0
 12 26  1  0  0  0  0
 13 14  1  0  0  0  0
 13 15  1  0  0  0  0
 13 27  1  0  0  0  0
 14 28  1  0  0  0  0
 15 16  1  0  0  0  0
 15 29  1  0  0  0  0
 15 30  1  0  0  0  0
 16 31  1  0  0  0  0
 16 32  1  0  0  0  0
M  CHG  1   6  -1
M  END
> <s_m_source_file>
AV-unprocessed.smi

> <i_m_source_file_index>
2039

> <i_lp_mmshare_version>
43012

> <i_f3d_flags>
0

> <s_epik_input>
W0NIM11jMW5uYyhzMSlbTkhdQyg9TylbTkhdW0NAQEhdMltDSDJdW0NIMl1bQ0BASF0oW09IXSlbQ0gyXVtDSDJdMg==

> <s_epik_cmdline>
J2VwaWtfcHl0aG9uJywgJy1waCcsICc3LjAnLCAnLXRuJywgJzgnLCAnLW1hJywgJzIwMCcsICctbWV0YWxfYmluZGluZycsICctaW1hZScsICc8aW5maWxlLm1hZT4nLCAnLW9tYWUnLCAnPG91dGZpbGUubWFlPic=

> <r_lp_tautomer_probability>
1

> <r_epik_Ionization_Penalty>
4.54927

> <r_epik_Ionization_Penalty_Charging>
4.39069

> <r_epik_Ionization_Penalty_Neutral>
0.158583

> <r_epik_State_Penalty>
4.39033

> <r_epik_Charging_Adjusted_Penalty>
8.78102

> <i_epik_Tot_Q>
-1

> <i_epik_Tot_abs_Q>
1

> <r_epik_Metal_State_Penalty>
0.767247

> <b_epik_Metal_Only>
1

> <s_lp_Force_Field>
OPLS_2005

> <r_lp_Energy>
8.24255

> <b_lp_Chiralities_Consistent>
1

> <s_lp_Variant>
AV-unprocessed.smi:2039-4

> <Gold.Version>
5.8.1

> <Gold.Id.Protein>
6NUR|6NUR_protein|mol2

> <Gold.PLP.Fitness>
39.4143

> <Gold.PLP.PLP>
-27.3498

> <Gold.PLP.part.hbond>
-4.7447

> <Gold.PLP.part.metal>
0.0000

> <Gold.PLP.part.buried>
-3.6660

> <Gold.PLP.part.nonpolar>
-19.1822

> <Gold.PLP.part.repulsive>
0.1017

> <Gold.PLP.ligand.clash>
0.0000

> <Gold.PLP.ligand.torsion>
0.4574

> <Gold.PLP.Chemscore.Hbond>
4.3242

> <Gold.PLP.Chemscore.CHOScore>
0.0000

> <Gold.PLP.Chemscore.Metal>
0.0000

> <Gold.Chemscore.Hbonds>
donor molecule, donor type, donor heavy atom, donor atom, acceptor molecule, acceptor atom, score
      L1  H    14    28       P1  8028  0.96
      P1  H  6896  6909       L1     6  2.00
      P1  H  6931  6943       L1     4  0.90
      P1  H  6934  6947       L1     4  0.48

> <Gold.PLP.Chemscore.Internal.Correction>
0.0065

> <Gold.Rescore>
     Score         DG    S(hbond)    S(metal)    S(lipo)     H(rot)  DE(clash)    DE(int)     intcor
     12.43     -15.89       2.32        0.00      55.14       1.49       0.03       3.43       ----

> <Gold.Chemscore.Fitness>
12.4297

> <Gold.Chemscore.DG>
-15.8883

> <Gold.Chemscore.ZeroCoef>
-5.4800

> <Gold.Chemscore.Hbond>
2.3247

> <Gold.Chemscore.Metal>
0.0000

> <Gold.Chemscore.Lipo>
55.1399

> <Gold.Chemscore.Internal_Hbond>
0.0000

> <Gold.Chemscore.DEClash>
0.0270

> <Gold.Chemscore.DEInternal>
3.4317

> <Gold.Chemscore.Rot>
1.4873

> <Gold.Chemscore.Internal.Correction>
   9.000000E+99

> <Gold.Chemscore.Hbonds>
donor molecule, donor type, donor heavy atom, donor atom, acceptor molecule, acceptor atom, score
      L1  H    14    28       P1  8028  0.91
      P1  H  6896  6909       L1     6  0.24
      P1  H  6931  6943       L1     4  0.40
      P1  H  6934  6947       L1     4  0.03

> <Gold.Chemscore.Hbond.Weighted>
-7.7645

> <Gold.Chemscore.Metal.Weighted>
-0.0000

> <Gold.Chemscore.Lipo.Weighted>
-6.4514

> <Gold.Chemscore.Internal_Hbond.Weighted>
0.0000

> <Gold.Chemscore.DEClash.Weighted>
0.0270

> <Gold.Chemscore.DEInternal.Weighted>
3.4317

> <Gold.Chemscore.Rot.Weighted>
3.8075

> <Gold.Chemscore.Internal.Correction.Weighted>
   9.000000E+99

> <Gold.Protein.RotatedTorsions>
[ 6907 6896 6895 6894 ] final   65.90 input  -60.11 | X-H torsion
[ 7974 7965 7964 7962 ] final   -7.90 input  175.53 | X-H torsion
[ 8008 7997 7996 7995 ] final   80.72 input   59.86 | X-H torsion
[ 10167 10162 10161 10158 ] final   17.25 input  -65.29 | X-H torsion
[ 10718 10713 10712 10709 ] final  -98.90 input   66.30 | X-H torsion
[ 10763 10752 10751 10750 ] final   39.88 input  -60.55 | X-H torsion
[ 11005 11000 10999 10996 ] final  -82.11 input  -57.11 | X-H torsion

> <Gold.Protein.ActiveResidues>
 VAL166  LYS551  ARG553  GLY616  TRP617  ASP618  TYR619  PRO620  LYS621  CYS622 
 ASP623  PHE694  ASN695  SER759  ASP760  ASP761  ALA762  ILE779  LEU786  VAL792 
 PHE793  MET794  SER795  GLU796  ALA797  LYS798  CYS799  TRP800  GLU811  SER814 

> <Gold.Protein.RotatedAtoms>
  152.4441  134.5530  159.9872 H   0  0  0  0  0  0  0  0  0  0  0  0  # atno 6907 bound_to 6896
  151.5620  133.3396  159.2981 H   0  0  0  0  0  0  0  0  0  0  0  0  # atno 6908 bound_to 6896
  150.8354  134.7657  159.6952 H   0  0  0  0  0  0  0  0  0  0  0  0  # atno 6909 bound_to 6896
  146.2295  140.2389  142.8343 H   0  0  0  0  0  0  0  0  0  0  0  0  # atno 7974 bound_to 7965
  155.8873  140.3441  155.5931 H   0  0  0  0  0  0  0  0  0  0  0  0  # atno 8008 bound_to 7997
  155.7651  140.0838  157.2155 H   0  0  0  0  0  0  0  0  0  0  0  0  # atno 8009 bound_to 7997
  154.4030  140.1528  156.2865 H   0  0  0  0  0  0  0  0  0  0  0  0  # atno 8010 bound_to 7997
  140.5739  143.9109  150.6735 H   0  0  0  0  0  0  0  0  0  0  0  0  # atno 10167 bound_to 10162
  156.0119  130.5259  150.6591 H   0  0  0  0  0  0  0  0  0  0  0  0  # atno 10718 bound_to 10713
  152.9953  135.6208  154.2535 H   0  0  0  0  0  0  0  0  0  0  0  0  # atno 10763 bound_to 10752
  154.2273  135.2793  155.2904 H   0  0  0  0  0  0  0  0  0  0  0  0  # atno 10764 bound_to 10752
  154.5478  135.5742  153.6954 H   0  0  0  0  0  0  0  0  0  0  0  0  # atno 10765 bound_to 10752
  141.1664  133.7229  156.8523 H   0  0  0  0  0  0  0  0  0  0  0  0  # atno 11005 bound_to 11000
  144.9500  140.8168  143.5578 LP  0  0  0  0  0  0  0  0  0  0  0  0  # atno 17320 bound_to 7965
  145.2348  139.2098  143.5023 LP  0  0  0  0  0  0  0  0  0  0  0  0  # atno 17321 bound_to 7965
  140.2591  143.3537  152.1338 LP  0  0  0  0  0  0  0  0  0  0  0  0  # atno 17342 bound_to 10162
  139.5132  144.6929  151.5710 LP  0  0  0  0  0  0  0  0  0  0  0  0  # atno 17343 bound_to 10162
  157.4337  131.0852  151.1013 LP  0  0  0  0  0  0  0  0  0  0  0  0  # atno 17370 bound_to 10713
  157.1578  130.6212  149.5601 LP  0  0  0  0  0  0  0  0  0  0  0  0  # atno 17371 bound_to 10713
  140.1907  134.8968  157.3056 LP  0  0  0  0  0  0  0  0  0  0  0  0  # atno 17394 bound_to 11000
  140.2294  134.3927  155.7529 LP  0  0  0  0  0  0  0  0  0  0  0  0  # atno 17395 bound_to 11000

$$$$
