AV-unprocessed.smi:2139|AV-procd|sdf|8713|dock8
  -GOLD-   2272011473D 1   1.00000     0.00000
 Structure written by MMmdl.
 40 41  0  0  0  0  0  0  0  0  1 V2000
  147.3166  139.5162  153.2680 C   0  0  0  0  0  0  0  0  0  0  0  0
  148.3597  139.9670  154.3008 C   0  0  0  0  0  0  0  0  0  0  0  0
  148.6938  141.4699  154.2348 C   0  0  1  0  0  0  0  0  0  0  0  0
  147.4270  142.3275  154.1105 C   0  0  0  0  0  0  0  0  0  0  0  0
  149.4395  141.8862  155.4216 N   0  0  0  0  0  0  0  0  0  0  0  0
  150.5197  141.2701  155.9307 C   0  0  0  0  0  0  0  0  0  0  0  0
  151.0050  140.2412  155.4593 O   0  0  0  0  0  0  0  0  0  0  0  0
  151.0940  141.9095  157.1686 C   0  0  0  0  0  0  0  0  0  0  0  0
  151.2386  143.3156  157.2191 C   0  0  0  0  0  0  0  0  0  0  0  0
  151.8195  143.9149  158.3505 C   0  0  0  0  0  0  0  0  0  0  0  0
  152.2475  143.0817  159.3977 C   0  0  0  0  0  0  0  0  0  0  0  0
  152.1214  141.7399  159.3698 N   0  0  0  0  0  0  0  0  0  0  0  0
  151.5588  141.1516  158.2848 C   0  0  0  0  0  0  0  0  0  0  0  0
  151.4113  139.7512  158.3357 N   0  0  0  0  0  0  0  0  0  0  0  0
  152.1950  139.0250  159.3289 C   0  0  0  0  0  0  0  0  0  0  0  0
  152.0910  137.5127  159.0661 C   0  0  0  0  0  0  0  0  0  0  0  0
  150.7204  137.1212  159.0579 O   0  0  0  0  0  0  0  0  0  0  0  0
  149.9775  137.7854  158.0387 C   0  0  0  0  0  0  0  0  0  0  0  0
  150.0259  139.3048  158.2717 C   0  0  0  0  0  0  0  0  0  0  0  0
  147.0607  138.4663  153.4104 H   0  0  0  0  0  0  0  0  0  0  0  0
  147.6885  139.6273  152.2501 H   0  0  0  0  0  0  0  0  0  0  0  0
  146.3982  140.0976  153.3556 H   0  0  0  0  0  0  0  0  0  0  0  0
  147.9833  139.7302  155.2967 H   0  0  0  0  0  0  0  0  0  0  0  0
  149.2695  139.3789  154.1740 H   0  0  0  0  0  0  0  0  0  0  0  0
  149.2895  141.6405  153.3364 H   0  0  0  0  0  0  0  0  0  0  0  0
  146.8581  142.0601  153.2197 H   0  0  0  0  0  0  0  0  0  0  0  0
  147.6764  143.3864  154.0348 H   0  0  0  0  0  0  0  0  0  0  0  0
  146.7730  142.1998  154.9737 H   0  0  0  0  0  0  0  0  0  0  0  0
  149.1077  142.7145  155.8941 H   0  0  0  0  0  0  0  0  0  0  0  0
  150.9188  143.9374  156.3952 H   0  0  0  0  0  0  0  0  0  0  0  0
  151.9413  144.9864  158.4101 H   0  0  0  0  0  0  0  0  0  0  0  0
  152.7024  143.5029  160.2820 H   0  0  0  0  0  0  0  0  0  0  0  0
  153.2370  139.3434  159.2860 H   0  0  0  0  0  0  0  0  0  0  0  0
  151.8245  139.2515  160.3295 H   0  0  0  0  0  0  0  0  0  0  0  0
  152.5603  137.2504  158.1166 H   0  0  0  0  0  0  0  0  0  0  0  0
  152.6149  136.9588  159.8450 H   0  0  0  0  0  0  0  0  0  0  0  0
  150.3790  137.5311  157.0562 H   0  0  0  0  0  0  0  0  0  0  0  0
  148.9460  137.4334  158.0629 H   0  0  0  0  0  0  0  0  0  0  0  0
  149.5255  139.5567  159.2077 H   0  0  0  0  0  0  0  0  0  0  0  0
  149.4910  139.8219  157.4760 H   0  0  0  0  0  0  0  0  0  0  0  0
  1  2  1  0  0  0  0
  1 20  1  0  0  0  0
  1 21  1  0  0  0  0
  1 22  1  0  0  0  0
  2  3  1  0  0  0  0
  2 23  1  0  0  0  0
  2 24  1  0  0  0  0
  3  4  1  0  0  0  0
  3  5  1  0  0  0  0
  3 25  1  0  0  0  0
  4 26  1  0  0  0  0
  4 27  1  0  0  0  0
  4 28  1  0  0  0  0
  5  6  1  0  0  0  0
  5 29  1  0  0  0  0
  6  7  2  0  0  0  0
  6  8  1  0  0  0  0
  8 13  1  0  0  0  0
  8  9  2  0  0  0  0
  9 10  1  0  0  0  0
  9 30  1  0  0  0  0
 10 11  2  0  0  0  0
 10 31  1  0  0  0  0
 11 12  1  0  0  0  0
 11 32  1  0  0  0  0
 12 13  2  0  0  0  0
 13 14  1  0  0  0  0
 14 19  1  0  0  0  0
 14 15  1  0  0  0  0
 15 16  1  0  0  0  0
 15 33  1  0  0  0  0
 15 34  1  0  0  0  0
 16 17  1  0  0  0  0
 16 35  1  0  0  0  0
 16 36  1  0  0  0  0
 17 18  1  0  0  0  0
 18 19  1  0  0  0  0
 18 37  1  0  0  0  0
 18 38  1  0  0  0  0
 19 39  1  0  0  0  0
 19 40  1  0  0  0  0
M  END
> <s_m_source_file>
AV-unprocessed.smi

> <i_m_source_file_index>
2139

> <i_lp_mmshare_version>
43012

> <i_f3d_flags>
0

> <s_epik_input>
W0NIM11bQ0gyXVtDQEhdKFtDSDNdKVtOSF1DKD1PKWMxW2NIXVtjSF1bY0hdbmMxTjJbQ0gyXVtDSDJdT1tDSDJdW0NIMl0y

> <s_epik_cmdline>
J2VwaWtfcHl0aG9uJywgJy1waCcsICc3LjAnLCAnLXRuJywgJzgnLCAnLW1hJywgJzIwMCcsICctbWV0YWxfYmluZGluZycsICctaW1hZScsICc8aW5maWxlLm1hZT4nLCAnLW9tYWUnLCAnPG91dGZpbGUubWFlPic=

> <r_lp_tautomer_probability>
1

> <r_epik_Ionization_Penalty>
1.73125e-05

> <r_epik_Ionization_Penalty_Charging>
0

> <r_epik_Ionization_Penalty_Neutral>
1.73125e-05

> <r_epik_State_Penalty>
-0

> <r_epik_Charging_Adjusted_Penalty>
0

> <i_epik_Tot_Q>
0

> <i_epik_Tot_abs_Q>
0

> <r_epik_Metal_State_Penalty>
-0

> <b_epik_Metal_Only>
0

> <s_lp_Force_Field>
OPLS_2005

> <r_lp_Energy>
25.2402

> <b_lp_Chiralities_Consistent>
1

> <s_lp_Variant>
AV-unprocessed.smi:2139-2

> <Gold.Version>
5.8.1

> <Gold.Id.Protein>
6NUR|6NUR_protein|mol2

> <Gold.PLP.Fitness>
41.9779

> <Gold.PLP.PLP>
-37.1492

> <Gold.PLP.part.hbond>
-2.4233

> <Gold.PLP.part.metal>
0.0000

> <Gold.PLP.part.buried>
-3.9503

> <Gold.PLP.part.nonpolar>
-30.0375

> <Gold.PLP.part.repulsive>
0.1878

> <Gold.PLP.ligand.clash>
0.0000

> <Gold.PLP.ligand.torsion>
1.0583

> <Gold.PLP.Chemscore.Hbond>
2.2304

> <Gold.PLP.Chemscore.CHOScore>
0.0000

> <Gold.PLP.Chemscore.Metal>
0.0000

> <Gold.Chemscore.Hbonds>
donor molecule, donor type, donor heavy atom, donor atom, acceptor molecule, acceptor atom, score
      L1  H     5    29       P1  8028  0.85
      P1  H  6896  6907       L1    17  0.15
      P1  H  7989  7998       L1     7  0.70

> <Gold.PLP.Chemscore.Internal.Correction>
0.2541

> <Gold.Rescore>
     Score         DG    S(hbond)    S(metal)    S(lipo)     H(rot)  DE(clash)    DE(int)     intcor
     13.78     -17.52       1.48        0.00      89.07       1.30       0.13       3.61       ----

> <Gold.Chemscore.Fitness>
13.7830

> <Gold.Chemscore.DG>
-17.5218

> <Gold.Chemscore.ZeroCoef>
-5.4800

> <Gold.Chemscore.Hbond>
1.4847

> <Gold.Chemscore.Metal>
0.0000

> <Gold.Chemscore.Lipo>
89.0728

> <Gold.Chemscore.Internal_Hbond>
0.0000

> <Gold.Chemscore.DEClash>
0.1302

> <Gold.Chemscore.DEInternal>
3.6086

> <Gold.Chemscore.Rot>
1.3041

> <Gold.Chemscore.Internal.Correction>
   9.000000E+99

> <Gold.Chemscore.Hbonds>
donor molecule, donor type, donor heavy atom, donor atom, acceptor molecule, acceptor atom, score
      L1  H     5    29       P1  8028  0.78
      P1  H  7989  7998       L1     7  0.24

> <Gold.Chemscore.Hbond.Weighted>
-4.9588

> <Gold.Chemscore.Metal.Weighted>
-0.0000

> <Gold.Chemscore.Lipo.Weighted>
-10.4215

> <Gold.Chemscore.Internal_Hbond.Weighted>
0.0000

> <Gold.Chemscore.DEClash.Weighted>
0.1302

> <Gold.Chemscore.DEInternal.Weighted>
3.6086

> <Gold.Chemscore.Rot.Weighted>
3.3385

> <Gold.Chemscore.Internal.Correction.Weighted>
   9.000000E+99

> <Gold.Protein.RotatedTorsions>
[ 6907 6896 6895 6894 ] final   -9.31 input  -60.11 | X-H torsion
[ 7974 7965 7964 7962 ] final -177.82 input  175.53 | X-H torsion
[ 8008 7997 7996 7995 ] final  170.59 input   59.86 | X-H torsion
[ 10167 10162 10161 10158 ] final  150.34 input  -65.29 | X-H torsion
[ 10718 10713 10712 10709 ] final  -32.87 input   66.30 | X-H torsion
[ 10763 10752 10751 10750 ] final   20.73 input  -60.55 | X-H torsion
[ 11005 11000 10999 10996 ] final   24.50 input  -57.11 | X-H torsion

> <Gold.Protein.ActiveResidues>
 VAL166  LYS551  ARG553  GLY616  TRP617  ASP618  TYR619  PRO620  LYS621  CYS622 
 ASP623  PHE694  ASN695  SER759  ASP760  ASP761  ALA762  ILE779  LEU786  VAL792 
 PHE793  MET794  SER795  GLU796  ALA797  LYS798  CYS799  TRP800  GLU811  SER814 

> <Gold.Protein.RotatedAtoms>
  151.4199  135.0996  159.9610 H   0  0  0  0  0  0  0  0  0  0  0  0  # atno 6907 bound_to 6896
  152.4992  133.8717  159.7312 H   0  0  0  0  0  0  0  0  0  0  0  0  # atno 6908 bound_to 6896
  150.9231  133.6799  159.2855 H   0  0  0  0  0  0  0  0  0  0  0  0  # atno 6909 bound_to 6896
  144.7129  140.0962  143.6419 H   0  0  0  0  0  0  0  0  0  0  0  0  # atno 7974 bound_to 7965
  156.1351  140.1534  156.9007 H   0  0  0  0  0  0  0  0  0  0  0  0  # atno 8008 bound_to 7997
  154.4940  140.0843  156.7696 H   0  0  0  0  0  0  0  0  0  0  0  0  # atno 8009 bound_to 7997
  155.4184  140.3422  155.4271 H   0  0  0  0  0  0  0  0  0  0  0  0  # atno 8010 bound_to 7997
  139.4851  144.5530  151.7367 H   0  0  0  0  0  0  0  0  0  0  0  0  # atno 10167 bound_to 10162
  156.3696  130.4337  149.7556 H   0  0  0  0  0  0  0  0  0  0  0  0  # atno 10718 bound_to 10713
  153.1053  135.6683  153.9598 H   0  0  0  0  0  0  0  0  0  0  0  0  # atno 10763 bound_to 10752
  153.9157  135.3020  155.3449 H   0  0  0  0  0  0  0  0  0  0  0  0  # atno 10764 bound_to 10752
  154.7474  135.5051  153.9304 H   0  0  0  0  0  0  0  0  0  0  0  0  # atno 10765 bound_to 10752
  140.3580  134.2156  155.7674 H   0  0  0  0  0  0  0  0  0  0  0  0  # atno 11005 bound_to 11000
  145.9578  139.2779  143.1174 LP  0  0  0  0  0  0  0  0  0  0  0  0  # atno 17320 bound_to 7965
  145.9254  140.9086  143.0384 LP  0  0  0  0  0  0  0  0  0  0  0  0  # atno 17321 bound_to 7965
  140.5087  144.1059  150.5989 LP  0  0  0  0  0  0  0  0  0  0  0  0  # atno 17342 bound_to 10162
  140.3977  143.2720  151.9985 LP  0  0  0  0  0  0  0  0  0  0  0  0  # atno 17343 bound_to 10162
  156.4689  130.7987  151.3005 LP  0  0  0  0  0  0  0  0  0  0  0  0  # atno 17370 bound_to 10713
  157.7482  131.0042  150.3067 LP  0  0  0  0  0  0  0  0  0  0  0  0  # atno 17371 bound_to 10713
  141.1992  133.8016  157.0545 LP  0  0  0  0  0  0  0  0  0  0  0  0  # atno 17394 bound_to 11000
  140.0649  134.9734  157.1369 LP  0  0  0  0  0  0  0  0  0  0  0  0  # atno 17395 bound_to 11000

$$$$
