AV-unprocessed.smi:153|AV-procd|sdf|1251|dock10
  -GOLD-   2262018483D 1   1.00000     0.00000
 Structure written by MMmdl.
 60 63  0  0  0  0  0  0  0  0  2 V2000
  154.3991  137.3413  157.5821 C   0  0  0  0  0  0  0  0  0  0  0  0
  152.9514  137.7718  157.2959 C   0  0  1  0  0  0  0  0  0  0  0  0
  152.9270  139.1512  156.9478 O   0  0  0  0  0  0  0  0  0  0  0  0
  151.7654  139.3841  156.1729 C   0  0  0  0  0  0  0  0  0  0  0  0
  151.7516  138.1804  155.2432 C   0  0  0  0  0  0  0  0  0  0  0  0
  152.2117  137.0321  156.1467 C   0  0  1  0  0  0  0  0  0  0  0  0
  153.0817  136.2011  155.3969 O   0  0  0  0  0  0  0  0  0  0  0  0
  151.0509  136.1642  156.7011 C   0  0  0  0  0  0  0  0  0  0  0  0
  150.2280  135.5307  155.6801 N   0  0  0  0  0  0  0  0  0  0  0  0
  149.4887  136.1643  154.7085 C   0  0  0  0  0  0  0  0  0  0  0  0
  148.8311  135.3727  153.9075 N   0  0  0  0  0  0  0  0  0  0  0  0
  149.1117  134.0919  154.3732 C   0  0  0  0  0  0  0  0  0  0  0  0
  148.7367  132.7721  153.9739 C   0  0  0  0  0  0  0  0  0  0  0  0
  147.9190  132.4756  152.9260 N   0  0  0  0  0  0  0  0  0  0  0  0
  147.9762  131.1543  152.3138 C   0  0  0  0  0  0  0  0  0  0  0  0
  146.7644  133.3289  152.6345 C   0  0  0  0  0  0  0  0  0  0  0  0
  145.9178  133.6375  153.8861 C   0  0  2  0  0  0  0  0  0  0  0  0
  145.5710  132.3971  154.4687 O   0  0  0  0  0  0  0  0  0  0  0  0
  144.6172  134.4070  153.5628 C   0  0  0  0  0  0  0  0  0  0  0  0
  143.7175  134.5478  154.7354 N   0  3  0  0  0  0  0  0  0  0  0  0
  144.3860  135.1234  155.9298 C   0  0  0  0  0  0  0  0  0  0  0  0
  143.4005  135.2164  157.1071 C   0  0  0  0  0  0  0  0  0  0  0  0
  142.2702  135.9896  156.7242 O   0  0  0  0  0  0  0  0  0  0  0  0
  141.5667  135.3998  155.6385 C   0  0  0  0  0  0  0  0  0  0  0  0
  142.4905  135.3143  154.4118 C   0  0  0  0  0  0  0  0  0  0  0  0
  149.2572  131.7411  154.6908 N   0  0  0  0  0  0  0  0  0  0  0  0
  150.0682  131.9685  155.7268 C   0  0  0  0  0  0  0  0  0  0  0  0
  150.4950  133.1354  156.2083 N   0  0  0  0  0  0  0  0  0  0  0  0
  149.9925  134.1796  155.4910 C   0  0  0  0  0  0  0  0  0  0  0  0
  154.4504  136.2845  157.8460 H   0  0  0  0  0  0  0  0  0  0  0  0
  154.8135  137.9098  158.4147 H   0  0  0  0  0  0  0  0  0  0  0  0
  155.0436  137.5073  156.7185 H   0  0  0  0  0  0  0  0  0  0  0  0
  152.3776  137.6755  158.2194 H   0  0  0  0  0  0  0  0  0  0  0  0
  150.8838  139.3973  156.8158 H   0  0  0  0  0  0  0  0  0  0  0  0
  151.8213  140.3322  155.6376 H   0  0  0  0  0  0  0  0  0  0  0  0
  150.7828  138.0286  154.7703 H   0  0  0  0  0  0  0  0  0  0  0  0
  152.4753  138.3555  154.4451 H   0  0  0  0  0  0  0  0  0  0  0  0
  153.3142  135.4547  155.9274 H   0  0  0  0  0  0  0  0  0  0  0  0
  151.4481  135.3812  157.3487 H   0  0  0  0  0  0  0  0  0  0  0  0
  150.3966  136.7714  157.3285 H   0  0  0  0  0  0  0  0  0  0  0  0
  149.4582  137.2394  154.6063 H   0  0  0  0  0  0  0  0  0  0  0  0
  149.0087  130.8340  152.1704 H   0  0  0  0  0  0  0  0  0  0  0  0
  147.4974  131.1644  151.3342 H   0  0  0  0  0  0  0  0  0  0  0  0
  147.4603  130.4194  152.9319 H   0  0  0  0  0  0  0  0  0  0  0  0
  147.0509  134.2542  152.1342 H   0  0  0  0  0  0  0  0  0  0  0  0
  146.1476  132.7952  151.9104 H   0  0  0  0  0  0  0  0  0  0  0  0
  146.5326  134.1814  154.6021 H   0  0  0  0  0  0  0  0  0  0  0  0
  145.6240  132.4734  155.4087 H   0  0  0  0  0  0  0  0  0  0  0  0
  144.8344  135.4057  153.1853 H   0  0  0  0  0  0  0  0  0  0  0  0
  144.0981  133.8874  152.7557 H   0  0  0  0  0  0  0  0  0  0  0  0
  145.2392  134.5132  156.2243 H   0  0  0  0  0  0  0  0  0  0  0  0
  144.7723  136.1161  155.6920 H   0  0  0  0  0  0  0  0  0  0  0  0
  143.0847  134.2234  157.4315 H   0  0  0  0  0  0  0  0  0  0  0  0
  143.8808  135.6927  157.9619 H   0  0  0  0  0  0  0  0  0  0  0  0
  141.1991  134.4116  155.9202 H   0  0  0  0  0  0  0  0  0  0  0  0
  140.6935  136.0105  155.4089 H   0  0  0  0  0  0  0  0  0  0  0  0
  142.7622  136.3170  154.0778 H   0  0  0  0  0  0  0  0  0  0  0  0
  141.9603  134.8343  153.5884 H   0  0  0  0  0  0  0  0  0  0  0  0
  150.4274  131.0899  156.2424 H   0  0  0  0  0  0  0  0  0  0  0  0
  143.4121  133.6170  154.9813 H   0  0  0  0  0  0  0  0  0  0  0  0
  1  2  1  0  0  0  0
  1 30  1  0  0  0  0
  1 31  1  0  0  0  0
  1 32  1  0  0  0  0
  2  6  1  0  0  0  0
  2  3  1  0  0  0  0
  2 33  1  0  0  0  0
  3  4  1  0  0  0  0
  4  5  1  0  0  0  0
  4 34  1  0  0  0  0
  4 35  1  0  0  0  0
  5  6  1  0  0  0  0
  5 36  1  0  0  0  0
  5 37  1  0  0  0  0
  6  7  1  0  0  0  0
  6  8  1  0  0  0  0
  7 38  1  0  0  0  0
  8  9  1  0  0  0  0
  8 39  1  0  0  0  0
  8 40  1  0  0  0  0
  9 29  1  0  0  0  0
  9 10  1  0  0  0  0
 10 11  2  0  0  0  0
 10 41  1  0  0  0  0
 11 12  1  0  0  0  0
 12 29  2  0  0  0  0
 12 13  1  0  0  0  0
 13 14  1  0  0  0  0
 13 26  2  0  0  0  0
 14 15  1  0  0  0  0
 14 16  1  0  0  0  0
 15 42  1  0  0  0  0
 15 43  1  0  0  0  0
 15 44  1  0  0  0  0
 16 17  1  0  0  0  0
 16 45  1  0  0  0  0
 16 46  1  0  0  0  0
 17 18  1  0  0  0  0
 17 19  1  0  0  0  0
 17 47  1  0  0  0  0
 18 48  1  0  0  0  0
 19 20  1  0  0  0  0
 19 49  1  0  0  0  0
 19 50  1  0  0  0  0
 20 25  1  0  0  0  0
 20 21  1  0  0  0  0
 20 60  1  0  0  0  0
 21 22  1  0  0  0  0
 21 51  1  0  0  0  0
 21 52  1  0  0  0  0
 22 23  1  0  0  0  0
 22 53  1  0  0  0  0
 22 54  1  0  0  0  0
 23 24  1  0  0  0  0
 24 25  1  0  0  0  0
 24 55  1  0  0  0  0
 24 56  1  0  0  0  0
 25 57  1  0  0  0  0
 25 58  1  0  0  0  0
 26 27  1  0  0  0  0
 27 28  2  0  0  0  0
 27 59  1  0  0  0  0
 28 29  1  0  0  0  0
M  CHG  1  20   1
M  END
> <s_m_source_file>
AV-unprocessed.smi

> <i_m_source_file_index>
153

> <i_lp_mmshare_version>
43012

> <i_f3d_flags>
0

> <s_epik_input>
W0NIMl0xW0NIMl1PW0NAQEhdKFtDSDNdKVtDQEBdMShbT0hdKVtDSDJdbihbY0hdbjIpYyhjMjMpbltjSF1uYzNOKFtDSDNdKVtDSDJdW0NASF0oW09IXSlbQ0gyXU40W0NIMl1bQ0gyXU9bQ0gyXVtDSDJdNA==

> <s_epik_cmdline>
J2VwaWtfcHl0aG9uJywgJy1waCcsICc3LjAnLCAnLXRuJywgJzgnLCAnLW1hJywgJzIwMCcsICctbWV0YWxfYmluZGluZycsICctaW1hZScsICc8aW5maWxlLm1hZT4nLCAnLW9tYWUnLCAnPG91dGZpbGUubWFlPic=

> <r_lp_tautomer_probability>
1

> <r_epik_Ionization_Penalty>
0.403509

> <r_epik_Ionization_Penalty_Charging>
0.40072

> <r_epik_Ionization_Penalty_Neutral>
0.00278876

> <r_epik_State_Penalty>
0.400058

> <r_epik_Charging_Adjusted_Penalty>
0.800778

> <i_epik_Tot_Q>
1

> <i_epik_Tot_abs_Q>
1

> <r_epik_Metal_State_Penalty>
0.400321

> <b_epik_Metal_Only>
0

> <s_lp_Force_Field>
OPLS_2005

> <r_lp_Energy>
45.7554

> <b_lp_Chiralities_Consistent>
1

> <s_lp_Variant>
AV-unprocessed.smi:153-2

> <Gold.Version>
5.8.1

> <Gold.Id.Protein>
6NUR|6NUR_protein|mol2

> <Gold.PLP.Fitness>
49.5032

> <Gold.PLP.PLP>
-33.3679

> <Gold.PLP.part.hbond>
-4.4469

> <Gold.PLP.part.metal>
0.0000

> <Gold.PLP.part.buried>
-4.3714

> <Gold.PLP.part.nonpolar>
-25.8879

> <Gold.PLP.part.repulsive>
1.9547

> <Gold.PLP.ligand.clash>
0.0000

> <Gold.PLP.ligand.torsion>
0.5092

> <Gold.PLP.Chemscore.Hbond>
5.0000

> <Gold.PLP.Chemscore.CHOScore>
0.5931

> <Gold.PLP.Chemscore.Metal>
0.0000

> <Gold.Chemscore.Hbonds>
donor molecule, donor type, donor heavy atom, donor atom, acceptor molecule, acceptor atom, score
      L1  H    20    60       P1 10957  2.00
      P1  H  7997  8009       L1     3  1.00

> <Gold.PLP.Chemscore.Internal.Correction>
0.3745

> <Gold.Rescore>
     Score         DG    S(hbond)    S(metal)    S(lipo)     H(rot)  DE(clash)    DE(int)     intcor
     15.67     -16.50       3.77        0.00      65.87       3.62       0.18       0.66       ----

> <Gold.Chemscore.Fitness>
15.6677

> <Gold.Chemscore.DG>
-16.5035

> <Gold.Chemscore.ZeroCoef>
-5.4800

> <Gold.Chemscore.Hbond>
3.7662

> <Gold.Chemscore.Metal>
0.0000

> <Gold.Chemscore.Lipo>
65.8705

> <Gold.Chemscore.Internal_Hbond>
0.0000

> <Gold.Chemscore.DEClash>
0.1755

> <Gold.Chemscore.DEInternal>
0.6604

> <Gold.Chemscore.Rot>
3.6182

> <Gold.Chemscore.Internal.Correction>
   9.000000E+99

> <Gold.Chemscore.Hbonds>
donor molecule, donor type, donor heavy atom, donor atom, acceptor molecule, acceptor atom, score
      L1  H    20    60       P1 10957  0.96
      P1  H  7997  8009       L1     3  0.94

> <Gold.Chemscore.Hbond.Weighted>
-12.5791

> <Gold.Chemscore.Metal.Weighted>
-0.0000

> <Gold.Chemscore.Lipo.Weighted>
-7.7068

> <Gold.Chemscore.Internal_Hbond.Weighted>
0.0000

> <Gold.Chemscore.DEClash.Weighted>
0.1755

> <Gold.Chemscore.DEInternal.Weighted>
0.6604

> <Gold.Chemscore.Rot.Weighted>
9.2625

> <Gold.Chemscore.Internal.Correction.Weighted>
   9.000000E+99

> <Gold.Protein.RotatedTorsions>
[ 6907 6896 6895 6894 ] final   12.37 input  -60.11 | X-H torsion
[ 7974 7965 7964 7962 ] final  -19.01 input  175.53 | X-H torsion
[ 8008 7997 7996 7995 ] final -173.83 input   59.86 | X-H torsion
[ 10167 10162 10161 10158 ] final  -81.47 input  -65.29 | X-H torsion
[ 10718 10713 10712 10709 ] final -135.24 input   66.30 | X-H torsion
[ 10763 10752 10751 10750 ] final  106.69 input  -60.55 | X-H torsion
[ 11005 11000 10999 10996 ] final -160.99 input  -57.11 | X-H torsion

> <Gold.Protein.ActiveResidues>
 VAL166  LYS551  ARG553  GLY616  TRP617  ASP618  TYR619  PRO620  LYS621  CYS622 
 ASP623  PHE694  ASN695  SER759  ASP760  ASP761  ALA762  ILE779  LEU786  VAL792 
 PHE793  MET794  SER795  GLU796  ALA797  LYS798  CYS799  TRP800  GLU811  SER814 

> <Gold.Protein.RotatedAtoms>
  151.7692  135.0790  160.0357 H   0  0  0  0  0  0  0  0  0  0  0  0  # atno 6907 bound_to 6896
  152.3300  133.5943  159.5811 H   0  0  0  0  0  0  0  0  0  0  0  0  # atno 6908 bound_to 6896
  150.7417  133.9798  159.3614 H   0  0  0  0  0  0  0  0  0  0  0  0  # atno 6909 bound_to 6896
  146.1863  140.4001  142.8475 H   0  0  0  0  0  0  0  0  0  0  0  0  # atno 7974 bound_to 7965
  155.9624  140.1147  157.0884 H   0  0  0  0  0  0  0  0  0  0  0  0  # atno 8008 bound_to 7997
  154.4135  140.1179  156.5264 H   0  0  0  0  0  0  0  0  0  0  0  0  # atno 8009 bound_to 7997
  155.6703  140.3473  155.4818 H   0  0  0  0  0  0  0  0  0  0  0  0  # atno 8010 bound_to 7997
  140.4409  143.2515  151.8627 H   0  0  0  0  0  0  0  0  0  0  0  0  # atno 10167 bound_to 10162
  156.2640  130.7226  151.1170 H   0  0  0  0  0  0  0  0  0  0  0  0  # atno 10718 bound_to 10713
  153.3965  135.3868  155.1958 H   0  0  0  0  0  0  0  0  0  0  0  0  # atno 10763 bound_to 10752
  154.8725  135.3761  154.4672 H   0  0  0  0  0  0  0  0  0  0  0  0  # atno 10764 bound_to 10752
  153.5165  135.7087  153.5815 H   0  0  0  0  0  0  0  0  0  0  0  0  # atno 10765 bound_to 10752
  140.6254  134.4707  157.5226 H   0  0  0  0  0  0  0  0  0  0  0  0  # atno 11005 bound_to 11000
  144.8404  140.6848  143.6233 LP  0  0  0  0  0  0  0  0  0  0  0  0  # atno 17320 bound_to 7965
  145.3928  139.1613  143.4220 LP  0  0  0  0  0  0  0  0  0  0  0  0  # atno 17321 bound_to 7965
  139.4789  144.5230  151.8774 LP  0  0  0  0  0  0  0  0  0  0  0  0  # atno 17342 bound_to 10162
  140.4320  144.2103  150.5888 LP  0  0  0  0  0  0  0  0  0  0  0  0  # atno 17343 bound_to 10162
  157.7261  131.0649  150.5926 LP  0  0  0  0  0  0  0  0  0  0  0  0  # atno 17370 bound_to 10713
  156.6016  130.4356  149.5895 LP  0  0  0  0  0  0  0  0  0  0  0  0  # atno 17371 bound_to 10713
  139.9137  134.8291  156.1440 LP  0  0  0  0  0  0  0  0  0  0  0  0  # atno 17394 bound_to 11000
  141.0713  133.6795  156.2146 LP  0  0  0  0  0  0  0  0  0  0  0  0  # atno 17395 bound_to 11000

$$$$
