AV-unprocessed.smi:15|AV-procd|sdf|80|dock3
  -GOLD-   2262015213D 1   1.00000     0.00000
 Structure written by MMmdl.
 53 56  0  0  0  0  0  0  0  0  1 V2000
  151.6097  139.4531  155.5535 C   0  0  0  0  0  0  0  0  0  0  0  0
  151.5428  140.2300  156.8747 C   0  0  0  0  0  0  0  0  0  0  0  0
  150.1856  140.6592  157.2119 N   0  0  0  0  0  0  0  0  0  0  0  0
  149.9622  141.9601  157.8459 C   0  0  0  0  0  0  0  0  0  0  0  0
  151.2580  142.7707  158.0383 C   0  0  1  0  0  0  0  0  0  0  0  0
  151.0200  144.1924  158.5418 C   0  0  0  0  0  0  0  0  0  0  0  0
  152.3264  144.5490  159.2349 C   0  0  0  0  0  0  0  0  0  0  0  0
  153.0272  143.2008  159.4263 C   0  0  0  0  0  0  0  0  0  0  0  0
  152.0523  142.2281  159.0821 O   0  0  0  0  0  0  0  0  0  0  0  0
  149.3080  139.6982  157.5911 C   0  0  0  0  0  0  0  0  0  0  0  0
  148.0209  139.8293  157.1796 N   0  0  0  0  0  0  0  0  0  0  0  0
  147.1032  138.9286  157.5417 C   0  0  0  0  0  0  0  0  0  0  0  0
  147.2533  137.8455  158.3061 N   0  0  0  0  0  0  0  0  0  0  0  0
  148.5421  137.7154  158.7327 C   0  0  0  0  0  0  0  0  0  0  0  0
  149.6261  138.5847  158.4227 C   0  0  0  0  0  0  0  0  0  0  0  0
  150.7822  138.1350  159.0517 N   0  0  0  0  0  0  0  0  0  0  0  0
  150.4054  137.0596  159.6869 C   0  0  0  0  0  0  0  0  0  0  0  0
  149.0727  136.7412  159.5597 N   0  0  0  0  0  0  0  0  0  0  0  0
  148.3844  135.6111  160.1628 C   0  0  0  0  0  0  0  0  0  0  0  0
  147.4713  135.9960  161.3588 C   0  0  1  0  0  0  0  0  0  0  0  0
  148.2194  136.7376  162.3042 O   0  0  0  0  0  0  0  0  0  0  0  0
  146.2384  136.8009  160.9649 C   0  0  0  0  0  0  0  0  0  0  0  0
  145.2617  135.7149  160.5242 C   0  0  0  0  0  0  0  0  0  0  0  0
  145.5901  134.5651  161.2991 O   0  0  0  0  0  0  0  0  0  0  0  0
  146.7877  134.7936  162.0383 C   0  0  1  0  0  0  0  0  0  0  0  0
  147.6119  133.5024  162.1501 C   0  0  0  0  0  0  0  0  0  0  0  0
  152.6209  139.0864  155.3764 H   0  0  0  0  0  0  0  0  0  0  0  0
  151.3381  140.0763  154.7021 H   0  0  0  0  0  0  0  0  0  0  0  0
  150.9429  138.5905  155.5697 H   0  0  0  0  0  0  0  0  0  0  0  0
  151.9264  139.5861  157.6674 H   0  0  0  0  0  0  0  0  0  0  0  0
  152.2039  141.0951  156.8273 H   0  0  0  0  0  0  0  0  0  0  0  0
  149.2722  142.5313  157.2259 H   0  0  0  0  0  0  0  0  0  0  0  0
  149.4549  141.8355  158.8035 H   0  0  0  0  0  0  0  0  0  0  0  0
  151.8424  142.8057  157.1175 H   0  0  0  0  0  0  0  0  0  0  0  0
  150.7618  144.8842  157.7394 H   0  0  0  0  0  0  0  0  0  0  0  0
  150.2072  144.2028  159.2693 H   0  0  0  0  0  0  0  0  0  0  0  0
  152.9352  145.2135  158.6208 H   0  0  0  0  0  0  0  0  0  0  0  0
  152.1396  145.0475  160.1867 H   0  0  0  0  0  0  0  0  0  0  0  0
  153.8779  143.1096  158.7491 H   0  0  0  0  0  0  0  0  0  0  0  0
  153.3850  143.0529  160.4454 H   0  0  0  0  0  0  0  0  0  0  0  0
  146.1046  139.1031  157.1689 H   0  0  0  0  0  0  0  0  0  0  0  0
  151.0923  136.4694  160.2761 H   0  0  0  0  0  0  0  0  0  0  0  0
  147.8023  135.1151  159.3854 H   0  0  0  0  0  0  0  0  0  0  0  0
  149.1410  134.8918  160.4788 H   0  0  0  0  0  0  0  0  0  0  0  0
  148.9435  136.2051  162.5958 H   0  0  0  0  0  0  0  0  0  0  0  0
  145.8254  137.3095  161.8379 H   0  0  0  0  0  0  0  0  0  0  0  0
  146.4095  137.5606  160.2029 H   0  0  0  0  0  0  0  0  0  0  0  0
  144.2221  136.0093  160.6688 H   0  0  0  0  0  0  0  0  0  0  0  0
  145.4014  135.4772  159.4692 H   0  0  0  0  0  0  0  0  0  0  0  0
  146.4715  135.0897  163.0406 H   0  0  0  0  0  0  0  0  0  0  0  0
  148.5436  133.6784  162.6877 H   0  0  0  0  0  0  0  0  0  0  0  0
  147.8576  133.0926  161.1705 H   0  0  0  0  0  0  0  0  0  0  0  0
  147.0564  132.7371  162.6924 H   0  0  0  0  0  0  0  0  0  0  0  0
  1  2  1  0  0  0  0
  1 27  1  0  0  0  0
  1 28  1  0  0  0  0
  1 29  1  0  0  0  0
  2  3  1  0  0  0  0
  2 30  1  0  0  0  0
  2 31  1  0  0  0  0
  3  4  1  0  0  0  0
  3 10  1  0  0  0  0
  4  5  1  0  0  0  0
  4 32  1  0  0  0  0
  4 33  1  0  0  0  0
  5  9  1  0  0  0  0
  5  6  1  0  0  0  0
  5 34  1  0  0  0  0
  6  7  1  0  0  0  0
  6 35  1  0  0  0  0
  6 36  1  0  0  0  0
  7  8  1  0  0  0  0
  7 37  1  0  0  0  0
  7 38  1  0  0  0  0
  8  9  1  0  0  0  0
  8 39  1  0  0  0  0
  8 40  1  0  0  0  0
 10 15  1  0  0  0  0
 10 11  2  0  0  0  0
 11 12  1  0  0  0  0
 12 13  2  0  0  0  0
 12 41  1  0  0  0  0
 13 14  1  0  0  0  0
 14 18  1  0  0  0  0
 14 15  2  0  0  0  0
 15 16  1  0  0  0  0
 16 17  2  0  0  0  0
 17 18  1  0  0  0  0
 17 42  1  0  0  0  0
 18 19  1  0  0  0  0
 19 20  1  0  0  0  0
 19 43  1  0  0  0  0
 19 44  1  0  0  0  0
 20 25  1  0  0  0  0
 20 21  1  0  0  0  0
 20 22  1  0  0  0  0
 21 45  1  0  0  0  0
 22 23  1  0  0  0  0
 22 46  1  0  0  0  0
 22 47  1  0  0  0  0
 23 24  1  0  0  0  0
 23 48  1  0  0  0  0
 23 49  1  0  0  0  0
 24 25  1  0  0  0  0
 25 26  1  0  0  0  0
 25 50  1  0  0  0  0
 26 51  1  0  0  0  0
 26 52  1  0  0  0  0
 26 53  1  0  0  0  0
M  END
> <s_m_source_file>
AV-unprocessed.smi

> <i_m_source_file_index>
15

> <i_lp_mmshare_version>
43012

> <i_f3d_flags>
0

> <s_epik_input>
TzFbQ0gyXVtDSDJdW0NIMl1bQ0BIXTFbQ0gyXU4oW0NIMl1bQ0gzXSljKG5bY0hdbjIpYyhjMjMpbltjSF1uM1tDSDJdW0NAQF00KFtPSF0pW0NIMl1bQ0gyXU9bQ0BIXTRbQ0gzXQ==

> <s_epik_cmdline>
J2VwaWtfcHl0aG9uJywgJy1waCcsICc3LjAnLCAnLXRuJywgJzgnLCAnLW1hJywgJzIwMCcsICctbWV0YWxfYmluZGluZycsICctaW1hZScsICc8aW5maWxlLm1hZT4nLCAnLW9tYWUnLCAnPG91dGZpbGUubWFlPic=

> <r_lp_tautomer_probability>
1

> <r_epik_Ionization_Penalty>
0.00360814

> <r_epik_Ionization_Penalty_Charging>
0

> <r_epik_Ionization_Penalty_Neutral>
0.00360814

> <r_epik_State_Penalty>
0.00237482

> <r_epik_Charging_Adjusted_Penalty>
0.00237482

> <i_epik_Tot_Q>
0

> <i_epik_Tot_abs_Q>
0

> <r_epik_Metal_State_Penalty>
-0

> <b_epik_Metal_Only>
0

> <s_lp_Force_Field>
OPLS_2005

> <r_lp_Energy>
45.9982

> <b_lp_Chiralities_Consistent>
1

> <s_lp_Variant>
AV-unprocessed.smi:15-2

> <Gold.Version>
5.8.1

> <Gold.Id.Protein>
6NUR|6NUR_protein|mol2

> <Gold.PLP.Fitness>
44.0119

> <Gold.PLP.PLP>
-43.2731

> <Gold.PLP.part.hbond>
-0.9817

> <Gold.PLP.part.metal>
0.0000

> <Gold.PLP.part.buried>
-5.3339

> <Gold.PLP.part.nonpolar>
-37.8448

> <Gold.PLP.part.repulsive>
0.0000

> <Gold.PLP.ligand.clash>
0.0000

> <Gold.PLP.ligand.torsion>
1.6306

> <Gold.PLP.Chemscore.Hbond>
1.0000

> <Gold.PLP.Chemscore.CHOScore>
0.0000

> <Gold.PLP.Chemscore.Metal>
0.0000

> <Gold.Chemscore.Hbonds>
donor molecule, donor type, donor heavy atom, donor atom, acceptor molecule, acceptor atom, score
      P1  H  6931  6943       L1    21  1.00

> <Gold.PLP.Chemscore.Internal.Correction>
1.0000

> <Gold.Rescore>
     Score         DG    S(hbond)    S(metal)    S(lipo)     H(rot)  DE(clash)    DE(int)     intcor
     12.86     -14.69       0.86        0.00     107.62       2.44       0.06       1.78       ----

> <Gold.Chemscore.Fitness>
12.8552

> <Gold.Chemscore.DG>
-14.6893

> <Gold.Chemscore.ZeroCoef>
-5.4800

> <Gold.Chemscore.Hbond>
0.8599

> <Gold.Chemscore.Metal>
0.0000

> <Gold.Chemscore.Lipo>
107.6220

> <Gold.Chemscore.Internal_Hbond>
0.0000

> <Gold.Chemscore.DEClash>
0.0551

> <Gold.Chemscore.DEInternal>
1.7789

> <Gold.Chemscore.Rot>
2.4431

> <Gold.Chemscore.Internal.Correction>
   9.000000E+99

> <Gold.Chemscore.Hbonds>
donor molecule, donor type, donor heavy atom, donor atom, acceptor molecule, acceptor atom, score
      P1  H  6931  6943       L1    21  0.30

> <Gold.Chemscore.Hbond.Weighted>
-2.8720

> <Gold.Chemscore.Metal.Weighted>
-0.0000

> <Gold.Chemscore.Lipo.Weighted>
-12.5918

> <Gold.Chemscore.Internal_Hbond.Weighted>
0.0000

> <Gold.Chemscore.DEClash.Weighted>
0.0551

> <Gold.Chemscore.DEInternal.Weighted>
1.7789

> <Gold.Chemscore.Rot.Weighted>
6.2544

> <Gold.Chemscore.Internal.Correction.Weighted>
   9.000000E+99

> <Gold.Protein.RotatedTorsions>
[ 6907 6896 6895 6894 ] final  101.67 input  -60.11 | X-H torsion
[ 7974 7965 7964 7962 ] final -109.01 input  175.53 | X-H torsion
[ 8008 7997 7996 7995 ] final   46.08 input   59.86 | X-H torsion
[ 10167 10162 10161 10158 ] final  -51.81 input  -65.29 | X-H torsion
[ 10718 10713 10712 10709 ] final   20.89 input   66.30 | X-H torsion
[ 10763 10752 10751 10750 ] final   85.37 input  -60.55 | X-H torsion
[ 11005 11000 10999 10996 ] final  -46.73 input  -57.11 | X-H torsion

> <Gold.Protein.ActiveResidues>
 VAL166  LYS551  ARG553  GLY616  TRP617  ASP618  TYR619  PRO620  LYS621  CYS622 
 ASP623  PHE694  ASN695  SER759  ASP760  ASP761  ALA762  ILE779  LEU786  VAL792 
 PHE793  MET794  SER795  GLU796  ALA797  LYS798  CYS799  TRP800  GLU811  SER814 

> <Gold.Protein.RotatedAtoms>
  152.5343  134.0091  159.7929 H   0  0  0  0  0  0  0  0  0  0  0  0  # atno 6907 bound_to 6896
  151.0297  133.5794  159.2669 H   0  0  0  0  0  0  0  0  0  0  0  0  # atno 6908 bound_to 6896
  151.2803  135.0719  159.9220 H   0  0  0  0  0  0  0  0  0  0  0  0  # atno 6909 bound_to 6896
  145.1858  140.8992  143.3453 H   0  0  0  0  0  0  0  0  0  0  0  0  # atno 7974 bound_to 7965
  155.3465  140.3411  155.4239 H   0  0  0  0  0  0  0  0  0  0  0  0  # atno 8008 bound_to 7997
  156.1786  140.1656  156.8352 H   0  0  0  0  0  0  0  0  0  0  0  0  # atno 8009 bound_to 7997
  154.5309  140.0745  156.8326 H   0  0  0  0  0  0  0  0  0  0  0  0  # atno 8010 bound_to 7997
  140.6569  143.2606  151.4557 H   0  0  0  0  0  0  0  0  0  0  0  0  # atno 10167 bound_to 10162
  157.1308  130.6590  149.5951 H   0  0  0  0  0  0  0  0  0  0  0  0  # atno 10718 bound_to 10713
  153.1468  135.4620  154.9578 H   0  0  0  0  0  0  0  0  0  0  0  0  # atno 10763 bound_to 10752
  154.7793  135.3183  154.8027 H   0  0  0  0  0  0  0  0  0  0  0  0  # atno 10764 bound_to 10752
  153.8540  135.6919  153.4843 H   0  0  0  0  0  0  0  0  0  0  0  0  # atno 10765 bound_to 10752
  141.0597  133.6713  156.3197 H   0  0  0  0  0  0  0  0  0  0  0  0  # atno 11005 bound_to 11000
  145.0090  139.3527  143.6129 LP  0  0  0  0  0  0  0  0  0  0  0  0  # atno 17320 bound_to 7965
  146.3445  139.9345  142.8749 LP  0  0  0  0  0  0  0  0  0  0  0  0  # atno 17321 bound_to 7965
  139.5794  144.1744  152.1948 LP  0  0  0  0  0  0  0  0  0  0  0  0  # atno 17342 bound_to 10162
  140.1065  144.5494  150.6954 LP  0  0  0  0  0  0  0  0  0  0  0  0  # atno 17343 bound_to 10162
  155.9808  130.4812  150.6794 LP  0  0  0  0  0  0  0  0  0  0  0  0  # atno 17370 bound_to 10713
  157.4394  131.0859  151.0959 LP  0  0  0  0  0  0  0  0  0  0  0  0  # atno 17371 bound_to 10713
  140.5893  134.5667  157.5496 LP  0  0  0  0  0  0  0  0  0  0  0  0  # atno 17394 bound_to 11000
  139.9421  134.7767  156.0651 LP  0  0  0  0  0  0  0  0  0  0  0  0  # atno 17395 bound_to 11000

$$$$
