AV-unprocessed.smi:690|AV-procd|sdf|3363|dock10
  -GOLD-   22720 0343D 1   1.00000     0.00000
 Structure written by MMmdl.
 46 48  0  0  0  0  0  0  0  0  1 V2000
  152.1877  139.4534  155.6039 C   0  0  0  0  0  0  0  0  0  0  0  0
  151.2353  138.6556  154.7112 C   0  0  0  0  0  0  0  0  0  0  0  0
  149.9029  139.0453  154.9979 O   0  0  0  0  0  0  0  0  0  0  0  0
  148.9426  138.2975  154.2684 C   0  0  1  0  0  0  0  0  0  0  0  0
  148.4078  137.0595  154.9954 C   0  0  0  0  0  0  0  0  0  0  0  0
  147.0216  137.4272  154.4537 C   0  0  2  0  0  0  0  0  0  0  0  0
  146.7793  136.7862  153.1623 N   0  0  0  0  0  0  0  0  0  0  0  0
  145.6487  136.1538  152.8088 C   0  0  0  0  0  0  0  0  0  0  0  0
  144.6917  136.0256  153.5711 O   0  0  0  0  0  0  0  0  0  0  0  0
  145.5490  135.5902  151.3806 C   0  0  0  0  0  0  0  0  0  0  0  0
  145.3060  134.1380  151.3065 N   0  0  0  0  0  0  0  0  0  0  0  0
  144.0894  133.7264  150.7264 C   0  0  0  0  0  0  0  0  0  0  0  0
  143.7692  132.4300  150.5918 C   0  0  0  0  0  0  0  0  0  0  0  0
  144.7109  131.4424  151.0633 C   0  0  0  0  0  0  0  0  0  0  0  0
  145.8794  131.8249  151.6157 C   0  0  0  0  0  0  0  0  0  0  0  0
  146.2366  133.2411  151.7580 C   0  0  0  0  0  0  0  0  0  0  0  0
  147.3094  133.5986  152.2445 O   0  0  0  0  0  0  0  0  0  0  0  0
  147.5142  138.8926  154.3231 C   0  0  0  0  0  0  0  0  0  0  0  0
  147.0675  139.7437  153.1360 C   0  0  0  0  0  0  0  0  0  0  0  0
  147.4052  141.1954  153.4802 C   0  0  0  0  0  0  0  0  0  0  0  0
  147.4328  141.2603  155.0104 C   0  0  0  0  0  0  0  0  0  0  0  0
  147.1944  139.8260  155.4936 C   0  0  0  0  0  0  0  0  0  0  0  0
  153.2253  139.1838  155.4058 H   0  0  0  0  0  0  0  0  0  0  0  0
  151.9874  139.2621  156.6585 H   0  0  0  0  0  0  0  0  0  0  0  0
  152.0810  140.5245  155.4309 H   0  0  0  0  0  0  0  0  0  0  0  0
  151.4630  138.8445  153.6610 H   0  0  0  0  0  0  0  0  0  0  0  0
  151.3660  137.5876  154.8912 H   0  0  0  0  0  0  0  0  0  0  0  0
  149.2585  138.0802  153.2454 H   0  0  0  0  0  0  0  0  0  0  0  0
  148.8133  136.1109  154.6417 H   0  0  0  0  0  0  0  0  0  0  0  0
  148.4719  137.1429  156.0815 H   0  0  0  0  0  0  0  0  0  0  0  0
  146.2254  137.2851  155.1863 H   0  0  0  0  0  0  0  0  0  0  0  0
  147.5193  136.8484  152.4784 H   0  0  0  0  0  0  0  0  0  0  0  0
  144.7730  136.1401  150.8455 H   0  0  0  0  0  0  0  0  0  0  0  0
  146.4746  135.8343  150.8572 H   0  0  0  0  0  0  0  0  0  0  0  0
  143.4452  134.5278  150.3939 H   0  0  0  0  0  0  0  0  0  0  0  0
  142.8339  132.1335  150.1399 H   0  0  0  0  0  0  0  0  0  0  0  0
  144.4772  130.3919  150.9725 H   0  0  0  0  0  0  0  0  0  0  0  0
  146.5716  131.0714  151.9622 H   0  0  0  0  0  0  0  0  0  0  0  0
  147.5363  139.4388  152.1996 H   0  0  0  0  0  0  0  0  0  0  0  0
  145.9899  139.6494  152.9956 H   0  0  0  0  0  0  0  0  0  0  0  0
  148.3884  141.4525  153.0845 H   0  0  0  0  0  0  0  0  0  0  0  0
  146.6841  141.8904  153.0490 H   0  0  0  0  0  0  0  0  0  0  0  0
  148.4043  141.6210  155.3501 H   0  0  0  0  0  0  0  0  0  0  0  0
  146.6754  141.9398  155.4029 H   0  0  0  0  0  0  0  0  0  0  0  0
  146.1470  139.7150  155.7772 H   0  0  0  0  0  0  0  0  0  0  0  0
  147.7804  139.6050  156.3863 H   0  0  0  0  0  0  0  0  0  0  0  0
  1  2  1  0  0  0  0
  1 23  1  0  0  0  0
  1 24  1  0  0  0  0
  1 25  1  0  0  0  0
  2  3  1  0  0  0  0
  2 26  1  0  0  0  0
  2 27  1  0  0  0  0
  3  4  1  0  0  0  0
  4 18  1  0  0  0  0
  4  5  1  0  0  0  0
  4 28  1  0  0  0  0
  5  6  1  0  0  0  0
  5 29  1  0  0  0  0
  5 30  1  0  0  0  0
  6  7  1  0  0  0  0
  6 18  1  0  0  0  0
  6 31  1  0  0  0  0
  7  8  1  0  0  0  0
  7 32  1  0  0  0  0
  8  9  2  0  0  0  0
  8 10  1  0  0  0  0
 10 11  1  0  0  0  0
 10 33  1  0  0  0  0
 10 34  1  0  0  0  0
 11 16  1  0  0  0  0
 11 12  1  0  0  0  0
 12 13  2  0  0  0  0
 12 35  1  0  0  0  0
 13 14  1  0  0  0  0
 13 36  1  0  0  0  0
 14 15  2  0  0  0  0
 14 37  1  0  0  0  0
 15 16  1  0  0  0  0
 15 38  1  0  0  0  0
 16 17  2  0  0  0  0
 18 22  1  0  0  0  0
 18 19  1  0  0  0  0
 19 20  1  0  0  0  0
 19 39  1  0  0  0  0
 19 40  1  0  0  0  0
 20 21  1  0  0  0  0
 20 41  1  0  0  0  0
 20 42  1  0  0  0  0
 21 22  1  0  0  0  0
 21 43  1  0  0  0  0
 21 44  1  0  0  0  0
 22 45  1  0  0  0  0
 22 46  1  0  0  0  0
M  END
> <s_m_source_file>
AV-unprocessed.smi

> <i_m_source_file_index>
690

> <i_lp_mmshare_version>
43012

> <i_f3d_flags>
0

> <s_epik_input>
W0NIMl0xW0NIMl1bQ0gyXVtDSDJdQzEyW0NASF0oT1tDSDJdW0NIM10pW0NIMl1bQ0BIXTJbTkhdQyg9TylbQ0gyXW4zW2NIXVtjSF1bY0hdW2NIXWMzPU8=

> <s_epik_cmdline>
J2VwaWtfcHl0aG9uJywgJy1waCcsICc3LjAnLCAnLXRuJywgJzgnLCAnLW1hJywgJzIwMCcsICctbWV0YWxfYmluZGluZycsICctaW1hZScsICc8aW5maWxlLm1hZT4nLCAnLW9tYWUnLCAnPG91dGZpbGUubWFlPic=

> <r_lp_tautomer_probability>
1

> <r_epik_Ionization_Penalty>
4.11691e-07

> <r_epik_Ionization_Penalty_Charging>
3.92797e-07

> <r_epik_Ionization_Penalty_Neutral>
1.88943e-08

> <r_epik_State_Penalty>
-0

> <r_epik_Charging_Adjusted_Penalty>
3.92797e-07

> <i_epik_Tot_Q>
0

> <i_epik_Tot_abs_Q>
0

> <r_epik_Metal_State_Penalty>
-0

> <b_epik_Metal_Only>
0

> <s_lp_Force_Field>
OPLS_2005

> <r_lp_Energy>
47.2811

> <b_lp_Chiralities_Consistent>
1

> <s_lp_Variant>
AV-unprocessed.smi:690-4

> <Gold.Version>
5.8.1

> <Gold.Id.Protein>
6NUR|6NUR_protein|mol2

> <Gold.PLP.Fitness>
40.9486

> <Gold.PLP.PLP>
-35.7071

> <Gold.PLP.part.hbond>
-1.0000

> <Gold.PLP.part.metal>
0.0000

> <Gold.PLP.part.buried>
-6.1672

> <Gold.PLP.part.nonpolar>
-29.9881

> <Gold.PLP.part.repulsive>
0.6928

> <Gold.PLP.ligand.clash>
0.0000

> <Gold.PLP.ligand.torsion>
0.4019

> <Gold.PLP.Chemscore.Hbond>
0.9920

> <Gold.PLP.Chemscore.CHOScore>
0.9071

> <Gold.PLP.Chemscore.Metal>
0.0000

> <Gold.Chemscore.Hbonds>
donor molecule, donor type, donor heavy atom, donor atom, acceptor molecule, acceptor atom, score
      L1  H     7    32       P1  7948  0.99
      L1  C    12    35       P1 10186  0.89

> <Gold.PLP.Chemscore.Internal.Correction>
0.3481

> <Gold.Rescore>
     Score         DG    S(hbond)    S(metal)    S(lipo)     H(rot)  DE(clash)    DE(int)     intcor
     14.03     -14.51       0.98        0.00      86.27       1.69       0.09       0.39       ----

> <Gold.Chemscore.Fitness>
14.0289

> <Gold.Chemscore.DG>
-14.5070

> <Gold.Chemscore.ZeroCoef>
-5.4800

> <Gold.Chemscore.Hbond>
0.9761

> <Gold.Chemscore.Metal>
0.0000

> <Gold.Chemscore.Lipo>
86.2671

> <Gold.Chemscore.Internal_Hbond>
0.0000

> <Gold.Chemscore.DEClash>
0.0856

> <Gold.Chemscore.DEInternal>
0.3925

> <Gold.Chemscore.Rot>
1.6900

> <Gold.Chemscore.Internal.Correction>
   9.000000E+99

> <Gold.Chemscore.Hbonds>
donor molecule, donor type, donor heavy atom, donor atom, acceptor molecule, acceptor atom, score
      L1  H     7    32       P1  7948  0.93

> <Gold.Chemscore.Hbond.Weighted>
-3.2602

> <Gold.Chemscore.Metal.Weighted>
-0.0000

> <Gold.Chemscore.Lipo.Weighted>
-10.0933

> <Gold.Chemscore.Internal_Hbond.Weighted>
0.0000

> <Gold.Chemscore.DEClash.Weighted>
0.0856

> <Gold.Chemscore.DEInternal.Weighted>
0.3925

> <Gold.Chemscore.Rot.Weighted>
4.3265

> <Gold.Chemscore.Internal.Correction.Weighted>
   9.000000E+99

> <Gold.Protein.RotatedTorsions>
[ 6907 6896 6895 6894 ] final    8.01 input  -60.11 | X-H torsion
[ 7974 7965 7964 7962 ] final    0.37 input  175.53 | X-H torsion
[ 8008 7997 7996 7995 ] final  102.24 input   59.86 | X-H torsion
[ 10167 10162 10161 10158 ] final -166.30 input  -65.29 | X-H torsion
[ 10718 10713 10712 10709 ] final   85.74 input   66.30 | X-H torsion
[ 10763 10752 10751 10750 ] final   82.83 input  -60.55 | X-H torsion
[ 11005 11000 10999 10996 ] final  110.25 input  -57.11 | X-H torsion

> <Gold.Protein.ActiveResidues>
 VAL166  LYS551  ARG553  GLY616  TRP617  ASP618  TYR619  PRO620  LYS621  CYS622 
 ASP623  PHE694  ASN695  SER759  ASP760  ASP761  ALA762  ILE779  LEU786  VAL792 
 PHE793  MET794  SER795  GLU796  ALA797  LYS798  CYS799  TRP800  GLU811  SER814 

> <Gold.Protein.RotatedAtoms>
  151.6991  135.0933  160.0247 H   0  0  0  0  0  0  0  0  0  0  0  0  # atno 6907 bound_to 6896
  152.3731  133.6441  159.6111 H   0  0  0  0  0  0  0  0  0  0  0  0  # atno 6908 bound_to 6896
  150.7688  133.9154  159.3423 H   0  0  0  0  0  0  0  0  0  0  0  0  # atno 6909 bound_to 6896
  146.2434  140.1148  142.8342 H   0  0  0  0  0  0  0  0  0  0  0  0  # atno 7974 bound_to 7965
  156.1374  140.3184  155.8443 H   0  0  0  0  0  0  0  0  0  0  0  0  # atno 8008 bound_to 7997
  155.4218  140.0513  157.3042 H   0  0  0  0  0  0  0  0  0  0  0  0  # atno 8009 bound_to 7997
  154.4948  140.2106  155.9482 H   0  0  0  0  0  0  0  0  0  0  0  0  # atno 8010 bound_to 7997
  139.6124  144.0788  152.1855 H   0  0  0  0  0  0  0  0  0  0  0  0  # atno 10167 bound_to 10162
  157.6919  131.0187  150.2868 H   0  0  0  0  0  0  0  0  0  0  0  0  # atno 10718 bound_to 10713
  153.1237  135.4713  154.9238 H   0  0  0  0  0  0  0  0  0  0  0  0  # atno 10763 bound_to 10752
  154.7600  135.3129  154.8399 H   0  0  0  0  0  0  0  0  0  0  0  0  # atno 10764 bound_to 10752
  153.8957  135.6880  153.4812 H   0  0  0  0  0  0  0  0  0  0  0  0  # atno 10765 bound_to 10752
  139.8878  134.9479  156.6251 H   0  0  0  0  0  0  0  0  0  0  0  0  # atno 11005 bound_to 11000
  145.0457  140.8979  143.5026 LP  0  0  0  0  0  0  0  0  0  0  0  0  # atno 17320 bound_to 7965
  145.1236  139.2677  143.5575 LP  0  0  0  0  0  0  0  0  0  0  0  0  # atno 17321 bound_to 7965
  140.0409  144.6008  150.7411 LP  0  0  0  0  0  0  0  0  0  0  0  0  # atno 17342 bound_to 10162
  140.7328  143.2710  151.3889 LP  0  0  0  0  0  0  0  0  0  0  0  0  # atno 17343 bound_to 10162
  156.3406  130.3815  149.7412 LP  0  0  0  0  0  0  0  0  0  0  0  0  # atno 17370 bound_to 10713
  156.4922  130.8090  151.3099 LP  0  0  0  0  0  0  0  0  0  0  0  0  # atno 17371 bound_to 10713
  140.7710  133.8739  155.8491 LP  0  0  0  0  0  0  0  0  0  0  0  0  # atno 17394 bound_to 11000
  140.9842  134.1365  157.4467 LP  0  0  0  0  0  0  0  0  0  0  0  0  # atno 17395 bound_to 11000

$$$$
