AV-unprocessed.smi:3193|AV-procd|sdf|12208|dock1
  -GOLD-   2272018 43D 1   1.00000     0.00000
 Structure written by MMmdl.
 41 42  0  0  0  0  0  0  0  0  3 V2000
  151.2190  144.9318  158.7918 C   0  0  0  0  0  0  0  0  0  0  0  0
  152.1143  143.6844  158.9181 C   0  0  1  0  0  0  0  0  0  0  0  0
  152.5673  143.5233  160.3848 C   0  0  0  0  0  0  0  0  0  0  0  0
  153.5116  142.3281  160.5697 C   0  0  0  0  0  0  0  0  0  0  0  0
  152.8593  141.0358  160.0670 C   0  0  0  0  0  0  0  0  0  0  0  0
  152.4161  141.1814  158.6045 C   0  0  0  0  0  0  0  0  0  0  0  0
  151.4520  142.3714  158.4011 C   0  0  2  0  0  0  0  0  0  0  0  0
  151.0230  142.4355  156.9179 C   0  0  0  0  0  0  0  0  0  0  0  0
  149.5629  142.2851  156.7627 N   0  3  0  0  0  0  0  0  0  0  0  0
  149.1340  140.9651  156.2594 C   0  0  0  0  0  0  0  0  0  0  0  0
  149.5079  140.7805  154.7795 C   0  0  0  0  0  0  0  0  0  0  0  0
  150.4473  139.6712  154.5752 N   0  0  0  0  0  0  0  0  0  0  0  0
  151.6210  139.4430  155.2475 C   0  0  0  0  0  0  0  0  0  0  0  0
  152.1581  138.2970  154.7201 C   0  0  0  0  0  0  0  0  0  0  0  0
  151.2878  137.8704  153.7532 N   0  3  0  0  0  0  0  0  0  0  0  0
  150.2453  138.7035  153.6703 C   0  0  0  0  0  0  0  0  0  0  0  0
  150.2526  144.7795  159.2736 H   0  0  0  0  0  0  0  0  0  0  0  0
  151.0439  145.2022  157.7509 H   0  0  0  0  0  0  0  0  0  0  0  0
  151.6876  145.7978  159.2606 H   0  0  0  0  0  0  0  0  0  0  0  0
  153.0086  143.8692  158.3203 H   0  0  0  0  0  0  0  0  0  0  0  0
  153.0705  144.4300  160.7225 H   0  0  0  0  0  0  0  0  0  0  0  0
  151.6951  143.3993  161.0285 H   0  0  0  0  0  0  0  0  0  0  0  0
  154.4413  142.5066  160.0278 H   0  0  0  0  0  0  0  0  0  0  0  0
  153.7814  142.2247  161.6212 H   0  0  0  0  0  0  0  0  0  0  0  0
  153.5586  140.2048  160.1641 H   0  0  0  0  0  0  0  0  0  0  0  0
  151.9988  140.7907  160.6907 H   0  0  0  0  0  0  0  0  0  0  0  0
  153.2952  141.3059  157.9705 H   0  0  0  0  0  0  0  0  0  0  0  0
  151.9387  140.2539  158.2861 H   0  0  0  0  0  0  0  0  0  0  0  0
  150.5651  142.1692  159.0044 H   0  0  0  0  0  0  0  0  0  0  0  0
  151.3586  143.3721  156.4701 H   0  0  0  0  0  0  0  0  0  0  0  0
  151.4915  141.6304  156.3500 H   0  0  0  0  0  0  0  0  0  0  0  0
  149.1211  142.4592  157.6546 H   0  0  0  0  0  0  0  0  0  0  0  0
  149.5929  140.1772  156.8584 H   0  0  0  0  0  0  0  0  0  0  0  0
  148.0546  140.8723  156.3852 H   0  0  0  0  0  0  0  0  0  0  0  0
  148.6157  140.5636  154.1910 H   0  0  0  0  0  0  0  0  0  0  0  0
  149.9441  141.6939  154.3715 H   0  0  0  0  0  0  0  0  0  0  0  0
  151.9797  140.0959  156.0306 H   0  0  0  0  0  0  0  0  0  0  0  0
  153.0688  137.7654  154.9562 H   0  0  0  0  0  0  0  0  0  0  0  0
  149.4081  138.6107  153.0011 H   0  0  0  0  0  0  0  0  0  0  0  0
  149.2533  142.9872  156.1059 H   0  0  0  0  0  0  0  0  0  0  0  0
  151.4096  137.0390  153.1878 H   0  0  0  0  0  0  0  0  0  0  0  0
  1  2  1  0  0  0  0
  1 17  1  0  0  0  0
  1 18  1  0  0  0  0
  1 19  1  0  0  0  0
  2  7  1  0  0  0  0
  2  3  1  0  0  0  0
  2 20  1  0  0  0  0
  3  4  1  0  0  0  0
  3 21  1  0  0  0  0
  3 22  1  0  0  0  0
  4  5  1  0  0  0  0
  4 23  1  0  0  0  0
  4 24  1  0  0  0  0
  5  6  1  0  0  0  0
  5 25  1  0  0  0  0
  5 26  1  0  0  0  0
  6  7  1  0  0  0  0
  6 27  1  0  0  0  0
  6 28  1  0  0  0  0
  7  8  1  0  0  0  0
  7 29  1  0  0  0  0
  8  9  1  0  0  0  0
  8 30  1  0  0  0  0
  8 31  1  0  0  0  0
  9 10  1  0  0  0  0
  9 32  1  0  0  0  0
  9 40  1  0  0  0  0
 10 11  1  0  0  0  0
 10 33  1  0  0  0  0
 10 34  1  0  0  0  0
 11 12  1  0  0  0  0
 11 35  1  0  0  0  0
 11 36  1  0  0  0  0
 12 16  1  0  0  0  0
 12 13  1  0  0  0  0
 13 14  2  0  0  0  0
 13 37  1  0  0  0  0
 14 15  1  0  0  0  0
 14 38  1  0  0  0  0
 15 16  2  0  0  0  0
 15 41  1  0  0  0  0
 16 39  1  0  0  0  0
M  CHG  1   9   1
M  CHG  1  15   1
M  END
> <s_m_source_file>
AV-unprocessed.smi

> <i_m_source_file_index>
3193

> <i_lp_mmshare_version>
43012

> <i_f3d_flags>
0

> <s_epik_input>
W0NIM11bQ0BASF0xW0NIMl1bQ0gyXVtDSDJdW0NIMl1bQ0BIXTFbQ0gyXVtOSF1bQ0gyXVtDSDJdbjJbY0hdW2NIXW5bY0hdMg==

> <s_epik_cmdline>
J2VwaWtfcHl0aG9uJywgJy1waCcsICc3LjAnLCAnLXRuJywgJzgnLCAnLW1hJywgJzIwMCcsICctbWV0YWxfYmluZGluZycsICctaW1hZScsICc8aW5maWxlLm1hZT4nLCAnLW9tYWUnLCAnPG91dGZpbGUubWFlPic=

> <r_lp_tautomer_probability>
1

> <r_epik_Ionization_Penalty>
1.50262

> <r_epik_Ionization_Penalty_Charging>
0.00193432

> <r_epik_Ionization_Penalty_Neutral>
1.50068

> <r_epik_State_Penalty>
1.11854

> <r_epik_Charging_Adjusted_Penalty>
1.12048

> <i_epik_Tot_Q>
2

> <i_epik_Tot_abs_Q>
2

> <r_epik_Metal_State_Penalty>
5.11322

> <b_epik_Metal_Only>
0

> <s_lp_Force_Field>
OPLS_2005

> <r_lp_Energy>
27.1702

> <b_lp_Chiralities_Consistent>
1

> <s_lp_Variant>
AV-unprocessed.smi:3193-8

> <Gold.Version>
5.8.1

> <Gold.Id.Protein>
6NUR|6NUR_protein|mol2

> <Gold.PLP.Fitness>
53.4844

> <Gold.PLP.PLP>
-40.9235

> <Gold.PLP.part.hbond>
-2.2099

> <Gold.PLP.part.metal>
0.0000

> <Gold.PLP.part.buried>
-0.9563

> <Gold.PLP.part.nonpolar>
-37.4365

> <Gold.PLP.part.repulsive>
0.1438

> <Gold.PLP.ligand.clash>
0.0000

> <Gold.PLP.ligand.torsion>
1.5589

> <Gold.PLP.Chemscore.Hbond>
3.9840

> <Gold.PLP.Chemscore.CHOScore>
1.1985

> <Gold.PLP.Chemscore.Metal>
0.0000

> <Gold.Chemscore.Hbonds>
donor molecule, donor type, donor heavy atom, donor atom, acceptor molecule, acceptor atom, score
      L1  H     9    40       P1  8028  2.00
      L1  H    15    41       P1  7949  2.00
      L1  C    16    39       P1  7948  0.56
      L1  C    16    39       P1  7957  0.64

> <Gold.PLP.Chemscore.Internal.Correction>
0.1312

> <Gold.Rescore>
     Score         DG    S(hbond)    S(metal)    S(lipo)     H(rot)  DE(clash)    DE(int)     intcor
     18.00     -19.50       1.95        0.00     107.53       1.98       0.00       1.50       ----

> <Gold.Chemscore.Fitness>
17.9981

> <Gold.Chemscore.DG>
-19.4964

> <Gold.Chemscore.ZeroCoef>
-5.4800

> <Gold.Chemscore.Hbond>
1.9452

> <Gold.Chemscore.Metal>
0.0000

> <Gold.Chemscore.Lipo>
107.5348

> <Gold.Chemscore.Internal_Hbond>
0.0000

> <Gold.Chemscore.DEClash>
0.0009

> <Gold.Chemscore.DEInternal>
1.4974

> <Gold.Chemscore.Rot>
1.9774

> <Gold.Chemscore.Internal.Correction>
   9.000000E+99

> <Gold.Chemscore.Hbonds>
donor molecule, donor type, donor heavy atom, donor atom, acceptor molecule, acceptor atom, score
      L1  H     9    40       P1  8028  0.96
      L1  H    15    41       P1  7949  0.75

> <Gold.Chemscore.Hbond.Weighted>
-6.4970

> <Gold.Chemscore.Metal.Weighted>
-0.0000

> <Gold.Chemscore.Lipo.Weighted>
-12.5816

> <Gold.Chemscore.Internal_Hbond.Weighted>
0.0000

> <Gold.Chemscore.DEClash.Weighted>
0.0009

> <Gold.Chemscore.DEInternal.Weighted>
1.4974

> <Gold.Chemscore.Rot.Weighted>
5.0622

> <Gold.Chemscore.Internal.Correction.Weighted>
   9.000000E+99

> <Gold.Protein.RotatedTorsions>
[ 6907 6896 6895 6894 ] final  154.56 input  -60.11 | X-H torsion
[ 7974 7965 7964 7962 ] final  168.63 input  175.53 | X-H torsion
[ 8008 7997 7996 7995 ] final   47.74 input   59.86 | X-H torsion
[ 10167 10162 10161 10158 ] final  -26.42 input  -65.29 | X-H torsion
[ 10718 10713 10712 10709 ] final -165.92 input   66.30 | X-H torsion
[ 10763 10752 10751 10750 ] final -139.42 input  -60.55 | X-H torsion
[ 11005 11000 10999 10996 ] final  -59.10 input  -57.11 | X-H torsion

> <Gold.Protein.ActiveResidues>
 VAL166  LYS551  ARG553  GLY616  TRP617  ASP618  TYR619  PRO620  LYS621  CYS622 
 ASP623  PHE694  ASN695  SER759  ASP760  ASP761  ALA762  ILE779  LEU786  VAL792 
 PHE793  MET794  SER795  GLU796  ALA797  LYS798  CYS799  TRP800  GLU811  SER814 

> <Gold.Protein.RotatedAtoms>
  152.0567  133.4043  159.4399 H   0  0  0  0  0  0  0  0  0  0  0  0  # atno 6907 bound_to 6896
  150.6868  134.3247  159.4810 H   0  0  0  0  0  0  0  0  0  0  0  0  # atno 6908 bound_to 6896
  152.1063  134.9306  160.0618 H   0  0  0  0  0  0  0  0  0  0  0  0  # atno 6909 bound_to 6896
  144.7382  139.8935  143.6404 H   0  0  0  0  0  0  0  0  0  0  0  0  # atno 7974 bound_to 7965
  155.3741  140.3425  155.4244 H   0  0  0  0  0  0  0  0  0  0  0  0  # atno 8008 bound_to 7997
  156.1646  140.1612  156.8587 H   0  0  0  0  0  0  0  0  0  0  0  0  # atno 8009 bound_to 7997
  154.5173  140.0775  156.8087 H   0  0  0  0  0  0  0  0  0  0  0  0  # atno 8010 bound_to 7997
  140.7283  143.4179  151.0998 H   0  0  0  0  0  0  0  0  0  0  0  0  # atno 10167 bound_to 10162
  156.6603  130.9043  151.3028 H   0  0  0  0  0  0  0  0  0  0  0  0  # atno 10718 bound_to 10713
  154.8609  135.3583  154.5544 H   0  0  0  0  0  0  0  0  0  0  0  0  # atno 10763 bound_to 10752
  153.6161  135.7007  153.5333 H   0  0  0  0  0  0  0  0  0  0  0  0  # atno 10764 bound_to 10752
  153.3168  135.4162  155.1343 H   0  0  0  0  0  0  0  0  0  0  0  0  # atno 10765 bound_to 10752
  141.1235  133.6615  156.5021 H   0  0  0  0  0  0  0  0  0  0  0  0  # atno 11005 bound_to 11000
  146.1124  139.4131  143.0279 LP  0  0  0  0  0  0  0  0  0  0  0  0  # atno 17320 bound_to 7965
  145.7424  141.0003  143.1294 LP  0  0  0  0  0  0  0  0  0  0  0  0  # atno 17321 bound_to 7965
  139.7821  143.8340  152.3139 LP  0  0  0  0  0  0  0  0  0  0  0  0  # atno 17342 bound_to 10162
  139.8294  144.7260  150.9469 LP  0  0  0  0  0  0  0  0  0  0  0  0  # atno 17343 bound_to 10162
  157.7112  130.9442  150.1095 LP  0  0  0  0  0  0  0  0  0  0  0  0  # atno 17370 bound_to 10713
  156.2016  130.3660  149.8781 LP  0  0  0  0  0  0  0  0  0  0  0  0  # atno 17371 bound_to 10713
  140.4437  134.6992  157.5005 LP  0  0  0  0  0  0  0  0  0  0  0  0  # atno 17394 bound_to 11000
  140.0212  134.6545  155.9238 LP  0  0  0  0  0  0  0  0  0  0  0  0  # atno 17395 bound_to 11000

$$$$
