AV-unprocessed.smi:196|AV-procd|sdf|1540|dock4
  -GOLD-   2262019393D 1   1.00000     0.00000
 Structure written by MMmdl.
 47 50  0  0  0  0  0  0  0  0  1 V2000
  142.4765  132.7371  151.8567 C   0  0  0  0  0  0  0  0  0  0  0  0
  143.6137  132.7407  150.8233 C   0  0  2  0  0  0  0  0  0  0  0  0
  144.5620  131.7567  151.2292 O   0  0  0  0  0  0  0  0  0  0  0  0
  145.8567  132.1722  150.8318 C   0  0  0  0  0  0  0  0  0  0  0  0
  145.8210  133.6669  151.1102 C   0  0  0  0  0  0  0  0  0  0  0  0
  144.4154  134.0646  150.6689 C   0  0  1  0  0  0  0  0  0  0  0  0
  144.4666  134.3753  149.2859 O   0  0  0  0  0  0  0  0  0  0  0  0
  143.8552  135.3036  151.4168 C   0  0  0  0  0  0  0  0  0  0  0  0
  144.8620  136.3195  151.6876 N   0  0  0  0  0  0  0  0  0  0  0  0
  145.8666  136.7313  150.8397 C   0  0  0  0  0  0  0  0  0  0  0  0
  146.6530  137.6593  151.3137 N   0  0  0  0  0  0  0  0  0  0  0  0
  146.1470  137.9089  152.5823 C   0  0  0  0  0  0  0  0  0  0  0  0
  146.5205  138.7816  153.6365 C   0  0  0  0  0  0  0  0  0  0  0  0
  147.5725  139.6240  153.5219 N   0  0  0  0  0  0  0  0  0  0  0  0
  147.2270  140.9740  153.0868 C   0  0  0  0  0  0  0  0  0  0  0  0
  147.9705  141.9289  154.0220 C   0  0  1  0  0  0  0  0  0  0  0  0
  147.1792  142.2525  155.0463 F   0  0  0  0  0  0  0  0  0  0  0  0
  149.1369  141.0855  154.5245 C   0  0  0  0  0  0  0  0  0  0  0  0
  148.5317  139.6787  154.6322 C   0  0  2  0  0  0  0  0  0  0  0  0
  149.6169  138.5865  154.5877 C   0  0  0  0  0  0  0  0  0  0  0  0
  150.2919  138.3922  153.4497 N   0  0  0  0  0  0  0  0  0  0  0  0
  149.8400  137.9104  155.5895 O   0  0  0  0  0  0  0  0  0  0  0  0
  145.7733  138.7673  154.7709 N   0  0  0  0  0  0  0  0  0  0  0  0
  144.7283  137.9398  154.8696 C   0  0  0  0  0  0  0  0  0  0  0  0
  144.2668  137.0660  153.9717 N   0  0  0  0  0  0  0  0  0  0  0  0
  145.0164  137.0826  152.8319 C   0  0  0  0  0  0  0  0  0  0  0  0
  148.2789  142.8557  153.5380 H   0  0  0  0  0  0  0  0  0  0  0  0
  148.0133  139.5990  155.5891 H   0  0  0  0  0  0  0  0  0  0  0  0
  141.7016  133.4597  151.6008 H   0  0  0  0  0  0  0  0  0  0  0  0
  142.8441  132.9675  152.8570 H   0  0  0  0  0  0  0  0  0  0  0  0
  142.0037  131.7558  151.9020 H   0  0  0  0  0  0  0  0  0  0  0  0
  143.2039  132.4287  149.8606 H   0  0  0  0  0  0  0  0  0  0  0  0
  146.6354  131.6555  151.3930 H   0  0  0  0  0  0  0  0  0  0  0  0
  146.0011  131.9712  149.7692 H   0  0  0  0  0  0  0  0  0  0  0  0
  145.9350  133.8224  152.1835 H   0  0  0  0  0  0  0  0  0  0  0  0
  146.6163  134.2189  150.6075 H   0  0  0  0  0  0  0  0  0  0  0  0
  143.6072  134.6543  149.0093 H   0  0  0  0  0  0  0  0  0  0  0  0
  143.0536  135.7667  150.8401 H   0  0  0  0  0  0  0  0  0  0  0  0
  143.4182  135.0096  152.3714 H   0  0  0  0  0  0  0  0  0  0  0  0
  146.0024  136.3132  149.8530 H   0  0  0  0  0  0  0  0  0  0  0  0
  147.5870  141.0941  152.0646 H   0  0  0  0  0  0  0  0  0  0  0  0
  146.1531  141.1717  153.0787 H   0  0  0  0  0  0  0  0  0  0  0  0
  149.9433  141.1054  153.7890 H   0  0  0  0  0  0  0  0  0  0  0  0
  149.5398  141.4467  155.4716 H   0  0  0  0  0  0  0  0  0  0  0  0
  151.0071  137.6802  153.4047 H   0  0  0  0  0  0  0  0  0  0  0  0
  150.0847  138.9583  152.6399 H   0  0  0  0  0  0  0  0  0  0  0  0
  144.1837  137.9844  155.8012 H   0  0  0  0  0  0  0  0  0  0  0  0
  1  2  1  0  0  0  0
  1 29  1  0  0  0  0
  1 30  1  0  0  0  0
  1 31  1  0  0  0  0
  2  6  1  0  0  0  0
  2  3  1  0  0  0  0
  2 32  1  0  0  0  0
  3  4  1  0  0  0  0
  4  5  1  0  0  0  0
  4 33  1  0  0  0  0
  4 34  1  0  0  0  0
  5  6  1  0  0  0  0
  5 35  1  0  0  0  0
  5 36  1  0  0  0  0
  6  7  1  0  0  0  0
  6  8  1  0  0  0  0
  7 37  1  0  0  0  0
  8  9  1  0  0  0  0
  8 38  1  0  0  0  0
  8 39  1  0  0  0  0
  9 26  1  0  0  0  0
  9 10  1  0  0  0  0
 10 11  2  0  0  0  0
 10 40  1  0  0  0  0
 11 12  1  0  0  0  0
 12 26  2  0  0  0  0
 12 13  1  0  0  0  0
 13 14  1  0  0  0  0
 13 23  2  0  0  0  0
 14 19  1  0  0  0  0
 14 15  1  0  0  0  0
 15 16  1  0  0  0  0
 15 41  1  0  0  0  0
 15 42  1  0  0  0  0
 16 27  1  0  0  0  0
 16 17  1  0  0  0  0
 16 18  1  0  0  0  0
 18 19  1  0  0  0  0
 18 43  1  0  0  0  0
 18 44  1  0  0  0  0
 19 28  1  0  0  0  0
 19 20  1  0  0  0  0
 20 21  1  0  0  0  0
 20 22  2  0  0  0  0
 21 45  1  0  0  0  0
 21 46  1  0  0  0  0
 23 24  1  0  0  0  0
 24 25  2  0  0  0  0
 24 47  1  0  0  0  0
 25 26  1  0  0  0  0
M  END
> <s_m_source_file>
AV-unprocessed.smi

> <i_m_source_file_index>
196

> <i_lp_mmshare_version>
43012

> <i_f3d_flags>
0

> <s_epik_input>
W0NIMl0xW0NIMl1PW0NAQEhdKFtDSDNdKVtDQEBdMShbT0hdKVtDSDJdbihbY0hdbjIpYyhjMjMpbltjSF1uYzNONFtDSDJdW0NASF0oRilbQ0gyXVtDQEhdNEMoPU8pW05IMl0=

> <s_epik_cmdline>
J2VwaWtfcHl0aG9uJywgJy1waCcsICc3LjAnLCAnLXRuJywgJzgnLCAnLW1hJywgJzIwMCcsICctbWV0YWxfYmluZGluZycsICctaW1hZScsICc8aW5maWxlLm1hZT4nLCAnLW9tYWUnLCAnPG91dGZpbGUubWFlPic=

> <r_lp_tautomer_probability>
1

> <r_epik_Ionization_Penalty>
0.000857933

> <r_epik_Ionization_Penalty_Charging>
0

> <r_epik_Ionization_Penalty_Neutral>
0.000857933

> <r_epik_State_Penalty>
0.000462053

> <r_epik_Charging_Adjusted_Penalty>
0.000462053

> <i_epik_Tot_Q>
0

> <i_epik_Tot_abs_Q>
0

> <r_epik_Metal_State_Penalty>
-0

> <b_epik_Metal_Only>
0

> <s_lp_Force_Field>
OPLS_2005

> <r_lp_Energy>
46.05

> <b_lp_Chiralities_Consistent>
1

> <s_lp_Variant>
AV-unprocessed.smi:196-13

> <Gold.Version>
5.8.1

> <Gold.Id.Protein>
6NUR|6NUR_protein|mol2

> <Gold.PLP.Fitness>
41.5678

> <Gold.PLP.PLP>
-34.3653

> <Gold.PLP.part.hbond>
-3.3920

> <Gold.PLP.part.metal>
0.0000

> <Gold.PLP.part.buried>
3.7185

> <Gold.PLP.part.nonpolar>
-37.8407

> <Gold.PLP.part.repulsive>
3.0730

> <Gold.PLP.ligand.clash>
0.0000

> <Gold.PLP.ligand.torsion>
1.2676

> <Gold.PLP.Chemscore.Hbond>
2.1911

> <Gold.PLP.Chemscore.CHOScore>
1.0000

> <Gold.PLP.Chemscore.Metal>
0.0000

> <Gold.Chemscore.Hbonds>
donor molecule, donor type, donor heavy atom, donor atom, acceptor molecule, acceptor atom, score
      L1  H    21    46       P1  7957  1.00
      P1  H  7954  7966       L1    11  0.86
      L1  C    10    40       P1  7921  0.68

> <Gold.PLP.Chemscore.Internal.Correction>
0.1643

> <Gold.Rescore>
     Score         DG    S(hbond)    S(metal)    S(lipo)     H(rot)  DE(clash)    DE(int)     intcor
      7.07     -11.90       1.47        0.00      79.32       3.04       3.90       0.92       ----

> <Gold.Chemscore.Fitness>
7.0743

> <Gold.Chemscore.DG>
-11.8996

> <Gold.Chemscore.ZeroCoef>
-5.4800

> <Gold.Chemscore.Hbond>
1.4744

> <Gold.Chemscore.Metal>
0.0000

> <Gold.Chemscore.Lipo>
79.3236

> <Gold.Chemscore.Internal_Hbond>
0.0000

> <Gold.Chemscore.DEClash>
3.9012

> <Gold.Chemscore.DEInternal>
0.9242

> <Gold.Chemscore.Rot>
3.0413

> <Gold.Chemscore.Internal.Correction>
   9.000000E+99

> <Gold.Chemscore.Hbonds>
donor molecule, donor type, donor heavy atom, donor atom, acceptor molecule, acceptor atom, score
      L1  H    21    46       P1  7957  0.55
      P1  H  7954  7966       L1    11  0.42

> <Gold.Chemscore.Hbond.Weighted>
-4.9244

> <Gold.Chemscore.Metal.Weighted>
-0.0000

> <Gold.Chemscore.Lipo.Weighted>
-9.2809

> <Gold.Chemscore.Internal_Hbond.Weighted>
0.0000

> <Gold.Chemscore.DEClash.Weighted>
3.9012

> <Gold.Chemscore.DEInternal.Weighted>
0.9242

> <Gold.Chemscore.Rot.Weighted>
7.7856

> <Gold.Chemscore.Internal.Correction.Weighted>
   9.000000E+99

> <Gold.Protein.RotatedTorsions>
[ 6907 6896 6895 6894 ] final  115.25 input  -60.11 | X-H torsion
[ 7974 7965 7964 7962 ] final  -99.51 input  175.53 | X-H torsion
[ 8008 7997 7996 7995 ] final  -64.84 input   59.86 | X-H torsion
[ 10167 10162 10161 10158 ] final   17.74 input  -65.29 | X-H torsion
[ 10718 10713 10712 10709 ] final  -77.88 input   66.30 | X-H torsion
[ 10763 10752 10751 10750 ] final -177.46 input  -60.55 | X-H torsion
[ 11005 11000 10999 10996 ] final  -59.40 input  -57.11 | X-H torsion

> <Gold.Protein.ActiveResidues>
 VAL166  LYS551  ARG553  GLY616  TRP617  ASP618  TYR619  PRO620  LYS621  CYS622 
 ASP623  PHE694  ASN695  SER759  ASP760  ASP761  ALA762  ILE779  LEU786  VAL792 
 PHE793  MET794  SER795  GLU796  ALA797  LYS798  CYS799  TRP800  GLU811  SER814 

> <Gold.Protein.RotatedAtoms>
  152.4753  133.8124  159.7010 H   0  0  0  0  0  0  0  0  0  0  0  0  # atno 6907 bound_to 6896
  150.8767  133.7420  159.2951 H   0  0  0  0  0  0  0  0  0  0  0  0  # atno 6908 bound_to 6896
  151.4937  135.1062  159.9862 H   0  0  0  0  0  0  0  0  0  0  0  0  # atno 6909 bound_to 6896
  145.3066  140.9390  143.2793 H   0  0  0  0  0  0  0  0  0  0  0  0  # atno 7974 bound_to 7965
  154.4636  140.0945  156.6959 H   0  0  0  0  0  0  0  0  0  0  0  0  # atno 8008 bound_to 7997
  155.4924  140.3471  155.4339 H   0  0  0  0  0  0  0  0  0  0  0  0  # atno 8009 bound_to 7997
  156.0915  140.1398  156.9575 H   0  0  0  0  0  0  0  0  0  0  0  0  # atno 8010 bound_to 7997
  140.5704  143.9171  150.6709 H   0  0  0  0  0  0  0  0  0  0  0  0  # atno 10167 bound_to 10162
  156.0132  130.4503  150.3412 H   0  0  0  0  0  0  0  0  0  0  0  0  # atno 10718 bound_to 10713
  154.5598  135.2819  155.0930 H   0  0  0  0  0  0  0  0  0  0  0  0  # atno 10763 bound_to 10752
  154.2343  135.6368  153.5189 H   0  0  0  0  0  0  0  0  0  0  0  0  # atno 10764 bound_to 10752
  153.0026  135.5545  154.6189 H   0  0  0  0  0  0  0  0  0  0  0  0  # atno 10765 bound_to 10752
  141.1246  133.6616  156.5065 H   0  0  0  0  0  0  0  0  0  0  0  0  # atno 11005 bound_to 11000
  144.9050  139.4601  143.6614 LP  0  0  0  0  0  0  0  0  0  0  0  0  # atno 17320 bound_to 7965
  146.3133  139.7826  142.9003 LP  0  0  0  0  0  0  0  0  0  0  0  0  # atno 17321 bound_to 7965
  140.2645  143.3500  152.1293 LP  0  0  0  0  0  0  0  0  0  0  0  0  # atno 17342 bound_to 10162
  139.5115  144.6901  151.5783 LP  0  0  0  0  0  0  0  0  0  0  0  0  # atno 17343 bound_to 10162
  157.1508  131.0320  151.2886 LP  0  0  0  0  0  0  0  0  0  0  0  0  # atno 17370 bound_to 10713
  157.4394  130.7535  149.7056 LP  0  0  0  0  0  0  0  0  0  0  0  0  # atno 17371 bound_to 10713
  140.4403  134.7021  157.4988 LP  0  0  0  0  0  0  0  0  0  0  0  0  # atno 17394 bound_to 11000
  140.0233  134.6514  155.9208 LP  0  0  0  0  0  0  0  0  0  0  0  0  # atno 17395 bound_to 11000

$$$$
