AV-unprocessed.smi:3112|AV-procd|sdf|11836|dock7
  -GOLD-   2272017213D 1   1.00000     0.00000
 Structure written by MMmdl.
 37 37  0  0  0  0  0  0  0  0  2 V2000
  145.3551  135.8604  151.5659 C   0  0  0  0  0  0  0  0  0  0  0  0
  146.0198  136.8132  152.5690 C   0  0  0  0  0  0  0  0  0  0  0  0
  146.0166  138.2836  152.1128 C   0  0  2  0  0  0  0  0  0  0  0  0
  146.5713  138.3608  150.8139 O   0  0  0  0  0  0  0  0  0  0  0  0
  146.8508  139.1763  153.0461 C   0  0  0  0  0  0  0  0  0  0  0  0
  148.2813  138.8047  152.9973 N   0  3  0  0  0  0  0  0  0  0  0  0
  149.0709  139.1162  154.2112 C   0  0  2  0  0  0  0  0  0  0  0  0
  148.4081  138.4247  155.4166 C   0  0  0  0  0  0  0  0  0  0  0  0
  149.2711  140.6499  154.3872 C   0  0  2  0  0  0  0  0  0  0  0  0
  150.3176  140.9963  155.4647 C   0  0  0  0  0  0  0  0  0  0  0  0
  148.0144  141.3655  154.5959 N   0  0  0  0  0  0  0  0  0  0  0  0
  147.4191  142.2877  153.7583 C   0  0  0  0  0  0  0  0  0  0  0  0
  146.2446  142.6731  154.3377 C   0  0  0  0  0  0  0  0  0  0  0  0
  146.1989  141.9181  155.5419 C   0  0  0  0  0  0  0  0  0  0  0  0
  147.2528  141.1324  155.6896 N   0  0  0  0  0  0  0  0  0  0  0  0
  145.3560  134.8386  151.9455 H   0  0  0  0  0  0  0  0  0  0  0  0
  145.8792  135.8567  150.6100 H   0  0  0  0  0  0  0  0  0  0  0  0
  144.3187  136.1432  151.3800 H   0  0  0  0  0  0  0  0  0  0  0  0
  145.4898  136.7319  153.5187 H   0  0  0  0  0  0  0  0  0  0  0  0
  147.0415  136.4842  152.7645 H   0  0  0  0  0  0  0  0  0  0  0  0
  144.9892  138.6490  152.0794 H   0  0  0  0  0  0  0  0  0  0  0  0
  145.8647  138.3741  150.1855 H   0  0  0  0  0  0  0  0  0  0  0  0
  146.7576  140.2192  152.7406 H   0  0  0  0  0  0  0  0  0  0  0  0
  146.4655  139.1075  154.0632 H   0  0  0  0  0  0  0  0  0  0  0  0
  148.3567  137.8150  152.8084 H   0  0  0  0  0  0  0  0  0  0  0  0
  150.0529  138.6576  154.0850 H   0  0  0  0  0  0  0  0  0  0  0  0
  148.9661  138.5928  156.3373 H   0  0  0  0  0  0  0  0  0  0  0  0
  148.3622  137.3457  155.2650 H   0  0  0  0  0  0  0  0  0  0  0  0
  147.3871  138.7715  155.5749 H   0  0  0  0  0  0  0  0  0  0  0  0
  149.6885  141.0427  153.4605 H   0  0  0  0  0  0  0  0  0  0  0  0
  151.2739  140.5207  155.2465 H   0  0  0  0  0  0  0  0  0  0  0  0
  150.0115  140.6775  156.4610 H   0  0  0  0  0  0  0  0  0  0  0  0
  150.4912  142.0722  155.5055 H   0  0  0  0  0  0  0  0  0  0  0  0
  147.8760  142.5913  152.8276 H   0  0  0  0  0  0  0  0  0  0  0  0
  145.5267  143.3852  153.9583 H   0  0  0  0  0  0  0  0  0  0  0  0
  145.4349  141.9142  156.3055 H   0  0  0  0  0  0  0  0  0  0  0  0
  148.6938  139.3064  152.2240 H   0  0  0  0  0  0  0  0  0  0  0  0
  1  2  1  0  0  0  0
  1 16  1  0  0  0  0
  1 17  1  0  0  0  0
  1 18  1  0  0  0  0
  2  3  1  0  0  0  0
  2 19  1  0  0  0  0
  2 20  1  0  0  0  0
  3  4  1  0  0  0  0
  3  5  1  0  0  0  0
  3 21  1  0  0  0  0
  4 22  1  0  0  0  0
  5  6  1  0  0  0  0
  5 23  1  0  0  0  0
  5 24  1  0  0  0  0
  6  7  1  0  0  0  0
  6 25  1  0  0  0  0
  6 37  1  0  0  0  0
  7  8  1  0  0  0  0
  7  9  1  0  0  0  0
  7 26  1  0  0  0  0
  8 27  1  0  0  0  0
  8 28  1  0  0  0  0
  8 29  1  0  0  0  0
  9 10  1  0  0  0  0
  9 11  1  0  0  0  0
  9 30  1  0  0  0  0
 10 31  1  0  0  0  0
 10 32  1  0  0  0  0
 10 33  1  0  0  0  0
 11 15  1  0  0  0  0
 11 12  1  0  0  0  0
 12 13  2  0  0  0  0
 12 34  1  0  0  0  0
 13 14  1  0  0  0  0
 13 35  1  0  0  0  0
 14 15  2  0  0  0  0
 14 36  1  0  0  0  0
M  CHG  1   6   1
M  END
> <s_m_source_file>
AV-unprocessed.smi

> <i_m_source_file_index>
3112

> <i_lp_mmshare_version>
43012

> <i_f3d_flags>
0

> <s_epik_input>
W0NIM11bQ0gyXVtDQEhdKFtPSF0pW0NIMl1bTkhdW0NASF0oW0NIM10pW0NASF0oW0NIM10pbjFbY0hdW2NIXVtjSF1uMQ==

> <s_epik_cmdline>
J2VwaWtfcHl0aG9uJywgJy1waCcsICc3LjAnLCAnLXRuJywgJzgnLCAnLW1hJywgJzIwMCcsICctbWV0YWxfYmluZGluZycsICctaW1hZScsICc8aW5maWxlLm1hZT4nLCAnLW9tYWUnLCAnPG91dGZpbGUubWFlPic=

> <r_lp_tautomer_probability>
1

> <r_epik_Ionization_Penalty>
0.0154842

> <r_epik_Ionization_Penalty_Charging>
0.0154724

> <r_epik_Ionization_Penalty_Neutral>
1.17979e-05

> <r_epik_State_Penalty>
0.0121607

> <r_epik_Charging_Adjusted_Penalty>
0.0276331

> <i_epik_Tot_Q>
1

> <i_epik_Tot_abs_Q>
1

> <r_epik_Metal_State_Penalty>
0.0121863

> <b_epik_Metal_Only>
0

> <s_lp_Force_Field>
OPLS_2005

> <r_lp_Energy>
12.3071

> <b_lp_Chiralities_Consistent>
1

> <s_lp_Variant>
AV-unprocessed.smi:3112-1

> <Gold.Version>
5.8.1

> <Gold.Id.Protein>
6NUR|6NUR_protein|mol2

> <Gold.PLP.Fitness>
45.0182

> <Gold.PLP.PLP>
-30.5058

> <Gold.PLP.part.hbond>
-4.0532

> <Gold.PLP.part.metal>
0.0000

> <Gold.PLP.part.buried>
-1.9461

> <Gold.PLP.part.nonpolar>
-24.8293

> <Gold.PLP.part.repulsive>
0.1271

> <Gold.PLP.ligand.clash>
0.0000

> <Gold.PLP.ligand.torsion>
0.3147

> <Gold.PLP.Chemscore.Hbond>
4.9840

> <Gold.PLP.Chemscore.CHOScore>
0.0000

> <Gold.PLP.Chemscore.Metal>
0.0000

> <Gold.Chemscore.Hbonds>
donor molecule, donor type, donor heavy atom, donor atom, acceptor molecule, acceptor atom, score
      L1  H     4    22       P1 10171  0.99
      L1  H     6    25       P1  7948  2.00
      L1  H     6    37       P1  7957  1.00
      P1  H  7954  7966       L1     4  0.99

> <Gold.PLP.Chemscore.Internal.Correction>
0.1899

> <Gold.Rescore>
     Score         DG    S(hbond)    S(metal)    S(lipo)     H(rot)  DE(clash)    DE(int)     intcor
     15.89     -18.94       3.67        0.00      63.05       2.41       0.35       2.70       ----

> <Gold.Chemscore.Fitness>
15.8897

> <Gold.Chemscore.DG>
-18.9391

> <Gold.Chemscore.ZeroCoef>
-5.4800

> <Gold.Chemscore.Hbond>
3.6672

> <Gold.Chemscore.Metal>
0.0000

> <Gold.Chemscore.Lipo>
63.0542

> <Gold.Chemscore.Internal_Hbond>
0.0000

> <Gold.Chemscore.DEClash>
0.3516

> <Gold.Chemscore.DEInternal>
2.6979

> <Gold.Chemscore.Rot>
2.4089

> <Gold.Chemscore.Internal.Correction>
   9.000000E+99

> <Gold.Chemscore.Hbonds>
donor molecule, donor type, donor heavy atom, donor atom, acceptor molecule, acceptor atom, score
      L1  H     4    22       P1 10171  0.89
      L1  H     6    25       P1  7948  0.98
      L1  H     6    37       P1  7957  0.97
      P1  H  7954  7966       L1     4  0.57

> <Gold.Chemscore.Hbond.Weighted>
-12.2485

> <Gold.Chemscore.Metal.Weighted>
-0.0000

> <Gold.Chemscore.Lipo.Weighted>
-7.3773

> <Gold.Chemscore.Internal_Hbond.Weighted>
0.0000

> <Gold.Chemscore.DEClash.Weighted>
0.3516

> <Gold.Chemscore.DEInternal.Weighted>
2.6979

> <Gold.Chemscore.Rot.Weighted>
6.1667

> <Gold.Chemscore.Internal.Correction.Weighted>
   9.000000E+99

> <Gold.Protein.RotatedTorsions>
[ 6907 6896 6895 6894 ] final   55.21 input  -60.11 | X-H torsion
[ 7974 7965 7964 7962 ] final   84.10 input  175.53 | X-H torsion
[ 8008 7997 7996 7995 ] final  153.40 input   59.86 | X-H torsion
[ 10167 10162 10161 10158 ] final  -85.55 input  -65.29 | X-H torsion
[ 10718 10713 10712 10709 ] final   45.94 input   66.30 | X-H torsion
[ 10763 10752 10751 10750 ] final   36.23 input  -60.55 | X-H torsion
[ 11005 11000 10999 10996 ] final -179.02 input  -57.11 | X-H torsion

> <Gold.Protein.ActiveResidues>
 VAL166  LYS551  ARG553  GLY616  TRP617  ASP618  TYR619  PRO620  LYS621  CYS622 
 ASP623  PHE694  ASN695  SER759  ASP760  ASP761  ALA762  ILE779  LEU786  VAL792 
 PHE793  MET794  SER795  GLU796  ALA797  LYS798  CYS799  TRP800  GLU811  SER814 

> <Gold.Protein.RotatedAtoms>
  152.3516  134.6997  160.0234 H   0  0  0  0  0  0  0  0  0  0  0  0  # atno 6907 bound_to 6896
  151.7349  133.3314  159.3358 H   0  0  0  0  0  0  0  0  0  0  0  0  # atno 6908 bound_to 6896
  150.7544  134.6263  159.6207 H   0  0  0  0  0  0  0  0  0  0  0  0  # atno 6909 bound_to 6896
  145.6031  139.2356  143.2234 H   0  0  0  0  0  0  0  0  0  0  0  0  # atno 7974 bound_to 7965
  156.2583  140.1994  156.6485 H   0  0  0  0  0  0  0  0  0  0  0  0  # atno 8008 bound_to 7997
  154.6555  140.0567  157.0029 H   0  0  0  0  0  0  0  0  0  0  0  0  # atno 8009 bound_to 7997
  155.1354  140.3237  155.4467 H   0  0  0  0  0  0  0  0  0  0  0  0  # atno 8010 bound_to 7997
  140.4026  143.2656  151.9122 H   0  0  0  0  0  0  0  0  0  0  0  0  # atno 10167 bound_to 10162
  157.4428  130.8091  149.7711 H   0  0  0  0  0  0  0  0  0  0  0  0  # atno 10718 bound_to 10713
  153.0085  135.6311  154.1953 H   0  0  0  0  0  0  0  0  0  0  0  0  # atno 10763 bound_to 10752
  154.1696  135.2819  155.3086 H   0  0  0  0  0  0  0  0  0  0  0  0  # atno 10764 bound_to 10752
  154.5919  135.5615  153.7347 H   0  0  0  0  0  0  0  0  0  0  0  0  # atno 10765 bound_to 10752
  140.4233  134.6585  157.4675 H   0  0  0  0  0  0  0  0  0  0  0  0  # atno 11005 bound_to 11000
  146.1561  140.6856  142.9299 LP  0  0  0  0  0  0  0  0  0  0  0  0  # atno 17320 bound_to 7965
  144.7301  140.4646  143.6944 LP  0  0  0  0  0  0  0  0  0  0  0  0  # atno 17321 bound_to 7965
  139.4784  144.5618  151.8228 LP  0  0  0  0  0  0  0  0  0  0  0  0  # atno 17342 bound_to 10162
  140.4723  144.1569  150.5920 LP  0  0  0  0  0  0  0  0  0  0  0  0  # atno 17343 bound_to 10162
  155.9955  130.3911  150.2814 LP  0  0  0  0  0  0  0  0  0  0  0  0  # atno 17370 bound_to 10713
  157.0980  131.0188  151.3096 LP  0  0  0  0  0  0  0  0  0  0  0  0  # atno 17371 bound_to 10713
  140.0185  134.6583  155.9275 LP  0  0  0  0  0  0  0  0  0  0  0  0  # atno 17394 bound_to 11000
  141.1775  133.6542  156.4887 LP  0  0  0  0  0  0  0  0  0  0  0  0  # atno 17395 bound_to 11000

$$$$
