AV-unprocessed.smi:767|AV-procd|sdf|3659|dock9
  -GOLD-   22720 1 73D 1   1.00000     0.00000
 Structure written by MMmdl.
 47 49  0  0  0  0  0  0  0  0  1 V2000
  143.9023  132.6535  149.1421 C   0  0  0  0  0  0  0  0  0  0  0  0
  144.9304  132.8426  150.2378 C   0  0  0  0  0  0  0  0  0  0  0  0
  145.4163  131.7388  150.9695 C   0  0  0  0  0  0  0  0  0  0  0  0
  146.3682  131.9718  151.9801 C   0  0  0  0  0  0  0  0  0  0  0  0
  146.8000  133.2929  152.2173 C   0  0  0  0  0  0  0  0  0  0  0  0
  147.8395  133.5937  153.2833 C   0  0  0  0  0  0  0  0  0  0  0  0
  147.3948  134.6756  154.2880 C   0  0  0  0  0  0  0  0  0  0  0  0
  148.3610  135.7621  154.4155 N   0  0  0  0  0  0  0  0  0  0  0  0
  148.6512  136.4069  155.5533 C   0  0  0  0  0  0  0  0  0  0  0  0
  148.1101  136.1795  156.6355 O   0  0  0  0  0  0  0  0  0  0  0  0
  149.6177  137.3150  155.3710 N   0  0  0  0  0  0  0  0  0  0  0  0
  150.1888  138.1551  156.4245 C   0  0  2  0  0  0  0  0  0  0  0  0
  149.5463  139.5598  156.4817 C   0  0  2  0  0  0  0  0  0  0  0  0
  148.2964  139.9213  155.7166 C   0  0  0  0  0  0  0  0  0  0  0  0
  148.8507  140.5859  154.4529 C   0  0  0  0  0  0  0  0  0  0  0  0
  150.1993  140.1312  154.3596 O   0  0  0  0  0  0  0  0  0  0  0  0
  150.7334  140.0683  155.6803 C   0  0  2  0  0  0  0  0  0  0  0  0
  151.5444  138.8034  156.0306 C   0  0  0  0  0  0  0  0  0  0  0  0
  152.5137  138.9864  157.2020 C   0  0  0  0  0  0  0  0  0  0  0  0
  152.3633  138.1864  154.8889 C   0  0  0  0  0  0  0  0  0  0  0  0
  146.2486  134.3264  151.4316 C   0  0  0  0  0  0  0  0  0  0  0  0
  145.3334  134.1131  150.4616 N   0  0  0  0  0  0  0  0  0  0  0  0
  143.8434  131.6089  148.8353 H   0  0  0  0  0  0  0  0  0  0  0  0
  144.1587  133.2489  148.2651 H   0  0  0  0  0  0  0  0  0  0  0  0
  142.9177  132.9631  149.4928 H   0  0  0  0  0  0  0  0  0  0  0  0
  145.0710  130.7364  150.7628 H   0  0  0  0  0  0  0  0  0  0  0  0
  146.7640  131.1490  152.5568 H   0  0  0  0  0  0  0  0  0  0  0  0
  148.0763  132.6720  153.8155 H   0  0  0  0  0  0  0  0  0  0  0  0
  148.7646  133.9049  152.7965 H   0  0  0  0  0  0  0  0  0  0  0  0
  146.4573  135.1182  153.9508 H   0  0  0  0  0  0  0  0  0  0  0  0
  147.1922  134.2314  155.2637 H   0  0  0  0  0  0  0  0  0  0  0  0
  148.8670  136.0200  153.5810 H   0  0  0  0  0  0  0  0  0  0  0  0
  150.0076  137.4201  154.4458 H   0  0  0  0  0  0  0  0  0  0  0  0
  150.2103  137.6750  157.4048 H   0  0  0  0  0  0  0  0  0  0  0  0
  149.5652  139.9524  157.4996 H   0  0  0  0  0  0  0  0  0  0  0  0
  147.6942  139.0461  155.4741 H   0  0  0  0  0  0  0  0  0  0  0  0
  147.6582  140.6091  156.2722 H   0  0  0  0  0  0  0  0  0  0  0  0
  148.2809  140.3303  153.5594 H   0  0  0  0  0  0  0  0  0  0  0  0
  148.8495  141.6715  154.5603 H   0  0  0  0  0  0  0  0  0  0  0  0
  151.1394  141.0169  156.0347 H   0  0  0  0  0  0  0  0  0  0  0  0
  153.3430  139.6435  156.9382 H   0  0  0  0  0  0  0  0  0  0  0  0
  152.9363  138.0338  157.5231 H   0  0  0  0  0  0  0  0  0  0  0  0
  152.0196  139.4266  158.0688 H   0  0  0  0  0  0  0  0  0  0  0  0
  153.2239  138.8054  154.6336 H   0  0  0  0  0  0  0  0  0  0  0  0
  151.7789  138.0733  153.9758 H   0  0  0  0  0  0  0  0  0  0  0  0
  152.7379  137.1987  155.1581 H   0  0  0  0  0  0  0  0  0  0  0  0
  146.5535  135.3517  151.5813 H   0  0  0  0  0  0  0  0  0  0  0  0
  1  2  1  0  0  0  0
  1 23  1  0  0  0  0
  1 24  1  0  0  0  0
  1 25  1  0  0  0  0
  2 22  1  0  0  0  0
  2  3  2  0  0  0  0
  3  4  1  0  0  0  0
  3 26  1  0  0  0  0
  4  5  2  0  0  0  0
  4 27  1  0  0  0  0
  5  6  1  0  0  0  0
  5 21  1  0  0  0  0
  6  7  1  0  0  0  0
  6 28  1  0  0  0  0
  6 29  1  0  0  0  0
  7  8  1  0  0  0  0
  7 30  1  0  0  0  0
  7 31  1  0  0  0  0
  8  9  1  0  0  0  0
  8 32  1  0  0  0  0
  9 10  2  0  0  0  0
  9 11  1  0  0  0  0
 11 12  1  0  0  0  0
 11 33  1  0  0  0  0
 12 18  1  0  0  0  0
 12 13  1  0  0  0  0
 12 34  1  0  0  0  0
 13 17  1  0  0  0  0
 13 14  1  0  0  0  0
 13 35  1  0  0  0  0
 14 15  1  0  0  0  0
 14 36  1  0  0  0  0
 14 37  1  0  0  0  0
 15 16  1  0  0  0  0
 15 38  1  0  0  0  0
 15 39  1  0  0  0  0
 16 17  1  0  0  0  0
 17 18  1  0  0  0  0
 17 40  1  0  0  0  0
 18 19  1  0  0  0  0
 18 20  1  0  0  0  0
 19 41  1  0  0  0  0
 19 42  1  0  0  0  0
 19 43  1  0  0  0  0
 20 44  1  0  0  0  0
 20 45  1  0  0  0  0
 20 46  1  0  0  0  0
 21 22  2  0  0  0  0
 21 47  1  0  0  0  0
M  END
> <s_m_source_file>
AV-unprocessed.smi

> <i_m_source_file_index>
767

> <i_lp_mmshare_version>
43012

> <i_f3d_flags>
0

> <s_epik_input>
W0NIM11jMVtjSF1bY0hdYyhbY0hdbjEpW0NIMl1bQ0gyXVtOSF1DKD1PKVtOSF1bQ0BIXTJDKFtDSDNdKShbQ0gzXSlbQ0BIXShbQ0BASF0yMylPW0NIMl1bQ0gyXTM=

> <s_epik_cmdline>
J2VwaWtfcHl0aG9uJywgJy1waCcsICc3LjAnLCAnLXRuJywgJzgnLCAnLW1hJywgJzIwMCcsICctbWV0YWxfYmluZGluZycsICctaW1hZScsICc8aW5maWxlLm1hZT4nLCAnLW9tYWUnLCAnPG91dGZpbGUubWFlPic=

> <r_epik_Ionization_Penalty>
0.0567523

> <r_epik_Ionization_Penalty_Charging>
0

> <r_epik_Ionization_Penalty_Neutral>
0.0567523

> <r_epik_State_Penalty>
0.0489186

> <r_epik_Charging_Adjusted_Penalty>
0.0489186

> <i_epik_Tot_Q>
0

> <i_epik_Tot_abs_Q>
0

> <r_epik_Metal_State_Penalty>
0.044622

> <b_epik_Metal_Only>
0

> <s_lp_Force_Field>
OPLS_2005

> <r_lp_Energy>
34.1608

> <b_lp_Chiralities_Consistent>
1

> <s_lp_Variant>
AV-unprocessed.smi:767-3

> <Gold.Version>
5.8.1

> <Gold.Id.Protein>
6NUR|6NUR_protein|mol2

> <Gold.PLP.Fitness>
39.3140

> <Gold.PLP.PLP>
-31.9890

> <Gold.PLP.part.hbond>
-2.0000

> <Gold.PLP.part.metal>
0.0000

> <Gold.PLP.part.buried>
-3.7788

> <Gold.PLP.part.nonpolar>
-27.4454

> <Gold.PLP.part.repulsive>
0.8108

> <Gold.PLP.ligand.clash>
0.0000

> <Gold.PLP.ligand.torsion>
0.8496

> <Gold.PLP.Chemscore.Hbond>
2.0000

> <Gold.PLP.Chemscore.CHOScore>
0.9427

> <Gold.PLP.Chemscore.Metal>
0.0000

> <Gold.Chemscore.Hbonds>
donor molecule, donor type, donor heavy atom, donor atom, acceptor molecule, acceptor atom, score
      L1  H     8    32       P1  7948  1.00
      P1  H  7989  7998       L1    16  1.00
      L1  C    21    47       P1  7948  0.92

> <Gold.PLP.Chemscore.Internal.Correction>
0.1961

> <Gold.Rescore>
     Score         DG    S(hbond)    S(metal)    S(lipo)     H(rot)  DE(clash)    DE(int)     intcor
     17.57     -18.42       1.69        0.00      93.95       1.45       0.04       0.81       ----

> <Gold.Chemscore.Fitness>
17.5714

> <Gold.Chemscore.DG>
-18.4180

> <Gold.Chemscore.ZeroCoef>
-5.4800

> <Gold.Chemscore.Hbond>
1.6937

> <Gold.Chemscore.Metal>
0.0000

> <Gold.Chemscore.Lipo>
93.9519

> <Gold.Chemscore.Internal_Hbond>
0.0000

> <Gold.Chemscore.DEClash>
0.0373

> <Gold.Chemscore.DEInternal>
0.8093

> <Gold.Chemscore.Rot>
1.4497

> <Gold.Chemscore.Internal.Correction>
   9.000000E+99

> <Gold.Chemscore.Hbonds>
donor molecule, donor type, donor heavy atom, donor atom, acceptor molecule, acceptor atom, score
      L1  H     8    32       P1  7948  0.95
      P1  H  7989  7998       L1    16  0.25

> <Gold.Chemscore.Hbond.Weighted>
-5.6568

> <Gold.Chemscore.Metal.Weighted>
-0.0000

> <Gold.Chemscore.Lipo.Weighted>
-10.9924

> <Gold.Chemscore.Internal_Hbond.Weighted>
0.0000

> <Gold.Chemscore.DEClash.Weighted>
0.0373

> <Gold.Chemscore.DEInternal.Weighted>
0.8093

> <Gold.Chemscore.Rot.Weighted>
3.7112

> <Gold.Chemscore.Internal.Correction.Weighted>
   9.000000E+99

> <Gold.Protein.RotatedTorsions>
[ 6907 6896 6895 6894 ] final  119.74 input  -60.11 | X-H torsion
[ 7974 7965 7964 7962 ] final   85.71 input  175.53 | X-H torsion
[ 8008 7997 7996 7995 ] final    6.82 input   59.86 | X-H torsion
[ 10167 10162 10161 10158 ] final  121.64 input  -65.29 | X-H torsion
[ 10718 10713 10712 10709 ] final   35.01 input   66.30 | X-H torsion
[ 10763 10752 10751 10750 ] final   30.26 input  -60.55 | X-H torsion
[ 11005 11000 10999 10996 ] final -142.08 input  -57.11 | X-H torsion

> <Gold.Protein.ActiveResidues>
 VAL166  LYS551  ARG553  GLY616  TRP617  ASP618  TYR619  PRO620  LYS621  CYS622 
 ASP623  PHE694  ASN695  SER759  ASP760  ASP761  ALA762  ILE779  LEU786  VAL792 
 PHE793  MET794  SER795  GLU796  ALA797  LYS798  CYS799  TRP800  GLU811  SER814 

> <Gold.Protein.RotatedAtoms>
  152.4450  133.7519  159.6698 H   0  0  0  0  0  0  0  0  0  0  0  0  # atno 6907 bound_to 6896
  150.8348  133.8021  159.3090 H   0  0  0  0  0  0  0  0  0  0  0  0  # atno 6908 bound_to 6896
  151.5664  135.1066  160.0036 H   0  0  0  0  0  0  0  0  0  0  0  0  # atno 6909 bound_to 6896
  145.5819  139.2326  143.2348 H   0  0  0  0  0  0  0  0  0  0  0  0  # atno 7974 bound_to 7965
  154.7459  140.2757  155.6334 H   0  0  0  0  0  0  0  0  0  0  0  0  # atno 8008 bound_to 7997
  156.2884  140.2688  156.2125 H   0  0  0  0  0  0  0  0  0  0  0  0  # atno 8009 bound_to 7997
  155.0199  140.0371  157.2423 H   0  0  0  0  0  0  0  0  0  0  0  0  # atno 8010 bound_to 7997
  139.5907  144.7024  151.3297 H   0  0  0  0  0  0  0  0  0  0  0  0  # atno 10167 bound_to 10162
  157.3174  130.7430  149.6763 H   0  0  0  0  0  0  0  0  0  0  0  0  # atno 10718 bound_to 10713
  153.0382  135.6468  154.1018 H   0  0  0  0  0  0  0  0  0  0  0  0  # atno 10763 bound_to 10752
  154.0729  135.2879  155.3306 H   0  0  0  0  0  0  0  0  0  0  0  0  # atno 10764 bound_to 10752
  154.6582  135.5401  153.8050 H   0  0  0  0  0  0  0  0  0  0  0  0  # atno 10765 bound_to 10752
  140.8260  134.2574  157.4878 H   0  0  0  0  0  0  0  0  0  0  0  0  # atno 11005 bound_to 11000
  146.1710  140.6645  142.9233 LP  0  0  0  0  0  0  0  0  0  0  0  0  # atno 17320 bound_to 7965
  144.7390  140.4890  143.6883 LP  0  0  0  0  0  0  0  0  0  0  0  0  # atno 17321 bound_to 7965
  140.7171  143.7238  150.7676 LP  0  0  0  0  0  0  0  0  0  0  0  0  # atno 17342 bound_to 10162
  140.0793  143.4985  152.2539 LP  0  0  0  0  0  0  0  0  0  0  0  0  # atno 17343 bound_to 10162
  155.9683  130.4233  150.4557 LP  0  0  0  0  0  0  0  0  0  0  0  0  # atno 17370 bound_to 10713
  157.2566  131.0558  151.2346 LP  0  0  0  0  0  0  0  0  0  0  0  0  # atno 17371 bound_to 10713
  139.8706  134.9561  156.4227 LP  0  0  0  0  0  0  0  0  0  0  0  0  # atno 17394 bound_to 11000
  140.9048  133.7753  155.9722 LP  0  0  0  0  0  0  0  0  0  0  0  0  # atno 17395 bound_to 11000

$$$$
