AV-unprocessed.smi:1701|AV-procd|sdf|6823|dock4
  -GOLD-   22720 8 03D 1   1.00000     0.00000
 Structure written by MMmdl.
 55 57  0  0  0  0  0  0  0  0  3 V2000
  152.7511  143.1749  160.5802 C   0  0  0  0  0  0  0  0  0  0  0  0
  153.1123  143.8643  159.2553 C   0  0  0  0  0  0  0  0  0  0  0  0
  151.9804  143.9534  158.3332 N   0  0  0  0  0  0  0  0  0  0  0  0
  150.9684  144.9729  158.6198 C   0  0  0  0  0  0  0  0  0  0  0  0
  150.2359  144.7371  159.9505 C   0  0  0  0  0  0  0  0  0  0  0  0
  151.5648  142.7211  157.7797 C   0  0  0  0  0  0  0  0  0  0  0  0
  152.2205  141.5033  158.0763 C   0  0  0  0  0  0  0  0  0  0  0  0
  151.7524  140.2991  157.5128 C   0  0  0  0  0  0  0  0  0  0  0  0
  150.6286  140.3106  156.6601 C   0  0  0  0  0  0  0  0  0  0  0  0
  150.2045  139.0648  156.1204 N   0  0  0  0  0  0  0  0  0  0  0  0
  150.5386  137.8127  156.4931 C   0  0  0  0  0  0  0  0  0  0  0  0
  151.2989  137.5324  157.4160 O   0  0  0  0  0  0  0  0  0  0  0  0
  149.9640  136.8471  155.7540 N   0  0  0  0  0  0  0  0  0  0  0  0
  150.1108  135.3973  155.8895 C   0  0  2  0  0  0  0  0  0  0  0  0
  151.5614  134.9306  156.1251 C   0  0  0  0  0  0  0  0  0  0  0  0
  151.7153  133.6366  155.3008 C   0  0  0  0  0  0  0  0  0  0  0  0
  150.3737  133.3631  154.7515 N   0  3  2  0  0  0  0  0  0  0  0  0
  150.3006  132.5392  153.5252 C   0  0  0  0  0  0  0  0  0  0  0  0
  148.8211  132.3053  153.1581 C   0  0  0  0  0  0  0  0  0  0  0  0
  148.0393  133.6313  153.0568 C   0  0  0  0  0  0  0  0  0  0  0  0
  148.2286  134.4872  154.3241 C   0  0  0  0  0  0  0  0  0  0  0  0
  149.7298  134.6763  154.5965 C   0  0  1  0  0  0  0  0  0  0  0  0
  150.0115  141.5557  156.3879 C   0  0  0  0  0  0  0  0  0  0  0  0
  150.4944  142.6852  156.9487 N   0  3  0  0  0  0  0  0  0  0  0  0
  153.6135  143.1482  161.2465 H   0  0  0  0  0  0  0  0  0  0  0  0
  152.4277  142.1458  160.4197 H   0  0  0  0  0  0  0  0  0  0  0  0
  151.9495  143.7014  161.0991 H   0  0  0  0  0  0  0  0  0  0  0  0
  153.4678  144.8740  159.4627 H   0  0  0  0  0  0  0  0  0  0  0  0
  153.9533  143.3526  158.7892 H   0  0  0  0  0  0  0  0  0  0  0  0
  151.4263  145.9628  158.6114 H   0  0  0  0  0  0  0  0  0  0  0  0
  150.2323  144.9771  157.8151 H   0  0  0  0  0  0  0  0  0  0  0  0
  149.4707  145.4979  160.1061 H   0  0  0  0  0  0  0  0  0  0  0  0
  150.9088  144.7729  160.8068 H   0  0  0  0  0  0  0  0  0  0  0  0
  149.7400  143.7660  159.9562 H   0  0  0  0  0  0  0  0  0  0  0  0
  153.0860  141.4798  158.7218 H   0  0  0  0  0  0  0  0  0  0  0  0
  152.2577  139.3714  157.7396 H   0  0  0  0  0  0  0  0  0  0  0  0
  149.5882  139.1315  155.3240 H   0  0  0  0  0  0  0  0  0  0  0  0
  149.3457  137.1587  155.0184 H   0  0  0  0  0  0  0  0  0  0  0  0
  149.4744  135.0262  156.6955 H   0  0  0  0  0  0  0  0  0  0  0  0
  152.2809  135.6747  155.7803 H   0  0  0  0  0  0  0  0  0  0  0  0
  151.7504  134.7596  157.1855 H   0  0  0  0  0  0  0  0  0  0  0  0
  152.4273  133.7941  154.4891 H   0  0  0  0  0  0  0  0  0  0  0  0
  152.0669  132.7977  155.9019 H   0  0  0  0  0  0  0  0  0  0  0  0
  150.8227  133.0396  152.7083 H   0  0  0  0  0  0  0  0  0  0  0  0
  150.8022  131.5856  153.6936 H   0  0  0  0  0  0  0  0  0  0  0  0
  148.7514  131.7568  152.2184 H   0  0  0  0  0  0  0  0  0  0  0  0
  148.3575  131.6735  153.9170 H   0  0  0  0  0  0  0  0  0  0  0  0
  148.3863  134.1900  152.1867 H   0  0  0  0  0  0  0  0  0  0  0  0
  146.9800  133.4312  152.8927 H   0  0  0  0  0  0  0  0  0  0  0  0
  147.7412  135.4548  154.1992 H   0  0  0  0  0  0  0  0  0  0  0  0
  147.7490  134.0008  155.1746 H   0  0  0  0  0  0  0  0  0  0  0  0
  150.1907  135.1899  153.7491 H   0  0  0  0  0  0  0  0  0  0  0  0
  149.1574  141.7075  155.7462 H   0  0  0  0  0  0  0  0  0  0  0  0
  149.8607  132.8756  155.4721 H   0  0  0  0  0  0  0  0  0  0  0  0
  150.0225  143.5642  156.7346 H   0  0  0  0  0  0  0  0  0  0  0  0
  1  2  1  0  0  0  0
  1 25  1  0  0  0  0
  1 26  1  0  0  0  0
  1 27  1  0  0  0  0
  2  3  1  0  0  0  0
  2 28  1  0  0  0  0
  2 29  1  0  0  0  0
  3  4  1  0  0  0  0
  3  6  1  0  0  0  0
  4  5  1  0  0  0  0
  4 30  1  0  0  0  0
  4 31  1  0  0  0  0
  5 32  1  0  0  0  0
  5 33  1  0  0  0  0
  5 34  1  0  0  0  0
  6 24  1  0  0  0  0
  6  7  2  0  0  0  0
  7  8  1  0  0  0  0
  7 35  1  0  0  0  0
  8  9  2  0  0  0  0
  8 36  1  0  0  0  0
  9 10  1  0  0  0  0
  9 23  1  0  0  0  0
 10 11  1  0  0  0  0
 10 37  1  0  0  0  0
 11 12  2  0  0  0  0
 11 13  1  0  0  0  0
 13 14  1  0  0  0  0
 13 38  1  0  0  0  0
 14 22  1  0  0  0  0
 14 15  1  0  0  0  0
 14 39  1  0  0  0  0
 15 16  1  0  0  0  0
 15 40  1  0  0  0  0
 15 41  1  0  0  0  0
 16 17  1  0  0  0  0
 16 42  1  0  0  0  0
 16 43  1  0  0  0  0
 17 22  1  0  0  0  0
 17 18  1  0  0  0  0
 17 54  1  0  0  0  0
 18 19  1  0  0  0  0
 18 44  1  0  0  0  0
 18 45  1  0  0  0  0
 19 20  1  0  0  0  0
 19 46  1  0  0  0  0
 19 47  1  0  0  0  0
 20 21  1  0  0  0  0
 20 48  1  0  0  0  0
 20 49  1  0  0  0  0
 21 22  1  0  0  0  0
 21 50  1  0  0  0  0
 21 51  1  0  0  0  0
 22 52  1  0  0  0  0
 23 24  2  0  0  0  0
 23 53  1  0  0  0  0
 24 55  1  0  0  0  0
M  CHG  1  17   1
M  CHG  1  24   1
M  END
> <s_m_source_file>
AV-unprocessed.smi

> <i_m_source_file_index>
1701

> <i_lp_mmshare_version>
43012

> <i_f3d_flags>
0

> <s_epik_input>
W0NIM11bQ0gyXU4oW0NIMl1bQ0gzXSljMVtjSF1bY0hdYyhbY0hdbjEpW05IXUMoPU8pW05IXVtDQEhdKFtDSDJdW0NIMl0yKVtDQEBIXShOMjMpW0NIMl1bQ0gyXVtDSDJdW0NIMl0z

> <s_epik_cmdline>
J2VwaWtfcHl0aG9uJywgJy1waCcsICc3LjAnLCAnLXRuJywgJzgnLCAnLW1hJywgJzIwMCcsICctbWV0YWxfYmluZGluZycsICctaW1hZScsICc8aW5maWxlLm1hZT4nLCAnLW9tYWUnLCAnPG91dGZpbGUubWFlPic=

> <r_lp_tautomer_probability>
0.999994

> <r_epik_Ionization_Penalty>
0.302862

> <r_epik_Ionization_Penalty_Charging>
0.302842

> <r_epik_Ionization_Penalty_Neutral>
1.95166e-05

> <r_epik_State_Penalty>
0.019791

> <r_epik_Charging_Adjusted_Penalty>
0.322633

> <i_epik_Tot_Q>
2

> <i_epik_Tot_abs_Q>
2

> <r_epik_Metal_State_Penalty>
0.0536763

> <b_epik_Metal_Only>
0

> <s_lp_Force_Field>
OPLS_2005

> <r_lp_Energy>
62.5639

> <b_lp_Chiralities_Consistent>
1

> <s_lp_Variant>
AV-unprocessed.smi:1701-3

> <Gold.Version>
5.8.1

> <Gold.Id.Protein>
6NUR|6NUR_protein|mol2

> <Gold.PLP.Fitness>
46.6842

> <Gold.PLP.PLP>
-41.4352

> <Gold.PLP.part.hbond>
-1.0000

> <Gold.PLP.part.metal>
0.0000

> <Gold.PLP.part.buried>
-5.7566

> <Gold.PLP.part.nonpolar>
-34.9972

> <Gold.PLP.part.repulsive>
0.0460

> <Gold.PLP.ligand.clash>
0.0000

> <Gold.PLP.ligand.torsion>
0.8285

> <Gold.PLP.Chemscore.Hbond>
2.0000

> <Gold.PLP.Chemscore.CHOScore>
0.0000

> <Gold.PLP.Chemscore.Metal>
0.0000

> <Gold.Chemscore.Hbonds>
donor molecule, donor type, donor heavy atom, donor atom, acceptor molecule, acceptor atom, score
      L1  H    24    55       P1  8028  2.00

> <Gold.PLP.Chemscore.Internal.Correction>
0.9060

> <Gold.Rescore>
     Score         DG    S(hbond)    S(metal)    S(lipo)     H(rot)  DE(clash)    DE(int)     intcor
     15.21     -17.20       0.97        0.00     101.04       1.30       0.00       1.99       ----

> <Gold.Chemscore.Fitness>
15.2146

> <Gold.Chemscore.DG>
-17.2036

> <Gold.Chemscore.ZeroCoef>
-5.4800

> <Gold.Chemscore.Hbond>
0.9685

> <Gold.Chemscore.Metal>
0.0000

> <Gold.Chemscore.Lipo>
101.0409

> <Gold.Chemscore.Internal_Hbond>
0.0000

> <Gold.Chemscore.DEClash>
0.0000

> <Gold.Chemscore.DEInternal>
1.9890

> <Gold.Chemscore.Rot>
1.3020

> <Gold.Chemscore.Internal.Correction>
   9.000000E+99

> <Gold.Chemscore.Hbonds>
donor molecule, donor type, donor heavy atom, donor atom, acceptor molecule, acceptor atom, score
      L1  H    24    55       P1  8028  0.97

> <Gold.Chemscore.Hbond.Weighted>
-3.2348

> <Gold.Chemscore.Metal.Weighted>
-0.0000

> <Gold.Chemscore.Lipo.Weighted>
-11.8218

> <Gold.Chemscore.Internal_Hbond.Weighted>
0.0000

> <Gold.Chemscore.DEClash.Weighted>
0.0000

> <Gold.Chemscore.DEInternal.Weighted>
1.9890

> <Gold.Chemscore.Rot.Weighted>
3.3330

> <Gold.Chemscore.Internal.Correction.Weighted>
   9.000000E+99

> <Gold.Protein.RotatedTorsions>
[ 6907 6896 6895 6894 ] final -164.99 input  -60.11 | X-H torsion
[ 7974 7965 7964 7962 ] final   19.44 input  175.53 | X-H torsion
[ 8008 7997 7996 7995 ] final -124.84 input   59.86 | X-H torsion
[ 10167 10162 10161 10158 ] final  151.01 input  -65.29 | X-H torsion
[ 10718 10713 10712 10709 ] final   96.65 input   66.30 | X-H torsion
[ 10763 10752 10751 10750 ] final   -2.41 input  -60.55 | X-H torsion
[ 11005 11000 10999 10996 ] final  -69.95 input  -57.11 | X-H torsion

> <Gold.Protein.ActiveResidues>
 VAL166  LYS551  ARG553  GLY616  TRP617  ASP618  TYR619  PRO620  LYS621  CYS622 
 ASP623  PHE694  ASN695  SER759  ASP760  ASP761  ALA762  ILE779  LEU786  VAL792 
 PHE793  MET794  SER795  GLU796  ALA797  LYS798  CYS799  TRP800  GLU811  SER814 

> <Gold.Protein.RotatedAtoms>
  151.4205  133.3699  159.2755 H   0  0  0  0  0  0  0  0  0  0  0  0  # atno 6907 bound_to 6896
  150.9297  134.8714  159.7554 H   0  0  0  0  0  0  0  0  0  0  0  0  # atno 6908 bound_to 6896
  152.5022  134.4149  159.9513 H   0  0  0  0  0  0  0  0  0  0  0  0  # atno 6909 bound_to 6896
  146.2149  139.8312  142.8659 H   0  0  0  0  0  0  0  0  0  0  0  0  # atno 7974 bound_to 7965
  155.2034  140.0416  157.2921 H   0  0  0  0  0  0  0  0  0  0  0  0  # atno 8008 bound_to 7997
  154.6059  140.2464  155.7702 H   0  0  0  0  0  0  0  0  0  0  0  0  # atno 8009 bound_to 7997
  156.2350  140.2925  156.0297 H   0  0  0  0  0  0  0  0  0  0  0  0  # atno 8010 bound_to 7997
  139.4844  144.5476  151.7457 H   0  0  0  0  0  0  0  0  0  0  0  0  # atno 10167 bound_to 10162
  157.6924  131.0585  150.4524 H   0  0  0  0  0  0  0  0  0  0  0  0  # atno 10718 bound_to 10713
  153.3577  135.6989  153.6737 H   0  0  0  0  0  0  0  0  0  0  0  0  # atno 10763 bound_to 10752
  153.5438  135.3567  155.2730 H   0  0  0  0  0  0  0  0  0  0  0  0  # atno 10764 bound_to 10752
  154.8663  135.4210  154.2827 H   0  0  0  0  0  0  0  0  0  0  0  0  # atno 10765 bound_to 10752
  141.1564  133.6777  156.6677 H   0  0  0  0  0  0  0  0  0  0  0  0  # atno 11005 bound_to 11000
  145.2995  141.0190  143.3617 LP  0  0  0  0  0  0  0  0  0  0  0  0  # atno 17320 bound_to 7965
  144.9017  139.4641  143.6629 LP  0  0  0  0  0  0  0  0  0  0  0  0  # atno 17321 bound_to 7965
  140.5025  144.1148  150.5974 LP  0  0  0  0  0  0  0  0  0  0  0  0  # atno 17342 bound_to 10162
  140.4046  143.2687  151.9907 LP  0  0  0  0  0  0  0  0  0  0  0  0  # atno 17343 bound_to 10162
  156.4874  130.4087  149.6426 LP  0  0  0  0  0  0  0  0  0  0  0  0  # atno 17370 bound_to 10713
  156.3449  130.7401  151.2352 LP  0  0  0  0  0  0  0  0  0  0  0  0  # atno 17371 bound_to 10713
  140.3198  134.8017  157.4243 LP  0  0  0  0  0  0  0  0  0  0  0  0  # atno 17394 bound_to 11000
  140.1106  134.5350  155.8269 LP  0  0  0  0  0  0  0  0  0  0  0  0  # atno 17395 bound_to 11000

$$$$
