AV-unprocessed.smi:3236|AV-procd|sdf|12361|dock6
  -GOLD-   2272018223D 1   1.00000     0.00000
 Structure written by MMmdl.
 41 42  0  0  0  0  0  0  0  0  2 V2000
  153.1375  142.5253  162.8198 C   0  0  0  0  0  0  0  0  0  0  0  0
  153.0042  143.2174  161.4566 C   0  0  0  0  0  0  0  0  0  0  0  0
  151.6807  144.0054  161.3445 C   0  0  0  0  0  0  0  0  0  0  0  0
  151.5022  144.6034  159.9368 C   0  0  0  0  0  0  0  0  0  0  0  0
  151.5788  143.5186  158.9506 N   0  0  0  0  0  0  0  0  0  0  0  0
  150.5023  143.0897  158.2477 C   0  0  0  0  0  0  0  0  0  0  0  0
  149.3967  143.6256  158.3449 O   0  0  0  0  0  0  0  0  0  0  0  0
  150.6618  141.8924  157.2981 C   0  0  0  0  0  0  0  0  0  0  0  0
  150.1068  142.1593  155.9553 N   0  3  0  0  0  0  0  0  0  0  0  0
  148.9254  141.3414  155.6156 C   0  0  0  0  0  0  0  0  0  0  0  0
  149.1503  140.5348  154.3246 C   0  0  0  0  0  0  0  0  0  0  0  0
  150.2087  139.5467  154.4496 N   0  0  0  0  0  0  0  0  0  0  0  0
  150.1356  138.1844  154.2458 C   0  0  0  0  0  0  0  0  0  0  0  0
  151.3839  137.6734  154.4579 C   0  0  0  0  0  0  0  0  0  0  0  0
  152.1681  138.8167  154.7772 C   0  0  0  0  0  0  0  0  0  0  0  0
  151.4629  139.9365  154.7668 N   0  0  0  0  0  0  0  0  0  0  0  0
  152.9109  142.9001  158.9350 C   0  0  0  0  0  0  0  0  0  0  0  0
  153.1519  142.2145  160.2918 C   0  0  0  0  0  0  0  0  0  0  0  0
  152.3498  141.7857  162.9673 H   0  0  0  0  0  0  0  0  0  0  0  0
  153.0729  143.2474  163.6343 H   0  0  0  0  0  0  0  0  0  0  0  0
  154.0960  142.0135  162.9083 H   0  0  0  0  0  0  0  0  0  0  0  0
  153.8204  143.9368  161.3733 H   0  0  0  0  0  0  0  0  0  0  0  0
  150.8386  143.3477  161.5657 H   0  0  0  0  0  0  0  0  0  0  0  0
  151.6551  144.8007  162.0902 H   0  0  0  0  0  0  0  0  0  0  0  0
  150.5644  145.1584  159.8862 H   0  0  0  0  0  0  0  0  0  0  0  0
  152.2882  145.3324  159.7357 H   0  0  0  0  0  0  0  0  0  0  0  0
  151.7207  141.6485  157.2018 H   0  0  0  0  0  0  0  0  0  0  0  0
  150.1505  141.0256  157.7192 H   0  0  0  0  0  0  0  0  0  0  0  0
  149.8447  143.1341  155.9109 H   0  0  0  0  0  0  0  0  0  0  0  0
  148.7188  140.6589  156.4406 H   0  0  0  0  0  0  0  0  0  0  0  0
  148.0513  141.9863  155.5141 H   0  0  0  0  0  0  0  0  0  0  0  0
  148.2298  140.0268  154.0334 H   0  0  0  0  0  0  0  0  0  0  0  0
  149.4096  141.2067  153.5055 H   0  0  0  0  0  0  0  0  0  0  0  0
  149.2122  137.6956  153.9716 H   0  0  0  0  0  0  0  0  0  0  0  0
  151.6920  136.6404  154.3892 H   0  0  0  0  0  0  0  0  0  0  0  0
  153.2212  138.8661  155.0125 H   0  0  0  0  0  0  0  0  0  0  0  0
  153.0556  142.1851  158.1269 H   0  0  0  0  0  0  0  0  0  0  0  0
  153.6628  143.6738  158.7718 H   0  0  0  0  0  0  0  0  0  0  0  0
  154.1461  141.7668  160.3093 H   0  0  0  0  0  0  0  0  0  0  0  0
  152.4415  141.3955  160.4153 H   0  0  0  0  0  0  0  0  0  0  0  0
  150.8296  141.9907  155.2703 H   0  0  0  0  0  0  0  0  0  0  0  0
  1  2  1  0  0  0  0
  1 19  1  0  0  0  0
  1 20  1  0  0  0  0
  1 21  1  0  0  0  0
  2 18  1  0  0  0  0
  2  3  1  0  0  0  0
  2 22  1  0  0  0  0
  3  4  1  0  0  0  0
  3 23  1  0  0  0  0
  3 24  1  0  0  0  0
  4  5  1  0  0  0  0
  4 25  1  0  0  0  0
  4 26  1  0  0  0  0
  5  6  1  0  0  0  0
  5 17  1  0  0  0  0
  6  7  2  0  0  0  0
  6  8  1  0  0  0  0
  8  9  1  0  0  0  0
  8 27  1  0  0  0  0
  8 28  1  0  0  0  0
  9 10  1  0  0  0  0
  9 29  1  0  0  0  0
  9 41  1  0  0  0  0
 10 11  1  0  0  0  0
 10 30  1  0  0  0  0
 10 31  1  0  0  0  0
 11 12  1  0  0  0  0
 11 32  1  0  0  0  0
 11 33  1  0  0  0  0
 12 16  1  0  0  0  0
 12 13  1  0  0  0  0
 13 14  2  0  0  0  0
 13 34  1  0  0  0  0
 14 15  1  0  0  0  0
 14 35  1  0  0  0  0
 15 16  2  0  0  0  0
 15 36  1  0  0  0  0
 17 18  1  0  0  0  0
 17 37  1  0  0  0  0
 17 38  1  0  0  0  0
 18 39  1  0  0  0  0
 18 40  1  0  0  0  0
M  CHG  1   9   1
M  END
> <s_m_source_file>
AV-unprocessed.smi

> <i_m_source_file_index>
3236

> <i_lp_mmshare_version>
43012

> <i_f3d_flags>
0

> <s_epik_input>
W0NIM11bQ0hdMVtDSDJdW0NIMl1OKFtDSDJdW0NIMl0xKUMoPU8pW0NIMl1bTkhdW0NIMl1bQ0gyXW4yW2NIXVtjSF1bY0hdbjI=

> <s_epik_cmdline>
J2VwaWtfcHl0aG9uJywgJy1waCcsICc3LjAnLCAnLXRuJywgJzgnLCAnLW1hJywgJzIwMCcsICctbWV0YWxfYmluZGluZycsICctaW1hZScsICc8aW5maWxlLm1hZT4nLCAnLW9tYWUnLCAnPG91dGZpbGUubWFlPic=

> <r_lp_tautomer_probability>
1

> <r_epik_Ionization_Penalty>
0.186057

> <r_epik_Ionization_Penalty_Charging>
0.186055

> <r_epik_Ionization_Penalty_Neutral>
2.36809e-06

> <r_epik_State_Penalty>
0.175633

> <r_epik_Charging_Adjusted_Penalty>
0.361687

> <i_epik_Tot_Q>
1

> <i_epik_Tot_abs_Q>
1

> <r_epik_Metal_State_Penalty>
0.176075

> <b_epik_Metal_Only>
0

> <s_lp_Force_Field>
OPLS_2005

> <r_lp_Energy>
21.8815

> <b_lp_Chiralities_Consistent>
1

> <s_lp_Variant>
AV-unprocessed.smi:3236-1

> <Gold.Version>
5.8.1

> <Gold.Id.Protein>
6NUR|6NUR_protein|mol2

> <Gold.PLP.Fitness>
55.3551

> <Gold.PLP.PLP>
-45.5846

> <Gold.PLP.part.hbond>
-1.9782

> <Gold.PLP.part.metal>
0.0000

> <Gold.PLP.part.buried>
-5.5343

> <Gold.PLP.part.nonpolar>
-39.8482

> <Gold.PLP.part.repulsive>
1.4249

> <Gold.PLP.ligand.clash>
0.0000

> <Gold.PLP.ligand.torsion>
0.8561

> <Gold.PLP.Chemscore.Hbond>
3.0000

> <Gold.PLP.Chemscore.CHOScore>
0.8177

> <Gold.PLP.Chemscore.Metal>
0.0000

> <Gold.Chemscore.Hbonds>
donor molecule, donor type, donor heavy atom, donor atom, acceptor molecule, acceptor atom, score
      L1  H     9    29       P1  8028  2.00
      P1  H  7989  7998       L1    16  0.75
      L1  C    13    34       P1  7948  0.78

> <Gold.PLP.Chemscore.Internal.Correction>
0.0296

> <Gold.Rescore>
     Score         DG    S(hbond)    S(metal)    S(lipo)     H(rot)  DE(clash)    DE(int)     intcor
     19.03     -20.05       1.93        0.00     108.84       1.80       0.14       0.89       ----

> <Gold.Chemscore.Fitness>
19.0285

> <Gold.Chemscore.DG>
-20.0541

> <Gold.Chemscore.ZeroCoef>
-5.4800

> <Gold.Chemscore.Hbond>
1.9275

> <Gold.Chemscore.Metal>
0.0000

> <Gold.Chemscore.Lipo>
108.8435

> <Gold.Chemscore.Internal_Hbond>
0.0000

> <Gold.Chemscore.DEClash>
0.1378

> <Gold.Chemscore.DEInternal>
0.8878

> <Gold.Chemscore.Rot>
1.7963

> <Gold.Chemscore.Internal.Correction>
   9.000000E+99

> <Gold.Chemscore.Hbonds>
donor molecule, donor type, donor heavy atom, donor atom, acceptor molecule, acceptor atom, score
      L1  H     9    29       P1  8028  1.00
      P1  H  7989  7998       L1    16  0.08

> <Gold.Chemscore.Hbond.Weighted>
-6.4379

> <Gold.Chemscore.Metal.Weighted>
-0.0000

> <Gold.Chemscore.Lipo.Weighted>
-12.7347

> <Gold.Chemscore.Internal_Hbond.Weighted>
0.0000

> <Gold.Chemscore.DEClash.Weighted>
0.1378

> <Gold.Chemscore.DEInternal.Weighted>
0.8878

> <Gold.Chemscore.Rot.Weighted>
4.5985

> <Gold.Chemscore.Internal.Correction.Weighted>
   9.000000E+99

> <Gold.Protein.RotatedTorsions>
[ 6907 6896 6895 6894 ] final -126.21 input  -60.11 | X-H torsion
[ 7974 7965 7964 7962 ] final   -9.91 input  175.53 | X-H torsion
[ 8008 7997 7996 7995 ] final  123.45 input   59.86 | X-H torsion
[ 10167 10162 10161 10158 ] final -126.92 input  -65.29 | X-H torsion
[ 10718 10713 10712 10709 ] final  172.34 input   66.30 | X-H torsion
[ 10763 10752 10751 10750 ] final  -49.42 input  -60.55 | X-H torsion
[ 11005 11000 10999 10996 ] final  149.48 input  -57.11 | X-H torsion

> <Gold.Protein.ActiveResidues>
 VAL166  LYS551  ARG553  GLY616  TRP617  ASP618  TYR619  PRO620  LYS621  CYS622 
 ASP623  PHE694  ASN695  SER759  ASP760  ASP761  ALA762  ILE779  LEU786  VAL792 
 PHE793  MET794  SER795  GLU796  ALA797  LYS798  CYS799  TRP800  GLU811  SER814 

> <Gold.Protein.RotatedAtoms>
  150.8946  133.7198  159.2895 H   0  0  0  0  0  0  0  0  0  0  0  0  # atno 6907 bound_to 6896
  151.4737  135.1046  159.9768 H   0  0  0  0  0  0  0  0  0  0  0  0  # atno 6908 bound_to 6896
  152.4841  133.8279  159.7143 H   0  0  0  0  0  0  0  0  0  0  0  0  # atno 6909 bound_to 6896
  146.2237  140.2686  142.8355 H   0  0  0  0  0  0  0  0  0  0  0  0  # atno 7974 bound_to 7965
  156.2766  140.2762  156.1630 H   0  0  0  0  0  0  0  0  0  0  0  0  # atno 8008 bound_to 7997
  155.0734  140.0387  157.2633 H   0  0  0  0  0  0  0  0  0  0  0  0  # atno 8009 bound_to 7997
  154.7022  140.2651  155.6714 H   0  0  0  0  0  0  0  0  0  0  0  0  # atno 8010 bound_to 7997
  139.9663  143.5894  152.2428 H   0  0  0  0  0  0  0  0  0  0  0  0  # atno 10167 bound_to 10162
  156.9803  131.0117  151.2883 H   0  0  0  0  0  0  0  0  0  0  0  0  # atno 10718 bound_to 10713
  154.0937  135.6573  153.4857 H   0  0  0  0  0  0  0  0  0  0  0  0  # atno 10763 bound_to 10752
  153.0312  135.5208  154.7355 H   0  0  0  0  0  0  0  0  0  0  0  0  # atno 10764 bound_to 10752
  154.6486  135.2998  154.9984 H   0  0  0  0  0  0  0  0  0  0  0  0  # atno 10765 bound_to 10752
  140.1049  134.8960  157.1851 H   0  0  0  0  0  0  0  0  0  0  0  0  # atno 11005 bound_to 11000
  144.9285  140.7948  143.5704 LP  0  0  0  0  0  0  0  0  0  0  0  0  # atno 17320 bound_to 7965
  145.2628  139.1985  143.4883 LP  0  0  0  0  0  0  0  0  0  0  0  0  # atno 17321 bound_to 7965
  139.6515  144.7661  151.2139 LP  0  0  0  0  0  0  0  0  0  0  0  0  # atno 17342 bound_to 10162
  140.7537  143.6153  150.8565 LP  0  0  0  0  0  0  0  0  0  0  0  0  # atno 17343 bound_to 10162
  157.5531  130.8195  149.8170 LP  0  0  0  0  0  0  0  0  0  0  0  0  # atno 17370 bound_to 10713
  156.0247  130.3783  150.1858 LP  0  0  0  0  0  0  0  0  0  0  0  0  # atno 17371 bound_to 10713
  140.3170  134.2960  155.7254 LP  0  0  0  0  0  0  0  0  0  0  0  0  # atno 17394 bound_to 11000
  141.2115  133.7686  156.9857 LP  0  0  0  0  0  0  0  0  0  0  0  0  # atno 17395 bound_to 11000

$$$$
