AV-unprocessed.smi:3215|AV-procd|sdf|12286|dock3
  -GOLD-   2272018123D 1   1.00000     0.00000
 Structure written by MMmdl.
 37 38  0  0  0  0  0  0  0  0  1 V2000
  147.2093  141.9344  154.0698 C   0  0  0  0  0  0  0  0  0  0  0  0
  148.5564  141.4697  154.5429 C   0  0  0  0  0  0  0  0  0  0  0  0
  149.3484  140.4091  154.0177 C   0  0  0  0  0  0  0  0  0  0  0  0
  150.4925  140.2527  154.6634 N   0  0  0  0  0  0  0  0  0  0  0  0
  150.4715  141.2038  155.6211 N   0  0  0  0  0  0  0  0  0  0  0  0
  151.5897  141.3309  156.5357 C   0  0  0  0  0  0  0  0  0  0  0  0
  151.1352  141.2547  158.0005 C   0  0  0  0  0  0  0  0  0  0  0  0
  150.9391  142.5998  158.5188 N   0  0  0  0  0  0  0  0  0  0  0  0
  152.1764  143.1064  159.1261 C   0  0  0  0  0  0  0  0  0  0  0  0
  151.9552  143.7486  160.5057 C   0  0  0  0  0  0  0  0  0  0  0  0
  151.1822  144.7012  160.6251 O   0  0  0  0  0  0  0  0  0  0  0  0
  152.6315  143.2415  161.5576 N   0  0  0  0  0  0  0  0  0  0  0  0
  153.5450  142.1048  161.4589 C   0  0  0  0  0  0  0  0  0  0  0  0
  153.8566  141.6986  162.8994 C   0  0  0  0  0  0  0  0  0  0  0  0
  153.6477  142.9766  163.6996 C   0  0  0  0  0  0  0  0  0  0  0  0
  152.5529  143.7235  162.9366 C   0  0  0  0  0  0  0  0  0  0  0  0
  149.3147  141.9523  155.5720 C   0  0  0  0  0  0  0  0  0  0  0  0
  147.1215  141.8780  152.9847 H   0  0  0  0  0  0  0  0  0  0  0  0
  147.0145  142.9691  154.3532 H   0  0  0  0  0  0  0  0  0  0  0  0
  146.4060  141.3288  154.4897 H   0  0  0  0  0  0  0  0  0  0  0  0
  149.1265  139.7516  153.1899 H   0  0  0  0  0  0  0  0  0  0  0  0
  152.3056  140.5375  156.3164 H   0  0  0  0  0  0  0  0  0  0  0  0
  152.0953  142.2777  156.3379 H   0  0  0  0  0  0  0  0  0  0  0  0
  150.2058  140.6882  158.0774 H   0  0  0  0  0  0  0  0  0  0  0  0
  151.8874  140.7361  158.5970 H   0  0  0  0  0  0  0  0  0  0  0  0
  150.6230  143.2029  157.7728 H   0  0  0  0  0  0  0  0  0  0  0  0
  152.8848  142.2838  159.2342 H   0  0  0  0  0  0  0  0  0  0  0  0
  152.6268  143.8456  158.4619 H   0  0  0  0  0  0  0  0  0  0  0  0
  153.1123  141.2747  160.8984 H   0  0  0  0  0  0  0  0  0  0  0  0
  154.4531  142.4240  160.9453 H   0  0  0  0  0  0  0  0  0  0  0  0
  153.1428  140.9423  163.2292 H   0  0  0  0  0  0  0  0  0  0  0  0
  154.8588  141.2847  163.0147 H   0  0  0  0  0  0  0  0  0  0  0  0
  153.3829  142.7862  164.7400 H   0  0  0  0  0  0  0  0  0  0  0  0
  154.5661  143.5652  163.6914 H   0  0  0  0  0  0  0  0  0  0  0  0
  152.6956  144.8023  163.0089 H   0  0  0  0  0  0  0  0  0  0  0  0
  151.5710  143.4800  163.3447 H   0  0  0  0  0  0  0  0  0  0  0  0
  149.1291  142.7591  156.2657 H   0  0  0  0  0  0  0  0  0  0  0  0
  1  2  1  0  0  0  0
  1 18  1  0  0  0  0
  1 19  1  0  0  0  0
  1 20  1  0  0  0  0
  2 17  2  0  0  0  0
  2  3  1  0  0  0  0
  3  4  2  0  0  0  0
  3 21  1  0  0  0  0
  4  5  1  0  0  0  0
  5  6  1  0  0  0  0
  5 17  1  0  0  0  0
  6  7  1  0  0  0  0
  6 22  1  0  0  0  0
  6 23  1  0  0  0  0
  7  8  1  0  0  0  0
  7 24  1  0  0  0  0
  7 25  1  0  0  0  0
  8  9  1  0  0  0  0
  8 26  1  0  0  0  0
  9 10  1  0  0  0  0
  9 27  1  0  0  0  0
  9 28  1  0  0  0  0
 10 11  2  0  0  0  0
 10 12  1  0  0  0  0
 12 16  1  0  0  0  0
 12 13  1  0  0  0  0
 13 14  1  0  0  0  0
 13 29  1  0  0  0  0
 13 30  1  0  0  0  0
 14 15  1  0  0  0  0
 14 31  1  0  0  0  0
 14 32  1  0  0  0  0
 15 16  1  0  0  0  0
 15 33  1  0  0  0  0
 15 34  1  0  0  0  0
 16 35  1  0  0  0  0
 16 36  1  0  0  0  0
 17 37  1  0  0  0  0
M  END
> <s_m_source_file>
AV-unprocessed.smi

> <i_m_source_file_index>
3215

> <i_lp_mmshare_version>
43012

> <i_f3d_flags>
0

> <s_epik_input>
W0NIM11jMVtjSF1ubihbY0hdMSlbQ0gyXVtDSDJdW05IXVtDSDJdQyg9TylOMltDSDJdW0NIMl1bQ0gyXVtDSDJdMg==

> <s_epik_cmdline>
J2VwaWtfcHl0aG9uJywgJy1waCcsICc3LjAnLCAnLXRuJywgJzgnLCAnLW1hJywgJzIwMCcsICctbWV0YWxfYmluZGluZycsICctaW1hZScsICc8aW5maWxlLm1hZT4nLCAnLW9tYWUnLCAnPG91dGZpbGUubWFlPic=

> <r_lp_tautomer_probability>
1

> <r_epik_Ionization_Penalty>
0.736363

> <r_epik_Ionization_Penalty_Charging>
0

> <r_epik_Ionization_Penalty_Neutral>
0.736363

> <r_epik_State_Penalty>
0.758951

> <r_epik_Charging_Adjusted_Penalty>
0.758951

> <i_epik_Tot_Q>
0

> <i_epik_Tot_abs_Q>
0

> <r_epik_Metal_State_Penalty>
0.755698

> <b_epik_Metal_Only>
0

> <s_lp_Force_Field>
OPLS_2005

> <r_lp_Energy>
29.5089

> <b_lp_Chiralities_Consistent>
1

> <s_lp_Variant>
AV-unprocessed.smi:3215-2

> <Gold.Version>
5.8.1

> <Gold.Id.Protein>
6NUR|6NUR_protein|mol2

> <Gold.PLP.Fitness>
46.0177

> <Gold.PLP.PLP>
-39.3290

> <Gold.PLP.part.hbond>
-1.0000

> <Gold.PLP.part.metal>
0.0000

> <Gold.PLP.part.buried>
1.8435

> <Gold.PLP.part.nonpolar>
-37.5621

> <Gold.PLP.part.repulsive>
0.2290

> <Gold.PLP.ligand.clash>
0.0000

> <Gold.PLP.ligand.torsion>
0.7929

> <Gold.PLP.Chemscore.Hbond>
1.0000

> <Gold.PLP.Chemscore.CHOScore>
1.7483

> <Gold.PLP.Chemscore.Metal>
0.0000

> <Gold.Chemscore.Hbonds>
donor molecule, donor type, donor heavy atom, donor atom, acceptor molecule, acceptor atom, score
      P1  H  7989  7998       L1     4  1.00
      L1  C     3    21       P1  7957  0.95
      L1  C    17    37       P1  8028  0.86

> <Gold.PLP.Chemscore.Internal.Correction>
0.0298

> <Gold.Rescore>
     Score         DG    S(hbond)    S(metal)    S(lipo)     H(rot)  DE(clash)    DE(int)     intcor
     12.08     -13.66       0.51        0.00      93.60       1.74       0.74       0.85       ----

> <Gold.Chemscore.Fitness>
12.0768

> <Gold.Chemscore.DG>
-13.6627

> <Gold.Chemscore.ZeroCoef>
-5.4800

> <Gold.Chemscore.Hbond>
0.5083

> <Gold.Chemscore.Metal>
0.0000

> <Gold.Chemscore.Lipo>
93.5955

> <Gold.Chemscore.Internal_Hbond>
0.0000

> <Gold.Chemscore.DEClash>
0.7395

> <Gold.Chemscore.DEInternal>
0.8464

> <Gold.Chemscore.Rot>
1.7444

> <Gold.Chemscore.Internal.Correction>
   9.000000E+99

> <Gold.Chemscore.Hbonds>
donor molecule, donor type, donor heavy atom, donor atom, acceptor molecule, acceptor atom, score
      P1  H  7989  7998       L1     4  0.12

> <Gold.Chemscore.Hbond.Weighted>
-1.6977

> <Gold.Chemscore.Metal.Weighted>
-0.0000

> <Gold.Chemscore.Lipo.Weighted>
-10.9507

> <Gold.Chemscore.Internal_Hbond.Weighted>
0.0000

> <Gold.Chemscore.DEClash.Weighted>
0.7395

> <Gold.Chemscore.DEInternal.Weighted>
0.8464

> <Gold.Chemscore.Rot.Weighted>
4.4657

> <Gold.Chemscore.Internal.Correction.Weighted>
   9.000000E+99

> <Gold.Protein.RotatedTorsions>
[ 6907 6896 6895 6894 ] final   37.18 input  -60.11 | X-H torsion
[ 7974 7965 7964 7962 ] final   -5.16 input  175.53 | X-H torsion
[ 8008 7997 7996 7995 ] final  169.63 input   59.86 | X-H torsion
[ 10167 10162 10161 10158 ] final  162.15 input  -65.29 | X-H torsion
[ 10718 10713 10712 10709 ] final  152.41 input   66.30 | X-H torsion
[ 10763 10752 10751 10750 ] final  172.76 input  -60.55 | X-H torsion
[ 11005 11000 10999 10996 ] final   58.62 input  -57.11 | X-H torsion

> <Gold.Protein.ActiveResidues>
 VAL166  LYS551  ARG553  GLY616  TRP617  ASP618  TYR619  PRO620  LYS621  CYS622 
 ASP623  PHE694  ASN695  SER759  ASP760  ASP761  ALA762  ILE779  LEU786  VAL792 
 PHE793  MET794  SER795  GLU796  ALA797  LYS798  CYS799  TRP800  GLU811  SER814 

> <Gold.Protein.RotatedAtoms>
  152.1398  134.9071  160.0554 H   0  0  0  0  0  0  0  0  0  0  0  0  # atno 6907 bound_to 6896
  152.0144  133.3869  159.4241 H   0  0  0  0  0  0  0  0  0  0  0  0  # atno 6908 bound_to 6896
  150.6864  134.3617  159.4997 H   0  0  0  0  0  0  0  0  0  0  0  0  # atno 6909 bound_to 6896
  146.2358  140.1979  142.8333 H   0  0  0  0  0  0  0  0  0  0  0  0  # atno 7974 bound_to 7965
  156.1439  140.1559  156.8877 H   0  0  0  0  0  0  0  0  0  0  0  0  # atno 8008 bound_to 7997
  154.5011  140.0825  156.7838 H   0  0  0  0  0  0  0  0  0  0  0  0  # atno 8009 bound_to 7997
  155.4025  140.3415  155.4260 H   0  0  0  0  0  0  0  0  0  0  0  0  # atno 8010 bound_to 7997
  139.4857  144.4466  151.8884 H   0  0  0  0  0  0  0  0  0  0  0  0  # atno 10167 bound_to 10162
  157.2582  131.0792  151.1684 H   0  0  0  0  0  0  0  0  0  0  0  0  # atno 10718 bound_to 10713
  154.4306  135.2759  155.1915 H   0  0  0  0  0  0  0  0  0  0  0  0  # atno 10763 bound_to 10752
  154.3822  135.6085  153.5801 H   0  0  0  0  0  0  0  0  0  0  0  0  # atno 10764 bound_to 10752
  152.9836  135.5883  154.4617 H   0  0  0  0  0  0  0  0  0  0  0  0  # atno 10765 bound_to 10752
  140.0364  134.5937  155.9439 H   0  0  0  0  0  0  0  0  0  0  0  0  # atno 11005 bound_to 11000
  144.9805  140.8455  143.5400 LP  0  0  0  0  0  0  0  0  0  0  0  0  # atno 17320 bound_to 7965
  145.1972  139.2270  143.5212 LP  0  0  0  0  0  0  0  0  0  0  0  0  # atno 17321 bound_to 7965
  140.3920  144.2603  150.5899 LP  0  0  0  0  0  0  0  0  0  0  0  0  # atno 17342 bound_to 10162
  140.5137  143.2284  151.8496 LP  0  0  0  0  0  0  0  0  0  0  0  0  # atno 17343 bound_to 10162
  157.3205  130.6934  149.6266 LP  0  0  0  0  0  0  0  0  0  0  0  0  # atno 17370 bound_to 10713
  155.9664  130.4337  150.5017 LP  0  0  0  0  0  0  0  0  0  0  0  0  # atno 17371 bound_to 10713
  141.1859  133.6556  156.5218 LP  0  0  0  0  0  0  0  0  0  0  0  0  # atno 17394 bound_to 11000
  140.4141  134.7246  157.4853 LP  0  0  0  0  0  0  0  0  0  0  0  0  # atno 17395 bound_to 11000

$$$$
