AV-unprocessed.smi:1742|AV-procd|sdf|7021|dock1
  -GOLD-   22720 8233D 1   1.00000     0.00000
 Structure written by MMmdl.
 34 35  0  0  0  0  0  0  0  0  1 V2000
  146.0390  130.1173  151.7590 C   0  0  0  0  0  0  0  0  0  0  0  0
  146.9653  129.6962  152.9055 C   0  0  0  0  0  0  0  0  0  0  0  0
  147.7394  130.8149  153.4066 N   0  0  0  0  0  0  0  0  0  0  0  0
  147.6824  132.1358  153.0091 C   0  0  0  0  0  0  0  0  0  0  0  0
  148.5968  132.7942  153.7819 C   0  0  0  0  0  0  0  0  0  0  0  0
  148.9457  134.1681  153.7886 N   0  0  0  0  0  0  0  0  0  0  0  0
  149.4916  134.8697  154.8004 C   0  0  0  0  0  0  0  0  0  0  0  0
  149.7779  134.3981  155.8991 O   0  0  0  0  0  0  0  0  0  0  0  0
  149.7184  136.1654  154.5198 N   0  0  0  0  0  0  0  0  0  0  0  0
  150.2944  137.1957  155.3851 C   0  0  1  0  0  0  0  0  0  0  0  0
  151.5804  136.6854  156.0619 C   0  0  0  0  0  0  0  0  0  0  0  0
  152.3398  137.8809  156.6509 C   0  0  0  0  0  0  0  0  0  0  0  0
  151.9427  139.3153  155.5808 S   0  0  0  0  0  0  0  0  0  0  0  0
  151.3190  140.3630  156.4032 O   0  0  0  0  0  0  0  0  0  0  0  0
  153.0899  139.6169  154.7113 O   0  0  0  0  0  0  0  0  0  0  0  0
  150.6519  138.4664  154.5969 C   0  0  0  0  0  0  0  0  0  0  0  0
  149.1708  131.8086  154.6264 C   0  0  0  0  0  0  0  0  0  0  0  0
  148.6458  130.6147  154.3952 N   0  0  0  0  0  0  0  0  0  0  0  0
  145.4770  129.2631  151.3813 H   0  0  0  0  0  0  0  0  0  0  0  0
  146.6070  130.5359  150.9278 H   0  0  0  0  0  0  0  0  0  0  0  0
  145.3211  130.8693  152.0876 H   0  0  0  0  0  0  0  0  0  0  0  0
  146.3856  129.2701  153.7257 H   0  0  0  0  0  0  0  0  0  0  0  0
  147.6540  128.9209  152.5678 H   0  0  0  0  0  0  0  0  0  0  0  0
  147.0106  132.4714  152.2331 H   0  0  0  0  0  0  0  0  0  0  0  0
  148.7630  134.6721  152.9332 H   0  0  0  0  0  0  0  0  0  0  0  0
  149.4725  136.4673  153.5880 H   0  0  0  0  0  0  0  0  0  0  0  0
  149.5907  137.4570  156.1777 H   0  0  0  0  0  0  0  0  0  0  0  0
  151.3680  135.9336  156.8227 H   0  0  0  0  0  0  0  0  0  0  0  0
  152.2146  136.2078  155.3134 H   0  0  0  0  0  0  0  0  0  0  0  0
  151.9881  138.1056  157.6580 H   0  0  0  0  0  0  0  0  0  0  0  0
  153.4179  137.7230  156.6861 H   0  0  0  0  0  0  0  0  0  0  0  0
  151.0835  138.2193  153.6263 H   0  0  0  0  0  0  0  0  0  0  0  0
  149.8025  139.1312  154.4400 H   0  0  0  0  0  0  0  0  0  0  0  0
  149.9335  131.9164  155.3835 H   0  0  0  0  0  0  0  0  0  0  0  0
  1  2  1  0  0  0  0
  1 19  1  0  0  0  0
  1 20  1  0  0  0  0
  1 21  1  0  0  0  0
  2  3  1  0  0  0  0
  2 22  1  0  0  0  0
  2 23  1  0  0  0  0
  3 18  1  0  0  0  0
  3  4  1  0  0  0  0
  4  5  2  0  0  0  0
  4 24  1  0  0  0  0
  5  6  1  0  0  0  0
  5 17  1  0  0  0  0
  6  7  1  0  0  0  0
  6 25  1  0  0  0  0
  7  8  2  0  0  0  0
  7  9  1  0  0  0  0
  9 10  1  0  0  0  0
  9 26  1  0  0  0  0
 10 16  1  0  0  0  0
 10 11  1  0  0  0  0
 10 27  1  0  0  0  0
 11 12  1  0  0  0  0
 11 28  1  0  0  0  0
 11 29  1  0  0  0  0
 12 13  1  0  0  0  0
 12 30  1  0  0  0  0
 12 31  1  0  0  0  0
 13 14  2  0  0  0  0
 13 15  2  0  0  0  0
 13 16  1  0  0  0  0
 16 32  1  0  0  0  0
 16 33  1  0  0  0  0
 17 18  2  0  0  0  0
 17 34  1  0  0  0  0
M  END
> <s_m_source_file>
AV-unprocessed.smi

> <i_m_source_file_index>
1742

> <i_lp_mmshare_version>
43012

> <i_f3d_flags>
0

> <s_epik_input>
W0NIM11bQ0gyXW4xW2NIXWMoW2NIXW4xKVtOSF1DKD1PKVtOSF1bQ0BASF0oW0NIMl0yKVtDSDJdW0NIMl1TMig9Tyk9Tw==

> <s_epik_cmdline>
J2VwaWtfcHl0aG9uJywgJy1waCcsICc3LjAnLCAnLXRuJywgJzgnLCAnLW1hJywgJzIwMCcsICctbWV0YWxfYmluZGluZycsICctaW1hZScsICc8aW5maWxlLm1hZT4nLCAnLW9tYWUnLCAnPG91dGZpbGUubWFlPic=

> <r_lp_tautomer_probability>
1

> <r_epik_Ionization_Penalty>
0.000152028

> <r_epik_Ionization_Penalty_Charging>
0

> <r_epik_Ionization_Penalty_Neutral>
0.000152028

> <r_epik_State_Penalty>
-0

> <r_epik_Charging_Adjusted_Penalty>
0

> <i_epik_Tot_Q>
0

> <i_epik_Tot_abs_Q>
0

> <r_epik_Metal_State_Penalty>
-0

> <b_epik_Metal_Only>
0

> <s_lp_Force_Field>
OPLS_2005

> <r_lp_Energy>
18.8672

> <b_lp_Chiralities_Consistent>
1

> <s_lp_Variant>
AV-unprocessed.smi:1742-2

> <Gold.Version>
5.8.1

> <Gold.Id.Protein>
6NUR|6NUR_protein|mol2

> <Gold.PLP.Fitness>
37.8253

> <Gold.PLP.PLP>
-29.6127

> <Gold.PLP.part.hbond>
-4.0000

> <Gold.PLP.part.metal>
0.0000

> <Gold.PLP.part.buried>
-3.1932

> <Gold.PLP.part.nonpolar>
-22.4405

> <Gold.PLP.part.repulsive>
0.1372

> <Gold.PLP.ligand.clash>
0.0000

> <Gold.PLP.ligand.torsion>
0.2575

> <Gold.PLP.Chemscore.Hbond>
2.9081

> <Gold.PLP.Chemscore.CHOScore>
0.0000

> <Gold.PLP.Chemscore.Metal>
0.0000

> <Gold.Chemscore.Hbonds>
donor molecule, donor type, donor heavy atom, donor atom, acceptor molecule, acceptor atom, score
      L1  H     6    25       P1  7948  0.80
      L1  H     9    26       P1  7948  1.00
      P1  H  7989  7998       L1    15  0.06
      P1  H  7997  8009       L1    15  1.00

> <Gold.PLP.Chemscore.Internal.Correction>
0.0036

> <Gold.Rescore>
     Score         DG    S(hbond)    S(metal)    S(lipo)     H(rot)  DE(clash)    DE(int)     intcor
     15.34     -17.32       2.70        0.00      51.72       1.26       0.05       1.93       ----

> <Gold.Chemscore.Fitness>
15.3429

> <Gold.Chemscore.DG>
-17.3214

> <Gold.Chemscore.ZeroCoef>
-5.4800

> <Gold.Chemscore.Hbond>
2.6959

> <Gold.Chemscore.Metal>
0.0000

> <Gold.Chemscore.Lipo>
51.7169

> <Gold.Chemscore.Internal_Hbond>
0.0000

> <Gold.Chemscore.DEClash>
0.0497

> <Gold.Chemscore.DEInternal>
1.9288

> <Gold.Chemscore.Rot>
1.2554

> <Gold.Chemscore.Internal.Correction>
   9.000000E+99

> <Gold.Chemscore.Hbonds>
donor molecule, donor type, donor heavy atom, donor atom, acceptor molecule, acceptor atom, score
      L1  H     6    25       P1  7948  0.11
      L1  H     9    26       P1  7948  0.73
      P1  H  7997  8009       L1    15  0.90

> <Gold.Chemscore.Hbond.Weighted>
-9.0044

> <Gold.Chemscore.Metal.Weighted>
-0.0000

> <Gold.Chemscore.Lipo.Weighted>
-6.0509

> <Gold.Chemscore.Internal_Hbond.Weighted>
0.0000

> <Gold.Chemscore.DEClash.Weighted>
0.0497

> <Gold.Chemscore.DEInternal.Weighted>
1.9288

> <Gold.Chemscore.Rot.Weighted>
3.2139

> <Gold.Chemscore.Internal.Correction.Weighted>
   9.000000E+99

> <Gold.Protein.RotatedTorsions>
[ 6907 6896 6895 6894 ] final   68.18 input  -60.11 | X-H torsion
[ 7974 7965 7964 7962 ] final   87.93 input  175.53 | X-H torsion
[ 8008 7997 7996 7995 ] final -115.07 input   59.86 | X-H torsion
[ 10167 10162 10161 10158 ] final  162.65 input  -65.29 | X-H torsion
[ 10718 10713 10712 10709 ] final   33.37 input   66.30 | X-H torsion
[ 10763 10752 10751 10750 ] final  121.98 input  -60.55 | X-H torsion
[ 11005 11000 10999 10996 ] final  146.70 input  -57.11 | X-H torsion

> <Gold.Protein.ActiveResidues>
 VAL166  LYS551  ARG553  GLY616  TRP617  ASP618  TYR619  PRO620  LYS621  CYS622 
 ASP623  PHE694  ASN695  SER759  ASP760  ASP761  ALA762  ILE779  LEU786  VAL792 
 PHE793  MET794  SER795  GLU796  ALA797  LYS798  CYS799  TRP800  GLU811  SER814 

> <Gold.Protein.RotatedAtoms>
  152.4602  134.5200  159.9779 H   0  0  0  0  0  0  0  0  0  0  0  0  # atno 6907 bound_to 6896
  151.5251  133.3453  159.2916 H   0  0  0  0  0  0  0  0  0  0  0  0  # atno 6908 bound_to 6896
  150.8562  134.7932  159.7110 H   0  0  0  0  0  0  0  0  0  0  0  0  # atno 6909 bound_to 6896
  145.5525  139.2296  143.2505 H   0  0  0  0  0  0  0  0  0  0  0  0  # atno 7974 bound_to 7965
  155.0463  140.0392  157.2527 H   0  0  0  0  0  0  0  0  0  0  0  0  # atno 8008 bound_to 7997
  154.7175  140.2705  155.6548 H   0  0  0  0  0  0  0  0  0  0  0  0  # atno 8009 bound_to 7997
  156.2807  140.2709  156.1836 H   0  0  0  0  0  0  0  0  0  0  0  0  # atno 8010 bound_to 7997
  139.4863  144.4416  151.8944 H   0  0  0  0  0  0  0  0  0  0  0  0  # atno 10167 bound_to 10162
  157.2970  130.7331  149.6644 H   0  0  0  0  0  0  0  0  0  0  0  0  # atno 10718 bound_to 10713
  153.6226  135.3410  155.3016 H   0  0  0  0  0  0  0  0  0  0  0  0  # atno 10763 bound_to 10752
  154.8597  135.4276  154.2191 H   0  0  0  0  0  0  0  0  0  0  0  0  # atno 10764 bound_to 10752
  153.3068  135.7028  153.7225 H   0  0  0  0  0  0  0  0  0  0  0  0  # atno 10765 bound_to 10752
  140.0815  134.9094  157.1507 H   0  0  0  0  0  0  0  0  0  0  0  0  # atno 11005 bound_to 11000
  146.1907  140.6348  142.9147 LP  0  0  0  0  0  0  0  0  0  0  0  0  # atno 17320 bound_to 7965
  144.7522  140.5220  143.6793 LP  0  0  0  0  0  0  0  0  0  0  0  0  # atno 17321 bound_to 7965
  140.3868  144.2666  150.5903 LP  0  0  0  0  0  0  0  0  0  0  0  0  # atno 17342 bound_to 10162
  140.5183  143.2272  151.8429 LP  0  0  0  0  0  0  0  0  0  0  0  0  # atno 17343 bound_to 10162
  155.9669  130.4291  150.4819 LP  0  0  0  0  0  0  0  0  0  0  0  0  # atno 17370 bound_to 10713
  157.2793  131.0603  151.2208 LP  0  0  0  0  0  0  0  0  0  0  0  0  # atno 17371 bound_to 10713
  140.3482  134.2628  155.7202 LP  0  0  0  0  0  0  0  0  0  0  0  0  # atno 17394 bound_to 11000
  141.2048  133.7877  157.0267 LP  0  0  0  0  0  0  0  0  0  0  0  0  # atno 17395 bound_to 11000

$$$$
