AV-unprocessed.smi:1207|AV-procd|sdf|5049|dock6
  -GOLD-   22720 4 73D 1   1.00000     0.00000
 Structure written by MMmdl.
 51 53  0  0  0  0  0  0  0  0  1 V2000
  152.8500  143.5889  161.9287 C   0  0  0  0  0  0  0  0  0  0  0  0
  152.4209  143.0737  160.5662 C   0  0  0  0  0  0  0  0  0  0  0  0
  152.5548  141.6968  160.2787 C   0  0  0  0  0  0  0  0  0  0  0  0
  152.1679  141.1777  159.0236 C   0  0  0  0  0  0  0  0  0  0  0  0
  152.2129  139.8834  158.5343 N   0  0  0  0  0  0  0  0  0  0  0  0
  151.7163  140.0425  157.3111 C   0  0  0  0  0  0  0  0  0  0  0  0
  151.3535  141.2879  156.9493 N   0  0  0  0  0  0  0  0  0  0  0  0
  150.7913  141.6961  155.6739 C   0  0  0  0  0  0  0  0  0  0  0  0
  149.5202  140.9064  155.3087 C   0  0  2  0  0  0  0  0  0  0  0  0
  149.8868  139.7175  154.6363 O   0  0  0  0  0  0  0  0  0  0  0  0
  148.5936  141.7221  154.3831 C   0  0  0  0  0  0  0  0  0  0  0  0
  147.2453  141.9735  154.8985 N   0  0  0  0  0  0  0  0  0  0  0  0
  146.4833  140.7279  154.9291 C   0  0  0  0  0  0  0  0  0  0  0  0
  146.5330  143.0013  154.1325 C   0  0  0  0  0  0  0  0  0  0  0  0
  145.4332  143.6645  154.9225 C   0  0  0  0  0  0  0  0  0  0  0  0
  144.5812  144.7314  154.5181 C   0  0  0  0  0  0  0  0  0  0  0  0
  144.5575  145.4592  153.2050 C   0  0  0  0  0  0  0  0  0  0  0  0
  143.7273  145.0699  155.4699 N   0  0  0  0  0  0  0  0  0  0  0  0
  143.9985  144.2213  156.5477 O   0  0  0  0  0  0  0  0  0  0  0  0
  145.0183  143.3965  156.1981 C   0  0  0  0  0  0  0  0  0  0  0  0
  145.4632  142.4056  157.2202 C   0  0  0  0  0  0  0  0  0  0  0  0
  151.6364  142.0806  158.0568 C   0  0  0  0  0  0  0  0  0  0  0  0
  151.4993  143.4529  158.3309 C   0  0  0  0  0  0  0  0  0  0  0  0
  151.8932  143.9554  159.5888 C   0  0  0  0  0  0  0  0  0  0  0  0
  151.7443  145.4395  159.8728 C   0  0  0  0  0  0  0  0  0  0  0  0
  153.2059  142.7796  162.5666 H   0  0  0  0  0  0  0  0  0  0  0  0
  152.0141  144.0709  162.4362 H   0  0  0  0  0  0  0  0  0  0  0  0
  153.6577  144.3137  161.8253 H   0  0  0  0  0  0  0  0  0  0  0  0
  152.9581  141.0252  161.0222 H   0  0  0  0  0  0  0  0  0  0  0  0
  151.6100  139.2052  156.6368 H   0  0  0  0  0  0  0  0  0  0  0  0
  150.5665  142.7620  155.7292 H   0  0  0  0  0  0  0  0  0  0  0  0
  151.5528  141.5796  154.9013 H   0  0  0  0  0  0  0  0  0  0  0  0
  149.0122  140.6345  156.2324 H   0  0  0  0  0  0  0  0  0  0  0  0
  150.6199  139.9103  154.0717 H   0  0  0  0  0  0  0  0  0  0  0  0
  149.0676  142.6760  154.1468 H   0  0  0  0  0  0  0  0  0  0  0  0
  148.5233  141.1869  153.4346 H   0  0  0  0  0  0  0  0  0  0  0  0
  145.5000  140.8743  155.3761 H   0  0  0  0  0  0  0  0  0  0  0  0
  146.9974  139.9739  155.5259 H   0  0  0  0  0  0  0  0  0  0  0  0
  146.3439  140.3270  153.9244 H   0  0  0  0  0  0  0  0  0  0  0  0
  147.2271  143.7727  153.8064 H   0  0  0  0  0  0  0  0  0  0  0  0
  146.1435  142.5624  153.2131 H   0  0  0  0  0  0  0  0  0  0  0  0
  145.4523  146.0693  153.0826 H   0  0  0  0  0  0  0  0  0  0  0  0
  143.6924  146.1178  153.1225 H   0  0  0  0  0  0  0  0  0  0  0  0
  144.5178  144.7574  152.3721 H   0  0  0  0  0  0  0  0  0  0  0  0
  146.5514  142.3711  157.2766 H   0  0  0  0  0  0  0  0  0  0  0  0
  145.1079  141.4067  156.9661 H   0  0  0  0  0  0  0  0  0  0  0  0
  145.0815  142.6602  158.2092 H   0  0  0  0  0  0  0  0  0  0  0  0
  151.0982  144.1130  157.5760 H   0  0  0  0  0  0  0  0  0  0  0  0
  151.3504  145.9723  159.0070 H   0  0  0  0  0  0  0  0  0  0  0  0
  152.7092  145.8794  160.1248 H   0  0  0  0  0  0  0  0  0  0  0  0
  151.0603  145.6017  160.7061 H   0  0  0  0  0  0  0  0  0  0  0  0
  1  2  1  0  0  0  0
  1 26  1  0  0  0  0
  1 27  1  0  0  0  0
  1 28  1  0  0  0  0
  2 24  1  0  0  0  0
  2  3  2  0  0  0  0
  3  4  1  0  0  0  0
  3 29  1  0  0  0  0
  4 22  2  0  0  0  0
  4  5  1  0  0  0  0
  5  6  2  0  0  0  0
  6  7  1  0  0  0  0
  6 30  1  0  0  0  0
  7  8  1  0  0  0  0
  7 22  1  0  0  0  0
  8  9  1  0  0  0  0
  8 31  1  0  0  0  0
  8 32  1  0  0  0  0
  9 10  1  0  0  0  0
  9 11  1  0  0  0  0
  9 33  1  0  0  0  0
 10 34  1  0  0  0  0
 11 12  1  0  0  0  0
 11 35  1  0  0  0  0
 11 36  1  0  0  0  0
 12 13  1  0  0  0  0
 12 14  1  0  0  0  0
 13 37  1  0  0  0  0
 13 38  1  0  0  0  0
 13 39  1  0  0  0  0
 14 15  1  0  0  0  0
 14 40  1  0  0  0  0
 14 41  1  0  0  0  0
 15 20  2  0  0  0  0
 15 16  1  0  0  0  0
 16 17  1  0  0  0  0
 16 18  2  0  0  0  0
 17 42  1  0  0  0  0
 17 43  1  0  0  0  0
 17 44  1  0  0  0  0
 18 19  1  0  0  0  0
 19 20  1  0  0  0  0
 20 21  1  0  0  0  0
 21 45  1  0  0  0  0
 21 46  1  0  0  0  0
 21 47  1  0  0  0  0
 22 23  1  0  0  0  0
 23 24  2  0  0  0  0
 23 48  1  0  0  0  0
 24 25  1  0  0  0  0
 25 49  1  0  0  0  0
 25 50  1  0  0  0  0
 25 51  1  0  0  0  0
M  END
> <s_m_source_file>
AV-unprocessed.smi

> <i_m_source_file_index>
1207

> <i_lp_mmshare_version>
43012

> <i_f3d_flags>
0

> <s_epik_input>
W0NIM11jKFtjSF0xKWMoW0NIM10pW2NIXWMoYzEyKW4oW2NIXW4yKVtDSDJdW0NASF0oW09IXSlbQ0gyXU4oW0NIM10pW0NIMl1jM2MoW0NIM10pbm9jM1tDSDNd

> <s_epik_cmdline>
J2VwaWtfcHl0aG9uJywgJy1waCcsICc3LjAnLCAnLXRuJywgJzgnLCAnLW1hJywgJzIwMCcsICctbWV0YWxfYmluZGluZycsICctaW1hZScsICc8aW5maWxlLm1hZT4nLCAnLW9tYWUnLCAnPG91dGZpbGUubWFlPic=

> <r_epik_Ionization_Penalty>
0.374039

> <r_epik_Ionization_Penalty_Charging>
0

> <r_epik_Ionization_Penalty_Neutral>
0.374039

> <r_epik_State_Penalty>
0.350767

> <r_epik_Charging_Adjusted_Penalty>
0.350767

> <i_epik_Tot_Q>
0

> <i_epik_Tot_abs_Q>
0

> <r_epik_Metal_State_Penalty>
0.343187

> <b_epik_Metal_Only>
0

> <s_lp_Force_Field>
OPLS_2005

> <r_lp_Energy>
17.2157

> <b_lp_Chiralities_Consistent>
1

> <s_lp_Variant>
AV-unprocessed.smi:1207-1

> <Gold.Version>
5.8.1

> <Gold.Id.Protein>
6NUR|6NUR_protein|mol2

> <Gold.PLP.Fitness>
48.6565

> <Gold.PLP.PLP>
-51.2142

> <Gold.PLP.part.hbond>
-0.3040

> <Gold.PLP.part.metal>
0.0000

> <Gold.PLP.part.buried>
-7.2248

> <Gold.PLP.part.nonpolar>
-43.0023

> <Gold.PLP.part.repulsive>
0.2030

> <Gold.PLP.ligand.clash>
0.0000

> <Gold.PLP.ligand.torsion>
1.3701

> <Gold.PLP.Chemscore.Hbond>
0.0000

> <Gold.PLP.Chemscore.CHOScore>
0.0000

> <Gold.PLP.Chemscore.Metal>
0.0000

> <Gold.PLP.Chemscore.Internal.Correction>
0.1826

> <Gold.Rescore>
     Score         DG    S(hbond)    S(metal)    S(lipo)     H(rot)  DE(clash)    DE(int)     intcor
     13.53     -16.98       0.57        0.00     134.10       2.38       0.53       2.92       ----

> <Gold.Chemscore.Fitness>
13.5335

> <Gold.Chemscore.DG>
-16.9809

> <Gold.Chemscore.ZeroCoef>
-5.4800

> <Gold.Chemscore.Hbond>
0.5666

> <Gold.Chemscore.Metal>
0.0000

> <Gold.Chemscore.Lipo>
134.1034

> <Gold.Chemscore.Internal_Hbond>
0.0000

> <Gold.Chemscore.DEClash>
0.5314

> <Gold.Chemscore.DEInternal>
2.9160

> <Gold.Chemscore.Rot>
2.3756

> <Gold.Chemscore.Internal.Correction>
   9.000000E+99

> <Gold.Chemscore.Hbond.Weighted>
-1.8924

> <Gold.Chemscore.Metal.Weighted>
-0.0000

> <Gold.Chemscore.Lipo.Weighted>
-15.6901

> <Gold.Chemscore.Internal_Hbond.Weighted>
0.0000

> <Gold.Chemscore.DEClash.Weighted>
0.5314

> <Gold.Chemscore.DEInternal.Weighted>
2.9160

> <Gold.Chemscore.Rot.Weighted>
6.0816

> <Gold.Chemscore.Internal.Correction.Weighted>
   9.000000E+99

> <Gold.Protein.RotatedTorsions>
[ 6907 6896 6895 6894 ] final  -89.41 input  -60.11 | X-H torsion
[ 7974 7965 7964 7962 ] final  -91.42 input  175.53 | X-H torsion
[ 8008 7997 7996 7995 ] final  -24.91 input   59.86 | X-H torsion
[ 10167 10162 10161 10158 ] final   80.67 input  -65.29 | X-H torsion
[ 10718 10713 10712 10709 ] final  -51.33 input   66.30 | X-H torsion
[ 10763 10752 10751 10750 ] final  160.73 input  -60.55 | X-H torsion
[ 11005 11000 10999 10996 ] final  137.98 input  -57.11 | X-H torsion

> <Gold.Protein.ActiveResidues>
 VAL166  LYS551  ARG553  GLY616  TRP617  ASP618  TYR619  PRO620  LYS621  CYS622 
 ASP623  PHE694  ASN695  SER759  ASP760  ASP761  ALA762  ILE779  LEU786  VAL792 
 PHE793  MET794  SER795  GLU796  ALA797  LYS798  CYS799  TRP800  GLU811  SER814 

> <Gold.Protein.RotatedAtoms>
  150.6874  134.2591  159.4541 H   0  0  0  0  0  0  0  0  0  0  0  0  # atno 6907 bound_to 6896
  152.0523  134.9644  160.0584 H   0  0  0  0  0  0  0  0  0  0  0  0  # atno 6908 bound_to 6896
  152.1103  133.4262  159.4665 H   0  0  0  0  0  0  0  0  0  0  0  0  # atno 6909 bound_to 6896
  145.4134  140.9546  143.2221 H   0  0  0  0  0  0  0  0  0  0  0  0  # atno 7974 bound_to 7965
  154.4504  140.1941  156.0537 H   0  0  0  0  0  0  0  0  0  0  0  0  # atno 8008 bound_to 7997
  156.0635  140.3294  155.7462 H   0  0  0  0  0  0  0  0  0  0  0  0  # atno 8009 bound_to 7997
  155.5375  140.0583  157.2867 H   0  0  0  0  0  0  0  0  0  0  0  0  # atno 8010 bound_to 7997
  139.9473  144.6049  150.8194 H   0  0  0  0  0  0  0  0  0  0  0  0  # atno 10167 bound_to 10162
  156.1719  130.4149  149.9634 H   0  0  0  0  0  0  0  0  0  0  0  0  # atno 10718 bound_to 10713
  154.2519  135.2771  155.2813 H   0  0  0  0  0  0  0  0  0  0  0  0  # atno 10763 bound_to 10752
  154.5457  135.5689  153.6882 H   0  0  0  0  0  0  0  0  0  0  0  0  # atno 10764 bound_to 10752
  152.9979  135.6262  154.2666 H   0  0  0  0  0  0  0  0  0  0  0  0  # atno 10765 bound_to 10752
  140.0152  134.9421  157.0360 H   0  0  0  0  0  0  0  0  0  0  0  0  # atno 11005 bound_to 11000
  144.8294  139.5655  143.6951 LP  0  0  0  0  0  0  0  0  0  0  0  0  # atno 17320 bound_to 7965
  146.2693  139.6597  142.9307 LP  0  0  0  0  0  0  0  0  0  0  0  0  # atno 17321 bound_to 7965
  140.7593  143.3126  151.2808 LP  0  0  0  0  0  0  0  0  0  0  0  0  # atno 17342 bound_to 10162
  139.6656  144.0111  152.2721 LP  0  0  0  0  0  0  0  0  0  0  0  0  # atno 17343 bound_to 10162
  156.7431  130.9087  151.3633 LP  0  0  0  0  0  0  0  0  0  0  0  0  # atno 17370 bound_to 10713
  157.6809  130.9139  150.0264 LP  0  0  0  0  0  0  0  0  0  0  0  0  # atno 17371 bound_to 10713
  140.4484  134.1608  155.7179 LP  0  0  0  0  0  0  0  0  0  0  0  0  # atno 17394 bound_to 11000
  141.1738  133.8556  157.1488 LP  0  0  0  0  0  0  0  0  0  0  0  0  # atno 17395 bound_to 11000

$$$$
