AV-unprocessed.smi:381|AV-procd|sdf|2462|dock7
  -GOLD-   2262022403D 1   1.00000     0.00000
 Structure written by MMmdl.
 46 47  0  0  0  0  0  0  0  0  2 V2000
  146.6372  135.9763  155.6911 O   0  0  0  0  0  0  0  0  0  0  0  0
  147.2628  136.0414  154.6346 C   0  0  0  0  0  0  0  0  0  0  0  0
  146.8515  135.4556  153.4985 N   0  0  0  0  0  0  0  0  0  0  0  0
  145.6189  134.6919  153.3685 C   0  0  0  0  0  0  0  0  0  0  0  0
  145.9071  133.2780  152.8470 C   0  0  0  0  0  0  0  0  0  0  0  0
  145.2637  133.0276  151.4968 C   0  0  0  0  0  0  0  0  0  0  0  0
  146.0048  132.4402  150.4473 C   0  0  0  0  0  0  0  0  0  0  0  0
  145.3797  132.2083  149.2044 C   0  0  0  0  0  0  0  0  0  0  0  0
  144.0276  132.5709  149.0379 C   0  0  0  0  0  0  0  0  0  0  0  0
  143.3507  133.1320  150.0641 N   0  3  0  0  0  0  0  0  0  0  0  0
  143.9127  133.3687  151.2701 C   0  0  0  0  0  0  0  0  0  0  0  0
  148.4207  136.7194  154.5365 N   0  0  0  0  0  0  0  0  0  0  0  0
  149.1415  137.4648  155.5731 C   0  0  0  0  0  0  0  0  0  0  0  0
  148.8190  138.9672  155.3973 C   0  0  0  0  0  0  0  0  0  0  0  0
  149.5912  139.9453  156.3025 C   0  0  0  0  0  0  0  0  0  0  0  0
  150.8701  140.5516  155.6809 C   0  0  0  0  0  0  0  0  0  0  0  0
  152.1638  139.7476  155.9084 C   0  0  0  0  0  0  0  0  0  0  0  0
  152.5351  138.7194  154.8187 C   0  0  0  0  0  0  0  0  0  0  0  0
  151.4364  137.7316  154.3868 C   0  0  0  0  0  0  0  0  0  0  0  0
  150.6446  137.1040  155.5507 C   0  0  0  0  0  0  0  0  0  0  0  0
  147.4237  135.5581  152.6730 H   0  0  0  0  0  0  0  0  0  0  0  0
  145.1172  134.6368  154.3361 H   0  0  0  0  0  0  0  0  0  0  0  0
  144.9479  135.2161  152.6863 H   0  0  0  0  0  0  0  0  0  0  0  0
  146.9837  133.1201  152.7678 H   0  0  0  0  0  0  0  0  0  0  0  0
  145.5380  132.5349  153.5554 H   0  0  0  0  0  0  0  0  0  0  0  0
  147.0397  132.1658  150.5936 H   0  0  0  0  0  0  0  0  0  0  0  0
  145.9297  131.7570  148.3914 H   0  0  0  0  0  0  0  0  0  0  0  0
  143.4710  132.4291  148.1232 H   0  0  0  0  0  0  0  0  0  0  0  0
  143.2676  133.8181  152.0110 H   0  0  0  0  0  0  0  0  0  0  0  0
  148.8591  136.7150  153.6266 H   0  0  0  0  0  0  0  0  0  0  0  0
  148.7502  137.1747  156.5495 H   0  0  0  0  0  0  0  0  0  0  0  0
  148.9221  139.2741  154.3561 H   0  0  0  0  0  0  0  0  0  0  0  0
  147.7563  139.0899  155.6118 H   0  0  0  0  0  0  0  0  0  0  0  0
  148.9187  140.7802  156.5036 H   0  0  0  0  0  0  0  0  0  0  0  0
  149.7927  139.5032  157.2787 H   0  0  0  0  0  0  0  0  0  0  0  0
  150.7308  140.7756  154.6229 H   0  0  0  0  0  0  0  0  0  0  0  0
  151.0180  141.5212  156.1583 H   0  0  0  0  0  0  0  0  0  0  0  0
  152.9915  140.4557  155.9641 H   0  0  0  0  0  0  0  0  0  0  0  0
  152.1423  139.2795  156.8924 H   0  0  0  0  0  0  0  0  0  0  0  0
  152.8835  139.2507  153.9322 H   0  0  0  0  0  0  0  0  0  0  0  0
  153.3953  138.1508  155.1738 H   0  0  0  0  0  0  0  0  0  0  0  0
  150.7694  138.2201  153.6781 H   0  0  0  0  0  0  0  0  0  0  0  0
  151.9042  136.9335  153.8094 H   0  0  0  0  0  0  0  0  0  0  0  0
  151.0895  137.3653  156.5090 H   0  0  0  0  0  0  0  0  0  0  0  0
  150.7551  136.0202  155.5026 H   0  0  0  0  0  0  0  0  0  0  0  0
  142.3727  133.3860  149.9230 H   0  0  0  0  0  0  0  0  0  0  0  0
  1  2  2  0  0  0  0
  2  3  1  0  0  0  0
  2 12  1  0  0  0  0
  3  4  1  0  0  0  0
  3 21  1  0  0  0  0
  4  5  1  0  0  0  0
  4 22  1  0  0  0  0
  4 23  1  0  0  0  0
  5  6  1  0  0  0  0
  5 24  1  0  0  0  0
  5 25  1  0  0  0  0
  6 11  1  0  0  0  0
  6  7  2  0  0  0  0
  7  8  1  0  0  0  0
  7 26  1  0  0  0  0
  8  9  2  0  0  0  0
  8 27  1  0  0  0  0
  9 10  1  0  0  0  0
  9 28  1  0  0  0  0
 10 11  2  0  0  0  0
 10 46  1  0  0  0  0
 11 29  1  0  0  0  0
 12 13  1  0  0  0  0
 12 30  1  0  0  0  0
 13 20  1  0  0  0  0
 13 14  1  0  0  0  0
 13 31  1  0  0  0  0
 14 15  1  0  0  0  0
 14 32  1  0  0  0  0
 14 33  1  0  0  0  0
 15 16  1  0  0  0  0
 15 34  1  0  0  0  0
 15 35  1  0  0  0  0
 16 17  1  0  0  0  0
 16 36  1  0  0  0  0
 16 37  1  0  0  0  0
 17 18  1  0  0  0  0
 17 38  1  0  0  0  0
 17 39  1  0  0  0  0
 18 19  1  0  0  0  0
 18 40  1  0  0  0  0
 18 41  1  0  0  0  0
 19 20  1  0  0  0  0
 19 42  1  0  0  0  0
 19 43  1  0  0  0  0
 20 44  1  0  0  0  0
 20 45  1  0  0  0  0
M  CHG  1  10   1
M  END
> <s_m_source_file>
AV-unprocessed.smi

> <i_m_source_file_index>
381

> <i_lp_mmshare_version>
43012

> <i_f3d_flags>
0

> <s_epik_input>
W0NIMl0xW0NIMl1bQ0gyXVtDSDJdW0NIMl1bQ0gyXVtDSDJdW0NIXTFbTkhdQyg9TylbTkhdW0NIMl1bQ0gyXWMyW2NIXVtjSF1bY0hdbltjSF0y

> <s_epik_cmdline>
J2VwaWtfcHl0aG9uJywgJy1waCcsICc3LjAnLCAnLXRuJywgJzgnLCAnLW1hJywgJzIwMCcsICctbWV0YWxfYmluZGluZycsICctaW1hZScsICc8aW5maWxlLm1hZT4nLCAnLW9tYWUnLCAnPG91dGZpbGUubWFlPic=

> <r_epik_Ionization_Penalty>
2.21063

> <r_epik_Ionization_Penalty_Charging>
2.21057

> <r_epik_Ionization_Penalty_Neutral>
5.85974e-05

> <r_epik_State_Penalty>
2.35476

> <r_epik_Charging_Adjusted_Penalty>
4.56533

> <i_epik_Tot_Q>
1

> <i_epik_Tot_abs_Q>
1

> <r_epik_Metal_State_Penalty>
2.36886

> <b_epik_Metal_Only>
0

> <s_lp_Force_Field>
OPLS_2005

> <r_lp_Energy>
36.9097

> <b_lp_Chiralities_Consistent>
1

> <s_lp_Variant>
AV-unprocessed.smi:381-2

> <Gold.Version>
5.8.1

> <Gold.Id.Protein>
6NUR|6NUR_protein|mol2

> <Gold.PLP.Fitness>
45.8820

> <Gold.PLP.PLP>
-35.3657

> <Gold.PLP.part.hbond>
-3.0000

> <Gold.PLP.part.metal>
0.0000

> <Gold.PLP.part.buried>
-4.1555

> <Gold.PLP.part.nonpolar>
-28.8788

> <Gold.PLP.part.repulsive>
0.0702

> <Gold.PLP.ligand.clash>
0.0000

> <Gold.PLP.ligand.torsion>
0.7453

> <Gold.PLP.Chemscore.Hbond>
3.9920

> <Gold.PLP.Chemscore.CHOScore>
0.0000

> <Gold.PLP.Chemscore.Metal>
0.0000

> <Gold.Chemscore.Hbonds>
donor molecule, donor type, donor heavy atom, donor atom, acceptor molecule, acceptor atom, score
      L1  H     3    21       P1  7948  1.00
      L1  H    10    46       P1 10186  2.00
      L1  H    12    30       P1  7948  1.00

> <Gold.PLP.Chemscore.Internal.Correction>
0.0309

> <Gold.Rescore>
     Score         DG    S(hbond)    S(metal)    S(lipo)     H(rot)  DE(clash)    DE(int)     intcor
     21.96     -22.73       2.92        0.00      96.98       1.51       0.06       0.72       ----

> <Gold.Chemscore.Fitness>
21.9623

> <Gold.Chemscore.DG>
-22.7339

> <Gold.Chemscore.ZeroCoef>
-5.4800

> <Gold.Chemscore.Hbond>
2.9247

> <Gold.Chemscore.Metal>
0.0000

> <Gold.Chemscore.Lipo>
96.9831

> <Gold.Chemscore.Internal_Hbond>
0.0000

> <Gold.Chemscore.DEClash>
0.0557

> <Gold.Chemscore.DEInternal>
0.7159

> <Gold.Chemscore.Rot>
1.5085

> <Gold.Chemscore.Internal.Correction>
   9.000000E+99

> <Gold.Chemscore.Hbonds>
donor molecule, donor type, donor heavy atom, donor atom, acceptor molecule, acceptor atom, score
      L1  H     3    21       P1  7948  0.95
      L1  H    10    46       P1 10186  0.99
      L1  H    12    30       P1  7948  0.98

> <Gold.Chemscore.Hbond.Weighted>
-9.7686

> <Gold.Chemscore.Metal.Weighted>
-0.0000

> <Gold.Chemscore.Lipo.Weighted>
-11.3470

> <Gold.Chemscore.Internal_Hbond.Weighted>
0.0000

> <Gold.Chemscore.DEClash.Weighted>
0.0557

> <Gold.Chemscore.DEInternal.Weighted>
0.7159

> <Gold.Chemscore.Rot.Weighted>
3.8617

> <Gold.Chemscore.Internal.Correction.Weighted>
   9.000000E+99

> <Gold.Protein.RotatedTorsions>
[ 6907 6896 6895 6894 ] final  115.68 input  -60.11 | X-H torsion
[ 7974 7965 7964 7962 ] final   10.19 input  175.53 | X-H torsion
[ 8008 7997 7996 7995 ] final   14.70 input   59.86 | X-H torsion
[ 10167 10162 10161 10158 ] final -122.56 input  -65.29 | X-H torsion
[ 10718 10713 10712 10709 ] final  172.37 input   66.30 | X-H torsion
[ 10763 10752 10751 10750 ] final  114.69 input  -60.55 | X-H torsion
[ 11005 11000 10999 10996 ] final   41.92 input  -57.11 | X-H torsion

> <Gold.Protein.ActiveResidues>
 VAL166  LYS551  ARG553  GLY616  TRP617  ASP618  TYR619  PRO620  LYS621  CYS622 
 ASP623  PHE694  ASN695  SER759  ASP760  ASP761  ALA762  ILE779  LEU786  VAL792 
 PHE793  MET794  SER795  GLU796  ALA797  LYS798  CYS799  TRP800  GLU811  SER814 

> <Gold.Protein.RotatedAtoms>
  152.4726  133.8064  159.6979 H   0  0  0  0  0  0  0  0  0  0  0  0  # atno 6907 bound_to 6896
  150.8724  133.7477  159.2963 H   0  0  0  0  0  0  0  0  0  0  0  0  # atno 6908 bound_to 6896
  151.5008  135.1065  159.9880 H   0  0  0  0  0  0  0  0  0  0  0  0  # atno 6909 bound_to 6896
  146.2392  139.9672  142.8451 H   0  0  0  0  0  0  0  0  0  0  0  0  # atno 7974 bound_to 7965
  154.8522  140.2931  155.5591 H   0  0  0  0  0  0  0  0  0  0  0  0  # atno 8008 bound_to 7997
  156.3017  140.2494  156.3415 H   0  0  0  0  0  0  0  0  0  0  0  0  # atno 8009 bound_to 7997
  154.9009  140.0391  157.1881 H   0  0  0  0  0  0  0  0  0  0  0  0  # atno 8010 bound_to 7997
  140.0129  143.5423  152.2255 H   0  0  0  0  0  0  0  0  0  0  0  0  # atno 10167 bound_to 10162
  156.9799  131.0116  151.2884 H   0  0  0  0  0  0  0  0  0  0  0  0  # atno 10718 bound_to 10713
  153.5110  135.3618  155.2586 H   0  0  0  0  0  0  0  0  0  0  0  0  # atno 10763 bound_to 10752
  154.8742  135.4022  154.3369 H   0  0  0  0  0  0  0  0  0  0  0  0  # atno 10764 bound_to 10752
  153.4022  135.7075  153.6484 H   0  0  0  0  0  0  0  0  0  0  0  0  # atno 10765 bound_to 10752
  140.1788  134.4130  155.8212 H   0  0  0  0  0  0  0  0  0  0  0  0  # atno 11005 bound_to 11000
  145.1715  140.9723  143.4319 LP  0  0  0  0  0  0  0  0  0  0  0  0  # atno 17320 bound_to 7965
  145.0024  139.3586  143.6161 LP  0  0  0  0  0  0  0  0  0  0  0  0  # atno 17321 bound_to 7965
  139.6192  144.7626  151.2778 LP  0  0  0  0  0  0  0  0  0  0  0  0  # atno 17342 bound_to 10162
  140.7374  143.6679  150.8107 LP  0  0  0  0  0  0  0  0  0  0  0  0  # atno 17343 bound_to 10162
  157.5533  130.8197  149.8173 LP  0  0  0  0  0  0  0  0  0  0  0  0  # atno 17370 bound_to 10713
  156.0248  130.3783  150.1854 LP  0  0  0  0  0  0  0  0  0  0  0  0  # atno 17371 bound_to 10713
  141.2222  133.6990  156.7894 LP  0  0  0  0  0  0  0  0  0  0  0  0  # atno 17394 bound_to 11000
  140.2291  134.8699  157.3458 LP  0  0  0  0  0  0  0  0  0  0  0  0  # atno 17395 bound_to 11000

$$$$
