AV-unprocessed.smi:3253|AV-procd|sdf|12448|dock7
  -GOLD-   2272018343D 1   1.00000     0.00000
 Structure written by MMmdl.
 37 38  0  0  0  0  0  0  0  0  2 V2000
  153.7676  140.5714  159.7845 C   0  0  0  0  0  0  0  0  0  0  0  0
  152.6003  141.4868  159.3922 C   0  0  1  0  0  0  0  0  0  0  0  0
  152.9370  142.9701  159.6625 C   0  0  0  0  0  0  0  0  0  0  0  0
  151.7602  143.8456  159.6279 N   0  0  0  0  0  0  0  0  0  0  0  0
  151.3150  144.6806  160.6210 C   0  0  0  0  0  0  0  0  0  0  0  0
  150.1999  145.3104  160.1311 C   0  0  0  0  0  0  0  0  0  0  0  0
  150.0062  144.8267  158.8649 N   0  3  0  0  0  0  0  0  0  0  0  0
  150.9529  143.9323  158.5626 C   0  0  0  0  0  0  0  0  0  0  0  0
  152.2796  141.2684  157.9818 N   0  0  0  0  0  0  0  0  0  0  0  0
  151.9776  140.0856  157.4227 C   0  0  0  0  0  0  0  0  0  0  0  0
  151.9564  139.0268  158.0518 O   0  0  0  0  0  0  0  0  0  0  0  0
  151.6136  140.1041  155.9304 C   0  0  1  0  0  0  0  0  0  0  0  0
  152.3795  139.0222  155.1412 C   0  0  0  0  0  0  0  0  0  0  0  0
  151.3035  138.0196  154.7569 C   0  0  0  0  0  0  0  0  0  0  0  0
  151.5536  136.9464  154.2108 O   0  0  0  0  0  0  0  0  0  0  0  0
  150.0919  138.4626  155.1045 N   0  0  0  0  0  0  0  0  0  0  0  0
  148.8360  137.7514  154.9098 C   0  0  0  0  0  0  0  0  0  0  0  0
  150.1201  139.7875  155.6990 C   0  0  0  0  0  0  0  0  0  0  0  0
  154.0198  140.6866  160.8389 H   0  0  0  0  0  0  0  0  0  0  0  0
  154.6626  140.7952  159.2025 H   0  0  0  0  0  0  0  0  0  0  0  0
  153.5169  139.5228  159.6206 H   0  0  0  0  0  0  0  0  0  0  0  0
  151.7475  141.2001  160.0104 H   0  0  0  0  0  0  0  0  0  0  0  0
  153.3961  143.0826  160.6458 H   0  0  0  0  0  0  0  0  0  0  0  0
  153.6581  143.3425  158.9333 H   0  0  0  0  0  0  0  0  0  0  0  0
  151.8172  144.7701  161.5734 H   0  0  0  0  0  0  0  0  0  0  0  0
  149.5475  146.0474  160.5764 H   0  0  0  0  0  0  0  0  0  0  0  0
  151.0533  143.3967  157.6354 H   0  0  0  0  0  0  0  0  0  0  0  0
  152.2750  142.0846  157.3869 H   0  0  0  0  0  0  0  0  0  0  0  0
  151.8446  141.0890  155.5207 H   0  0  0  0  0  0  0  0  0  0  0  0
  152.8260  139.4380  154.2376 H   0  0  0  0  0  0  0  0  0  0  0  0
  153.1710  138.5356  155.7135 H   0  0  0  0  0  0  0  0  0  0  0  0
  148.6987  137.4941  153.8589 H   0  0  0  0  0  0  0  0  0  0  0  0
  147.9867  138.3597  155.2220 H   0  0  0  0  0  0  0  0  0  0  0  0
  148.8263  136.8303  155.4937 H   0  0  0  0  0  0  0  0  0  0  0  0
  149.5305  139.8082  156.6177 H   0  0  0  0  0  0  0  0  0  0  0  0
  149.6754  140.5031  155.0060 H   0  0  0  0  0  0  0  0  0  0  0  0
  149.2575  145.1061  158.2435 H   0  0  0  0  0  0  0  0  0  0  0  0
  1  2  1  0  0  0  0
  1 19  1  0  0  0  0
  1 20  1  0  0  0  0
  1 21  1  0  0  0  0
  2  3  1  0  0  0  0
  2  9  1  0  0  0  0
  2 22  1  0  0  0  0
  3  4  1  0  0  0  0
  3 23  1  0  0  0  0
  3 24  1  0  0  0  0
  4  8  1  0  0  0  0
  4  5  1  0  0  0  0
  5  6  2  0  0  0  0
  5 25  1  0  0  0  0
  6  7  1  0  0  0  0
  6 26  1  0  0  0  0
  7  8  2  0  0  0  0
  7 37  1  0  0  0  0
  8 27  1  0  0  0  0
  9 10  1  0  0  0  0
  9 28  1  0  0  0  0
 10 11  2  0  0  0  0
 10 12  1  0  0  0  0
 12 18  1  0  0  0  0
 12 13  1  0  0  0  0
 12 29  1  0  0  0  0
 13 14  1  0  0  0  0
 13 30  1  0  0  0  0
 13 31  1  0  0  0  0
 14 15  2  0  0  0  0
 14 16  1  0  0  0  0
 16 17  1  0  0  0  0
 16 18  1  0  0  0  0
 17 32  1  0  0  0  0
 17 33  1  0  0  0  0
 17 34  1  0  0  0  0
 18 35  1  0  0  0  0
 18 36  1  0  0  0  0
M  CHG  1   7   1
M  END
> <s_m_source_file>
AV-unprocessed.smi

> <i_m_source_file_index>
3253

> <i_lp_mmshare_version>
43012

> <i_f3d_flags>
0

> <s_epik_input>
W2NIXTFuW2NIXVtjSF1uMVtDSDJdW0NAQEhdKFtDSDNdKVtOSF1DKD1PKVtDQEBIXTJbQ0gyXUMoPU8pTihbQ0gzXSlbQ0gyXTI=

> <s_epik_cmdline>
J2VwaWtfcHl0aG9uJywgJy1waCcsICc3LjAnLCAnLXRuJywgJzgnLCAnLW1hJywgJzIwMCcsICctbWV0YWxfYmluZGluZycsICctaW1hZScsICc8aW5maWxlLm1hZT4nLCAnLW9tYWUnLCAnPG91dGZpbGUubWFlPic=

> <r_lp_tautomer_probability>
1

> <r_epik_Ionization_Penalty>
0.251561

> <r_epik_Ionization_Penalty_Charging>
0

> <r_epik_Ionization_Penalty_Neutral>
0.251561

> <r_epik_State_Penalty>
0.242926

> <r_epik_Charging_Adjusted_Penalty>
0.242926

> <i_epik_Tot_Q>
1

> <i_epik_Tot_abs_Q>
1

> <r_epik_Metal_State_Penalty>
0.533885

> <b_epik_Metal_Only>
0

> <s_lp_Force_Field>
OPLS_2005

> <r_lp_Energy>
13.8895

> <b_lp_Chiralities_Consistent>
1

> <s_lp_Variant>
AV-unprocessed.smi:3253-4

> <Gold.Version>
5.8.1

> <Gold.Id.Protein>
6NUR|6NUR_protein|mol2

> <Gold.PLP.Fitness>
45.8486

> <Gold.PLP.PLP>
-37.4187

> <Gold.PLP.part.hbond>
-2.0000

> <Gold.PLP.part.metal>
0.0000

> <Gold.PLP.part.buried>
-3.2231

> <Gold.PLP.part.nonpolar>
-34.9409

> <Gold.PLP.part.repulsive>
1.7773

> <Gold.PLP.ligand.clash>
0.0000

> <Gold.PLP.ligand.torsion>
0.2956

> <Gold.PLP.Chemscore.Hbond>
3.0000

> <Gold.PLP.Chemscore.CHOScore>
0.0000

> <Gold.PLP.Chemscore.Metal>
0.0000

> <Gold.Chemscore.Hbonds>
donor molecule, donor type, donor heavy atom, donor atom, acceptor molecule, acceptor atom, score
      L1  H     7    37       P1  8029  2.00
      P1  H 10752 10763       L1    15  1.00

> <Gold.PLP.Chemscore.Internal.Correction>
0.0210

> <Gold.Rescore>
     Score         DG    S(hbond)    S(metal)    S(lipo)     H(rot)  DE(clash)    DE(int)     intcor
     14.00     -15.16       1.88        0.00      73.62       2.03       0.06       1.09       ----

> <Gold.Chemscore.Fitness>
14.0042

> <Gold.Chemscore.DG>
-15.1576

> <Gold.Chemscore.ZeroCoef>
-5.4800

> <Gold.Chemscore.Hbond>
1.8776

> <Gold.Chemscore.Metal>
0.0000

> <Gold.Chemscore.Lipo>
73.6213

> <Gold.Chemscore.Internal_Hbond>
0.0000

> <Gold.Chemscore.DEClash>
0.0591

> <Gold.Chemscore.DEInternal>
1.0942

> <Gold.Chemscore.Rot>
2.0341

> <Gold.Chemscore.Internal.Correction>
   9.000000E+99

> <Gold.Chemscore.Hbonds>
donor molecule, donor type, donor heavy atom, donor atom, acceptor molecule, acceptor atom, score
      L1  H     7    37       P1  8029  0.55
      P1  H 10752 10763       L1    15  1.00

> <Gold.Chemscore.Hbond.Weighted>
-6.2711

> <Gold.Chemscore.Metal.Weighted>
-0.0000

> <Gold.Chemscore.Lipo.Weighted>
-8.6137

> <Gold.Chemscore.Internal_Hbond.Weighted>
0.0000

> <Gold.Chemscore.DEClash.Weighted>
0.0591

> <Gold.Chemscore.DEInternal.Weighted>
1.0942

> <Gold.Chemscore.Rot.Weighted>
5.2072

> <Gold.Chemscore.Internal.Correction.Weighted>
   9.000000E+99

> <Gold.Protein.RotatedTorsions>
[ 6907 6896 6895 6894 ] final    0.17 input  -60.11 | X-H torsion
[ 7974 7965 7964 7962 ] final  171.98 input  175.53 | X-H torsion
[ 8008 7997 7996 7995 ] final  -84.56 input   59.86 | X-H torsion
[ 10167 10162 10161 10158 ] final  139.96 input  -65.29 | X-H torsion
[ 10718 10713 10712 10709 ] final   74.94 input   66.30 | X-H torsion
[ 10763 10752 10751 10750 ] final   34.96 input  -60.55 | X-H torsion
[ 11005 11000 10999 10996 ] final   84.52 input  -57.11 | X-H torsion

> <Gold.Protein.ActiveResidues>
 VAL166  LYS551  ARG553  GLY616  TRP617  ASP618  TYR619  PRO620  LYS621  CYS622 
 ASP623  PHE694  ASN695  SER759  ASP760  ASP761  ALA762  ILE779  LEU786  VAL792 
 PHE793  MET794  SER795  GLU796  ALA797  LYS798  CYS799  TRP800  GLU811  SER814 

> <Gold.Protein.RotatedAtoms>
  151.5721  135.1062  159.9997 H   0  0  0  0  0  0  0  0  0  0  0  0  # atno 6907 bound_to 6896
  152.4396  133.7419  159.6656 H   0  0  0  0  0  0  0  0  0  0  0  0  # atno 6908 bound_to 6896
  150.8299  133.8040  159.3126 H   0  0  0  0  0  0  0  0  0  0  0  0  # atno 6909 bound_to 6896
  144.7280  139.9431  143.6429 H   0  0  0  0  0  0  0  0  0  0  0  0  # atno 7974 bound_to 7965
  154.6311  140.0603  156.9733 H   0  0  0  0  0  0  0  0  0  0  0  0  # atno 8008 bound_to 7997
  155.1664  140.3287  155.4383 H   0  0  0  0  0  0  0  0  0  0  0  0  # atno 8009 bound_to 7997
  156.2483  140.1922  156.6768 H   0  0  0  0  0  0  0  0  0  0  0  0  # atno 8010 bound_to 7997
  139.5063  144.6263  151.5928 H   0  0  0  0  0  0  0  0  0  0  0  0  # atno 10167 bound_to 10162
  157.6613  130.9702  150.1283 H   0  0  0  0  0  0  0  0  0  0  0  0  # atno 10718 bound_to 10713
  153.0140  135.6346  154.1750 H   0  0  0  0  0  0  0  0  0  0  0  0  # atno 10763 bound_to 10752
  154.1491  135.2830  155.3142 H   0  0  0  0  0  0  0  0  0  0  0  0  # atno 10764 bound_to 10752
  154.6067  135.5570  153.7491 H   0  0  0  0  0  0  0  0  0  0  0  0  # atno 10765 bound_to 10752
  139.8998  134.8222  156.2456 H   0  0  0  0  0  0  0  0  0  0  0  0  # atno 11005 bound_to 11000
  146.0769  139.3757  143.0488 LP  0  0  0  0  0  0  0  0  0  0  0  0  # atno 17320 bound_to 7965
  145.7893  140.9822  143.1058 LP  0  0  0  0  0  0  0  0  0  0  0  0  # atno 17321 bound_to 7965
  140.5981  143.9658  150.6368 LP  0  0  0  0  0  0  0  0  0  0  0  0  # atno 17342 bound_to 10162
  140.2861  143.3356  152.1106 LP  0  0  0  0  0  0  0  0  0  0  0  0  # atno 17343 bound_to 10162
  156.2136  130.3668  149.8640 LP  0  0  0  0  0  0  0  0  0  0  0  0  # atno 17370 bound_to 10713
  156.6512  130.8744  151.3531 LP  0  0  0  0  0  0  0  0  0  0  0  0  # atno 17371 bound_to 10713
  141.0257  133.7016  156.1343 LP  0  0  0  0  0  0  0  0  0  0  0  0  # atno 17394 bound_to 11000
  140.7170  134.4400  157.5578 LP  0  0  0  0  0  0  0  0  0  0  0  0  # atno 17395 bound_to 11000

$$$$
