AV-unprocessed.smi:2351|AV-procd|sdf|9375|dock1
  -GOLD-   2272013 03D 1   1.00000     0.00000
 Structure written by MMmdl.
 47 49  0  0  0  0  0  0  0  0  2 V2000
  150.8233  136.5863  156.0255 O   0  0  0  0  0  0  0  0  0  0  0  0
  150.2601  136.4171  154.9443 C   0  0  0  0  0  0  0  0  0  0  0  0
  149.9098  135.2290  154.4224 N   0  0  0  0  0  0  0  0  0  0  0  0
  150.0761  133.9279  154.9717 C   0  0  0  0  0  0  0  0  0  0  0  0
  150.7227  133.6579  156.2024 C   0  0  0  0  0  0  0  0  0  0  0  0
  150.8334  132.3183  156.6265 C   0  0  0  0  0  0  0  0  0  0  0  0
  150.3615  131.2711  155.9173 N   0  0  0  0  0  0  0  0  0  0  0  0
  149.7578  131.5313  154.7385 C   0  0  0  0  0  0  0  0  0  0  0  0
  149.5955  132.8328  154.2228 C   0  0  0  0  0  0  0  0  0  0  0  0
  148.9828  133.0237  153.0293 F   0  0  0  0  0  0  0  0  0  0  0  0
  149.9003  137.4256  154.1369 N   0  0  0  0  0  0  0  0  0  0  0  0
  150.0974  138.8431  154.4264 C   0  0  2  0  0  0  0  0  0  0  0  0
  151.5068  139.0712  154.9939 C   0  0  0  0  0  0  0  0  0  0  0  0
  151.7182  140.5455  155.3776 C   0  0  0  0  0  0  0  0  0  0  0  0
  150.6877  141.0035  156.3458 N   0  3  1  0  0  0  0  0  0  0  0  0
  150.9401  142.3811  156.8441 C   0  0  0  0  0  0  0  0  0  0  0  0
  151.7158  142.3853  158.1753 C   0  0  1  0  0  0  0  0  0  0  0  0
  152.2423  143.7543  158.5587 C   0  0  0  0  0  0  0  0  0  0  0  0
  152.5361  143.5811  160.0452 C   0  0  0  0  0  0  0  0  0  0  0  0
  151.5877  142.6294  160.5174 O   0  0  0  0  0  0  0  0  0  0  0  0
  150.8948  142.0437  159.4203 C   0  0  0  0  0  0  0  0  0  0  0  0
  149.3145  140.8221  155.8049 C   0  0  0  0  0  0  0  0  0  0  0  0
  149.0511  139.3534  155.4332 C   0  0  0  0  0  0  0  0  0  0  0  0
  149.3944  135.2613  153.5551 H   0  0  0  0  0  0  0  0  0  0  0  0
  151.1419  134.4377  156.8188 H   0  0  0  0  0  0  0  0  0  0  0  0
  151.3211  132.0814  157.5605 H   0  0  0  0  0  0  0  0  0  0  0  0
  149.3942  130.6761  154.1882 H   0  0  0  0  0  0  0  0  0  0  0  0
  149.4404  137.1964  153.2678 H   0  0  0  0  0  0  0  0  0  0  0  0
  150.0072  139.4128  153.4992 H   0  0  0  0  0  0  0  0  0  0  0  0
  151.6609  138.4426  155.8725 H   0  0  0  0  0  0  0  0  0  0  0  0
  152.2580  138.7707  154.2625 H   0  0  0  0  0  0  0  0  0  0  0  0
  152.7110  140.6577  155.8155 H   0  0  0  0  0  0  0  0  0  0  0  0
  151.6892  141.1754  154.4872 H   0  0  0  0  0  0  0  0  0  0  0  0
  151.5455  142.9223  156.1151 H   0  0  0  0  0  0  0  0  0  0  0  0
  150.0082  142.9432  156.9247 H   0  0  0  0  0  0  0  0  0  0  0  0
  152.5638  141.7014  158.1076 H   0  0  0  0  0  0  0  0  0  0  0  0
  153.1214  144.0528  157.9865 H   0  0  0  0  0  0  0  0  0  0  0  0
  151.4705  144.5128  158.4181 H   0  0  0  0  0  0  0  0  0  0  0  0
  153.5373  143.1741  160.1912 H   0  0  0  0  0  0  0  0  0  0  0  0
  152.4683  144.5200  160.5952 H   0  0  0  0  0  0  0  0  0  0  0  0
  149.9014  142.4912  159.3653 H   0  0  0  0  0  0  0  0  0  0  0  0
  150.7769  140.9694  159.5621 H   0  0  0  0  0  0  0  0  0  0  0  0
  148.5742  141.1428  156.5362 H   0  0  0  0  0  0  0  0  0  0  0  0
  149.1820  141.4567  154.9270 H   0  0  0  0  0  0  0  0  0  0  0  0
  148.0476  139.2568  155.0165 H   0  0  0  0  0  0  0  0  0  0  0  0
  149.0717  138.7405  156.3355 H   0  0  0  0  0  0  0  0  0  0  0  0
  150.7718  140.3942  157.1471 H   0  0  0  0  0  0  0  0  0  0  0  0
  1  2  2  0  0  0  0
  2  3  1  0  0  0  0
  2 11  1  0  0  0  0
  3  4  1  0  0  0  0
  3 24  1  0  0  0  0
  4  9  1  0  0  0  0
  4  5  2  0  0  0  0
  5  6  1  0  0  0  0
  5 25  1  0  0  0  0
  6  7  2  0  0  0  0
  6 26  1  0  0  0  0
  7  8  1  0  0  0  0
  8  9  2  0  0  0  0
  8 27  1  0  0  0  0
  9 10  1  0  0  0  0
 11 12  1  0  0  0  0
 11 28  1  0  0  0  0
 12 23  1  0  0  0  0
 12 13  1  0  0  0  0
 12 29  1  0  0  0  0
 13 14  1  0  0  0  0
 13 30  1  0  0  0  0
 13 31  1  0  0  0  0
 14 15  1  0  0  0  0
 14 32  1  0  0  0  0
 14 33  1  0  0  0  0
 15 16  1  0  0  0  0
 15 22  1  0  0  0  0
 15 47  1  0  0  0  0
 16 17  1  0  0  0  0
 16 34  1  0  0  0  0
 16 35  1  0  0  0  0
 17 21  1  0  0  0  0
 17 18  1  0  0  0  0
 17 36  1  0  0  0  0
 18 19  1  0  0  0  0
 18 37  1  0  0  0  0
 18 38  1  0  0  0  0
 19 20  1  0  0  0  0
 19 39  1  0  0  0  0
 19 40  1  0  0  0  0
 20 21  1  0  0  0  0
 21 41  1  0  0  0  0
 21 42  1  0  0  0  0
 22 23  1  0  0  0  0
 22 43  1  0  0  0  0
 22 44  1  0  0  0  0
 23 45  1  0  0  0  0
 23 46  1  0  0  0  0
M  CHG  1  15   1
M  END
> <s_m_source_file>
AV-unprocessed.smi

> <i_m_source_file_index>
2351

> <i_lp_mmshare_version>
43012

> <i_f3d_flags>
0

> <s_epik_input>
RmMxW2NIXW5bY0hdW2NIXWMxW05IXUMoPU8pW05IXVtDSF0yW0NIMl1bQ0gyXU4oW0NIMl1bQ0gyXTIpW0NIMl1bQ0BASF0zW0NIMl1bQ0gyXU9bQ0gyXTM=

> <s_epik_cmdline>
J2VwaWtfcHl0aG9uJywgJy1waCcsICc3LjAnLCAnLXRuJywgJzgnLCAnLW1hJywgJzIwMCcsICctbWV0YWxfYmluZGluZycsICctaW1hZScsICc8aW5maWxlLm1hZT4nLCAnLW9tYWUnLCAnPG91dGZpbGUubWFlPic=

> <r_epik_Ionization_Penalty>
0.0102464

> <r_epik_Ionization_Penalty_Charging>
0.00747775

> <r_epik_Ionization_Penalty_Neutral>
0.00276864

> <r_epik_State_Penalty>
0.00558817

> <r_epik_Charging_Adjusted_Penalty>
0.0130659

> <i_epik_Tot_Q>
1

> <i_epik_Tot_abs_Q>
1

> <r_epik_Metal_State_Penalty>
-0

> <b_epik_Metal_Only>
0

> <s_lp_Force_Field>
OPLS_2005

> <r_lp_Energy>
39.8259

> <b_lp_Chiralities_Consistent>
1

> <s_lp_Variant>
AV-unprocessed.smi:2351-2

> <Gold.Version>
5.8.1

> <Gold.Id.Protein>
6NUR|6NUR_protein|mol2

> <Gold.PLP.Fitness>
42.9686

> <Gold.PLP.PLP>
-38.9697

> <Gold.PLP.part.hbond>
-2.9512

> <Gold.PLP.part.metal>
0.0000

> <Gold.PLP.part.buried>
-1.5325

> <Gold.PLP.part.nonpolar>
-34.3031

> <Gold.PLP.part.repulsive>
0.2422

> <Gold.PLP.ligand.clash>
0.0000

> <Gold.PLP.ligand.torsion>
0.8570

> <Gold.PLP.Chemscore.Hbond>
1.8960

> <Gold.PLP.Chemscore.CHOScore>
0.0000

> <Gold.PLP.Chemscore.Metal>
0.0000

> <Gold.Chemscore.Hbonds>
donor molecule, donor type, donor heavy atom, donor atom, acceptor molecule, acceptor atom, score
      L1  H     3    24       P1  7948  0.83
      L1  H    11    28       P1  7948  1.00

> <Gold.PLP.Chemscore.Internal.Correction>
0.0249

> <Gold.Rescore>
     Score         DG    S(hbond)    S(metal)    S(lipo)     H(rot)  DE(clash)    DE(int)     intcor
     14.92     -19.38       1.58        0.00     105.37       1.45       0.95       3.52       ----

> <Gold.Chemscore.Fitness>
14.9159

> <Gold.Chemscore.DG>
-19.3831

> <Gold.Chemscore.ZeroCoef>
-5.4800

> <Gold.Chemscore.Hbond>
1.5817

> <Gold.Chemscore.Metal>
0.0000

> <Gold.Chemscore.Lipo>
105.3676

> <Gold.Chemscore.Internal_Hbond>
0.0000

> <Gold.Chemscore.DEClash>
0.9456

> <Gold.Chemscore.DEInternal>
3.5215

> <Gold.Chemscore.Rot>
1.4483

> <Gold.Chemscore.Internal.Correction>
   9.000000E+99

> <Gold.Chemscore.Hbonds>
donor molecule, donor type, donor heavy atom, donor atom, acceptor molecule, acceptor atom, score
      L1  H     3    24       P1  7948  0.13
      L1  H    11    28       P1  7948  0.90

> <Gold.Chemscore.Hbond.Weighted>
-5.2828

> <Gold.Chemscore.Metal.Weighted>
-0.0000

> <Gold.Chemscore.Lipo.Weighted>
-12.3280

> <Gold.Chemscore.Internal_Hbond.Weighted>
0.0000

> <Gold.Chemscore.DEClash.Weighted>
0.9456

> <Gold.Chemscore.DEInternal.Weighted>
3.5215

> <Gold.Chemscore.Rot.Weighted>
3.7077

> <Gold.Chemscore.Internal.Correction.Weighted>
   9.000000E+99

> <Gold.Protein.RotatedTorsions>
[ 6907 6896 6895 6894 ] final   16.74 input  -60.11 | X-H torsion
[ 7974 7965 7964 7962 ] final  155.36 input  175.53 | X-H torsion
[ 8008 7997 7996 7995 ] final -111.05 input   59.86 | X-H torsion
[ 10167 10162 10161 10158 ] final -179.97 input  -65.29 | X-H torsion
[ 10718 10713 10712 10709 ] final -131.51 input   66.30 | X-H torsion
[ 10763 10752 10751 10750 ] final  153.24 input  -60.55 | X-H torsion
[ 11005 11000 10999 10996 ] final   56.94 input  -57.11 | X-H torsion

> <Gold.Protein.ActiveResidues>
 VAL166  LYS551  ARG553  GLY616  TRP617  ASP618  TYR619  PRO620  LYS621  CYS622 
 ASP623  PHE694  ASN695  SER759  ASP760  ASP761  ALA762  ILE779  LEU786  VAL792 
 PHE793  MET794  SER795  GLU796  ALA797  LYS798  CYS799  TRP800  GLU811  SER814 

> <Gold.Protein.RotatedAtoms>
  151.8386  135.0597  160.0445 H   0  0  0  0  0  0  0  0  0  0  0  0  # atno 6907 bound_to 6896
  152.2826  133.5480  159.5515 H   0  0  0  0  0  0  0  0  0  0  0  0  # atno 6908 bound_to 6896
  150.7196  134.0459  159.3824 H   0  0  0  0  0  0  0  0  0  0  0  0  # atno 6909 bound_to 6896
  144.8030  139.7058  143.6174 H   0  0  0  0  0  0  0  0  0  0  0  0  # atno 7974 bound_to 7965
  154.9839  140.0396  157.2290 H   0  0  0  0  0  0  0  0  0  0  0  0  # atno 8008 bound_to 7997
  154.7689  140.2798  155.6131 H   0  0  0  0  0  0  0  0  0  0  0  0  # atno 8009 bound_to 7997
  156.2917  140.2614  156.2487 H   0  0  0  0  0  0  0  0  0  0  0  0  # atno 8010 bound_to 7997
  139.5362  144.2491  152.0799 H   0  0  0  0  0  0  0  0  0  0  0  0  # atno 10167 bound_to 10162
  156.2251  130.7003  151.0798 H   0  0  0  0  0  0  0  0  0  0  0  0  # atno 10718 bound_to 10713
  154.1330  135.2825  155.3180 H   0  0  0  0  0  0  0  0  0  0  0  0  # atno 10763 bound_to 10752
  154.6342  135.5425  153.7718 H   0  0  0  0  0  0  0  0  0  0  0  0  # atno 10764 bound_to 10752
  153.0275  135.6470  154.1479 H   0  0  0  0  0  0  0  0  0  0  0  0  # atno 10765 bound_to 10752
  140.0490  134.5764  155.9286 H   0  0  0  0  0  0  0  0  0  0  0  0  # atno 11005 bound_to 11000
  146.2315  139.5823  142.9552 LP  0  0  0  0  0  0  0  0  0  0  0  0  # atno 17320 bound_to 7965
  145.5507  141.0413  143.2280 LP  0  0  0  0  0  0  0  0  0  0  0  0  # atno 17321 bound_to 7965
  140.1962  144.4703  150.6454 LP  0  0  0  0  0  0  0  0  0  0  0  0  # atno 17342 bound_to 10162
  140.6570  143.2240  151.5946 LP  0  0  0  0  0  0  0  0  0  0  0  0  # atno 17343 bound_to 10162
  157.7106  131.0736  150.6512 LP  0  0  0  0  0  0  0  0  0  0  0  0  # atno 17370 bound_to 10713
  156.6577  130.4503  149.5698 LP  0  0  0  0  0  0  0  0  0  0  0  0  # atno 17371 bound_to 10713
  141.1921  133.6574  156.5487 LP  0  0  0  0  0  0  0  0  0  0  0  0  # atno 17394 bound_to 11000
  140.3947  134.7409  157.4743 LP  0  0  0  0  0  0  0  0  0  0  0  0  # atno 17395 bound_to 11000

$$$$
