AV-unprocessed.smi:2360|AV-procd|sdf|9410|dock2
  -GOLD-   2272013 43D 1   1.00000     0.00000
 Structure written by MMmdl.
 34 35  0  0  0  0  0  0  0  0  1 V2000
  146.0848  141.5737  155.4607 C   0  0  0  0  0  0  0  0  0  0  0  0
  147.5744  141.2995  155.5677 C   0  0  0  0  0  0  0  0  0  0  0  0
  148.2337  141.9472  156.6162 N   0  0  0  0  0  0  0  0  0  0  0  0
  149.5032  141.7717  156.7851 C   0  0  0  0  0  0  0  0  0  0  0  0
  150.2541  140.9411  155.9360 N   0  0  0  0  0  0  0  0  0  0  0  0
  151.6899  140.8188  156.2438 C   0  0  0  0  0  0  0  0  0  0  0  0
  151.9402  140.2307  157.6513 C   0  0  1  0  0  0  0  0  0  0  0  0
  153.0886  139.4077  157.6097 O   0  0  0  0  0  0  0  0  0  0  0  0
  152.0977  141.3359  158.6847 C   0  0  0  0  0  0  0  0  0  0  0  0
  152.4254  141.0267  160.0235 C   0  0  0  0  0  0  0  0  0  0  0  0
  152.5769  142.0554  160.9734 C   0  0  0  0  0  0  0  0  0  0  0  0
  152.4031  143.3994  160.5908 C   0  0  0  0  0  0  0  0  0  0  0  0
  152.5495  144.3875  161.5051 F   0  0  0  0  0  0  0  0  0  0  0  0
  152.0781  143.7139  159.2569 C   0  0  0  0  0  0  0  0  0  0  0  0
  151.9111  145.0056  158.8858 F   0  0  0  0  0  0  0  0  0  0  0  0
  151.9272  142.6850  158.3066 C   0  0  0  0  0  0  0  0  0  0  0  0
  149.6895  140.2732  154.8888 C   0  0  0  0  0  0  0  0  0  0  0  0
  150.3547  139.5471  154.1478 O   0  0  0  0  0  0  0  0  0  0  0  0
  148.2430  140.4805  154.7107 C   0  0  0  0  0  0  0  0  0  0  0  0
  147.5774  139.7481  153.5522 C   0  0  0  0  0  0  0  0  0  0  0  0
  145.5178  140.6481  155.5622 H   0  0  0  0  0  0  0  0  0  0  0  0
  145.8479  142.0246  154.4969 H   0  0  0  0  0  0  0  0  0  0  0  0
  145.7494  142.2576  156.2411 H   0  0  0  0  0  0  0  0  0  0  0  0
  150.0640  142.2483  157.5910 H   0  0  0  0  0  0  0  0  0  0  0  0
  152.2264  140.2464  155.4847 H   0  0  0  0  0  0  0  0  0  0  0  0
  152.1371  141.8138  156.1901 H   0  0  0  0  0  0  0  0  0  0  0  0
  151.0981  139.6041  157.9480 H   0  0  0  0  0  0  0  0  0  0  0  0
  152.8267  138.5398  157.3433 H   0  0  0  0  0  0  0  0  0  0  0  0
  152.5638  139.9987  160.3251 H   0  0  0  0  0  0  0  0  0  0  0  0
  152.8277  141.8131  161.9956 H   0  0  0  0  0  0  0  0  0  0  0  0
  151.6808  142.9373  157.2856 H   0  0  0  0  0  0  0  0  0  0  0  0
  148.0223  140.0586  152.6065 H   0  0  0  0  0  0  0  0  0  0  0  0
  146.5061  139.9304  153.4868 H   0  0  0  0  0  0  0  0  0  0  0  0
  147.7203  138.6721  153.6562 H   0  0  0  0  0  0  0  0  0  0  0  0
  1  2  1  0  0  0  0
  1 21  1  0  0  0  0
  1 22  1  0  0  0  0
  1 23  1  0  0  0  0
  2 19  2  0  0  0  0
  2  3  1  0  0  0  0
  3  4  2  0  0  0  0
  4  5  1  0  0  0  0
  4 24  1  0  0  0  0
  5  6  1  0  0  0  0
  5 17  1  0  0  0  0
  6  7  1  0  0  0  0
  6 25  1  0  0  0  0
  6 26  1  0  0  0  0
  7  8  1  0  0  0  0
  7  9  1  0  0  0  0
  7 27  1  0  0  0  0
  8 28  1  0  0  0  0
  9 16  1  0  0  0  0
  9 10  2  0  0  0  0
 10 11  1  0  0  0  0
 10 29  1  0  0  0  0
 11 12  2  0  0  0  0
 11 30  1  0  0  0  0
 12 13  1  0  0  0  0
 12 14  1  0  0  0  0
 14 15  1  0  0  0  0
 14 16  2  0  0  0  0
 16 31  1  0  0  0  0
 17 18  2  0  0  0  0
 17 19  1  0  0  0  0
 19 20  1  0  0  0  0
 20 32  1  0  0  0  0
 20 33  1  0  0  0  0
 20 34  1  0  0  0  0
M  END
> <s_m_source_file>
AV-unprocessed.smi

> <i_m_source_file_index>
2360

> <i_lp_mmshare_version>
43012

> <i_f3d_flags>
0

> <s_epik_input>
W0NIM11jMW5bY0hdbihjKD1PKWMxW0NIM10pW0NIMl1bQ0BIXShbT0hdKWMyW2NIXVtjSF1jKEYpYyhGKVtjSF0y

> <s_epik_cmdline>
J2VwaWtfcHl0aG9uJywgJy1waCcsICc3LjAnLCAnLXRuJywgJzgnLCAnLW1hJywgJzIwMCcsICctbWV0YWxfYmluZGluZycsICctaW1hZScsICc8aW5maWxlLm1hZT4nLCAnLW9tYWUnLCAnPG91dGZpbGUubWFlPic=

> <r_lp_tautomer_probability>
1

> <r_epik_Ionization_Penalty>
5.07449e-05

> <r_epik_Ionization_Penalty_Charging>
7.56727e-08

> <r_epik_Ionization_Penalty_Neutral>
5.06692e-05

> <r_epik_State_Penalty>
-0

> <r_epik_Charging_Adjusted_Penalty>
7.56727e-08

> <i_epik_Tot_Q>
0

> <i_epik_Tot_abs_Q>
0

> <r_epik_Metal_State_Penalty>
-0

> <b_epik_Metal_Only>
0

> <s_lp_Force_Field>
OPLS_2005

> <r_lp_Energy>
19.5716

> <b_lp_Chiralities_Consistent>
1

> <s_lp_Variant>
AV-unprocessed.smi:2360-2

> <Gold.Version>
5.8.1

> <Gold.Id.Protein>
6NUR|6NUR_protein|mol2

> <Gold.PLP.Fitness>
44.3028

> <Gold.PLP.PLP>
-39.3101

> <Gold.PLP.part.hbond>
-2.0000

> <Gold.PLP.part.metal>
0.0000

> <Gold.PLP.part.buried>
-4.5733

> <Gold.PLP.part.nonpolar>
-33.9148

> <Gold.PLP.part.repulsive>
1.5981

> <Gold.PLP.ligand.clash>
0.0000

> <Gold.PLP.ligand.torsion>
0.5097

> <Gold.PLP.Chemscore.Hbond>
2.0000

> <Gold.PLP.Chemscore.CHOScore>
0.0000

> <Gold.PLP.Chemscore.Metal>
0.0000

> <Gold.Chemscore.Hbonds>
donor molecule, donor type, donor heavy atom, donor atom, acceptor molecule, acceptor atom, score
      P1  H  7989  7998       L1    18  0.95
      P1  H  7997  8009       L1     8  1.00

> <Gold.PLP.Chemscore.Internal.Correction>
0.0121

> <Gold.Rescore>
     Score         DG    S(hbond)    S(metal)    S(lipo)     H(rot)  DE(clash)    DE(int)     intcor
     15.50     -16.97       1.90        0.00      90.02       2.11       0.95       0.52       ----

> <Gold.Chemscore.Fitness>
15.4969

> <Gold.Chemscore.DG>
-16.9668

> <Gold.Chemscore.ZeroCoef>
-5.4800

> <Gold.Chemscore.Hbond>
1.9030

> <Gold.Chemscore.Metal>
0.0000

> <Gold.Chemscore.Lipo>
90.0156

> <Gold.Chemscore.Internal_Hbond>
0.0000

> <Gold.Chemscore.DEClash>
0.9532

> <Gold.Chemscore.DEInternal>
0.5167

> <Gold.Chemscore.Rot>
2.1097

> <Gold.Chemscore.Internal.Correction>
   9.000000E+99

> <Gold.Chemscore.Hbonds>
donor molecule, donor type, donor heavy atom, donor atom, acceptor molecule, acceptor atom, score
      P1  H  7989  7998       L1    18  0.21
      P1  H  7997  8009       L1     8  0.93

> <Gold.Chemscore.Hbond.Weighted>
-6.3559

> <Gold.Chemscore.Metal.Weighted>
-0.0000

> <Gold.Chemscore.Lipo.Weighted>
-10.5318

> <Gold.Chemscore.Internal_Hbond.Weighted>
0.0000

> <Gold.Chemscore.DEClash.Weighted>
0.9532

> <Gold.Chemscore.DEInternal.Weighted>
0.5167

> <Gold.Chemscore.Rot.Weighted>
5.4009

> <Gold.Chemscore.Internal.Correction.Weighted>
   9.000000E+99

> <Gold.Protein.RotatedTorsions>
[ 6907 6896 6895 6894 ] final -162.02 input  -60.11 | X-H torsion
[ 7974 7965 7964 7962 ] final   79.94 input  175.53 | X-H torsion
[ 8008 7997 7996 7995 ] final  159.22 input   59.86 | X-H torsion
[ 10167 10162 10161 10158 ] final  140.47 input  -65.29 | X-H torsion
[ 10718 10713 10712 10709 ] final -133.02 input   66.30 | X-H torsion
[ 10763 10752 10751 10750 ] final   72.07 input  -60.55 | X-H torsion
[ 11005 11000 10999 10996 ] final   -6.71 input  -57.11 | X-H torsion

> <Gold.Protein.ActiveResidues>
 VAL166  LYS551  ARG553  GLY616  TRP617  ASP618  TYR619  PRO620  LYS621  CYS622 
 ASP623  PHE694  ASN695  SER759  ASP760  ASP761  ALA762  ILE779  LEU786  VAL792 
 PHE793  MET794  SER795  GLU796  ALA797  LYS798  CYS799  TRP800  GLU811  SER814 

> <Gold.Protein.RotatedAtoms>
  151.3737  133.3845  159.2702 H   0  0  0  0  0  0  0  0  0  0  0  0  # atno 6907 bound_to 6896
  150.9631  134.9017  159.7753 H   0  0  0  0  0  0  0  0  0  0  0  0  # atno 6908 bound_to 6896
  152.5157  134.3697  159.9366 H   0  0  0  0  0  0  0  0  0  0  0  0  # atno 6909 bound_to 6896
  145.6576  139.2463  143.1941 H   0  0  0  0  0  0  0  0  0  0  0  0  # atno 7974 bound_to 7965
  156.2253  140.1837  156.7379 H   0  0  0  0  0  0  0  0  0  0  0  0  # atno 8008 bound_to 7997
  154.5930  140.0648  156.9293 H   0  0  0  0  0  0  0  0  0  0  0  0  # atno 8009 bound_to 7997
  155.2303  140.3314  155.4306 H   0  0  0  0  0  0  0  0  0  0  0  0  # atno 8010 bound_to 7997
  139.5048  144.6232  151.6000 H   0  0  0  0  0  0  0  0  0  0  0  0  # atno 10167 bound_to 10162
  156.2406  130.7093  151.0953 H   0  0  0  0  0  0  0  0  0  0  0  0  # atno 10718 bound_to 10713
  153.0437  135.5113  154.7689 H   0  0  0  0  0  0  0  0  0  0  0  0  # atno 10763 bound_to 10752
  154.6606  135.2938  154.9873 H   0  0  0  0  0  0  0  0  0  0  0  0  # atno 10764 bound_to 10752
  154.0726  135.6675  153.4879 H   0  0  0  0  0  0  0  0  0  0  0  0  # atno 10765 bound_to 10752
  140.7049  133.8958  155.8709 H   0  0  0  0  0  0  0  0  0  0  0  0  # atno 11005 bound_to 11000
  146.1152  140.7379  142.9484 LP  0  0  0  0  0  0  0  0  0  0  0  0  # atno 17320 bound_to 7965
  144.7100  140.4002  143.7088 LP  0  0  0  0  0  0  0  0  0  0  0  0  # atno 17321 bound_to 7965
  140.5941  143.9728  150.6343 LP  0  0  0  0  0  0  0  0  0  0  0  0  # atno 17342 bound_to 10162
  140.2918  143.3319  152.1055 LP  0  0  0  0  0  0  0  0  0  0  0  0  # atno 17343 bound_to 10162
  157.7173  131.0702  150.6275 LP  0  0  0  0  0  0  0  0  0  0  0  0  # atno 17370 bound_to 10713
  156.6348  130.4442  149.5773 LP  0  0  0  0  0  0  0  0  0  0  0  0  # atno 17371 bound_to 10713
  141.0133  134.0990  157.4199 LP  0  0  0  0  0  0  0  0  0  0  0  0  # atno 17394 bound_to 11000
  139.8887  135.0099  156.6635 LP  0  0  0  0  0  0  0  0  0  0  0  0  # atno 17395 bound_to 11000

$$$$
