AV-unprocessed.smi:281|AV-procd|sdf|2103|dock6
  -GOLD-   2262021393D 1   1.00000     0.00000
 Structure written by MMmdl.
 55 59  0  0  0  0  0  0  0  0  1 V2000
  147.9647  137.4697  158.1230 C   0  0  0  0  0  0  0  0  0  0  0  0
  149.0088  136.8773  157.1713 C   0  0  2  0  0  0  0  0  0  0  0  0
  149.2649  135.3889  157.4530 C   0  0  0  0  0  0  0  0  0  0  0  0
  150.3367  134.9022  156.5948 N   0  0  0  0  0  0  0  0  0  0  0  0
  150.4372  133.5513  156.5095 C   0  0  0  0  0  0  0  0  0  0  0  0
  151.0979  132.8564  157.4744 N   0  0  0  0  0  0  0  0  0  0  0  0
  151.1935  131.5257  157.4034 C   0  0  0  0  0  0  0  0  0  0  0  0
  150.7163  130.7041  156.4671 N   0  0  0  0  0  0  0  0  0  0  0  0
  150.0647  131.3946  155.4882 C   0  0  0  0  0  0  0  0  0  0  0  0
  149.8762  132.8049  155.4347 C   0  0  0  0  0  0  0  0  0  0  0  0
  149.1652  133.1427  154.2890 N   0  0  0  0  0  0  0  0  0  0  0  0
  148.9369  131.9980  153.7059 C   0  0  0  0  0  0  0  0  0  0  0  0
  149.4554  130.8967  154.3490 N   0  0  0  0  0  0  0  0  0  0  0  0
  149.3561  129.5088  153.9214 C   0  0  0  0  0  0  0  0  0  0  0  0
  147.9108  128.9476  153.9093 C   0  0  2  0  0  0  0  0  0  0  0  0
  147.4217  128.8825  155.2362 O   0  0  0  0  0  0  0  0  0  0  0  0
  147.7768  127.5674  153.2600 C   0  0  0  0  0  0  0  0  0  0  0  0
  147.2590  127.8905  151.8660 C   0  0  0  0  0  0  0  0  0  0  0  0
  146.3577  128.9531  152.1180 O   0  0  0  0  0  0  0  0  0  0  0  0
  146.9708  129.8261  153.0584 C   0  0  0  0  0  0  0  0  0  0  0  0
  151.5679  135.6757  156.7277 C   0  0  0  0  0  0  0  0  0  0  0  0
  151.3096  137.1839  156.5039 C   0  0  2  0  0  0  0  0  0  0  0  0
  151.0416  137.5498  155.0367 C   0  0  0  0  0  0  0  0  0  0  0  0
  152.3041  138.2741  154.5892 C   0  0  0  0  0  0  0  0  0  0  0  0
  152.7095  138.9406  155.7698 O   0  0  0  0  0  0  0  0  0  0  0  0
  152.5797  138.0065  156.8311 C   0  0  1  0  0  0  0  0  0  0  0  0
  152.5856  138.7268  158.1872 C   0  0  0  0  0  0  0  0  0  0  0  0
  150.2239  137.6087  157.3378 O   0  0  0  0  0  0  0  0  0  0  0  0
  147.0098  136.9519  158.0294 H   0  0  0  0  0  0  0  0  0  0  0  0
  147.7936  138.5241  157.9046 H   0  0  0  0  0  0  0  0  0  0  0  0
  148.2882  137.3926  159.1613 H   0  0  0  0  0  0  0  0  0  0  0  0
  148.6435  136.9927  156.1503 H   0  0  0  0  0  0  0  0  0  0  0  0
  149.5557  135.2470  158.4948 H   0  0  0  0  0  0  0  0  0  0  0  0
  148.3441  134.8267  157.3032 H   0  0  0  0  0  0  0  0  0  0  0  0
  151.7308  131.0519  158.2116 H   0  0  0  0  0  0  0  0  0  0  0  0
  148.3859  131.9267  152.7793 H   0  0  0  0  0  0  0  0  0  0  0  0
  149.7955  129.4302  152.9260 H   0  0  0  0  0  0  0  0  0  0  0  0
  149.9856  128.9071  154.5784 H   0  0  0  0  0  0  0  0  0  0  0  0
  146.5044  128.6572  155.2066 H   0  0  0  0  0  0  0  0  0  0  0  0
  148.6961  126.9846  153.2377 H   0  0  0  0  0  0  0  0  0  0  0  0
  147.0270  126.9671  153.7783 H   0  0  0  0  0  0  0  0  0  0  0  0
  148.0654  128.2321  151.2150 H   0  0  0  0  0  0  0  0  0  0  0  0
  146.7630  127.0434  151.3920 H   0  0  0  0  0  0  0  0  0  0  0  0
  146.2132  130.3462  153.6464 H   0  0  0  0  0  0  0  0  0  0  0  0
  147.5300  130.5837  152.5074 H   0  0  0  0  0  0  0  0  0  0  0  0
  151.9732  135.5179  157.7284 H   0  0  0  0  0  0  0  0  0  0  0  0
  152.3155  135.3183  156.0178 H   0  0  0  0  0  0  0  0  0  0  0  0
  150.8084  136.6911  154.4063 H   0  0  0  0  0  0  0  0  0  0  0  0
  150.2051  138.2463  154.9671 H   0  0  0  0  0  0  0  0  0  0  0  0
  153.0748  137.5670  154.2780 H   0  0  0  0  0  0  0  0  0  0  0  0
  152.1233  138.9726  153.7720 H   0  0  0  0  0  0  0  0  0  0  0  0
  153.4559  137.3571  156.7808 H   0  0  0  0  0  0  0  0  0  0  0  0
  152.4649  138.0179  159.0069 H   0  0  0  0  0  0  0  0  0  0  0  0
  151.7820  139.4608  158.2539 H   0  0  0  0  0  0  0  0  0  0  0  0
  153.5268  139.2547  158.3404 H   0  0  0  0  0  0  0  0  0  0  0  0
  1  2  1  0  0  0  0
  1 29  1  0  0  0  0
  1 30  1  0  0  0  0
  1 31  1  0  0  0  0
  2 28  1  0  0  0  0
  2  3  1  0  0  0  0
  2 32  1  0  0  0  0
  3  4  1  0  0  0  0
  3 33  1  0  0  0  0
  3 34  1  0  0  0  0
  4  5  1  0  0  0  0
  4 21  1  0  0  0  0
  5 10  1  0  0  0  0
  5  6  2  0  0  0  0
  6  7  1  0  0  0  0
  7  8  2  0  0  0  0
  7 35  1  0  0  0  0
  8  9  1  0  0  0  0
  9 13  1  0  0  0  0
  9 10  2  0  0  0  0
 10 11  1  0  0  0  0
 11 12  2  0  0  0  0
 12 13  1  0  0  0  0
 12 36  1  0  0  0  0
 13 14  1  0  0  0  0
 14 15  1  0  0  0  0
 14 37  1  0  0  0  0
 14 38  1  0  0  0  0
 15 20  1  0  0  0  0
 15 16  1  0  0  0  0
 15 17  1  0  0  0  0
 16 39  1  0  0  0  0
 17 18  1  0  0  0  0
 17 40  1  0  0  0  0
 17 41  1  0  0  0  0
 18 19  1  0  0  0  0
 18 42  1  0  0  0  0
 18 43  1  0  0  0  0
 19 20  1  0  0  0  0
 20 44  1  0  0  0  0
 20 45  1  0  0  0  0
 21 22  1  0  0  0  0
 21 46  1  0  0  0  0
 21 47  1  0  0  0  0
 22 26  1  0  0  0  0
 22 23  1  0  0  0  0
 22 28  1  0  0  0  0
 23 24  1  0  0  0  0
 23 48  1  0  0  0  0
 23 49  1  0  0  0  0
 24 25  1  0  0  0  0
 24 50  1  0  0  0  0
 24 51  1  0  0  0  0
 25 26  1  0  0  0  0
 26 27  1  0  0  0  0
 26 52  1  0  0  0  0
 27 53  1  0  0  0  0
 27 54  1  0  0  0  0
 27 55  1  0  0  0  0
M  END
> <s_m_source_file>
AV-unprocessed.smi

> <i_m_source_file_index>
281

> <i_lp_mmshare_version>
43012

> <i_f3d_flags>
0

> <s_epik_input>
W0NIM11bQ0BASF0xT1tDSDJdW0NIMl1bQ0BAXTEyW0NIMl1OKFtDSDJdW0NASF0oTzIpW0NIM10pYyhuW2NIXW4zKWMoYzM0KW5bY0hdbjRbQ0gyXVtDQEBdNShbT0hdKVtDSDJdW0NIMl1PW0NIMl01

> <s_epik_cmdline>
J2VwaWtfcHl0aG9uJywgJy1waCcsICc3LjAnLCAnLXRuJywgJzgnLCAnLW1hJywgJzIwMCcsICctbWV0YWxfYmluZGluZycsICctaW1hZScsICc8aW5maWxlLm1hZT4nLCAnLW9tYWUnLCAnPG91dGZpbGUubWFlPic=

> <r_lp_tautomer_probability>
1

> <r_epik_Ionization_Penalty>
0.00571331

> <r_epik_Ionization_Penalty_Charging>
0

> <r_epik_Ionization_Penalty_Neutral>
0.00571331

> <r_epik_State_Penalty>
0.00399586

> <r_epik_Charging_Adjusted_Penalty>
0.00399586

> <i_epik_Tot_Q>
0

> <i_epik_Tot_abs_Q>
0

> <r_epik_Metal_State_Penalty>
-0

> <b_epik_Metal_Only>
0

> <s_lp_Force_Field>
OPLS_2005

> <r_lp_Energy>
53.0608

> <b_lp_Chiralities_Consistent>
1

> <s_lp_Variant>
AV-unprocessed.smi:281-3

> <Gold.Version>
5.8.1

> <Gold.Id.Protein>
6NUR|6NUR_protein|mol2

> <Gold.PLP.Fitness>
44.3251

> <Gold.PLP.PLP>
-35.9852

> <Gold.PLP.part.hbond>
-2.0000

> <Gold.PLP.part.metal>
0.0000

> <Gold.PLP.part.buried>
-6.7120

> <Gold.PLP.part.nonpolar>
-27.2769

> <Gold.PLP.part.repulsive>
0.2551

> <Gold.PLP.ligand.clash>
0.0000

> <Gold.PLP.ligand.torsion>
0.4096

> <Gold.PLP.Chemscore.Hbond>
1.9760

> <Gold.PLP.Chemscore.CHOScore>
0.9770

> <Gold.PLP.Chemscore.Metal>
0.0000

> <Gold.Chemscore.Hbonds>
donor molecule, donor type, donor heavy atom, donor atom, acceptor molecule, acceptor atom, score
      P1  H  6896  6909       L1     6  1.00
      P1  H  7997  8010       L1    25  0.84
      L1  C    12    36       P1 10747  0.40

> <Gold.PLP.Chemscore.Internal.Correction>
0.3001

> <Gold.Rescore>
     Score         DG    S(hbond)    S(metal)    S(lipo)     H(rot)  DE(clash)    DE(int)     intcor
     16.99     -18.06       2.71        0.00      75.92       2.09       0.62       0.45       ----

> <Gold.Chemscore.Fitness>
16.9865

> <Gold.Chemscore.DG>
-18.0599

> <Gold.Chemscore.ZeroCoef>
-5.4800

> <Gold.Chemscore.Hbond>
2.7111

> <Gold.Chemscore.Metal>
0.0000

> <Gold.Chemscore.Lipo>
75.9159

> <Gold.Chemscore.Internal_Hbond>
0.0000

> <Gold.Chemscore.DEClash>
0.6205

> <Gold.Chemscore.DEInternal>
0.4529

> <Gold.Chemscore.Rot>
2.0927

> <Gold.Chemscore.Internal.Correction>
   9.000000E+99

> <Gold.Chemscore.Hbonds>
donor molecule, donor type, donor heavy atom, donor atom, acceptor molecule, acceptor atom, score
      P1  H  6896  6909       L1     6  0.71
      P1  H  7997  8010       L1    25  0.64

> <Gold.Chemscore.Hbond.Weighted>
-9.0551

> <Gold.Chemscore.Metal.Weighted>
-0.0000

> <Gold.Chemscore.Lipo.Weighted>
-8.8822

> <Gold.Chemscore.Internal_Hbond.Weighted>
0.0000

> <Gold.Chemscore.DEClash.Weighted>
0.6205

> <Gold.Chemscore.DEInternal.Weighted>
0.4529

> <Gold.Chemscore.Rot.Weighted>
5.3573

> <Gold.Chemscore.Internal.Correction.Weighted>
   9.000000E+99

> <Gold.Protein.RotatedTorsions>
[ 6907 6896 6895 6894 ] final  -37.17 input  -60.11 | X-H torsion
[ 7974 7965 7964 7962 ] final  156.61 input  175.53 | X-H torsion
[ 8008 7997 7996 7995 ] final   95.54 input   59.86 | X-H torsion
[ 10167 10162 10161 10158 ] final  -31.13 input  -65.29 | X-H torsion
[ 10718 10713 10712 10709 ] final  120.22 input   66.30 | X-H torsion
[ 10763 10752 10751 10750 ] final    1.99 input  -60.55 | X-H torsion
[ 11005 11000 10999 10996 ] final   -4.11 input  -57.11 | X-H torsion

> <Gold.Protein.ActiveResidues>
 VAL166  LYS551  ARG553  GLY616  TRP617  ASP618  TYR619  PRO620  LYS621  CYS622 
 ASP623  PHE694  ASN695  SER759  ASP760  ASP761  ALA762  ILE779  LEU786  VAL792 
 PHE793  MET794  SER795  GLU796  ALA797  LYS798  CYS799  TRP800  GLU811  SER814 

> <Gold.Protein.RotatedAtoms>
  151.0181  134.9448  159.8043 H   0  0  0  0  0  0  0  0  0  0  0  0  # atno 6907 bound_to 6896
  152.5318  134.2940  159.9063 H   0  0  0  0  0  0  0  0  0  0  0  0  # atno 6908 bound_to 6896
  151.2947  133.4107  159.2669 H   0  0  0  0  0  0  0  0  0  0  0  0  # atno 6909 bound_to 6896
  144.7953  139.7227  143.6204 H   0  0  0  0  0  0  0  0  0  0  0  0  # atno 7974 bound_to 7965
  156.0700  140.3285  155.7564 H   0  0  0  0  0  0  0  0  0  0  0  0  # atno 8008 bound_to 7997
  155.5321  140.0594  157.2904 H   0  0  0  0  0  0  0  0  0  0  0  0  # atno 8009 bound_to 7997
  154.4525  140.1925  156.0495 H   0  0  0  0  0  0  0  0  0  0  0  0  # atno 8010 bound_to 7997
  140.7240  143.3795  151.1627 H   0  0  0  0  0  0  0  0  0  0  0  0  # atno 10167 bound_to 10162
  157.5906  131.1064  150.8006 H   0  0  0  0  0  0  0  0  0  0  0  0  # atno 10718 bound_to 10713
  153.3011  135.6956  153.7202 H   0  0  0  0  0  0  0  0  0  0  0  0  # atno 10763 bound_to 10752
  153.6116  135.3443  155.2981 H   0  0  0  0  0  0  0  0  0  0  0  0  # atno 10764 bound_to 10752
  154.8551  135.4364  154.2123 H   0  0  0  0  0  0  0  0  0  0  0  0  # atno 10765 bound_to 10752
  140.6767  133.9189  155.8529 H   0  0  0  0  0  0  0  0  0  0  0  0  # atno 11005 bound_to 11000
  146.2218  139.5650  142.9613 LP  0  0  0  0  0  0  0  0  0  0  0  0  # atno 17320 bound_to 7965
  145.5690  141.0396  143.2184 LP  0  0  0  0  0  0  0  0  0  0  0  0  # atno 17321 bound_to 7965
  139.7381  143.8967  152.3041 LP  0  0  0  0  0  0  0  0  0  0  0  0  # atno 17342 bound_to 10162
  139.8779  144.7033  150.8912 LP  0  0  0  0  0  0  0  0  0  0  0  0  # atno 17343 bound_to 10162
  156.8429  130.5054  149.5319 LP  0  0  0  0  0  0  0  0  0  0  0  0  # atno 17370 bound_to 10713
  156.0960  130.5933  150.9814 LP  0  0  0  0  0  0  0  0  0  0  0  0  # atno 17371 bound_to 10713
  141.0349  134.0703  157.3970 LP  0  0  0  0  0  0  0  0  0  0  0  0  # atno 17394 bound_to 11000
  139.8964  135.0146  156.7051 LP  0  0  0  0  0  0  0  0  0  0  0  0  # atno 17395 bound_to 11000

$$$$
