AV-unprocessed.smi:1991|AV-procd|sdf|8068|dock3
  -GOLD-   2272010273D 1   1.00000     0.00000
 Structure written by MMmdl.
 44 45  0  0  0  0  0  0  0  0  1 V2000
  146.9202  137.1136  159.6538 C   0  0  0  0  0  0  0  0  0  0  0  0
  147.9398  135.9663  159.6017 C   0  0  1  0  0  0  0  0  0  0  0  0
  147.2070  134.7435  159.5891 O   0  0  0  0  0  0  0  0  0  0  0  0
  146.1878  134.6260  160.5768 C   0  0  0  0  0  0  0  0  0  0  0  0
  146.7900  134.0418  161.8604 C   0  0  0  0  0  0  0  0  0  0  0  0
  147.4286  135.0050  162.5236 F   0  0  0  0  0  0  0  0  0  0  0  0
  145.8266  133.5516  162.6401 F   0  0  0  0  0  0  0  0  0  0  0  0
  147.6608  133.0777  161.5633 F   0  0  0  0  0  0  0  0  0  0  0  0
  148.8330  136.0708  158.3552 C   0  0  0  0  0  0  0  0  0  0  0  0
  150.0575  136.1171  158.4736 O   0  0  0  0  0  0  0  0  0  0  0  0
  148.1991  136.1262  157.1736 N   0  0  0  0  0  0  0  0  0  0  0  0
  148.8411  136.2132  155.8664 C   0  0  0  0  0  0  0  0  0  0  0  0
  148.1521  137.2144  154.9446 C   0  0  0  0  0  0  0  0  0  0  0  0
  146.8481  136.9315  154.4837 C   0  0  0  0  0  0  0  0  0  0  0  0
  146.1898  137.8605  153.6585 C   0  0  0  0  0  0  0  0  0  0  0  0
  146.8647  139.0478  153.3236 C   0  0  0  0  0  0  0  0  0  0  0  0
  148.1110  139.3336  153.7526 N   0  0  0  0  0  0  0  0  0  0  0  0
  148.7509  138.4409  154.5473 C   0  0  0  0  0  0  0  0  0  0  0  0
  150.0609  138.7599  154.9430 N   0  0  0  0  0  0  0  0  0  0  0  0
  151.0751  138.1456  154.0975 C   0  0  0  0  0  0  0  0  0  0  0  0
  152.4640  138.3313  154.7314 C   0  0  0  0  0  0  0  0  0  0  0  0
  152.7070  139.7191  154.9492 O   0  0  0  0  0  0  0  0  0  0  0  0
  151.7470  140.3030  155.8267 C   0  0  0  0  0  0  0  0  0  0  0  0
  150.3401  140.1644  155.2198 C   0  0  0  0  0  0  0  0  0  0  0  0
  147.4157  138.0852  159.6507 H   0  0  0  0  0  0  0  0  0  0  0  0
  146.3185  137.0544  160.5610 H   0  0  0  0  0  0  0  0  0  0  0  0
  146.2368  137.0828  158.8044 H   0  0  0  0  0  0  0  0  0  0  0  0
  148.5531  136.0121  160.5037 H   0  0  0  0  0  0  0  0  0  0  0  0
  145.7425  135.5973  160.7955 H   0  0  0  0  0  0  0  0  0  0  0  0
  145.3907  133.9751  160.2145 H   0  0  0  0  0  0  0  0  0  0  0  0
  147.1902  136.0902  157.1800 H   0  0  0  0  0  0  0  0  0  0  0  0
  149.8621  136.5602  156.0275 H   0  0  0  0  0  0  0  0  0  0  0  0
  148.9434  135.2304  155.4059 H   0  0  0  0  0  0  0  0  0  0  0  0
  146.3530  136.0137  154.7649 H   0  0  0  0  0  0  0  0  0  0  0  0
  145.1912  137.6693  153.2945 H   0  0  0  0  0  0  0  0  0  0  0  0
  146.3926  139.7871  152.6937 H   0  0  0  0  0  0  0  0  0  0  0  0
  150.8626  137.0868  153.9541 H   0  0  0  0  0  0  0  0  0  0  0  0
  151.0505  138.6108  153.1112 H   0  0  0  0  0  0  0  0  0  0  0  0
  152.5372  137.7851  155.6734 H   0  0  0  0  0  0  0  0  0  0  0  0
  153.2345  137.9338  154.0711 H   0  0  0  0  0  0  0  0  0  0  0  0
  151.7966  139.8241  156.8061 H   0  0  0  0  0  0  0  0  0  0  0  0
  151.9915  141.3552  155.9729 H   0  0  0  0  0  0  0  0  0  0  0  0
  150.2787  140.7443  154.2977 H   0  0  0  0  0  0  0  0  0  0  0  0
  149.5921  140.5628  155.9064 H   0  0  0  0  0  0  0  0  0  0  0  0
  1  2  1  0  0  0  0
  1 25  1  0  0  0  0
  1 26  1  0  0  0  0
  1 27  1  0  0  0  0
  2  3  1  0  0  0  0
  2  9  1  0  0  0  0
  2 28  1  0  0  0  0
  3  4  1  0  0  0  0
  4  5  1  0  0  0  0
  4 29  1  0  0  0  0
  4 30  1  0  0  0  0
  5  6  1  0  0  0  0
  5  7  1  0  0  0  0
  5  8  1  0  0  0  0
  9 10  2  0  0  0  0
  9 11  1  0  0  0  0
 11 12  1  0  0  0  0
 11 31  1  0  0  0  0
 12 13  1  0  0  0  0
 12 32  1  0  0  0  0
 12 33  1  0  0  0  0
 13 18  1  0  0  0  0
 13 14  2  0  0  0  0
 14 15  1  0  0  0  0
 14 34  1  0  0  0  0
 15 16  2  0  0  0  0
 15 35  1  0  0  0  0
 16 17  1  0  0  0  0
 16 36  1  0  0  0  0
 17 18  2  0  0  0  0
 18 19  1  0  0  0  0
 19 24  1  0  0  0  0
 19 20  1  0  0  0  0
 20 21  1  0  0  0  0
 20 37  1  0  0  0  0
 20 38  1  0  0  0  0
 21 22  1  0  0  0  0
 21 39  1  0  0  0  0
 21 40  1  0  0  0  0
 22 23  1  0  0  0  0
 23 24  1  0  0  0  0
 23 41  1  0  0  0  0
 23 42  1  0  0  0  0
 24 43  1  0  0  0  0
 24 44  1  0  0  0  0
M  END
> <s_m_source_file>
AV-unprocessed.smi

> <i_m_source_file_index>
1991

> <i_lp_mmshare_version>
43012

> <i_f3d_flags>
0

> <s_epik_input>
RkMoRikoRilbQ0gyXU9bQ0BASF0oW0NIM10pQyg9TylbTkhdW0NIMl1jMVtjSF1bY0hdW2NIXW5jMU4yW0NIMl1bQ0gyXU9bQ0gyXVtDSDJdMg==

> <s_epik_cmdline>
J2VwaWtfcHl0aG9uJywgJy1waCcsICc3LjAnLCAnLXRuJywgJzgnLCAnLW1hJywgJzIwMCcsICctbWV0YWxfYmluZGluZycsICctaW1hZScsICc8aW5maWxlLm1hZT4nLCAnLW9tYWUnLCAnPG91dGZpbGUubWFlPic=

> <r_lp_tautomer_probability>
1

> <r_epik_Ionization_Penalty>
0.00436412

> <r_epik_Ionization_Penalty_Charging>
0

> <r_epik_Ionization_Penalty_Neutral>
0.00436412

> <r_epik_State_Penalty>
0.00314317

> <r_epik_Charging_Adjusted_Penalty>
0.00314317

> <i_epik_Tot_Q>
0

> <i_epik_Tot_abs_Q>
0

> <r_epik_Metal_State_Penalty>
-0

> <b_epik_Metal_Only>
0

> <s_lp_Force_Field>
OPLS_2005

> <r_lp_Energy>
21.3683

> <b_lp_Chiralities_Consistent>
1

> <s_lp_Variant>
AV-unprocessed.smi:1991-2

> <Gold.Version>
5.8.1

> <Gold.Id.Protein>
6NUR|6NUR_protein|mol2

> <Gold.PLP.Fitness>
41.4100

> <Gold.PLP.PLP>
-35.4228

> <Gold.PLP.part.hbond>
-3.0000

> <Gold.PLP.part.metal>
0.0000

> <Gold.PLP.part.buried>
-4.7939

> <Gold.PLP.part.nonpolar>
-28.7351

> <Gold.PLP.part.repulsive>
0.4553

> <Gold.PLP.ligand.clash>
0.0000

> <Gold.PLP.ligand.torsion>
1.3595

> <Gold.PLP.Chemscore.Hbond>
2.2553

> <Gold.PLP.Chemscore.CHOScore>
0.5051

> <Gold.PLP.Chemscore.Metal>
0.0000

> <Gold.Chemscore.Hbonds>
donor molecule, donor type, donor heavy atom, donor atom, acceptor molecule, acceptor atom, score
      P1  H  6896  6907       L1    10  1.00
      P1  H  7989  7998       L1    22  0.06
      P1  H  7997  8009       L1    22  0.73
      L1  C    16    36       P1 10175  0.33

> <Gold.PLP.Chemscore.Internal.Correction>
0.4249

> <Gold.Rescore>
     Score         DG    S(hbond)    S(metal)    S(lipo)     H(rot)  DE(clash)    DE(int)     intcor
     10.73     -12.15       1.92        0.00      56.84       2.49       0.04       1.38       ----

> <Gold.Chemscore.Fitness>
10.7297

> <Gold.Chemscore.DG>
-12.1530

> <Gold.Chemscore.ZeroCoef>
-5.4800

> <Gold.Chemscore.Hbond>
1.9153

> <Gold.Chemscore.Metal>
0.0000

> <Gold.Chemscore.Lipo>
56.8367

> <Gold.Chemscore.Internal_Hbond>
0.0000

> <Gold.Chemscore.DEClash>
0.0402

> <Gold.Chemscore.DEInternal>
1.3831

> <Gold.Chemscore.Rot>
2.4899

> <Gold.Chemscore.Internal.Correction>
   9.000000E+99

> <Gold.Chemscore.Hbonds>
donor molecule, donor type, donor heavy atom, donor atom, acceptor molecule, acceptor atom, score
      P1  H  6896  6907       L1    10  0.81
      P1  H  7997  8009       L1    22  0.10

> <Gold.Chemscore.Hbond.Weighted>
-6.3972

> <Gold.Chemscore.Metal.Weighted>
-0.0000

> <Gold.Chemscore.Lipo.Weighted>
-6.6499

> <Gold.Chemscore.Internal_Hbond.Weighted>
0.0000

> <Gold.Chemscore.DEClash.Weighted>
0.0402

> <Gold.Chemscore.DEInternal.Weighted>
1.3831

> <Gold.Chemscore.Rot.Weighted>
6.3741

> <Gold.Chemscore.Internal.Correction.Weighted>
   9.000000E+99

> <Gold.Protein.RotatedTorsions>
[ 6907 6896 6895 6894 ] final  -62.21 input  -60.11 | X-H torsion
[ 7974 7965 7964 7962 ] final   42.45 input  175.53 | X-H torsion
[ 8008 7997 7996 7995 ] final -149.73 input   59.86 | X-H torsion
[ 10167 10162 10161 10158 ] final -149.88 input  -65.29 | X-H torsion
[ 10718 10713 10712 10709 ] final   97.02 input   66.30 | X-H torsion
[ 10763 10752 10751 10750 ] final   67.19 input  -60.55 | X-H torsion
[ 11005 11000 10999 10996 ] final -156.23 input  -57.11 | X-H torsion

> <Gold.Protein.ActiveResidues>
 VAL166  LYS551  ARG553  GLY616  TRP617  ASP618  TYR619  PRO620  LYS621  CYS622 
 ASP623  PHE694  ASN695  SER759  ASP760  ASP761  ALA762  ILE779  LEU786  VAL792 
 PHE793  MET794  SER795  GLU796  ALA797  LYS798  CYS799  TRP800  GLU811  SER814 

> <Gold.Protein.RotatedAtoms>
  150.7731  134.6601  159.6334 H   0  0  0  0  0  0  0  0  0  0  0  0  # atno 6907 bound_to 6896
  152.3791  134.6615  160.0158 H   0  0  0  0  0  0  0  0  0  0  0  0  # atno 6908 bound_to 6896
  151.6950  133.3274  159.3288 H   0  0  0  0  0  0  0  0  0  0  0  0  # atno 6909 bound_to 6896
  146.0739  139.5299  142.9580 H   0  0  0  0  0  0  0  0  0  0  0  0  # atno 7974 bound_to 7965
  155.6122  140.0673  157.2702 H   0  0  0  0  0  0  0  0  0  0  0  0  # atno 8008 bound_to 7997
  154.4250  140.1799  156.1332 H   0  0  0  0  0  0  0  0  0  0  0  0  # atno 8009 bound_to 7997
  156.0075  140.3330  155.6911 H   0  0  0  0  0  0  0  0  0  0  0  0  # atno 8010 bound_to 7997
  139.7403  143.8672  152.2560 H   0  0  0  0  0  0  0  0  0  0  0  0  # atno 10167 bound_to 10162
  157.6919  131.0596  150.4579 H   0  0  0  0  0  0  0  0  0  0  0  0  # atno 10718 bound_to 10713
  153.0174  135.5293  154.6941 H   0  0  0  0  0  0  0  0  0  0  0  0  # atno 10763 bound_to 10752
  154.6067  135.2874  155.0479 H   0  0  0  0  0  0  0  0  0  0  0  0  # atno 10764 bound_to 10752
  154.1515  135.6562  153.5017 H   0  0  0  0  0  0  0  0  0  0  0  0  # atno 10765 bound_to 10752
  140.6778  134.4177  157.5228 H   0  0  0  0  0  0  0  0  0  0  0  0  # atno 11005 bound_to 11000
  145.6341  141.0298  143.1847 LP  0  0  0  0  0  0  0  0  0  0  0  0  # atno 17320 bound_to 7965
  144.7249  139.7907  143.7368 LP  0  0  0  0  0  0  0  0  0  0  0  0  # atno 17321 bound_to 7965
  139.8620  144.7112  150.9088 LP  0  0  0  0  0  0  0  0  0  0  0  0  # atno 17342 bound_to 10162
  140.7785  143.3809  151.1478 LP  0  0  0  0  0  0  0  0  0  0  0  0  # atno 17343 bound_to 10162
  156.4926  130.4098  149.6398 LP  0  0  0  0  0  0  0  0  0  0  0  0  # atno 17370 bound_to 10713
  156.3403  130.7378  151.2322 LP  0  0  0  0  0  0  0  0  0  0  0  0  # atno 17371 bound_to 10713
  139.8961  134.8667  156.2102 LP  0  0  0  0  0  0  0  0  0  0  0  0  # atno 17394 bound_to 11000
  141.0341  133.6972  156.1482 LP  0  0  0  0  0  0  0  0  0  0  0  0  # atno 17395 bound_to 11000

$$$$
