AV-unprocessed.smi:234|AV-procd|sdf|1790|dock10
  -GOLD-   2262020353D 1   1.00000     0.00000
 Structure written by MMmdl.
 59 62  0  0  0  0  0  0  0  0  1 V2000
  151.9534  144.9484  159.0155 C   0  0  0  0  0  0  0  0  0  0  0  0
  151.3338  144.1163  160.1403 C   0  0  0  0  0  0  0  0  0  0  0  0
  150.7571  142.9484  159.5813 O   0  0  0  0  0  0  0  0  0  0  0  0
  151.6920  142.1606  158.8605 C   0  0  1  0  0  0  0  0  0  0  0  0
  152.2131  140.9370  159.6190 C   0  0  0  0  0  0  0  0  0  0  0  0
  152.1643  140.2223  158.2660 C   0  0  1  0  0  0  0  0  0  0  0  0
  151.7740  138.8130  158.3559 N   0  0  0  0  0  0  0  0  0  0  0  0
  152.5283  137.9894  159.2920 C   0  0  0  0  0  0  0  0  0  0  0  0
  151.6283  138.1720  157.1726 C   0  0  0  0  0  0  0  0  0  0  0  0
  151.9996  138.7793  156.0141 N   0  0  0  0  0  0  0  0  0  0  0  0
  151.8524  138.1425  154.8484 C   0  0  0  0  0  0  0  0  0  0  0  0
  151.3688  136.9193  154.6201 N   0  0  0  0  0  0  0  0  0  0  0  0
  151.0033  136.3065  155.7828 C   0  0  0  0  0  0  0  0  0  0  0  0
  151.1065  136.8539  157.0916 C   0  0  0  0  0  0  0  0  0  0  0  0
  150.6426  135.9405  158.0296 N   0  0  0  0  0  0  0  0  0  0  0  0
  150.2802  134.9108  157.3140 C   0  0  0  0  0  0  0  0  0  0  0  0
  150.4549  135.0481  155.9548 N   0  0  0  0  0  0  0  0  0  0  0  0
  150.1321  134.0687  154.9299 C   0  0  0  0  0  0  0  0  0  0  0  0
  148.6115  133.8499  154.7434 C   0  0  2  0  0  0  0  0  0  0  0  0
  148.0465  135.0253  154.1838 O   0  0  0  0  0  0  0  0  0  0  0  0
  147.8679  133.5353  156.0335 C   0  0  0  0  0  0  0  0  0  0  0  0
  146.6438  132.7801  155.5317 C   0  0  0  0  0  0  0  0  0  0  0  0
  147.1302  131.9964  154.4512 O   0  0  0  0  0  0  0  0  0  0  0  0
  148.2827  132.6118  153.8773 C   0  0  1  0  0  0  0  0  0  0  0  0
  148.0774  132.8590  152.3739 C   0  0  0  0  0  0  0  0  0  0  0  0
  151.0304  141.2010  157.8405 C   0  0  0  0  0  0  0  0  0  0  0  0
  149.5790  140.7972  158.1602 C   0  0  0  0  0  0  0  0  0  0  0  0
  151.0538  141.6758  156.3878 C   0  0  0  0  0  0  0  0  0  0  0  0
  152.4032  145.8603  159.4083 H   0  0  0  0  0  0  0  0  0  0  0  0
  151.2001  145.2356  158.2815 H   0  0  0  0  0  0  0  0  0  0  0  0
  152.7313  144.3879  158.4967 H   0  0  0  0  0  0  0  0  0  0  0  0
  152.0994  143.8453  160.8685 H   0  0  0  0  0  0  0  0  0  0  0  0
  150.5756  144.7032  160.6604 H   0  0  0  0  0  0  0  0  0  0  0  0
  152.4939  142.7516  158.4109 H   0  0  0  0  0  0  0  0  0  0  0  0
  153.2128  141.0526  160.0379 H   0  0  0  0  0  0  0  0  0  0  0  0
  151.5062  140.5496  160.3548 H   0  0  0  0  0  0  0  0  0  0  0  0
  153.0859  140.3889  157.7039 H   0  0  0  0  0  0  0  0  0  0  0  0
  152.1518  136.9659  159.3144 H   0  0  0  0  0  0  0  0  0  0  0  0
  152.4507  138.3895  160.3029 H   0  0  0  0  0  0  0  0  0  0  0  0
  153.5831  137.9616  159.0166 H   0  0  0  0  0  0  0  0  0  0  0  0
  152.1652  138.6925  153.9732 H   0  0  0  0  0  0  0  0  0  0  0  0
  149.8668  134.0184  157.7610 H   0  0  0  0  0  0  0  0  0  0  0  0
  150.5858  134.3883  153.9908 H   0  0  0  0  0  0  0  0  0  0  0  0
  150.6185  133.1299  155.1984 H   0  0  0  0  0  0  0  0  0  0  0  0
  148.3299  135.0967  153.2852 H   0  0  0  0  0  0  0  0  0  0  0  0
  148.4645  132.8720  156.6613 H   0  0  0  0  0  0  0  0  0  0  0  0
  147.6153  134.4174  156.6232 H   0  0  0  0  0  0  0  0  0  0  0  0
  146.1855  132.1600  156.3021 H   0  0  0  0  0  0  0  0  0  0  0  0
  145.8891  133.4731  155.1572 H   0  0  0  0  0  0  0  0  0  0  0  0
  149.0848  131.8814  153.9917 H   0  0  0  0  0  0  0  0  0  0  0  0
  148.9516  133.3379  151.9320 H   0  0  0  0  0  0  0  0  0  0  0  0
  147.2107  133.4927  152.1840 H   0  0  0  0  0  0  0  0  0  0  0  0
  147.9143  131.9181  151.8482 H   0  0  0  0  0  0  0  0  0  0  0  0
  149.2039  140.0471  157.4638 H   0  0  0  0  0  0  0  0  0  0  0  0
  148.9063  141.6531  158.0992 H   0  0  0  0  0  0  0  0  0  0  0  0
  149.4775  140.3820  159.1628 H   0  0  0  0  0  0  0  0  0  0  0  0
  150.6775  140.9112  155.7075 H   0  0  0  0  0  0  0  0  0  0  0  0
  152.0649  141.9243  156.0648 H   0  0  0  0  0  0  0  0  0  0  0  0
  150.4410  142.5673  156.2511 H   0  0  0  0  0  0  0  0  0  0  0  0
  1  2  1  0  0  0  0
  1 29  1  0  0  0  0
  1 30  1  0  0  0  0
  1 31  1  0  0  0  0
  2  3  1  0  0  0  0
  2 32  1  0  0  0  0
  2 33  1  0  0  0  0
  3  4  1  0  0  0  0
  4 26  1  0  0  0  0
  4  5  1  0  0  0  0
  4 34  1  0  0  0  0
  5  6  1  0  0  0  0
  5 35  1  0  0  0  0
  5 36  1  0  0  0  0
  6  7  1  0  0  0  0
  6 26  1  0  0  0  0
  6 37  1  0  0  0  0
  7  8  1  0  0  0  0
  7  9  1  0  0  0  0
  8 38  1  0  0  0  0
  8 39  1  0  0  0  0
  8 40  1  0  0  0  0
  9 14  1  0  0  0  0
  9 10  2  0  0  0  0
 10 11  1  0  0  0  0
 11 12  2  0  0  0  0
 11 41  1  0  0  0  0
 12 13  1  0  0  0  0
 13 17  1  0  0  0  0
 13 14  2  0  0  0  0
 14 15  1  0  0  0  0
 15 16  2  0  0  0  0
 16 17  1  0  0  0  0
 16 42  1  0  0  0  0
 17 18  1  0  0  0  0
 18 19  1  0  0  0  0
 18 43  1  0  0  0  0
 18 44  1  0  0  0  0
 19 24  1  0  0  0  0
 19 20  1  0  0  0  0
 19 21  1  0  0  0  0
 20 45  1  0  0  0  0
 21 22  1  0  0  0  0
 21 46  1  0  0  0  0
 21 47  1  0  0  0  0
 22 23  1  0  0  0  0
 22 48  1  0  0  0  0
 22 49  1  0  0  0  0
 23 24  1  0  0  0  0
 24 25  1  0  0  0  0
 24 50  1  0  0  0  0
 25 51  1  0  0  0  0
 25 52  1  0  0  0  0
 25 53  1  0  0  0  0
 26 27  1  0  0  0  0
 26 28  1  0  0  0  0
 27 54  1  0  0  0  0
 27 55  1  0  0  0  0
 27 56  1  0  0  0  0
 28 57  1  0  0  0  0
 28 58  1  0  0  0  0
 28 59  1  0  0  0  0
M  END
> <s_m_source_file>
AV-unprocessed.smi

> <i_m_source_file_index>
234

> <i_lp_mmshare_version>
43012

> <i_f3d_flags>
0

> <s_epik_input>
W0NIM11bQ0gyXU9bQ0BASF0oQzEoW0NIM10pW0NIM10pW0NIMl1bQ0BIXTFOKFtDSDNdKWMobltjSF1uMiljKGMyMyluW2NIXW4zW0NIMl1bQ0BAXTQoW09IXSlbQ0gyXVtDSDJdT1tDQEhdNFtDSDNd

> <s_epik_cmdline>
J2VwaWtfcHl0aG9uJywgJy1waCcsICc3LjAnLCAnLXRuJywgJzgnLCAnLW1hJywgJzIwMCcsICctbWV0YWxfYmluZGluZycsICctaW1hZScsICc8aW5maWxlLm1hZT4nLCAnLW9tYWUnLCAnPG91dGZpbGUubWFlPic=

> <r_lp_tautomer_probability>
1

> <r_epik_Ionization_Penalty>
0.00349132

> <r_epik_Ionization_Penalty_Charging>
0

> <r_epik_Ionization_Penalty_Neutral>
0.00349132

> <r_epik_State_Penalty>
0.00242418

> <r_epik_Charging_Adjusted_Penalty>
0.00242418

> <i_epik_Tot_Q>
0

> <i_epik_Tot_abs_Q>
0

> <r_epik_Metal_State_Penalty>
-0

> <b_epik_Metal_Only>
0

> <s_lp_Force_Field>
OPLS_2005

> <r_lp_Energy>
47.69

> <b_lp_Chiralities_Consistent>
1

> <s_lp_Variant>
AV-unprocessed.smi:234-6

> <Gold.Version>
5.8.1

> <Gold.Id.Protein>
6NUR|6NUR_protein|mol2

> <Gold.PLP.Fitness>
46.5209

> <Gold.PLP.PLP>
-40.0385

> <Gold.PLP.part.hbond>
-3.5063

> <Gold.PLP.part.metal>
0.0000

> <Gold.PLP.part.buried>
-5.6233

> <Gold.PLP.part.nonpolar>
-31.7047

> <Gold.PLP.part.repulsive>
0.2607

> <Gold.PLP.ligand.clash>
0.0000

> <Gold.PLP.ligand.torsion>
0.8925

> <Gold.PLP.Chemscore.Hbond>
2.5109

> <Gold.PLP.Chemscore.CHOScore>
0.0000

> <Gold.PLP.Chemscore.Metal>
0.0000

> <Gold.Chemscore.Hbonds>
donor molecule, donor type, donor heavy atom, donor atom, acceptor molecule, acceptor atom, score
      L1  H    20    45       P1  7948  0.98
      P1  H  6896  6909       L1    15  0.52
      P1  H 10752 10763       L1    12  0.73

> <Gold.PLP.Chemscore.Internal.Correction>
0.7347

> <Gold.Rescore>
     Score         DG    S(hbond)    S(metal)    S(lipo)     H(rot)  DE(clash)    DE(int)     intcor
     12.51     -13.45       1.08        0.00      94.76       2.62       0.01       0.93       ----

> <Gold.Chemscore.Fitness>
12.5072

> <Gold.Chemscore.DG>
-13.4495

> <Gold.Chemscore.ZeroCoef>
-5.4800

> <Gold.Chemscore.Hbond>
1.0761

> <Gold.Chemscore.Metal>
0.0000

> <Gold.Chemscore.Lipo>
94.7640

> <Gold.Chemscore.Internal_Hbond>
0.0000

> <Gold.Chemscore.DEClash>
0.0098

> <Gold.Chemscore.DEInternal>
0.9325

> <Gold.Chemscore.Rot>
2.6219

> <Gold.Chemscore.Internal.Correction>
   9.000000E+99

> <Gold.Chemscore.Hbonds>
donor molecule, donor type, donor heavy atom, donor atom, acceptor molecule, acceptor atom, score
      L1  H    20    45       P1  7948  0.86
      P1  H  6896  6909       L1    15  0.09
      P1  H 10752 10763       L1    12  0.07

> <Gold.Chemscore.Hbond.Weighted>
-3.5942

> <Gold.Chemscore.Metal.Weighted>
-0.0000

> <Gold.Chemscore.Lipo.Weighted>
-11.0874

> <Gold.Chemscore.Internal_Hbond.Weighted>
0.0000

> <Gold.Chemscore.DEClash.Weighted>
0.0098

> <Gold.Chemscore.DEInternal.Weighted>
0.9325

> <Gold.Chemscore.Rot.Weighted>
6.7121

> <Gold.Chemscore.Internal.Correction.Weighted>
   9.000000E+99

> <Gold.Protein.RotatedTorsions>
[ 6907 6896 6895 6894 ] final   79.47 input  -60.11 | X-H torsion
[ 7974 7965 7964 7962 ] final -122.00 input  175.53 | X-H torsion
[ 8008 7997 7996 7995 ] final  171.42 input   59.86 | X-H torsion
[ 10167 10162 10161 10158 ] final   64.51 input  -65.29 | X-H torsion
[ 10718 10713 10712 10709 ] final -103.83 input   66.30 | X-H torsion
[ 10763 10752 10751 10750 ] final   35.11 input  -60.55 | X-H torsion
[ 11005 11000 10999 10996 ] final  143.66 input  -57.11 | X-H torsion

> <Gold.Protein.ActiveResidues>
 VAL166  LYS551  ARG553  GLY616  TRP617  ASP618  TYR619  PRO620  LYS621  CYS622 
 ASP623  PHE694  ASN695  SER759  ASP760  ASP761  ALA762  ILE779  LEU786  VAL792 
 PHE793  MET794  SER795  GLU796  ALA797  LYS798  CYS799  TRP800  GLU811  SER814 

> <Gold.Protein.RotatedAtoms>
  152.5199  134.3506  159.9249 H   0  0  0  0  0  0  0  0  0  0  0  0  # atno 6907 bound_to 6896
  151.3457  133.3938  159.2683 H   0  0  0  0  0  0  0  0  0  0  0  0  # atno 6908 bound_to 6896
  150.9767  134.9149  159.7878 H   0  0  0  0  0  0  0  0  0  0  0  0  # atno 6909 bound_to 6896
  145.0342  140.8092  143.4305 H   0  0  0  0  0  0  0  0  0  0  0  0  # atno 7974 bound_to 7965
  156.1273  140.1512  156.9118 H   0  0  0  0  0  0  0  0  0  0  0  0  # atno 8008 bound_to 7997
  154.4881  140.0859  156.7573 H   0  0  0  0  0  0  0  0  0  0  0  0  # atno 8009 bound_to 7997
  155.4321  140.3427  155.4283 H   0  0  0  0  0  0  0  0  0  0  0  0  # atno 8010 bound_to 7997
  140.1213  144.4728  150.6918 H   0  0  0  0  0  0  0  0  0  0  0  0  # atno 10167 bound_to 10162
  156.0280  130.5486  150.7308 H   0  0  0  0  0  0  0  0  0  0  0  0  # atno 10718 bound_to 10713
  153.0133  135.6342  154.1775 H   0  0  0  0  0  0  0  0  0  0  0  0  # atno 10763 bound_to 10752
  154.1516  135.2828  155.3135 H   0  0  0  0  0  0  0  0  0  0  0  0  # atno 10764 bound_to 10752
  154.6049  135.5575  153.7473 H   0  0  0  0  0  0  0  0  0  0  0  0  # atno 10765 bound_to 10752
  140.0571  134.9225  157.1119 H   0  0  0  0  0  0  0  0  0  0  0  0  # atno 11005 bound_to 11000
  145.1731  139.2393  143.5331 LP  0  0  0  0  0  0  0  0  0  0  0  0  # atno 17320 bound_to 7965
  146.3502  140.1487  142.8593 LP  0  0  0  0  0  0  0  0  0  0  0  0  # atno 17321 bound_to 7965
  140.6870  143.2355  151.5234 LP  0  0  0  0  0  0  0  0  0  0  0  0  # atno 17342 bound_to 10162
  139.5567  144.2258  152.1624 LP  0  0  0  0  0  0  0  0  0  0  0  0  # atno 17343 bound_to 10162
  157.4901  131.0910  151.0436 LP  0  0  0  0  0  0  0  0  0  0  0  0  # atno 17370 bound_to 10713
  157.0846  130.5917  149.5427 LP  0  0  0  0  0  0  0  0  0  0  0  0  # atno 17371 bound_to 10713
  140.3827  134.2269  155.7170 LP  0  0  0  0  0  0  0  0  0  0  0  0  # atno 17394 bound_to 11000
  141.1957  133.8100  157.0705 LP  0  0  0  0  0  0  0  0  0  0  0  0  # atno 17395 bound_to 11000

$$$$
