AV-unprocessed.smi:1400|AV-procd|sdf|5686|dock4
  -GOLD-   22720 5313D 1   1.00000     0.00000
 Structure written by MMmdl.
 34 35  0  0  0  0  0  0  0  0  1 V2000
  149.6968  140.7799  156.0609 C   0  0  0  0  0  0  0  0  0  0  0  0
  148.8675  141.1799  154.8383 C   0  0  0  0  0  0  0  0  0  0  0  0
  149.3349  142.0238  154.0735 O   0  0  0  0  0  0  0  0  0  0  0  0
  147.6629  140.5942  154.6344 N   0  0  0  0  0  0  0  0  0  0  0  0
  146.8487  140.8472  153.4400 C   0  0  0  0  0  0  0  0  0  0  0  0
  146.8572  139.5864  152.5559 C   0  0  0  0  0  0  0  0  0  0  0  0
  146.3769  138.3461  153.3405 C   0  0  0  0  0  0  0  0  0  0  0  0
  146.5939  137.1404  152.5449 N   0  0  0  0  0  0  0  0  0  0  0  0
  145.6425  136.2922  152.1270 C   0  0  0  0  0  0  0  0  0  0  0  0
  144.4439  136.4359  152.3700 O   0  0  0  0  0  0  0  0  0  0  0  0
  146.1745  135.2804  151.4189 N   0  0  0  0  0  0  0  0  0  0  0  0
  145.5059  134.1820  150.8168 C   0  0  0  0  0  0  0  0  0  0  0  0
  144.1886  134.1344  150.5856 N   0  0  0  0  0  0  0  0  0  0  0  0
  143.8049  132.9331  149.9840 C   0  0  0  0  0  0  0  0  0  0  0  0
  144.8502  132.0712  149.7630 C   0  0  0  0  0  0  0  0  0  0  0  0
  146.3674  132.7383  150.3043 S   0  0  0  0  0  0  0  0  0  0  0  0
  147.1055  138.2144  154.6951 C   0  0  0  0  0  0  0  0  0  0  0  0
  147.0771  139.5416  155.4738 C   0  0  0  0  0  0  0  0  0  0  0  0
  149.9027  139.7091  156.0560 H   0  0  0  0  0  0  0  0  0  0  0  0
  149.1755  141.0376  156.9831 H   0  0  0  0  0  0  0  0  0  0  0  0
  150.6544  141.3016  156.0622 H   0  0  0  0  0  0  0  0  0  0  0  0
  145.8282  141.0872  153.7417 H   0  0  0  0  0  0  0  0  0  0  0  0
  147.1971  141.7058  152.8646 H   0  0  0  0  0  0  0  0  0  0  0  0
  146.2277  139.7419  151.6791 H   0  0  0  0  0  0  0  0  0  0  0  0
  147.8696  139.4200  152.1844 H   0  0  0  0  0  0  0  0  0  0  0  0
  145.3144  138.4793  153.5521 H   0  0  0  0  0  0  0  0  0  0  0  0
  147.5497  136.9367  152.2915 H   0  0  0  0  0  0  0  0  0  0  0  0
  147.1766  135.2952  151.2990 H   0  0  0  0  0  0  0  0  0  0  0  0
  142.7633  132.7743  149.7469 H   0  0  0  0  0  0  0  0  0  0  0  0
  144.8192  131.0885  149.3165 H   0  0  0  0  0  0  0  0  0  0  0  0
  146.6482  137.4232  155.2903 H   0  0  0  0  0  0  0  0  0  0  0  0
  148.1433  137.9188  154.5323 H   0  0  0  0  0  0  0  0  0  0  0  0
  147.5756  139.4201  156.4344 H   0  0  0  0  0  0  0  0  0  0  0  0
  146.0470  139.8083  155.7145 H   0  0  0  0  0  0  0  0  0  0  0  0
  1  2  1  0  0  0  0
  1 19  1  0  0  0  0
  1 20  1  0  0  0  0
  1 21  1  0  0  0  0
  2  3  2  0  0  0  0
  2  4  1  0  0  0  0
  4 18  1  0  0  0  0
  4  5  1  0  0  0  0
  5  6  1  0  0  0  0
  5 22  1  0  0  0  0
  5 23  1  0  0  0  0
  6  7  1  0  0  0  0
  6 24  1  0  0  0  0
  6 25  1  0  0  0  0
  7  8  1  0  0  0  0
  7 17  1  0  0  0  0
  7 26  1  0  0  0  0
  8  9  1  0  0  0  0
  8 27  1  0  0  0  0
  9 10  2  0  0  0  0
  9 11  1  0  0  0  0
 11 12  1  0  0  0  0
 11 28  1  0  0  0  0
 12 16  1  0  0  0  0
 12 13  2  0  0  0  0
 13 14  1  0  0  0  0
 14 15  2  0  0  0  0
 14 29  1  0  0  0  0
 15 16  1  0  0  0  0
 15 30  1  0  0  0  0
 17 18  1  0  0  0  0
 17 31  1  0  0  0  0
 17 32  1  0  0  0  0
 18 33  1  0  0  0  0
 18 34  1  0  0  0  0
M  END
> <s_m_source_file>
AV-unprocessed.smi

> <i_m_source_file_index>
1400

> <i_lp_mmshare_version>
43012

> <i_f3d_flags>
0

> <s_epik_input>
W0NIM11DKD1PKU4xW0NIMl1bQ0gyXVtDSF0oW0NIMl1bQ0gyXTEpW05IXUMoPU8pW05IXWMybltjSF1bY0hdczI=

> <s_epik_cmdline>
J2VwaWtfcHl0aG9uJywgJy1waCcsICc3LjAnLCAnLXRuJywgJzgnLCAnLW1hJywgJzIwMCcsICctbWV0YWxfYmluZGluZycsICctaW1hZScsICc8aW5maWxlLm1hZT4nLCAnLW9tYWUnLCAnPG91dGZpbGUubWFlPic=

> <r_lp_tautomer_probability>
1

> <r_epik_Ionization_Penalty>
0.000151384

> <r_epik_Ionization_Penalty_Charging>
0

> <r_epik_Ionization_Penalty_Neutral>
0.000151384

> <r_epik_State_Penalty>
-0

> <r_epik_Charging_Adjusted_Penalty>
0

> <i_epik_Tot_Q>
0

> <i_epik_Tot_abs_Q>
0

> <r_epik_Metal_State_Penalty>
0.0312905

> <b_epik_Metal_Only>
0

> <s_lp_Force_Field>
OPLS_2005

> <r_lp_Energy>
21.754

> <b_lp_Chiralities_Consistent>
1

> <s_lp_Variant>
AV-unprocessed.smi:1400-1

> <Gold.Version>
5.8.1

> <Gold.Id.Protein>
6NUR|6NUR_protein|mol2

> <Gold.PLP.Fitness>
36.1026

> <Gold.PLP.PLP>
-26.3181

> <Gold.PLP.part.hbond>
-3.9521

> <Gold.PLP.part.metal>
0.0000

> <Gold.PLP.part.buried>
-0.8705

> <Gold.PLP.part.nonpolar>
-23.1549

> <Gold.PLP.part.repulsive>
0.6894

> <Gold.PLP.ligand.clash>
0.0000

> <Gold.PLP.ligand.torsion>
0.0702

> <Gold.PLP.Chemscore.Hbond>
2.3197

> <Gold.PLP.Chemscore.CHOScore>
0.9830

> <Gold.PLP.Chemscore.Metal>
0.0000

> <Gold.Chemscore.Hbonds>
donor molecule, donor type, donor heavy atom, donor atom, acceptor molecule, acceptor atom, score
      L1  H     8    27       P1  7948  1.00
      L1  H    11    28       P1  7948  0.94
      P1  H  8011  8017       L1     3  0.38
      L1  C    14    29       P1 10186  0.97

> <Gold.PLP.Chemscore.Internal.Correction>
0.0165

> <Gold.Rescore>
     Score         DG    S(hbond)    S(metal)    S(lipo)     H(rot)  DE(clash)    DE(int)     intcor
     15.04     -16.66       2.11        0.00      57.36       1.00       0.33       1.29       ----

> <Gold.Chemscore.Fitness>
15.0421

> <Gold.Chemscore.DG>
-16.6639

> <Gold.Chemscore.ZeroCoef>
-5.4800

> <Gold.Chemscore.Hbond>
2.1056

> <Gold.Chemscore.Metal>
0.0000

> <Gold.Chemscore.Lipo>
57.3599

> <Gold.Chemscore.Internal_Hbond>
0.0000

> <Gold.Chemscore.DEClash>
0.3285

> <Gold.Chemscore.DEInternal>
1.2933

> <Gold.Chemscore.Rot>
1.0000

> <Gold.Chemscore.Internal.Correction>
   9.000000E+99

> <Gold.Chemscore.Hbonds>
donor molecule, donor type, donor heavy atom, donor atom, acceptor molecule, acceptor atom, score
      L1  H     8    27       P1  7948  0.99
      L1  H    11    28       P1  7948  0.72
      P1  H  8011  8017       L1     3  0.38

> <Gold.Chemscore.Hbond.Weighted>
-7.0327

> <Gold.Chemscore.Metal.Weighted>
-0.0000

> <Gold.Chemscore.Lipo.Weighted>
-6.7111

> <Gold.Chemscore.Internal_Hbond.Weighted>
0.0000

> <Gold.Chemscore.DEClash.Weighted>
0.3285

> <Gold.Chemscore.DEInternal.Weighted>
1.2933

> <Gold.Chemscore.Rot.Weighted>
2.5600

> <Gold.Chemscore.Internal.Correction.Weighted>
   9.000000E+99

> <Gold.Protein.RotatedTorsions>
[ 6907 6896 6895 6894 ] final -118.31 input  -60.11 | X-H torsion
[ 7974 7965 7964 7962 ] final  175.48 input  175.53 | X-H torsion
[ 8008 7997 7996 7995 ] final  152.90 input   59.86 | X-H torsion
[ 10167 10162 10161 10158 ] final   -1.14 input  -65.29 | X-H torsion
[ 10718 10713 10712 10709 ] final -126.84 input   66.30 | X-H torsion
[ 10763 10752 10751 10750 ] final  -49.90 input  -60.55 | X-H torsion
[ 11005 11000 10999 10996 ] final   31.10 input  -57.11 | X-H torsion

> <Gold.Protein.ActiveResidues>
 VAL166  LYS551  ARG553  GLY616  TRP617  ASP618  TYR619  PRO620  LYS621  CYS622 
 ASP623  PHE694  ASN695  SER759  ASP760  ASP761  ALA762  ILE779  LEU786  VAL792 
 PHE793  MET794  SER795  GLU796  ALA797  LYS798  CYS799  TRP800  GLU811  SER814 

> <Gold.Protein.RotatedAtoms>
  150.8209  133.8254  159.3139 H   0  0  0  0  0  0  0  0  0  0  0  0  # atno 6907 bound_to 6896
  151.6012  135.1045  160.0070 H   0  0  0  0  0  0  0  0  0  0  0  0  # atno 6908 bound_to 6896
  152.4298  133.7217  159.6594 H   0  0  0  0  0  0  0  0  0  0  0  0  # atno 6909 bound_to 6896
  144.7201  139.9952  143.6440 H   0  0  0  0  0  0  0  0  0  0  0  0  # atno 7974 bound_to 7965
  156.2607  140.2008  156.6406 H   0  0  0  0  0  0  0  0  0  0  0  0  # atno 8008 bound_to 7997
  154.6612  140.0560  157.0089 H   0  0  0  0  0  0  0  0  0  0  0  0  # atno 8009 bound_to 7997
  155.1273  140.3230  155.4485 H   0  0  0  0  0  0  0  0  0  0  0  0  # atno 8010 bound_to 7997
  140.6797  143.6811  150.8105 H   0  0  0  0  0  0  0  0  0  0  0  0  # atno 10167 bound_to 10162
  156.1802  130.6727  151.0294 H   0  0  0  0  0  0  0  0  0  0  0  0  # atno 10718 bound_to 10713
  154.1017  135.6562  153.4869 H   0  0  0  0  0  0  0  0  0  0  0  0  # atno 10763 bound_to 10752
  153.0286  135.5226  154.7280 H   0  0  0  0  0  0  0  0  0  0  0  0  # atno 10764 bound_to 10752
  154.6434  135.2991  155.0045 H   0  0  0  0  0  0  0  0  0  0  0  0  # atno 10765 bound_to 10752
  140.2875  134.2903  155.7784 H   0  0  0  0  0  0  0  0  0  0  0  0  # atno 11005 bound_to 11000
  146.0379  139.3395  143.0715 LP  0  0  0  0  0  0  0  0  0  0  0  0  # atno 17320 bound_to 7965
  145.8371  140.9600  143.0818 LP  0  0  0  0  0  0  0  0  0  0  0  0  # atno 17321 bound_to 7965
  140.0509  143.5251  152.2674 LP  0  0  0  0  0  0  0  0  0  0  0  0  # atno 17342 bound_to 10162
  139.6112  144.7609  151.2948 LP  0  0  0  0  0  0  0  0  0  0  0  0  # atno 17343 bound_to 10162
  157.6863  131.0824  150.7234 LP  0  0  0  0  0  0  0  0  0  0  0  0  # atno 17370 bound_to 10713
  156.7291  130.4704  149.5504 LP  0  0  0  0  0  0  0  0  0  0  0  0  # atno 17371 bound_to 10713
  141.2152  133.7564  156.9574 LP  0  0  0  0  0  0  0  0  0  0  0  0  # atno 17394 bound_to 11000
  140.1226  134.9407  157.2225 LP  0  0  0  0  0  0  0  0  0  0  0  0  # atno 17395 bound_to 11000

$$$$
