AV-unprocessed.smi:3348|AV-procd|sdf|12918|dock6
  -GOLD-   2272019333D 1   1.00000     0.00000
 Structure written by MMmdl.
 47 48  0  0  0  0  0  0  0  0  2 V2000
  144.0773  137.0377  152.5638 C   0  0  0  0  0  0  0  0  0  0  0  0
  145.4436  136.4563  152.1503 C   0  0  1  0  0  0  0  0  0  0  0  0
  145.4186  135.8509  150.7313 C   0  0  0  0  0  0  0  0  0  0  0  0
  145.3474  134.4009  150.7326 N   0  0  0  0  0  0  0  0  0  0  0  0
  144.3262  133.5894  150.2845 C   0  0  0  0  0  0  0  0  0  0  0  0
  144.7163  132.2968  150.4874 C   0  0  0  0  0  0  0  0  0  0  0  0
  146.0105  132.4207  151.0655 C   0  0  0  0  0  0  0  0  0  0  0  0
  146.3857  133.6816  151.2093 N   0  0  0  0  0  0  0  0  0  0  0  0
  146.5069  137.4834  152.2211 N   0  3  0  0  0  0  0  0  0  0  0  0
  146.6788  138.1317  153.5387 C   0  0  0  0  0  0  0  0  0  0  0  0
  147.9711  138.9525  153.5775 C   0  0  0  0  0  0  0  0  0  0  0  0
  148.0215  139.6478  154.8140 O   0  0  0  0  0  0  0  0  0  0  0  0
  148.5746  140.9581  154.7416 C   0  0  1  0  0  0  0  0  0  0  0  0
  147.7225  141.8594  153.8222 C   0  0  0  0  0  0  0  0  0  0  0  0
  146.3120  142.0805  154.3923 C   0  0  0  0  0  0  0  0  0  0  0  0
  146.3717  142.6525  155.8168 C   0  0  0  0  0  0  0  0  0  0  0  0
  147.2189  141.7638  156.7417 C   0  0  0  0  0  0  0  0  0  0  0  0
  148.6344  141.5401  156.1719 C   0  0  1  0  0  0  0  0  0  0  0  0
  149.4992  140.6826  157.1092 C   0  0  0  0  0  0  0  0  0  0  0  0
  143.2957  136.2782  152.5369 H   0  0  0  0  0  0  0  0  0  0  0  0
  143.7746  137.8471  151.8986 H   0  0  0  0  0  0  0  0  0  0  0  0
  144.0938  137.4300  153.5801 H   0  0  0  0  0  0  0  0  0  0  0  0
  145.7060  135.6590  152.8478 H   0  0  0  0  0  0  0  0  0  0  0  0
  144.5654  136.2364  150.1709 H   0  0  0  0  0  0  0  0  0  0  0  0
  146.3119  136.1454  150.1782 H   0  0  0  0  0  0  0  0  0  0  0  0
  143.4161  133.9935  149.8664 H   0  0  0  0  0  0  0  0  0  0  0  0
  144.1628  131.3986  150.2561 H   0  0  0  0  0  0  0  0  0  0  0  0
  146.6836  131.6376  151.3817 H   0  0  0  0  0  0  0  0  0  0  0  0
  147.3821  137.0278  152.0034 H   0  0  0  0  0  0  0  0  0  0  0  0
  145.8316  138.7883  153.7348 H   0  0  0  0  0  0  0  0  0  0  0  0
  146.6941  137.3786  154.3278 H   0  0  0  0  0  0  0  0  0  0  0  0
  148.8389  138.3009  153.4630 H   0  0  0  0  0  0  0  0  0  0  0  0
  147.9774  139.6568  152.7459 H   0  0  0  0  0  0  0  0  0  0  0  0
  149.5929  140.9044  154.3523 H   0  0  0  0  0  0  0  0  0  0  0  0
  148.2169  142.8254  153.7124 H   0  0  0  0  0  0  0  0  0  0  0  0
  147.6567  141.4448  152.8169 H   0  0  0  0  0  0  0  0  0  0  0  0
  145.7517  142.7557  153.7450 H   0  0  0  0  0  0  0  0  0  0  0  0
  145.7661  141.1363  154.3988 H   0  0  0  0  0  0  0  0  0  0  0  0
  146.7947  143.6575  155.7887 H   0  0  0  0  0  0  0  0  0  0  0  0
  145.3633  142.7534  156.2192 H   0  0  0  0  0  0  0  0  0  0  0  0
  147.2830  142.2244  157.7282 H   0  0  0  0  0  0  0  0  0  0  0  0
  146.7194  140.8045  156.8834 H   0  0  0  0  0  0  0  0  0  0  0  0
  149.1158  142.5170  156.1049 H   0  0  0  0  0  0  0  0  0  0  0  0
  149.0714  139.6901  157.2528 H   0  0  0  0  0  0  0  0  0  0  0  0
  149.5909  141.1478  158.0908 H   0  0  0  0  0  0  0  0  0  0  0  0
  150.5059  140.5575  156.7098 H   0  0  0  0  0  0  0  0  0  0  0  0
  146.3322  138.1888  151.5199 H   0  0  0  0  0  0  0  0  0  0  0  0
  1  2  1  0  0  0  0
  1 20  1  0  0  0  0
  1 21  1  0  0  0  0
  1 22  1  0  0  0  0
  2  3  1  0  0  0  0
  2  9  1  0  0  0  0
  2 23  1  0  0  0  0
  3  4  1  0  0  0  0
  3 24  1  0  0  0  0
  3 25  1  0  0  0  0
  4  8  1  0  0  0  0
  4  5  1  0  0  0  0
  5  6  2  0  0  0  0
  5 26  1  0  0  0  0
  6  7  1  0  0  0  0
  6 27  1  0  0  0  0
  7  8  2  0  0  0  0
  7 28  1  0  0  0  0
  9 10  1  0  0  0  0
  9 29  1  0  0  0  0
  9 47  1  0  0  0  0
 10 11  1  0  0  0  0
 10 30  1  0  0  0  0
 10 31  1  0  0  0  0
 11 12  1  0  0  0  0
 11 32  1  0  0  0  0
 11 33  1  0  0  0  0
 12 13  1  0  0  0  0
 13 18  1  0  0  0  0
 13 14  1  0  0  0  0
 13 34  1  0  0  0  0
 14 15  1  0  0  0  0
 14 35  1  0  0  0  0
 14 36  1  0  0  0  0
 15 16  1  0  0  0  0
 15 37  1  0  0  0  0
 15 38  1  0  0  0  0
 16 17  1  0  0  0  0
 16 39  1  0  0  0  0
 16 40  1  0  0  0  0
 17 18  1  0  0  0  0
 17 41  1  0  0  0  0
 17 42  1  0  0  0  0
 18 19  1  0  0  0  0
 18 43  1  0  0  0  0
 19 44  1  0  0  0  0
 19 45  1  0  0  0  0
 19 46  1  0  0  0  0
M  CHG  1   9   1
M  END
> <s_m_source_file>
AV-unprocessed.smi

> <i_m_source_file_index>
3348

> <i_lp_mmshare_version>
43012

> <i_f3d_flags>
0

> <s_epik_input>
bjFbY0hdW2NIXVtjSF1uMVtDSDJdW0NAQEhdKFtDSDNdKVtOSF1bQ0gyXVtDSDJdT1tDQEBIXTJbQ0gyXVtDSDJdW0NIMl1bQ0gyXVtDQEhdMltDSDNd

> <s_epik_cmdline>
J2VwaWtfcHl0aG9uJywgJy1waCcsICc3LjAnLCAnLXRuJywgJzgnLCAnLW1hJywgJzIwMCcsICctbWV0YWxfYmluZGluZycsICctaW1hZScsICc8aW5maWxlLm1hZT4nLCAnLW9tYWUnLCAnPG91dGZpbGUubWFlPic=

> <r_lp_tautomer_probability>
1

> <r_epik_Ionization_Penalty>
0.00925088

> <r_epik_Ionization_Penalty_Charging>
0.00924645

> <r_epik_Ionization_Penalty_Neutral>
4.42413e-06

> <r_epik_State_Penalty>
0.0070118

> <r_epik_Charging_Adjusted_Penalty>
0.0162583

> <i_epik_Tot_Q>
1

> <i_epik_Tot_abs_Q>
1

> <r_epik_Metal_State_Penalty>
0.00701222

> <b_epik_Metal_Only>
0

> <s_lp_Force_Field>
OPLS_2005

> <r_lp_Energy>
16.697

> <b_lp_Chiralities_Consistent>
1

> <s_lp_Variant>
AV-unprocessed.smi:3348-4

> <Gold.Version>
5.8.1

> <Gold.Id.Protein>
6NUR|6NUR_protein|mol2

> <Gold.PLP.Fitness>
43.7668

> <Gold.PLP.PLP>
-33.5252

> <Gold.PLP.part.hbond>
-1.0000

> <Gold.PLP.part.metal>
0.0000

> <Gold.PLP.part.buried>
-4.5987

> <Gold.PLP.part.nonpolar>
-28.0090

> <Gold.PLP.part.repulsive>
0.3275

> <Gold.PLP.ligand.clash>
0.0000

> <Gold.PLP.ligand.torsion>
0.9691

> <Gold.PLP.Chemscore.Hbond>
2.0000

> <Gold.PLP.Chemscore.CHOScore>
2.0000

> <Gold.PLP.Chemscore.Metal>
0.0000

> <Gold.Chemscore.Hbonds>
donor molecule, donor type, donor heavy atom, donor atom, acceptor molecule, acceptor atom, score
      L1  H     9    29       P1  7948  2.00
      L1  C     5    26       P1 10186  1.00
      L1  C     7    28       P1 10747  0.65

> <Gold.PLP.Chemscore.Internal.Correction>
0.1799

> <Gold.Rescore>
     Score         DG    S(hbond)    S(metal)    S(lipo)     H(rot)  DE(clash)    DE(int)     intcor
     13.00     -14.19       1.00        0.00      85.62       1.82       0.12       1.06       ----

> <Gold.Chemscore.Fitness>
13.0033

> <Gold.Chemscore.DG>
-14.1880

> <Gold.Chemscore.ZeroCoef>
-5.4800

> <Gold.Chemscore.Hbond>
0.9999

> <Gold.Chemscore.Metal>
0.0000

> <Gold.Chemscore.Lipo>
85.6233

> <Gold.Chemscore.Internal_Hbond>
0.0000

> <Gold.Chemscore.DEClash>
0.1225

> <Gold.Chemscore.DEInternal>
1.0622

> <Gold.Chemscore.Rot>
1.8163

> <Gold.Chemscore.Internal.Correction>
   9.000000E+99

> <Gold.Chemscore.Hbonds>
donor molecule, donor type, donor heavy atom, donor atom, acceptor molecule, acceptor atom, score
      L1  H     9    29       P1  7948  1.00

> <Gold.Chemscore.Hbond.Weighted>
-3.3398

> <Gold.Chemscore.Metal.Weighted>
-0.0000

> <Gold.Chemscore.Lipo.Weighted>
-10.0179

> <Gold.Chemscore.Internal_Hbond.Weighted>
0.0000

> <Gold.Chemscore.DEClash.Weighted>
0.1225

> <Gold.Chemscore.DEInternal.Weighted>
1.0622

> <Gold.Chemscore.Rot.Weighted>
4.6497

> <Gold.Chemscore.Internal.Correction.Weighted>
   9.000000E+99

> <Gold.Protein.RotatedTorsions>
[ 6907 6896 6895 6894 ] final   29.52 input  -60.11 | X-H torsion
[ 7974 7965 7964 7962 ] final  174.74 input  175.53 | X-H torsion
[ 8008 7997 7996 7995 ] final  116.97 input   59.86 | X-H torsion
[ 10167 10162 10161 10158 ] final  -59.12 input  -65.29 | X-H torsion
[ 10718 10713 10712 10709 ] final  -50.72 input   66.30 | X-H torsion
[ 10763 10752 10751 10750 ] final  178.35 input  -60.55 | X-H torsion
[ 11005 11000 10999 10996 ] final -162.90 input  -57.11 | X-H torsion

> <Gold.Protein.ActiveResidues>
 VAL166  LYS551  ARG553  GLY616  TRP617  ASP618  TYR619  PRO620  LYS621  CYS622 
 ASP623  PHE694  ASN695  SER759  ASP760  ASP761  ALA762  ILE779  LEU786  VAL792 
 PHE793  MET794  SER795  GLU796  ALA797  LYS798  CYS799  TRP800  GLU811  SER814 

> <Gold.Protein.RotatedAtoms>
  152.0327  134.9758  160.0572 H   0  0  0  0  0  0  0  0  0  0  0  0  # atno 6907 bound_to 6896
  152.1228  133.4358  159.4692 H   0  0  0  0  0  0  0  0  0  0  0  0  # atno 6908 bound_to 6896
  150.6850  134.2433  159.4524 H   0  0  0  0  0  0  0  0  0  0  0  0  # atno 6909 bound_to 6896
  144.7215  139.9842  143.6439 H   0  0  0  0  0  0  0  0  0  0  0  0  # atno 7974 bound_to 7965
  156.2468  140.2906  156.0605 H   0  0  0  0  0  0  0  0  0  0  0  0  # atno 8008 bound_to 7997
  155.1781  140.0403  157.2894 H   0  0  0  0  0  0  0  0  0  0  0  0  # atno 8009 bound_to 7997
  154.6279  140.2492  155.7476 H   0  0  0  0  0  0  0  0  0  0  0  0  # atno 8010 bound_to 7997
  140.6155  143.2401  151.5607 H   0  0  0  0  0  0  0  0  0  0  0  0  # atno 10167 bound_to 10162
  156.1775  130.4150  149.9556 H   0  0  0  0  0  0  0  0  0  0  0  0  # atno 10718 bound_to 10713
  154.5065  135.2786  155.1378 H   0  0  0  0  0  0  0  0  0  0  0  0  # atno 10763 bound_to 10752
  154.2991  135.6251  153.5421 H   0  0  0  0  0  0  0  0  0  0  0  0  # atno 10764 bound_to 10752
  152.9911  135.5692  154.5520 H   0  0  0  0  0  0  0  0  0  0  0  0  # atno 10765 bound_to 10752
  140.6041  134.4917  157.5208 H   0  0  0  0  0  0  0  0  0  0  0  0  # atno 11005 bound_to 11000
  146.0463  139.3469  143.0666 LP  0  0  0  0  0  0  0  0  0  0  0  0  # atno 17320 bound_to 7965
  145.8271  140.9650  143.0868 LP  0  0  0  0  0  0  0  0  0  0  0  0  # atno 17321 bound_to 7965
  139.5395  144.2687  152.1321 LP  0  0  0  0  0  0  0  0  0  0  0  0  # atno 17342 bound_to 10162
  140.1895  144.4765  150.6486 LP  0  0  0  0  0  0  0  0  0  0  0  0  # atno 17343 bound_to 10162
  156.7337  130.9053  151.3627 LP  0  0  0  0  0  0  0  0  0  0  0  0  # atno 17370 bound_to 10713
  157.6845  130.9172  150.0352 LP  0  0  0  0  0  0  0  0  0  0  0  0  # atno 17371 bound_to 10713
  139.9220  134.8130  156.1183 LP  0  0  0  0  0  0  0  0  0  0  0  0  # atno 17394 bound_to 11000
  141.0852  133.6737  156.2421 LP  0  0  0  0  0  0  0  0  0  0  0  0  # atno 17395 bound_to 11000

$$$$
