AV-unprocessed.smi:72|AV-procd|sdf|715|dock10
  -GOLD-   2262017 43D 1   1.00000     0.00000
 Structure written by MMmdl.
 28 29  0  0  0  0  0  0  0  0  2 V2000
  150.7668  135.0505  157.4415 N   0  0  0  0  0  0  0  0  0  0  0  0
  150.5898  136.0953  156.7589 C   0  0  0  0  0  0  0  0  0  0  0  0
  149.4347  136.9316  156.9960 N   0  0  0  0  0  0  0  0  0  0  0  0
  149.2622  137.9569  156.2198 C   0  0  0  0  0  0  0  0  0  0  0  0
  150.1630  138.2486  155.1076 N   0  0  0  0  0  0  0  0  0  0  0  0
  149.9647  139.4702  154.2164 C   0  0  2  0  0  0  0  0  0  0  0  0
  150.7989  140.5124  154.6486 O   0  0  0  0  0  0  0  0  0  0  0  0
  150.0669  141.5325  155.3274 C   0  0  2  0  0  0  0  0  0  0  0  0
  149.9610  141.2256  156.8394 C   0  0  0  0  0  0  0  0  0  0  0  0
  149.2986  142.2832  157.4994 O   0  0  0  0  0  0  0  0  0  0  0  0
  148.7393  141.5057  154.5640 C   0  0  2  0  0  0  0  0  0  0  0  0
  147.6626  142.0618  155.2931 O   0  0  0  0  0  0  0  0  0  0  0  0
  148.5209  140.0269  154.2738 C   0  0  1  0  0  0  0  0  0  0  0  0
  147.8526  139.8915  153.0354 O   0  0  0  0  0  0  0  0  0  0  0  0
  151.3522  137.4764  154.9828 C   0  0  0  0  0  0  0  0  0  0  0  0
  152.1857  137.8173  154.1441 O   0  0  0  0  0  0  0  0  0  0  0  0
  151.5303  136.4028  155.8022 N   0  5  0  0  0  0  0  0  0  0  0  0
  150.2776  139.1369  153.2256 H   0  0  0  0  0  0  0  0  0  0  0  0
  150.5557  142.4976  155.1884 H   0  0  0  0  0  0  0  0  0  0  0  0
  148.8645  142.0598  153.6318 H   0  0  0  0  0  0  0  0  0  0  0  0
  147.9621  139.5512  155.0816 H   0  0  0  0  0  0  0  0  0  0  0  0
  151.6109  134.5610  157.1818 H   0  0  0  0  0  0  0  0  0  0  0  0
  148.4349  138.6534  156.3554 H   0  0  0  0  0  0  0  0  0  0  0  0
  149.3560  140.3351  157.0078 H   0  0  0  0  0  0  0  0  0  0  0  0
  150.9301  141.0326  157.2968 H   0  0  0  0  0  0  0  0  0  0  0  0
  149.2276  143.0117  156.9017 H   0  0  0  0  0  0  0  0  0  0  0  0
  147.8412  142.9801  155.4287 H   0  0  0  0  0  0  0  0  0  0  0  0
  148.5031  139.7363  152.3665 H   0  0  0  0  0  0  0  0  0  0  0  0
  1  2  2  0  0  0  0
  1 22  1  0  0  0  0
  2 17  1  0  0  0  0
  2  3  1  0  0  0  0
  3  4  2  0  0  0  0
  4  5  1  0  0  0  0
  4 23  1  0  0  0  0
  5  6  1  0  0  0  0
  5 15  1  0  0  0  0
  6 18  1  0  0  0  0
  6 13  1  0  0  0  0
  6  7  1  0  0  0  0
  7  8  1  0  0  0  0
  8 19  1  0  0  0  0
  8  9  1  0  0  0  0
  8 11  1  0  0  0  0
  9 10  1  0  0  0  0
  9 24  1  0  0  0  0
  9 25  1  0  0  0  0
 10 26  1  0  0  0  0
 11 20  1  0  0  0  0
 11 12  1  0  0  0  0
 11 13  1  0  0  0  0
 12 27  1  0  0  0  0
 13 21  1  0  0  0  0
 13 14  1  0  0  0  0
 14 28  1  0  0  0  0
 15 16  2  0  0  0  0
 15 17  1  0  0  0  0
M  CHG  1  17  -1
M  END
> <s_m_source_file>
AV-unprocessed.smi

> <i_m_source_file_index>
72

> <i_lp_mmshare_version>
43012

> <i_f3d_flags>
0

> <s_epik_input>
W05IMl1jMW5bY0hdbihjKD1PKW4xKVtDQEBIXTJPW0NASF0oW0NIMl1bT0hdKVtDQEBIXShbT0hdKVtDQEhdMltPSF0=

> <s_epik_cmdline>
J2VwaWtfcHl0aG9uJywgJy1waCcsICc3LjAnLCAnLXRuJywgJzgnLCAnLW1hJywgJzIwMCcsICctbWV0YWxfYmluZGluZycsICctaW1hZScsICc8aW5maWxlLm1hZT4nLCAnLW9tYWUnLCAnPG91dGZpbGUubWFlPic=

> <r_lp_tautomer_probability>
7.17554e-07

> <r_epik_Ionization_Penalty>
12.8705

> <r_epik_Ionization_Penalty_Charging>
5.64144

> <r_epik_Ionization_Penalty_Neutral>
7.22905

> <r_epik_State_Penalty>
3.30104

> <r_epik_Charging_Adjusted_Penalty>
8.94249

> <i_epik_Tot_Q>
-1

> <i_epik_Tot_abs_Q>
1

> <r_epik_Metal_State_Penalty>
0.529074

> <b_epik_Metal_Only>
1

> <s_epik_Chemistry_Notes>
This compound contains an acetal/aminal-like group ( X-CH(R)-Y where X, Y are N, S, or O) that may be acid/base labile, releasing an aldehyde.

> <s_lp_Force_Field>
OPLS_2005

> <r_lp_Energy>
34.2271

> <b_lp_Chiralities_Consistent>
1

> <s_lp_Variant>
AV-unprocessed.smi:72-53

> <Gold.Version>
5.8.1

> <Gold.Id.Protein>
6NUR|6NUR_protein|mol2

> <Gold.PLP.Fitness>
40.7479

> <Gold.PLP.PLP>
-23.5553

> <Gold.PLP.part.hbond>
-6.4477

> <Gold.PLP.part.metal>
0.0000

> <Gold.PLP.part.buried>
-1.7650

> <Gold.PLP.part.nonpolar>
-14.9599

> <Gold.PLP.part.repulsive>
0.2865

> <Gold.PLP.ligand.clash>
0.0000

> <Gold.PLP.ligand.torsion>
0.4667

> <Gold.PLP.Chemscore.Hbond>
6.0100

> <Gold.PLP.Chemscore.CHOScore>
0.0000

> <Gold.PLP.Chemscore.Metal>
0.0000

> <Gold.Chemscore.Hbonds>
donor molecule, donor type, donor heavy atom, donor atom, acceptor molecule, acceptor atom, score
      L1  H    10    26       P1  8028  0.75
      L1  H    12    27       P1  8028  1.00
      L1  H    14    28       P1  7957  1.00
      P1  H  6896  6908       L1     1  0.28
      P1  H  7989  7998       L1     7  0.83
      P1  H 10752 10763       L1    17  2.00

> <Gold.PLP.Chemscore.Internal.Correction>
0.0960

> <Gold.Rescore>
     Score         DG    S(hbond)    S(metal)    S(lipo)     H(rot)  DE(clash)    DE(int)     intcor
      9.40     -10.64       3.68        0.00      27.54       4.04       0.69       0.55       ----

> <Gold.Chemscore.Fitness>
9.3988

> <Gold.Chemscore.DG>
-10.6359

> <Gold.Chemscore.ZeroCoef>
-5.4800

> <Gold.Chemscore.Hbond>
3.6758

> <Gold.Chemscore.Metal>
0.0000

> <Gold.Chemscore.Lipo>
27.5384

> <Gold.Chemscore.Internal_Hbond>
0.0000

> <Gold.Chemscore.DEClash>
0.6904

> <Gold.Chemscore.DEInternal>
0.5467

> <Gold.Chemscore.Rot>
4.0403

> <Gold.Chemscore.Internal.Correction>
   9.000000E+99

> <Gold.Chemscore.Hbonds>
donor molecule, donor type, donor heavy atom, donor atom, acceptor molecule, acceptor atom, score
      L1  H    10    26       P1  8028  0.71
      L1  H    12    27       P1  8028  0.66
      L1  H    14    28       P1  7957  0.99
      P1  H  6896  6908       L1     1  0.05
      P1  H  7989  7998       L1     7  0.47
      P1  H 10752 10763       L1    17  0.34

> <Gold.Chemscore.Hbond.Weighted>
-12.2770

> <Gold.Chemscore.Metal.Weighted>
-0.0000

> <Gold.Chemscore.Lipo.Weighted>
-3.2220

> <Gold.Chemscore.Internal_Hbond.Weighted>
0.0000

> <Gold.Chemscore.DEClash.Weighted>
0.6904

> <Gold.Chemscore.DEInternal.Weighted>
0.5467

> <Gold.Chemscore.Rot.Weighted>
10.3431

> <Gold.Chemscore.Internal.Correction.Weighted>
   9.000000E+99

> <Gold.Protein.RotatedTorsions>
[ 6907 6896 6895 6894 ] final  156.67 input  -60.11 | X-H torsion
[ 7974 7965 7964 7962 ] final   70.45 input  175.53 | X-H torsion
[ 8008 7997 7996 7995 ] final -170.32 input   59.86 | X-H torsion
[ 10167 10162 10161 10158 ] final   40.96 input  -65.29 | X-H torsion
[ 10718 10713 10712 10709 ] final   56.67 input   66.30 | X-H torsion
[ 10763 10752 10751 10750 ] final   82.47 input  -60.55 | X-H torsion
[ 11005 11000 10999 10996 ] final  -24.50 input  -57.11 | X-H torsion

> <Gold.Protein.ActiveResidues>
 VAL166  LYS551  ARG553  GLY616  TRP617  ASP618  TYR619  PRO620  LYS621  CYS622 
 ASP623  PHE694  ASN695  SER759  ASP760  ASP761  ALA762  ILE779  LEU786  VAL792 
 PHE793  MET794  SER795  GLU796  ALA797  LYS798  CYS799  TRP800  GLU811  SER814 

> <Gold.Protein.RotatedAtoms>
  152.0263  133.3919  159.4278 H   0  0  0  0  0  0  0  0  0  0  0  0  # atno 6907 bound_to 6896
  150.6886  134.3570  159.4943 H   0  0  0  0  0  0  0  0  0  0  0  0  # atno 6908 bound_to 6896
  152.1350  134.9105  160.0607 H   0  0  0  0  0  0  0  0  0  0  0  0  # atno 6909 bound_to 6896
  145.7780  139.2874  143.1282 H   0  0  0  0  0  0  0  0  0  0  0  0  # atno 7974 bound_to 7965
  155.9167  140.1067  157.1238 H   0  0  0  0  0  0  0  0  0  0  0  0  # atno 8008 bound_to 7997
  154.4047  140.1264  156.4692 H   0  0  0  0  0  0  0  0  0  0  0  0  # atno 8009 bound_to 7997
  155.7245  140.3469  155.5033 H   0  0  0  0  0  0  0  0  0  0  0  0  # atno 8010 bound_to 7997
  140.3691  144.2129  150.6134 H   0  0  0  0  0  0  0  0  0  0  0  0  # atno 10167 bound_to 10162
  157.5450  130.8724  149.8878 H   0  0  0  0  0  0  0  0  0  0  0  0  # atno 10718 bound_to 10713
  153.1205  135.4727  154.9188 H   0  0  0  0  0  0  0  0  0  0  0  0  # atno 10763 bound_to 10752
  154.7571  135.3121  154.8451 H   0  0  0  0  0  0  0  0  0  0  0  0  # atno 10764 bound_to 10752
  153.9017  135.6874  153.4808 H   0  0  0  0  0  0  0  0  0  0  0  0  # atno 10765 bound_to 10752
  140.8851  133.7627  156.0350 H   0  0  0  0  0  0  0  0  0  0  0  0  # atno 11005 bound_to 11000
  146.0103  140.8441  142.9974 LP  0  0  0  0  0  0  0  0  0  0  0  0  # atno 17320 bound_to 7965
  144.6801  140.2480  143.7335 LP  0  0  0  0  0  0  0  0  0  0  0  0  # atno 17321 bound_to 7965
  140.5051  143.2306  151.8620 LP  0  0  0  0  0  0  0  0  0  0  0  0  # atno 17342 bound_to 10162
  139.4805  144.5014  151.9055 LP  0  0  0  0  0  0  0  0  0  0  0  0  # atno 17343 bound_to 10162
  156.0528  130.3714  150.1161 LP  0  0  0  0  0  0  0  0  0  0  0  0  # atno 17370 bound_to 10713
  156.9338  130.9722  151.3528 LP  0  0  0  0  0  0  0  0  0  0  0  0  # atno 17371 bound_to 10713
  140.8415  134.3061  157.5312 LP  0  0  0  0  0  0  0  0  0  0  0  0  # atno 17394 bound_to 11000
  139.8723  134.9418  156.3808 LP  0  0  0  0  0  0  0  0  0  0  0  0  # atno 17395 bound_to 11000

$$$$
