AV-unprocessed.smi:2877|AV-procd|sdf|11043|dock8
  -GOLD-   2272015513D 1   1.00000     0.00000
 Structure written by MMmdl.
 41 42  0  0  0  0  0  0  0  0  1 V2000
  152.9108  139.8170  158.1686 O   0  0  0  0  0  0  0  0  0  0  0  0
  152.0211  140.5977  157.8260 C   0  0  0  0  0  0  0  0  0  0  0  0
  151.2462  140.3194  156.5260 C   0  0  0  0  0  0  0  0  0  0  0  0
  149.7857  139.8742  156.7486 C   0  0  0  0  0  0  0  0  0  0  0  0
  149.7136  138.6575  157.5500 N   0  0  0  0  0  0  0  0  0  0  0  0
  148.7231  138.3472  158.4027 C   0  0  0  0  0  0  0  0  0  0  0  0
  147.7559  139.0856  158.5980 O   0  0  0  0  0  0  0  0  0  0  0  0
  148.8424  136.9892  159.1159 C   0  0  0  0  0  0  0  0  0  0  0  0
  148.7188  136.0309  158.1955 F   0  0  0  0  0  0  0  0  0  0  0  0
  150.0629  136.8858  159.6479 F   0  0  0  0  0  0  0  0  0  0  0  0
  147.7871  136.8130  160.2075 C   0  0  0  0  0  0  0  0  0  0  0  0
  146.4078  136.8312  159.8971 C   0  0  0  0  0  0  0  0  0  0  0  0
  145.4778  136.6744  160.9426 C   0  0  0  0  0  0  0  0  0  0  0  0
  145.9554  136.5064  162.2561 C   0  0  0  0  0  0  0  0  0  0  0  0
  147.3481  136.5054  162.4668 C   0  0  0  0  0  0  0  0  0  0  0  0
  148.2482  136.6552  161.4717 N   0  0  0  0  0  0  0  0  0  0  0  0
  151.7051  141.6962  158.5554 N   0  0  0  0  0  0  0  0  0  0  0  0
  152.4387  142.0794  159.7695 C   0  0  0  0  0  0  0  0  0  0  0  0
  153.2546  143.3525  159.4778 C   0  0  0  0  0  0  0  0  0  0  0  0
  152.3452  144.4860  158.9672 C   0  0  0  0  0  0  0  0  0  0  0  0
  151.4440  144.0142  157.8106 C   0  0  0  0  0  0  0  0  0  0  0  0
  150.7106  142.7127  158.1824 C   0  0  0  0  0  0  0  0  0  0  0  0
  151.2552  141.2239  155.9170 H   0  0  0  0  0  0  0  0  0  0  0  0
  151.7743  139.5456  155.9671 H   0  0  0  0  0  0  0  0  0  0  0  0
  149.2307  140.6501  157.2775 H   0  0  0  0  0  0  0  0  0  0  0  0
  149.2775  139.7202  155.7948 H   0  0  0  0  0  0  0  0  0  0  0  0
  150.4712  137.9977  157.4462 H   0  0  0  0  0  0  0  0  0  0  0  0
  146.0648  136.9684  158.8824 H   0  0  0  0  0  0  0  0  0  0  0  0
  144.4169  136.6844  160.7403 H   0  0  0  0  0  0  0  0  0  0  0  0
  145.2707  136.3833  163.0821 H   0  0  0  0  0  0  0  0  0  0  0  0
  147.7501  136.3809  163.4615 H   0  0  0  0  0  0  0  0  0  0  0  0
  151.7290  142.2651  160.5770 H   0  0  0  0  0  0  0  0  0  0  0  0
  153.0997  141.2917  160.1332 H   0  0  0  0  0  0  0  0  0  0  0  0
  153.7837  143.6739  160.3754 H   0  0  0  0  0  0  0  0  0  0  0  0
  154.0178  143.1308  158.7305 H   0  0  0  0  0  0  0  0  0  0  0  0
  151.7168  144.8347  159.7877 H   0  0  0  0  0  0  0  0  0  0  0  0
  152.9454  145.3408  158.6545 H   0  0  0  0  0  0  0  0  0  0  0  0
  150.7236  144.7928  157.5582 H   0  0  0  0  0  0  0  0  0  0  0  0
  152.0487  143.8494  156.9179 H   0  0  0  0  0  0  0  0  0  0  0  0
  150.0573  142.4133  157.3646 H   0  0  0  0  0  0  0  0  0  0  0  0
  150.0472  142.8899  159.0303 H   0  0  0  0  0  0  0  0  0  0  0  0
  1  2  2  0  0  0  0
  2  3  1  0  0  0  0
  2 17  1  0  0  0  0
  3  4  1  0  0  0  0
  3 23  1  0  0  0  0
  3 24  1  0  0  0  0
  4  5  1  0  0  0  0
  4 25  1  0  0  0  0
  4 26  1  0  0  0  0
  5  6  1  0  0  0  0
  5 27  1  0  0  0  0
  6  7  2  0  0  0  0
  6  8  1  0  0  0  0
  8  9  1  0  0  0  0
  8 10  1  0  0  0  0
  8 11  1  0  0  0  0
 11 16  1  0  0  0  0
 11 12  2  0  0  0  0
 12 13  1  0  0  0  0
 12 28  1  0  0  0  0
 13 14  2  0  0  0  0
 13 29  1  0  0  0  0
 14 15  1  0  0  0  0
 14 30  1  0  0  0  0
 15 16  2  0  0  0  0
 15 31  1  0  0  0  0
 17 22  1  0  0  0  0
 17 18  1  0  0  0  0
 18 19  1  0  0  0  0
 18 32  1  0  0  0  0
 18 33  1  0  0  0  0
 19 20  1  0  0  0  0
 19 34  1  0  0  0  0
 19 35  1  0  0  0  0
 20 21  1  0  0  0  0
 20 36  1  0  0  0  0
 20 37  1  0  0  0  0
 21 22  1  0  0  0  0
 21 38  1  0  0  0  0
 21 39  1  0  0  0  0
 22 40  1  0  0  0  0
 22 41  1  0  0  0  0
M  END
> <s_m_source_file>
AV-unprocessed.smi

> <i_m_source_file_index>
2877

> <i_lp_mmshare_version>
43012

> <i_f3d_flags>
0

> <s_epik_input>
W0NIMl0xW0NIMl1bQ0gyXVtDSDJdW0NIMl1OMUMoPU8pW0NIMl1bQ0gyXVtOSF1DKD1PKUMoRikoRiljMltjSF1bY0hdW2NIXVtjSF1uMg==

> <s_epik_cmdline>
J2VwaWtfcHl0aG9uJywgJy1waCcsICc3LjAnLCAnLXRuJywgJzgnLCAnLW1hJywgJzIwMCcsICctbWV0YWxfYmluZGluZycsICctaW1hZScsICc8aW5maWxlLm1hZT4nLCAnLW9tYWUnLCAnPG91dGZpbGUubWFlPic=

> <r_lp_tautomer_probability>
1

> <r_epik_Ionization_Penalty>
7.88991e-05

> <r_epik_Ionization_Penalty_Charging>
0

> <r_epik_Ionization_Penalty_Neutral>
7.88991e-05

> <r_epik_State_Penalty>
-0

> <r_epik_Charging_Adjusted_Penalty>
0

> <i_epik_Tot_Q>
0

> <i_epik_Tot_abs_Q>
0

> <r_epik_Metal_State_Penalty>
0.0639978

> <b_epik_Metal_Only>
0

> <s_lp_Force_Field>
OPLS_2005

> <r_lp_Energy>
32.8241

> <b_lp_Chiralities_Consistent>
1

> <s_lp_Variant>
AV-unprocessed.smi:2877-1

> <Gold.Version>
5.8.1

> <Gold.Id.Protein>
6NUR|6NUR_protein|mol2

> <Gold.PLP.Fitness>
44.9241

> <Gold.PLP.PLP>
-39.9664

> <Gold.PLP.part.hbond>
-3.0000

> <Gold.PLP.part.metal>
0.0000

> <Gold.PLP.part.buried>
-3.8197

> <Gold.PLP.part.nonpolar>
-34.5794

> <Gold.PLP.part.repulsive>
0.0524

> <Gold.PLP.ligand.clash>
0.0000

> <Gold.PLP.ligand.torsion>
0.5399

> <Gold.PLP.Chemscore.Hbond>
2.0000

> <Gold.PLP.Chemscore.CHOScore>
0.0000

> <Gold.PLP.Chemscore.Metal>
0.0000

> <Gold.Chemscore.Hbonds>
donor molecule, donor type, donor heavy atom, donor atom, acceptor molecule, acceptor atom, score
      P1  H  6931  6943       L1    16  1.00
      P1  H  7997  8009       L1     1  0.91

> <Gold.PLP.Chemscore.Internal.Correction>
0.0375

> <Gold.Rescore>
     Score         DG    S(hbond)    S(metal)    S(lipo)     H(rot)  DE(clash)    DE(int)     intcor
     16.90     -17.58       1.75        0.00      96.17       1.95       0.04       0.63       ----

> <Gold.Chemscore.Fitness>
16.9005

> <Gold.Chemscore.DG>
-17.5764

> <Gold.Chemscore.ZeroCoef>
-5.4800

> <Gold.Chemscore.Hbond>
1.7464

> <Gold.Chemscore.Metal>
0.0000

> <Gold.Chemscore.Lipo>
96.1718

> <Gold.Chemscore.Internal_Hbond>
0.0000

> <Gold.Chemscore.DEClash>
0.0410

> <Gold.Chemscore.DEInternal>
0.6350

> <Gold.Chemscore.Rot>
1.9487

> <Gold.Chemscore.Internal.Correction>
   9.000000E+99

> <Gold.Chemscore.Hbonds>
donor molecule, donor type, donor heavy atom, donor atom, acceptor molecule, acceptor atom, score
      P1  H  6931  6943       L1    16  0.19
      P1  H  7997  8009       L1     1  0.76

> <Gold.Chemscore.Hbond.Weighted>
-5.8330

> <Gold.Chemscore.Metal.Weighted>
-0.0000

> <Gold.Chemscore.Lipo.Weighted>
-11.2521

> <Gold.Chemscore.Internal_Hbond.Weighted>
0.0000

> <Gold.Chemscore.DEClash.Weighted>
0.0410

> <Gold.Chemscore.DEInternal.Weighted>
0.6350

> <Gold.Chemscore.Rot.Weighted>
4.9886

> <Gold.Chemscore.Internal.Correction.Weighted>
   9.000000E+99

> <Gold.Protein.RotatedTorsions>
[ 6907 6896 6895 6894 ] final   -1.44 input  -60.11 | X-H torsion
[ 7974 7965 7964 7962 ] final   27.84 input  175.53 | X-H torsion
[ 8008 7997 7996 7995 ] final  147.41 input   59.86 | X-H torsion
[ 10167 10162 10161 10158 ] final -128.36 input  -65.29 | X-H torsion
[ 10718 10713 10712 10709 ] final -109.57 input   66.30 | X-H torsion
[ 10763 10752 10751 10750 ] final  -58.19 input  -60.55 | X-H torsion
[ 11005 11000 10999 10996 ] final  119.09 input  -57.11 | X-H torsion

> <Gold.Protein.ActiveResidues>
 VAL166  LYS551  ARG553  GLY616  TRP617  ASP618  TYR619  PRO620  LYS621  CYS622 
 ASP623  PHE694  ASN695  SER759  ASP760  ASP761  ALA762  ILE779  LEU786  VAL792 
 PHE793  MET794  SER795  GLU796  ALA797  LYS798  CYS799  TRP800  GLU811  SER814 

> <Gold.Protein.RotatedAtoms>
  151.5461  135.1068  159.9938 H   0  0  0  0  0  0  0  0  0  0  0  0  # atno 6907 bound_to 6896
  152.4513  133.7630  159.6768 H   0  0  0  0  0  0  0  0  0  0  0  0  # atno 6908 bound_to 6896
  150.8442  133.7821  159.3073 H   0  0  0  0  0  0  0  0  0  0  0  0  # atno 6909 bound_to 6896
  146.1762  139.7136  142.8933 H   0  0  0  0  0  0  0  0  0  0  0  0  # atno 7974 bound_to 7965
  156.2825  140.2156  156.5533 H   0  0  0  0  0  0  0  0  0  0  0  0  # atno 8008 bound_to 7997
  154.7273  140.0498  157.0717 H   0  0  0  0  0  0  0  0  0  0  0  0  # atno 8009 bound_to 7997
  155.0400  140.3144  155.4731 H   0  0  0  0  0  0  0  0  0  0  0  0  # atno 8010 bound_to 7997
  139.9512  143.6054  152.2475 H   0  0  0  0  0  0  0  0  0  0  0  0  # atno 10167 bound_to 10162
  156.0544  130.5771  150.8118 H   0  0  0  0  0  0  0  0  0  0  0  0  # atno 10718 bound_to 10713
  154.2343  135.6355  153.5185 H   0  0  0  0  0  0  0  0  0  0  0  0  # atno 10763 bound_to 10752
  152.9942  135.5527  154.5979 H   0  0  0  0  0  0  0  0  0  0  0  0  # atno 10764 bound_to 10752
  154.5469  135.2899  155.1018 H   0  0  0  0  0  0  0  0  0  0  0  0  # atno 10765 bound_to 10752
  139.9133  134.9626  156.7602 H   0  0  0  0  0  0  0  0  0  0  0  0  # atno 11005 bound_to 11000
  145.4205  141.0406  143.2966 LP  0  0  0  0  0  0  0  0  0  0  0  0  # atno 17320 bound_to 7965
  144.8240  139.5742  143.6974 LP  0  0  0  0  0  0  0  0  0  0  0  0  # atno 17321 bound_to 7965
  139.6627  144.7662  151.1932 LP  0  0  0  0  0  0  0  0  0  0  0  0  # atno 17342 bound_to 10162
  140.7582  143.5985  150.8724 LP  0  0  0  0  0  0  0  0  0  0  0  0  # atno 17343 bound_to 10162
  157.5501  131.0943  150.9708 LP  0  0  0  0  0  0  0  0  0  0  0  0  # atno 17370 bound_to 10713
  156.9970  130.5585  149.5308 LP  0  0  0  0  0  0  0  0  0  0  0  0  # atno 17371 bound_to 10713
  140.6704  133.9565  155.7853 LP  0  0  0  0  0  0  0  0  0  0  0  0  # atno 17394 bound_to 11000
  141.0582  134.0386  157.3694 LP  0  0  0  0  0  0  0  0  0  0  0  0  # atno 17395 bound_to 11000

$$$$
