AV-unprocessed.smi:2930|AV-procd|sdf|11240|dock9
  -GOLD-   2272016133D 1   1.00000     0.00000
 Structure written by MMmdl.
 40 41  0  0  0  0  0  0  0  0  1 V2000
  146.6882  133.4427  155.2258 C   0  0  0  0  0  0  0  0  0  0  0  0
  147.9445  133.2453  154.3664 C   0  0  2  0  0  0  0  0  0  0  0  0
  148.5384  134.5486  154.0788 N   0  0  0  0  0  0  0  0  0  0  0  0
  148.8752  135.4735  154.9894 C   0  0  0  0  0  0  0  0  0  0  0  0
  148.7093  135.3303  156.2004 O   0  0  0  0  0  0  0  0  0  0  0  0
  149.3956  136.5637  154.4011 N   0  0  0  0  0  0  0  0  0  0  0  0
  149.8979  137.7429  155.0134 C   0  0  0  0  0  0  0  0  0  0  0  0
  150.1354  138.9711  154.3511 C   0  0  0  0  0  0  0  0  0  0  0  0
  150.5975  140.0541  155.0117 N   0  0  0  0  0  0  0  0  0  0  0  0
  150.8244  139.9349  156.3264 C   0  0  0  0  0  0  0  0  0  0  0  0
  151.3042  141.0608  157.0017 N   0  0  0  0  0  0  0  0  0  0  0  0
  152.1312  140.9299  158.1978 C   0  0  0  0  0  0  0  0  0  0  0  0
  150.9855  142.4099  156.5432 C   0  0  0  0  0  0  0  0  0  0  0  0
  150.6230  138.8230  157.0460 N   0  0  0  0  0  0  0  0  0  0  0  0
  150.1596  137.7339  156.3978 C   0  0  0  0  0  0  0  0  0  0  0  0
  147.6375  132.5078  153.0614 C   0  0  0  0  0  0  0  0  0  0  0  0
  146.6700  133.1258  152.0401 C   0  0  0  0  0  0  0  0  0  0  0  0
  146.2043  131.7094  151.6919 C   0  0  0  0  0  0  0  0  0  0  0  0
  146.7222  131.2729  153.0647 C   0  0  0  0  0  0  0  0  0  0  0  0
  146.2381  132.4854  155.4901 H   0  0  0  0  0  0  0  0  0  0  0  0
  145.9347  134.0298  154.6997 H   0  0  0  0  0  0  0  0  0  0  0  0
  146.9262  133.9603  156.1556 H   0  0  0  0  0  0  0  0  0  0  0  0
  148.6462  132.6531  154.9565 H   0  0  0  0  0  0  0  0  0  0  0  0
  148.7101  134.7597  153.1068 H   0  0  0  0  0  0  0  0  0  0  0  0
  149.4003  136.5640  153.3916 H   0  0  0  0  0  0  0  0  0  0  0  0
  149.9444  139.1168  153.2996 H   0  0  0  0  0  0  0  0  0  0  0  0
  153.0468  140.3838  157.9689 H   0  0  0  0  0  0  0  0  0  0  0  0
  151.5920  140.3879  158.9752 H   0  0  0  0  0  0  0  0  0  0  0  0
  152.4159  141.8997  158.6058 H   0  0  0  0  0  0  0  0  0  0  0  0
  149.9073  142.5719  156.5640 H   0  0  0  0  0  0  0  0  0  0  0  0
  151.3360  142.5578  155.5214 H   0  0  0  0  0  0  0  0  0  0  0  0
  151.4495  143.1738  157.1671 H   0  0  0  0  0  0  0  0  0  0  0  0
  149.9991  136.8463  156.9924 H   0  0  0  0  0  0  0  0  0  0  0  0
  148.5622  132.2488  152.5407 H   0  0  0  0  0  0  0  0  0  0  0  0
  145.8853  133.7235  152.5071 H   0  0  0  0  0  0  0  0  0  0  0  0
  147.1514  133.6633  151.2225 H   0  0  0  0  0  0  0  0  0  0  0  0
  145.1281  131.6019  151.5549 H   0  0  0  0  0  0  0  0  0  0  0  0
  146.7666  131.2686  150.8673 H   0  0  0  0  0  0  0  0  0  0  0  0
  147.2470  130.3172  153.0747 H   0  0  0  0  0  0  0  0  0  0  0  0
  145.9521  131.3166  153.8367 H   0  0  0  0  0  0  0  0  0  0  0  0
  1  2  1  0  0  0  0
  1 20  1  0  0  0  0
  1 21  1  0  0  0  0
  1 22  1  0  0  0  0
  2  3  1  0  0  0  0
  2 16  1  0  0  0  0
  2 23  1  0  0  0  0
  3  4  1  0  0  0  0
  3 24  1  0  0  0  0
  4  5  2  0  0  0  0
  4  6  1  0  0  0  0
  6  7  1  0  0  0  0
  6 25  1  0  0  0  0
  7 15  1  0  0  0  0
  7  8  2  0  0  0  0
  8  9  1  0  0  0  0
  8 26  1  0  0  0  0
  9 10  2  0  0  0  0
 10 11  1  0  0  0  0
 10 14  1  0  0  0  0
 11 12  1  0  0  0  0
 11 13  1  0  0  0  0
 12 27  1  0  0  0  0
 12 28  1  0  0  0  0
 12 29  1  0  0  0  0
 13 30  1  0  0  0  0
 13 31  1  0  0  0  0
 13 32  1  0  0  0  0
 14 15  2  0  0  0  0
 15 33  1  0  0  0  0
 16 19  1  0  0  0  0
 16 17  1  0  0  0  0
 16 34  1  0  0  0  0
 17 18  1  0  0  0  0
 17 35  1  0  0  0  0
 17 36  1  0  0  0  0
 18 19  1  0  0  0  0
 18 37  1  0  0  0  0
 18 38  1  0  0  0  0
 19 39  1  0  0  0  0
 19 40  1  0  0  0  0
M  END
> <s_m_source_file>
AV-unprocessed.smi

> <i_m_source_file_index>
2930

> <i_lp_mmshare_version>
43012

> <i_f3d_flags>
0

> <s_epik_input>
W0NIMl0xW0NIMl1bQ0gyXVtDSF0xW0NASF0oW0NIM10pW05IXUMoPU8pW05IXWMyW2NIXW5jKE4oW0NIM10pW0NIM10pbltjSF0y

> <s_epik_cmdline>
J2VwaWtfcHl0aG9uJywgJy1waCcsICc3LjAnLCAnLXRuJywgJzgnLCAnLW1hJywgJzIwMCcsICctbWV0YWxfYmluZGluZycsICctaW1hZScsICc8aW5maWxlLm1hZT4nLCAnLW9tYWUnLCAnPG91dGZpbGUubWFlPic=

> <r_lp_tautomer_probability>
1

> <r_epik_Ionization_Penalty>
0.000323856

> <r_epik_Ionization_Penalty_Charging>
0

> <r_epik_Ionization_Penalty_Neutral>
0.000323856

> <r_epik_State_Penalty>
-0

> <r_epik_Charging_Adjusted_Penalty>
0

> <i_epik_Tot_Q>
0

> <i_epik_Tot_abs_Q>
0

> <r_epik_Metal_State_Penalty>
-0

> <b_epik_Metal_Only>
0

> <s_lp_Force_Field>
OPLS_2005

> <r_lp_Energy>
8.18879

> <b_lp_Chiralities_Consistent>
1

> <s_lp_Variant>
AV-unprocessed.smi:2930-1

> <Gold.Version>
5.8.1

> <Gold.Id.Protein>
6NUR|6NUR_protein|mol2

> <Gold.PLP.Fitness>
36.8255

> <Gold.PLP.PLP>
-26.2279

> <Gold.PLP.part.hbond>
-3.0000

> <Gold.PLP.part.metal>
0.0000

> <Gold.PLP.part.buried>
-3.4160

> <Gold.PLP.part.nonpolar>
-19.9690

> <Gold.PLP.part.repulsive>
0.1001

> <Gold.PLP.ligand.clash>
0.0000

> <Gold.PLP.ligand.torsion>
0.5276

> <Gold.PLP.Chemscore.Hbond>
2.8460

> <Gold.PLP.Chemscore.CHOScore>
1.0000

> <Gold.PLP.Chemscore.Metal>
0.0000

> <Gold.Chemscore.Hbonds>
donor molecule, donor type, donor heavy atom, donor atom, acceptor molecule, acceptor atom, score
      L1  H     3    24       P1  7948  0.88
      L1  H     6    25       P1  7948  1.00
      P1  H  7989  7998       L1     9  0.90
      L1  C     8    26       P1  7957  1.00

> <Gold.PLP.Chemscore.Internal.Correction>
0.1148

> <Gold.Rescore>
     Score         DG    S(hbond)    S(metal)    S(lipo)     H(rot)  DE(clash)    DE(int)     intcor
     14.08     -16.15       2.04        0.00      59.22       1.19       0.04       2.04       ----

> <Gold.Chemscore.Fitness>
14.0830

> <Gold.Chemscore.DG>
-16.1541

> <Gold.Chemscore.ZeroCoef>
-5.4800

> <Gold.Chemscore.Hbond>
2.0372

> <Gold.Chemscore.Metal>
0.0000

> <Gold.Chemscore.Lipo>
59.2195

> <Gold.Chemscore.Internal_Hbond>
0.0000

> <Gold.Chemscore.DEClash>
0.0357

> <Gold.Chemscore.DEInternal>
2.0354

> <Gold.Chemscore.Rot>
1.1949

> <Gold.Chemscore.Internal.Correction>
   9.000000E+99

> <Gold.Chemscore.Hbonds>
donor molecule, donor type, donor heavy atom, donor atom, acceptor molecule, acceptor atom, score
      L1  H     3    24       P1  7948  0.26
      L1  H     6    25       P1  7948  0.81
      P1  H  7989  7998       L1     9  0.17

> <Gold.Chemscore.Hbond.Weighted>
-6.8043

> <Gold.Chemscore.Metal.Weighted>
-0.0000

> <Gold.Chemscore.Lipo.Weighted>
-6.9287

> <Gold.Chemscore.Internal_Hbond.Weighted>
0.0000

> <Gold.Chemscore.DEClash.Weighted>
0.0357

> <Gold.Chemscore.DEInternal.Weighted>
2.0354

> <Gold.Chemscore.Rot.Weighted>
3.0590

> <Gold.Chemscore.Internal.Correction.Weighted>
   9.000000E+99

> <Gold.Protein.RotatedTorsions>
[ 6907 6896 6895 6894 ] final  150.46 input  -60.11 | X-H torsion
[ 7974 7965 7964 7962 ] final -102.20 input  175.53 | X-H torsion
[ 8008 7997 7996 7995 ] final   38.53 input   59.86 | X-H torsion
[ 10167 10162 10161 10158 ] final   38.12 input  -65.29 | X-H torsion
[ 10718 10713 10712 10709 ] final -174.56 input   66.30 | X-H torsion
[ 10763 10752 10751 10750 ] final   40.95 input  -60.55 | X-H torsion
[ 11005 11000 10999 10996 ] final  177.08 input  -57.11 | X-H torsion

> <Gold.Protein.ActiveResidues>
 VAL166  LYS551  ARG553  GLY616  TRP617  ASP618  TYR619  PRO620  LYS621  CYS622 
 ASP623  PHE694  ASN695  SER759  ASP760  ASP761  ALA762  ILE779  LEU786  VAL792 
 PHE793  MET794  SER795  GLU796  ALA797  LYS798  CYS799  TRP800  GLU811  SER814 

> <Gold.Protein.RotatedAtoms>
  152.1140  133.4316  159.4644 H   0  0  0  0  0  0  0  0  0  0  0  0  # atno 6907 bound_to 6896
  150.6868  134.2614  159.4560 H   0  0  0  0  0  0  0  0  0  0  0  0  # atno 6908 bound_to 6896
  152.0485  134.9668  160.0625 H   0  0  0  0  0  0  0  0  0  0  0  0  # atno 6909 bound_to 6896
  145.2718  140.9301  143.2982 H   0  0  0  0  0  0  0  0  0  0  0  0  # atno 7974 bound_to 7965
  155.2217  140.3331  155.4315 H   0  0  0  0  0  0  0  0  0  0  0  0  # atno 8008 bound_to 7997
  156.2331  140.1859  156.7239 H   0  0  0  0  0  0  0  0  0  0  0  0  # atno 8009 bound_to 7997
  154.6011  140.0623  156.9355 H   0  0  0  0  0  0  0  0  0  0  0  0  # atno 8010 bound_to 7997
  140.3967  144.1780  150.6132 H   0  0  0  0  0  0  0  0  0  0  0  0  # atno 10167 bound_to 10162
  156.7870  130.9504  151.3120 H   0  0  0  0  0  0  0  0  0  0  0  0  # atno 10718 bound_to 10713
  152.9922  135.6176  154.2708 H   0  0  0  0  0  0  0  0  0  0  0  0  # atno 10763 bound_to 10752
  154.2441  135.2787  155.2844 H   0  0  0  0  0  0  0  0  0  0  0  0  # atno 10764 bound_to 10752
  154.5344  135.5779  153.6843 H   0  0  0  0  0  0  0  0  0  0  0  0  # atno 10765 bound_to 10752
  140.3802  134.6953  157.4446 H   0  0  0  0  0  0  0  0  0  0  0  0  # atno 11005 bound_to 11000
  144.9328  139.4278  143.6487 LP  0  0  0  0  0  0  0  0  0  0  0  0  # atno 17320 bound_to 7965
  146.3244  139.8248  142.8920 LP  0  0  0  0  0  0  0  0  0  0  0  0  # atno 17321 bound_to 7965
  140.4783  143.2388  151.8991 LP  0  0  0  0  0  0  0  0  0  0  0  0  # atno 17342 bound_to 10162
  139.4786  144.5296  151.8685 LP  0  0  0  0  0  0  0  0  0  0  0  0  # atno 17343 bound_to 10162
  157.6619  130.8973  149.9848 LP  0  0  0  0  0  0  0  0  0  0  0  0  # atno 17370 bound_to 10713
  156.1183  130.3647  149.9931 LP  0  0  0  0  0  0  0  0  0  0  0  0  # atno 17371 bound_to 10713
  140.0485  134.6165  155.8891 LP  0  0  0  0  0  0  0  0  0  0  0  0  # atno 17394 bound_to 11000
  141.1926  133.6576  156.5509 LP  0  0  0  0  0  0  0  0  0  0  0  0  # atno 17395 bound_to 11000

$$$$
