AV-unprocessed.smi:1830|AV-procd|sdf|7452|dock7
  -GOLD-   22720 9143D 1   1.00000     0.00000
 Structure written by MMmdl.
 53 56  0  0  0  0  0  0  0  0  2 V2000
  149.6938  133.1705  155.1977 O   0  0  0  0  0  0  0  0  0  0  0  0
  149.3143  133.9933  154.3649 C   0  0  0  0  0  0  0  0  0  0  0  0
  149.8017  135.2387  154.2792 N   0  0  0  0  0  0  0  0  0  0  0  0
  150.8586  135.7831  155.1250 C   0  0  0  0  0  0  0  0  0  0  0  0
  150.5346  137.2115  155.5965 C   0  0  2  0  0  0  0  0  0  0  0  0
  149.6906  137.9858  154.5591 C   0  0  0  0  0  0  0  0  0  0  0  0
  149.5063  139.3545  155.0008 N   0  0  0  0  0  0  0  0  0  0  0  0
  148.7982  140.2418  154.1081 C   0  0  0  0  0  0  0  0  0  0  0  0
  149.1236  141.6500  154.6364 C   0  0  0  0  0  0  0  0  0  0  0  0
  150.4041  141.4593  155.4797 C   0  0  0  0  0  0  0  0  0  0  0  0
  150.7746  140.0010  155.2047 C   0  0  1  0  0  0  0  0  0  0  0  0
  151.5979  139.2608  156.2688 C   0  0  0  0  0  0  0  0  0  0  0  0
  151.7649  137.9083  155.8349 O   0  0  0  0  0  0  0  0  0  0  0  0
  148.3876  133.7685  153.4187 N   0  0  0  0  0  0  0  0  0  0  0  0
  147.7069  132.5536  153.1193 C   0  0  0  0  0  0  0  0  0  0  0  0
  148.2680  131.2911  153.4445 C   0  0  0  0  0  0  0  0  0  0  0  0
  147.5839  130.1085  153.1070 C   0  0  0  0  0  0  0  0  0  0  0  0
  146.3440  130.2036  152.4531 C   0  0  0  0  0  0  0  0  0  0  0  0
  145.8254  131.4179  152.1784 N   0  3  0  0  0  0  0  0  0  0  0  0
  146.4272  132.5928  152.4912 C   0  0  0  0  0  0  0  0  0  0  0  0
  145.7508  133.7877  152.1524 N   0  0  0  0  0  0  0  0  0  0  0  0
  145.5989  134.1785  150.7554 C   0  0  0  0  0  0  0  0  0  0  0  0
  144.5446  135.2817  150.7639 C   0  0  0  0  0  0  0  0  0  0  0  0
  143.6117  134.8346  151.8850 C   0  0  0  0  0  0  0  0  0  0  0  0
  144.5498  134.1624  152.8929 C   0  0  0  0  0  0  0  0  0  0  0  0
  149.4372  135.8489  153.5624 H   0  0  0  0  0  0  0  0  0  0  0  0
  150.9831  135.1252  155.9855 H   0  0  0  0  0  0  0  0  0  0  0  0
  151.8057  135.7677  154.5831 H   0  0  0  0  0  0  0  0  0  0  0  0
  149.9772  137.1662  156.5337 H   0  0  0  0  0  0  0  0  0  0  0  0
  150.1897  137.9709  153.5888 H   0  0  0  0  0  0  0  0  0  0  0  0
  148.7213  137.5043  154.4263 H   0  0  0  0  0  0  0  0  0  0  0  0
  149.1753  140.1315  153.0900 H   0  0  0  0  0  0  0  0  0  0  0  0
  147.7280  140.0331  154.0975 H   0  0  0  0  0  0  0  0  0  0  0  0
  149.2746  142.3512  153.8153 H   0  0  0  0  0  0  0  0  0  0  0  0
  148.3129  142.0315  155.2583 H   0  0  0  0  0  0  0  0  0  0  0  0
  151.2013  142.1473  155.1976 H   0  0  0  0  0  0  0  0  0  0  0  0
  150.1832  141.6092  156.5374 H   0  0  0  0  0  0  0  0  0  0  0  0
  151.3372  139.9748  154.2689 H   0  0  0  0  0  0  0  0  0  0  0  0
  152.5764  139.7249  156.3922 H   0  0  0  0  0  0  0  0  0  0  0  0
  151.0998  139.2823  157.2394 H   0  0  0  0  0  0  0  0  0  0  0  0
  148.2433  134.5195  152.7601 H   0  0  0  0  0  0  0  0  0  0  0  0
  149.2154  131.2075  153.9545 H   0  0  0  0  0  0  0  0  0  0  0  0
  148.0071  129.1434  153.3446 H   0  0  0  0  0  0  0  0  0  0  0  0
  145.7503  129.3527  152.1514 H   0  0  0  0  0  0  0  0  0  0  0  0
  146.5426  134.5234  150.3318 H   0  0  0  0  0  0  0  0  0  0  0  0
  145.2411  133.3368  150.1610 H   0  0  0  0  0  0  0  0  0  0  0  0
  145.0043  136.2372  151.0206 H   0  0  0  0  0  0  0  0  0  0  0  0
  144.0388  135.3942  149.8047 H   0  0  0  0  0  0  0  0  0  0  0  0
  143.0426  135.6569  152.3192 H   0  0  0  0  0  0  0  0  0  0  0  0
  142.9018  134.1018  151.4992 H   0  0  0  0  0  0  0  0  0  0  0  0
  144.0720  133.3034  153.3663 H   0  0  0  0  0  0  0  0  0  0  0  0
  144.8264  134.8723  153.6731 H   0  0  0  0  0  0  0  0  0  0  0  0
  144.9185  131.4540  151.7126 H   0  0  0  0  0  0  0  0  0  0  0  0
  1  2  2  0  0  0  0
  2  3  1  0  0  0  0
  2 14  1  0  0  0  0
  3  4  1  0  0  0  0
  3 26  1  0  0  0  0
  4  5  1  0  0  0  0
  4 27  1  0  0  0  0
  4 28  1  0  0  0  0
  5 13  1  0  0  0  0
  5  6  1  0  0  0  0
  5 29  1  0  0  0  0
  6  7  1  0  0  0  0
  6 30  1  0  0  0  0
  6 31  1  0  0  0  0
  7 11  1  0  0  0  0
  7  8  1  0  0  0  0
  8  9  1  0  0  0  0
  8 32  1  0  0  0  0
  8 33  1  0  0  0  0
  9 10  1  0  0  0  0
  9 34  1  0  0  0  0
  9 35  1  0  0  0  0
 10 11  1  0  0  0  0
 10 36  1  0  0  0  0
 10 37  1  0  0  0  0
 11 12  1  0  0  0  0
 11 38  1  0  0  0  0
 12 13  1  0  0  0  0
 12 39  1  0  0  0  0
 12 40  1  0  0  0  0
 14 15  1  0  0  0  0
 14 41  1  0  0  0  0
 15 20  1  0  0  0  0
 15 16  2  0  0  0  0
 16 17  1  0  0  0  0
 16 42  1  0  0  0  0
 17 18  2  0  0  0  0
 17 43  1  0  0  0  0
 18 19  1  0  0  0  0
 18 44  1  0  0  0  0
 19 20  2  0  0  0  0
 19 53  1  0  0  0  0
 20 21  1  0  0  0  0
 21 25  1  0  0  0  0
 21 22  1  0  0  0  0
 22 23  1  0  0  0  0
 22 45  1  0  0  0  0
 22 46  1  0  0  0  0
 23 24  1  0  0  0  0
 23 47  1  0  0  0  0
 23 48  1  0  0  0  0
 24 25  1  0  0  0  0
 24 49  1  0  0  0  0
 24 50  1  0  0  0  0
 25 51  1  0  0  0  0
 25 52  1  0  0  0  0
M  CHG  1  19   1
M  END
> <s_m_source_file>
AV-unprocessed.smi

> <i_m_source_file_index>
1830

> <i_lp_mmshare_version>
43012

> <i_f3d_flags>
0

> <s_epik_input>
W0NIMl0xW0NIMl1bQ0gyXVtDQEhdKE4xMilbQ0gyXU9bQ0BASF0oW0NIMl0yKVtDSDJdW05IXUMoPU8pW05IXWMzW2NIXVtjSF1bY0hdbmMzTjRbQ0gyXVtDSDJdW0NIMl1bQ0gyXTQ=

> <s_epik_cmdline>
J2VwaWtfcHl0aG9uJywgJy1waCcsICc3LjAnLCAnLXRuJywgJzgnLCAnLW1hJywgJzIwMCcsICctbWV0YWxfYmluZGluZycsICctaW1hZScsICc8aW5maWxlLm1hZT4nLCAnLW9tYWUnLCAnPG91dGZpbGUubWFlPic=

> <r_epik_Ionization_Penalty>
2.19264

> <r_epik_Ionization_Penalty_Charging>
1.12452

> <r_epik_Ionization_Penalty_Neutral>
1.06812

> <r_epik_State_Penalty>
2.334

> <r_epik_Charging_Adjusted_Penalty>
3.45852

> <i_epik_Tot_Q>
1

> <i_epik_Tot_abs_Q>
1

> <r_epik_Metal_State_Penalty>
2.41144

> <b_epik_Metal_Only>
0

> <s_lp_Force_Field>
OPLS_2005

> <r_lp_Energy>
81.6261

> <b_lp_Chiralities_Consistent>
1

> <s_lp_Variant>
AV-unprocessed.smi:1830-21

> <Gold.Version>
5.8.1

> <Gold.Id.Protein>
6NUR|6NUR_protein|mol2

> <Gold.PLP.Fitness>
44.1607

> <Gold.PLP.PLP>
-39.3139

> <Gold.PLP.part.hbond>
-2.1904

> <Gold.PLP.part.metal>
0.0000

> <Gold.PLP.part.buried>
-0.4776

> <Gold.PLP.part.nonpolar>
-34.6677

> <Gold.PLP.part.repulsive>
0.2495

> <Gold.PLP.ligand.clash>
0.0000

> <Gold.PLP.ligand.torsion>
0.7726

> <Gold.PLP.Chemscore.Hbond>
2.0000

> <Gold.PLP.Chemscore.CHOScore>
0.0000

> <Gold.PLP.Chemscore.Metal>
0.0000

> <Gold.Chemscore.Hbonds>
donor molecule, donor type, donor heavy atom, donor atom, acceptor molecule, acceptor atom, score
      L1  H     3    26       P1  7948  1.00
      L1  H    14    41       P1  7948  0.96

> <Gold.PLP.Chemscore.Internal.Correction>
0.3920

> <Gold.Rescore>
     Score         DG    S(hbond)    S(metal)    S(lipo)     H(rot)  DE(clash)    DE(int)     intcor
     14.76     -17.12       1.34        0.00      91.66       1.40       0.07       2.29       ----

> <Gold.Chemscore.Fitness>
14.7587

> <Gold.Chemscore.DG>
-17.1189

> <Gold.Chemscore.ZeroCoef>
-5.4800

> <Gold.Chemscore.Hbond>
1.3437

> <Gold.Chemscore.Metal>
0.0000

> <Gold.Chemscore.Lipo>
91.6626

> <Gold.Chemscore.Internal_Hbond>
0.0000

> <Gold.Chemscore.DEClash>
0.0708

> <Gold.Chemscore.DEInternal>
2.2895

> <Gold.Chemscore.Rot>
1.3959

> <Gold.Chemscore.Internal.Correction>
   9.000000E+99

> <Gold.Chemscore.Hbonds>
donor molecule, donor type, donor heavy atom, donor atom, acceptor molecule, acceptor atom, score
      L1  H     3    26       P1  7948  0.43
      L1  H    14    41       P1  7948  0.35

> <Gold.Chemscore.Hbond.Weighted>
-4.4880

> <Gold.Chemscore.Metal.Weighted>
-0.0000

> <Gold.Chemscore.Lipo.Weighted>
-10.7245

> <Gold.Chemscore.Internal_Hbond.Weighted>
0.0000

> <Gold.Chemscore.DEClash.Weighted>
0.0708

> <Gold.Chemscore.DEInternal.Weighted>
2.2895

> <Gold.Chemscore.Rot.Weighted>
3.5736

> <Gold.Chemscore.Internal.Correction.Weighted>
   9.000000E+99

> <Gold.Protein.RotatedTorsions>
[ 6907 6896 6895 6894 ] final  128.56 input  -60.11 | X-H torsion
[ 7974 7965 7964 7962 ] final -146.10 input  175.53 | X-H torsion
[ 8008 7997 7996 7995 ] final -143.09 input   59.86 | X-H torsion
[ 10167 10162 10161 10158 ] final -150.63 input  -65.29 | X-H torsion
[ 10718 10713 10712 10709 ] final  154.57 input   66.30 | X-H torsion
[ 10763 10752 10751 10750 ] final  163.19 input  -60.55 | X-H torsion
[ 11005 11000 10999 10996 ] final -170.85 input  -57.11 | X-H torsion

> <Gold.Protein.ActiveResidues>
 VAL166  LYS551  ARG553  GLY616  TRP617  ASP618  TYR619  PRO620  LYS621  CYS622 
 ASP623  PHE694  ASN695  SER759  ASP760  ASP761  ALA762  ILE779  LEU786  VAL792 
 PHE793  MET794  SER795  GLU796  ALA797  LYS798  CYS799  TRP800  GLU811  SER814 

> <Gold.Protein.RotatedAtoms>
  152.3708  133.6416  159.6085 H   0  0  0  0  0  0  0  0  0  0  0  0  # atno 6907 bound_to 6896
  150.7667  133.9273  159.3425 H   0  0  0  0  0  0  0  0  0  0  0  0  # atno 6908 bound_to 6896
  151.7096  135.0916  160.0316 H   0  0  0  0  0  0  0  0  0  0  0  0  # atno 6909 bound_to 6896
  144.8182  140.5499  143.5596 H   0  0  0  0  0  0  0  0  0  0  0  0  # atno 7974 bound_to 7965
  155.5048  140.0578  157.2933 H   0  0  0  0  0  0  0  0  0  0  0  0  # atno 8008 bound_to 7997
  154.4573  140.1979  156.0292 H   0  0  0  0  0  0  0  0  0  0  0  0  # atno 8009 bound_to 7997
  156.0824  140.3245  155.7715 H   0  0  0  0  0  0  0  0  0  0  0  0  # atno 8010 bound_to 7997
  139.7337  143.8768  152.2542 H   0  0  0  0  0  0  0  0  0  0  0  0  # atno 10167 bound_to 10162
  157.2298  131.0736  151.1860 H   0  0  0  0  0  0  0  0  0  0  0  0  # atno 10718 bound_to 10713
  154.2899  135.2761  155.2659 H   0  0  0  0  0  0  0  0  0  0  0  0  # atno 10763 bound_to 10752
  154.5143  135.5774  153.6633 H   0  0  0  0  0  0  0  0  0  0  0  0  # atno 10764 bound_to 10752
  152.9916  135.6189  154.3063 H   0  0  0  0  0  0  0  0  0  0  0  0  # atno 10765 bound_to 10752
  140.5149  134.5766  157.5030 H   0  0  0  0  0  0  0  0  0  0  0  0  # atno 11005 bound_to 11000
  145.5165  139.1478  143.3576 LP  0  0  0  0  0  0  0  0  0  0  0  0  # atno 17320 bound_to 7965
  146.2486  140.5306  142.8903 LP  0  0  0  0  0  0  0  0  0  0  0  0  # atno 17321 bound_to 7965
  139.8699  144.7074  150.9000 LP  0  0  0  0  0  0  0  0  0  0  0  0  # atno 17342 bound_to 10162
  140.7775  143.3747  151.1585 LP  0  0  0  0  0  0  0  0  0  0  0  0  # atno 17343 bound_to 10162
  157.3490  130.7072  149.6428 LP  0  0  0  0  0  0  0  0  0  0  0  0  # atno 17370 bound_to 10713
  155.9676  130.4258  150.4670 LP  0  0  0  0  0  0  0  0  0  0  0  0  # atno 17371 bound_to 10713
  139.9638  134.7407  156.0181 LP  0  0  0  0  0  0  0  0  0  0  0  0  # atno 17394 bound_to 11000
  141.1366  133.6574  156.3610 LP  0  0  0  0  0  0  0  0  0  0  0  0  # atno 17395 bound_to 11000

$$$$
