AV-unprocessed.smi:2142|AV-procd|sdf|8720|dock4
  -GOLD-   2272011483D 1   1.00000     0.00000
 Structure written by MMmdl.
 40 41  0  0  0  0  0  0  0  0  1 V2000
  153.0488  142.3182  159.9059 C   0  0  0  0  0  0  0  0  0  0  0  0
  151.8040  142.3880  159.2331 O   0  0  0  0  0  0  0  0  0  0  0  0
  151.8690  141.8656  157.9166 C   0  0  0  0  0  0  0  0  0  0  0  0
  150.5723  142.2046  157.1756 C   0  0  0  0  0  0  0  0  0  0  0  0
  150.6709  141.7290  155.8363 O   0  0  0  0  0  0  0  0  0  0  0  0
  150.4634  140.3861  155.5972 C   0  0  0  0  0  0  0  0  0  0  0  0
  150.4665  139.4989  156.6919 C   0  0  0  0  0  0  0  0  0  0  0  0
  150.2624  138.1257  156.4569 C   0  0  0  0  0  0  0  0  0  0  0  0
  150.0671  137.6821  155.1276 C   0  0  0  0  0  0  0  0  0  0  0  0
  149.8311  136.3300  154.7626 N   0  0  0  0  0  0  0  0  0  0  0  0
  149.7554  135.2422  155.5574 C   0  0  0  0  0  0  0  0  0  0  0  0
  149.9109  135.2657  156.7784 O   0  0  0  0  0  0  0  0  0  0  0  0
  149.4948  133.9567  154.8529 C   0  0  0  0  0  0  0  0  0  0  0  0
  148.5747  133.8917  153.9417 N   0  0  0  0  0  0  0  0  0  0  0  0
  148.3051  132.7315  153.2465 N   0  0  0  0  0  0  0  0  0  0  0  0
  147.4311  132.9323  152.0906 C   0  0  0  0  0  0  0  0  0  0  0  0
  148.7677  131.5032  153.5947 C   0  0  0  0  0  0  0  0  0  0  0  0
  148.5429  130.4743  152.9579 O   0  0  0  0  0  0  0  0  0  0  0  0
  149.5915  131.4247  154.8834 C   0  0  0  0  0  0  0  0  0  0  0  0
  150.3363  132.7401  155.1830 C   0  0  0  0  0  0  0  0  0  0  0  0
  150.0642  138.6526  154.1046 C   0  0  0  0  0  0  0  0  0  0  0  0
  150.2621  139.9695  154.3226 N   0  0  0  0  0  0  0  0  0  0  0  0
  152.9479  142.7348  160.9080 H   0  0  0  0  0  0  0  0  0  0  0  0
  153.8150  142.8891  159.3796 H   0  0  0  0  0  0  0  0  0  0  0  0
  153.3862  141.2855  160.0032 H   0  0  0  0  0  0  0  0  0  0  0  0
  152.7139  142.3169  157.3942 H   0  0  0  0  0  0  0  0  0  0  0  0
  152.0300  140.7865  157.9303 H   0  0  0  0  0  0  0  0  0  0  0  0
  149.7168  141.7657  157.6918 H   0  0  0  0  0  0  0  0  0  0  0  0
  150.4400  143.2877  157.1668 H   0  0  0  0  0  0  0  0  0  0  0  0
  150.6191  139.8655  157.6963 H   0  0  0  0  0  0  0  0  0  0  0  0
  150.2462  137.4479  157.2961 H   0  0  0  0  0  0  0  0  0  0  0  0
  149.7728  136.1523  153.7700 H   0  0  0  0  0  0  0  0  0  0  0  0
  147.1962  132.0150  151.5494 H   0  0  0  0  0  0  0  0  0  0  0  0
  147.8984  133.6180  151.3829 H   0  0  0  0  0  0  0  0  0  0  0  0
  146.4852  133.3726  152.4087 H   0  0  0  0  0  0  0  0  0  0  0  0
  148.9024  131.2001  155.6984 H   0  0  0  0  0  0  0  0  0  0  0  0
  150.2957  130.5938  154.8298 H   0  0  0  0  0  0  0  0  0  0  0  0
  151.2653  132.7806  154.6133 H   0  0  0  0  0  0  0  0  0  0  0  0
  150.6210  132.7410  156.2360 H   0  0  0  0  0  0  0  0  0  0  0  0
  149.9047  138.3640  153.0759 H   0  0  0  0  0  0  0  0  0  0  0  0
  1  2  1  0  0  0  0
  1 23  1  0  0  0  0
  1 24  1  0  0  0  0
  1 25  1  0  0  0  0
  2  3  1  0  0  0  0
  3  4  1  0  0  0  0
  3 26  1  0  0  0  0
  3 27  1  0  0  0  0
  4  5  1  0  0  0  0
  4 28  1  0  0  0  0
  4 29  1  0  0  0  0
  5  6  1  0  0  0  0
  6 22  1  0  0  0  0
  6  7  2  0  0  0  0
  7  8  1  0  0  0  0
  7 30  1  0  0  0  0
  8  9  2  0  0  0  0
  8 31  1  0  0  0  0
  9 10  1  0  0  0  0
  9 21  1  0  0  0  0
 10 11  1  0  0  0  0
 10 32  1  0  0  0  0
 11 12  2  0  0  0  0
 11 13  1  0  0  0  0
 13 20  1  0  0  0  0
 13 14  2  0  0  0  0
 14 15  1  0  0  0  0
 15 16  1  0  0  0  0
 15 17  1  0  0  0  0
 16 33  1  0  0  0  0
 16 34  1  0  0  0  0
 16 35  1  0  0  0  0
 17 18  2  0  0  0  0
 17 19  1  0  0  0  0
 19 20  1  0  0  0  0
 19 36  1  0  0  0  0
 19 37  1  0  0  0  0
 20 38  1  0  0  0  0
 20 39  1  0  0  0  0
 21 22  2  0  0  0  0
 21 40  1  0  0  0  0
M  END
> <s_m_source_file>
AV-unprocessed.smi

> <i_m_source_file_index>
2142

> <i_lp_mmshare_version>
43012

> <i_f3d_flags>
0

> <s_epik_input>
W0NIM11PW0NIMl1bQ0gyXU9jMVtjSF1bY0hdYyhbY0hdbjEpW05IXUMoPU8pQzI9Tk4oW0NIM10pQyg9TylbQ0gyXVtDSDJdMg==

> <s_epik_cmdline>
J2VwaWtfcHl0aG9uJywgJy1waCcsICc3LjAnLCAnLXRuJywgJzgnLCAnLW1hJywgJzIwMCcsICctbWV0YWxfYmluZGluZycsICctaW1hZScsICc8aW5maWxlLm1hZT4nLCAnLW9tYWUnLCAnPG91dGZpbGUubWFlPic=

> <r_lp_tautomer_probability>
1

> <r_epik_Ionization_Penalty>
2.74522e-05

> <r_epik_Ionization_Penalty_Charging>
0

> <r_epik_Ionization_Penalty_Neutral>
2.74522e-05

> <r_epik_State_Penalty>
-0

> <r_epik_Charging_Adjusted_Penalty>
0

> <i_epik_Tot_Q>
0

> <i_epik_Tot_abs_Q>
0

> <r_epik_Metal_State_Penalty>
0.0227286

> <b_epik_Metal_Only>
0

> <s_epik_Chemistry_Notes>
This compound has an imine and may undergo hydrolysis.

> <s_lp_Force_Field>
OPLS_2005

> <r_lp_Energy>
20.7246

> <b_lp_Chiralities_Consistent>
1

> <s_lp_Variant>
AV-unprocessed.smi:2142-1

> <Gold.Version>
5.8.1

> <Gold.Id.Protein>
6NUR|6NUR_protein|mol2

> <Gold.PLP.Fitness>
41.7452

> <Gold.PLP.PLP>
-32.4439

> <Gold.PLP.part.hbond>
-2.2226

> <Gold.PLP.part.metal>
0.0000

> <Gold.PLP.part.buried>
-5.4276

> <Gold.PLP.part.nonpolar>
-27.7227

> <Gold.PLP.part.repulsive>
3.0425

> <Gold.PLP.ligand.clash>
0.0000

> <Gold.PLP.ligand.torsion>
1.0600

> <Gold.PLP.Chemscore.Hbond>
2.0000

> <Gold.PLP.Chemscore.CHOScore>
1.7848

> <Gold.PLP.Chemscore.Metal>
0.0000

> <Gold.Chemscore.Hbonds>
donor molecule, donor type, donor heavy atom, donor atom, acceptor molecule, acceptor atom, score
      L1  H    10    32       P1  7948  0.98
      P1  H  7989  7998       L1    22  1.00
      L1  C    21    40       P1  7948  0.86
      L1  C    21    40       P1  7957  0.86

> <Gold.PLP.Chemscore.Internal.Correction>
0.0670

> <Gold.Rescore>
     Score         DG    S(hbond)    S(metal)    S(lipo)     H(rot)  DE(clash)    DE(int)     intcor
      9.82     -13.31       1.62        0.00      58.70       1.74       0.12       3.37       ----

> <Gold.Chemscore.Fitness>
9.8207

> <Gold.Chemscore.DG>
-13.3106

> <Gold.Chemscore.ZeroCoef>
-5.4800

> <Gold.Chemscore.Hbond>
1.6231

> <Gold.Chemscore.Metal>
0.0000

> <Gold.Chemscore.Lipo>
58.6952

> <Gold.Chemscore.Internal_Hbond>
0.0000

> <Gold.Chemscore.DEClash>
0.1233

> <Gold.Chemscore.DEInternal>
3.3665

> <Gold.Chemscore.Rot>
1.7414

> <Gold.Chemscore.Internal.Correction>
   9.000000E+99

> <Gold.Chemscore.Hbonds>
donor molecule, donor type, donor heavy atom, donor atom, acceptor molecule, acceptor atom, score
      L1  H    10    32       P1  7948  0.27
      P1  H  7989  7998       L1    22  0.25

> <Gold.Chemscore.Hbond.Weighted>
-5.4212

> <Gold.Chemscore.Metal.Weighted>
-0.0000

> <Gold.Chemscore.Lipo.Weighted>
-6.8673

> <Gold.Chemscore.Internal_Hbond.Weighted>
0.0000

> <Gold.Chemscore.DEClash.Weighted>
0.1233

> <Gold.Chemscore.DEInternal.Weighted>
3.3665

> <Gold.Chemscore.Rot.Weighted>
4.4580

> <Gold.Chemscore.Internal.Correction.Weighted>
   9.000000E+99

> <Gold.Protein.RotatedTorsions>
[ 6907 6896 6895 6894 ] final   -5.88 input  -60.11 | X-H torsion
[ 7974 7965 7964 7962 ] final  -90.94 input  175.53 | X-H torsion
[ 8008 7997 7996 7995 ] final  -55.87 input   59.86 | X-H torsion
[ 10167 10162 10161 10158 ] final  -79.84 input  -65.29 | X-H torsion
[ 10718 10713 10712 10709 ] final  -87.70 input   66.30 | X-H torsion
[ 10763 10752 10751 10750 ] final  -95.16 input  -60.55 | X-H torsion
[ 11005 11000 10999 10996 ] final  152.58 input  -57.11 | X-H torsion

> <Gold.Protein.ActiveResidues>
 VAL166  LYS551  ARG553  GLY616  TRP617  ASP618  TYR619  PRO620  LYS621  CYS622 
 ASP623  PHE694  ASN695  SER759  ASP760  ASP761  ALA762  ILE779  LEU786  VAL792 
 PHE793  MET794  SER795  GLU796  ALA797  LYS798  CYS799  TRP800  GLU811  SER814 

> <Gold.Protein.RotatedAtoms>
  151.4745  135.1048  159.9760 H   0  0  0  0  0  0  0  0  0  0  0  0  # atno 6907 bound_to 6896
  152.4803  133.8235  159.7076 H   0  0  0  0  0  0  0  0  0  0  0  0  # atno 6908 bound_to 6896
  150.8871  133.7232  159.2942 H   0  0  0  0  0  0  0  0  0  0  0  0  # atno 6909 bound_to 6896
  145.4198  140.9550  143.2187 H   0  0  0  0  0  0  0  0  0  0  0  0  # atno 7974 bound_to 7965
  154.4210  140.1143  156.5546 H   0  0  0  0  0  0  0  0  0  0  0  0  # atno 8008 bound_to 7997
  155.6374  140.3496  155.4684 H   0  0  0  0  0  0  0  0  0  0  0  0  # atno 8009 bound_to 7997
  155.9898  140.1177  157.0638 H   0  0  0  0  0  0  0  0  0  0  0  0  # atno 8010 bound_to 7997
  140.4557  143.2469  151.8423 H   0  0  0  0  0  0  0  0  0  0  0  0  # atno 10167 bound_to 10162
  155.9985  130.4809  150.4907 H   0  0  0  0  0  0  0  0  0  0  0  0  # atno 10718 bound_to 10713
  154.7123  135.5131  153.8684 H   0  0  0  0  0  0  0  0  0  0  0  0  # atno 10763 bound_to 10752
  153.0790  135.6625  154.0093 H   0  0  0  0  0  0  0  0  0  0  0  0  # atno 10764 bound_to 10752
  153.9932  135.3018  155.3389 H   0  0  0  0  0  0  0  0  0  0  0  0  # atno 10765 bound_to 10752
  140.1320  134.8795  157.2216 H   0  0  0  0  0  0  0  0  0  0  0  0  # atno 11005 bound_to 11000
  144.8253  139.5721  143.6968 LP  0  0  0  0  0  0  0  0  0  0  0  0  # atno 17320 bound_to 7965
  146.2662  139.6526  142.9327 LP  0  0  0  0  0  0  0  0  0  0  0  0  # atno 17321 bound_to 7965
  139.4801  144.5067  151.8987 LP  0  0  0  0  0  0  0  0  0  0  0  0  # atno 17342 bound_to 10162
  140.4154  144.2314  150.5888 LP  0  0  0  0  0  0  0  0  0  0  0  0  # atno 17343 bound_to 10162
  157.2902  131.0624  151.2139 LP  0  0  0  0  0  0  0  0  0  0  0  0  # atno 17370 bound_to 10713
  157.3154  130.6910  149.6239 LP  0  0  0  0  0  0  0  0  0  0  0  0  # atno 17371 bound_to 10713
  140.2830  134.3328  155.7337 LP  0  0  0  0  0  0  0  0  0  0  0  0  # atno 17394 bound_to 11000
  141.2172  133.7489  156.9392 LP  0  0  0  0  0  0  0  0  0  0  0  0  # atno 17395 bound_to 11000

$$$$
