AV-unprocessed.smi:235|AV-procd|sdf|1802|dock10
  -GOLD-   2262020373D 1   1.00000     0.00000
 Structure written by MMmdl.
 54 58  0  0  0  0  0  0  0  0  1 V2000
  145.5018  130.4114  152.6047 O   0  0  0  0  0  0  0  0  0  0  0  0
  146.1786  130.6699  151.6094 C   0  0  0  0  0  0  0  0  0  0  0  0
  146.9491  129.7553  150.9974 N   0  0  0  0  0  0  0  0  0  0  0  0
  147.1027  128.3917  151.3832 C   0  0  0  0  0  0  0  0  0  0  0  0
  147.7597  128.1173  152.7187 C   0  0  0  0  0  0  0  0  0  0  0  0
  148.5087  127.8348  151.4458 C   0  0  0  0  0  0  0  0  0  0  0  0
  146.1297  132.0910  151.0105 C   0  0  1  0  0  0  0  0  0  0  0  0
  145.6781  132.1011  149.5334 C   0  0  0  0  0  0  0  0  0  0  0  0
  144.2503  132.6413  149.5594 C   0  0  0  0  0  0  0  0  0  0  0  0
  144.2908  133.6080  150.7358 C   0  0  0  0  0  0  0  0  0  0  0  0
  145.1725  132.9678  151.6970 N   0  0  0  0  0  0  0  0  0  0  0  0
  145.6306  133.7505  152.6977 C   0  0  0  0  0  0  0  0  0  0  0  0
  146.1460  133.1908  153.8229 N   0  0  0  0  0  0  0  0  0  0  0  0
  146.5869  133.9749  154.8122 C   0  0  0  0  0  0  0  0  0  0  0  0
  146.6030  135.3090  154.8782 N   0  0  0  0  0  0  0  0  0  0  0  0
  146.0882  135.8673  153.7448 C   0  0  0  0  0  0  0  0  0  0  0  0
  145.5889  135.1656  152.6136 C   0  0  0  0  0  0  0  0  0  0  0  0
  145.1481  136.0621  151.6485 N   0  0  0  0  0  0  0  0  0  0  0  0
  145.3673  137.2324  152.1835 C   0  0  0  0  0  0  0  0  0  0  0  0
  145.9280  137.2070  153.4413 N   0  0  0  0  0  0  0  0  0  0  0  0
  146.2717  138.3505  154.2677 C   0  0  0  0  0  0  0  0  0  0  0  0
  147.3963  139.2080  153.6482 C   0  0  2  0  0  0  0  0  0  0  0  0
  148.5342  138.3842  153.4766 O   0  0  0  0  0  0  0  0  0  0  0  0
  147.8062  140.4000  154.5362 C   0  0  2  0  0  0  0  0  0  0  0  0
  149.1862  140.9852  154.2275 C   0  0  0  0  0  0  0  0  0  0  0  0
  149.5959  141.6468  155.5327 C   0  0  0  0  0  0  0  0  0  0  0  0
  148.6834  140.9968  156.5750 C   0  0  0  0  0  0  0  0  0  0  0  0
  147.9943  139.9693  155.8762 O   0  0  0  0  0  0  0  0  0  0  0  0
  147.4654  130.0530  150.1817 H   0  0  0  0  0  0  0  0  0  0  0  0
  146.3209  127.6949  151.0843 H   0  0  0  0  0  0  0  0  0  0  0  0
  148.0847  128.9705  153.3116 H   0  0  0  0  0  0  0  0  0  0  0  0
  147.3986  127.2640  153.2892 H   0  0  0  0  0  0  0  0  0  0  0  0
  148.6474  126.7929  151.1648 H   0  0  0  0  0  0  0  0  0  0  0  0
  149.3319  128.4992  151.1888 H   0  0  0  0  0  0  0  0  0  0  0  0
  147.1433  132.4911  151.0697 H   0  0  0  0  0  0  0  0  0  0  0  0
  146.3127  132.7849  148.9681 H   0  0  0  0  0  0  0  0  0  0  0  0
  145.7371  131.1295  149.0410 H   0  0  0  0  0  0  0  0  0  0  0  0
  143.9546  133.1182  148.6246 H   0  0  0  0  0  0  0  0  0  0  0  0
  143.5505  131.8302  149.7655 H   0  0  0  0  0  0  0  0  0  0  0  0
  144.6946  134.5734  150.4250 H   0  0  0  0  0  0  0  0  0  0  0  0
  143.2983  133.7718  151.1570 H   0  0  0  0  0  0  0  0  0  0  0  0
  146.9807  133.4594  155.6757 H   0  0  0  0  0  0  0  0  0  0  0  0
  145.1189  138.1523  151.6743 H   0  0  0  0  0  0  0  0  0  0  0  0
  145.3664  138.9421  154.4050 H   0  0  0  0  0  0  0  0  0  0  0  0
  146.5628  137.9928  155.2565 H   0  0  0  0  0  0  0  0  0  0  0  0
  147.0753  139.5714  152.6710 H   0  0  0  0  0  0  0  0  0  0  0  0
  148.3402  137.7376  152.8157 H   0  0  0  0  0  0  0  0  0  0  0  0
  147.0547  141.1916  154.5036 H   0  0  0  0  0  0  0  0  0  0  0  0
  149.8882  140.1842  153.9904 H   0  0  0  0  0  0  0  0  0  0  0  0
  149.1736  141.6816  153.3885 H   0  0  0  0  0  0  0  0  0  0  0  0
  150.6512  141.4757  155.7476 H   0  0  0  0  0  0  0  0  0  0  0  0
  149.4289  142.7240  155.4996 H   0  0  0  0  0  0  0  0  0  0  0  0
  149.2371  140.5882  157.4205 H   0  0  0  0  0  0  0  0  0  0  0  0
  147.9614  141.7195  156.9573 H   0  0  0  0  0  0  0  0  0  0  0  0
  1  2  2  0  0  0  0
  2  3  1  0  0  0  0
  2  7  1  0  0  0  0
  3  4  1  0  0  0  0
  3 29  1  0  0  0  0
  4  6  1  0  0  0  0
  4  5  1  0  0  0  0
  4 30  1  0  0  0  0
  5  6  1  0  0  0  0
  5 31  1  0  0  0  0
  5 32  1  0  0  0  0
  6 33  1  0  0  0  0
  6 34  1  0  0  0  0
  7 11  1  0  0  0  0
  7  8  1  0  0  0  0
  7 35  1  0  0  0  0
  8  9  1  0  0  0  0
  8 36  1  0  0  0  0
  8 37  1  0  0  0  0
  9 10  1  0  0  0  0
  9 38  1  0  0  0  0
  9 39  1  0  0  0  0
 10 11  1  0  0  0  0
 10 40  1  0  0  0  0
 10 41  1  0  0  0  0
 11 12  1  0  0  0  0
 12 17  1  0  0  0  0
 12 13  2  0  0  0  0
 13 14  1  0  0  0  0
 14 15  2  0  0  0  0
 14 42  1  0  0  0  0
 15 16  1  0  0  0  0
 16 20  1  0  0  0  0
 16 17  2  0  0  0  0
 17 18  1  0  0  0  0
 18 19  2  0  0  0  0
 19 20  1  0  0  0  0
 19 43  1  0  0  0  0
 20 21  1  0  0  0  0
 21 22  1  0  0  0  0
 21 44  1  0  0  0  0
 21 45  1  0  0  0  0
 22 23  1  0  0  0  0
 22 24  1  0  0  0  0
 22 46  1  0  0  0  0
 23 47  1  0  0  0  0
 24 28  1  0  0  0  0
 24 25  1  0  0  0  0
 24 48  1  0  0  0  0
 25 26  1  0  0  0  0
 25 49  1  0  0  0  0
 25 50  1  0  0  0  0
 26 27  1  0  0  0  0
 26 51  1  0  0  0  0
 26 52  1  0  0  0  0
 27 28  1  0  0  0  0
 27 53  1  0  0  0  0
 27 54  1  0  0  0  0
M  END
> <s_m_source_file>
AV-unprocessed.smi

> <i_m_source_file_index>
235

> <i_lp_mmshare_version>
43012

> <i_f3d_flags>
0

> <s_epik_input>
W0NIMl0xW0NIMl1bQ0hdMVtOSF1DKD1PKVtDQEBIXTJbQ0gyXVtDSDJdW0NIMl1OMmMobltjSF1uMyljKGMzNCluW2NIXW40W0NIMl1bQ0BIXShbT0hdKVtDQEBIXTVbQ0gyXVtDSDJdW0NIMl1PNQ==

> <s_epik_cmdline>
J2VwaWtfcHl0aG9uJywgJy1waCcsICc3LjAnLCAnLXRuJywgJzgnLCAnLW1hJywgJzIwMCcsICctbWV0YWxfYmluZGluZycsICctaW1hZScsICc8aW5maWxlLm1hZT4nLCAnLW9tYWUnLCAnPG91dGZpbGUubWFlPic=

> <r_lp_tautomer_probability>
1

> <r_epik_Ionization_Penalty>
0.000526714

> <r_epik_Ionization_Penalty_Charging>
0

> <r_epik_Ionization_Penalty_Neutral>
0.000526714

> <r_epik_State_Penalty>
0.000272704

> <r_epik_Charging_Adjusted_Penalty>
0.000272704

> <i_epik_Tot_Q>
0

> <i_epik_Tot_abs_Q>
0

> <r_epik_Metal_State_Penalty>
-0

> <b_epik_Metal_Only>
0

> <s_lp_Force_Field>
OPLS_2005

> <r_lp_Energy>
60.5906

> <b_lp_Chiralities_Consistent>
1

> <s_lp_Variant>
AV-unprocessed.smi:235-2

> <Gold.Version>
5.8.1

> <Gold.Id.Protein>
6NUR|6NUR_protein|mol2

> <Gold.PLP.Fitness>
46.9947

> <Gold.PLP.PLP>
-39.9779

> <Gold.PLP.part.hbond>
-2.5498

> <Gold.PLP.part.metal>
0.0000

> <Gold.PLP.part.buried>
-0.7409

> <Gold.PLP.part.nonpolar>
-35.5964

> <Gold.PLP.part.repulsive>
0.7806

> <Gold.PLP.ligand.clash>
0.0000

> <Gold.PLP.ligand.torsion>
0.6539

> <Gold.PLP.Chemscore.Hbond>
1.3600

> <Gold.PLP.Chemscore.CHOScore>
1.2957

> <Gold.PLP.Chemscore.Metal>
0.0000

> <Gold.Chemscore.Hbonds>
donor molecule, donor type, donor heavy atom, donor atom, acceptor molecule, acceptor atom, score
      L1  H     3    29       P1 10747  0.48
      L1  H    23    47       P1  7948  0.93
      L1  C    19    43       P1 10171  1.00
      L1  C    19    43       P1 10175  0.28

> <Gold.PLP.Chemscore.Internal.Correction>
0.3576

> <Gold.Rescore>
     Score         DG    S(hbond)    S(metal)    S(lipo)     H(rot)  DE(clash)    DE(int)     intcor
     12.68     -14.86       1.64        0.00      98.97       3.00       0.30       1.87       ----

> <Gold.Chemscore.Fitness>
12.6806

> <Gold.Chemscore.DG>
-14.8570

> <Gold.Chemscore.ZeroCoef>
-5.4800

> <Gold.Chemscore.Hbond>
1.6393

> <Gold.Chemscore.Metal>
0.0000

> <Gold.Chemscore.Lipo>
98.9661

> <Gold.Chemscore.Internal_Hbond>
0.0000

> <Gold.Chemscore.DEClash>
0.3015

> <Gold.Chemscore.DEInternal>
1.8749

> <Gold.Chemscore.Rot>
2.9989

> <Gold.Chemscore.Internal.Correction>
   9.000000E+99

> <Gold.Chemscore.Hbonds>
donor molecule, donor type, donor heavy atom, donor atom, acceptor molecule, acceptor atom, score
      L1  H     3    29       P1 10747  0.48
      L1  H    23    47       P1  7948  0.90

> <Gold.Chemscore.Hbond.Weighted>
-5.4752

> <Gold.Chemscore.Metal.Weighted>
-0.0000

> <Gold.Chemscore.Lipo.Weighted>
-11.5790

> <Gold.Chemscore.Internal_Hbond.Weighted>
0.0000

> <Gold.Chemscore.DEClash.Weighted>
0.3015

> <Gold.Chemscore.DEInternal.Weighted>
1.8749

> <Gold.Chemscore.Rot.Weighted>
7.6772

> <Gold.Chemscore.Internal.Correction.Weighted>
   9.000000E+99

> <Gold.Protein.RotatedTorsions>
[ 6907 6896 6895 6894 ] final  -55.29 input  -60.11 | X-H torsion
[ 7974 7965 7964 7962 ] final -173.59 input  175.53 | X-H torsion
[ 8008 7997 7996 7995 ] final   56.17 input   59.86 | X-H torsion
[ 10167 10162 10161 10158 ] final  -67.67 input  -65.29 | X-H torsion
[ 10718 10713 10712 10709 ] final  -57.69 input   66.30 | X-H torsion
[ 10763 10752 10751 10750 ] final -166.63 input  -60.55 | X-H torsion
[ 11005 11000 10999 10996 ] final -111.96 input  -57.11 | X-H torsion

> <Gold.Protein.ActiveResidues>
 VAL166  LYS551  ARG553  GLY616  TRP617  ASP618  TYR619  PRO620  LYS621  CYS622 
 ASP623  PHE694  ASN695  SER759  ASP760  ASP761  ALA762  ILE779  LEU786  VAL792 
 PHE793  MET794  SER795  GLU796  ALA797  LYS798  CYS799  TRP800  GLU811  SER814 

> <Gold.Protein.RotatedAtoms>
  150.8264  134.7497  159.6816 H   0  0  0  0  0  0  0  0  0  0  0  0  # atno 6907 bound_to 6896
  152.4374  134.5655  159.9916 H   0  0  0  0  0  0  0  0  0  0  0  0  # atno 6908 bound_to 6896
  151.5827  133.3338  159.3047 H   0  0  0  0  0  0  0  0  0  0  0  0  # atno 6909 bound_to 6896
  144.7137  140.1599  143.6377 H   0  0  0  0  0  0  0  0  0  0  0  0  # atno 7974 bound_to 7965
  155.5132  140.3477  155.4392 H   0  0  0  0  0  0  0  0  0  0  0  0  # atno 8008 bound_to 7997
  156.0835  140.1392  156.9709 H   0  0  0  0  0  0  0  0  0  0  0  0  # atno 8009 bound_to 7997
  154.4593  140.0941  156.6825 H   0  0  0  0  0  0  0  0  0  0  0  0  # atno 8010 bound_to 7997
  140.5565  143.2312  151.6811 H   0  0  0  0  0  0  0  0  0  0  0  0  # atno 10167 bound_to 10162
  156.1191  130.4168  150.0475 H   0  0  0  0  0  0  0  0  0  0  0  0  # atno 10718 bound_to 10713
  154.6813  135.2955  154.9608 H   0  0  0  0  0  0  0  0  0  0  0  0  # atno 10763 bound_to 10752
  154.0602  135.6632  153.4815 H   0  0  0  0  0  0  0  0  0  0  0  0  # atno 10764 bound_to 10752
  153.0549  135.5150  154.7858 H   0  0  0  0  0  0  0  0  0  0  0  0  # atno 10765 bound_to 10752
  141.0704  133.9390  157.2497 H   0  0  0  0  0  0  0  0  0  0  0  0  # atno 11005 bound_to 11000
  145.9040  139.2447  143.1477 LP  0  0  0  0  0  0  0  0  0  0  0  0  # atno 17320 bound_to 7965
  145.9782  140.8704  143.0127 LP  0  0  0  0  0  0  0  0  0  0  0  0  # atno 17321 bound_to 7965
  139.5050  144.3733  152.0449 LP  0  0  0  0  0  0  0  0  0  0  0  0  # atno 17342 bound_to 10162
  140.2855  144.3812  150.6105 LP  0  0  0  0  0  0  0  0  0  0  0  0  # atno 17343 bound_to 10162
  156.8418  130.9428  151.3631 LP  0  0  0  0  0  0  0  0  0  0  0  0  # atno 17370 bound_to 10713
  157.6375  130.8778  149.9386 LP  0  0  0  0  0  0  0  0  0  0  0  0  # atno 17371 bound_to 10713
  139.9517  135.0174  156.9013 LP  0  0  0  0  0  0  0  0  0  0  0  0  # atno 17394 bound_to 11000
  140.5686  134.0465  155.7423 LP  0  0  0  0  0  0  0  0  0  0  0  0  # atno 17395 bound_to 11000

$$$$
