AV-unprocessed.smi:2279|AV-procd|sdf|9183|dock8
  -GOLD-   2272012403D 1   1.00000     0.00000
 Structure written by MMmdl.
 58 60  0  0  0  0  0  0  0  0  3 V2000
  153.4221  140.6755  159.4602 C   0  0  0  0  0  0  0  0  0  0  0  0
  152.4961  141.7619  158.9551 C   0  0  0  0  0  0  0  0  0  0  0  0
  152.5119  143.0494  159.5248 C   0  0  0  0  0  0  0  0  0  0  0  0
  151.6253  144.0153  159.0095 C   0  0  0  0  0  0  0  0  0  0  0  0
  151.5887  145.4195  159.5741 C   0  0  0  0  0  0  0  0  0  0  0  0
  150.7662  143.7619  157.9992 N   0  0  0  0  0  0  0  0  0  0  0  0
  150.7422  142.5254  157.4429 C   0  0  0  0  0  0  0  0  0  0  0  0
  149.8777  142.1577  156.3779 N   0  0  0  0  0  0  0  0  0  0  0  0
  149.4704  140.9252  156.0265 C   0  0  0  0  0  0  0  0  0  0  0  0
  149.7937  139.8805  156.5924 O   0  0  0  0  0  0  0  0  0  0  0  0
  148.6530  140.9706  154.9638 N   0  0  0  0  0  0  0  0  0  0  0  0
  148.0282  139.8182  154.3198 C   0  0  2  0  0  0  0  0  0  0  0  0
  147.5339  140.1974  152.9207 C   0  0  0  0  0  0  0  0  0  0  0  0
  146.7981  139.0243  152.2523 C   0  0  0  0  0  0  0  0  0  0  0  0
  145.6513  138.5269  153.0715 N   0  3  1  0  0  0  0  0  0  0  0  0
  144.8667  137.4330  152.4003 C   0  0  2  0  0  0  0  0  0  0  0  0
  143.8482  136.7574  153.3568 C   0  0  0  0  0  0  0  0  0  0  0  0
  143.0974  135.5868  152.6988 C   0  0  0  0  0  0  0  0  0  0  0  0
  144.0392  134.5692  152.1810 N   0  3  1  0  0  0  0  0  0  0  0  0
  143.3454  133.3743  151.6527 C   0  0  0  0  0  0  0  0  0  0  0  0
  144.9773  135.1584  151.1995 C   0  0  0  0  0  0  0  0  0  0  0  0
  145.7764  136.3179  151.8189 C   0  0  0  0  0  0  0  0  0  0  0  0
  146.1081  138.1706  154.4494 C   0  0  0  0  0  0  0  0  0  0  0  0
  146.8347  139.3323  155.1472 C   0  0  0  0  0  0  0  0  0  0  0  0
  151.5987  141.4991  157.9006 C   0  0  0  0  0  0  0  0  0  0  0  0
  154.0511  141.0357  160.2747 H   0  0  0  0  0  0  0  0  0  0  0  0
  154.0714  140.3290  158.6556 H   0  0  0  0  0  0  0  0  0  0  0  0
  152.8440  139.8266  159.8254 H   0  0  0  0  0  0  0  0  0  0  0  0
  153.1850  143.2907  160.3346 H   0  0  0  0  0  0  0  0  0  0  0  0
  152.3101  145.5398  160.3829 H   0  0  0  0  0  0  0  0  0  0  0  0
  150.5967  145.6445  159.9670 H   0  0  0  0  0  0  0  0  0  0  0  0
  151.8242  146.1470  158.7971 H   0  0  0  0  0  0  0  0  0  0  0  0
  149.5297  142.9229  155.8197 H   0  0  0  0  0  0  0  0  0  0  0  0
  148.4471  141.8768  154.5691 H   0  0  0  0  0  0  0  0  0  0  0  0
  148.7407  138.9966  154.2243 H   0  0  0  0  0  0  0  0  0  0  0  0
  146.8661  141.0584  152.9801 H   0  0  0  0  0  0  0  0  0  0  0  0
  148.3766  140.5029  152.2990 H   0  0  0  0  0  0  0  0  0  0  0  0
  146.4614  139.3896  151.2850 H   0  0  0  0  0  0  0  0  0  0  0  0
  147.4928  138.2045  152.0623 H   0  0  0  0  0  0  0  0  0  0  0  0
  144.3117  137.8837  151.5756 H   0  0  0  0  0  0  0  0  0  0  0  0
  144.3604  136.4034  154.2528 H   0  0  0  0  0  0  0  0  0  0  0  0
  143.0872  137.4625  153.6869 H   0  0  0  0  0  0  0  0  0  0  0  0
  142.4308  135.1271  153.4297 H   0  0  0  0  0  0  0  0  0  0  0  0
  142.4695  135.9530  151.8846 H   0  0  0  0  0  0  0  0  0  0  0  0
  142.7203  133.6296  150.7958 H   0  0  0  0  0  0  0  0  0  0  0  0
  142.7103  132.9273  152.4183 H   0  0  0  0  0  0  0  0  0  0  0  0
  144.0655  132.6184  151.3374 H   0  0  0  0  0  0  0  0  0  0  0  0
  145.6670  134.3895  150.8486 H   0  0  0  0  0  0  0  0  0  0  0  0
  144.4227  135.5079  150.3268 H   0  0  0  0  0  0  0  0  0  0  0  0
  146.4193  136.7031  151.0293 H   0  0  0  0  0  0  0  0  0  0  0  0
  146.4328  135.9311  152.5999 H   0  0  0  0  0  0  0  0  0  0  0  0
  145.2671  137.9118  155.0883 H   0  0  0  0  0  0  0  0  0  0  0  0
  146.7578  137.2951  154.4029 H   0  0  0  0  0  0  0  0  0  0  0  0
  147.1722  139.0129  156.1342 H   0  0  0  0  0  0  0  0  0  0  0  0
  146.1340  140.1527  155.3114 H   0  0  0  0  0  0  0  0  0  0  0  0
  151.5708  140.5174  157.4497 H   0  0  0  0  0  0  0  0  0  0  0  0
  145.0208  139.3089  153.1775 H   0  0  0  0  0  0  0  0  0  0  0  0
  144.5927  134.2537  152.9652 H   0  0  0  0  0  0  0  0  0  0  0  0
  1  2  1  0  0  0  0
  1 26  1  0  0  0  0
  1 27  1  0  0  0  0
  1 28  1  0  0  0  0
  2 25  1  0  0  0  0
  2  3  2  0  0  0  0
  3  4  1  0  0  0  0
  3 29  1  0  0  0  0
  4  5  1  0  0  0  0
  4  6  2  0  0  0  0
  5 30  1  0  0  0  0
  5 31  1  0  0  0  0
  5 32  1  0  0  0  0
  6  7  1  0  0  0  0
  7  8  1  0  0  0  0
  7 25  2  0  0  0  0
  8  9  1  0  0  0  0
  8 33  1  0  0  0  0
  9 10  2  0  0  0  0
  9 11  1  0  0  0  0
 11 12  1  0  0  0  0
 11 34  1  0  0  0  0
 12 24  1  0  0  0  0
 12 13  1  0  0  0  0
 12 35  1  0  0  0  0
 13 14  1  0  0  0  0
 13 36  1  0  0  0  0
 13 37  1  0  0  0  0
 14 15  1  0  0  0  0
 14 38  1  0  0  0  0
 14 39  1  0  0  0  0
 15 16  1  0  0  0  0
 15 23  1  0  0  0  0
 15 57  1  0  0  0  0
 16 22  1  0  0  0  0
 16 17  1  0  0  0  0
 16 40  1  0  0  0  0
 17 18  1  0  0  0  0
 17 41  1  0  0  0  0
 17 42  1  0  0  0  0
 18 19  1  0  0  0  0
 18 43  1  0  0  0  0
 18 44  1  0  0  0  0
 19 20  1  0  0  0  0
 19 21  1  0  0  0  0
 19 58  1  0  0  0  0
 20 45  1  0  0  0  0
 20 46  1  0  0  0  0
 20 47  1  0  0  0  0
 21 22  1  0  0  0  0
 21 48  1  0  0  0  0
 21 49  1  0  0  0  0
 22 50  1  0  0  0  0
 22 51  1  0  0  0  0
 23 24  1  0  0  0  0
 23 52  1  0  0  0  0
 23 53  1  0  0  0  0
 24 54  1  0  0  0  0
 24 55  1  0  0  0  0
 25 56  1  0  0  0  0
M  CHG  1  15   1
M  CHG  1  19   1
M  END
> <s_m_source_file>
AV-unprocessed.smi

> <i_m_source_file_index>
2279

> <i_lp_mmshare_version>
43012

> <i_f3d_flags>
0

> <s_epik_input>
W0NIM11jMVtjSF1jKFtDSDNdKW5jKFtjSF0xKVtOSF1DKD1PKVtOSF1bQ0hdMltDSDJdW0NIMl1OKFtDSDJdW0NIMl0yKVtDSF0zW0NIMl1bQ0gyXU4oW0NIM10pW0NIMl1bQ0gyXTM=

> <s_epik_cmdline>
J2VwaWtfcHl0aG9uJywgJy1waCcsICc3LjAnLCAnLXRuJywgJzgnLCAnLW1hJywgJzIwMCcsICctbWV0YWxfYmluZGluZycsICctaW1hZScsICc8aW5maWxlLm1hZT4nLCAnLW9tYWUnLCAnPG91dGZpbGUubWFlPic=

> <r_epik_Ionization_Penalty>
0.180973

> <r_epik_Ionization_Penalty_Charging>
0.180787

> <r_epik_Ionization_Penalty_Neutral>
0.000186186

> <r_epik_State_Penalty>
0.153592

> <r_epik_Charging_Adjusted_Penalty>
0.334379

> <i_epik_Tot_Q>
2

> <i_epik_Tot_abs_Q>
2

> <r_epik_Metal_State_Penalty>
0.153604

> <b_epik_Metal_Only>
0

> <s_lp_Force_Field>
OPLS_2005

> <r_lp_Energy>
41.0771

> <b_lp_Chiralities_Consistent>
1

> <s_lp_Variant>
AV-unprocessed.smi:2279-1

> <Gold.Version>
5.8.1

> <Gold.Id.Protein>
6NUR|6NUR_protein|mol2

> <Gold.PLP.Fitness>
50.1147

> <Gold.PLP.PLP>
-42.2190

> <Gold.PLP.part.hbond>
-2.0000

> <Gold.PLP.part.metal>
0.0000

> <Gold.PLP.part.buried>
-1.3119

> <Gold.PLP.part.nonpolar>
-39.8098

> <Gold.PLP.part.repulsive>
0.3821

> <Gold.PLP.ligand.clash>
0.0000

> <Gold.PLP.ligand.torsion>
0.5681

> <Gold.PLP.Chemscore.Hbond>
3.0000

> <Gold.PLP.Chemscore.CHOScore>
0.0000

> <Gold.PLP.Chemscore.Metal>
0.0000

> <Gold.Chemscore.Hbonds>
donor molecule, donor type, donor heavy atom, donor atom, acceptor molecule, acceptor atom, score
      L1  H     8    33       P1  8028  1.00
      L1  H    15    57       P1 10175  2.00

> <Gold.PLP.Chemscore.Internal.Correction>
0.0319

> <Gold.Rescore>
     Score         DG    S(hbond)    S(metal)    S(lipo)     H(rot)  DE(clash)    DE(int)     intcor
     18.93     -22.08       1.85        0.00     115.58       1.21       1.30       1.84       ----

> <Gold.Chemscore.Fitness>
18.9336

> <Gold.Chemscore.DG>
-22.0766

> <Gold.Chemscore.ZeroCoef>
-5.4800

> <Gold.Chemscore.Hbond>
1.8474

> <Gold.Chemscore.Metal>
0.0000

> <Gold.Chemscore.Lipo>
115.5771

> <Gold.Chemscore.Internal_Hbond>
0.0000

> <Gold.Chemscore.DEClash>
1.3042

> <Gold.Chemscore.DEInternal>
1.8389

> <Gold.Chemscore.Rot>
1.2095

> <Gold.Chemscore.Internal.Correction>
   9.000000E+99

> <Gold.Chemscore.Hbonds>
donor molecule, donor type, donor heavy atom, donor atom, acceptor molecule, acceptor atom, score
      L1  H     8    33       P1  8028  0.95
      L1  H    15    57       P1 10175  0.94

> <Gold.Chemscore.Hbond.Weighted>
-6.1704

> <Gold.Chemscore.Metal.Weighted>
-0.0000

> <Gold.Chemscore.Lipo.Weighted>
-13.5225

> <Gold.Chemscore.Internal_Hbond.Weighted>
0.0000

> <Gold.Chemscore.DEClash.Weighted>
1.3042

> <Gold.Chemscore.DEInternal.Weighted>
1.8389

> <Gold.Chemscore.Rot.Weighted>
3.0963

> <Gold.Chemscore.Internal.Correction.Weighted>
   9.000000E+99

> <Gold.Protein.RotatedTorsions>
[ 6907 6896 6895 6894 ] final  -93.83 input  -60.11 | X-H torsion
[ 7974 7965 7964 7962 ] final    3.41 input  175.53 | X-H torsion
[ 8008 7997 7996 7995 ] final   71.02 input   59.86 | X-H torsion
[ 10167 10162 10161 10158 ] final -166.31 input  -65.29 | X-H torsion
[ 10718 10713 10712 10709 ] final   -7.15 input   66.30 | X-H torsion
[ 10763 10752 10751 10750 ] final  -24.71 input  -60.55 | X-H torsion
[ 11005 11000 10999 10996 ] final   31.97 input  -57.11 | X-H torsion

> <Gold.Protein.ActiveResidues>
 VAL166  LYS551  ARG553  GLY616  TRP617  ASP618  TYR619  PRO620  LYS621  CYS622 
 ASP623  PHE694  ASN695  SER759  ASP760  ASP761  ALA762  ILE779  LEU786  VAL792 
 PHE793  MET794  SER795  GLU796  ALA797  LYS798  CYS799  TRP800  GLU811  SER814 

> <Gold.Protein.RotatedAtoms>
  150.6930  134.1906  159.4283 H   0  0  0  0  0  0  0  0  0  0  0  0  # atno 6907 bound_to 6896
  151.9877  134.9993  160.0569 H   0  0  0  0  0  0  0  0  0  0  0  0  # atno 6908 bound_to 6896
  152.1696  133.4600  159.4939 H   0  0  0  0  0  0  0  0  0  0  0  0  # atno 6909 bound_to 6896
  146.2445  140.0690  142.8363 H   0  0  0  0  0  0  0  0  0  0  0  0  # atno 7974 bound_to 7965
  155.7475  140.3489  155.5134 H   0  0  0  0  0  0  0  0  0  0  0  0  # atno 8008 bound_to 7997
  155.9036  140.1038  157.1353 H   0  0  0  0  0  0  0  0  0  0  0  0  # atno 8009 bound_to 7997
  154.4047  140.1281  156.4454 H   0  0  0  0  0  0  0  0  0  0  0  0  # atno 8010 bound_to 7997
  139.6124  144.0789  152.1854 H   0  0  0  0  0  0  0  0  0  0  0  0  # atno 10167 bound_to 10162
  156.7215  130.5152  149.5867 H   0  0  0  0  0  0  0  0  0  0  0  0  # atno 10718 bound_to 10713
  153.6881  135.6963  153.5098 H   0  0  0  0  0  0  0  0  0  0  0  0  # atno 10763 bound_to 10752
  153.2434  135.4298  155.0721 H   0  0  0  0  0  0  0  0  0  0  0  0  # atno 10764 bound_to 10752
  154.8381  135.3513  154.6423 H   0  0  0  0  0  0  0  0  0  0  0  0  # atno 10765 bound_to 10752
  140.2783  134.3002  155.7808 H   0  0  0  0  0  0  0  0  0  0  0  0  # atno 11005 bound_to 11000
  145.0833  140.9235  143.4812 LP  0  0  0  0  0  0  0  0  0  0  0  0  # atno 17320 bound_to 7965
  145.0847  139.2933  143.5765 LP  0  0  0  0  0  0  0  0  0  0  0  0  # atno 17321 bound_to 7965
  140.0410  144.6007  150.7411 LP  0  0  0  0  0  0  0  0  0  0  0  0  # atno 17342 bound_to 10162
  140.7328  143.2709  151.3890 LP  0  0  0  0  0  0  0  0  0  0  0  0  # atno 17343 bound_to 10162
  156.1591  130.6362  151.0696 LP  0  0  0  0  0  0  0  0  0  0  0  0  # atno 17370 bound_to 10713
  157.6896  131.0814  150.7145 LP  0  0  0  0  0  0  0  0  0  0  0  0  # atno 17371 bound_to 10713
  141.2167  133.7509  156.9441 LP  0  0  0  0  0  0  0  0  0  0  0  0  # atno 17394 bound_to 11000
  140.1307  134.9357  157.2333 LP  0  0  0  0  0  0  0  0  0  0  0  0  # atno 17395 bound_to 11000

$$$$
