AV-unprocessed.smi:193|AV-procd|sdf|1505|dock9
  -GOLD-   2262019333D 1   1.00000     0.00000
 Structure written by MMmdl.
 62 66  0  0  0  0  0  0  0  0  2 V2000
  150.6407  133.4210  156.3097 C   0  0  0  0  0  0  0  0  0  0  0  0
  149.8907  134.7597  156.3921 C   0  0  1  0  0  0  0  0  0  0  0  0
  149.8382  135.3961  154.9840 C   0  0  0  0  0  0  0  0  0  0  0  0
  149.3848  136.7864  154.9769 N   0  0  0  0  0  0  0  0  0  0  0  0
  150.3174  137.7755  155.0304 C   0  0  0  0  0  0  0  0  0  0  0  0
  151.6119  137.4921  154.7252 N   0  0  0  0  0  0  0  0  0  0  0  0
  152.5491  138.4413  154.7961 C   0  0  0  0  0  0  0  0  0  0  0  0
  152.4137  139.7209  155.1460 N   0  0  0  0  0  0  0  0  0  0  0  0
  151.1172  140.0171  155.4463 C   0  0  0  0  0  0  0  0  0  0  0  0
  150.0157  139.1153  155.4098 C   0  0  0  0  0  0  0  0  0  0  0  0
  148.8483  139.7859  155.7570 N   0  0  0  0  0  0  0  0  0  0  0  0
  149.2387  141.0074  155.9970 C   0  0  0  0  0  0  0  0  0  0  0  0
  150.5884  141.2312  155.8483 N   0  0  0  0  0  0  0  0  0  0  0  0
  151.2915  142.4875  156.0579 C   0  0  0  0  0  0  0  0  0  0  0  0
  151.3245  142.9526  157.5354 C   0  0  0  0  0  0  0  0  0  0  0  0
  149.9970  143.2620  157.9236 O   0  0  0  0  0  0  0  0  0  0  0  0
  151.8456  141.8186  158.4413 C   0  0  0  0  0  0  0  0  0  0  0  0
  152.0599  142.2853  159.8921 C   0  0  0  0  0  0  0  0  0  0  0  0
  152.9325  143.4084  159.9171 O   0  0  0  0  0  0  0  0  0  0  0  0
  152.3962  144.5358  159.2357 C   0  0  0  0  0  0  0  0  0  0  0  0
  152.1969  144.2097  157.7448 C   0  0  0  0  0  0  0  0  0  0  0  0
  148.0838  137.0843  155.5724 C   0  0  0  0  0  0  0  0  0  0  0  0
  148.1419  137.0446  157.1106 C   0  0  0  0  0  0  0  0  0  0  0  0
  147.8943  135.7026  157.7015 N   0  3  2  0  0  0  0  0  0  0  0  0
  148.2332  135.6785  159.1453 C   0  0  2  0  0  0  0  0  0  0  0  0
  147.3267  134.7973  159.9762 C   0  0  0  0  0  0  0  0  0  0  0  0
  147.2028  136.3014  160.0725 C   0  0  2  0  0  0  0  0  0  0  0  0
  145.9358  136.9877  159.5954 C   0  0  0  0  0  0  0  0  0  0  0  0
  148.4703  134.5403  156.9665 C   0  0  0  0  0  0  0  0  0  0  0  0
  150.1254  132.7161  155.6561 H   0  0  0  0  0  0  0  0  0  0  0  0
  150.7338  132.9583  157.2926 H   0  0  0  0  0  0  0  0  0  0  0  0
  151.6498  133.5591  155.9200 H   0  0  0  0  0  0  0  0  0  0  0  0
  150.4652  135.3946  157.0677 H   0  0  0  0  0  0  0  0  0  0  0  0
  150.8182  135.3343  154.5082 H   0  0  0  0  0  0  0  0  0  0  0  0
  149.1738  134.8178  154.3410 H   0  0  0  0  0  0  0  0  0  0  0  0
  153.5510  138.1310  154.5383 H   0  0  0  0  0  0  0  0  0  0  0  0
  148.5494  141.7827  156.2990 H   0  0  0  0  0  0  0  0  0  0  0  0
  152.3058  142.3816  155.6707 H   0  0  0  0  0  0  0  0  0  0  0  0
  150.8100  143.2462  155.4394 H   0  0  0  0  0  0  0  0  0  0  0  0
  149.5923  143.7676  157.2356 H   0  0  0  0  0  0  0  0  0  0  0  0
  151.1654  140.9662  158.4185 H   0  0  0  0  0  0  0  0  0  0  0  0
  152.7990  141.4571  158.0535 H   0  0  0  0  0  0  0  0  0  0  0  0
  151.1117  142.5353  160.3705 H   0  0  0  0  0  0  0  0  0  0  0  0
  152.5061  141.4821  160.4786 H   0  0  0  0  0  0  0  0  0  0  0  0
  151.4580  144.8432  159.6999 H   0  0  0  0  0  0  0  0  0  0  0  0
  153.0882  145.3710  159.3435 H   0  0  0  0  0  0  0  0  0  0  0  0
  153.1756  144.0466  157.2918 H   0  0  0  0  0  0  0  0  0  0  0  0
  151.7642  145.0735  157.2387 H   0  0  0  0  0  0  0  0  0  0  0  0
  147.7508  138.0724  155.2607 H   0  0  0  0  0  0  0  0  0  0  0  0
  147.3298  136.3954  155.1905 H   0  0  0  0  0  0  0  0  0  0  0  0
  149.0899  137.4485  157.4695 H   0  0  0  0  0  0  0  0  0  0  0  0
  147.3750  137.7137  157.4990 H   0  0  0  0  0  0  0  0  0  0  0  0
  149.2945  135.7324  159.3821 H   0  0  0  0  0  0  0  0  0  0  0  0
  146.5282  134.2566  159.4712 H   0  0  0  0  0  0  0  0  0  0  0  0
  147.7681  134.2812  160.8264 H   0  0  0  0  0  0  0  0  0  0  0  0
  147.6104  136.7496  160.9766 H   0  0  0  0  0  0  0  0  0  0  0  0
  145.5153  136.4883  158.7223 H   0  0  0  0  0  0  0  0  0  0  0  0
  146.1443  138.0267  159.3406 H   0  0  0  0  0  0  0  0  0  0  0  0
  145.1873  136.9737  160.3879 H   0  0  0  0  0  0  0  0  0  0  0  0
  147.7869  134.2682  156.1614 H   0  0  0  0  0  0  0  0  0  0  0  0
  148.4668  133.6760  157.6317 H   0  0  0  0  0  0  0  0  0  0  0  0
  146.8949  135.5641  157.6594 H   0  0  0  0  0  0  0  0  0  0  0  0
  1  2  1  0  0  0  0
  1 30  1  0  0  0  0
  1 31  1  0  0  0  0
  1 32  1  0  0  0  0
  2 29  1  0  0  0  0
  2  3  1  0  0  0  0
  2 33  1  0  0  0  0
  3  4  1  0  0  0  0
  3 34  1  0  0  0  0
  3 35  1  0  0  0  0
  4  5  1  0  0  0  0
  4 22  1  0  0  0  0
  5 10  1  0  0  0  0
  5  6  2  0  0  0  0
  6  7  1  0  0  0  0
  7  8  2  0  0  0  0
  7 36  1  0  0  0  0
  8  9  1  0  0  0  0
  9 13  1  0  0  0  0
  9 10  2  0  0  0  0
 10 11  1  0  0  0  0
 11 12  2  0  0  0  0
 12 13  1  0  0  0  0
 12 37  1  0  0  0  0
 13 14  1  0  0  0  0
 14 15  1  0  0  0  0
 14 38  1  0  0  0  0
 14 39  1  0  0  0  0
 15 21  1  0  0  0  0
 15 16  1  0  0  0  0
 15 17  1  0  0  0  0
 16 40  1  0  0  0  0
 17 18  1  0  0  0  0
 17 41  1  0  0  0  0
 17 42  1  0  0  0  0
 18 19  1  0  0  0  0
 18 43  1  0  0  0  0
 18 44  1  0  0  0  0
 19 20  1  0  0  0  0
 20 21  1  0  0  0  0
 20 45  1  0  0  0  0
 20 46  1  0  0  0  0
 21 47  1  0  0  0  0
 21 48  1  0  0  0  0
 22 23  1  0  0  0  0
 22 49  1  0  0  0  0
 22 50  1  0  0  0  0
 23 24  1  0  0  0  0
 23 51  1  0  0  0  0
 23 52  1  0  0  0  0
 24 25  1  0  0  0  0
 24 29  1  0  0  0  0
 24 62  1  0  0  0  0
 25 27  1  0  0  0  0
 25 26  1  0  0  0  0
 25 53  1  0  0  0  0
 26 27  1  0  0  0  0
 26 54  1  0  0  0  0
 26 55  1  0  0  0  0
 27 28  1  0  0  0  0
 27 56  1  0  0  0  0
 28 57  1  0  0  0  0
 28 58  1  0  0  0  0
 28 59  1  0  0  0  0
 29 60  1  0  0  0  0
 29 61  1  0  0  0  0
M  CHG  1  24   1
M  END
> <s_m_source_file>
AV-unprocessed.smi

> <i_m_source_file_index>
193

> <i_lp_mmshare_version>
43012

> <i_f3d_flags>
0

> <s_epik_input>
W0NIM11bQ0BASF0xW0NIMl1bQ0BIXTFOKFtDSDJdMilbQ0gyXVtDSDJdTihbQ0gyXVtDQEhdMltDSDNdKWMobltjSF1uMyljKGMzNCluW2NIXW40W0NIMl1DNShbT0hdKVtDSDJdW0NIMl1PW0NIMl1bQ0gyXTU=

> <s_epik_cmdline>
J2VwaWtfcHl0aG9uJywgJy1waCcsICc3LjAnLCAnLXRuJywgJzgnLCAnLW1hJywgJzIwMCcsICctbWV0YWxfYmluZGluZycsICctaW1hZScsICc8aW5maWxlLm1hZT4nLCAnLW9tYWUnLCAnPG91dGZpbGUubWFlPic=

> <r_lp_tautomer_probability>
1

> <r_epik_Ionization_Penalty>
0.0540825

> <r_epik_Ionization_Penalty_Charging>
0.0538476

> <r_epik_Ionization_Penalty_Neutral>
0.000234891

> <r_epik_State_Penalty>
0.0200719

> <r_epik_Charging_Adjusted_Penalty>
0.0739194

> <i_epik_Tot_Q>
1

> <i_epik_Tot_abs_Q>
1

> <r_epik_Metal_State_Penalty>
0.0199414

> <b_epik_Metal_Only>
0

> <s_lp_Force_Field>
OPLS_2005

> <r_lp_Energy>
56.796

> <b_lp_Chiralities_Consistent>
1

> <s_lp_Variant>
AV-unprocessed.smi:193-10

> <Gold.Version>
5.8.1

> <Gold.Id.Protein>
6NUR|6NUR_protein|mol2

> <Gold.PLP.Fitness>
51.9165

> <Gold.PLP.PLP>
-43.9420

> <Gold.PLP.part.hbond>
-3.9571

> <Gold.PLP.part.metal>
0.0000

> <Gold.PLP.part.buried>
-6.4823

> <Gold.PLP.part.nonpolar>
-34.8422

> <Gold.PLP.part.repulsive>
0.1749

> <Gold.PLP.ligand.clash>
0.0000

> <Gold.PLP.ligand.torsion>
0.8208

> <Gold.PLP.Chemscore.Hbond>
2.7193

> <Gold.PLP.Chemscore.CHOScore>
0.0000

> <Gold.PLP.Chemscore.Metal>
0.0000

> <Gold.Chemscore.Hbonds>
donor molecule, donor type, donor heavy atom, donor atom, acceptor molecule, acceptor atom, score
      L1  H    16    40       P1  8028  1.00
      P1  H  7997  8009       L1     8  0.55
      P1  H 10752 10765       L1     6  0.36

> <Gold.PLP.Chemscore.Internal.Correction>
1.4584

> <Gold.Rescore>
     Score         DG    S(hbond)    S(metal)    S(lipo)     H(rot)  DE(clash)    DE(int)     intcor
     13.10     -17.92       1.38        0.00     109.10       1.93       2.61       2.21       ----

> <Gold.Chemscore.Fitness>
13.1027

> <Gold.Chemscore.DG>
-17.9202

> <Gold.Chemscore.ZeroCoef>
-5.4800

> <Gold.Chemscore.Hbond>
1.3813

> <Gold.Chemscore.Metal>
0.0000

> <Gold.Chemscore.Lipo>
109.1024

> <Gold.Chemscore.Internal_Hbond>
0.0000

> <Gold.Chemscore.DEClash>
2.6097

> <Gold.Chemscore.DEInternal>
2.2078

> <Gold.Chemscore.Rot>
1.9290

> <Gold.Chemscore.Internal.Correction>
   9.000000E+99

> <Gold.Chemscore.Hbonds>
donor molecule, donor type, donor heavy atom, donor atom, acceptor molecule, acceptor atom, score
      L1  H    16    40       P1  8028  0.73
      P1  H  7997  8009       L1     8  0.20
      P1  H 10752 10765       L1     6  0.09

> <Gold.Chemscore.Hbond.Weighted>
-4.6135

> <Gold.Chemscore.Metal.Weighted>
-0.0000

> <Gold.Chemscore.Lipo.Weighted>
-12.7650

> <Gold.Chemscore.Internal_Hbond.Weighted>
0.0000

> <Gold.Chemscore.DEClash.Weighted>
2.6097

> <Gold.Chemscore.DEInternal.Weighted>
2.2078

> <Gold.Chemscore.Rot.Weighted>
4.9383

> <Gold.Chemscore.Internal.Correction.Weighted>
   9.000000E+99

> <Gold.Protein.RotatedTorsions>
[ 6907 6896 6895 6894 ] final  176.44 input  -60.11 | X-H torsion
[ 7974 7965 7964 7962 ] final  -68.36 input  175.53 | X-H torsion
[ 8008 7997 7996 7995 ] final -142.55 input   59.86 | X-H torsion
[ 10167 10162 10161 10158 ] final -119.38 input  -65.29 | X-H torsion
[ 10718 10713 10712 10709 ] final   -3.39 input   66.30 | X-H torsion
[ 10763 10752 10751 10750 ] final  166.31 input  -60.55 | X-H torsion
[ 11005 11000 10999 10996 ] final  -70.35 input  -57.11 | X-H torsion

> <Gold.Protein.ActiveResidues>
 VAL166  LYS551  ARG553  GLY616  TRP617  ASP618  TYR619  PRO620  LYS621  CYS622 
 ASP623  PHE694  ASN695  SER759  ASP760  ASP761  ALA762  ILE779  LEU786  VAL792 
 PHE793  MET794  SER795  GLU796  ALA797  LYS798  CYS799  TRP800  GLU811  SER814 

> <Gold.Protein.RotatedAtoms>
  151.7201  133.3314  159.3312 H   0  0  0  0  0  0  0  0  0  0  0  0  # atno 6907 bound_to 6896
  150.7657  134.6456  159.6270 H   0  0  0  0  0  0  0  0  0  0  0  0  # atno 6908 bound_to 6896
  152.3658  134.6809  160.0244 H   0  0  0  0  0  0  0  0  0  0  0  0  # atno 6909 bound_to 6896
  145.7175  140.9052  143.0648 H   0  0  0  0  0  0  0  0  0  0  0  0  # atno 7974 bound_to 7965
  155.4960  140.0571  157.2946 H   0  0  0  0  0  0  0  0  0  0  0  0  # atno 8008 bound_to 7997
  154.4605  140.1994  156.0209 H   0  0  0  0  0  0  0  0  0  0  0  0  # atno 8009 bound_to 7997
  156.0881  140.3237  155.7784 H   0  0  0  0  0  0  0  0  0  0  0  0  # atno 8010 bound_to 7997
  140.0473  143.5095  152.2100 H   0  0  0  0  0  0  0  0  0  0  0  0  # atno 10167 bound_to 10162
  156.7767  130.5317  149.5758 H   0  0  0  0  0  0  0  0  0  0  0  0  # atno 10718 bound_to 10713
  154.3371  135.2754  155.2442 H   0  0  0  0  0  0  0  0  0  0  0  0  # atno 10763 bound_to 10752
  154.4729  135.5878  153.6337 H   0  0  0  0  0  0  0  0  0  0  0  0  # atno 10764 bound_to 10752
  152.9861  135.6092  154.3568 H   0  0  0  0  0  0  0  0  0  0  0  0  # atno 10765 bound_to 10752
  141.1572  133.6788  156.6740 H   0  0  0  0  0  0  0  0  0  0  0  0  # atno 11005 bound_to 11000
  144.6925  139.9158  143.7465 LP  0  0  0  0  0  0  0  0  0  0  0  0  # atno 17320 bound_to 7965
  146.0656  139.3647  143.0554 LP  0  0  0  0  0  0  0  0  0  0  0  0  # atno 17321 bound_to 7965
  139.5975  144.7572  151.3250 LP  0  0  0  0  0  0  0  0  0  0  0  0  # atno 17342 bound_to 10162
  140.7233  143.7075  150.7796 LP  0  0  0  0  0  0  0  0  0  0  0  0  # atno 17343 bound_to 10162
  156.1243  130.6133  151.0241 LP  0  0  0  0  0  0  0  0  0  0  0  0  # atno 17370 bound_to 10713
  157.6665  131.0870  150.7715 LP  0  0  0  0  0  0  0  0  0  0  0  0  # atno 17371 bound_to 10713
  140.3153  134.8052  157.4209 LP  0  0  0  0  0  0  0  0  0  0  0  0  # atno 17394 bound_to 11000
  140.1143  134.5304  155.8238 LP  0  0  0  0  0  0  0  0  0  0  0  0  # atno 17395 bound_to 11000

$$$$
