AV-unprocessed.smi:104|AV-procd|sdf|998|dock4
  -GOLD-   2262017583D 1   1.00000     0.00000
 Structure written by MMmdl.
 47 49  0  0  0  0  0  0  0  0  1 V2000
  147.5645  134.9968  161.4328 C   0  0  0  0  0  0  0  0  0  0  0  0
  147.8508  136.2150  160.5649 C   0  0  0  0  0  0  0  0  0  0  0  0
  147.6443  137.3560  160.9767 O   0  0  0  0  0  0  0  0  0  0  0  0
  148.3329  135.8797  159.3550 O   0  0  0  0  0  0  0  0  0  0  0  0
  148.5922  136.8735  158.3719 C   0  0  0  0  0  0  0  0  0  0  0  0
  149.7299  137.8053  158.8266 C   0  0  1  0  0  0  0  0  0  0  0  0
  150.8353  137.0688  159.3202 O   0  0  0  0  0  0  0  0  0  0  0  0
  151.9059  137.9502  159.4202 C   0  0  1  0  0  0  0  0  0  0  0  0
  153.1716  137.1781  159.2508 N   0  0  0  0  0  0  0  0  0  0  0  0
  153.7921  136.7596  158.0957 C   0  0  0  0  0  0  0  0  0  0  0  0
  153.0782  137.1143  156.3660 Br  0  0  0  0  0  0  0  0  0  0  0  0
  154.9012  136.0866  158.2276 N   0  0  0  0  0  0  0  0  0  0  0  0
  155.0636  136.0308  159.6066 C   0  0  0  0  0  0  0  0  0  0  0  0
  156.0377  135.4579  160.4624 C   0  0  0  0  0  0  0  0  0  0  0  0
  157.1059  134.7881  160.0089 N   0  0  0  0  0  0  0  0  0  0  0  0
  155.8825  135.5913  161.8007 N   0  0  0  0  0  0  0  0  0  0  0  0
  154.8250  136.2549  162.2795 C   0  0  0  0  0  0  0  0  0  0  0  0
  153.8346  136.8454  161.6058 N   0  0  0  0  0  0  0  0  0  0  0  0
  153.9918  136.7096  160.2563 C   0  0  0  0  0  0  0  0  0  0  0  0
  151.7541  138.9892  158.2973 C   0  0  2  0  0  0  0  0  0  0  0  0
  151.8422  140.3114  158.8103 O   0  0  0  0  0  0  0  0  0  0  0  0
  153.0426  140.8400  159.1060 C   0  0  0  0  0  0  0  0  0  0  0  0
  152.9318  142.2432  159.6866 C   0  0  0  0  0  0  0  0  0  0  0  0
  154.1341  140.2914  158.9533 O   0  0  0  0  0  0  0  0  0  0  0  0
  150.3465  138.7256  157.7651 C   0  0  1  0  0  0  0  0  0  0  0  0
  150.4233  138.0801  156.4993 O   0  0  0  0  0  0  0  0  0  0  0  0
  150.7710  138.7718  155.4007 C   0  0  0  0  0  0  0  0  0  0  0  0
  150.8523  137.8877  154.1639 C   0  0  0  0  0  0  0  0  0  0  0  0
  151.0105  139.9781  155.3494 O   0  0  0  0  0  0  0  0  0  0  0  0
  148.4719  134.6782  161.9454 H   0  0  0  0  0  0  0  0  0  0  0  0
  147.2002  134.1689  160.8242 H   0  0  0  0  0  0  0  0  0  0  0  0
  146.8076  135.2318  162.1816 H   0  0  0  0  0  0  0  0  0  0  0  0
  148.9148  136.3441  157.4754 H   0  0  0  0  0  0  0  0  0  0  0  0
  147.6973  137.4280  158.0862 H   0  0  0  0  0  0  0  0  0  0  0  0
  149.3732  138.4161  159.6585 H   0  0  0  0  0  0  0  0  0  0  0  0
  151.9419  138.3844  160.4193 H   0  0  0  0  0  0  0  0  0  0  0  0
  157.2430  134.6742  159.0148 H   0  0  0  0  0  0  0  0  0  0  0  0
  157.7703  134.3972  160.6611 H   0  0  0  0  0  0  0  0  0  0  0  0
  154.7629  136.3225  163.3556 H   0  0  0  0  0  0  0  0  0  0  0  0
  152.4980  138.8214  157.5162 H   0  0  0  0  0  0  0  0  0  0  0  0
  152.4381  142.2116  160.6579 H   0  0  0  0  0  0  0  0  0  0  0  0
  152.3525  142.8846  159.0224 H   0  0  0  0  0  0  0  0  0  0  0  0
  153.9208  142.6832  159.8158 H   0  0  0  0  0  0  0  0  0  0  0  0
  149.7591  139.6411  157.6751 H   0  0  0  0  0  0  0  0  0  0  0  0
  149.8691  137.4822  153.9252 H   0  0  0  0  0  0  0  0  0  0  0  0
  151.5378  137.0579  154.3369 H   0  0  0  0  0  0  0  0  0  0  0  0
  151.2092  138.4587  153.3064 H   0  0  0  0  0  0  0  0  0  0  0  0
  1  2  1  0  0  0  0
  1 30  1  0  0  0  0
  1 31  1  0  0  0  0
  1 32  1  0  0  0  0
  2  3  2  0  0  0  0
  2  4  1  0  0  0  0
  4  5  1  0  0  0  0
  5  6  1  0  0  0  0
  5 33  1  0  0  0  0
  5 34  1  0  0  0  0
  6 25  1  0  0  0  0
  6  7  1  0  0  0  0
  6 35  1  0  0  0  0
  7  8  1  0  0  0  0
  8  9  1  0  0  0  0
  8 20  1  0  0  0  0
  8 36  1  0  0  0  0
  9 19  1  0  0  0  0
  9 10  1  0  0  0  0
 10 11  1  0  0  0  0
 10 12  2  0  0  0  0
 12 13  1  0  0  0  0
 13 19  2  0  0  0  0
 13 14  1  0  0  0  0
 14 15  1  0  0  0  0
 14 16  2  0  0  0  0
 15 37  1  0  0  0  0
 15 38  1  0  0  0  0
 16 17  1  0  0  0  0
 17 18  2  0  0  0  0
 17 39  1  0  0  0  0
 18 19  1  0  0  0  0
 20 21  1  0  0  0  0
 20 25  1  0  0  0  0
 20 40  1  0  0  0  0
 21 22  1  0  0  0  0
 22 23  1  0  0  0  0
 22 24  2  0  0  0  0
 23 41  1  0  0  0  0
 23 42  1  0  0  0  0
 23 43  1  0  0  0  0
 25 26  1  0  0  0  0
 25 44  1  0  0  0  0
 26 27  1  0  0  0  0
 27 28  1  0  0  0  0
 27 29  2  0  0  0  0
 28 45  1  0  0  0  0
 28 46  1  0  0  0  0
 28 47  1  0  0  0  0
M  END
> <s_m_source_file>
AV-unprocessed.smi

> <i_m_source_file_index>
104

> <i_lp_mmshare_version>
43012

> <i_f3d_flags>
0

> <s_epik_input>
W0NIM11DKD1PKU9bQ0gyXVtDQEBIXTFPW0NASF0oW0NAQEhdKE9DKD1PKVtDSDNdKVtDQEhdMU9DKD1PKVtDSDNdKW4oYyhCciluMiljKGMyMyluW2NIXW5jM1tOSDJd

> <s_epik_cmdline>
J2VwaWtfcHl0aG9uJywgJy1waCcsICc3LjAnLCAnLXRuJywgJzgnLCAnLW1hJywgJzIwMCcsICctbWV0YWxfYmluZGluZycsICctaW1hZScsICc8aW5maWxlLm1hZT4nLCAnLW9tYWUnLCAnPG91dGZpbGUubWFlPic=

> <r_lp_tautomer_probability>
1

> <r_epik_Ionization_Penalty>
7.36622e-05

> <r_epik_Ionization_Penalty_Charging>
0

> <r_epik_Ionization_Penalty_Neutral>
7.36622e-05

> <r_epik_State_Penalty>
-0

> <r_epik_Charging_Adjusted_Penalty>
0

> <i_epik_Tot_Q>
0

> <i_epik_Tot_abs_Q>
0

> <r_epik_Metal_State_Penalty>
-0

> <b_epik_Metal_Only>
0

> <s_epik_Chemistry_Notes>
This compound has an ester and may undergo hydrolysis at high or low pH. This compound contains an acetal/aminal-like group ( X-CH(R)-Y where X, Y are N, S, or O) that may be acid/base labile, releasing an aldehyde.

> <s_lp_Force_Field>
OPLS_2005

> <r_lp_Energy>
14.1863

> <b_lp_Chiralities_Consistent>
1

> <s_lp_Variant>
AV-unprocessed.smi:104-6

> <Gold.Version>
5.8.1

> <Gold.Id.Protein>
6NUR|6NUR_protein|mol2

> <Gold.PLP.Fitness>
44.7875

> <Gold.PLP.PLP>
-34.0443

> <Gold.PLP.part.hbond>
-4.7910

> <Gold.PLP.part.metal>
0.0000

> <Gold.PLP.part.buried>
-4.0567

> <Gold.PLP.part.nonpolar>
-24.4206

> <Gold.PLP.part.repulsive>
0.0219

> <Gold.PLP.ligand.clash>
0.0073

> <Gold.PLP.ligand.torsion>
0.9491

> <Gold.PLP.Chemscore.Hbond>
4.1543

> <Gold.PLP.Chemscore.CHOScore>
0.0000

> <Gold.PLP.Chemscore.Metal>
0.0000

> <Gold.Chemscore.Hbonds>
donor molecule, donor type, donor heavy atom, donor atom, acceptor molecule, acceptor atom, score
      P1  H  6896  6909       L1     7  0.91
      P1  H  6931  6943       L1     3  0.80
      P1  H  6934  6947       L1     3  0.90
      P1  H  7989  7998       L1    29  0.71
      P1  H  7997  8008       L1    24  0.88

> <Gold.PLP.Chemscore.Internal.Correction>
0.1859

> <Gold.Rescore>
     Score         DG    S(hbond)    S(metal)    S(lipo)     H(rot)  DE(clash)    DE(int)     intcor
      7.90     -12.41       3.72        0.00      47.31       4.31       1.25       3.26       ----

> <Gold.Chemscore.Fitness>
7.9023

> <Gold.Chemscore.DG>
-12.4098

> <Gold.Chemscore.ZeroCoef>
-5.4800

> <Gold.Chemscore.Hbond>
3.7188

> <Gold.Chemscore.Metal>
0.0000

> <Gold.Chemscore.Lipo>
47.3057

> <Gold.Chemscore.Internal_Hbond>
0.0000

> <Gold.Chemscore.DEClash>
1.2453

> <Gold.Chemscore.DEInternal>
3.2621

> <Gold.Chemscore.Rot>
4.3070

> <Gold.Chemscore.Internal.Correction>
   9.000000E+99

> <Gold.Chemscore.Hbonds>
donor molecule, donor type, donor heavy atom, donor atom, acceptor molecule, acceptor atom, score
      P1  H  6896  6909       L1     7  0.82
      P1  H  6931  6943       L1     3  0.77
      P1  H  6934  6947       L1     3  0.88
      P1  H  7989  7998       L1    29  0.69
      P1  H  7997  8008       L1    24  0.86

> <Gold.Chemscore.Hbond.Weighted>
-12.4209

> <Gold.Chemscore.Metal.Weighted>
-0.0000

> <Gold.Chemscore.Lipo.Weighted>
-5.5348

> <Gold.Chemscore.Internal_Hbond.Weighted>
0.0000

> <Gold.Chemscore.DEClash.Weighted>
1.2453

> <Gold.Chemscore.DEInternal.Weighted>
3.2621

> <Gold.Chemscore.Rot.Weighted>
11.0259

> <Gold.Chemscore.Internal.Correction.Weighted>
   9.000000E+99

> <Gold.Protein.RotatedTorsions>
[ 6907 6896 6895 6894 ] final   97.95 input  -60.11 | X-H torsion
[ 7974 7965 7964 7962 ] final  -31.32 input  175.53 | X-H torsion
[ 8008 7997 7996 7995 ] final -108.16 input   59.86 | X-H torsion
[ 10167 10162 10161 10158 ] final   51.04 input  -65.29 | X-H torsion
[ 10718 10713 10712 10709 ] final  104.01 input   66.30 | X-H torsion
[ 10763 10752 10751 10750 ] final  107.77 input  -60.55 | X-H torsion
[ 11005 11000 10999 10996 ] final   13.86 input  -57.11 | X-H torsion

> <Gold.Protein.ActiveResidues>
 VAL166  LYS551  ARG553  GLY616  TRP617  ASP618  TYR619  PRO620  LYS621  CYS622 
 ASP623  PHE694  ASN695  SER759  ASP760  ASP761  ALA762  ILE779  LEU786  VAL792 
 PHE793  MET794  SER795  GLU796  ALA797  LYS798  CYS799  TRP800  GLU811  SER814 

> <Gold.Protein.RotatedAtoms>
  152.5416  134.0654  159.8170 H   0  0  0  0  0  0  0  0  0  0  0  0  # atno 6907 bound_to 6896
  151.0776  133.5408  159.2630 H   0  0  0  0  0  0  0  0  0  0  0  0  # atno 6908 bound_to 6896
  151.2247  135.0540  159.9018 H   0  0  0  0  0  0  0  0  0  0  0  0  # atno 6909 bound_to 6896
  146.1076  140.5652  142.8792 H   0  0  0  0  0  0  0  0  0  0  0  0  # atno 7974 bound_to 7965
  154.9401  140.0403  157.2092 H   0  0  0  0  0  0  0  0  0  0  0  0  # atno 8008 bound_to 7997
  154.8077  140.2862  155.5854 H   0  0  0  0  0  0  0  0  0  0  0  0  # atno 8009 bound_to 7997
  156.2968  140.2543  156.2958 H   0  0  0  0  0  0  0  0  0  0  0  0  # atno 8010 bound_to 7997
  140.2660  144.3319  150.6304 H   0  0  0  0  0  0  0  0  0  0  0  0  # atno 10167 bound_to 10162
  157.6754  131.0793  150.5641 H   0  0  0  0  0  0  0  0  0  0  0  0  # atno 10718 bound_to 10713
  153.4113  135.3834  155.2052 H   0  0  0  0  0  0  0  0  0  0  0  0  # atno 10763 bound_to 10752
  154.8738  135.3795  154.4498 H   0  0  0  0  0  0  0  0  0  0  0  0  # atno 10764 bound_to 10752
  153.5006  135.7088  153.5896 H   0  0  0  0  0  0  0  0  0  0  0  0  # atno 10765 bound_to 10752
  140.4760  134.0983  155.7741 H   0  0  0  0  0  0  0  0  0  0  0  0  # atno 11005 bound_to 11000
  144.7484  140.5128  143.6819 LP  0  0  0  0  0  0  0  0  0  0  0  0  # atno 17320 bound_to 7965
  145.5728  139.1484  143.3279 LP  0  0  0  0  0  0  0  0  0  0  0  0  # atno 17321 bound_to 7965
  140.5927  143.2167  151.7222 LP  0  0  0  0  0  0  0  0  0  0  0  0  # atno 17342 bound_to 10162
  139.5002  144.3914  152.0276 LP  0  0  0  0  0  0  0  0  0  0  0  0  # atno 17343 bound_to 10162
  156.5943  130.4337  149.5923 LP  0  0  0  0  0  0  0  0  0  0  0  0  # atno 17370 bound_to 10713
  156.2558  130.6933  151.1686 LP  0  0  0  0  0  0  0  0  0  0  0  0  # atno 17371 bound_to 10713
  141.1554  133.8892  157.1991 LP  0  0  0  0  0  0  0  0  0  0  0  0  # atno 17394 bound_to 11000
  139.9855  135.0083  156.9853 LP  0  0  0  0  0  0  0  0  0  0  0  0  # atno 17395 bound_to 11000

$$$$
