AV-unprocessed.smi:2871|AV-procd|sdf|11033|dock1
  -GOLD-   2272015493D 1   1.00000     0.00000
 Structure written by MMmdl.
 38 40  0  0  0  0  0  0  0  0  1 V2000
  153.4970  139.4748  159.7017 C   0  0  0  0  0  0  0  0  0  0  0  0
  152.5807  139.6775  158.5868 N   0  0  0  0  0  0  0  0  0  0  0  0
  152.3345  138.6001  157.6340 C   0  0  0  0  0  0  0  0  0  0  0  0
  151.8950  140.9045  158.4479 C   0  0  0  0  0  0  0  0  0  0  0  0
  152.0765  141.9746  159.3578 C   0  0  0  0  0  0  0  0  0  0  0  0
  151.3344  143.1533  159.1184 C   0  0  0  0  0  0  0  0  0  0  0  0
  151.4395  144.3724  160.0223 C   0  0  0  0  0  0  0  0  0  0  0  0
  152.1183  144.1008  161.1377 F   0  0  0  0  0  0  0  0  0  0  0  0
  152.0646  145.3575  159.3772 F   0  0  0  0  0  0  0  0  0  0  0  0
  150.2187  144.7869  160.3614 F   0  0  0  0  0  0  0  0  0  0  0  0
  150.4880  143.2546  158.0692 N   0  0  0  0  0  0  0  0  0  0  0  0
  150.3849  142.1942  157.2691 C   0  0  0  0  0  0  0  0  0  0  0  0
  149.5070  142.3300  156.2095 N   0  0  0  0  0  0  0  0  0  0  0  0
  148.7719  141.2291  155.5991 C   0  0  1  0  0  0  0  0  0  0  0  0
  147.4912  141.6820  154.8868 C   0  0  0  0  0  0  0  0  0  0  0  0
  147.7041  141.1289  153.4724 C   0  0  2  0  0  0  0  0  0  0  0  0
  147.6404  139.5959  153.4302 C   0  0  0  0  0  0  0  0  0  0  0  0
  148.9661  139.2098  154.0856 C   0  0  0  0  0  0  0  0  0  0  0  0
  149.5532  140.5817  154.4436 C   0  0  1  0  0  0  0  0  0  0  0  0
  149.0982  141.3381  153.3329 O   0  0  0  0  0  0  0  0  0  0  0  0
  151.0414  141.0378  157.4042 N   0  0  0  0  0  0  0  0  0  0  0  0
  154.3025  140.2094  159.6748 H   0  0  0  0  0  0  0  0  0  0  0  0
  153.9500  138.4841  159.6682 H   0  0  0  0  0  0  0  0  0  0  0  0
  152.9706  139.5687  160.6522 H   0  0  0  0  0  0  0  0  0  0  0  0
  152.6111  138.9107  156.6260 H   0  0  0  0  0  0  0  0  0  0  0  0
  151.2801  138.3221  157.6333 H   0  0  0  0  0  0  0  0  0  0  0  0
  152.9138  137.7103  157.8806 H   0  0  0  0  0  0  0  0  0  0  0  0
  152.7469  141.9076  160.2008 H   0  0  0  0  0  0  0  0  0  0  0  0
  149.3124  143.2672  155.8882 H   0  0  0  0  0  0  0  0  0  0  0  0
  148.5570  140.4840  156.3664 H   0  0  0  0  0  0  0  0  0  0  0  0
  146.5889  141.2905  155.3577 H   0  0  0  0  0  0  0  0  0  0  0  0
  147.4103  142.7697  154.8558 H   0  0  0  0  0  0  0  0  0  0  0  0
  147.0978  141.6194  152.7105 H   0  0  0  0  0  0  0  0  0  0  0  0
  146.7734  139.2037  153.9629 H   0  0  0  0  0  0  0  0  0  0  0  0
  147.6031  139.2352  152.4018 H   0  0  0  0  0  0  0  0  0  0  0  0
  148.8377  138.5690  154.9585 H   0  0  0  0  0  0  0  0  0  0  0  0
  149.6073  138.6902  153.3726 H   0  0  0  0  0  0  0  0  0  0  0  0
  150.6358  140.5714  154.5760 H   0  0  0  0  0  0  0  0  0  0  0  0
  1  2  1  0  0  0  0
  1 22  1  0  0  0  0
  1 23  1  0  0  0  0
  1 24  1  0  0  0  0
  2  3  1  0  0  0  0
  2  4  1  0  0  0  0
  3 25  1  0  0  0  0
  3 26  1  0  0  0  0
  3 27  1  0  0  0  0
  4 21  1  0  0  0  0
  4  5  2  0  0  0  0
  5  6  1  0  0  0  0
  5 28  1  0  0  0  0
  6  7  1  0  0  0  0
  6 11  2  0  0  0  0
  7  8  1  0  0  0  0
  7  9  1  0  0  0  0
  7 10  1  0  0  0  0
 11 12  1  0  0  0  0
 12 13  1  0  0  0  0
 12 21  2  0  0  0  0
 13 14  1  0  0  0  0
 13 29  1  0  0  0  0
 14 19  1  0  0  0  0
 14 15  1  0  0  0  0
 14 30  1  0  0  0  0
 15 16  1  0  0  0  0
 15 31  1  0  0  0  0
 15 32  1  0  0  0  0
 16 20  1  0  0  0  0
 16 17  1  0  0  0  0
 16 33  1  0  0  0  0
 17 18  1  0  0  0  0
 17 34  1  0  0  0  0
 17 35  1  0  0  0  0
 18 19  1  0  0  0  0
 18 36  1  0  0  0  0
 18 37  1  0  0  0  0
 19 20  1  0  0  0  0
 19 38  1  0  0  0  0
M  END
> <s_m_source_file>
AV-unprocessed.smi

> <i_m_source_file_index>
2871

> <i_lp_mmshare_version>
43012

> <i_f3d_flags>
0

> <s_epik_input>
W0NIM11OKFtDSDNdKWMxW2NIXWMoQyhGKShGKUYpbmMobjEpW05IXVtDQEhdKFtDSDJdW0NAQEhdMjMpW0NAQEhdKE8zKVtDSDJdW0NIMl0y

> <s_epik_cmdline>
J2VwaWtfcHl0aG9uJywgJy1waCcsICc3LjAnLCAnLXRuJywgJzgnLCAnLW1hJywgJzIwMCcsICctbWV0YWxfYmluZGluZycsICctaW1hZScsICc8aW5maWxlLm1hZT4nLCAnLW9tYWUnLCAnPG91dGZpbGUubWFlPic=

> <r_lp_tautomer_probability>
1

> <r_epik_Ionization_Penalty>
0.00695968

> <r_epik_Ionization_Penalty_Charging>
0

> <r_epik_Ionization_Penalty_Neutral>
0.00695968

> <r_epik_State_Penalty>
0.0050343

> <r_epik_Charging_Adjusted_Penalty>
0.0050343

> <i_epik_Tot_Q>
0

> <i_epik_Tot_abs_Q>
0

> <r_epik_Metal_State_Penalty>
-0

> <b_epik_Metal_Only>
0

> <s_lp_Force_Field>
OPLS_2005

> <r_lp_Energy>
32.5699

> <b_lp_Chiralities_Consistent>
1

> <s_lp_Variant>
AV-unprocessed.smi:2871-4

> <Gold.Version>
5.8.1

> <Gold.Id.Protein>
6NUR|6NUR_protein|mol2

> <Gold.PLP.Fitness>
45.2813

> <Gold.PLP.PLP>
-40.9157

> <Gold.PLP.part.hbond>
-3.0000

> <Gold.PLP.part.metal>
0.0000

> <Gold.PLP.part.buried>
-6.0020

> <Gold.PLP.part.nonpolar>
-35.8169

> <Gold.PLP.part.repulsive>
3.9630

> <Gold.PLP.ligand.clash>
0.0000

> <Gold.PLP.ligand.torsion>
0.8343

> <Gold.PLP.Chemscore.Hbond>
2.0000

> <Gold.PLP.Chemscore.CHOScore>
0.0000

> <Gold.PLP.Chemscore.Metal>
0.0000

> <Gold.Chemscore.Hbonds>
donor molecule, donor type, donor heavy atom, donor atom, acceptor molecule, acceptor atom, score
      L1  H    13    29       P1  8028  1.00
      P1  H  8011  8017       L1    20  0.99

> <Gold.PLP.Chemscore.Internal.Correction>
0.0342

> <Gold.Rescore>
     Score         DG    S(hbond)    S(metal)    S(lipo)     H(rot)  DE(clash)    DE(int)     intcor
     16.56     -18.76       1.96        0.00      79.48       1.00       1.58       0.62       ----

> <Gold.Chemscore.Fitness>
16.5596

> <Gold.Chemscore.DG>
-18.7616

> <Gold.Chemscore.ZeroCoef>
-5.4800

> <Gold.Chemscore.Hbond>
1.9590

> <Gold.Chemscore.Metal>
0.0000

> <Gold.Chemscore.Lipo>
79.4753

> <Gold.Chemscore.Internal_Hbond>
0.0000

> <Gold.Chemscore.DEClash>
1.5791

> <Gold.Chemscore.DEInternal>
0.6230

> <Gold.Chemscore.Rot>
1.0000

> <Gold.Chemscore.Internal.Correction>
   9.000000E+99

> <Gold.Chemscore.Hbonds>
donor molecule, donor type, donor heavy atom, donor atom, acceptor molecule, acceptor atom, score
      L1  H    13    29       P1  8028  0.93
      P1  H  8011  8017       L1    20  0.94

> <Gold.Chemscore.Hbond.Weighted>
-6.5430

> <Gold.Chemscore.Metal.Weighted>
-0.0000

> <Gold.Chemscore.Lipo.Weighted>
-9.2986

> <Gold.Chemscore.Internal_Hbond.Weighted>
0.0000

> <Gold.Chemscore.DEClash.Weighted>
1.5791

> <Gold.Chemscore.DEInternal.Weighted>
0.6230

> <Gold.Chemscore.Rot.Weighted>
2.5600

> <Gold.Chemscore.Internal.Correction.Weighted>
   9.000000E+99

> <Gold.Protein.RotatedTorsions>
[ 6907 6896 6895 6894 ] final   38.96 input  -60.11 | X-H torsion
[ 7974 7965 7964 7962 ] final    0.95 input  175.53 | X-H torsion
[ 8008 7997 7996 7995 ] final   91.40 input   59.86 | X-H torsion
[ 10167 10162 10161 10158 ] final  -47.65 input  -65.29 | X-H torsion
[ 10718 10713 10712 10709 ] final   28.12 input   66.30 | X-H torsion
[ 10763 10752 10751 10750 ] final  -87.57 input  -60.55 | X-H torsion
[ 11005 11000 10999 10996 ] final   82.69 input  -57.11 | X-H torsion

> <Gold.Protein.ActiveResidues>
 VAL166  LYS551  ARG553  GLY616  TRP617  ASP618  TYR619  PRO620  LYS621  CYS622 
 ASP623  PHE694  ASN695  SER759  ASP760  ASP761  ALA762  ILE779  LEU786  VAL792 
 PHE793  MET794  SER795  GLU796  ALA797  LYS798  CYS799  TRP800  GLU811  SER814 

> <Gold.Protein.RotatedAtoms>
  152.1633  134.8894  160.0539 H   0  0  0  0  0  0  0  0  0  0  0  0  # atno 6907 bound_to 6896
  151.9882  133.3776  159.4142 H   0  0  0  0  0  0  0  0  0  0  0  0  # atno 6908 bound_to 6896
  150.6891  134.3888  159.5111 H   0  0  0  0  0  0  0  0  0  0  0  0  # atno 6909 bound_to 6896
  146.2437  140.1061  142.8345 H   0  0  0  0  0  0  0  0  0  0  0  0  # atno 7974 bound_to 7965
  156.0233  140.3338  155.7061 H   0  0  0  0  0  0  0  0  0  0  0  0  # atno 8008 bound_to 7997
  155.5991  140.0654  157.2755 H   0  0  0  0  0  0  0  0  0  0  0  0  # atno 8009 bound_to 7997
  154.4324  140.1813  156.1142 H   0  0  0  0  0  0  0  0  0  0  0  0  # atno 8010 bound_to 7997
  140.6766  143.2775  151.3957 H   0  0  0  0  0  0  0  0  0  0  0  0  # atno 10167 bound_to 10162
  157.2293  130.7016  149.6306 H   0  0  0  0  0  0  0  0  0  0  0  0  # atno 10718 bound_to 10713
  154.6351  135.5408  153.7724 H   0  0  0  0  0  0  0  0  0  0  0  0  # atno 10763 bound_to 10752
  153.0304  135.6445  154.1244 H   0  0  0  0  0  0  0  0  0  0  0  0  # atno 10764 bound_to 10752
  154.1171  135.2923  155.3197 H   0  0  0  0  0  0  0  0  0  0  0  0  # atno 10765 bound_to 10752
  139.9055  134.8090  156.2208 H   0  0  0  0  0  0  0  0  0  0  0  0  # atno 11005 bound_to 11000
  145.0527  140.9029  143.4986 LP  0  0  0  0  0  0  0  0  0  0  0  0  # atno 17320 bound_to 7965
  145.1162  139.2724  143.5612 LP  0  0  0  0  0  0  0  0  0  0  0  0  # atno 17321 bound_to 7965
  139.6062  144.1193  152.2251 LP  0  0  0  0  0  0  0  0  0  0  0  0  # atno 17342 bound_to 10162
  140.0592  144.5870  150.7276 LP  0  0  0  0  0  0  0  0  0  0  0  0  # atno 17343 bound_to 10162
  155.9676  130.4494  150.5657 LP  0  0  0  0  0  0  0  0  0  0  0  0  # atno 17370 bound_to 10713
  157.3495  131.0731  151.1724 LP  0  0  0  0  0  0  0  0  0  0  0  0  # atno 17371 bound_to 10713
  141.0407  133.6939  156.1592 LP  0  0  0  0  0  0  0  0  0  0  0  0  # atno 17394 bound_to 11000
  140.6960  134.4615  157.5587 LP  0  0  0  0  0  0  0  0  0  0  0  0  # atno 17395 bound_to 11000

$$$$
