AV-unprocessed.smi:1095|AV-procd|sdf|4748|dock1
  -GOLD-   22720 3283D 1   1.00000     0.00000
 Structure written by MMmdl.
 50 51  0  0  0  0  0  0  0  0  1 V2000
  153.2169  142.7325  162.7940 C   0  0  0  0  0  0  0  0  0  0  0  0
  152.4758  143.7424  161.9071 C   0  0  0  0  0  0  0  0  0  0  0  0
  152.6170  143.4752  160.3946 C   0  0  2  0  0  0  0  0  0  0  0  0
  151.6109  144.2901  159.5535 C   0  0  0  0  0  0  0  0  0  0  0  0
  151.7411  143.9864  158.0502 C   0  0  0  0  0  0  0  0  0  0  0  0
  151.5997  142.4846  157.7329 C   0  0  2  0  0  0  0  0  0  0  0  0
  150.1370  141.9978  157.8602 C   0  0  0  0  0  0  0  0  0  0  0  0
  149.4004  142.1351  156.6082 N   0  0  0  0  0  0  0  0  0  0  0  0
  149.7427  141.5610  155.4447 C   0  0  0  0  0  0  0  0  0  0  0  0
  150.7538  140.8733  155.2999 O   0  0  0  0  0  0  0  0  0  0  0  0
  148.7941  141.7884  154.2663 C   0  0  0  0  0  0  0  0  0  0  0  0
  147.3861  141.4157  154.6598 C   0  0  0  0  0  0  0  0  0  0  0  0
  146.1971  142.1832  154.4768 C   0  0  0  0  0  0  0  0  0  0  0  0
  146.0448  143.5455  153.8635 C   0  0  0  0  0  0  0  0  0  0  0  0
  145.1218  141.5653  154.9354 N   0  0  0  0  0  0  0  0  0  0  0  0
  145.5784  140.3950  155.4240 N   0  0  0  0  0  0  0  0  0  0  0  0
  144.6413  139.4585  156.0135 C   0  0  0  0  0  0  0  0  0  0  0  0
  146.9470  140.2754  155.2785 C   0  0  0  0  0  0  0  0  0  0  0  0
  147.6980  139.0722  155.7513 C   0  0  0  0  0  0  0  0  0  0  0  0
  152.6006  141.6747  158.5860 C   0  0  0  0  0  0  0  0  0  0  0  0
  152.4663  141.9714  160.0893 C   0  0  0  0  0  0  0  0  0  0  0  0
  153.0184  142.9285  163.8478 H   0  0  0  0  0  0  0  0  0  0  0  0
  154.2961  142.7851  162.6519 H   0  0  0  0  0  0  0  0  0  0  0  0
  152.8974  141.7119  162.5818 H   0  0  0  0  0  0  0  0  0  0  0  0
  151.4192  143.7132  162.1759 H   0  0  0  0  0  0  0  0  0  0  0  0
  152.8168  144.7520  162.1395 H   0  0  0  0  0  0  0  0  0  0  0  0
  153.6242  143.7702  160.0959 H   0  0  0  0  0  0  0  0  0  0  0  0
  150.5937  144.0820  159.8865 H   0  0  0  0  0  0  0  0  0  0  0  0
  151.7675  145.3576  159.7068 H   0  0  0  0  0  0  0  0  0  0  0  0
  151.0044  144.5615  157.4885 H   0  0  0  0  0  0  0  0  0  0  0  0
  152.7167  144.3317  157.7054 H   0  0  0  0  0  0  0  0  0  0  0  0
  151.8841  142.3538  156.6877 H   0  0  0  0  0  0  0  0  0  0  0  0
  150.1014  140.9494  158.1541 H   0  0  0  0  0  0  0  0  0  0  0  0
  149.6246  142.5473  158.6517 H   0  0  0  0  0  0  0  0  0  0  0  0
  148.5546  142.6858  156.6350 H   0  0  0  0  0  0  0  0  0  0  0  0
  148.8472  142.8277  153.9392 H   0  0  0  0  0  0  0  0  0  0  0  0
  149.1467  141.1942  153.4232 H   0  0  0  0  0  0  0  0  0  0  0  0
  145.8876  144.3015  154.6329 H   0  0  0  0  0  0  0  0  0  0  0  0
  145.1937  143.5806  153.1830 H   0  0  0  0  0  0  0  0  0  0  0  0
  146.9308  143.8300  153.2966 H   0  0  0  0  0  0  0  0  0  0  0  0
  144.8110  138.4617  155.6061 H   0  0  0  0  0  0  0  0  0  0  0  0
  143.6139  139.7545  155.7975 H   0  0  0  0  0  0  0  0  0  0  0  0
  144.7825  139.4316  157.0940 H   0  0  0  0  0  0  0  0  0  0  0  0
  148.7627  139.2843  155.8482 H   0  0  0  0  0  0  0  0  0  0  0  0
  147.5810  138.2453  155.0509 H   0  0  0  0  0  0  0  0  0  0  0  0
  147.3397  138.7436  156.7271 H   0  0  0  0  0  0  0  0  0  0  0  0
  152.4870  140.6059  158.4081 H   0  0  0  0  0  0  0  0  0  0  0  0
  153.6149  141.9203  158.2693 H   0  0  0  0  0  0  0  0  0  0  0  0
  153.2232  141.4058  160.6337 H   0  0  0  0  0  0  0  0  0  0  0  0
  151.5025  141.6129  160.4524 H   0  0  0  0  0  0  0  0  0  0  0  0
  1  2  1  0  0  0  0
  1 22  1  0  0  0  0
  1 23  1  0  0  0  0
  1 24  1  0  0  0  0
  2  3  1  0  0  0  0
  2 25  1  0  0  0  0
  2 26  1  0  0  0  0
  3 21  1  0  0  0  0
  3  4  1  0  0  0  0
  3 27  1  0  0  0  0
  4  5  1  0  0  0  0
  4 28  1  0  0  0  0
  4 29  1  0  0  0  0
  5  6  1  0  0  0  0
  5 30  1  0  0  0  0
  5 31  1  0  0  0  0
  6  7  1  0  0  0  0
  6 20  1  0  0  0  0
  6 32  1  0  0  0  0
  7  8  1  0  0  0  0
  7 33  1  0  0  0  0
  7 34  1  0  0  0  0
  8  9  1  0  0  0  0
  8 35  1  0  0  0  0
  9 10  2  0  0  0  0
  9 11  1  0  0  0  0
 11 12  1  0  0  0  0
 11 36  1  0  0  0  0
 11 37  1  0  0  0  0
 12 18  2  0  0  0  0
 12 13  1  0  0  0  0
 13 14  1  0  0  0  0
 13 15  2  0  0  0  0
 14 38  1  0  0  0  0
 14 39  1  0  0  0  0
 14 40  1  0  0  0  0
 15 16  1  0  0  0  0
 16 17  1  0  0  0  0
 16 18  1  0  0  0  0
 17 41  1  0  0  0  0
 17 42  1  0  0  0  0
 17 43  1  0  0  0  0
 18 19  1  0  0  0  0
 19 44  1  0  0  0  0
 19 45  1  0  0  0  0
 19 46  1  0  0  0  0
 20 21  1  0  0  0  0
 20 47  1  0  0  0  0
 20 48  1  0  0  0  0
 21 49  1  0  0  0  0
 21 50  1  0  0  0  0
M  END
> <s_m_source_file>
AV-unprocessed.smi

> <i_m_source_file_index>
1095

> <i_lp_mmshare_version>
43012

> <i_f3d_flags>
0

> <s_epik_input>
W0NIM11bQ0gyXVtDQEBIXTFbQ0gyXVtDSDJdW0NASF0oW0NIMl1bQ0gyXTEpW0NIMl1bTkhdQyg9TylbQ0gyXWMyYyhbQ0gzXSlubihbQ0gzXSljMltDSDNd

> <s_epik_cmdline>
J2VwaWtfcHl0aG9uJywgJy1waCcsICc3LjAnLCAnLXRuJywgJzgnLCAnLW1hJywgJzIwMCcsICctbWV0YWxfYmluZGluZycsICctaW1hZScsICc8aW5maWxlLm1hZT4nLCAnLW9tYWUnLCAnPG91dGZpbGUubWFlPic=

> <r_lp_tautomer_probability>
1

> <r_epik_Ionization_Penalty>
0.00317479

> <r_epik_Ionization_Penalty_Charging>
0

> <r_epik_Ionization_Penalty_Neutral>
0.00317479

> <r_epik_State_Penalty>
0.00223767

> <r_epik_Charging_Adjusted_Penalty>
0.00223767

> <i_epik_Tot_Q>
0

> <i_epik_Tot_abs_Q>
0

> <r_epik_Metal_State_Penalty>
-0

> <b_epik_Metal_Only>
0

> <s_lp_Force_Field>
OPLS_2005

> <r_lp_Energy>
8.21356

> <b_lp_Chiralities_Consistent>
1

> <s_lp_Variant>
AV-unprocessed.smi:1095-2

> <Gold.Version>
5.8.1

> <Gold.Id.Protein>
6NUR|6NUR_protein|mol2

> <Gold.PLP.Fitness>
47.3839

> <Gold.PLP.PLP>
-45.8831

> <Gold.PLP.part.hbond>
-2.0000

> <Gold.PLP.part.metal>
0.0000

> <Gold.PLP.part.buried>
-4.1862

> <Gold.PLP.part.nonpolar>
-38.6026

> <Gold.PLP.part.repulsive>
0.9534

> <Gold.PLP.ligand.clash>
0.0000

> <Gold.PLP.ligand.torsion>
0.6880

> <Gold.PLP.Chemscore.Hbond>
0.9425

> <Gold.PLP.Chemscore.CHOScore>
0.0000

> <Gold.PLP.Chemscore.Metal>
0.0000

> <Gold.Chemscore.Hbonds>
donor molecule, donor type, donor heavy atom, donor atom, acceptor molecule, acceptor atom, score
      L1  H     8    35       P1  8028  0.09
      P1  H  7989  7998       L1    10  0.78

> <Gold.PLP.Chemscore.Internal.Correction>
0.0493

> <Gold.Rescore>
     Score         DG    S(hbond)    S(metal)    S(lipo)     H(rot)  DE(clash)    DE(int)     intcor
     16.79     -18.79       0.67        0.00     125.88       1.43       0.65       1.35       ----

> <Gold.Chemscore.Fitness>
16.7864

> <Gold.Chemscore.DG>
-18.7860

> <Gold.Chemscore.ZeroCoef>
-5.4800

> <Gold.Chemscore.Hbond>
0.6729

> <Gold.Chemscore.Metal>
0.0000

> <Gold.Chemscore.Lipo>
125.8835

> <Gold.Chemscore.Internal_Hbond>
0.0000

> <Gold.Chemscore.DEClash>
0.6533

> <Gold.Chemscore.DEInternal>
1.3464

> <Gold.Chemscore.Rot>
1.4336

> <Gold.Chemscore.Internal.Correction>
   9.000000E+99

> <Gold.Chemscore.Hbonds>
donor molecule, donor type, donor heavy atom, donor atom, acceptor molecule, acceptor atom, score
      L1  H     8    35       P1  8028  0.08
      P1  H  7989  7998       L1    10  0.71

> <Gold.Chemscore.Hbond.Weighted>
-2.2476

> <Gold.Chemscore.Metal.Weighted>
-0.0000

> <Gold.Chemscore.Lipo.Weighted>
-14.7284

> <Gold.Chemscore.Internal_Hbond.Weighted>
0.0000

> <Gold.Chemscore.DEClash.Weighted>
0.6533

> <Gold.Chemscore.DEInternal.Weighted>
1.3464

> <Gold.Chemscore.Rot.Weighted>
3.6700

> <Gold.Chemscore.Internal.Correction.Weighted>
   9.000000E+99

> <Gold.Protein.RotatedTorsions>
[ 6907 6896 6895 6894 ] final -174.76 input  -60.11 | X-H torsion
[ 7974 7965 7964 7962 ] final  -21.74 input  175.53 | X-H torsion
[ 8008 7997 7996 7995 ] final  154.02 input   59.86 | X-H torsion
[ 10167 10162 10161 10158 ] final    0.57 input  -65.29 | X-H torsion
[ 10718 10713 10712 10709 ] final  168.25 input   66.30 | X-H torsion
[ 10763 10752 10751 10750 ] final  -69.80 input  -60.55 | X-H torsion
[ 11005 11000 10999 10996 ] final -111.29 input  -57.11 | X-H torsion

> <Gold.Protein.ActiveResidues>
 VAL166  LYS551  ARG553  GLY616  TRP617  ASP618  TYR619  PRO620  LYS621  CYS622 
 ASP623  PHE694  ASN695  SER759  ASP760  ASP761  ALA762  ILE779  LEU786  VAL792 
 PHE793  MET794  SER795  GLU796  ALA797  LYS798  CYS799  TRP800  GLU811  SER814 

> <Gold.Protein.RotatedAtoms>
  151.5776  133.3382  159.3001 H   0  0  0  0  0  0  0  0  0  0  0  0  # atno 6907 bound_to 6896
  150.8332  134.7597  159.6882 H   0  0  0  0  0  0  0  0  0  0  0  0  # atno 6908 bound_to 6896
  152.4412  134.5593  159.9941 H   0  0  0  0  0  0  0  0  0  0  0  0  # atno 6909 bound_to 6896
  146.1716  140.4382  142.8530 H   0  0  0  0  0  0  0  0  0  0  0  0  # atno 7974 bound_to 7965
  156.2553  140.1978  156.6580 H   0  0  0  0  0  0  0  0  0  0  0  0  # atno 8008 bound_to 7997
  154.6486  140.0575  156.9954 H   0  0  0  0  0  0  0  0  0  0  0  0  # atno 8009 bound_to 7997
  155.1453  140.3246  155.4446 H   0  0  0  0  0  0  0  0  0  0  0  0  # atno 8010 bound_to 7997
  140.6723  143.7015  150.7948 H   0  0  0  0  0  0  0  0  0  0  0  0  # atno 10167 bound_to 10162
  157.0399  131.0283  151.2717 H   0  0  0  0  0  0  0  0  0  0  0  0  # atno 10718 bound_to 10713
  154.4086  135.6014  153.5939 H   0  0  0  0  0  0  0  0  0  0  0  0  # atno 10763 bound_to 10752
  152.9789  135.5924  154.4097 H   0  0  0  0  0  0  0  0  0  0  0  0  # atno 10764 bound_to 10752
  154.3906  135.2842  155.2135 H   0  0  0  0  0  0  0  0  0  0  0  0  # atno 10765 bound_to 10752
  141.0743  133.9327  157.2422 H   0  0  0  0  0  0  0  0  0  0  0  0  # atno 11005 bound_to 11000
  144.8171  140.6487  143.6377 LP  0  0  0  0  0  0  0  0  0  0  0  0  # atno 17320 bound_to 7965
  145.4325  139.1547  143.4014 LP  0  0  0  0  0  0  0  0  0  0  0  0  # atno 17321 bound_to 7965
  140.0702  143.5068  152.2583 LP  0  0  0  0  0  0  0  0  0  0  0  0  # atno 17342 bound_to 10162
  139.5997  144.7578  151.3201 LP  0  0  0  0  0  0  0  0  0  0  0  0  # atno 17343 bound_to 10162
  157.5113  130.7940  149.7708 LP  0  0  0  0  0  0  0  0  0  0  0  0  # atno 17370 bound_to 10713
  156.0041  130.3864  150.2494 LP  0  0  0  0  0  0  0  0  0  0  0  0  # atno 17371 bound_to 10713
  139.9555  135.0166  156.9117 LP  0  0  0  0  0  0  0  0  0  0  0  0  # atno 17394 bound_to 11000
  140.5607  134.0538  155.7398 LP  0  0  0  0  0  0  0  0  0  0  0  0  # atno 17395 bound_to 11000

$$$$
