AV-unprocessed.smi:1496|AV-procd|sdf|6057|dock3
  -GOLD-   22720 6173D 1   1.00000     0.00000
 Structure written by MMmdl.
 43 44  0  0  0  0  0  0  0  0  2 V2000
  146.0237  136.2133  154.5488 C   0  0  0  0  0  0  0  0  0  0  0  0
  145.7045  137.4309  153.6666 C   0  0  0  0  0  0  0  0  0  0  0  0
  144.1794  137.6713  153.6706 C   0  0  0  0  0  0  0  0  0  0  0  0
  146.4864  138.6655  154.1745 C   0  0  0  0  0  0  0  0  0  0  0  0
  146.4315  139.7853  153.2044 N   0  3  1  0  0  0  0  0  0  0  0  0
  147.1148  141.0028  153.7074 C   0  0  0  0  0  0  0  0  0  0  0  0
  148.5804  140.7339  154.0996 C   0  0  0  0  0  0  0  0  0  0  0  0
  149.1098  141.7955  154.9481 N   0  0  0  0  0  0  0  0  0  0  0  0
  150.0211  141.6186  155.9154 C   0  0  0  0  0  0  0  0  0  0  0  0
  150.5105  140.5228  156.1890 O   0  0  0  0  0  0  0  0  0  0  0  0
  150.3268  142.7812  156.5164 N   0  0  0  0  0  0  0  0  0  0  0  0
  151.2318  143.0119  157.5877 C   0  0  0  0  0  0  0  0  0  0  0  0
  151.8049  141.9892  158.3822 C   0  0  0  0  0  0  0  0  0  0  0  0
  152.6742  142.3490  159.4301 C   0  0  0  0  0  0  0  0  0  0  0  0
  152.9340  143.7156  159.6498 C   0  0  0  0  0  0  0  0  0  0  0  0
  152.3847  144.7013  158.9093 N   0  0  0  0  0  0  0  0  0  0  0  0
  151.5513  144.3488  157.9073 C   0  0  0  0  0  0  0  0  0  0  0  0
  146.9234  139.3375  151.8798 C   0  0  0  0  0  0  0  0  0  0  0  0
  146.1146  138.1267  151.3936 C   0  0  0  0  0  0  0  0  0  0  0  0
  146.1683  137.0814  152.3597 O   0  0  0  0  0  0  0  0  0  0  0  0
  145.7178  136.3801  155.5820 H   0  0  0  0  0  0  0  0  0  0  0  0
  147.0923  135.9951  154.5515 H   0  0  0  0  0  0  0  0  0  0  0  0
  145.5090  135.3208  154.1911 H   0  0  0  0  0  0  0  0  0  0  0  0
  143.8125  137.8273  154.6855 H   0  0  0  0  0  0  0  0  0  0  0  0
  143.6456  136.8149  153.2573 H   0  0  0  0  0  0  0  0  0  0  0  0
  143.8925  138.5494  153.0927 H   0  0  0  0  0  0  0  0  0  0  0  0
  146.0842  138.9861  155.1368 H   0  0  0  0  0  0  0  0  0  0  0  0
  147.5327  138.4048  154.3435 H   0  0  0  0  0  0  0  0  0  0  0  0
  147.1103  141.7644  152.9261 H   0  0  0  0  0  0  0  0  0  0  0  0
  146.5510  141.4178  154.5443 H   0  0  0  0  0  0  0  0  0  0  0  0
  148.6889  139.7793  154.6149 H   0  0  0  0  0  0  0  0  0  0  0  0
  149.1993  140.6747  153.2039 H   0  0  0  0  0  0  0  0  0  0  0  0
  148.7629  142.7296  154.7838 H   0  0  0  0  0  0  0  0  0  0  0  0
  149.9021  143.6095  156.1251 H   0  0  0  0  0  0  0  0  0  0  0  0
  151.5861  140.9451  158.2212 H   0  0  0  0  0  0  0  0  0  0  0  0
  153.1285  141.5938  160.0544 H   0  0  0  0  0  0  0  0  0  0  0  0
  153.5959  144.0252  160.4449 H   0  0  0  0  0  0  0  0  0  0  0  0
  151.1286  145.1637  157.3378 H   0  0  0  0  0  0  0  0  0  0  0  0
  146.8425  140.1389  151.1466 H   0  0  0  0  0  0  0  0  0  0  0  0
  147.9804  139.0756  151.9498 H   0  0  0  0  0  0  0  0  0  0  0  0
  145.0830  138.4050  151.1785 H   0  0  0  0  0  0  0  0  0  0  0  0
  146.5325  137.7541  150.4582 H   0  0  0  0  0  0  0  0  0  0  0  0
  145.4552  140.0220  153.0983 H   0  0  0  0  0  0  0  0  0  0  0  0
  1  2  1  0  0  0  0
  1 21  1  0  0  0  0
  1 22  1  0  0  0  0
  1 23  1  0  0  0  0
  2 20  1  0  0  0  0
  2  3  1  0  0  0  0
  2  4  1  0  0  0  0
  3 24  1  0  0  0  0
  3 25  1  0  0  0  0
  3 26  1  0  0  0  0
  4  5  1  0  0  0  0
  4 27  1  0  0  0  0
  4 28  1  0  0  0  0
  5  6  1  0  0  0  0
  5 18  1  0  0  0  0
  5 43  1  0  0  0  0
  6  7  1  0  0  0  0
  6 29  1  0  0  0  0
  6 30  1  0  0  0  0
  7  8  1  0  0  0  0
  7 31  1  0  0  0  0
  7 32  1  0  0  0  0
  8  9  1  0  0  0  0
  8 33  1  0  0  0  0
  9 10  2  0  0  0  0
  9 11  1  0  0  0  0
 11 12  1  0  0  0  0
 11 34  1  0  0  0  0
 12 17  1  0  0  0  0
 12 13  2  0  0  0  0
 13 14  1  0  0  0  0
 13 35  1  0  0  0  0
 14 15  2  0  0  0  0
 14 36  1  0  0  0  0
 15 16  1  0  0  0  0
 15 37  1  0  0  0  0
 16 17  2  0  0  0  0
 17 38  1  0  0  0  0
 18 19  1  0  0  0  0
 18 39  1  0  0  0  0
 18 40  1  0  0  0  0
 19 20  1  0  0  0  0
 19 41  1  0  0  0  0
 19 42  1  0  0  0  0
M  CHG  1   5   1
M  END
> <s_m_source_file>
AV-unprocessed.smi

> <i_m_source_file_index>
1496

> <i_lp_mmshare_version>
43012

> <i_f3d_flags>
0

> <s_epik_input>
W0NIM11DMShbQ0gzXSlbQ0gyXU4oW0NIMl1bQ0gyXU8xKVtDSDJdW0NIMl1bTkhdQyg9TylbTkhdYzJbY0hdW2NIXVtjSF1uW2NIXTI=

> <s_epik_cmdline>
J2VwaWtfcHl0aG9uJywgJy1waCcsICc3LjAnLCAnLXRuJywgJzgnLCAnLW1hJywgJzIwMCcsICctbWV0YWxfYmluZGluZycsICctaW1hZScsICc8aW5maWxlLm1hZT4nLCAnLW9tYWUnLCAnPG91dGZpbGUubWFlPic=

> <r_epik_Ionization_Penalty>
0.606681

> <r_epik_Ionization_Penalty_Charging>
0.602531

> <r_epik_Ionization_Penalty_Neutral>
0.00415082

> <r_epik_State_Penalty>
0.607427

> <r_epik_Charging_Adjusted_Penalty>
1.20996

> <i_epik_Tot_Q>
1

> <i_epik_Tot_abs_Q>
1

> <r_epik_Metal_State_Penalty>
0.604583

> <b_epik_Metal_Only>
0

> <s_lp_Force_Field>
OPLS_2005

> <r_lp_Energy>
21.2927

> <b_lp_Chiralities_Consistent>
1

> <s_lp_Variant>
AV-unprocessed.smi:1496-3

> <Gold.Version>
5.8.1

> <Gold.Id.Protein>
6NUR|6NUR_protein|mol2

> <Gold.PLP.Fitness>
46.1070

> <Gold.PLP.PLP>
-34.9607

> <Gold.PLP.part.hbond>
-3.0000

> <Gold.PLP.part.metal>
0.0000

> <Gold.PLP.part.buried>
-0.7316

> <Gold.PLP.part.nonpolar>
-32.7711

> <Gold.PLP.part.repulsive>
1.9514

> <Gold.PLP.ligand.clash>
0.0000

> <Gold.PLP.ligand.torsion>
0.3110

> <Gold.PLP.Chemscore.Hbond>
3.5590

> <Gold.PLP.Chemscore.CHOScore>
0.3553

> <Gold.PLP.Chemscore.Metal>
0.0000

> <Gold.Chemscore.Hbonds>
donor molecule, donor type, donor heavy atom, donor atom, acceptor molecule, acceptor atom, score
      L1  H     5    43       P1 10175  2.00
      L1  H     8    33       P1  8028  0.56
      L1  H    11    34       P1  8028  1.00
      L1  C    17    38       P1  8028  0.30

> <Gold.PLP.Chemscore.Internal.Correction>
0.0255

> <Gold.Rescore>
     Score         DG    S(hbond)    S(metal)    S(lipo)     H(rot)  DE(clash)    DE(int)     intcor
     19.35     -22.40       2.87        0.00      95.49       1.50       1.55       1.50       ----

> <Gold.Chemscore.Fitness>
19.3530

> <Gold.Chemscore.DG>
-22.4028

> <Gold.Chemscore.ZeroCoef>
-5.4800

> <Gold.Chemscore.Hbond>
2.8722

> <Gold.Chemscore.Metal>
0.0000

> <Gold.Chemscore.Lipo>
95.4893

> <Gold.Chemscore.Internal_Hbond>
0.0000

> <Gold.Chemscore.DEClash>
1.5522

> <Gold.Chemscore.DEInternal>
1.4976

> <Gold.Chemscore.Rot>
1.5010

> <Gold.Chemscore.Internal.Correction>
   9.000000E+99

> <Gold.Chemscore.Hbonds>
donor molecule, donor type, donor heavy atom, donor atom, acceptor molecule, acceptor atom, score
      L1  H     5    43       P1 10175  0.99
      L1  H     8    33       P1  8028  0.54
      L1  H    11    34       P1  8028  0.97

> <Gold.Chemscore.Hbond.Weighted>
-9.5932

> <Gold.Chemscore.Metal.Weighted>
-0.0000

> <Gold.Chemscore.Lipo.Weighted>
-11.1722

> <Gold.Chemscore.Internal_Hbond.Weighted>
0.0000

> <Gold.Chemscore.DEClash.Weighted>
1.5522

> <Gold.Chemscore.DEInternal.Weighted>
1.4976

> <Gold.Chemscore.Rot.Weighted>
3.8426

> <Gold.Chemscore.Internal.Correction.Weighted>
   9.000000E+99

> <Gold.Protein.RotatedTorsions>
[ 6907 6896 6895 6894 ] final    0.48 input  -60.11 | X-H torsion
[ 7974 7965 7964 7962 ] final  143.48 input  175.53 | X-H torsion
[ 8008 7997 7996 7995 ] final -172.66 input   59.86 | X-H torsion
[ 10167 10162 10161 10158 ] final  -57.23 input  -65.29 | X-H torsion
[ 10718 10713 10712 10709 ] final   83.88 input   66.30 | X-H torsion
[ 10763 10752 10751 10750 ] final  177.92 input  -60.55 | X-H torsion
[ 11005 11000 10999 10996 ] final  -21.62 input  -57.11 | X-H torsion

> <Gold.Protein.ActiveResidues>
 VAL166  LYS551  ARG553  GLY616  TRP617  ASP618  TYR619  PRO620  LYS621  CYS622 
 ASP623  PHE694  ASN695  SER759  ASP760  ASP761  ALA762  ILE779  LEU786  VAL792 
 PHE793  MET794  SER795  GLU796  ALA797  LYS798  CYS799  TRP800  GLU811  SER814 

> <Gold.Protein.RotatedAtoms>
  151.5770  135.1060  160.0008 H   0  0  0  0  0  0  0  0  0  0  0  0  # atno 6907 bound_to 6896
  152.4373  133.7379  159.6635 H   0  0  0  0  0  0  0  0  0  0  0  0  # atno 6908 bound_to 6896
  150.8272  133.8082  159.3137 H   0  0  0  0  0  0  0  0  0  0  0  0  # atno 6909 bound_to 6896
  144.8917  139.5548  143.5795 H   0  0  0  0  0  0  0  0  0  0  0  0  # atno 7974 bound_to 7965
  155.9474  140.1120  157.1005 H   0  0  0  0  0  0  0  0  0  0  0  0  # atno 8008 bound_to 7997
  154.4102  140.1207  156.5073 H   0  0  0  0  0  0  0  0  0  0  0  0  # atno 8009 bound_to 7997
  155.6885  140.3473  155.4886 H   0  0  0  0  0  0  0  0  0  0  0  0  # atno 8010 bound_to 7997
  140.6270  143.2442  151.5338 H   0  0  0  0  0  0  0  0  0  0  0  0  # atno 10167 bound_to 10162
  157.6887  131.0110  150.2590 H   0  0  0  0  0  0  0  0  0  0  0  0  # atno 10718 bound_to 10713
  154.5009  135.2783  155.1421 H   0  0  0  0  0  0  0  0  0  0  0  0  # atno 10763 bound_to 10752
  154.3055  135.6239  153.5447 H   0  0  0  0  0  0  0  0  0  0  0  0  # atno 10764 bound_to 10752
  152.9902  135.5707  154.5451 H   0  0  0  0  0  0  0  0  0  0  0  0  # atno 10765 bound_to 10752
  140.8578  133.7810  156.0040 H   0  0  0  0  0  0  0  0  0  0  0  0  # atno 11005 bound_to 11000
  146.3058  139.7574  142.9057 LP  0  0  0  0  0  0  0  0  0  0  0  0  # atno 17320 bound_to 7965
  145.3771  141.0352  143.3198 LP  0  0  0  0  0  0  0  0  0  0  0  0  # atno 17321 bound_to 7965
  139.5489  144.2447  152.1494 LP  0  0  0  0  0  0  0  0  0  0  0  0  # atno 17342 bound_to 10162
  140.1681  144.4962  150.6595 LP  0  0  0  0  0  0  0  0  0  0  0  0  # atno 17343 bound_to 10162
  156.3172  130.3780  149.7607 LP  0  0  0  0  0  0  0  0  0  0  0  0  # atno 17370 bound_to 10713
  156.5189  130.8206  151.3196 LP  0  0  0  0  0  0  0  0  0  0  0  0  # atno 17371 bound_to 10713
  140.8717  134.2718  157.5187 LP  0  0  0  0  0  0  0  0  0  0  0  0  # atno 17394 bound_to 11000
  139.8706  134.9570  156.4257 LP  0  0  0  0  0  0  0  0  0  0  0  0  # atno 17395 bound_to 11000

$$$$
