AV-unprocessed.smi:32|AV-procd|sdf|197|dock2
  -GOLD-   2262015463D 1   1.00000     0.00000
 Structure written by MMmdl.
 49 51  0  0  0  0  0  0  0  0  1 V2000
  153.0467  139.1287  159.0778 O   0  0  0  0  0  0  0  0  0  0  0  0
  152.2547  139.3629  158.1635 C   0  0  0  0  0  0  0  0  0  0  0  0
  151.5592  138.2222  157.4047 C   0  0  0  0  0  0  0  0  0  0  0  0
  150.0825  138.2967  157.4508 N   0  0  0  0  0  0  0  0  0  0  0  0
  149.3946  138.8061  156.3215 C   0  0  0  0  0  0  0  0  0  0  0  0
  150.0041  139.1881  155.3214 O   0  0  0  0  0  0  0  0  0  0  0  0
  147.9405  138.8365  156.4307 C   0  0  0  0  0  0  0  0  0  0  0  0
  147.2071  139.3142  155.4111 F   0  0  0  0  0  0  0  0  0  0  0  0
  147.3169  138.3926  157.5415 C   0  0  0  0  0  0  0  0  0  0  0  0
  148.0011  137.8844  158.6314 N   0  0  0  0  0  0  0  0  0  0  0  0
  147.2862  137.3844  159.8690 C   0  0  2  0  0  0  0  0  0  0  0  0
  146.3760  136.1904  159.5243 C   0  0  0  0  0  0  0  0  0  0  0  0
  145.0486  136.5954  160.1338 C   0  0  0  0  0  0  0  0  0  0  0  0
  145.1114  138.1126  160.0420 C   0  0  0  0  0  0  0  0  0  0  0  0
  146.4629  138.3928  160.3835 O   0  0  0  0  0  0  0  0  0  0  0  0
  149.4115  137.8285  158.6053 C   0  0  0  0  0  0  0  0  0  0  0  0
  150.0387  137.3746  159.5650 O   0  0  0  0  0  0  0  0  0  0  0  0
  151.9374  140.6046  157.7655 N   0  0  0  0  0  0  0  0  0  0  0  0
  152.4699  141.8424  158.3304 C   0  0  0  0  0  0  0  0  0  0  0  0
  152.0041  141.9572  159.7969 C   0  0  0  0  0  0  0  0  0  0  0  0
  152.7656  143.0298  160.5941 C   0  0  0  0  0  0  0  0  0  0  0  0
  152.1862  144.4530  160.5141 C   0  0  0  0  0  0  0  0  0  0  0  0
  151.6779  144.9118  159.1363 C   0  0  0  0  0  0  0  0  0  0  0  0
  152.4963  144.4155  157.9335 C   0  0  0  0  0  0  0  0  0  0  0  0
  152.0482  143.0292  157.4389 C   0  0  0  0  0  0  0  0  0  0  0  0
  151.9234  138.2235  156.3764 H   0  0  0  0  0  0  0  0  0  0  0  0
  151.9094  137.2699  157.8066 H   0  0  0  0  0  0  0  0  0  0  0  0
  146.2394  138.4452  157.5585 H   0  0  0  0  0  0  0  0  0  0  0  0
  148.0707  137.1553  160.5923 H   0  0  0  0  0  0  0  0  0  0  0  0
  146.2819  136.0874  158.4420 H   0  0  0  0  0  0  0  0  0  0  0  0
  146.7743  135.2625  159.9360 H   0  0  0  0  0  0  0  0  0  0  0  0
  144.1907  136.1705  159.6123 H   0  0  0  0  0  0  0  0  0  0  0  0
  145.0041  136.2854  161.1788 H   0  0  0  0  0  0  0  0  0  0  0  0
  144.9015  138.4483  159.0254 H   0  0  0  0  0  0  0  0  0  0  0  0
  144.4153  138.6073  160.7195 H   0  0  0  0  0  0  0  0  0  0  0  0
  151.2774  140.7009  157.0073 H   0  0  0  0  0  0  0  0  0  0  0  0
  153.5596  141.7764  158.3302 H   0  0  0  0  0  0  0  0  0  0  0  0
  150.9272  142.1202  159.8576 H   0  0  0  0  0  0  0  0  0  0  0  0
  152.1873  140.9990  160.2855 H   0  0  0  0  0  0  0  0  0  0  0  0
  152.7860  142.7389  161.6449 H   0  0  0  0  0  0  0  0  0  0  0  0
  153.8109  143.0411  160.2826 H   0  0  0  0  0  0  0  0  0  0  0  0
  151.3661  144.5460  161.2269 H   0  0  0  0  0  0  0  0  0  0  0  0
  152.9525  145.1477  160.8603 H   0  0  0  0  0  0  0  0  0  0  0  0
  150.6364  144.6120  159.0134 H   0  0  0  0  0  0  0  0  0  0  0  0
  151.6630  146.0024  159.1309 H   0  0  0  0  0  0  0  0  0  0  0  0
  152.3469  145.1198  157.1143 H   0  0  0  0  0  0  0  0  0  0  0  0
  153.5654  144.4326  158.1484 H   0  0  0  0  0  0  0  0  0  0  0  0
  152.4672  142.8778  156.4433 H   0  0  0  0  0  0  0  0  0  0  0  0
  150.9658  143.0249  157.3024 H   0  0  0  0  0  0  0  0  0  0  0  0
  1  2  2  0  0  0  0
  2  3  1  0  0  0  0
  2 18  1  0  0  0  0
  3  4  1  0  0  0  0
  3 26  1  0  0  0  0
  3 27  1  0  0  0  0
  4 16  1  0  0  0  0
  4  5  1  0  0  0  0
  5  6  2  0  0  0  0
  5  7  1  0  0  0  0
  7  8  1  0  0  0  0
  7  9  2  0  0  0  0
  9 10  1  0  0  0  0
  9 28  1  0  0  0  0
 10 11  1  0  0  0  0
 10 16  1  0  0  0  0
 11 15  1  0  0  0  0
 11 12  1  0  0  0  0
 11 29  1  0  0  0  0
 12 13  1  0  0  0  0
 12 30  1  0  0  0  0
 12 31  1  0  0  0  0
 13 14  1  0  0  0  0
 13 32  1  0  0  0  0
 13 33  1  0  0  0  0
 14 15  1  0  0  0  0
 14 34  1  0  0  0  0
 14 35  1  0  0  0  0
 16 17  2  0  0  0  0
 18 19  1  0  0  0  0
 18 36  1  0  0  0  0
 19 25  1  0  0  0  0
 19 20  1  0  0  0  0
 19 37  1  0  0  0  0
 20 21  1  0  0  0  0
 20 38  1  0  0  0  0
 20 39  1  0  0  0  0
 21 22  1  0  0  0  0
 21 40  1  0  0  0  0
 21 41  1  0  0  0  0
 22 23  1  0  0  0  0
 22 42  1  0  0  0  0
 22 43  1  0  0  0  0
 23 24  1  0  0  0  0
 23 44  1  0  0  0  0
 23 45  1  0  0  0  0
 24 25  1  0  0  0  0
 24 46  1  0  0  0  0
 24 47  1  0  0  0  0
 25 48  1  0  0  0  0
 25 49  1  0  0  0  0
M  END
> <s_m_source_file>
AV-unprocessed.smi

> <i_m_source_file_index>
32

> <i_lp_mmshare_version>
43012

> <i_f3d_flags>
0

> <s_epik_input>
W0NIMl0xW0NIMl1bQ0gyXVtDSDJdW0NIMl1bQ0gyXVtDSF0xW05IXUMoPU8pW0NIMl1uMmMoPU8pYyhGKVtjSF1uKGMyPU8pW0NAQEhdM1tDSDJdW0NIMl1bQ0gyXU8z

> <s_epik_cmdline>
J2VwaWtfcHl0aG9uJywgJy1waCcsICc3LjAnLCAnLXRuJywgJzgnLCAnLW1hJywgJzIwMCcsICctbWV0YWxfYmluZGluZycsICctaW1hZScsICc8aW5maWxlLm1hZT4nLCAnLW9tYWUnLCAnPG91dGZpbGUubWFlPic=

> <r_lp_tautomer_probability>
1

> <r_epik_Ionization_Penalty>
2.43741e-08

> <r_epik_Ionization_Penalty_Charging>
4.15308e-09

> <r_epik_Ionization_Penalty_Neutral>
2.0221e-08

> <r_epik_State_Penalty>
-0

> <r_epik_Charging_Adjusted_Penalty>
4.15308e-09

> <i_epik_Tot_Q>
0

> <i_epik_Tot_abs_Q>
0

> <r_epik_Metal_State_Penalty>
-0

> <b_epik_Metal_Only>
0

> <s_epik_Chemistry_Notes>
This compound contains an acetal/aminal-like group ( X-CH(R)-Y where X, Y are N, S, or O) that may be acid/base labile, releasing an aldehyde.

> <s_lp_Force_Field>
OPLS_2005

> <r_lp_Energy>
35.2261

> <b_lp_Chiralities_Consistent>
1

> <s_lp_Variant>
AV-unprocessed.smi:32-1

> <Gold.Version>
5.8.1

> <Gold.Id.Protein>
6NUR|6NUR_protein|mol2

> <Gold.PLP.Fitness>
50.5368

> <Gold.PLP.PLP>
-41.1380

> <Gold.PLP.part.hbond>
-4.0000

> <Gold.PLP.part.metal>
0.0000

> <Gold.PLP.part.buried>
-6.2407

> <Gold.PLP.part.nonpolar>
-31.7387

> <Gold.PLP.part.repulsive>
0.0744

> <Gold.PLP.ligand.clash>
0.0000

> <Gold.PLP.ligand.torsion>
0.3592

> <Gold.PLP.Chemscore.Hbond>
3.3604

> <Gold.PLP.Chemscore.CHOScore>
0.0000

> <Gold.PLP.Chemscore.Metal>
0.0000

> <Gold.PLP.Chemscore.Internal.Correction>
0.0361

> <Gold.Rescore>
     Score         DG    S(hbond)    S(metal)    S(lipo)     H(rot)  DE(clash)    DE(int)     intcor
     21.34     -21.87       2.70        0.00     103.04       1.82       0.09       0.44       ----

> <Gold.Chemscore.Fitness>
21.3365

> <Gold.Chemscore.DG>
-21.8711

> <Gold.Chemscore.ZeroCoef>
-5.4800

> <Gold.Chemscore.Hbond>
2.6965

> <Gold.Chemscore.Metal>
0.0000

> <Gold.Chemscore.Lipo>
103.0439

> <Gold.Chemscore.Internal_Hbond>
0.0000

> <Gold.Chemscore.DEClash>
0.0907

> <Gold.Chemscore.DEInternal>
0.4439

> <Gold.Chemscore.Rot>
1.8248

> <Gold.Chemscore.Internal.Correction>
   9.000000E+99

> <Gold.Chemscore.Hbonds>
donor molecule, donor type, donor heavy atom, donor atom, acceptor molecule, acceptor atom, score
      P1  H  6934  6947       L1    15  0.01

> <Gold.Chemscore.Hbond.Weighted>
-9.0064

> <Gold.Chemscore.Metal.Weighted>
-0.0000

> <Gold.Chemscore.Lipo.Weighted>
-12.0561

> <Gold.Chemscore.Internal_Hbond.Weighted>
0.0000

> <Gold.Chemscore.DEClash.Weighted>
0.0907

> <Gold.Chemscore.DEInternal.Weighted>
0.4439

> <Gold.Chemscore.Rot.Weighted>
4.6714

> <Gold.Chemscore.Internal.Correction.Weighted>
   9.000000E+99

> <Gold.Protein.RotatedTorsions>
[ 6907 6896 6895 6894 ] final   80.15 input  -60.11 | X-H torsion
[ 7974 7965 7964 7962 ] final  -34.03 input  175.53 | X-H torsion
[ 8008 7997 7996 7995 ] final   25.23 input   59.86 | X-H torsion
[ 10167 10162 10161 10158 ] final -126.83 input  -65.29 | X-H torsion
[ 10718 10713 10712 10709 ] final   27.18 input   66.30 | X-H torsion
[ 10763 10752 10751 10750 ] final -175.15 input  -60.55 | X-H torsion
[ 11005 11000 10999 10996 ] final   96.17 input  -57.11 | X-H torsion

> <Gold.Protein.ActiveResidues>
 VAL166  LYS551  ARG553  GLY616  TRP617  ASP618  TYR619  PRO620  LYS621  CYS622 
 ASP623  PHE694  ASN695  SER759  ASP760  ASP761  ALA762  ILE779  LEU786  VAL792 
 PHE793  MET794  SER795  GLU796  ALA797  LYS798  CYS799  TRP800  GLU811  SER814 

> <Gold.Protein.RotatedAtoms>
  152.5224  134.3402  159.9214 H   0  0  0  0  0  0  0  0  0  0  0  0  # atno 6907 bound_to 6896
  151.3352  133.3978  159.2674 H   0  0  0  0  0  0  0  0  0  0  0  0  # atno 6908 bound_to 6896
  150.9848  134.9214  159.7923 H   0  0  0  0  0  0  0  0  0  0  0  0  # atno 6909 bound_to 6896
  146.0863  140.5988  142.8885 H   0  0  0  0  0  0  0  0  0  0  0  0  # atno 7974 bound_to 7965
  155.0086  140.3134  155.4839 H   0  0  0  0  0  0  0  0  0  0  0  0  # atno 8008 bound_to 7997
  156.2913  140.2219  156.5140 H   0  0  0  0  0  0  0  0  0  0  0  0  # atno 8009 bound_to 7997
  154.7555  140.0463  157.0917 H   0  0  0  0  0  0  0  0  0  0  0  0  # atno 8010 bound_to 7997
  139.9673  143.5884  152.2425 H   0  0  0  0  0  0  0  0  0  0  0  0  # atno 10167 bound_to 10162
  157.2167  130.6960  149.6252 H   0  0  0  0  0  0  0  0  0  0  0  0  # atno 10718 bound_to 10713
  154.5878  135.2842  155.0667 H   0  0  0  0  0  0  0  0  0  0  0  0  # atno 10763 bound_to 10752
  154.1979  135.6429  153.5082 H   0  0  0  0  0  0  0  0  0  0  0  0  # atno 10764 bound_to 10752
  153.0110  135.5462  154.6553 H   0  0  0  0  0  0  0  0  0  0  0  0  # atno 10765 bound_to 10752
  139.8783  134.8937  156.4119 H   0  0  0  0  0  0  0  0  0  0  0  0  # atno 11005 bound_to 11000
  144.7328  140.4721  143.6925 LP  0  0  0  0  0  0  0  0  0  0  0  0  # atno 17320 bound_to 7965
  145.6124  139.1514  143.3068 LP  0  0  0  0  0  0  0  0  0  0  0  0  # atno 17321 bound_to 7965
  139.6508  144.7660  151.2152 LP  0  0  0  0  0  0  0  0  0  0  0  0  # atno 17342 bound_to 10162
  140.7533  143.6164  150.8555 LP  0  0  0  0  0  0  0  0  0  0  0  0  # atno 17343 bound_to 10162
  155.9686  130.4533  150.5807 LP  0  0  0  0  0  0  0  0  0  0  0  0  # atno 17370 bound_to 10713
  157.3617  131.0751  151.1631 LP  0  0  0  0  0  0  0  0  0  0  0  0  # atno 17371 bound_to 10713
  140.9194  133.7655  155.9888 LP  0  0  0  0  0  0  0  0  0  0  0  0  # atno 17394 bound_to 11000
  140.8456  134.3015  157.5296 LP  0  0  0  0  0  0  0  0  0  0  0  0  # atno 17395 bound_to 11000

$$$$
