AV-unprocessed.smi:1791|AV-procd|sdf|7221|dock3
  -GOLD-   22720 8463D 1   1.00000     0.00000
 Structure written by MMmdl.
 38 39  0  0  0  0  0  0  0  0  1 V2000
  151.6114  141.6828  157.7262 C   0  0  0  0  0  0  0  0  0  0  0  0
  151.0747  141.5879  156.4111 O   0  0  0  0  0  0  0  0  0  0  0  0
  150.7241  140.3411  155.9355 C   0  0  0  0  0  0  0  0  0  0  0  0
  150.6032  139.2786  156.8531 C   0  0  0  0  0  0  0  0  0  0  0  0
  150.2453  138.0031  156.3758 C   0  0  0  0  0  0  0  0  0  0  0  0
  150.0252  137.8293  154.9885 C   0  0  0  0  0  0  0  0  0  0  0  0
  149.6365  136.6017  154.3884 N   0  0  0  0  0  0  0  0  0  0  0  0
  149.5145  135.3922  154.9611 C   0  0  0  0  0  0  0  0  0  0  0  0
  149.7788  135.1314  156.1345 O   0  0  0  0  0  0  0  0  0  0  0  0
  149.0855  134.4822  154.0746 N   0  0  0  0  0  0  0  0  0  0  0  0
  148.8454  133.0656  154.3449 C   0  0  1  0  0  0  0  0  0  0  0  0
  147.9830  132.9430  155.6095 C   0  0  0  0  0  0  0  0  0  0  0  0
  148.1776  132.3950  153.1277 C   0  0  1  0  0  0  0  0  0  0  0  0
  147.6881  130.9655  153.3628 C   0  0  0  0  0  0  0  0  0  0  0  0
  146.6116  130.7853  152.3053 C   0  0  0  0  0  0  0  0  0  0  0  0
  146.2462  132.2166  151.8995 C   0  0  0  0  0  0  0  0  0  0  0  0
  146.9716  133.0595  152.7851 O   0  0  0  0  0  0  0  0  0  0  0  0
  150.1585  138.9596  154.1562 C   0  0  0  0  0  0  0  0  0  0  0  0
  150.5033  140.1842  154.6068 N   0  0  0  0  0  0  0  0  0  0  0  0
  151.8432  142.7246  157.9467 H   0  0  0  0  0  0  0  0  0  0  0  0
  152.5355  141.1114  157.8238 H   0  0  0  0  0  0  0  0  0  0  0  0
  150.8957  141.3376  158.4739 H   0  0  0  0  0  0  0  0  0  0  0  0
  150.7764  139.4399  157.9069 H   0  0  0  0  0  0  0  0  0  0  0  0
  150.1321  137.1944  157.0809 H   0  0  0  0  0  0  0  0  0  0  0  0
  149.4720  136.6400  153.3932 H   0  0  0  0  0  0  0  0  0  0  0  0
  148.9061  134.7944  153.1316 H   0  0  0  0  0  0  0  0  0  0  0  0
  149.7912  132.5576  154.5421 H   0  0  0  0  0  0  0  0  0  0  0  0
  147.8152  131.8978  155.8706 H   0  0  0  0  0  0  0  0  0  0  0  0
  147.0080  133.4124  155.4744 H   0  0  0  0  0  0  0  0  0  0  0  0
  148.4672  133.4190  156.4627 H   0  0  0  0  0  0  0  0  0  0  0  0
  148.8483  132.4177  152.2661 H   0  0  0  0  0  0  0  0  0  0  0  0
  148.4851  130.2253  153.2871 H   0  0  0  0  0  0  0  0  0  0  0  0
  147.2425  130.8802  154.3550 H   0  0  0  0  0  0  0  0  0  0  0  0
  146.9933  130.2338  151.4454 H   0  0  0  0  0  0  0  0  0  0  0  0
  145.7547  130.2392  152.7012 H   0  0  0  0  0  0  0  0  0  0  0  0
  146.5610  132.4163  150.8744 H   0  0  0  0  0  0  0  0  0  0  0  0
  145.1758  132.4108  151.9700 H   0  0  0  0  0  0  0  0  0  0  0  0
  149.9868  138.8806  153.0926 H   0  0  0  0  0  0  0  0  0  0  0  0
  1  2  1  0  0  0  0
  1 20  1  0  0  0  0
  1 21  1  0  0  0  0
  1 22  1  0  0  0  0
  2  3  1  0  0  0  0
  3 19  1  0  0  0  0
  3  4  2  0  0  0  0
  4  5  1  0  0  0  0
  4 23  1  0  0  0  0
  5  6  2  0  0  0  0
  5 24  1  0  0  0  0
  6  7  1  0  0  0  0
  6 18  1  0  0  0  0
  7  8  1  0  0  0  0
  7 25  1  0  0  0  0
  8  9  2  0  0  0  0
  8 10  1  0  0  0  0
 10 11  1  0  0  0  0
 10 26  1  0  0  0  0
 11 12  1  0  0  0  0
 11 13  1  0  0  0  0
 11 27  1  0  0  0  0
 12 28  1  0  0  0  0
 12 29  1  0  0  0  0
 12 30  1  0  0  0  0
 13 17  1  0  0  0  0
 13 14  1  0  0  0  0
 13 31  1  0  0  0  0
 14 15  1  0  0  0  0
 14 32  1  0  0  0  0
 14 33  1  0  0  0  0
 15 16  1  0  0  0  0
 15 34  1  0  0  0  0
 15 35  1  0  0  0  0
 16 17  1  0  0  0  0
 16 36  1  0  0  0  0
 16 37  1  0  0  0  0
 18 19  2  0  0  0  0
 18 38  1  0  0  0  0
M  END
> <s_m_source_file>
AV-unprocessed.smi

> <i_m_source_file_index>
1791

> <i_lp_mmshare_version>
43012

> <i_f3d_flags>
0

> <s_epik_input>
W0NIM11PYzFbY0hdW2NIXWMoW2NIXW4xKVtOSF1DKD1PKVtOSF1bQ0BIXShbQ0gzXSlbQ0BASF0yW0NIMl1bQ0gyXVtDSDJdTzI=

> <s_epik_cmdline>
J2VwaWtfcHl0aG9uJywgJy1waCcsICc3LjAnLCAnLXRuJywgJzgnLCAnLW1hJywgJzIwMCcsICctbWV0YWxfYmluZGluZycsICctaW1hZScsICc8aW5maWxlLm1hZT4nLCAnLW9tYWUnLCAnPG91dGZpbGUubWFlPic=

> <r_lp_tautomer_probability>
1

> <r_epik_Ionization_Penalty>
9.18737e-05

> <r_epik_Ionization_Penalty_Charging>
0

> <r_epik_Ionization_Penalty_Neutral>
9.18737e-05

> <r_epik_State_Penalty>
-0

> <r_epik_Charging_Adjusted_Penalty>
0

> <i_epik_Tot_Q>
0

> <i_epik_Tot_abs_Q>
0

> <r_epik_Metal_State_Penalty>
-0

> <b_epik_Metal_Only>
0

> <s_lp_Force_Field>
OPLS_2005

> <r_lp_Energy>
20.4699

> <b_lp_Chiralities_Consistent>
1

> <s_lp_Variant>
AV-unprocessed.smi:1791-4

> <Gold.Version>
5.8.1

> <Gold.Id.Protein>
6NUR|6NUR_protein|mol2

> <Gold.PLP.Fitness>
37.1888

> <Gold.PLP.PLP>
-25.9776

> <Gold.PLP.part.hbond>
-3.0000

> <Gold.PLP.part.metal>
0.0000

> <Gold.PLP.part.buried>
-3.4104

> <Gold.PLP.part.nonpolar>
-19.4472

> <Gold.PLP.part.repulsive>
0.3175

> <Gold.PLP.ligand.clash>
0.0214

> <Gold.PLP.ligand.torsion>
0.3281

> <Gold.PLP.Chemscore.Hbond>
2.9424

> <Gold.PLP.Chemscore.CHOScore>
1.0000

> <Gold.PLP.Chemscore.Metal>
0.0000

> <Gold.Chemscore.Hbonds>
donor molecule, donor type, donor heavy atom, donor atom, acceptor molecule, acceptor atom, score
      L1  H     7    25       P1  7948  1.00
      L1  H    10    26       P1  7948  0.83
      P1  H  7989  7998       L1    19  1.00
      L1  C    18    38       P1  7957  1.00

> <Gold.PLP.Chemscore.Internal.Correction>
0.0615

> <Gold.Rescore>
     Score         DG    S(hbond)    S(metal)    S(lipo)     H(rot)  DE(clash)    DE(int)     intcor
     15.14     -16.62       2.41        0.00      58.70       1.47       0.02       1.46       ----

> <Gold.Chemscore.Fitness>
15.1378

> <Gold.Chemscore.DG>
-16.6247

> <Gold.Chemscore.ZeroCoef>
-5.4800

> <Gold.Chemscore.Hbond>
2.4066

> <Gold.Chemscore.Metal>
0.0000

> <Gold.Chemscore.Lipo>
58.7007

> <Gold.Chemscore.Internal_Hbond>
0.0000

> <Gold.Chemscore.DEClash>
0.0243

> <Gold.Chemscore.DEInternal>
1.4626

> <Gold.Chemscore.Rot>
1.4693

> <Gold.Chemscore.Internal.Correction>
   9.000000E+99

> <Gold.Chemscore.Hbonds>
donor molecule, donor type, donor heavy atom, donor atom, acceptor molecule, acceptor atom, score
      L1  H     7    25       P1  7948  0.78
      L1  H    10    26       P1  7948  0.14
      P1  H  7989  7998       L1    19  0.63

> <Gold.Chemscore.Hbond.Weighted>
-8.0380

> <Gold.Chemscore.Metal.Weighted>
-0.0000

> <Gold.Chemscore.Lipo.Weighted>
-6.8680

> <Gold.Chemscore.Internal_Hbond.Weighted>
0.0000

> <Gold.Chemscore.DEClash.Weighted>
0.0243

> <Gold.Chemscore.DEInternal.Weighted>
1.4626

> <Gold.Chemscore.Rot.Weighted>
3.7613

> <Gold.Chemscore.Internal.Correction.Weighted>
   9.000000E+99

> <Gold.Protein.RotatedTorsions>
[ 6907 6896 6895 6894 ] final  -38.61 input  -60.11 | X-H torsion
[ 7974 7965 7964 7962 ] final   81.38 input  175.53 | X-H torsion
[ 8008 7997 7996 7995 ] final  119.98 input   59.86 | X-H torsion
[ 10167 10162 10161 10158 ] final   38.95 input  -65.29 | X-H torsion
[ 10718 10713 10712 10709 ] final -174.15 input   66.30 | X-H torsion
[ 10763 10752 10751 10750 ] final -139.22 input  -60.55 | X-H torsion
[ 11005 11000 10999 10996 ] final   76.69 input  -57.11 | X-H torsion

> <Gold.Protein.ActiveResidues>
 VAL166  LYS551  ARG553  GLY616  TRP617  ASP618  TYR619  PRO620  LYS621  CYS622 
 ASP623  PHE694  ASN695  SER759  ASP760  ASP761  ALA762  ILE779  LEU786  VAL792 
 PHE793  MET794  SER795  GLU796  ALA797  LYS798  CYS799  TRP800  GLU811  SER814 

> <Gold.Protein.RotatedAtoms>
  151.0004  134.9317  159.7950 H   0  0  0  0  0  0  0  0  0  0  0  0  # atno 6907 bound_to 6896
  152.5276  134.3162  159.9141 H   0  0  0  0  0  0  0  0  0  0  0  0  # atno 6908 bound_to 6896
  151.3168  133.4015  159.2685 H   0  0  0  0  0  0  0  0  0  0  0  0  # atno 6909 bound_to 6896
  145.6389  139.2421  143.2042 H   0  0  0  0  0  0  0  0  0  0  0  0  # atno 7974 bound_to 7965
  156.2621  140.2841  156.1078 H   0  0  0  0  0  0  0  0  0  0  0  0  # atno 8008 bound_to 7997
  155.1290  140.0393  157.2787 H   0  0  0  0  0  0  0  0  0  0  0  0  # atno 8009 bound_to 7997
  154.6613  140.2567  155.7112 H   0  0  0  0  0  0  0  0  0  0  0  0  # atno 8010 bound_to 7997
  140.3887  144.1882  150.6130 H   0  0  0  0  0  0  0  0  0  0  0  0  # atno 10167 bound_to 10162
  156.7808  130.9483  151.3120 H   0  0  0  0  0  0  0  0  0  0  0  0  # atno 10718 bound_to 10713
  154.8615  135.3589  154.5511 H   0  0  0  0  0  0  0  0  0  0  0  0  # atno 10763 bound_to 10752
  153.6129  135.7009  153.5345 H   0  0  0  0  0  0  0  0  0  0  0  0  # atno 10764 bound_to 10752
  153.3194  135.4155  155.1364 H   0  0  0  0  0  0  0  0  0  0  0  0  # atno 10765 bound_to 10752
  139.9287  134.7621  156.1427 H   0  0  0  0  0  0  0  0  0  0  0  0  # atno 11005 bound_to 11000
  146.1297  140.7201  142.9418 LP  0  0  0  0  0  0  0  0  0  0  0  0  # atno 17320 bound_to 7965
  144.7165  140.4227  143.7040 LP  0  0  0  0  0  0  0  0  0  0  0  0  # atno 17321 bound_to 7965
  140.4862  143.2362  151.8884 LP  0  0  0  0  0  0  0  0  0  0  0  0  # atno 17342 bound_to 10162
  139.4790  144.5215  151.8794 LP  0  0  0  0  0  0  0  0  0  0  0  0  # atno 17343 bound_to 10162
  157.6647  130.8997  149.9906 LP  0  0  0  0  0  0  0  0  0  0  0  0  # atno 17370 bound_to 10713
  156.1219  130.3645  149.9873 LP  0  0  0  0  0  0  0  0  0  0  0  0  # atno 17371 bound_to 10713
  141.0862  133.6733  156.2441 LP  0  0  0  0  0  0  0  0  0  0  0  0  # atno 17394 bound_to 11000
  140.6262  134.5310  157.5554 LP  0  0  0  0  0  0  0  0  0  0  0  0  # atno 17395 bound_to 11000

$$$$
