AV-unprocessed.smi:3316|AV-procd|sdf|12760|dock1
  -GOLD-   2272019 93D 1   1.00000     0.00000
 Structure written by MMmdl.
 41 43  0  0  0  0  0  0  0  0  2 V2000
  148.2590  140.5856  154.0347 C   0  0  0  0  0  0  0  0  0  0  0  0
  149.5130  140.8469  154.8833 C   0  0  1  0  0  0  0  0  0  0  0  0
  149.1480  141.1866  156.3417 C   0  0  0  0  0  0  0  0  0  0  0  0
  149.8648  142.3909  156.8077 N   0  3  0  0  0  0  0  0  0  0  0  0
  149.6881  142.6872  158.2417 C   0  0  0  0  0  0  0  0  0  0  0  0
  150.2777  144.0655  158.5949 C   0  0  1  0  0  0  0  0  0  0  0  0
  150.1039  144.4622  160.0930 C   0  0  0  0  0  0  0  0  0  0  0  0
  151.5449  144.8160  160.5289 C   0  0  1  0  0  0  0  0  0  0  0  0
  152.3530  143.5360  160.5304 C   0  0  0  0  0  0  0  0  0  0  0  0
  152.5162  143.1687  159.2585 C   0  0  0  0  0  0  0  0  0  0  0  0
  151.8129  144.1991  158.3977 C   0  0  2  0  0  0  0  0  0  0  0  0
  152.0640  145.4568  159.2378 C   0  0  0  0  0  0  0  0  0  0  0  0
  150.4899  139.6797  154.7988 C   0  0  0  0  0  0  0  0  0  0  0  0
  151.7143  139.7176  155.4993 C   0  0  0  0  0  0  0  0  0  0  0  0
  152.5805  138.6097  155.4061 C   0  0  0  0  0  0  0  0  0  0  0  0
  152.2973  137.5068  154.6811 N   0  0  0  0  0  0  0  0  0  0  0  0
  151.1265  137.4754  154.0103 C   0  0  0  0  0  0  0  0  0  0  0  0
  150.1913  138.5293  154.0364 C   0  0  0  0  0  0  0  0  0  0  0  0
  148.5239  140.3965  152.9939 H   0  0  0  0  0  0  0  0  0  0  0  0
  147.5874  141.4445  154.0513 H   0  0  0  0  0  0  0  0  0  0  0  0
  147.6997  139.7228  154.3975 H   0  0  0  0  0  0  0  0  0  0  0  0
  150.0063  141.7222  154.4577 H   0  0  0  0  0  0  0  0  0  0  0  0
  148.0749  141.3598  156.4313 H   0  0  0  0  0  0  0  0  0  0  0  0
  149.3883  140.3471  156.9958 H   0  0  0  0  0  0  0  0  0  0  0  0
  150.8508  142.2506  156.6388 H   0  0  0  0  0  0  0  0  0  0  0  0
  148.6233  142.6677  158.4766 H   0  0  0  0  0  0  0  0  0  0  0  0
  150.1552  141.9027  158.8382 H   0  0  0  0  0  0  0  0  0  0  0  0
  149.7809  144.8185  157.9800 H   0  0  0  0  0  0  0  0  0  0  0  0
  149.4429  145.3246  160.1885 H   0  0  0  0  0  0  0  0  0  0  0  0
  149.6866  143.6572  160.7001 H   0  0  0  0  0  0  0  0  0  0  0  0
  151.6445  145.4224  161.4295 H   0  0  0  0  0  0  0  0  0  0  0  0
  152.6926  143.0213  161.4173 H   0  0  0  0  0  0  0  0  0  0  0  0
  153.0160  142.2881  158.8824 H   0  0  0  0  0  0  0  0  0  0  0  0
  152.1660  144.2533  157.3675 H   0  0  0  0  0  0  0  0  0  0  0  0
  151.4914  146.3291  158.9157 H   0  0  0  0  0  0  0  0  0  0  0  0
  153.1199  145.7302  159.2921 H   0  0  0  0  0  0  0  0  0  0  0  0
  151.9912  140.5737  156.0971 H   0  0  0  0  0  0  0  0  0  0  0  0
  153.5248  138.6089  155.9300 H   0  0  0  0  0  0  0  0  0  0  0  0
  150.9268  136.5823  153.4369 H   0  0  0  0  0  0  0  0  0  0  0  0
  149.2683  138.4499  153.4814 H   0  0  0  0  0  0  0  0  0  0  0  0
  149.5565  143.1870  156.2681 H   0  0  0  0  0  0  0  0  0  0  0  0
  1  2  1  0  0  0  0
  1 19  1  0  0  0  0
  1 20  1  0  0  0  0
  1 21  1  0  0  0  0
  2  3  1  0  0  0  0
  2 13  1  0  0  0  0
  2 22  1  0  0  0  0
  3  4  1  0  0  0  0
  3 23  1  0  0  0  0
  3 24  1  0  0  0  0
  4  5  1  0  0  0  0
  4 25  1  0  0  0  0
  4 41  1  0  0  0  0
  5  6  1  0  0  0  0
  5 26  1  0  0  0  0
  5 27  1  0  0  0  0
  6 11  1  0  0  0  0
  6  7  1  0  0  0  0
  6 28  1  0  0  0  0
  7  8  1  0  0  0  0
  7 29  1  0  0  0  0
  7 30  1  0  0  0  0
  8 12  1  0  0  0  0
  8  9  1  0  0  0  0
  8 31  1  0  0  0  0
  9 10  2  0  0  0  0
  9 32  1  0  0  0  0
 10 11  1  0  0  0  0
 10 33  1  0  0  0  0
 11 12  1  0  0  0  0
 11 34  1  0  0  0  0
 12 35  1  0  0  0  0
 12 36  1  0  0  0  0
 13 18  1  0  0  0  0
 13 14  2  0  0  0  0
 14 15  1  0  0  0  0
 14 37  1  0  0  0  0
 15 16  2  0  0  0  0
 15 38  1  0  0  0  0
 16 17  1  0  0  0  0
 17 18  2  0  0  0  0
 17 39  1  0  0  0  0
 18 40  1  0  0  0  0
M  CHG  1   4   1
M  END
> <s_m_source_file>
AV-unprocessed.smi

> <i_m_source_file_index>
3316

> <i_lp_mmshare_version>
43012

> <i_f3d_flags>
0

> <s_epik_input>
W2NIXTFbY0hdbltjSF1bY0hdYzFbQ0BIXShbQ0gzXSlbQ0gyXVtOSF1bQ0gyXVtDQEhdKFtDSDJdW0NASF0yMylbQ0BIXShbQ0gyXTMpW0NIXT1bQ0hdMg==

> <s_epik_cmdline>
J2VwaWtfcHl0aG9uJywgJy1waCcsICc3LjAnLCAnLXRuJywgJzgnLCAnLW1hJywgJzIwMCcsICctbWV0YWxfYmluZGluZycsICctaW1hZScsICc8aW5maWxlLm1hZT4nLCAnLW9tYWUnLCAnPG91dGZpbGUubWFlPic=

> <r_lp_tautomer_probability>
1

> <r_epik_Ionization_Penalty>
0.00280406

> <r_epik_Ionization_Penalty_Charging>
0.000446589

> <r_epik_Ionization_Penalty_Neutral>
0.00235747

> <r_epik_State_Penalty>
-0

> <r_epik_Charging_Adjusted_Penalty>
0.000446589

> <i_epik_Tot_Q>
1

> <i_epik_Tot_abs_Q>
1

> <r_epik_Metal_State_Penalty>
-0

> <b_epik_Metal_Only>
0

> <s_lp_Force_Field>
OPLS_2005

> <r_lp_Energy>
65.5471

> <b_lp_Chiralities_Consistent>
1

> <s_lp_Variant>
AV-unprocessed.smi:3316-8

> <Gold.Version>
5.8.1

> <Gold.Id.Protein>
6NUR|6NUR_protein|mol2

> <Gold.PLP.Fitness>
57.4763

> <Gold.PLP.PLP>
-47.8834

> <Gold.PLP.part.hbond>
-2.0000

> <Gold.PLP.part.metal>
0.0000

> <Gold.PLP.part.buried>
-2.6060

> <Gold.PLP.part.nonpolar>
-43.5049

> <Gold.PLP.part.repulsive>
0.0999

> <Gold.PLP.ligand.clash>
0.0000

> <Gold.PLP.ligand.torsion>
0.7059

> <Gold.PLP.Chemscore.Hbond>
2.6400

> <Gold.PLP.Chemscore.CHOScore>
0.9937

> <Gold.PLP.Chemscore.Metal>
0.0000

> <Gold.Chemscore.Hbonds>
donor molecule, donor type, donor heavy atom, donor atom, acceptor molecule, acceptor atom, score
      L1  H     4    41       P1  8028  2.00
      P1  H 10752 10763       L1    16  0.66
      L1  C    17    39       P1  7949  0.90

> <Gold.PLP.Chemscore.Internal.Correction>
0.1035

> <Gold.Rescore>
     Score         DG    S(hbond)    S(metal)    S(lipo)     H(rot)  DE(clash)    DE(int)     intcor
     23.47     -24.39       1.92        0.00     136.81       1.36       0.18       0.74       ----

> <Gold.Chemscore.Fitness>
23.4694

> <Gold.Chemscore.DG>
-24.3924

> <Gold.Chemscore.ZeroCoef>
-5.4800

> <Gold.Chemscore.Hbond>
1.9155

> <Gold.Chemscore.Metal>
0.0000

> <Gold.Chemscore.Lipo>
136.8069

> <Gold.Chemscore.Internal_Hbond>
0.0000

> <Gold.Chemscore.DEClash>
0.1812

> <Gold.Chemscore.DEInternal>
0.7418

> <Gold.Chemscore.Rot>
1.3640

> <Gold.Chemscore.Internal.Correction>
   9.000000E+99

> <Gold.Chemscore.Hbonds>
donor molecule, donor type, donor heavy atom, donor atom, acceptor molecule, acceptor atom, score
      L1  H     4    41       P1  8028  1.00
      P1  H 10752 10763       L1    16  0.28

> <Gold.Chemscore.Hbond.Weighted>
-6.3979

> <Gold.Chemscore.Metal.Weighted>
-0.0000

> <Gold.Chemscore.Lipo.Weighted>
-16.0064

> <Gold.Chemscore.Internal_Hbond.Weighted>
0.0000

> <Gold.Chemscore.DEClash.Weighted>
0.1812

> <Gold.Chemscore.DEInternal.Weighted>
0.7418

> <Gold.Chemscore.Rot.Weighted>
3.4919

> <Gold.Chemscore.Internal.Correction.Weighted>
   9.000000E+99

> <Gold.Protein.RotatedTorsions>
[ 6907 6896 6895 6894 ] final  -25.66 input  -60.11 | X-H torsion
[ 7974 7965 7964 7962 ] final   -7.70 input  175.53 | X-H torsion
[ 8008 7997 7996 7995 ] final   68.01 input   59.86 | X-H torsion
[ 10167 10162 10161 10158 ] final  101.66 input  -65.29 | X-H torsion
[ 10718 10713 10712 10709 ] final  140.24 input   66.30 | X-H torsion
[ 10763 10752 10751 10750 ] final   57.84 input  -60.55 | X-H torsion
[ 11005 11000 10999 10996 ] final  149.31 input  -57.11 | X-H torsion

> <Gold.Protein.ActiveResidues>
 VAL166  LYS551  ARG553  GLY616  TRP617  ASP618  TYR619  PRO620  LYS621  CYS622 
 ASP623  PHE694  ASN695  SER759  ASP760  ASP761  ALA762  ILE779  LEU786  VAL792 
 PHE793  MET794  SER795  GLU796  ALA797  LYS798  CYS799  TRP800  GLU811  SER814 

> <Gold.Protein.RotatedAtoms>
  151.1720  135.0322  159.8755 H   0  0  0  0  0  0  0  0  0  0  0  0  # atno 6907 bound_to 6896
  152.5448  134.1159  159.8388 H   0  0  0  0  0  0  0  0  0  0  0  0  # atno 6908 bound_to 6896
  151.1266  133.5019  159.2633 H   0  0  0  0  0  0  0  0  0  0  0  0  # atno 6909 bound_to 6896
  146.2300  140.2358  142.8341 H   0  0  0  0  0  0  0  0  0  0  0  0  # atno 7974 bound_to 7965
  155.7017  140.3495  155.4936 H   0  0  0  0  0  0  0  0  0  0  0  0  # atno 8008 bound_to 7997
  155.9434  140.1106  157.1059 H   0  0  0  0  0  0  0  0  0  0  0  0  # atno 8009 bound_to 7997
  154.4107  140.1208  156.4944 H   0  0  0  0  0  0  0  0  0  0  0  0  # atno 8010 bound_to 7997
  139.7419  144.7009  151.0563 H   0  0  0  0  0  0  0  0  0  0  0  0  # atno 10167 bound_to 10162
  157.4055  131.1022  151.0508 H   0  0  0  0  0  0  0  0  0  0  0  0  # atno 10718 bound_to 10713
  152.9858  135.5628  154.5455 H   0  0  0  0  0  0  0  0  0  0  0  0  # atno 10763 bound_to 10752
  154.4902  135.2792  155.1505 H   0  0  0  0  0  0  0  0  0  0  0  0  # atno 10764 bound_to 10752
  154.2977  135.6313  153.5465 H   0  0  0  0  0  0  0  0  0  0  0  0  # atno 10765 bound_to 10752
  140.1034  134.8969  157.1829 H   0  0  0  0  0  0  0  0  0  0  0  0  # atno 11005 bound_to 11000
  144.9522  140.8190  143.5565 LP  0  0  0  0  0  0  0  0  0  0  0  0  # atno 17320 bound_to 7965
  145.2320  139.2110  143.5038 LP  0  0  0  0  0  0  0  0  0  0  0  0  # atno 17321 bound_to 7965
  140.7787  143.4914  150.9888 LP  0  0  0  0  0  0  0  0  0  0  0  0  # atno 17342 bound_to 10162
  139.8603  143.7324  152.3174 LP  0  0  0  0  0  0  0  0  0  0  0  0  # atno 17343 bound_to 10162
  157.1492  130.6176  149.5577 LP  0  0  0  0  0  0  0  0  0  0  0  0  # atno 17370 bound_to 10713
  155.9835  130.4855  150.6937 LP  0  0  0  0  0  0  0  0  0  0  0  0  # atno 17371 bound_to 10713
  140.3189  134.2939  155.7250 LP  0  0  0  0  0  0  0  0  0  0  0  0  # atno 17394 bound_to 11000
  141.2112  133.7697  156.9883 LP  0  0  0  0  0  0  0  0  0  0  0  0  # atno 17395 bound_to 11000

$$$$
