AV-unprocessed.smi:2110|AV-procd|sdf|8608|dock4
  -GOLD-   2272011353D 1   1.00000     0.00000
 Structure written by MMmdl.
 46 47  0  0  0  0  0  0  0  0  1 V2000
  144.6772  143.1359  153.8747 C   0  0  0  0  0  0  0  0  0  0  0  0
  145.7096  142.0866  154.3176 C   0  0  0  0  0  0  0  0  0  0  0  0
  145.6754  141.8190  155.7691 N   0  0  0  0  0  0  0  0  0  0  0  0
  144.3705  141.9651  156.4430 C   0  0  0  0  0  0  0  0  0  0  0  0
  144.0492  143.4189  156.8198 C   0  0  0  0  0  0  0  0  0  0  0  0
  146.9601  140.9297  156.5318 S   0  0  0  0  0  0  0  0  0  0  0  0
  147.4033  141.6547  157.7325 O   0  0  0  0  0  0  0  0  0  0  0  0
  146.5908  139.5076  156.6022 O   0  0  0  0  0  0  0  0  0  0  0  0
  148.1749  141.1009  155.3270 N   0  0  0  0  0  0  0  0  0  0  0  0
  149.0459  139.9852  154.9648 C   0  0  0  0  0  0  0  0  0  0  0  0
  150.3137  139.8789  155.7997 C   0  0  0  0  0  0  0  0  0  0  0  0
  151.2696  138.8948  155.4817 C   0  0  0  0  0  0  0  0  0  0  0  0
  152.4328  138.8066  156.2686 C   0  0  0  0  0  0  0  0  0  0  0  0
  152.6836  139.6234  157.3128 N   0  0  0  0  0  0  0  0  0  0  0  0
  151.7763  140.5808  157.6264 C   0  0  0  0  0  0  0  0  0  0  0  0
  152.0521  141.4385  158.7127 N   0  0  0  0  0  0  0  0  0  0  0  0
  151.8332  142.8605  158.4586 C   0  0  0  0  0  0  0  0  0  0  0  0
  151.8678  143.6513  159.7775 C   0  0  0  0  0  0  0  0  0  0  0  0
  153.0886  143.3929  160.4627 O   0  0  0  0  0  0  0  0  0  0  0  0
  153.2278  142.0160  160.7973 C   0  0  0  0  0  0  0  0  0  0  0  0
  153.2451  141.1703  159.5128 C   0  0  0  0  0  0  0  0  0  0  0  0
  150.5738  140.7324  156.8967 C   0  0  0  0  0  0  0  0  0  0  0  0
  144.7946  143.3617  152.8149 H   0  0  0  0  0  0  0  0  0  0  0  0
  144.7809  144.0717  154.4224 H   0  0  0  0  0  0  0  0  0  0  0  0
  143.6575  142.7781  154.0150 H   0  0  0  0  0  0  0  0  0  0  0  0
  145.5263  141.1519  153.7874 H   0  0  0  0  0  0  0  0  0  0  0  0
  146.7102  142.4084  154.0268 H   0  0  0  0  0  0  0  0  0  0  0  0
  143.5836  141.5717  155.7999 H   0  0  0  0  0  0  0  0  0  0  0  0
  144.3630  141.3437  157.3390 H   0  0  0  0  0  0  0  0  0  0  0  0
  143.0576  143.4844  157.2677 H   0  0  0  0  0  0  0  0  0  0  0  0
  144.0553  144.0737  155.9497 H   0  0  0  0  0  0  0  0  0  0  0  0
  144.7571  143.8119  157.5491 H   0  0  0  0  0  0  0  0  0  0  0  0
  147.9684  141.7685  154.5850 H   0  0  0  0  0  0  0  0  0  0  0  0
  148.4801  139.0566  155.0455 H   0  0  0  0  0  0  0  0  0  0  0  0
  149.3350  140.0924  153.9187 H   0  0  0  0  0  0  0  0  0  0  0  0
  151.1152  138.2176  154.6545 H   0  0  0  0  0  0  0  0  0  0  0  0
  153.1832  138.0608  156.0528 H   0  0  0  0  0  0  0  0  0  0  0  0
  152.6141  143.2213  157.7881 H   0  0  0  0  0  0  0  0  0  0  0  0
  150.8815  143.0415  157.9611 H   0  0  0  0  0  0  0  0  0  0  0  0
  151.7943  144.7198  159.5756 H   0  0  0  0  0  0  0  0  0  0  0  0
  151.0191  143.3877  160.4108 H   0  0  0  0  0  0  0  0  0  0  0  0
  154.1565  141.8765  161.3504 H   0  0  0  0  0  0  0  0  0  0  0  0
  152.4147  141.7070  161.4564 H   0  0  0  0  0  0  0  0  0  0  0  0
  153.2932  140.1127  159.7757 H   0  0  0  0  0  0  0  0  0  0  0  0
  154.1347  141.4025  158.9255 H   0  0  0  0  0  0  0  0  0  0  0  0
  149.8595  141.4858  157.1899 H   0  0  0  0  0  0  0  0  0  0  0  0
  1  2  1  0  0  0  0
  1 23  1  0  0  0  0
  1 24  1  0  0  0  0
  1 25  1  0  0  0  0
  2  3  1  0  0  0  0
  2 26  1  0  0  0  0
  2 27  1  0  0  0  0
  3  4  1  0  0  0  0
  3  6  1  0  0  0  0
  4  5  1  0  0  0  0
  4 28  1  0  0  0  0
  4 29  1  0  0  0  0
  5 30  1  0  0  0  0
  5 31  1  0  0  0  0
  5 32  1  0  0  0  0
  6  7  2  0  0  0  0
  6  8  2  0  0  0  0
  6  9  1  0  0  0  0
  9 10  1  0  0  0  0
  9 33  1  0  0  0  0
 10 11  1  0  0  0  0
 10 34  1  0  0  0  0
 10 35  1  0  0  0  0
 11 22  1  0  0  0  0
 11 12  2  0  0  0  0
 12 13  1  0  0  0  0
 12 36  1  0  0  0  0
 13 14  2  0  0  0  0
 13 37  1  0  0  0  0
 14 15  1  0  0  0  0
 15 16  1  0  0  0  0
 15 22  2  0  0  0  0
 16 21  1  0  0  0  0
 16 17  1  0  0  0  0
 17 18  1  0  0  0  0
 17 38  1  0  0  0  0
 17 39  1  0  0  0  0
 18 19  1  0  0  0  0
 18 40  1  0  0  0  0
 18 41  1  0  0  0  0
 19 20  1  0  0  0  0
 20 21  1  0  0  0  0
 20 42  1  0  0  0  0
 20 43  1  0  0  0  0
 21 44  1  0  0  0  0
 21 45  1  0  0  0  0
 22 46  1  0  0  0  0
M  END
> <s_m_source_file>
AV-unprocessed.smi

> <i_m_source_file_index>
2110

> <i_lp_mmshare_version>
43012

> <i_f3d_flags>
0

> <s_epik_input>
W0NIM11bQ0gyXU4oW0NIMl1bQ0gzXSlTKD1PKSg9TylbTkhdW0NIMl1jMVtjSF1bY0hdbmMoW2NIXTEpTjJbQ0gyXVtDSDJdT1tDSDJdW0NIMl0y

> <s_epik_cmdline>
J2VwaWtfcHl0aG9uJywgJy1waCcsICc3LjAnLCAnLXRuJywgJzgnLCAnLW1hJywgJzIwMCcsICctbWV0YWxfYmluZGluZycsICctaW1hZScsICc8aW5maWxlLm1hZT4nLCAnLW9tYWUnLCAnPG91dGZpbGUubWFlPic=

> <r_lp_tautomer_probability>
1

> <r_epik_Ionization_Penalty>
0.0503757

> <r_epik_Ionization_Penalty_Charging>
0

> <r_epik_Ionization_Penalty_Neutral>
0.0503757

> <r_epik_State_Penalty>
0.0467666

> <r_epik_Charging_Adjusted_Penalty>
0.0467666

> <i_epik_Tot_Q>
0

> <i_epik_Tot_abs_Q>
0

> <r_epik_Metal_State_Penalty>
0.311919

> <b_epik_Metal_Only>
0

> <s_lp_Force_Field>
OPLS_2005

> <r_lp_Energy>
13.6867

> <b_lp_Chiralities_Consistent>
1

> <s_lp_Variant>
AV-unprocessed.smi:2110-1

> <Gold.Version>
5.8.1

> <Gold.Id.Protein>
6NUR|6NUR_protein|mol2

> <Gold.PLP.Fitness>
45.4098

> <Gold.PLP.PLP>
-44.0534

> <Gold.PLP.part.hbond>
-2.0000

> <Gold.PLP.part.metal>
0.0000

> <Gold.PLP.part.buried>
-5.2705

> <Gold.PLP.part.nonpolar>
-37.6094

> <Gold.PLP.part.repulsive>
0.3781

> <Gold.PLP.ligand.clash>
0.0000

> <Gold.PLP.ligand.torsion>
2.6503

> <Gold.PLP.Chemscore.Hbond>
1.0000

> <Gold.PLP.Chemscore.CHOScore>
0.0000

> <Gold.PLP.Chemscore.Metal>
0.0000

> <Gold.Chemscore.Hbonds>
donor molecule, donor type, donor heavy atom, donor atom, acceptor molecule, acceptor atom, score
      P1  H  7997  8009       L1    14  0.70

> <Gold.PLP.Chemscore.Internal.Correction>
3.6570

> <Gold.Rescore>
     Score         DG    S(hbond)    S(metal)    S(lipo)     H(rot)  DE(clash)    DE(int)     intcor
     11.85     -15.07       0.75        0.00      98.13       1.72       0.47       2.74       ----

> <Gold.Chemscore.Fitness>
11.8540

> <Gold.Chemscore.DG>
-15.0680

> <Gold.Chemscore.ZeroCoef>
-5.4800

> <Gold.Chemscore.Hbond>
0.7497

> <Gold.Chemscore.Metal>
0.0000

> <Gold.Chemscore.Lipo>
98.1314

> <Gold.Chemscore.Internal_Hbond>
0.0000

> <Gold.Chemscore.DEClash>
0.4723

> <Gold.Chemscore.DEInternal>
2.7418

> <Gold.Chemscore.Rot>
1.7177

> <Gold.Chemscore.Internal.Correction>
   9.000000E+99

> <Gold.Chemscore.Hbonds>
donor molecule, donor type, donor heavy atom, donor atom, acceptor molecule, acceptor atom, score
      P1  H  7997  8009       L1    14  0.07

> <Gold.Chemscore.Hbond.Weighted>
-2.5040

> <Gold.Chemscore.Metal.Weighted>
-0.0000

> <Gold.Chemscore.Lipo.Weighted>
-11.4814

> <Gold.Chemscore.Internal_Hbond.Weighted>
0.0000

> <Gold.Chemscore.DEClash.Weighted>
0.4723

> <Gold.Chemscore.DEInternal.Weighted>
2.7418

> <Gold.Chemscore.Rot.Weighted>
4.3974

> <Gold.Chemscore.Internal.Correction.Weighted>
   9.000000E+99

> <Gold.Protein.RotatedTorsions>
[ 6907 6896 6895 6894 ] final  154.80 input  -60.11 | X-H torsion
[ 7974 7965 7964 7962 ] final   52.77 input  175.53 | X-H torsion
[ 8008 7997 7996 7995 ] final  174.72 input   59.86 | X-H torsion
[ 10167 10162 10161 10158 ] final   89.96 input  -65.29 | X-H torsion
[ 10718 10713 10712 10709 ] final -157.17 input   66.30 | X-H torsion
[ 10763 10752 10751 10750 ] final   97.98 input  -60.55 | X-H torsion
[ 11005 11000 10999 10996 ] final -113.06 input  -57.11 | X-H torsion

> <Gold.Protein.ActiveResidues>
 VAL166  LYS551  ARG553  GLY616  TRP617  ASP618  TYR619  PRO620  LYS621  CYS622 
 ASP623  PHE694  ASN695  SER759  ASP760  ASP761  ALA762  ILE779  LEU786  VAL792 
 PHE793  MET794  SER795  GLU796  ALA797  LYS798  CYS799  TRP800  GLU811  SER814 

> <Gold.Protein.RotatedAtoms>
  152.0533  133.4029  159.4386 H   0  0  0  0  0  0  0  0  0  0  0  0  # atno 6907 bound_to 6896
  150.6869  134.3283  159.4825 H   0  0  0  0  0  0  0  0  0  0  0  0  # atno 6908 bound_to 6896
  152.1096  134.9283  160.0617 H   0  0  0  0  0  0  0  0  0  0  0  0  # atno 6909 bound_to 6896
  145.9779  139.4213  143.0150 H   0  0  0  0  0  0  0  0  0  0  0  0  # atno 7974 bound_to 7965
  156.0945  140.1427  156.9548 H   0  0  0  0  0  0  0  0  0  0  0  0  # atno 8008 bound_to 7997
  154.4663  140.0925  156.7074 H   0  0  0  0  0  0  0  0  0  0  0  0  # atno 8009 bound_to 7997
  155.4863  140.3446  155.4350 H   0  0  0  0  0  0  0  0  0  0  0  0  # atno 8010 bound_to 7997
  139.8520  144.6588  150.9158 H   0  0  0  0  0  0  0  0  0  0  0  0  # atno 10167 bound_to 10162
  156.5367  130.8545  151.2735 H   0  0  0  0  0  0  0  0  0  0  0  0  # atno 10718 bound_to 10713
  153.2835  135.4164  155.1101 H   0  0  0  0  0  0  0  0  0  0  0  0  # atno 10763 bound_to 10752
  154.8497  135.3501  154.6079 H   0  0  0  0  0  0  0  0  0  0  0  0  # atno 10764 bound_to 10752
  153.6500  135.7053  153.5270 H   0  0  0  0  0  0  0  0  0  0  0  0  # atno 10765 bound_to 10752
  141.0637  133.9494  157.2619 H   0  0  0  0  0  0  0  0  0  0  0  0  # atno 11005 bound_to 11000
  145.7812  140.9855  143.1098 LP  0  0  0  0  0  0  0  0  0  0  0  0  # atno 17320 bound_to 7965
  144.6853  139.9567  143.7479 LP  0  0  0  0  0  0  0  0  0  0  0  0  # atno 17321 bound_to 7965
  140.7786  143.3819  151.1462 LP  0  0  0  0  0  0  0  0  0  0  0  0  # atno 17342 bound_to 10162
  139.7456  143.8857  152.3062 LP  0  0  0  0  0  0  0  0  0  0  0  0  # atno 17343 bound_to 10162
  157.7412  130.9866  150.2432 LP  0  0  0  0  0  0  0  0  0  0  0  0  # atno 17370 bound_to 10713
  156.3010  130.3758  149.7751 LP  0  0  0  0  0  0  0  0  0  0  0  0  # atno 17371 bound_to 10713
  139.9456  135.0184  156.8842 LP  0  0  0  0  0  0  0  0  0  0  0  0  # atno 17394 bound_to 11000
  140.5817  134.0346  155.7466 LP  0  0  0  0  0  0  0  0  0  0  0  0  # atno 17395 bound_to 11000

$$$$
