AV-unprocessed.smi:2668|AV-procd|sdf|10339|dock5
  -GOLD-   2272014363D 1   1.00000     0.00000
 Structure written by MMmdl.
 54 55  0  0  0  0  0  0  0  0  3 V2000
  143.1377  133.7732  151.8143 C   0  0  0  0  0  0  0  0  0  0  0  0
  144.2733  133.1266  151.1103 N   0  3  0  0  0  0  0  0  0  0  0  0
  143.7804  132.3755  149.9289 C   0  0  0  0  0  0  0  0  0  0  0  0
  145.4018  134.0647  150.7989 C   0  0  2  0  0  0  0  0  0  0  0  0
  146.7703  133.3600  150.6699 C   0  0  0  0  0  0  0  0  0  0  0  0
  147.2748  132.8127  152.0185 C   0  0  0  0  0  0  0  0  0  0  0  0
  147.3854  133.8945  153.0440 N   0  3  2  0  0  0  0  0  0  0  0  0
  148.0509  133.5008  154.3407 C   0  0  0  0  0  0  0  0  0  0  0  0
  147.1378  132.5912  155.1959 C   0  0  0  0  0  0  0  0  0  0  0  0
  149.3627  132.7230  154.0689 C   0  0  0  0  0  0  0  0  0  0  0  0
  148.4187  134.7588  155.1848 C   0  0  0  0  0  0  0  0  0  0  0  0
  148.5486  134.4948  156.6189 N   0  0  0  0  0  0  0  0  0  0  0  0
  148.0394  135.2532  157.6006 C   0  0  0  0  0  0  0  0  0  0  0  0
  147.3667  136.2627  157.3974 O   0  0  0  0  0  0  0  0  0  0  0  0
  148.3758  134.7724  158.8097 N   0  0  0  0  0  0  0  0  0  0  0  0
  148.0184  135.2755  160.0897 C   0  0  0  0  0  0  0  0  0  0  0  0
  147.6955  134.3452  161.0995 C   0  0  0  0  0  0  0  0  0  0  0  0
  147.3203  134.8155  162.3722 C   0  0  0  0  0  0  0  0  0  0  0  0
  147.2735  136.2068  162.5847 C   0  0  0  0  0  0  0  0  0  0  0  0
  147.5636  137.1114  161.6261 N   0  0  0  0  0  0  0  0  0  0  0  0
  147.9253  136.6536  160.4082 C   0  0  0  0  0  0  0  0  0  0  0  0
  146.0850  134.6138  153.1976 C   0  0  0  0  0  0  0  0  0  0  0  0
  145.5890  135.1771  151.8541 C   0  0  0  0  0  0  0  0  0  0  0  0
  142.7660  134.6321  151.2540 H   0  0  0  0  0  0  0  0  0  0  0  0
  143.4164  134.1021  152.8143 H   0  0  0  0  0  0  0  0  0  0  0  0
  142.3101  133.0752  151.9465 H   0  0  0  0  0  0  0  0  0  0  0  0
  143.4865  133.0541  149.1270 H   0  0  0  0  0  0  0  0  0  0  0  0
  142.9141  131.7652  150.1868 H   0  0  0  0  0  0  0  0  0  0  0  0
  144.5309  131.6859  149.5456 H   0  0  0  0  0  0  0  0  0  0  0  0
  145.1696  134.5374  149.8432 H   0  0  0  0  0  0  0  0  0  0  0  0
  146.7569  132.5725  149.9181 H   0  0  0  0  0  0  0  0  0  0  0  0
  147.5006  134.0801  150.2973 H   0  0  0  0  0  0  0  0  0  0  0  0
  146.6103  132.0245  152.3724 H   0  0  0  0  0  0  0  0  0  0  0  0
  148.2409  132.3499  151.8270 H   0  0  0  0  0  0  0  0  0  0  0  0
  147.6432  132.2895  156.1143 H   0  0  0  0  0  0  0  0  0  0  0  0
  146.8619  131.6760  154.6724 H   0  0  0  0  0  0  0  0  0  0  0  0
  146.2176  133.0914  155.4971 H   0  0  0  0  0  0  0  0  0  0  0  0
  149.9493  132.6045  154.9809 H   0  0  0  0  0  0  0  0  0  0  0  0
  149.9943  133.2328  153.3407 H   0  0  0  0  0  0  0  0  0  0  0  0
  149.1780  131.7139  153.7005 H   0  0  0  0  0  0  0  0  0  0  0  0
  149.3674  135.1790  154.8514 H   0  0  0  0  0  0  0  0  0  0  0  0
  147.6974  135.5598  155.0115 H   0  0  0  0  0  0  0  0  0  0  0  0
  149.1061  133.6964  156.8851 H   0  0  0  0  0  0  0  0  0  0  0  0
  149.0097  133.9869  158.8174 H   0  0  0  0  0  0  0  0  0  0  0  0
  147.7384  133.2833  160.9057 H   0  0  0  0  0  0  0  0  0  0  0  0
  147.0740  134.1265  163.1667 H   0  0  0  0  0  0  0  0  0  0  0  0
  146.9898  136.6034  163.5483 H   0  0  0  0  0  0  0  0  0  0  0  0
  148.1198  137.4243  159.6788 H   0  0  0  0  0  0  0  0  0  0  0  0
  145.3311  133.9447  153.6125 H   0  0  0  0  0  0  0  0  0  0  0  0
  146.1768  135.4489  153.8889 H   0  0  0  0  0  0  0  0  0  0  0  0
  146.3256  135.8932  151.4859 H   0  0  0  0  0  0  0  0  0  0  0  0
  144.6831  135.7646  151.9955 H   0  0  0  0  0  0  0  0  0  0  0  0
  144.6351  132.4325  151.7486 H   0  0  0  0  0  0  0  0  0  0  0  0
  148.0175  134.5705  152.6386 H   0  0  0  0  0  0  0  0  0  0  0  0
  1  2  1  0  0  0  0
  1 24  1  0  0  0  0
  1 25  1  0  0  0  0
  1 26  1  0  0  0  0
  2  3  1  0  0  0  0
  2  4  1  0  0  0  0
  2 53  1  0  0  0  0
  3 27  1  0  0  0  0
  3 28  1  0  0  0  0
  3 29  1  0  0  0  0
  4 23  1  0  0  0  0
  4  5  1  0  0  0  0
  4 30  1  0  0  0  0
  5  6  1  0  0  0  0
  5 31  1  0  0  0  0
  5 32  1  0  0  0  0
  6  7  1  0  0  0  0
  6 33  1  0  0  0  0
  6 34  1  0  0  0  0
  7  8  1  0  0  0  0
  7 22  1  0  0  0  0
  7 54  1  0  0  0  0
  8  9  1  0  0  0  0
  8 10  1  0  0  0  0
  8 11  1  0  0  0  0
  9 35  1  0  0  0  0
  9 36  1  0  0  0  0
  9 37  1  0  0  0  0
 10 38  1  0  0  0  0
 10 39  1  0  0  0  0
 10 40  1  0  0  0  0
 11 12  1  0  0  0  0
 11 41  1  0  0  0  0
 11 42  1  0  0  0  0
 12 13  1  0  0  0  0
 12 43  1  0  0  0  0
 13 14  2  0  0  0  0
 13 15  1  0  0  0  0
 15 16  1  0  0  0  0
 15 44  1  0  0  0  0
 16 21  1  0  0  0  0
 16 17  2  0  0  0  0
 17 18  1  0  0  0  0
 17 45  1  0  0  0  0
 18 19  2  0  0  0  0
 18 46  1  0  0  0  0
 19 20  1  0  0  0  0
 19 47  1  0  0  0  0
 20 21  2  0  0  0  0
 21 48  1  0  0  0  0
 22 23  1  0  0  0  0
 22 49  1  0  0  0  0
 22 50  1  0  0  0  0
 23 51  1  0  0  0  0
 23 52  1  0  0  0  0
M  CHG  1   2   1
M  CHG  1   7   1
M  END
> <s_m_source_file>
AV-unprocessed.smi

> <i_m_source_file_index>
2668

> <i_lp_mmshare_version>
43012

> <i_f3d_flags>
0

> <s_epik_input>
W0NIM11OKFtDSDNdKVtDSF0xW0NIMl1bQ0gyXU4oW0NIMl1bQ0gyXTEpQyhbQ0gzXSkoW0NIM10pW0NIMl1bTkhdQyg9TylbTkhdYzJbY0hdW2NIXVtjSF1uW2NIXTI=

> <s_epik_cmdline>
J2VwaWtfcHl0aG9uJywgJy1waCcsICc3LjAnLCAnLXRuJywgJzgnLCAnLW1hJywgJzIwMCcsICctbWV0YWxfYmluZGluZycsICctaW1hZScsICc8aW5maWxlLm1hZT4nLCAnLW9tYWUnLCAnPG91dGZpbGUubWFlPic=

> <r_epik_Ionization_Penalty>
0.210461

> <r_epik_Ionization_Penalty_Charging>
0.206231

> <r_epik_Ionization_Penalty_Neutral>
0.00422959

> <r_epik_State_Penalty>
0.176025

> <r_epik_Charging_Adjusted_Penalty>
0.382256

> <i_epik_Tot_Q>
2

> <i_epik_Tot_abs_Q>
2

> <r_epik_Metal_State_Penalty>
0.176152

> <b_epik_Metal_Only>
0

> <s_lp_Force_Field>
OPLS_2005

> <r_lp_Energy>
56.664

> <b_lp_Chiralities_Consistent>
1

> <s_lp_Variant>
AV-unprocessed.smi:2668-2

> <Gold.Version>
5.8.1

> <Gold.Id.Protein>
6NUR|6NUR_protein|mol2

> <Gold.PLP.Fitness>
46.1607

> <Gold.PLP.PLP>
-38.1662

> <Gold.PLP.part.hbond>
-3.0000

> <Gold.PLP.part.metal>
0.0000

> <Gold.PLP.part.buried>
-3.8054

> <Gold.PLP.part.nonpolar>
-31.5027

> <Gold.PLP.part.repulsive>
0.1232

> <Gold.PLP.ligand.clash>
0.0000

> <Gold.PLP.ligand.torsion>
1.3950

> <Gold.PLP.Chemscore.Hbond>
3.5429

> <Gold.PLP.Chemscore.CHOScore>
0.0000

> <Gold.PLP.Chemscore.Metal>
0.0000

> <Gold.Chemscore.Hbonds>
donor molecule, donor type, donor heavy atom, donor atom, acceptor molecule, acceptor atom, score
      L1  H     7    54       P1  7948  2.00
      P1  H  6931  6943       L1    20  0.90
      P1  H  6934  6947       L1    20  0.52

> <Gold.PLP.Chemscore.Internal.Correction>
0.1560

> <Gold.Rescore>
     Score         DG    S(hbond)    S(metal)    S(lipo)     H(rot)  DE(clash)    DE(int)     intcor
     14.64     -16.11       1.03        0.00      98.27       1.69       0.14       1.32       ----

> <Gold.Chemscore.Fitness>
14.6420

> <Gold.Chemscore.DG>
-16.1083

> <Gold.Chemscore.ZeroCoef>
-5.4800

> <Gold.Chemscore.Hbond>
1.0334

> <Gold.Chemscore.Metal>
0.0000

> <Gold.Chemscore.Lipo>
98.2674

> <Gold.Chemscore.Internal_Hbond>
0.0000

> <Gold.Chemscore.DEClash>
0.1421

> <Gold.Chemscore.DEInternal>
1.3242

> <Gold.Chemscore.Rot>
1.6877

> <Gold.Chemscore.Internal.Correction>
   9.000000E+99

> <Gold.Chemscore.Hbonds>
donor molecule, donor type, donor heavy atom, donor atom, acceptor molecule, acceptor atom, score
      L1  H     7    54       P1  7948  0.52
      P1  H  6931  6943       L1    20  0.16
      P1  H  6934  6947       L1    20  0.05

> <Gold.Chemscore.Hbond.Weighted>
-3.4516

> <Gold.Chemscore.Metal.Weighted>
-0.0000

> <Gold.Chemscore.Lipo.Weighted>
-11.4973

> <Gold.Chemscore.Internal_Hbond.Weighted>
0.0000

> <Gold.Chemscore.DEClash.Weighted>
0.1421

> <Gold.Chemscore.DEInternal.Weighted>
1.3242

> <Gold.Chemscore.Rot.Weighted>
4.3205

> <Gold.Chemscore.Internal.Correction.Weighted>
   9.000000E+99

> <Gold.Protein.RotatedTorsions>
[ 6907 6896 6895 6894 ] final   -2.02 input  -60.11 | X-H torsion
[ 7974 7965 7964 7962 ] final -101.87 input  175.53 | X-H torsion
[ 8008 7997 7996 7995 ] final   63.48 input   59.86 | X-H torsion
[ 10167 10162 10161 10158 ] final    7.66 input  -65.29 | X-H torsion
[ 10718 10713 10712 10709 ] final -104.69 input   66.30 | X-H torsion
[ 10763 10752 10751 10750 ] final  -87.69 input  -60.55 | X-H torsion
[ 11005 11000 10999 10996 ] final   -5.45 input  -57.11 | X-H torsion

> <Gold.Protein.ActiveResidues>
 VAL166  LYS551  ARG553  GLY616  TRP617  ASP618  TYR619  PRO620  LYS621  CYS622 
 ASP623  PHE694  ASN695  SER759  ASP760  ASP761  ALA762  ILE779  LEU786  VAL792 
 PHE793  MET794  SER795  GLU796  ALA797  LYS798  CYS799  TRP800  GLU811  SER814 

> <Gold.Protein.RotatedAtoms>
  151.5366  135.1068  159.9915 H   0  0  0  0  0  0  0  0  0  0  0  0  # atno 6907 bound_to 6896
  152.4554  133.7709  159.6809 H   0  0  0  0  0  0  0  0  0  0  0  0  # atno 6908 bound_to 6896
  150.8496  133.7742  159.3055 H   0  0  0  0  0  0  0  0  0  0  0  0  # atno 6909 bound_to 6896
  145.2760  140.9313  143.2959 H   0  0  0  0  0  0  0  0  0  0  0  0  # atno 7974 bound_to 7965
  155.6309  140.3496  155.4682 H   0  0  0  0  0  0  0  0  0  0  0  0  # atno 8008 bound_to 7997
  156.0004  140.1212  157.0577 H   0  0  0  0  0  0  0  0  0  0  0  0  # atno 8009 bound_to 7997
  154.4247  140.1102  156.5674 H   0  0  0  0  0  0  0  0  0  0  0  0  # atno 8010 bound_to 7997
  140.6359  143.7887  150.7359 H   0  0  0  0  0  0  0  0  0  0  0  0  # atno 10167 bound_to 10162
  156.0315  130.5527  150.7433 H   0  0  0  0  0  0  0  0  0  0  0  0  # atno 10718 bound_to 10713
  154.6364  135.5404  153.7739 H   0  0  0  0  0  0  0  0  0  0  0  0  # atno 10763 bound_to 10752
  153.0311  135.6448  154.1225 H   0  0  0  0  0  0  0  0  0  0  0  0  # atno 10764 bound_to 10752
  154.1152  135.2924  155.3201 H   0  0  0  0  0  0  0  0  0  0  0  0  # atno 10765 bound_to 10752
  140.6913  133.9069  155.8620 H   0  0  0  0  0  0  0  0  0  0  0  0  # atno 11005 bound_to 11000
  144.9294  139.4316  143.6502 LP  0  0  0  0  0  0  0  0  0  0  0  0  # atno 17320 bound_to 7965
  146.3231  139.8197  142.8929 LP  0  0  0  0  0  0  0  0  0  0  0  0  # atno 17321 bound_to 7965
  140.1508  143.4359  152.2132 LP  0  0  0  0  0  0  0  0  0  0  0  0  # atno 17342 bound_to 10162
  139.5569  144.7379  151.4267 LP  0  0  0  0  0  0  0  0  0  0  0  0  # atno 17343 bound_to 10162
  157.4996  131.0917  151.0330 LP  0  0  0  0  0  0  0  0  0  0  0  0  # atno 17370 bound_to 10713
  157.0715  130.5866  149.5403 LP  0  0  0  0  0  0  0  0  0  0  0  0  # atno 17371 bound_to 10713
  141.0239  134.0851  157.4090 LP  0  0  0  0  0  0  0  0  0  0  0  0  # atno 17394 bound_to 11000
  139.8923  135.0123  156.6836 LP  0  0  0  0  0  0  0  0  0  0  0  0  # atno 17395 bound_to 11000

$$$$
