AV-unprocessed.smi:2124|AV-procd|sdf|8665|dock6
  -GOLD-   2272011413D 1   1.00000     0.00000
 Structure written by MMmdl.
 47 49  0  0  0  0  0  0  0  0  1 V2000
  146.7888  136.2826  161.0878 C   0  0  0  0  0  0  0  0  0  0  0  0
  147.8431  136.8003  160.1338 C   0  0  0  0  0  0  0  0  0  0  0  0
  147.3235  137.3283  158.9635 N   0  0  0  0  0  0  0  0  0  0  0  0
  148.2126  137.8210  158.0248 C   0  0  0  0  0  0  0  0  0  0  0  0
  147.5621  138.3762  156.7695 C   0  0  0  0  0  0  0  0  0  0  0  0
  149.5521  137.7889  158.2414 C   0  0  0  0  0  0  0  0  0  0  0  0
  150.5647  138.3133  157.2248 C   0  0  0  0  0  0  0  0  0  0  0  0
  151.5178  139.3949  157.7388 C   0  0  0  0  0  0  0  0  0  0  0  0
  152.5182  139.6986  157.0888 O   0  0  0  0  0  0  0  0  0  0  0  0
  151.1893  139.9667  158.9079 N   0  0  0  0  0  0  0  0  0  0  0  0
  151.9295  141.0275  159.5896 C   0  0  1  0  0  0  0  0  0  0  0  0
  153.2891  140.4659  160.0327 C   0  0  0  0  0  0  0  0  0  0  0  0
  152.0685  142.2526  158.6531 C   0  0  1  0  0  0  0  0  0  0  0  0
  150.7350  142.9319  158.2617 C   0  0  0  0  0  0  0  0  0  0  0  0
  151.0114  144.4226  158.5309 C   0  0  1  0  0  0  0  0  0  0  0  0
  151.0088  144.6662  160.0510 C   0  0  0  0  0  0  0  0  0  0  0  0
  152.3279  144.0114  160.4993 C   0  0  0  0  0  0  0  0  0  0  0  0
  152.8980  143.4500  159.1801 C   0  0  2  0  0  0  0  0  0  0  0  0
  152.4933  144.5430  158.1953 C   0  0  0  0  0  0  0  0  0  0  0  0
  150.0484  137.2125  159.5135 C   0  0  0  0  0  0  0  0  0  0  0  0
  151.2506  137.1499  159.7670 O   0  0  0  0  0  0  0  0  0  0  0  0
  149.1044  136.7275  160.4331 N   0  0  0  0  0  0  0  0  0  0  0  0
  146.3352  137.3659  158.7595 H   0  0  0  0  0  0  0  0  0  0  0  0
  147.2275  136.0311  162.0543 H   0  0  0  0  0  0  0  0  0  0  0  0
  146.3200  135.3860  160.6816 H   0  0  0  0  0  0  0  0  0  0  0  0
  146.0162  137.0348  161.2511 H   0  0  0  0  0  0  0  0  0  0  0  0
  147.8084  139.4310  156.6467 H   0  0  0  0  0  0  0  0  0  0  0  0
  146.4754  138.2898  156.8079 H   0  0  0  0  0  0  0  0  0  0  0  0
  147.9089  137.8354  155.8886 H   0  0  0  0  0  0  0  0  0  0  0  0
  150.0614  138.6978  156.3375 H   0  0  0  0  0  0  0  0  0  0  0  0
  151.1526  137.4685  156.8641 H   0  0  0  0  0  0  0  0  0  0  0  0
  150.3486  139.6436  159.3643 H   0  0  0  0  0  0  0  0  0  0  0  0
  151.3881  141.3224  160.4888 H   0  0  0  0  0  0  0  0  0  0  0  0
  153.8539  141.1997  160.6077 H   0  0  0  0  0  0  0  0  0  0  0  0
  153.8975  140.1728  159.1764 H   0  0  0  0  0  0  0  0  0  0  0  0
  153.1614  139.5883  160.6675 H   0  0  0  0  0  0  0  0  0  0  0  0
  152.5494  141.9093  157.7350 H   0  0  0  0  0  0  0  0  0  0  0  0
  150.5111  142.7565  157.2090 H   0  0  0  0  0  0  0  0  0  0  0  0
  149.8842  142.5749  158.8429 H   0  0  0  0  0  0  0  0  0  0  0  0
  150.3548  145.0958  157.9793 H   0  0  0  0  0  0  0  0  0  0  0  0
  151.0153  145.7336  160.2755 H   0  0  0  0  0  0  0  0  0  0  0  0
  150.1385  144.2267  160.5399 H   0  0  0  0  0  0  0  0  0  0  0  0
  152.9999  144.7647  160.9121 H   0  0  0  0  0  0  0  0  0  0  0  0
  152.1837  143.2539  161.2686 H   0  0  0  0  0  0  0  0  0  0  0  0
  153.9703  143.2562  159.2168 H   0  0  0  0  0  0  0  0  0  0  0  0
  152.7226  144.3007  157.1560 H   0  0  0  0  0  0  0  0  0  0  0  0
  152.9137  145.5215  158.4347 H   0  0  0  0  0  0  0  0  0  0  0  0
  1 24  1  0  0  0  0
  1 25  1  0  0  0  0
  1 26  1  0  0  0  0
  1  2  1  0  0  0  0
  2  3  1  0  0  0  0
  2 22  2  0  0  0  0
  3  4  1  0  0  0  0
  3 23  1  0  0  0  0
  4  6  2  0  0  0  0
  4  5  1  0  0  0  0
  5 27  1  0  0  0  0
  5 28  1  0  0  0  0
  5 29  1  0  0  0  0
  6 20  1  0  0  0  0
  6  7  1  0  0  0  0
  7  8  1  0  0  0  0
  7 30  1  0  0  0  0
  7 31  1  0  0  0  0
  8  9  2  0  0  0  0
  8 10  1  0  0  0  0
 10 11  1  0  0  0  0
 10 32  1  0  0  0  0
 11 12  1  0  0  0  0
 11 13  1  0  0  0  0
 11 33  1  0  0  0  0
 12 34  1  0  0  0  0
 12 35  1  0  0  0  0
 12 36  1  0  0  0  0
 13 18  1  0  0  0  0
 13 14  1  0  0  0  0
 13 37  1  0  0  0  0
 14 15  1  0  0  0  0
 14 38  1  0  0  0  0
 14 39  1  0  0  0  0
 15 19  1  0  0  0  0
 15 16  1  0  0  0  0
 15 40  1  0  0  0  0
 16 17  1  0  0  0  0
 16 41  1  0  0  0  0
 16 42  1  0  0  0  0
 17 18  1  0  0  0  0
 17 43  1  0  0  0  0
 17 44  1  0  0  0  0
 18 19  1  0  0  0  0
 18 45  1  0  0  0  0
 19 46  1  0  0  0  0
 19 47  1  0  0  0  0
 20 21  2  0  0  0  0
 20 22  1  0  0  0  0
M  END
> <s_m_source_file>
AV-unprocessed.smi

> <i_m_source_file_index>
2124

> <i_lp_mmshare_version>
43012

> <i_f3d_flags>
0

> <s_epik_input>
W0NIM11jMW5jKFtDSDNdKWMoYyg9TylbbkhdMSlbQ0gyXUMoPU8pW05IXVtDQEhdKFtDSDNdKVtDQEhdKFtDSDJdW0NASF0yMylbQ0BIXShbQ0gyXTMpW0NIMl1bQ0gyXTI=

> <s_epik_cmdline>
J2VwaWtfcHl0aG9uJywgJy1waCcsICc3LjAnLCAnLXRuJywgJzgnLCAnLW1hJywgJzIwMCcsICctbWV0YWxfYmluZGluZycsICctaW1hZScsICc8aW5maWxlLm1hZT4nLCAnLW9tYWUnLCAnPG91dGZpbGUubWFlPic=

> <r_lp_tautomer_probability>
0.156392

> <r_epik_Ionization_Penalty>
0.0139374

> <r_epik_Ionization_Penalty_Charging>
0.0138122

> <r_epik_Ionization_Penalty_Neutral>
0.000125146

> <r_epik_State_Penalty>
1.15342

> <r_epik_Charging_Adjusted_Penalty>
1.16723

> <i_epik_Tot_Q>
0

> <i_epik_Tot_abs_Q>
0

> <r_epik_Metal_State_Penalty>
1.3173

> <b_epik_Metal_Only>
0

> <s_lp_Force_Field>
OPLS_2005

> <r_lp_Energy>
55.9992

> <b_lp_Chiralities_Consistent>
1

> <s_lp_Variant>
AV-unprocessed.smi:2124-16

> <Gold.Version>
5.8.1

> <Gold.Id.Protein>
6NUR|6NUR_protein|mol2

> <Gold.PLP.Fitness>
46.0898

> <Gold.PLP.PLP>
-38.7689

> <Gold.PLP.part.hbond>
-2.9866

> <Gold.PLP.part.metal>
0.0000

> <Gold.PLP.part.buried>
-5.3014

> <Gold.PLP.part.nonpolar>
-31.9652

> <Gold.PLP.part.repulsive>
0.3154

> <Gold.PLP.ligand.clash>
0.0000

> <Gold.PLP.ligand.torsion>
0.2119

> <Gold.PLP.Chemscore.Hbond>
2.5768

> <Gold.PLP.Chemscore.CHOScore>
0.0000

> <Gold.PLP.Chemscore.Metal>
0.0000

> <Gold.Chemscore.Hbonds>
donor molecule, donor type, donor heavy atom, donor atom, acceptor molecule, acceptor atom, score
      P1  H  6896  6907       L1    21  0.85
      P1  H  6931  6943       L1    22  0.49
      P1  H  7997  8008       L1     9  1.00

> <Gold.PLP.Chemscore.Internal.Correction>
0.0144

> <Gold.Rescore>
     Score         DG    S(hbond)    S(metal)    S(lipo)     H(rot)  DE(clash)    DE(int)     intcor
     19.37     -20.28       1.99        0.00     105.86       1.65       0.00       0.91       ----

> <Gold.Chemscore.Fitness>
19.3721

> <Gold.Chemscore.DG>
-20.2785

> <Gold.Chemscore.ZeroCoef>
-5.4800

> <Gold.Chemscore.Hbond>
1.9897

> <Gold.Chemscore.Metal>
0.0000

> <Gold.Chemscore.Lipo>
105.8597

> <Gold.Chemscore.Internal_Hbond>
0.0000

> <Gold.Chemscore.DEClash>
0.0009

> <Gold.Chemscore.DEInternal>
0.9056

> <Gold.Chemscore.Rot>
1.6534

> <Gold.Chemscore.Internal.Correction>
   9.000000E+99

> <Gold.Chemscore.Hbonds>
donor molecule, donor type, donor heavy atom, donor atom, acceptor molecule, acceptor atom, score
      P1  H  6896  6907       L1    21  0.14
      P1  H  6931  6943       L1    22  0.02
      P1  H  7997  8008       L1     9  0.92

> <Gold.Chemscore.Hbond.Weighted>
-6.6455

> <Gold.Chemscore.Metal.Weighted>
-0.0000

> <Gold.Chemscore.Lipo.Weighted>
-12.3856

> <Gold.Chemscore.Internal_Hbond.Weighted>
0.0000

> <Gold.Chemscore.DEClash.Weighted>
0.0009

> <Gold.Chemscore.DEInternal.Weighted>
0.9056

> <Gold.Chemscore.Rot.Weighted>
4.2326

> <Gold.Chemscore.Internal.Correction.Weighted>
   9.000000E+99

> <Gold.Protein.RotatedTorsions>
[ 6907 6896 6895 6894 ] final  -12.91 input  -60.11 | X-H torsion
[ 7974 7965 7964 7962 ] final -117.05 input  175.53 | X-H torsion
[ 8008 7997 7996 7995 ] final  -42.05 input   59.86 | X-H torsion
[ 10167 10162 10161 10158 ] final  -25.89 input  -65.29 | X-H torsion
[ 10718 10713 10712 10709 ] final  140.25 input   66.30 | X-H torsion
[ 10763 10752 10751 10750 ] final  -18.45 input  -60.55 | X-H torsion
[ 11005 11000 10999 10996 ] final  113.70 input  -57.11 | X-H torsion

> <Gold.Protein.ActiveResidues>
 VAL166  LYS551  ARG553  GLY616  TRP617  ASP618  TYR619  PRO620  LYS621  CYS622 
 ASP623  PHE694  ASN695  SER759  ASP760  ASP761  ALA762  ILE779  LEU786  VAL792 
 PHE793  MET794  SER795  GLU796  ALA797  LYS798  CYS799  TRP800  GLU811  SER814 

> <Gold.Protein.RotatedAtoms>
  151.3631  135.0908  159.9440 H   0  0  0  0  0  0  0  0  0  0  0  0  # atno 6907 bound_to 6896
  152.5156  133.9239  159.7558 H   0  0  0  0  0  0  0  0  0  0  0  0  # atno 6908 bound_to 6896
  150.9637  133.6363  159.2779 H   0  0  0  0  0  0  0  0  0  0  0  0  # atno 6909 bound_to 6896
  145.0896  140.8481  143.3990 H   0  0  0  0  0  0  0  0  0  0  0  0  # atno 7974 bound_to 7965
  154.4001  140.1483  156.3291 H   0  0  0  0  0  0  0  0  0  0  0  0  # atno 8008 bound_to 7997
  155.8460  140.3460  155.5641 H   0  0  0  0  0  0  0  0  0  0  0  0  # atno 8009 bound_to 7997
  155.8036  140.0873  157.1934 H   0  0  0  0  0  0  0  0  0  0  0  0  # atno 8010 bound_to 7997
  140.7285  143.4225  151.0928 H   0  0  0  0  0  0  0  0  0  0  0  0  # atno 10167 bound_to 10162
  157.4054  131.1021  151.0509 H   0  0  0  0  0  0  0  0  0  0  0  0  # atno 10718 bound_to 10713
  153.5894  135.7003  153.5429 H   0  0  0  0  0  0  0  0  0  0  0  0  # atno 10763 bound_to 10752
  153.3191  135.4079  155.1401 H   0  0  0  0  0  0  0  0  0  0  0  0  # atno 10764 bound_to 10752
  154.8603  135.3691  154.5425 H   0  0  0  0  0  0  0  0  0  0  0  0  # atno 10765 bound_to 10752
  139.8960  134.9555  156.6780 H   0  0  0  0  0  0  0  0  0  0  0  0  # atno 11005 bound_to 11000
  145.1081  139.2776  143.5651 LP  0  0  0  0  0  0  0  0  0  0  0  0  # atno 17320 bound_to 7965
  146.3531  140.0669  142.8625 LP  0  0  0  0  0  0  0  0  0  0  0  0  # atno 17321 bound_to 7965
  139.7873  143.8269  152.3147 LP  0  0  0  0  0  0  0  0  0  0  0  0  # atno 17342 bound_to 10162
  139.8241  144.7283  150.9535 LP  0  0  0  0  0  0  0  0  0  0  0  0  # atno 17343 bound_to 10162
  157.1493  130.6177  149.5577 LP  0  0  0  0  0  0  0  0  0  0  0  0  # atno 17370 bound_to 10713
  155.9835  130.4854  150.6935 LP  0  0  0  0  0  0  0  0  0  0  0  0  # atno 17371 bound_to 10713
  140.7322  133.9049  155.8219 LP  0  0  0  0  0  0  0  0  0  0  0  0  # atno 17394 bound_to 11000
  141.0144  134.0975  157.4187 LP  0  0  0  0  0  0  0  0  0  0  0  0  # atno 17395 bound_to 11000

$$$$
