AV-unprocessed.smi:24|AV-procd|sdf|175|dock8
  -GOLD-   2262015433D 1   1.00000     0.00000
 Structure written by MMmdl.
 61 65  0  0  0  0  0  0  0  0  1 V2000
  154.8616  129.0113  155.2014 C   0  0  0  0  0  0  0  0  0  0  0  0
  154.3747  129.9217  156.1764 O   0  0  0  0  0  0  0  0  0  0  0  0
  153.0994  130.4202  156.0179 C   0  0  0  0  0  0  0  0  0  0  0  0
  152.7125  131.4751  156.8693 C   0  0  0  0  0  0  0  0  0  0  0  0
  151.4277  132.0423  156.7769 C   0  0  0  0  0  0  0  0  0  0  0  0
  150.5012  131.5568  155.8285 C   0  0  0  0  0  0  0  0  0  0  0  0
  149.1026  132.1595  155.7071 C   0  0  2  0  0  0  0  0  0  0  0  0
  148.2639  131.4524  154.6391 C   0  0  0  0  0  0  0  0  0  0  0  0
  147.9194  132.5834  153.7289 C   0  0  0  0  0  0  0  0  0  0  0  0
  147.1183  132.3774  152.5015 C   0  0  0  0  0  0  0  0  0  0  0  0
  146.4475  131.1482  152.3085 C   0  0  0  0  0  0  0  0  0  0  0  0
  145.6793  130.9532  151.1439 C   0  0  0  0  0  0  0  0  0  0  0  0
  145.5828  131.9766  150.1802 C   0  0  0  0  0  0  0  0  0  0  0  0
  146.2548  133.1996  150.3764 C   0  0  0  0  0  0  0  0  0  0  0  0
  147.0259  133.4066  151.5371 C   0  0  0  0  0  0  0  0  0  0  0  0
  148.3828  133.7157  154.1116 N   0  0  0  0  0  0  0  0  0  0  0  0
  149.0759  133.5610  155.2678 N   0  0  0  0  0  0  0  0  0  0  0  0
  149.5952  134.5949  155.9670 C   0  0  0  0  0  0  0  0  0  0  0  0
  150.1103  134.4369  157.0756 O   0  0  0  0  0  0  0  0  0  0  0  0
  149.5236  136.0077  155.3496 C   0  0  0  0  0  0  0  0  0  0  0  0
  150.1264  137.0540  156.2051 N   0  0  0  0  0  0  0  0  0  0  0  0
  149.3264  138.1612  156.5828 C   0  0  0  0  0  0  0  0  0  0  0  0
  148.1517  138.2525  156.2227 O   0  0  0  0  0  0  0  0  0  0  0  0
  149.9896  139.1662  157.4055 C   0  0  0  0  0  0  0  0  0  0  0  0
  149.3065  140.2494  157.8132 F   0  0  0  0  0  0  0  0  0  0  0  0
  151.2824  139.0278  157.7650 C   0  0  0  0  0  0  0  0  0  0  0  0
  152.0529  137.9431  157.3858 N   0  0  0  0  0  0  0  0  0  0  0  0
  153.5052  137.8080  157.7915 C   0  0  2  0  0  0  0  0  0  0  0  0
  153.6816  136.6536  158.7953 C   0  0  0  0  0  0  0  0  0  0  0  0
  154.4775  137.3015  159.9106 C   0  0  0  0  0  0  0  0  0  0  0  0
  154.0084  138.7464  159.8315 C   0  0  0  0  0  0  0  0  0  0  0  0
  153.9319  138.9779  158.4308 O   0  0  0  0  0  0  0  0  0  0  0  0
  151.4842  136.9294  156.5841 C   0  0  0  0  0  0  0  0  0  0  0  0
  152.1591  135.9626  156.2230 O   0  0  0  0  0  0  0  0  0  0  0  0
  150.8844  130.5083  154.9681 C   0  0  0  0  0  0  0  0  0  0  0  0
  152.1701  129.9411  155.0608 C   0  0  0  0  0  0  0  0  0  0  0  0
  155.8745  128.7079  155.4658 H   0  0  0  0  0  0  0  0  0  0  0  0
  154.9027  129.4700  154.2126 H   0  0  0  0  0  0  0  0  0  0  0  0
  154.2486  128.1102  155.1566 H   0  0  0  0  0  0  0  0  0  0  0  0
  153.4089  131.8545  157.6026 H   0  0  0  0  0  0  0  0  0  0  0  0
  151.1587  132.8525  157.4389 H   0  0  0  0  0  0  0  0  0  0  0  0
  148.5965  132.0929  156.6723 H   0  0  0  0  0  0  0  0  0  0  0  0
  148.8287  130.6832  154.1102 H   0  0  0  0  0  0  0  0  0  0  0  0
  147.3691  130.9991  155.0671 H   0  0  0  0  0  0  0  0  0  0  0  0
  146.5086  130.3516  153.0360 H   0  0  0  0  0  0  0  0  0  0  0  0
  145.1627  130.0172  150.9902 H   0  0  0  0  0  0  0  0  0  0  0  0
  144.9926  131.8235  149.2886 H   0  0  0  0  0  0  0  0  0  0  0  0
  146.1782  133.9810  149.6347 H   0  0  0  0  0  0  0  0  0  0  0  0
  147.5308  134.3527  151.6637 H   0  0  0  0  0  0  0  0  0  0  0  0
  150.0135  135.9989  154.3743 H   0  0  0  0  0  0  0  0  0  0  0  0
  148.4804  136.2319  155.1224 H   0  0  0  0  0  0  0  0  0  0  0  0
  151.7140  139.8091  158.3712 H   0  0  0  0  0  0  0  0  0  0  0  0
  154.0647  137.6830  156.8626 H   0  0  0  0  0  0  0  0  0  0  0  0
  152.7095  136.3229  159.1652 H   0  0  0  0  0  0  0  0  0  0  0  0
  154.1929  135.8077  158.3350 H   0  0  0  0  0  0  0  0  0  0  0  0
  154.2980  136.8467  160.8851 H   0  0  0  0  0  0  0  0  0  0  0  0
  155.5450  137.2428  159.6943 H   0  0  0  0  0  0  0  0  0  0  0  0
  153.0237  138.8598  160.2868 H   0  0  0  0  0  0  0  0  0  0  0  0
  154.6945  139.4412  160.3161 H   0  0  0  0  0  0  0  0  0  0  0  0
  150.1898  130.1306  154.2322 H   0  0  0  0  0  0  0  0  0  0  0  0
  152.4191  129.1379  154.3844 H   0  0  0  0  0  0  0  0  0  0  0  0
  1  2  1  0  0  0  0
  1 37  1  0  0  0  0
  1 38  1  0  0  0  0
  1 39  1  0  0  0  0
  2  3  1  0  0  0  0
  3 36  1  0  0  0  0
  3  4  2  0  0  0  0
  4  5  1  0  0  0  0
  4 40  1  0  0  0  0
  5  6  2  0  0  0  0
  5 41  1  0  0  0  0
  6  7  1  0  0  0  0
  6 35  1  0  0  0  0
  7 17  1  0  0  0  0
  7  8  1  0  0  0  0
  7 42  1  0  0  0  0
  8  9  1  0  0  0  0
  8 43  1  0  0  0  0
  8 44  1  0  0  0  0
  9 10  1  0  0  0  0
  9 16  2  0  0  0  0
 10 15  1  0  0  0  0
 10 11  2  0  0  0  0
 11 12  1  0  0  0  0
 11 45  1  0  0  0  0
 12 13  2  0  0  0  0
 12 46  1  0  0  0  0
 13 14  1  0  0  0  0
 13 47  1  0  0  0  0
 14 15  2  0  0  0  0
 14 48  1  0  0  0  0
 15 49  1  0  0  0  0
 16 17  1  0  0  0  0
 17 18  1  0  0  0  0
 18 19  2  0  0  0  0
 18 20  1  0  0  0  0
 20 21  1  0  0  0  0
 20 50  1  0  0  0  0
 20 51  1  0  0  0  0
 21 33  1  0  0  0  0
 21 22  1  0  0  0  0
 22 23  2  0  0  0  0
 22 24  1  0  0  0  0
 24 25  1  0  0  0  0
 24 26  2  0  0  0  0
 26 27  1  0  0  0  0
 26 52  1  0  0  0  0
 27 28  1  0  0  0  0
 27 33  1  0  0  0  0
 28 32  1  0  0  0  0
 28 29  1  0  0  0  0
 28 53  1  0  0  0  0
 29 30  1  0  0  0  0
 29 54  1  0  0  0  0
 29 55  1  0  0  0  0
 30 31  1  0  0  0  0
 30 56  1  0  0  0  0
 30 57  1  0  0  0  0
 31 32  1  0  0  0  0
 31 58  1  0  0  0  0
 31 59  1  0  0  0  0
 33 34  2  0  0  0  0
 35 36  2  0  0  0  0
 35 60  1  0  0  0  0
 36 61  1  0  0  0  0
M  END
> <s_m_source_file>
AV-unprocessed.smi

> <i_m_source_file_index>
24

> <i_lp_mmshare_version>
43012

> <i_f3d_flags>
0

> <s_epik_input>
W0NIM11PYzFbY0hdW2NIXWMoW2NIXVtjSF0xKVtDQEBIXTJbQ0gyXUMoYzNbY0hdW2NIXVtjSF1bY0hdW2NIXTMpPU5OMkMoPU8pW0NIMl1uNGMoPU8pYyhGKVtjSF1uKGM0PU8pW0NAQEhdNVtDSDJdW0NIMl1bQ0gyXU81

> <s_epik_cmdline>
J2VwaWtfcHl0aG9uJywgJy1waCcsICc3LjAnLCAnLXRuJywgJzgnLCAnLW1hJywgJzIwMCcsICctbWV0YWxfYmluZGluZycsICctaW1hZScsICc8aW5maWxlLm1hZT4nLCAnLW9tYWUnLCAnPG91dGZpbGUubWFlPic=

> <r_lp_tautomer_probability>
1

> <r_epik_Ionization_Penalty>
1.46326e-08

> <r_epik_Ionization_Penalty_Charging>
4.53232e-09

> <r_epik_Ionization_Penalty_Neutral>
1.01002e-08

> <r_epik_State_Penalty>
-0

> <r_epik_Charging_Adjusted_Penalty>
4.53232e-09

> <i_epik_Tot_Q>
0

> <i_epik_Tot_abs_Q>
0

> <r_epik_Metal_State_Penalty>
-0

> <b_epik_Metal_Only>
0

> <s_epik_Chemistry_Notes>
This compound has an imine and may undergo hydrolysis. This compound contains an acetal/aminal-like group ( X-CH(R)-Y where X, Y are N, S, or O) that may be acid/base labile, releasing an aldehyde.

> <s_lp_Force_Field>
OPLS_2005

> <r_lp_Energy>
50.6154

> <b_lp_Chiralities_Consistent>
1

> <s_lp_Variant>
AV-unprocessed.smi:24-1

> <Gold.Version>
5.8.1

> <Gold.Id.Protein>
6NUR|6NUR_protein|mol2

> <Gold.PLP.Fitness>
52.7274

> <Gold.PLP.PLP>
-46.3980

> <Gold.PLP.part.hbond>
-2.9367

> <Gold.PLP.part.metal>
0.0000

> <Gold.PLP.part.buried>
-6.7596

> <Gold.PLP.part.nonpolar>
-36.1178

> <Gold.PLP.part.repulsive>
0.1228

> <Gold.PLP.ligand.clash>
0.0253

> <Gold.PLP.ligand.torsion>
0.3362

> <Gold.PLP.Chemscore.Hbond>
2.3203

> <Gold.PLP.Chemscore.CHOScore>
0.0000

> <Gold.PLP.Chemscore.Metal>
0.0000

> <Gold.Chemscore.Hbonds>
donor molecule, donor type, donor heavy atom, donor atom, acceptor molecule, acceptor atom, score
      P1  H  6896  6907       L1    19  0.18
      P1  H  7997  8009       L1    32  1.00
      P1  H 10752 10763       L1    34  1.00

> <Gold.PLP.Chemscore.Internal.Correction>
0.0661

> <Gold.Rescore>
     Score         DG    S(hbond)    S(metal)    S(lipo)     H(rot)  DE(clash)    DE(int)     intcor
     16.84     -23.07       2.73        0.00     115.47       1.98       0.02       6.21       ----

> <Gold.Chemscore.Fitness>
16.8387

> <Gold.Chemscore.DG>
-23.0674

> <Gold.Chemscore.ZeroCoef>
-5.4800

> <Gold.Chemscore.Hbond>
2.7346

> <Gold.Chemscore.Metal>
0.0000

> <Gold.Chemscore.Lipo>
115.4702

> <Gold.Chemscore.Internal_Hbond>
0.0000

> <Gold.Chemscore.DEClash>
0.0197

> <Gold.Chemscore.DEInternal>
6.2091

> <Gold.Chemscore.Rot>
1.9750

> <Gold.Chemscore.Internal.Correction>
   9.000000E+99

> <Gold.Chemscore.Hbonds>
donor molecule, donor type, donor heavy atom, donor atom, acceptor molecule, acceptor atom, score
      P1  H  6896  6907       L1    19  0.18
      P1  H  7997  8009       L1    32  0.39
      P1  H 10752 10763       L1    34  0.96

> <Gold.Chemscore.Hbond.Weighted>
-9.1335

> <Gold.Chemscore.Metal.Weighted>
-0.0000

> <Gold.Chemscore.Lipo.Weighted>
-13.5100

> <Gold.Chemscore.Internal_Hbond.Weighted>
0.0000

> <Gold.Chemscore.DEClash.Weighted>
0.0197

> <Gold.Chemscore.DEInternal.Weighted>
6.2091

> <Gold.Chemscore.Rot.Weighted>
5.0561

> <Gold.Chemscore.Internal.Correction.Weighted>
   9.000000E+99

> <Gold.Protein.RotatedTorsions>
[ 6907 6896 6895 6894 ] final -106.98 input  -60.11 | X-H torsion
[ 7974 7965 7964 7962 ] final  -46.51 input  175.53 | X-H torsion
[ 8008 7997 7996 7995 ] final  156.57 input   59.86 | X-H torsion
[ 10167 10162 10161 10158 ] final    0.68 input  -65.29 | X-H torsion
[ 10718 10713 10712 10709 ] final  -91.86 input   66.30 | X-H torsion
[ 10763 10752 10751 10750 ] final  111.63 input  -60.55 | X-H torsion
[ 11005 11000 10999 10996 ] final   89.14 input  -57.11 | X-H torsion

> <Gold.Protein.ActiveResidues>
 VAL166  LYS551  ARG553  GLY616  TRP617  ASP618  TYR619  PRO620  LYS621  CYS622 
 ASP623  PHE694  ASN695  SER759  ASP760  ASP761  ALA762  ILE779  LEU786  VAL792 
 PHE793  MET794  SER795  GLU796  ALA797  LYS798  CYS799  TRP800  GLU811  SER814 

> <Gold.Protein.RotatedAtoms>
  150.7419  133.9894  159.3601 H   0  0  0  0  0  0  0  0  0  0  0  0  # atno 6907 bound_to 6896
  151.7841  135.0751  160.0387 H   0  0  0  0  0  0  0  0  0  0  0  0  # atno 6908 bound_to 6896
  152.3253  133.5862  159.5809 H   0  0  0  0  0  0  0  0  0  0  0  0  # atno 6909 bound_to 6896
  145.9711  140.7382  142.9410 H   0  0  0  0  0  0  0  0  0  0  0  0  # atno 7974 bound_to 7965
  156.2415  140.1909  156.6975 H   0  0  0  0  0  0  0  0  0  0  0  0  # atno 8008 bound_to 7997
  154.6206  140.0609  156.9637 H   0  0  0  0  0  0  0  0  0  0  0  0  # atno 8009 bound_to 7997
  155.1868  140.3281  155.4368 H   0  0  0  0  0  0  0  0  0  0  0  0  # atno 8010 bound_to 7997
  140.6718  143.7028  150.7938 H   0  0  0  0  0  0  0  0  0  0  0  0  # atno 10167 bound_to 10162
  155.9997  130.4964  150.5537 H   0  0  0  0  0  0  0  0  0  0  0  0  # atno 10718 bound_to 10713
  153.4662  135.3711  155.2365 H   0  0  0  0  0  0  0  0  0  0  0  0  # atno 10763 bound_to 10752
  154.8757  135.3920  154.3866 H   0  0  0  0  0  0  0  0  0  0  0  0  # atno 10764 bound_to 10752
  153.4447  135.7084  153.6211 H   0  0  0  0  0  0  0  0  0  0  0  0  # atno 10765 bound_to 10752
  139.8881  134.8533  156.3100 H   0  0  0  0  0  0  0  0  0  0  0  0  # atno 11005 bound_to 11000
  144.6837  140.2751  143.7300 LP  0  0  0  0  0  0  0  0  0  0  0  0  # atno 17320 bound_to 7965
  145.7904  139.1925  143.2106 LP  0  0  0  0  0  0  0  0  0  0  0  0  # atno 17321 bound_to 7965
  140.0715  143.5057  152.2577 LP  0  0  0  0  0  0  0  0  0  0  0  0  # atno 17342 bound_to 10162
  139.5989  144.7576  151.3218 LP  0  0  0  0  0  0  0  0  0  0  0  0  # atno 17343 bound_to 10162
  157.3457  131.0724  151.1753 LP  0  0  0  0  0  0  0  0  0  0  0  0  # atno 17370 bound_to 10713
  157.2587  130.6648  149.5964 LP  0  0  0  0  0  0  0  0  0  0  0  0  # atno 17371 bound_to 10713
  140.9856  133.7240  156.0737 LP  0  0  0  0  0  0  0  0  0  0  0  0  # atno 17394 bound_to 11000
  140.7692  134.3852  157.5511 LP  0  0  0  0  0  0  0  0  0  0  0  0  # atno 17395 bound_to 11000

$$$$
