AV-unprocessed.smi:1801|AV-procd|sdf|7268|dock7
  -GOLD-   22720 8523D 1   1.00000     0.00000
 Structure written by MMmdl.
 38 39  0  0  0  0  0  0  0  0  2 V2000
  146.9520  142.4524  154.0230 C   0  0  0  0  0  0  0  0  0  0  0  0
  147.6050  141.1004  153.6874 C   0  0  1  0  0  0  0  0  0  0  0  0
  149.0968  141.0769  154.0958 C   0  0  0  0  0  0  0  0  0  0  0  0
  149.3803  141.9636  155.2196 N   0  0  0  0  0  0  0  0  0  0  0  0
  150.3112  141.7323  156.1567 C   0  0  0  0  0  0  0  0  0  0  0  0
  151.0267  140.7301  156.1638 O   0  0  0  0  0  0  0  0  0  0  0  0
  150.3523  142.7253  157.0595 N   0  0  0  0  0  0  0  0  0  0  0  0
  151.2090  142.8474  158.1822 C   0  0  0  0  0  0  0  0  0  0  0  0
  151.0728  141.9611  159.1756 N   0  0  0  0  0  0  0  0  0  0  0  0
  151.9701  142.1965  160.2101 N   0  0  0  0  0  0  0  0  0  0  0  0
  152.7486  143.2527  159.9560 C   0  0  0  0  0  0  0  0  0  0  0  0
  152.4635  144.0662  158.4276 S   0  0  0  0  0  0  0  0  0  0  0  0
  146.8172  139.9469  154.3443 C   0  0  0  0  0  0  0  0  0  0  0  0
  146.0430  139.1504  153.3613 N   0  3  0  0  0  0  0  0  0  0  0  0
  146.8122  138.7444  152.1691 C   0  0  0  0  0  0  0  0  0  0  0  0
  146.0396  137.5627  151.5931 C   0  0  0  0  0  0  0  0  0  0  0  0
  145.5476  136.8345  152.8409 C   0  0  0  0  0  0  0  0  0  0  0  0
  145.3854  137.9348  153.8992 C   0  0  0  0  0  0  0  0  0  0  0  0
  146.9800  142.6508  155.0949 H   0  0  0  0  0  0  0  0  0  0  0  0
  145.9081  142.4725  153.7088 H   0  0  0  0  0  0  0  0  0  0  0  0
  147.4548  143.2779  153.5186 H   0  0  0  0  0  0  0  0  0  0  0  0
  147.5394  140.9800  152.6056 H   0  0  0  0  0  0  0  0  0  0  0  0
  149.3927  140.0651  154.3746 H   0  0  0  0  0  0  0  0  0  0  0  0
  149.7362  141.3581  153.2576 H   0  0  0  0  0  0  0  0  0  0  0  0
  148.8330  142.8097  155.2858 H   0  0  0  0  0  0  0  0  0  0  0  0
  149.7006  143.4850  156.9279 H   0  0  0  0  0  0  0  0  0  0  0  0
  153.4957  143.5554  160.6747 H   0  0  0  0  0  0  0  0  0  0  0  0
  147.5127  139.2871  154.8653 H   0  0  0  0  0  0  0  0  0  0  0  0
  146.1331  140.3347  155.1008 H   0  0  0  0  0  0  0  0  0  0  0  0
  146.9182  139.5646  151.4583 H   0  0  0  0  0  0  0  0  0  0  0  0
  147.8113  138.4204  152.4662 H   0  0  0  0  0  0  0  0  0  0  0  0
  145.1888  137.9231  151.0130 H   0  0  0  0  0  0  0  0  0  0  0  0
  146.6483  136.9319  150.9445 H   0  0  0  0  0  0  0  0  0  0  0  0
  144.6244  136.2818  152.6645 H   0  0  0  0  0  0  0  0  0  0  0  0
  146.3033  136.1196  153.1693 H   0  0  0  0  0  0  0  0  0  0  0  0
  145.8290  137.6159  154.8436 H   0  0  0  0  0  0  0  0  0  0  0  0
  144.3335  138.1549  154.0855 H   0  0  0  0  0  0  0  0  0  0  0  0
  145.2989  139.7415  153.0186 H   0  0  0  0  0  0  0  0  0  0  0  0
  1  2  1  0  0  0  0
  1 19  1  0  0  0  0
  1 20  1  0  0  0  0
  1 21  1  0  0  0  0
  2  3  1  0  0  0  0
  2 13  1  0  0  0  0
  2 22  1  0  0  0  0
  3  4  1  0  0  0  0
  3 23  1  0  0  0  0
  3 24  1  0  0  0  0
  4  5  1  0  0  0  0
  4 25  1  0  0  0  0
  5  6  2  0  0  0  0
  5  7  1  0  0  0  0
  7  8  1  0  0  0  0
  7 26  1  0  0  0  0
  8 12  1  0  0  0  0
  8  9  2  0  0  0  0
  9 10  1  0  0  0  0
 10 11  2  0  0  0  0
 11 12  1  0  0  0  0
 11 27  1  0  0  0  0
 13 14  1  0  0  0  0
 13 28  1  0  0  0  0
 13 29  1  0  0  0  0
 14 18  1  0  0  0  0
 14 15  1  0  0  0  0
 14 38  1  0  0  0  0
 15 16  1  0  0  0  0
 15 30  1  0  0  0  0
 15 31  1  0  0  0  0
 16 17  1  0  0  0  0
 16 32  1  0  0  0  0
 16 33  1  0  0  0  0
 17 18  1  0  0  0  0
 17 34  1  0  0  0  0
 17 35  1  0  0  0  0
 18 36  1  0  0  0  0
 18 37  1  0  0  0  0
M  CHG  1  14   1
M  END
> <s_m_source_file>
AV-unprocessed.smi

> <i_m_source_file_index>
1801

> <i_lp_mmshare_version>
43012

> <i_f3d_flags>
0

> <s_epik_input>
W0NIMl0xW0NIMl1bQ0gyXVtDSDJdTjFbQ0gyXVtDQEhdKFtDSDNdKVtDSDJdW05IXUMoPU8pW05IXWMybm5bY0hdczI=

> <s_epik_cmdline>
J2VwaWtfcHl0aG9uJywgJy1waCcsICc3LjAnLCAnLXRuJywgJzgnLCAnLW1hJywgJzIwMCcsICctbWV0YWxfYmluZGluZycsICctaW1hZScsICc8aW5maWxlLm1hZT4nLCAnLW9tYWUnLCAnPG91dGZpbGUubWFlPic=

> <r_lp_tautomer_probability>
1

> <r_epik_Ionization_Penalty>
0.00281598

> <r_epik_Ionization_Penalty_Charging>
0.000371708

> <r_epik_Ionization_Penalty_Neutral>
0.00244427

> <r_epik_State_Penalty>
-0

> <r_epik_Charging_Adjusted_Penalty>
0.000371708

> <i_epik_Tot_Q>
1

> <i_epik_Tot_abs_Q>
1

> <r_epik_Metal_State_Penalty>
0.350595

> <b_epik_Metal_Only>
0

> <s_lp_Force_Field>
OPLS_2005

> <r_lp_Energy>
27.8609

> <b_lp_Chiralities_Consistent>
1

> <s_lp_Variant>
AV-unprocessed.smi:1801-2

> <Gold.Version>
5.8.1

> <Gold.Id.Protein>
6NUR|6NUR_protein|mol2

> <Gold.PLP.Fitness>
44.7141

> <Gold.PLP.PLP>
-36.9524

> <Gold.PLP.part.hbond>
-4.0920

> <Gold.PLP.part.metal>
0.0000

> <Gold.PLP.part.buried>
-1.2987

> <Gold.PLP.part.nonpolar>
-31.3413

> <Gold.PLP.part.repulsive>
0.2349

> <Gold.PLP.ligand.clash>
0.0000

> <Gold.PLP.ligand.torsion>
2.0009

> <Gold.PLP.Chemscore.Hbond>
3.9040

> <Gold.PLP.Chemscore.CHOScore>
0.0000

> <Gold.PLP.Chemscore.Metal>
0.0000

> <Gold.Chemscore.Hbonds>
donor molecule, donor type, donor heavy atom, donor atom, acceptor molecule, acceptor atom, score
      L1  H     4    25       P1  8028  0.91
      L1  H     7    26       P1  8028  0.94
      L1  H    14    38       P1 10175  2.00

> <Gold.PLP.Chemscore.Internal.Correction>
0.0514

> <Gold.Rescore>
     Score         DG    S(hbond)    S(metal)    S(lipo)     H(rot)  DE(clash)    DE(int)     intcor
     16.98     -19.27       2.96        0.00      76.41       1.97       0.27       2.01       ----

> <Gold.Chemscore.Fitness>
16.9837

> <Gold.Chemscore.DG>
-19.2662

> <Gold.Chemscore.ZeroCoef>
-5.4800

> <Gold.Chemscore.Hbond>
2.9585

> <Gold.Chemscore.Metal>
0.0000

> <Gold.Chemscore.Lipo>
76.4064

> <Gold.Chemscore.Internal_Hbond>
0.0000

> <Gold.Chemscore.DEClash>
0.2730

> <Gold.Chemscore.DEInternal>
2.0095

> <Gold.Chemscore.Rot>
1.9667

> <Gold.Chemscore.Internal.Correction>
   9.000000E+99

> <Gold.Chemscore.Hbonds>
donor molecule, donor type, donor heavy atom, donor atom, acceptor molecule, acceptor atom, score
      L1  H     4    25       P1  8028  0.89
      L1  H     7    26       P1  8028  0.89
      L1  H    14    38       P1 10175  1.00

> <Gold.Chemscore.Hbond.Weighted>
-9.8815

> <Gold.Chemscore.Metal.Weighted>
-0.0000

> <Gold.Chemscore.Lipo.Weighted>
-8.9395

> <Gold.Chemscore.Internal_Hbond.Weighted>
0.0000

> <Gold.Chemscore.DEClash.Weighted>
0.2730

> <Gold.Chemscore.DEInternal.Weighted>
2.0095

> <Gold.Chemscore.Rot.Weighted>
5.0348

> <Gold.Chemscore.Internal.Correction.Weighted>
   9.000000E+99

> <Gold.Protein.RotatedTorsions>
[ 6907 6896 6895 6894 ] final   -8.74 input  -60.11 | X-H torsion
[ 7974 7965 7964 7962 ] final    1.65 input  175.53 | X-H torsion
[ 8008 7997 7996 7995 ] final -119.97 input   59.86 | X-H torsion
[ 10167 10162 10161 10158 ] final   16.67 input  -65.29 | X-H torsion
[ 10718 10713 10712 10709 ] final   -6.33 input   66.30 | X-H torsion
[ 10763 10752 10751 10750 ] final   64.33 input  -60.55 | X-H torsion
[ 11005 11000 10999 10996 ] final  -30.75 input  -57.11 | X-H torsion

> <Gold.Protein.ActiveResidues>
 VAL166  LYS551  ARG553  GLY616  TRP617  ASP618  TYR619  PRO620  LYS621  CYS622 
 ASP623  PHE694  ASN695  SER759  ASP760  ASP761  ALA762  ILE779  LEU786  VAL792 
 PHE793  MET794  SER795  GLU796  ALA797  LYS798  CYS799  TRP800  GLU811  SER814 

> <Gold.Protein.RotatedAtoms>
  151.4288  135.1007  159.9635 H   0  0  0  0  0  0  0  0  0  0  0  0  # atno 6907 bound_to 6896
  152.4963  133.8637  159.7274 H   0  0  0  0  0  0  0  0  0  0  0  0  # atno 6908 bound_to 6896
  150.9170  133.6869  159.2869 H   0  0  0  0  0  0  0  0  0  0  0  0  # atno 6909 bound_to 6896
  146.2441  140.0954  142.8350 H   0  0  0  0  0  0  0  0  0  0  0  0  # atno 7974 bound_to 7965
  155.1243  140.0399  157.2758 H   0  0  0  0  0  0  0  0  0  0  0  0  # atno 8008 bound_to 7997
  154.6590  140.2586  155.7104 H   0  0  0  0  0  0  0  0  0  0  0  0  # atno 8009 bound_to 7997
  156.2611  140.2821  156.1055 H   0  0  0  0  0  0  0  0  0  0  0  0  # atno 8010 bound_to 7997
  140.5781  143.9034  150.6767 H   0  0  0  0  0  0  0  0  0  0  0  0  # atno 10167 bound_to 10162
  156.7335  130.5187  149.5840 H   0  0  0  0  0  0  0  0  0  0  0  0  # atno 10718 bound_to 10713
  153.0052  135.5397  154.6493 H   0  0  0  0  0  0  0  0  0  0  0  0  # atno 10763 bound_to 10752
  154.5729  135.2843  155.0811 H   0  0  0  0  0  0  0  0  0  0  0  0  # atno 10764 bound_to 10752
  154.1970  135.6490  153.5128 H   0  0  0  0  0  0  0  0  0  0  0  0  # atno 10765 bound_to 10752
  140.9409  133.7279  156.1075 H   0  0  0  0  0  0  0  0  0  0  0  0  # atno 11005 bound_to 11000
  145.0614  140.9090  143.4936 LP  0  0  0  0  0  0  0  0  0  0  0  0  # atno 17320 bound_to 7965
  145.1070  139.2783  143.5657 LP  0  0  0  0  0  0  0  0  0  0  0  0  # atno 17321 bound_to 7965
  140.2526  143.3582  152.1392 LP  0  0  0  0  0  0  0  0  0  0  0  0  # atno 17342 bound_to 10162
  139.5154  144.6962  151.5623 LP  0  0  0  0  0  0  0  0  0  0  0  0  # atno 17343 bound_to 10162
  156.1513  130.6311  151.0598 LP  0  0  0  0  0  0  0  0  0  0  0  0  # atno 17370 bound_to 10713
  157.6849  131.0828  150.7271 LP  0  0  0  0  0  0  0  0  0  0  0  0  # atno 17371 bound_to 10713
  140.7735  134.3806  157.5503 LP  0  0  0  0  0  0  0  0  0  0  0  0  # atno 17394 bound_to 11000
  139.8820  134.9037  156.2860 LP  0  0  0  0  0  0  0  0  0  0  0  0  # atno 17395 bound_to 11000

$$$$
