AV-unprocessed.smi:1365|AV-procd|sdf|5568|dock2
  -GOLD-   22720 5163D 1   1.00000     0.00000
 Structure written by MMmdl.
 42 43  0  0  0  0  0  0  0  0  2 V2000
  147.3800  135.8174  162.8498 C   0  0  0  0  0  0  0  0  0  0  0  0
  147.7564  135.8857  161.4091 C   0  0  0  0  0  0  0  0  0  0  0  0
  147.5098  135.0661  160.3436 C   0  0  0  0  0  0  0  0  0  0  0  0
  148.1704  135.7256  159.2731 C   0  0  0  0  0  0  0  0  0  0  0  0
  148.1596  135.1802  157.9636 N   0  0  0  0  0  0  0  0  0  0  0  0
  149.2172  134.9302  157.1729 C   0  0  0  0  0  0  0  0  0  0  0  0
  150.3917  135.1597  157.4638 O   0  0  0  0  0  0  0  0  0  0  0  0
  148.8391  134.3843  156.0076 N   0  0  0  0  0  0  0  0  0  0  0  0
  149.7520  133.9461  154.9579 C   0  0  0  0  0  0  0  0  0  0  0  0
  149.0137  133.6418  153.6437 C   0  0  0  0  0  0  0  0  0  0  0  0
  148.0637  132.4397  153.7786 C   0  0  0  0  0  0  0  0  0  0  0  0
  147.4427  132.0615  152.4841 N   0  3  0  0  0  0  0  0  0  0  0  0
  146.4870  130.9313  152.6262 C   0  0  0  0  0  0  0  0  0  0  0  0
  145.9598  130.4704  151.2565 C   0  0  0  0  0  0  0  0  0  0  0  0
  145.3135  131.6354  150.4964 C   0  0  0  0  0  0  0  0  0  0  0  0
  146.3047  132.8010  150.3877 C   0  0  0  0  0  0  0  0  0  0  0  0
  146.8244  133.2142  151.7750 C   0  0  0  0  0  0  0  0  0  0  0  0
  148.7617  136.8492  159.6494 N   0  0  0  0  0  0  0  0  0  0  0  0
  148.5001  136.9571  161.0205 O   0  0  0  0  0  0  0  0  0  0  0  0
  146.5262  135.1560  162.9978 H   0  0  0  0  0  0  0  0  0  0  0  0
  147.1117  136.8037  163.2288 H   0  0  0  0  0  0  0  0  0  0  0  0
  148.2096  135.4387  163.4471 H   0  0  0  0  0  0  0  0  0  0  0  0
  146.9516  134.1415  160.3366 H   0  0  0  0  0  0  0  0  0  0  0  0
  147.2509  134.9342  157.5997 H   0  0  0  0  0  0  0  0  0  0  0  0
  147.8533  134.2346  155.8483 H   0  0  0  0  0  0  0  0  0  0  0  0
  150.5217  134.7034  154.7992 H   0  0  0  0  0  0  0  0  0  0  0  0
  150.2667  133.0516  155.3097 H   0  0  0  0  0  0  0  0  0  0  0  0
  148.4652  134.5310  153.3335 H   0  0  0  0  0  0  0  0  0  0  0  0
  149.7380  133.4344  152.8548 H   0  0  0  0  0  0  0  0  0  0  0  0
  148.6450  131.5972  154.1562 H   0  0  0  0  0  0  0  0  0  0  0  0
  147.2891  132.6347  154.5218 H   0  0  0  0  0  0  0  0  0  0  0  0
  146.9793  130.0912  153.1179 H   0  0  0  0  0  0  0  0  0  0  0  0
  145.6570  131.2329  153.2674 H   0  0  0  0  0  0  0  0  0  0  0  0
  146.7803  130.0579  150.6677 H   0  0  0  0  0  0  0  0  0  0  0  0
  145.2371  129.6640  151.3864 H   0  0  0  0  0  0  0  0  0  0  0  0
  145.0000  131.3116  149.5034 H   0  0  0  0  0  0  0  0  0  0  0  0
  144.4131  131.9629  151.0180 H   0  0  0  0  0  0  0  0  0  0  0  0
  147.1438  132.5117  149.7536 H   0  0  0  0  0  0  0  0  0  0  0  0
  145.8271  133.6516  149.9002 H   0  0  0  0  0  0  0  0  0  0  0  0
  146.0059  133.6151  152.3754 H   0  0  0  0  0  0  0  0  0  0  0  0
  147.5490  134.0187  151.6546 H   0  0  0  0  0  0  0  0  0  0  0  0
  148.1918  131.7207  151.8980 H   0  0  0  0  0  0  0  0  0  0  0  0
  1  2  1  0  0  0  0
  1 20  1  0  0  0  0
  1 21  1  0  0  0  0
  1 22  1  0  0  0  0
  2 19  1  0  0  0  0
  2  3  2  0  0  0  0
  3  4  1  0  0  0  0
  3 23  1  0  0  0  0
  4  5  1  0  0  0  0
  4 18  2  0  0  0  0
  5  6  1  0  0  0  0
  5 24  1  0  0  0  0
  6  7  2  0  0  0  0
  6  8  1  0  0  0  0
  8  9  1  0  0  0  0
  8 25  1  0  0  0  0
  9 10  1  0  0  0  0
  9 26  1  0  0  0  0
  9 27  1  0  0  0  0
 10 11  1  0  0  0  0
 10 28  1  0  0  0  0
 10 29  1  0  0  0  0
 11 12  1  0  0  0  0
 11 30  1  0  0  0  0
 11 31  1  0  0  0  0
 12 17  1  0  0  0  0
 12 13  1  0  0  0  0
 12 42  1  0  0  0  0
 13 14  1  0  0  0  0
 13 32  1  0  0  0  0
 13 33  1  0  0  0  0
 14 15  1  0  0  0  0
 14 34  1  0  0  0  0
 14 35  1  0  0  0  0
 15 16  1  0  0  0  0
 15 36  1  0  0  0  0
 15 37  1  0  0  0  0
 16 17  1  0  0  0  0
 16 38  1  0  0  0  0
 16 39  1  0  0  0  0
 17 40  1  0  0  0  0
 17 41  1  0  0  0  0
 18 19  1  0  0  0  0
M  CHG  1  12   1
M  END
> <s_m_source_file>
AV-unprocessed.smi

> <i_m_source_file_index>
1365

> <i_lp_mmshare_version>
43012

> <i_f3d_flags>
0

> <s_epik_input>
W0NIM11jMVtjSF1jKG5vMSlbTkhdQyg9TylbTkhdW0NIMl1bQ0gyXVtDSDJdTjJbQ0gyXVtDSDJdW0NIMl1bQ0gyXVtDSDJdMg==

> <s_epik_cmdline>
J2VwaWtfcHl0aG9uJywgJy1waCcsICc3LjAnLCAnLXRuJywgJzgnLCAnLW1hJywgJzIwMCcsICctbWV0YWxfYmluZGluZycsICctaW1hZScsICc8aW5maWxlLm1hZT4nLCAnLW9tYWUnLCAnPG91dGZpbGUubWFlPic=

> <r_epik_Ionization_Penalty>
0.000389345

> <r_epik_Ionization_Penalty_Charging>
0.000358942

> <r_epik_Ionization_Penalty_Neutral>
3.04028e-05

> <r_epik_State_Penalty>
0.000218395

> <r_epik_Charging_Adjusted_Penalty>
0.000577337

> <i_epik_Tot_Q>
1

> <i_epik_Tot_abs_Q>
1

> <r_epik_Metal_State_Penalty>
0.0112716

> <b_epik_Metal_Only>
0

> <s_lp_Force_Field>
OPLS_2005

> <r_lp_Energy>
13.5089

> <b_lp_Chiralities_Consistent>
1

> <s_lp_Variant>
AV-unprocessed.smi:1365-1

> <Gold.Version>
5.8.1

> <Gold.Id.Protein>
6NUR|6NUR_protein|mol2

> <Gold.PLP.Fitness>
41.7164

> <Gold.PLP.PLP>
-35.1689

> <Gold.PLP.part.hbond>
-3.2747

> <Gold.PLP.part.metal>
0.0000

> <Gold.PLP.part.buried>
-4.6227

> <Gold.PLP.part.nonpolar>
-28.1891

> <Gold.PLP.part.repulsive>
0.0690

> <Gold.PLP.ligand.clash>
0.0000

> <Gold.PLP.ligand.torsion>
0.5807

> <Gold.PLP.Chemscore.Hbond>
2.5600

> <Gold.PLP.Chemscore.CHOScore>
0.0000

> <Gold.PLP.Chemscore.Metal>
0.0000

> <Gold.Chemscore.Hbonds>
donor molecule, donor type, donor heavy atom, donor atom, acceptor molecule, acceptor atom, score
      L1  H    12    42       P1 10747  1.00
      P1  H  6896  6909       L1     7  0.43
      P1  H  6931  6943       L1    19  1.00

> <Gold.PLP.Chemscore.Internal.Correction>
0.0288

> <Gold.Rescore>
     Score         DG    S(hbond)    S(metal)    S(lipo)     H(rot)  DE(clash)    DE(int)     intcor
     18.58     -19.07       2.53        0.00      83.85       1.82       0.01       0.48       ----

> <Gold.Chemscore.Fitness>
18.5772

> <Gold.Chemscore.DG>
-19.0673

> <Gold.Chemscore.ZeroCoef>
-5.4800

> <Gold.Chemscore.Hbond>
2.5259

> <Gold.Chemscore.Metal>
0.0000

> <Gold.Chemscore.Lipo>
83.8475

> <Gold.Chemscore.Internal_Hbond>
0.0000

> <Gold.Chemscore.DEClash>
0.0141

> <Gold.Chemscore.DEInternal>
0.4760

> <Gold.Chemscore.Rot>
1.8201

> <Gold.Chemscore.Internal.Correction>
   9.000000E+99

> <Gold.Chemscore.Hbonds>
donor molecule, donor type, donor heavy atom, donor atom, acceptor molecule, acceptor atom, score
      L1  H    12    42       P1 10747  0.95
      P1  H  6896  6909       L1     7  0.23
      P1  H  6931  6943       L1    19  0.96

> <Gold.Chemscore.Hbond.Weighted>
-8.4365

> <Gold.Chemscore.Metal.Weighted>
-0.0000

> <Gold.Chemscore.Lipo.Weighted>
-9.8102

> <Gold.Chemscore.Internal_Hbond.Weighted>
0.0000

> <Gold.Chemscore.DEClash.Weighted>
0.0141

> <Gold.Chemscore.DEInternal.Weighted>
0.4760

> <Gold.Chemscore.Rot.Weighted>
4.6593

> <Gold.Chemscore.Internal.Correction.Weighted>
   9.000000E+99

> <Gold.Protein.RotatedTorsions>
[ 6907 6896 6895 6894 ] final   32.79 input  -60.11 | X-H torsion
[ 7974 7965 7964 7962 ] final  131.82 input  175.53 | X-H torsion
[ 8008 7997 7996 7995 ] final -160.75 input   59.86 | X-H torsion
[ 10167 10162 10161 10158 ] final  164.74 input  -65.29 | X-H torsion
[ 10718 10713 10712 10709 ] final   43.07 input   66.30 | X-H torsion
[ 10763 10752 10751 10750 ] final -120.71 input  -60.55 | X-H torsion
[ 11005 11000 10999 10996 ] final  124.16 input  -57.11 | X-H torsion

> <Gold.Protein.ActiveResidues>
 VAL166  LYS551  ARG553  GLY616  TRP617  ASP618  TYR619  PRO620  LYS621  CYS622 
 ASP623  PHE694  ASN695  SER759  ASP760  ASP761  ALA762  ILE779  LEU786  VAL792 
 PHE793  MET794  SER795  GLU796  ALA797  LYS798  CYS799  TRP800  GLU811  SER814 

> <Gold.Protein.RotatedAtoms>
  152.0794  134.9481  160.0573 H   0  0  0  0  0  0  0  0  0  0  0  0  # atno 6907 bound_to 6896
  152.0776  133.4132  159.4495 H   0  0  0  0  0  0  0  0  0  0  0  0  # atno 6908 bound_to 6896
  150.6836  134.2939  159.4721 H   0  0  0  0  0  0  0  0  0  0  0  0  # atno 6909 bound_to 6896
  145.0032  139.4291  143.5281 H   0  0  0  0  0  0  0  0  0  0  0  0  # atno 7974 bound_to 7965
  155.7821  140.0866  157.2053 H   0  0  0  0  0  0  0  0  0  0  0  0  # atno 8008 bound_to 7997
  154.3989  140.1506  156.3122 H   0  0  0  0  0  0  0  0  0  0  0  0  # atno 8009 bound_to 7997
  155.8643  140.3428  155.5780 H   0  0  0  0  0  0  0  0  0  0  0  0  # atno 8010 bound_to 7997
  139.4894  144.4204  151.9194 H   0  0  0  0  0  0  0  0  0  0  0  0  # atno 10167 bound_to 10162
  157.4118  130.7919  149.7437 H   0  0  0  0  0  0  0  0  0  0  0  0  # atno 10718 bound_to 10713
  154.8651  135.4193  154.2502 H   0  0  0  0  0  0  0  0  0  0  0  0  # atno 10763 bound_to 10752
  153.3450  135.6995  153.6841 H   0  0  0  0  0  0  0  0  0  0  0  0  # atno 10764 bound_to 10752
  153.5804  135.3574  155.2845 H   0  0  0  0  0  0  0  0  0  0  0  0  # atno 10765 bound_to 10752
  139.9345  134.9640  156.8367 H   0  0  0  0  0  0  0  0  0  0  0  0  # atno 11005 bound_to 11000
  146.3456  139.9433  142.8738 LP  0  0  0  0  0  0  0  0  0  0  0  0  # atno 17320 bound_to 7965
  145.2124  140.9901  143.4093 LP  0  0  0  0  0  0  0  0  0  0  0  0  # atno 17321 bound_to 7965
  140.3648  144.2929  150.5928 LP  0  0  0  0  0  0  0  0  0  0  0  0  # atno 17342 bound_to 10162
  140.5371  143.2231  151.8144 LP  0  0  0  0  0  0  0  0  0  0  0  0  # atno 17343 bound_to 10162
  155.9853  130.3984  150.3268 LP  0  0  0  0  0  0  0  0  0  0  0  0  # atno 17370 bound_to 10713
  157.1407  131.0296  151.2929 LP  0  0  0  0  0  0  0  0  0  0  0  0  # atno 17371 bound_to 10713
  140.6111  134.0081  155.7577 LP  0  0  0  0  0  0  0  0  0  0  0  0  # atno 17394 bound_to 11000
  141.0952  133.9854  157.3171 LP  0  0  0  0  0  0  0  0  0  0  0  0  # atno 17395 bound_to 11000

$$$$
