AV-unprocessed.smi:304|AV-procd|sdf|2279|dock4
  -GOLD-   2262022173D 1   1.00000     0.00000
 Structure written by MMmdl.
 37 39  0  0  0  0  0  0  0  0  2 V2000
  152.2328  137.8825  154.4194 O   0  0  0  0  0  0  0  0  0  0  0  0
  151.4615  139.0124  154.7775 C   0  0  1  0  0  0  0  0  0  0  0  0
  149.9854  138.5934  154.8507 C   0  0  0  0  0  0  0  0  0  0  0  0
  149.2127  139.5302  154.1198 O   0  0  0  0  0  0  0  0  0  0  0  0
  147.8427  139.1733  154.0389 C   0  0  0  0  0  0  0  0  0  0  0  0
  147.0455  140.3428  154.5190 C   0  0  0  0  0  0  0  0  0  0  0  0
  146.0474  140.3333  155.4600 C   0  0  0  0  0  0  0  0  0  0  0  0
  145.4715  141.6184  155.6836 C   0  0  0  0  0  0  0  0  0  0  0  0
  146.0302  142.5943  154.9021 C   0  0  0  0  0  0  0  0  0  0  0  0
  147.2793  141.9507  153.8719 S   0  0  0  0  0  0  0  0  0  0  0  0
  151.9752  139.5585  156.1245 C   0  0  0  0  0  0  0  0  0  0  0  0
  151.3526  140.8367  156.4940 N   0  0  0  0  0  0  0  0  0  0  0  0
  150.4051  141.5678  155.8465 C   0  0  0  0  0  0  0  0  0  0  0  0
  150.1534  142.6736  156.6010 N   0  3  0  0  0  0  0  0  0  0  0  0
  150.9517  142.6480  157.7471 C   0  0  0  0  0  0  0  0  0  0  0  0
  151.0549  143.5420  158.8080 C   0  0  0  0  0  0  0  0  0  0  0  0
  151.9748  143.2155  159.8266 C   0  0  0  0  0  0  0  0  0  0  0  0
  152.1166  144.0523  160.8815 F   0  0  0  0  0  0  0  0  0  0  0  0
  152.7479  142.0363  159.7673 C   0  0  0  0  0  0  0  0  0  0  0  0
  153.6177  141.7599  160.7673 F   0  0  0  0  0  0  0  0  0  0  0  0
  152.6340  141.1372  158.6864 C   0  0  0  0  0  0  0  0  0  0  0  0
  151.7244  141.4697  157.6840 C   0  0  0  0  0  0  0  0  0  0  0  0
  151.7868  137.1079  154.7277 H   0  0  0  0  0  0  0  0  0  0  0  0
  151.5837  139.7787  154.0109 H   0  0  0  0  0  0  0  0  0  0  0  0
  149.8413  137.5776  154.4779 H   0  0  0  0  0  0  0  0  0  0  0  0
  149.6496  138.6088  155.8889 H   0  0  0  0  0  0  0  0  0  0  0  0
  147.5704  138.9323  153.0104 H   0  0  0  0  0  0  0  0  0  0  0  0
  147.6392  138.2967  154.6559 H   0  0  0  0  0  0  0  0  0  0  0  0
  145.7152  139.4555  155.9941 H   0  0  0  0  0  0  0  0  0  0  0  0
  144.6779  141.7788  156.3982 H   0  0  0  0  0  0  0  0  0  0  0  0
  145.7848  143.6454  154.8670 H   0  0  0  0  0  0  0  0  0  0  0  0
  151.7994  138.8445  156.9302 H   0  0  0  0  0  0  0  0  0  0  0  0
  153.0535  139.7185  156.0826 H   0  0  0  0  0  0  0  0  0  0  0  0
  149.9344  141.3130  154.9077 H   0  0  0  0  0  0  0  0  0  0  0  0
  150.4641  144.4448  158.8579 H   0  0  0  0  0  0  0  0  0  0  0  0
  153.2283  140.2365  158.6508 H   0  0  0  0  0  0  0  0  0  0  0  0
  149.4834  143.3895  156.3500 H   0  0  0  0  0  0  0  0  0  0  0  0
  1  2  1  0  0  0  0
  1 23  1  0  0  0  0
  2  3  1  0  0  0  0
  2 11  1  0  0  0  0
  2 24  1  0  0  0  0
  3  4  1  0  0  0  0
  3 25  1  0  0  0  0
  3 26  1  0  0  0  0
  4  5  1  0  0  0  0
  5  6  1  0  0  0  0
  5 27  1  0  0  0  0
  5 28  1  0  0  0  0
  6 10  1  0  0  0  0
  6  7  2  0  0  0  0
  7  8  1  0  0  0  0
  7 29  1  0  0  0  0
  8  9  2  0  0  0  0
  8 30  1  0  0  0  0
  9 10  1  0  0  0  0
  9 31  1  0  0  0  0
 11 12  1  0  0  0  0
 11 32  1  0  0  0  0
 11 33  1  0  0  0  0
 12 22  1  0  0  0  0
 12 13  1  0  0  0  0
 13 14  2  0  0  0  0
 13 34  1  0  0  0  0
 14 15  1  0  0  0  0
 14 37  1  0  0  0  0
 15 22  2  0  0  0  0
 15 16  1  0  0  0  0
 16 17  2  0  0  0  0
 16 35  1  0  0  0  0
 17 18  1  0  0  0  0
 17 19  1  0  0  0  0
 19 20  1  0  0  0  0
 19 21  2  0  0  0  0
 21 22  1  0  0  0  0
 21 36  1  0  0  0  0
M  CHG  1  14   1
M  END
> <s_m_source_file>
AV-unprocessed.smi

> <i_m_source_file_index>
304

> <i_lp_mmshare_version>
43012

> <i_f3d_flags>
0

> <s_epik_input>
W2NIXTFjKEYpYyhGKVtjSF1jKGMxMiluKFtjSF1uMilbQ0gyXVtDQEhdKFtPSF0pW0NIMl1PW0NIMl1jM1tjSF1bY0hdW2NIXXMz

> <s_epik_cmdline>
J2VwaWtfcHl0aG9uJywgJy1waCcsICc3LjAnLCAnLXRuJywgJzgnLCAnLW1hJywgJzIwMCcsICctbWV0YWxfYmluZGluZycsICctaW1hZScsICc8aW5maWxlLm1hZT4nLCAnLW9tYWUnLCAnPG91dGZpbGUubWFlPic=

> <r_epik_Ionization_Penalty>
2.17745

> <r_epik_Ionization_Penalty_Charging>
2.17744

> <r_epik_Ionization_Penalty_Neutral>
1.26231e-06

> <r_epik_State_Penalty>
2.31922

> <r_epik_Charging_Adjusted_Penalty>
4.49666

> <i_epik_Tot_Q>
1

> <i_epik_Tot_abs_Q>
1

> <r_epik_Metal_State_Penalty>
6.40003

> <b_epik_Metal_Only>
0

> <s_lp_Force_Field>
OPLS_2005

> <r_lp_Energy>
12.5781

> <b_lp_Chiralities_Consistent>
1

> <s_lp_Variant>
AV-unprocessed.smi:304-4

> <Gold.Version>
5.8.1

> <Gold.Id.Protein>
6NUR|6NUR_protein|mol2

> <Gold.PLP.Fitness>
52.7589

> <Gold.PLP.PLP>
-48.9272

> <Gold.PLP.part.hbond>
-1.7630

> <Gold.PLP.part.metal>
0.0000

> <Gold.PLP.part.buried>
-8.4270

> <Gold.PLP.part.nonpolar>
-39.6497

> <Gold.PLP.part.repulsive>
1.0050

> <Gold.PLP.ligand.clash>
0.0000

> <Gold.PLP.ligand.torsion>
1.1591

> <Gold.PLP.Chemscore.Hbond>
2.0000

> <Gold.PLP.Chemscore.CHOScore>
0.0000

> <Gold.PLP.Chemscore.Metal>
0.0000

> <Gold.Chemscore.Hbonds>
donor molecule, donor type, donor heavy atom, donor atom, acceptor molecule, acceptor atom, score
      L1  H    14    37       P1  8028  2.00

> <Gold.PLP.Chemscore.Internal.Correction>
0.1498

> <Gold.Rescore>
     Score         DG    S(hbond)    S(metal)    S(lipo)     H(rot)  DE(clash)    DE(int)     intcor
     12.36     -13.73       0.99        0.00     101.93       2.73       0.18       1.18       ----

> <Gold.Chemscore.Fitness>
12.3647

> <Gold.Chemscore.DG>
-13.7261

> <Gold.Chemscore.ZeroCoef>
-5.4800

> <Gold.Chemscore.Hbond>
0.9875

> <Gold.Chemscore.Metal>
0.0000

> <Gold.Chemscore.Lipo>
101.9308

> <Gold.Chemscore.Internal_Hbond>
0.0000

> <Gold.Chemscore.DEClash>
0.1808

> <Gold.Chemscore.DEInternal>
1.1806

> <Gold.Chemscore.Rot>
2.7258

> <Gold.Chemscore.Internal.Correction>
   9.000000E+99

> <Gold.Chemscore.Hbonds>
donor molecule, donor type, donor heavy atom, donor atom, acceptor molecule, acceptor atom, score
      L1  H    14    37       P1  8028  0.98

> <Gold.Chemscore.Hbond.Weighted>
-3.2983

> <Gold.Chemscore.Metal.Weighted>
-0.0000

> <Gold.Chemscore.Lipo.Weighted>
-11.9259

> <Gold.Chemscore.Internal_Hbond.Weighted>
0.0000

> <Gold.Chemscore.DEClash.Weighted>
0.1808

> <Gold.Chemscore.DEInternal.Weighted>
1.1806

> <Gold.Chemscore.Rot.Weighted>
6.9781

> <Gold.Chemscore.Internal.Correction.Weighted>
   9.000000E+99

> <Gold.Protein.RotatedTorsions>
[ 6907 6896 6895 6894 ] final  129.88 input  -60.11 | X-H torsion
[ 7974 7965 7964 7962 ] final  -53.05 input  175.53 | X-H torsion
[ 8008 7997 7996 7995 ] final  -77.48 input   59.86 | X-H torsion
[ 10167 10162 10161 10158 ] final  165.39 input  -65.29 | X-H torsion
[ 10718 10713 10712 10709 ] final  130.01 input   66.30 | X-H torsion
[ 10763 10752 10751 10750 ] final   15.11 input  -60.55 | X-H torsion
[ 11005 11000 10999 10996 ] final   44.96 input  -57.11 | X-H torsion

> <Gold.Protein.ActiveResidues>
 VAL166  LYS551  ARG553  GLY616  TRP617  ASP618  TYR619  PRO620  LYS621  CYS622 
 ASP623  PHE694  ASN695  SER759  ASP760  ASP761  ALA762  ILE779  LEU786  VAL792 
 PHE793  MET794  SER795  GLU796  ALA797  LYS798  CYS799  TRP800  GLU811  SER814 

> <Gold.Protein.RotatedAtoms>
  152.3581  133.6262  159.5993 H   0  0  0  0  0  0  0  0  0  0  0  0  # atno 6907 bound_to 6896
  150.7582  133.9468  159.3482 H   0  0  0  0  0  0  0  0  0  0  0  0  # atno 6908 bound_to 6896
  151.7310  135.0876  160.0351 H   0  0  0  0  0  0  0  0  0  0  0  0  # atno 6909 bound_to 6896
  145.9012  140.7993  142.9742 H   0  0  0  0  0  0  0  0  0  0  0  0  # atno 7974 bound_to 7965
  154.5600  140.0710  156.8804 H   0  0  0  0  0  0  0  0  0  0  0  0  # atno 8008 bound_to 7997
  155.2829  140.3373  155.4239 H   0  0  0  0  0  0  0  0  0  0  0  0  # atno 8009 bound_to 7997
  156.2034  140.1730  156.7836 H   0  0  0  0  0  0  0  0  0  0  0  0  # atno 8010 bound_to 7997
  139.4905  144.4137  151.9269 H   0  0  0  0  0  0  0  0  0  0  0  0  # atno 10167 bound_to 10162
  157.5101  131.1096  150.9305 H   0  0  0  0  0  0  0  0  0  0  0  0  # atno 10718 bound_to 10713
  153.1557  135.6787  153.8816 H   0  0  0  0  0  0  0  0  0  0  0  0  # atno 10763 bound_to 10752
  153.8228  135.3128  155.3413 H   0  0  0  0  0  0  0  0  0  0  0  0  # atno 10764 bound_to 10752
  154.7896  135.4842  154.0109 H   0  0  0  0  0  0  0  0  0  0  0  0  # atno 10765 bound_to 10752
  140.1504  134.4469  155.8386 H   0  0  0  0  0  0  0  0  0  0  0  0  # atno 11005 bound_to 11000
  144.6736  140.1679  143.7417 LP  0  0  0  0  0  0  0  0  0  0  0  0  # atno 17320 bound_to 7965
  145.8789  139.2312  143.1617 LP  0  0  0  0  0  0  0  0  0  0  0  0  # atno 17321 bound_to 7965
  140.3579  144.3009  150.5938 LP  0  0  0  0  0  0  0  0  0  0  0  0  # atno 17342 bound_to 10162
  140.5429  143.2220  151.8056 LP  0  0  0  0  0  0  0  0  0  0  0  0  # atno 17343 bound_to 10162
  156.9948  130.5577  149.5306 LP  0  0  0  0  0  0  0  0  0  0  0  0  # atno 17370 bound_to 10713
  156.0284  130.5376  150.8468 LP  0  0  0  0  0  0  0  0  0  0  0  0  # atno 17371 bound_to 10713
  141.2198  133.6870  156.7410 LP  0  0  0  0  0  0  0  0  0  0  0  0  # atno 17394 bound_to 11000
  140.2612  134.8465  157.3760 LP  0  0  0  0  0  0  0  0  0  0  0  0  # atno 17395 bound_to 11000

$$$$
