AV-unprocessed.smi:2816|AV-procd|sdf|10845|dock3
  -GOLD-   2272015283D 1   1.00000     0.00000
 Structure written by MMmdl.
 43 45  0  0  0  0  0  0  0  0  1 V2000
  149.8528  135.4917  154.9838 C   0  0  0  0  0  0  0  0  0  0  0  0
  149.7463  136.8843  155.6294 C   0  0  0  0  0  0  0  0  0  0  0  0
  148.4238  137.5485  155.2056 C   0  0  0  0  0  0  0  0  0  0  0  0
  149.8104  136.7439  157.1615 C   0  0  0  0  0  0  0  0  0  0  0  0
  151.1800  137.9044  155.0207 S   0  0  0  0  0  0  0  0  0  0  0  0
  152.4260  137.2893  155.5054 O   0  0  0  0  0  0  0  0  0  0  0  0
  151.0002  138.1151  153.5752 O   0  0  0  0  0  0  0  0  0  0  0  0
  151.0216  139.5025  155.8208 C   0  0  0  0  0  0  0  0  0  0  0  0
  151.4482  139.6684  157.1540 C   0  0  0  0  0  0  0  0  0  0  0  0
  151.3497  140.9495  157.7280 C   0  0  0  0  0  0  0  0  0  0  0  0
  150.8397  142.0148  156.9480 C   0  0  0  0  0  0  0  0  0  0  0  0
  150.7104  143.3279  157.4241 N   0  0  0  0  0  0  0  0  0  0  0  0
  151.5827  143.8454  158.4718 C   0  0  1  0  0  0  0  0  0  0  0  0
  151.2603  145.2935  158.8658 C   0  0  0  0  0  0  0  0  0  0  0  0
  151.0160  145.1661  160.3742 C   0  0  2  0  0  0  0  0  0  0  0  0
  152.3027  144.8453  161.1470 C   0  0  0  0  0  0  0  0  0  0  0  0
  152.5333  143.3812  160.7738 C   0  0  0  0  0  0  0  0  0  0  0  0
  151.3705  143.1132  159.8083 C   0  0  1  0  0  0  0  0  0  0  0  0
  150.3641  143.9094  160.4129 O   0  0  0  0  0  0  0  0  0  0  0  0
  150.4483  141.7301  155.6216 C   0  0  0  0  0  0  0  0  0  0  0  0
  150.5392  140.5070  155.0585 N   0  0  0  0  0  0  0  0  0  0  0  0
  149.0364  134.8423  155.3017 H   0  0  0  0  0  0  0  0  0  0  0  0
  150.7885  135.0005  155.2530 H   0  0  0  0  0  0  0  0  0  0  0  0
  149.8170  135.5552  153.8957 H   0  0  0  0  0  0  0  0  0  0  0  0
  148.3751  137.6857  154.1251 H   0  0  0  0  0  0  0  0  0  0  0  0
  148.2991  138.5272  155.6689 H   0  0  0  0  0  0  0  0  0  0  0  0
  147.5668  136.9406  155.4976 H   0  0  0  0  0  0  0  0  0  0  0  0
  149.0265  136.0806  157.5282 H   0  0  0  0  0  0  0  0  0  0  0  0
  149.6771  137.7027  157.6611 H   0  0  0  0  0  0  0  0  0  0  0  0
  150.7661  136.3310  157.4849 H   0  0  0  0  0  0  0  0  0  0  0  0
  151.8445  138.8404  157.7226 H   0  0  0  0  0  0  0  0  0  0  0  0
  151.6691  141.0944  158.7489 H   0  0  0  0  0  0  0  0  0  0  0  0
  150.1762  143.9932  156.8832 H   0  0  0  0  0  0  0  0  0  0  0  0
  152.6212  143.7342  158.1576 H   0  0  0  0  0  0  0  0  0  0  0  0
  152.0719  145.9829  158.6324 H   0  0  0  0  0  0  0  0  0  0  0  0
  150.3578  145.6556  158.3709 H   0  0  0  0  0  0  0  0  0  0  0  0
  150.4361  145.9862  160.7987 H   0  0  0  0  0  0  0  0  0  0  0  0
  153.1308  145.4930  160.8579 H   0  0  0  0  0  0  0  0  0  0  0  0
  152.1481  144.9462  162.2218 H   0  0  0  0  0  0  0  0  0  0  0  0
  153.5070  143.2079  160.3148 H   0  0  0  0  0  0  0  0  0  0  0  0
  152.4550  142.7462  161.6570 H   0  0  0  0  0  0  0  0  0  0  0  0
  151.1188  142.0561  159.7129 H   0  0  0  0  0  0  0  0  0  0  0  0
  150.0559  142.5114  154.9868 H   0  0  0  0  0  0  0  0  0  0  0  0
  1  2  1  0  0  0  0
  1 22  1  0  0  0  0
  1 23  1  0  0  0  0
  1 24  1  0  0  0  0
  2  3  1  0  0  0  0
  2  4  1  0  0  0  0
  2  5  1  0  0  0  0
  3 25  1  0  0  0  0
  3 26  1  0  0  0  0
  3 27  1  0  0  0  0
  4 28  1  0  0  0  0
  4 29  1  0  0  0  0
  4 30  1  0  0  0  0
  5  6  2  0  0  0  0
  5  7  2  0  0  0  0
  5  8  1  0  0  0  0
  8 21  1  0  0  0  0
  8  9  2  0  0  0  0
  9 10  1  0  0  0  0
  9 31  1  0  0  0  0
 10 11  2  0  0  0  0
 10 32  1  0  0  0  0
 11 12  1  0  0  0  0
 11 20  1  0  0  0  0
 12 13  1  0  0  0  0
 12 33  1  0  0  0  0
 13 18  1  0  0  0  0
 13 14  1  0  0  0  0
 13 34  1  0  0  0  0
 14 15  1  0  0  0  0
 14 35  1  0  0  0  0
 14 36  1  0  0  0  0
 15 19  1  0  0  0  0
 15 16  1  0  0  0  0
 15 37  1  0  0  0  0
 16 17  1  0  0  0  0
 16 38  1  0  0  0  0
 16 39  1  0  0  0  0
 17 18  1  0  0  0  0
 17 40  1  0  0  0  0
 17 41  1  0  0  0  0
 18 19  1  0  0  0  0
 18 42  1  0  0  0  0
 20 21  2  0  0  0  0
 20 43  1  0  0  0  0
M  END
> <s_m_source_file>
AV-unprocessed.smi

> <i_m_source_file_index>
2816

> <i_lp_mmshare_version>
43012

> <i_f3d_flags>
0

> <s_epik_input>
W0NIM11DKFtDSDNdKShbQ0gzXSlTKD1PKSg9TyljMVtjSF1bY0hdYyhbY0hdbjEpW05IXVtDQEhdKFtDSDJdW0NAQEhdMjMpW0NAQEhdKE8zKVtDSDJdW0NIMl0y

> <s_epik_cmdline>
J2VwaWtfcHl0aG9uJywgJy1waCcsICc3LjAnLCAnLXRuJywgJzgnLCAnLW1hJywgJzIwMCcsICctbWV0YWxfYmluZGluZycsICctaW1hZScsICc8aW5maWxlLm1hZT4nLCAnLW9tYWUnLCAnPG91dGZpbGUubWFlPic=

> <r_lp_tautomer_probability>
1

> <r_epik_Ionization_Penalty>
1.94439e-07

> <r_epik_Ionization_Penalty_Charging>
0

> <r_epik_Ionization_Penalty_Neutral>
1.94439e-07

> <r_epik_State_Penalty>
-0

> <r_epik_Charging_Adjusted_Penalty>
0

> <i_epik_Tot_Q>
0

> <i_epik_Tot_abs_Q>
0

> <r_epik_Metal_State_Penalty>
-0

> <b_epik_Metal_Only>
0

> <s_lp_Force_Field>
OPLS_2005

> <r_lp_Energy>
42.0373

> <b_lp_Chiralities_Consistent>
1

> <s_lp_Variant>
AV-unprocessed.smi:2816-4

> <Gold.Version>
5.8.1

> <Gold.Id.Protein>
6NUR|6NUR_protein|mol2

> <Gold.PLP.Fitness>
44.9876

> <Gold.PLP.PLP>
-34.2994

> <Gold.PLP.part.hbond>
-4.0000

> <Gold.PLP.part.metal>
0.0000

> <Gold.PLP.part.buried>
-4.2878

> <Gold.PLP.part.nonpolar>
-27.8689

> <Gold.PLP.part.repulsive>
1.4356

> <Gold.PLP.ligand.clash>
0.0000

> <Gold.PLP.ligand.torsion>
1.2961

> <Gold.PLP.Chemscore.Hbond>
2.7520

> <Gold.PLP.Chemscore.CHOScore>
0.9270

> <Gold.PLP.Chemscore.Metal>
0.0000

> <Gold.Chemscore.Hbonds>
donor molecule, donor type, donor heavy atom, donor atom, acceptor molecule, acceptor atom, score
      L1  H    12    33       P1  8028  1.00
      P1  H  7989  7998       L1    21  1.00
      P1  H 10752 10764       L1     6  0.70
      L1  C    20    43       P1  8028  0.87

> <Gold.PLP.Chemscore.Internal.Correction>
2.2432

> <Gold.Rescore>
     Score         DG    S(hbond)    S(metal)    S(lipo)     H(rot)  DE(clash)    DE(int)     intcor
     18.90     -21.05       1.94        0.00     102.88       1.15       0.79       1.36       ----

> <Gold.Chemscore.Fitness>
18.8956

> <Gold.Chemscore.DG>
-21.0480

> <Gold.Chemscore.ZeroCoef>
-5.4800

> <Gold.Chemscore.Hbond>
1.9365

> <Gold.Chemscore.Metal>
0.0000

> <Gold.Chemscore.Lipo>
102.8771

> <Gold.Chemscore.Internal_Hbond>
0.0000

> <Gold.Chemscore.DEClash>
0.7941

> <Gold.Chemscore.DEInternal>
1.3583

> <Gold.Chemscore.Rot>
1.1471

> <Gold.Chemscore.Internal.Correction>
   9.000000E+99

> <Gold.Chemscore.Hbonds>
donor molecule, donor type, donor heavy atom, donor atom, acceptor molecule, acceptor atom, score
      L1  H    12    33       P1  8028  0.98
      P1  H  7989  7998       L1    21  0.25
      P1  H 10752 10764       L1     6  0.68

> <Gold.Chemscore.Hbond.Weighted>
-6.4680

> <Gold.Chemscore.Metal.Weighted>
-0.0000

> <Gold.Chemscore.Lipo.Weighted>
-12.0366

> <Gold.Chemscore.Internal_Hbond.Weighted>
0.0000

> <Gold.Chemscore.DEClash.Weighted>
0.7941

> <Gold.Chemscore.DEInternal.Weighted>
1.3583

> <Gold.Chemscore.Rot.Weighted>
2.9366

> <Gold.Chemscore.Internal.Correction.Weighted>
   9.000000E+99

> <Gold.Protein.RotatedTorsions>
[ 6907 6896 6895 6894 ] final  162.06 input  -60.11 | X-H torsion
[ 7974 7965 7964 7962 ] final -155.96 input  175.53 | X-H torsion
[ 8008 7997 7996 7995 ] final -129.64 input   59.86 | X-H torsion
[ 10167 10162 10161 10158 ] final  -54.82 input  -65.29 | X-H torsion
[ 10718 10713 10712 10709 ] final   87.49 input   66.30 | X-H torsion
[ 10763 10752 10751 10750 ] final  -42.69 input  -60.55 | X-H torsion
[ 11005 11000 10999 10996 ] final  -42.69 input  -57.11 | X-H torsion

> <Gold.Protein.ActiveResidues>
 VAL166  LYS551  ARG553  GLY616  TRP617  ASP618  TYR619  PRO620  LYS621  CYS622 
 ASP623  PHE694  ASN695  SER759  ASP760  ASP761  ALA762  ILE779  LEU786  VAL792 
 PHE793  MET794  SER795  GLU796  ALA797  LYS798  CYS799  TRP800  GLU811  SER814 

> <Gold.Protein.RotatedAtoms>
  151.9461  133.3652  159.3982 H   0  0  0  0  0  0  0  0  0  0  0  0  # atno 6907 bound_to 6896
  150.6989  134.4388  159.5292 H   0  0  0  0  0  0  0  0  0  0  0  0  # atno 6908 bound_to 6896
  152.2054  134.8550  160.0554 H   0  0  0  0  0  0  0  0  0  0  0  0  # atno 6909 bound_to 6896
  144.7615  140.4177  143.5973 H   0  0  0  0  0  0  0  0  0  0  0  0  # atno 7974 bound_to 7965
  155.2825  140.0444  157.3016 H   0  0  0  0  0  0  0  0  0  0  0  0  # atno 8008 bound_to 7997
  154.5588  140.2340  155.8335 H   0  0  0  0  0  0  0  0  0  0  0  0  # atno 8009 bound_to 7997
  156.2030  140.3020  155.9574 H   0  0  0  0  0  0  0  0  0  0  0  0  # atno 8010 bound_to 7997
  140.6409  143.2507  151.4991 H   0  0  0  0  0  0  0  0  0  0  0  0  # atno 10167 bound_to 10162
  157.6940  131.0257  150.3131 H   0  0  0  0  0  0  0  0  0  0  0  0  # atno 10718 bound_to 10713
  153.9833  135.6714  153.4751 H   0  0  0  0  0  0  0  0  0  0  0  0  # atno 10763 bound_to 10752
  153.0738  135.4959  154.8359 H   0  0  0  0  0  0  0  0  0  0  0  0  # atno 10764 bound_to 10752
  154.7152  135.3105  154.9097 H   0  0  0  0  0  0  0  0  0  0  0  0  # atno 10765 bound_to 10752
  141.0333  133.6811  156.2629 H   0  0  0  0  0  0  0  0  0  0  0  0  # atno 11005 bound_to 11000
  145.6603  139.1580  143.2812 LP  0  0  0  0  0  0  0  0  0  0  0  0  # atno 17320 bound_to 7965
  146.1683  140.6684  142.9245 LP  0  0  0  0  0  0  0  0  0  0  0  0  # atno 17321 bound_to 7965
  139.5618  144.2137  152.1704 LP  0  0  0  0  0  0  0  0  0  0  0  0  # atno 17342 bound_to 10162
  140.1407  144.5204  150.6746 LP  0  0  0  0  0  0  0  0  0  0  0  0  # atno 17343 bound_to 10162
  156.3629  130.3850  149.7236 LP  0  0  0  0  0  0  0  0  0  0  0  0  # atno 17370 bound_to 10713
  156.4676  130.7981  151.3000 LP  0  0  0  0  0  0  0  0  0  0  0  0  # atno 17371 bound_to 10713
  140.6368  134.5207  157.5565 LP  0  0  0  0  0  0  0  0  0  0  0  0  # atno 17394 bound_to 11000
  139.9223  134.8125  156.1175 LP  0  0  0  0  0  0  0  0  0  0  0  0  # atno 17395 bound_to 11000

$$$$
