AV-unprocessed.smi:598|AV-procd|sdf|3024|dock6
  -GOLD-   2262023533D 1   1.00000     0.00000
 Structure written by MMmdl.
 43 44  0  0  0  0  0  0  0  0  3 V2000
  152.1229  143.7632  161.3663 C   0  0  0  0  0  0  0  0  0  0  0  0
  153.0116  143.4876  160.1359 C   0  0  1  0  0  0  0  0  0  0  0  0
  153.9523  142.2889  160.3731 C   0  0  0  0  0  0  0  0  0  0  0  0
  153.2017  140.9485  160.3489 C   0  0  0  0  0  0  0  0  0  0  0  0
  152.4275  140.7731  159.0357 C   0  0  0  0  0  0  0  0  0  0  0  0
  151.4691  141.9500  158.7700 C   0  0  2  0  0  0  0  0  0  0  0  0
  150.8286  141.7406  157.4716 N   0  0  0  0  0  0  0  0  0  0  0  0
  149.5191  141.8708  157.2074 C   0  0  0  0  0  0  0  0  0  0  0  0
  148.6890  142.2219  158.0470 O   0  0  0  0  0  0  0  0  0  0  0  0
  149.0970  141.5783  155.7605 C   0  0  0  0  0  0  0  0  0  0  0  0
  149.4919  140.2368  155.2985 N   0  0  0  0  0  0  0  0  0  0  0  0
  150.8544  140.0367  155.0001 C   0  0  0  0  0  0  0  0  0  0  0  0
  151.3253  138.8515  154.5649 C   0  0  0  0  0  0  0  0  0  0  0  0
  152.7273  138.6640  154.2622 N   0  3  0  0  0  0  0  0  0  0  0  0
  153.0748  137.6295  153.7019 O   0  0  0  0  0  0  0  0  0  0  0  0
  153.5266  139.5414  154.5746 O   0  5  0  0  0  0  0  0  0  0  0  0
  150.3769  137.7659  154.4073 C   0  0  0  0  0  0  0  0  0  0  0  0
  149.0722  137.9517  154.6888 C   0  0  0  0  0  0  0  0  0  0  0  0
  148.5619  139.2422  155.1625 C   0  0  0  0  0  0  0  0  0  0  0  0
  147.3712  139.4185  155.4209 O   0  0  0  0  0  0  0  0  0  0  0  0
  152.2236  143.3065  158.8103 C   0  0  1  0  0  0  0  0  0  0  0  0
  151.3190  144.5156  158.4994 C   0  0  0  0  0  0  0  0  0  0  0  0
  151.4031  142.9648  161.5433 H   0  0  0  0  0  0  0  0  0  0  0  0
  151.5643  144.6925  161.2570 H   0  0  0  0  0  0  0  0  0  0  0  0
  152.7284  143.8631  162.2674 H   0  0  0  0  0  0  0  0  0  0  0  0
  153.6481  144.3657  160.0185 H   0  0  0  0  0  0  0  0  0  0  0  0
  154.7215  142.2787  159.5996 H   0  0  0  0  0  0  0  0  0  0  0  0
  154.4805  142.4033  161.3204 H   0  0  0  0  0  0  0  0  0  0  0  0
  153.9084  140.1273  160.4723 H   0  0  0  0  0  0  0  0  0  0  0  0
  152.5143  140.8882  161.1929 H   0  0  0  0  0  0  0  0  0  0  0  0
  153.1383  140.6831  158.2127 H   0  0  0  0  0  0  0  0  0  0  0  0
  151.8696  139.8362  159.0634 H   0  0  0  0  0  0  0  0  0  0  0  0
  150.7132  141.9465  159.5566 H   0  0  0  0  0  0  0  0  0  0  0  0
  151.4328  141.4583  156.7134 H   0  0  0  0  0  0  0  0  0  0  0  0
  148.0157  141.7061  155.6910 H   0  0  0  0  0  0  0  0  0  0  0  0
  149.5164  142.3396  155.1000 H   0  0  0  0  0  0  0  0  0  0  0  0
  151.4774  140.9078  155.1439 H   0  0  0  0  0  0  0  0  0  0  0  0
  150.7047  136.7971  154.0603 H   0  0  0  0  0  0  0  0  0  0  0  0
  148.3827  137.1297  154.5626 H   0  0  0  0  0  0  0  0  0  0  0  0
  152.9700  143.2772  158.0145 H   0  0  0  0  0  0  0  0  0  0  0  0
  150.4548  144.5514  159.1630 H   0  0  0  0  0  0  0  0  0  0  0  0
  150.9434  144.4802  157.4768 H   0  0  0  0  0  0  0  0  0  0  0  0
  151.8645  145.4535  158.6071 H   0  0  0  0  0  0  0  0  0  0  0  0
  1  2  1  0  0  0  0
  1 23  1  0  0  0  0
  1 24  1  0  0  0  0
  1 25  1  0  0  0  0
  2 21  1  0  0  0  0
  2  3  1  0  0  0  0
  2 26  1  0  0  0  0
  3  4  1  0  0  0  0
  3 27  1  0  0  0  0
  3 28  1  0  0  0  0
  4  5  1  0  0  0  0
  4 29  1  0  0  0  0
  4 30  1  0  0  0  0
  5  6  1  0  0  0  0
  5 31  1  0  0  0  0
  5 32  1  0  0  0  0
  6  7  1  0  0  0  0
  6 21  1  0  0  0  0
  6 33  1  0  0  0  0
  7  8  1  0  0  0  0
  7 34  1  0  0  0  0
  8  9  2  0  0  0  0
  8 10  1  0  0  0  0
 10 11  1  0  0  0  0
 10 35  1  0  0  0  0
 10 36  1  0  0  0  0
 11 19  1  0  0  0  0
 11 12  1  0  0  0  0
 12 13  2  0  0  0  0
 12 37  1  0  0  0  0
 13 14  1  0  0  0  0
 13 17  1  0  0  0  0
 14 15  2  0  0  0  0
 14 16  1  0  0  0  0
 17 18  2  0  0  0  0
 17 38  1  0  0  0  0
 18 19  1  0  0  0  0
 18 39  1  0  0  0  0
 19 20  2  0  0  0  0
 21 22  1  0  0  0  0
 21 40  1  0  0  0  0
 22 41  1  0  0  0  0
 22 42  1  0  0  0  0
 22 43  1  0  0  0  0
M  CHG  1  14   1
M  CHG  1  16  -1
M  END
> <s_m_source_file>
AV-unprocessed.smi

> <i_m_source_file_index>
598

> <i_lp_mmshare_version>
43012

> <i_f3d_flags>
0

> <s_epik_input>
W0NIM11bQ0BASF0xW0NIMl1bQ0gyXVtDSDJdW0NASF0oW0NASF0xW0NIM10pW05IXUMoPU8pW0NIMl1uMltjSF1jKFtOK10oPU8pW08tXSlbY0hdW2NIXWMyPU8=

> <s_epik_cmdline>
J2VwaWtfcHl0aG9uJywgJy1waCcsICc3LjAnLCAnLXRuJywgJzgnLCAnLW1hJywgJzIwMCcsICctbWV0YWxfYmluZGluZycsICctaW1hZScsICc8aW5maWxlLm1hZT4nLCAnLW9tYWUnLCAnPG91dGZpbGUubWFlPic=

> <r_lp_tautomer_probability>
1

> <r_epik_Ionization_Penalty>
1.91291e-08

> <r_epik_Ionization_Penalty_Charging>
8.21931e-11

> <r_epik_Ionization_Penalty_Neutral>
1.90469e-08

> <r_epik_State_Penalty>
-0

> <r_epik_Charging_Adjusted_Penalty>
8.21931e-11

> <i_epik_Tot_Q>
0

> <i_epik_Tot_abs_Q>
2

> <r_epik_Metal_State_Penalty>
-0

> <b_epik_Metal_Only>
0

> <s_lp_Force_Field>
OPLS_2005

> <r_lp_Energy>
25.417

> <b_lp_Chiralities_Consistent>
1

> <s_lp_Variant>
AV-unprocessed.smi:598-4

> <Gold.Version>
5.8.1

> <Gold.Id.Protein>
6NUR|6NUR_protein|mol2

> <Gold.PLP.Fitness>
45.5833

> <Gold.PLP.PLP>
-41.6344

> <Gold.PLP.part.hbond>
-1.8650

> <Gold.PLP.part.metal>
0.0000

> <Gold.PLP.part.buried>
-3.5972

> <Gold.PLP.part.nonpolar>
-36.3977

> <Gold.PLP.part.repulsive>
0.3433

> <Gold.PLP.ligand.clash>
0.0000

> <Gold.PLP.ligand.torsion>
0.4213

> <Gold.PLP.Chemscore.Hbond>
1.5920

> <Gold.PLP.Chemscore.CHOScore>
0.0000

> <Gold.PLP.Chemscore.Metal>
0.0000

> <Gold.Chemscore.Hbonds>
donor molecule, donor type, donor heavy atom, donor atom, acceptor molecule, acceptor atom, score
      P1  H  7997  8010       L1    16  1.00
      P1  H 10752 10765       L1    15  0.54

> <Gold.PLP.Chemscore.Internal.Correction>
0.0154

> <Gold.Rescore>
     Score         DG    S(hbond)    S(metal)    S(lipo)     H(rot)  DE(clash)    DE(int)     intcor
     18.43     -19.99       1.55        0.00     113.51       1.54       0.13       1.43       ----

> <Gold.Chemscore.Fitness>
18.4275

> <Gold.Chemscore.DG>
-19.9927

> <Gold.Chemscore.ZeroCoef>
-5.4800

> <Gold.Chemscore.Hbond>
1.5488

> <Gold.Chemscore.Metal>
0.0000

> <Gold.Chemscore.Lipo>
113.5086

> <Gold.Chemscore.Internal_Hbond>
0.0000

> <Gold.Chemscore.DEClash>
0.1317

> <Gold.Chemscore.DEInternal>
1.4335

> <Gold.Chemscore.Rot>
1.5393

> <Gold.Chemscore.Internal.Correction>
   9.000000E+99

> <Gold.Chemscore.Hbonds>
donor molecule, donor type, donor heavy atom, donor atom, acceptor molecule, acceptor atom, score
      P1  H  7997  8010       L1    16  1.00
      P1  H 10752 10765       L1    15  0.54

> <Gold.Chemscore.Hbond.Weighted>
-5.1729

> <Gold.Chemscore.Metal.Weighted>
-0.0000

> <Gold.Chemscore.Lipo.Weighted>
-13.2805

> <Gold.Chemscore.Internal_Hbond.Weighted>
0.0000

> <Gold.Chemscore.DEClash.Weighted>
0.1317

> <Gold.Chemscore.DEInternal.Weighted>
1.4335

> <Gold.Chemscore.Rot.Weighted>
3.9407

> <Gold.Chemscore.Internal.Correction.Weighted>
   9.000000E+99

> <Gold.Protein.RotatedTorsions>
[ 6907 6896 6895 6894 ] final  137.73 input  -60.11 | X-H torsion
[ 7974 7965 7964 7962 ] final   82.54 input  175.53 | X-H torsion
[ 8008 7997 7996 7995 ] final  116.88 input   59.86 | X-H torsion
[ 10167 10162 10161 10158 ] final   68.76 input  -65.29 | X-H torsion
[ 10718 10713 10712 10709 ] final   22.00 input   66.30 | X-H torsion
[ 10763 10752 10751 10750 ] final  130.95 input  -60.55 | X-H torsion
[ 11005 11000 10999 10996 ] final  145.24 input  -57.11 | X-H torsion

> <Gold.Protein.ActiveResidues>
 VAL166  LYS551  ARG553  GLY616  TRP617  ASP618  TYR619  PRO620  LYS621  CYS622 
 ASP623  PHE694  ASN695  SER759  ASP760  ASP761  ALA762  ILE779  LEU786  VAL792 
 PHE793  MET794  SER795  GLU796  ALA797  LYS798  CYS799  TRP800  GLU811  SER814 

> <Gold.Protein.RotatedAtoms>
  152.2748  133.5415  159.5460 H   0  0  0  0  0  0  0  0  0  0  0  0  # atno 6907 bound_to 6896
  150.7173  134.0647  159.3852 H   0  0  0  0  0  0  0  0  0  0  0  0  # atno 6908 bound_to 6896
  151.8561  135.0541  160.0515 H   0  0  0  0  0  0  0  0  0  0  0  0  # atno 6909 bound_to 6896
  145.6237  139.2391  143.2124 H   0  0  0  0  0  0  0  0  0  0  0  0  # atno 7974 bound_to 7965
  156.2464  140.2908  156.0592 H   0  0  0  0  0  0  0  0  0  0  0  0  # atno 8008 bound_to 7997
  155.1794  140.0404  157.2896 H   0  0  0  0  0  0  0  0  0  0  0  0  # atno 8009 bound_to 7997
  154.6270  140.2490  155.7487 H   0  0  0  0  0  0  0  0  0  0  0  0  # atno 8010 bound_to 7997
  140.0752  144.5118  150.7200 H   0  0  0  0  0  0  0  0  0  0  0  0  # atno 10167 bound_to 10162
  157.1463  130.6655  149.5997 H   0  0  0  0  0  0  0  0  0  0  0  0  # atno 10718 bound_to 10713
  153.7663  135.3188  155.3345 H   0  0  0  0  0  0  0  0  0  0  0  0  # atno 10763 bound_to 10752
  154.8212  135.4602  154.0788 H   0  0  0  0  0  0  0  0  0  0  0  0  # atno 10764 bound_to 10752
  153.2034  135.6925  153.8287 H   0  0  0  0  0  0  0  0  0  0  0  0  # atno 10765 bound_to 10752
  140.0696  134.9159  157.1322 H   0  0  0  0  0  0  0  0  0  0  0  0  # atno 11005 bound_to 11000
  146.1411  140.7056  142.9366 LP  0  0  0  0  0  0  0  0  0  0  0  0  # atno 17320 bound_to 7965
  144.7221  140.4406  143.7000 LP  0  0  0  0  0  0  0  0  0  0  0  0  # atno 17321 bound_to 7965
  140.7106  143.2502  151.4594 LP  0  0  0  0  0  0  0  0  0  0  0  0  # atno 17342 bound_to 10162
  139.5812  144.1705  152.1970 LP  0  0  0  0  0  0  0  0  0  0  0  0  # atno 17343 bound_to 10162
  155.9779  130.4760  150.6621 LP  0  0  0  0  0  0  0  0  0  0  0  0  # atno 17370 bound_to 10713
  157.4261  131.0843  151.1084 LP  0  0  0  0  0  0  0  0  0  0  0  0  # atno 17371 bound_to 10713
  140.3647  134.2455  155.7183 LP  0  0  0  0  0  0  0  0  0  0  0  0  # atno 17394 bound_to 11000
  141.2006  133.7982  157.0479 LP  0  0  0  0  0  0  0  0  0  0  0  0  # atno 17395 bound_to 11000

$$$$
