AV-unprocessed.smi:650|AV-procd|sdf|3182|dock9
  -GOLD-   22720 0103D 1   1.00000     0.00000
 Structure written by MMmdl.
 43 44  0  0  0  0  0  0  0  0  2 V2000
  153.6360  137.8192  156.8934 C   0  0  0  0  0  0  0  0  0  0  0  0
  152.5480  138.2202  155.9569 C   0  0  0  0  0  0  0  0  0  0  0  0
  151.5616  137.5179  155.3234 C   0  0  0  0  0  0  0  0  0  0  0  0
  150.8816  138.5197  154.5810 C   0  0  0  0  0  0  0  0  0  0  0  0
  149.7681  138.1922  153.7660 N   0  0  0  0  0  0  0  0  0  0  0  0
  148.5400  138.7368  153.8006 C   0  0  0  0  0  0  0  0  0  0  0  0
  148.1806  139.6278  154.5708 O   0  0  0  0  0  0  0  0  0  0  0  0
  147.7343  138.1820  152.8829 N   0  0  0  0  0  0  0  0  0  0  0  0
  146.3484  138.5667  152.6304 C   0  0  0  0  0  0  0  0  0  0  0  0
  145.4525  137.3624  152.2708 C   0  0  2  0  0  0  0  0  0  0  0  0
  145.7123  136.1849  153.2273 C   0  0  0  0  0  0  0  0  0  0  0  0
  144.8451  134.9653  152.8758 C   0  0  0  0  0  0  0  0  0  0  0  0
  145.0703  134.5358  151.4725 N   0  3  1  0  0  0  0  0  0  0  0  0
  144.3593  133.2724  151.1487 C   0  0  0  0  0  0  0  0  0  0  0  0
  144.3070  132.9937  149.6368 C   0  0  0  0  0  0  0  0  0  0  0  0
  143.1419  132.2612  149.3208 O   0  0  0  0  0  0  0  0  0  0  0  0
  144.7813  135.6378  150.5180 C   0  0  0  0  0  0  0  0  0  0  0  0
  145.6428  136.8750  150.8200 C   0  0  0  0  0  0  0  0  0  0  0  0
  151.4026  139.7256  154.7496 N   0  0  0  0  0  0  0  0  0  0  0  0
  152.4732  139.5396  155.6321 O   0  0  0  0  0  0  0  0  0  0  0  0
  153.9448  136.7899  156.7109 H   0  0  0  0  0  0  0  0  0  0  0  0
  153.3013  137.8943  157.9280 H   0  0  0  0  0  0  0  0  0  0  0  0
  154.5107  138.4587  156.7726 H   0  0  0  0  0  0  0  0  0  0  0  0
  151.3629  136.4582  155.3818 H   0  0  0  0  0  0  0  0  0  0  0  0
  149.9269  137.4710  153.0784 H   0  0  0  0  0  0  0  0  0  0  0  0
  148.1150  137.4524  152.2980 H   0  0  0  0  0  0  0  0  0  0  0  0
  145.9332  139.1100  153.4813 H   0  0  0  0  0  0  0  0  0  0  0  0
  146.3588  139.2737  151.8004 H   0  0  0  0  0  0  0  0  0  0  0  0
  144.4126  137.6700  152.3918 H   0  0  0  0  0  0  0  0  0  0  0  0
  146.7657  135.9030  153.1890 H   0  0  0  0  0  0  0  0  0  0  0  0
  145.5128  136.4886  154.2555 H   0  0  0  0  0  0  0  0  0  0  0  0
  145.0898  134.1482  153.5556 H   0  0  0  0  0  0  0  0  0  0  0  0
  143.7889  135.1965  153.0237 H   0  0  0  0  0  0  0  0  0  0  0  0
  144.8585  132.4313  151.6324 H   0  0  0  0  0  0  0  0  0  0  0  0
  143.3510  133.3063  151.5639 H   0  0  0  0  0  0  0  0  0  0  0  0
  144.2743  133.9365  149.0903 H   0  0  0  0  0  0  0  0  0  0  0  0
  145.1867  132.4574  149.2834 H   0  0  0  0  0  0  0  0  0  0  0  0
  142.3927  132.8316  149.4085 H   0  0  0  0  0  0  0  0  0  0  0  0
  144.9760  135.3171  149.4954 H   0  0  0  0  0  0  0  0  0  0  0  0
  143.7229  135.8980  150.5696 H   0  0  0  0  0  0  0  0  0  0  0  0
  145.3812  137.6643  150.1153 H   0  0  0  0  0  0  0  0  0  0  0  0
  146.6938  136.6404  150.6439 H   0  0  0  0  0  0  0  0  0  0  0  0
  146.0564  134.3281  151.3973 H   0  0  0  0  0  0  0  0  0  0  0  0
  1  2  1  0  0  0  0
  1 21  1  0  0  0  0
  1 22  1  0  0  0  0
  1 23  1  0  0  0  0
  2 20  1  0  0  0  0
  2  3  2  0  0  0  0
  3  4  1  0  0  0  0
  3 24  1  0  0  0  0
  4  5  1  0  0  0  0
  4 19  2  0  0  0  0
  5  6  1  0  0  0  0
  5 25  1  0  0  0  0
  6  7  2  0  0  0  0
  6  8  1  0  0  0  0
  8  9  1  0  0  0  0
  8 26  1  0  0  0  0
  9 10  1  0  0  0  0
  9 27  1  0  0  0  0
  9 28  1  0  0  0  0
 10 18  1  0  0  0  0
 10 11  1  0  0  0  0
 10 29  1  0  0  0  0
 11 12  1  0  0  0  0
 11 30  1  0  0  0  0
 11 31  1  0  0  0  0
 12 13  1  0  0  0  0
 12 32  1  0  0  0  0
 12 33  1  0  0  0  0
 13 14  1  0  0  0  0
 13 17  1  0  0  0  0
 13 43  1  0  0  0  0
 14 15  1  0  0  0  0
 14 34  1  0  0  0  0
 14 35  1  0  0  0  0
 15 16  1  0  0  0  0
 15 36  1  0  0  0  0
 15 37  1  0  0  0  0
 16 38  1  0  0  0  0
 17 18  1  0  0  0  0
 17 39  1  0  0  0  0
 17 40  1  0  0  0  0
 18 41  1  0  0  0  0
 18 42  1  0  0  0  0
 19 20  1  0  0  0  0
M  CHG  1  13   1
M  END
> <s_m_source_file>
AV-unprocessed.smi

> <i_m_source_file_index>
650

> <i_lp_mmshare_version>
43012

> <i_f3d_flags>
0

> <s_epik_input>
W0NIM11jMVtjSF1jKG5vMSlbTkhdQyg9TylbTkhdW0NIMl1bQ0hdMltDSDJdW0NIMl1OKFtDSDJdW0NIMl0yKVtDSDJdW0NIMl1bT0hd

> <s_epik_cmdline>
J2VwaWtfcHl0aG9uJywgJy1waCcsICc3LjAnLCAnLXRuJywgJzgnLCAnLW1hJywgJzIwMCcsICctbWV0YWxfYmluZGluZycsICctaW1hZScsICc8aW5maWxlLm1hZT4nLCAnLW9tYWUnLCAnPG91dGZpbGUubWFlPic=

> <r_epik_Ionization_Penalty>
0.00179437

> <r_epik_Ionization_Penalty_Charging>
0.00177223

> <r_epik_Ionization_Penalty_Neutral>
2.21418e-05

> <r_epik_State_Penalty>
0.00120075

> <r_epik_Charging_Adjusted_Penalty>
0.00297297

> <i_epik_Tot_Q>
1

> <i_epik_Tot_abs_Q>
1

> <r_epik_Metal_State_Penalty>
-0

> <b_epik_Metal_Only>
0

> <s_lp_Force_Field>
OPLS_2005

> <r_lp_Energy>
15.9462

> <b_lp_Chiralities_Consistent>
1

> <s_lp_Variant>
AV-unprocessed.smi:650-1

> <Gold.Version>
5.8.1

> <Gold.Id.Protein>
6NUR|6NUR_protein|mol2

> <Gold.PLP.Fitness>
45.5095

> <Gold.PLP.PLP>
-31.8874

> <Gold.PLP.part.hbond>
-7.6628

> <Gold.PLP.part.metal>
0.0000

> <Gold.PLP.part.buried>
0.5583

> <Gold.PLP.part.nonpolar>
-26.1158

> <Gold.PLP.part.repulsive>
0.2849

> <Gold.PLP.ligand.clash>
0.0000

> <Gold.PLP.ligand.torsion>
1.1146

> <Gold.PLP.Chemscore.Hbond>
5.2690

> <Gold.PLP.Chemscore.CHOScore>
0.0000

> <Gold.PLP.Chemscore.Metal>
0.0000

> <Gold.Chemscore.Hbonds>
donor molecule, donor type, donor heavy atom, donor atom, acceptor molecule, acceptor atom, score
      L1  H     5    25       P1  7948  0.86
      L1  H     8    26       P1  7948  0.99
      L1  H    16    38       P1 10186  0.81
      P1  H  7989  7998       L1    19  1.00
      P1  H  7997  8009       L1    20  0.94
      P1  H 10785 10796       L1    16  0.59

> <Gold.PLP.Chemscore.Internal.Correction>
0.0444

> <Gold.Rescore>
     Score         DG    S(hbond)    S(metal)    S(lipo)     H(rot)  DE(clash)    DE(int)     intcor
     18.52     -21.30       4.38        0.00      66.05       2.55       1.47       1.31       ----

> <Gold.Chemscore.Fitness>
18.5203

> <Gold.Chemscore.DG>
-21.3011

> <Gold.Chemscore.ZeroCoef>
-5.4800

> <Gold.Chemscore.Hbond>
4.3770

> <Gold.Chemscore.Metal>
0.0000

> <Gold.Chemscore.Lipo>
66.0499

> <Gold.Chemscore.Internal_Hbond>
0.0000

> <Gold.Chemscore.DEClash>
1.4674

> <Gold.Chemscore.DEInternal>
1.3134

> <Gold.Chemscore.Rot>
2.5492

> <Gold.Chemscore.Internal.Correction>
   9.000000E+99

> <Gold.Chemscore.Hbonds>
donor molecule, donor type, donor heavy atom, donor atom, acceptor molecule, acceptor atom, score
      L1  H     5    25       P1  7948  0.25
      L1  H     8    26       P1  7948  0.92
      L1  H    16    38       P1 10186  0.80
      P1  H  7989  7998       L1    19  0.92
      P1  H  7997  8009       L1    20  0.31
      P1  H 10785 10796       L1    16  0.57

> <Gold.Chemscore.Hbond.Weighted>
-14.6193

> <Gold.Chemscore.Metal.Weighted>
-0.0000

> <Gold.Chemscore.Lipo.Weighted>
-7.7278

> <Gold.Chemscore.Internal_Hbond.Weighted>
0.0000

> <Gold.Chemscore.DEClash.Weighted>
1.4674

> <Gold.Chemscore.DEInternal.Weighted>
1.3134

> <Gold.Chemscore.Rot.Weighted>
6.5260

> <Gold.Chemscore.Internal.Correction.Weighted>
   9.000000E+99

> <Gold.Protein.RotatedTorsions>
[ 6907 6896 6895 6894 ] final   69.41 input  -60.11 | X-H torsion
[ 7974 7965 7964 7962 ] final  -11.38 input  175.53 | X-H torsion
[ 8008 7997 7996 7995 ] final -144.82 input   59.86 | X-H torsion
[ 10167 10162 10161 10158 ] final  175.40 input  -65.29 | X-H torsion
[ 10718 10713 10712 10709 ] final -109.66 input   66.30 | X-H torsion
[ 10763 10752 10751 10750 ] final  -67.39 input  -60.55 | X-H torsion
[ 11005 11000 10999 10996 ] final -136.00 input  -57.11 | X-H torsion

> <Gold.Protein.ActiveResidues>
 VAL166  LYS551  ARG553  GLY616  TRP617  ASP618  TYR619  PRO620  LYS621  CYS622 
 ASP623  PHE694  ASN695  SER759  ASP760  ASP761  ALA762  ILE779  LEU786  VAL792 
 PHE793  MET794  SER795  GLU796  ALA797  LYS798  CYS799  TRP800  GLU811  SER814 

> <Gold.Protein.RotatedAtoms>
  152.4684  134.5019  159.9727 H   0  0  0  0  0  0  0  0  0  0  0  0  # atno 6907 bound_to 6896
  151.5052  133.3490  159.2883 H   0  0  0  0  0  0  0  0  0  0  0  0  # atno 6908 bound_to 6896
  150.8681  134.8077  159.7195 H   0  0  0  0  0  0  0  0  0  0  0  0  # atno 6909 bound_to 6896
  146.2189  140.2903  142.8368 H   0  0  0  0  0  0  0  0  0  0  0  0  # atno 7974 bound_to 7965
  155.5331  140.0601  157.2885 H   0  0  0  0  0  0  0  0  0  0  0  0  # atno 8008 bound_to 7997
  154.4477  140.1932  156.0559 H   0  0  0  0  0  0  0  0  0  0  0  0  # atno 8009 bound_to 7997
  156.0638  140.3269  155.7497 H   0  0  0  0  0  0  0  0  0  0  0  0  # atno 8010 bound_to 7997
  139.5176  144.3036  152.0356 H   0  0  0  0  0  0  0  0  0  0  0  0  # atno 10167 bound_to 10162
  156.0549  130.5775  150.8130 H   0  0  0  0  0  0  0  0  0  0  0  0  # atno 10718 bound_to 10713
  154.3737  135.6089  153.5754 H   0  0  0  0  0  0  0  0  0  0  0  0  # atno 10763 bound_to 10752
  152.9789  135.5844  154.4491 H   0  0  0  0  0  0  0  0  0  0  0  0  # atno 10764 bound_to 10752
  154.4249  135.2846  155.1928 H   0  0  0  0  0  0  0  0  0  0  0  0  # atno 10765 bound_to 10752
  140.8846  134.1889  157.4569 H   0  0  0  0  0  0  0  0  0  0  0  0  # atno 11005 bound_to 11000
  144.9132  140.7781  143.5794 LP  0  0  0  0  0  0  0  0  0  0  0  0  # atno 17320 bound_to 7965
  145.2835  139.1909  143.4778 LP  0  0  0  0  0  0  0  0  0  0  0  0  # atno 17321 bound_to 7965
  140.2483  144.4196  150.6232 LP  0  0  0  0  0  0  0  0  0  0  0  0  # atno 17342 bound_to 10162
  140.6242  143.2179  151.6630 LP  0  0  0  0  0  0  0  0  0  0  0  0  # atno 17343 bound_to 10162
  157.5509  131.0944  150.9696 LP  0  0  0  0  0  0  0  0  0  0  0  0  # atno 17370 bound_to 10713
  156.9956  130.5580  149.5307 LP  0  0  0  0  0  0  0  0  0  0  0  0  # atno 17371 bound_to 10713
  139.8723  134.9832  156.5188 LP  0  0  0  0  0  0  0  0  0  0  0  0  # atno 17394 bound_to 11000
  140.8420  133.8197  155.9084 LP  0  0  0  0  0  0  0  0  0  0  0  0  # atno 17395 bound_to 11000

$$$$
