AV-unprocessed.smi:438|AV-procd|sdf|2574|dock6
  -GOLD-   2262022553D 1   1.00000     0.00000
 Structure written by MMmdl.
 47 48  0  0  0  0  0  0  0  0  2 V2000
  148.3676  133.3749  154.0955 C   0  0  0  0  0  0  0  0  0  0  0  0
  149.5056  133.9837  154.8953 C   0  0  0  0  0  0  0  0  0  0  0  0
  149.7500  135.3487  154.6699 N   0  0  0  0  0  0  0  0  0  0  0  0
  150.6980  135.9319  155.2995 C   0  0  0  0  0  0  0  0  0  0  0  0
  151.0209  137.6798  155.0067 S   0  0  0  0  0  0  0  0  0  0  0  0
  150.8271  138.4372  156.6483 C   0  0  0  0  0  0  0  0  0  0  0  0
  151.7619  139.6249  156.8719 C   0  0  0  0  0  0  0  0  0  0  0  0
  152.9031  139.6150  156.4093 O   0  0  0  0  0  0  0  0  0  0  0  0
  151.2652  140.6454  157.5880 N   0  0  0  0  0  0  0  0  0  0  0  0
  151.9776  141.8796  157.9118 C   0  0  1  0  0  0  0  0  0  0  0  0
  151.1325  143.0933  157.4723 C   0  0  0  0  0  0  0  0  0  0  0  0
  151.8096  144.4202  157.8439 C   0  0  0  0  0  0  0  0  0  0  0  0
  152.1117  144.4806  159.3472 C   0  0  0  0  0  0  0  0  0  0  0  0
  152.9667  143.2826  159.7867 C   0  0  0  0  0  0  0  0  0  0  0  0
  152.3026  141.9381  159.4256 C   0  0  2  0  0  0  0  0  0  0  0  0
  153.1827  140.7617  159.8852 C   0  0  0  0  0  0  0  0  0  0  0  0
  151.5154  135.3026  156.2093 N   0  5  0  0  0  0  0  0  0  0  0  0
  151.3409  133.9787  156.4850 C   0  0  0  0  0  0  0  0  0  0  0  0
  152.0514  133.3786  157.2908 O   0  0  0  0  0  0  0  0  0  0  0  0
  150.2626  133.2683  155.7752 C   0  0  0  0  0  0  0  0  0  0  0  0
  150.0396  131.7866  156.0686 C   0  0  0  0  0  0  0  0  0  0  0  0
  150.2211  130.9167  154.8165 C   0  0  0  0  0  0  0  0  0  0  0  0
  149.9889  129.5615  155.1346 O   0  0  0  0  0  0  0  0  0  0  0  0
  148.7023  132.4793  153.5719 H   0  0  0  0  0  0  0  0  0  0  0  0
  147.9893  134.0758  153.3502 H   0  0  0  0  0  0  0  0  0  0  0  0
  147.5420  133.1060  154.7546 H   0  0  0  0  0  0  0  0  0  0  0  0
  151.0275  137.6870  157.4138 H   0  0  0  0  0  0  0  0  0  0  0  0
  149.7903  138.7553  156.7686 H   0  0  0  0  0  0  0  0  0  0  0  0
  150.3183  140.5645  157.9293 H   0  0  0  0  0  0  0  0  0  0  0  0
  152.9230  141.9014  157.3659 H   0  0  0  0  0  0  0  0  0  0  0  0
  150.9620  143.0621  156.3954 H   0  0  0  0  0  0  0  0  0  0  0  0
  150.1483  143.0472  157.9412 H   0  0  0  0  0  0  0  0  0  0  0  0
  152.7356  144.5295  157.2781 H   0  0  0  0  0  0  0  0  0  0  0  0
  151.1712  145.2566  157.5582 H   0  0  0  0  0  0  0  0  0  0  0  0
  152.6263  145.4118  159.5855 H   0  0  0  0  0  0  0  0  0  0  0  0
  151.1771  144.4903  159.9095 H   0  0  0  0  0  0  0  0  0  0  0  0
  153.9484  143.3466  159.3153 H   0  0  0  0  0  0  0  0  0  0  0  0
  153.1393  143.3363  160.8621 H   0  0  0  0  0  0  0  0  0  0  0  0
  151.3622  141.8774  159.9761 H   0  0  0  0  0  0  0  0  0  0  0  0
  154.1283  140.7411  159.3426 H   0  0  0  0  0  0  0  0  0  0  0  0
  152.6887  139.8026  159.7297 H   0  0  0  0  0  0  0  0  0  0  0  0
  153.4129  140.8371  160.9482 H   0  0  0  0  0  0  0  0  0  0  0  0
  149.0422  131.6317  156.4794 H   0  0  0  0  0  0  0  0  0  0  0  0
  150.7247  131.4637  156.8540 H   0  0  0  0  0  0  0  0  0  0  0  0
  149.5274  131.2213  154.0321 H   0  0  0  0  0  0  0  0  0  0  0  0
  151.2306  131.0179  154.4167 H   0  0  0  0  0  0  0  0  0  0  0  0
  149.7964  129.5000  156.0576 H   0  0  0  0  0  0  0  0  0  0  0  0
  1 24  1  0  0  0  0
  1 25  1  0  0  0  0
  1 26  1  0  0  0  0
  1  2  1  0  0  0  0
  2 20  2  0  0  0  0
  2  3  1  0  0  0  0
  3  4  2  0  0  0  0
  4  5  1  0  0  0  0
  4 17  1  0  0  0  0
  5  6  1  0  0  0  0
  6  7  1  0  0  0  0
  6 27  1  0  0  0  0
  6 28  1  0  0  0  0
  7  8  2  0  0  0  0
  7  9  1  0  0  0  0
  9 10  1  0  0  0  0
  9 29  1  0  0  0  0
 10 15  1  0  0  0  0
 10 11  1  0  0  0  0
 10 30  1  0  0  0  0
 11 12  1  0  0  0  0
 11 31  1  0  0  0  0
 11 32  1  0  0  0  0
 12 13  1  0  0  0  0
 12 33  1  0  0  0  0
 12 34  1  0  0  0  0
 13 14  1  0  0  0  0
 13 35  1  0  0  0  0
 13 36  1  0  0  0  0
 14 15  1  0  0  0  0
 14 37  1  0  0  0  0
 14 38  1  0  0  0  0
 15 16  1  0  0  0  0
 15 39  1  0  0  0  0
 16 40  1  0  0  0  0
 16 41  1  0  0  0  0
 16 42  1  0  0  0  0
 17 18  1  0  0  0  0
 18 19  2  0  0  0  0
 18 20  1  0  0  0  0
 20 21  1  0  0  0  0
 21 22  1  0  0  0  0
 21 43  1  0  0  0  0
 21 44  1  0  0  0  0
 22 23  1  0  0  0  0
 22 45  1  0  0  0  0
 22 46  1  0  0  0  0
 23 47  1  0  0  0  0
M  CHG  1  17  -1
M  END
> <s_m_source_file>
AV-unprocessed.smi

> <i_m_source_file_index>
438

> <i_lp_mmshare_version>
43012

> <i_f3d_flags>
0

> <s_epik_input>
W09IXVtDSDJdW0NIMl1jMWMoW09IXSluYyhuYzFbQ0gzXSlTW0NIMl1DKD1PKVtOSF1bQ0BASF0yW0NIMl1bQ0gyXVtDSDJdW0NIMl1bQ0BIXTJbQ0gzXQ==

> <s_epik_cmdline>
J2VwaWtfcHl0aG9uJywgJy1waCcsICc3LjAnLCAnLXRuJywgJzgnLCAnLW1hJywgJzIwMCcsICctbWV0YWxfYmluZGluZycsICctaW1hZScsICc8aW5maWxlLm1hZT4nLCAnLW9tYWUnLCAnPG91dGZpbGUubWFlPic=

> <r_lp_tautomer_probability>
1

> <r_epik_Ionization_Penalty>
3.69231

> <r_epik_Ionization_Penalty_Charging>
0.00434774

> <r_epik_Ionization_Penalty_Neutral>
3.68796

> <r_epik_State_Penalty>
2.13826

> <r_epik_Charging_Adjusted_Penalty>
2.14261

> <i_epik_Tot_Q>
-1

> <i_epik_Tot_abs_Q>
1

> <r_epik_Metal_State_Penalty>
0.260979

> <b_epik_Metal_Only>
0

> <s_lp_Force_Field>
OPLS_2005

> <r_lp_Energy>
18.4405

> <b_lp_Chiralities_Consistent>
1

> <s_lp_Variant>
AV-unprocessed.smi:438-12

> <Gold.Version>
5.8.1

> <Gold.Id.Protein>
6NUR|6NUR_protein|mol2

> <Gold.PLP.Fitness>
51.8328

> <Gold.PLP.PLP>
-42.6887

> <Gold.PLP.part.hbond>
-3.0000

> <Gold.PLP.part.metal>
0.0000

> <Gold.PLP.part.buried>
-6.3911

> <Gold.PLP.part.nonpolar>
-34.6028

> <Gold.PLP.part.repulsive>
1.0582

> <Gold.PLP.ligand.clash>
0.0000

> <Gold.PLP.ligand.torsion>
0.6177

> <Gold.PLP.Chemscore.Hbond>
3.4446

> <Gold.PLP.Chemscore.CHOScore>
0.0000

> <Gold.PLP.Chemscore.Metal>
0.0000

> <Gold.Chemscore.Hbonds>
donor molecule, donor type, donor heavy atom, donor atom, acceptor molecule, acceptor atom, score
      P1  H  6896  6908       L1    19  0.59
      P1  H  7997  8010       L1     8  1.00
      P1  H 10752 10763       L1    17  1.50

> <Gold.PLP.Chemscore.Internal.Correction>
0.0456

> <Gold.Rescore>
     Score         DG    S(hbond)    S(metal)    S(lipo)     H(rot)  DE(clash)    DE(int)     intcor
     16.48     -16.99       1.88        0.00     105.82       2.79       0.01       0.50       ----

> <Gold.Chemscore.Fitness>
16.4839

> <Gold.Chemscore.DG>
-16.9889

> <Gold.Chemscore.ZeroCoef>
-5.4800

> <Gold.Chemscore.Hbond>
1.8794

> <Gold.Chemscore.Metal>
0.0000

> <Gold.Chemscore.Lipo>
105.8211

> <Gold.Chemscore.Internal_Hbond>
0.0000

> <Gold.Chemscore.DEClash>
0.0074

> <Gold.Chemscore.DEInternal>
0.4976

> <Gold.Chemscore.Rot>
2.7927

> <Gold.Chemscore.Internal.Correction>
   9.000000E+99

> <Gold.Chemscore.Hbonds>
donor molecule, donor type, donor heavy atom, donor atom, acceptor molecule, acceptor atom, score
      P1  H  6896  6908       L1    19  0.56
      P1  H  7997  8010       L1     8  0.95
      P1  H 10752 10763       L1    17  0.05

> <Gold.Chemscore.Hbond.Weighted>
-6.2771

> <Gold.Chemscore.Metal.Weighted>
-0.0000

> <Gold.Chemscore.Lipo.Weighted>
-12.3811

> <Gold.Chemscore.Internal_Hbond.Weighted>
0.0000

> <Gold.Chemscore.DEClash.Weighted>
0.0074

> <Gold.Chemscore.DEInternal.Weighted>
0.4976

> <Gold.Chemscore.Rot.Weighted>
7.1492

> <Gold.Chemscore.Internal.Correction.Weighted>
   9.000000E+99

> <Gold.Protein.RotatedTorsions>
[ 6907 6896 6895 6894 ] final   58.50 input  -60.11 | X-H torsion
[ 7974 7965 7964 7962 ] final  -50.95 input  175.53 | X-H torsion
[ 8008 7997 7996 7995 ] final   88.68 input   59.86 | X-H torsion
[ 10167 10162 10161 10158 ] final   65.93 input  -65.29 | X-H torsion
[ 10718 10713 10712 10709 ] final  127.90 input   66.30 | X-H torsion
[ 10763 10752 10751 10750 ] final   92.04 input  -60.55 | X-H torsion
[ 11005 11000 10999 10996 ] final   43.13 input  -57.11 | X-H torsion

> <Gold.Protein.ActiveResidues>
 VAL166  LYS551  ARG553  GLY616  TRP617  ASP618  TYR619  PRO620  LYS621  CYS622 
 ASP623  PHE694  ASN695  SER759  ASP760  ASP761  ALA762  ILE779  LEU786  VAL792 
 PHE793  MET794  SER795  GLU796  ALA797  LYS798  CYS799  TRP800  GLU811  SER814 

> <Gold.Protein.RotatedAtoms>
  152.3830  134.6561  160.0135 H   0  0  0  0  0  0  0  0  0  0  0  0  # atno 6907 bound_to 6896
  151.6818  133.3306  159.3229 H   0  0  0  0  0  0  0  0  0  0  0  0  # atno 6908 bound_to 6896
  150.7763  134.6710  159.6436 H   0  0  0  0  0  0  0  0  0  0  0  0  # atno 6909 bound_to 6896
  145.9243  140.7806  142.9632 H   0  0  0  0  0  0  0  0  0  0  0  0  # atno 7974 bound_to 7965
  155.9908  140.3369  155.6751 H   0  0  0  0  0  0  0  0  0  0  0  0  # atno 8008 bound_to 7997
  155.6423  140.0696  157.2632 H   0  0  0  0  0  0  0  0  0  0  0  0  # atno 8009 bound_to 7997
  154.4219  140.1740  156.1574 H   0  0  0  0  0  0  0  0  0  0  0  0  # atno 8010 bound_to 7997
  140.1059  144.4862  150.7008 H   0  0  0  0  0  0  0  0  0  0  0  0  # atno 10167 bound_to 10162
  157.5292  131.1098  150.9035 H   0  0  0  0  0  0  0  0  0  0  0  0  # atno 10718 bound_to 10713
  153.2148  135.4376  155.0421 H   0  0  0  0  0  0  0  0  0  0  0  0  # atno 10763 bound_to 10752
  154.8219  135.3342  154.7015 H   0  0  0  0  0  0  0  0  0  0  0  0  # atno 10764 bound_to 10752
  153.7451  135.7002  153.5014 H   0  0  0  0  0  0  0  0  0  0  0  0  # atno 10765 bound_to 10752
  140.1674  134.4265  155.8279 H   0  0  0  0  0  0  0  0  0  0  0  0  # atno 11005 bound_to 11000
  144.6756  140.2025  143.7385 LP  0  0  0  0  0  0  0  0  0  0  0  0  # atno 17320 bound_to 7965
  145.8509  139.2175  143.1772 LP  0  0  0  0  0  0  0  0  0  0  0  0  # atno 17321 bound_to 7965
  140.6952  143.2400  151.5020 LP  0  0  0  0  0  0  0  0  0  0  0  0  # atno 17342 bound_to 10162
  139.5646  144.2074  152.1744 LP  0  0  0  0  0  0  0  0  0  0  0  0  # atno 17343 bound_to 10162
  156.9622  130.5459  149.5286 LP  0  0  0  0  0  0  0  0  0  0  0  0  # atno 17370 bound_to 10713
  156.0410  130.5492  150.8770 LP  0  0  0  0  0  0  0  0  0  0  0  0  # atno 17371 bound_to 10713
  141.2215  133.6940  156.7702 LP  0  0  0  0  0  0  0  0  0  0  0  0  # atno 17394 bound_to 11000
  140.2418  134.8608  157.3580 LP  0  0  0  0  0  0  0  0  0  0  0  0  # atno 17395 bound_to 11000

$$$$
