AV-unprocessed.smi:11|AV-procd|sdf|55|dock4
  -GOLD-   2262015173D 1   1.00000     0.00000
 Structure written by MMmdl.
 33 35  0  0  0  0  0  0  0  0  1 V2000
  148.7884  142.5793  158.0911 C   0  0  0  0  0  0  0  0  0  0  0  0
  149.9865  143.2868  158.7461 C   0  0  0  0  0  0  0  0  0  0  0  0
  151.3245  143.1772  157.9737 C   0  0  1  0  0  0  0  0  0  0  0  0
  151.2316  143.9562  156.7968 O   0  0  0  0  0  0  0  0  0  0  0  0
  152.5577  143.5678  158.8031 C   0  0  0  0  0  0  0  0  0  0  0  0
  152.9035  142.2771  159.5428 C   0  0  0  0  0  0  0  0  0  0  0  0
  152.5361  141.2134  158.6193 N   0  0  0  0  0  0  0  0  0  0  0  0
  152.4920  139.8666  159.0331 C   0  0  0  0  0  0  0  0  0  0  0  0
  151.6197  139.0358  158.4059 N   0  0  0  0  0  0  0  0  0  0  0  0
  151.5474  137.7504  158.7628 C   0  0  0  0  0  0  0  0  0  0  0  0
  152.2383  137.1057  159.7053 N   0  0  0  0  0  0  0  0  0  0  0  0
  153.1025  137.9421  160.3458 C   0  0  0  0  0  0  0  0  0  0  0  0
  153.9604  137.6194  161.3762 N   0  0  0  0  0  0  0  0  0  0  0  0
  154.6723  138.7363  161.7763 C   0  0  0  0  0  0  0  0  0  0  0  0
  154.2890  139.8078  161.0105 C   0  0  0  0  0  0  0  0  0  0  0  0
  153.2947  139.3295  160.0820 C   0  0  0  0  0  0  0  0  0  0  0  0
  151.6254  141.7143  157.5987 C   0  0  0  0  0  0  0  0  0  0  0  0
  154.0683  136.7086  161.7988 H   0  0  0  0  0  0  0  0  0  0  0  0
  147.9056  142.6601  158.7254 H   0  0  0  0  0  0  0  0  0  0  0  0
  148.9835  141.5179  157.9380 H   0  0  0  0  0  0  0  0  0  0  0  0
  148.5334  143.0177  157.1272 H   0  0  0  0  0  0  0  0  0  0  0  0
  149.7330  144.3372  158.8941 H   0  0  0  0  0  0  0  0  0  0  0  0
  150.1207  142.8738  159.7468 H   0  0  0  0  0  0  0  0  0  0  0  0
  150.3464  144.2782  156.7200 H   0  0  0  0  0  0  0  0  0  0  0  0
  153.3854  143.8257  158.1403 H   0  0  0  0  0  0  0  0  0  0  0  0
  152.4051  144.4129  159.4729 H   0  0  0  0  0  0  0  0  0  0  0  0
  153.9608  142.2321  159.8048 H   0  0  0  0  0  0  0  0  0  0  0  0
  152.3171  142.1952  160.4588 H   0  0  0  0  0  0  0  0  0  0  0  0
  150.8338  137.1529  158.2153 H   0  0  0  0  0  0  0  0  0  0  0  0
  155.3938  138.6780  162.5780 H   0  0  0  0  0  0  0  0  0  0  0  0
  154.6608  140.8182  161.0876 H   0  0  0  0  0  0  0  0  0  0  0  0
  150.7107  141.1242  157.5329 H   0  0  0  0  0  0  0  0  0  0  0  0
  152.1360  141.6534  156.6368 H   0  0  0  0  0  0  0  0  0  0  0  0
  1  2  1  0  0  0  0
  1 19  1  0  0  0  0
  1 20  1  0  0  0  0
  1 21  1  0  0  0  0
  2  3  1  0  0  0  0
  2 22  1  0  0  0  0
  2 23  1  0  0  0  0
  3 17  1  0  0  0  0
  3  4  1  0  0  0  0
  3  5  1  0  0  0  0
  4 24  1  0  0  0  0
  5  6  1  0  0  0  0
  5 25  1  0  0  0  0
  5 26  1  0  0  0  0
  6  7  1  0  0  0  0
  6 27  1  0  0  0  0
  6 28  1  0  0  0  0
  7  8  1  0  0  0  0
  7 17  1  0  0  0  0
  8 16  1  0  0  0  0
  8  9  2  0  0  0  0
  9 10  1  0  0  0  0
 10 11  2  0  0  0  0
 10 29  1  0  0  0  0
 11 12  1  0  0  0  0
 12 16  2  0  0  0  0
 12 13  1  0  0  0  0
 13 18  1  0  0  0  0
 13 14  1  0  0  0  0
 14 15  2  0  0  0  0
 14 30  1  0  0  0  0
 15 16  1  0  0  0  0
 15 31  1  0  0  0  0
 17 32  1  0  0  0  0
 17 33  1  0  0  0  0
M  END
> <s_m_source_file>
AV-unprocessed.smi

> <i_m_source_file_index>
11

> <i_lp_mmshare_version>
43012

> <i_f3d_flags>
0

> <s_epik_input>
W0NIM11bQ0gyXVtDQEBdMShbT0hdKVtDSDJdW0NIMl1OKFtDSDJdMSljKG5bY0hdbjIpYyhjMjMpW2NIXVtjSF1bbkhdMw==

> <s_epik_cmdline>
J2VwaWtfcHl0aG9uJywgJy1waCcsICc3LjAnLCAnLXRuJywgJzgnLCAnLW1hJywgJzIwMCcsICctbWV0YWxfYmluZGluZycsICctaW1hZScsICc8aW5maWxlLm1hZT4nLCAnLW9tYWUnLCAnPG91dGZpbGUubWFlPic=

> <r_lp_tautomer_probability>
0.999998

> <r_epik_Ionization_Penalty>
0.0511253

> <r_epik_Ionization_Penalty_Charging>
0

> <r_epik_Ionization_Penalty_Neutral>
0.0511253

> <r_epik_State_Penalty>
0.0394181

> <r_epik_Charging_Adjusted_Penalty>
0.0394181

> <i_epik_Tot_Q>
0

> <i_epik_Tot_abs_Q>
0

> <r_epik_Metal_State_Penalty>
0.0367127

> <b_epik_Metal_Only>
0

> <s_lp_Force_Field>
OPLS_2005

> <r_lp_Energy>
27.4132

> <b_lp_Chiralities_Consistent>
1

> <s_lp_Variant>
AV-unprocessed.smi:11-1

> <Gold.Version>
5.8.1

> <Gold.Id.Protein>
6NUR|6NUR_protein|mol2

> <Gold.PLP.Fitness>
35.4804

> <Gold.PLP.PLP>
-29.8307

> <Gold.PLP.part.hbond>
-2.0000

> <Gold.PLP.part.metal>
0.0000

> <Gold.PLP.part.buried>
-5.0384

> <Gold.PLP.part.nonpolar>
-22.8811

> <Gold.PLP.part.repulsive>
0.0374

> <Gold.PLP.ligand.clash>
0.0000

> <Gold.PLP.ligand.torsion>
0.2828

> <Gold.PLP.Chemscore.Hbond>
1.9913

> <Gold.PLP.Chemscore.CHOScore>
0.0000

> <Gold.PLP.Chemscore.Metal>
0.0000

> <Gold.Chemscore.Hbonds>
donor molecule, donor type, donor heavy atom, donor atom, acceptor molecule, acceptor atom, score
      L1  H     4    24       P1  8028  1.00
      P1  H  6896  6909       L1    11  0.99

> <Gold.PLP.Chemscore.Internal.Correction>
0.2415

> <Gold.Rescore>
     Score         DG    S(hbond)    S(metal)    S(lipo)     H(rot)  DE(clash)    DE(int)     intcor
     16.43     -16.71       1.99        0.00      70.58       1.43       0.08       0.19       ----

> <Gold.Chemscore.Fitness>
16.4340

> <Gold.Chemscore.DG>
-16.7114

> <Gold.Chemscore.ZeroCoef>
-5.4800

> <Gold.Chemscore.Hbond>
1.9851

> <Gold.Chemscore.Metal>
0.0000

> <Gold.Chemscore.Lipo>
70.5788

> <Gold.Chemscore.Internal_Hbond>
0.0000

> <Gold.Chemscore.DEClash>
0.0844

> <Gold.Chemscore.DEInternal>
0.1931

> <Gold.Chemscore.Rot>
1.4283

> <Gold.Chemscore.Internal.Correction>
   9.000000E+99

> <Gold.Chemscore.Hbonds>
donor molecule, donor type, donor heavy atom, donor atom, acceptor molecule, acceptor atom, score
      L1  H     4    24       P1  8028  0.93
      P1  H  6896  6909       L1    11  0.87

> <Gold.Chemscore.Hbond.Weighted>
-6.6303

> <Gold.Chemscore.Metal.Weighted>
-0.0000

> <Gold.Chemscore.Lipo.Weighted>
-8.2577

> <Gold.Chemscore.Internal_Hbond.Weighted>
0.0000

> <Gold.Chemscore.DEClash.Weighted>
0.0844

> <Gold.Chemscore.DEInternal.Weighted>
0.1931

> <Gold.Chemscore.Rot.Weighted>
3.6566

> <Gold.Chemscore.Internal.Correction.Weighted>
   9.000000E+99

> <Gold.Protein.RotatedTorsions>
[ 6907 6896 6895 6894 ] final  130.85 input  -60.11 | X-H torsion
[ 7974 7965 7964 7962 ] final  144.39 input  175.53 | X-H torsion
[ 8008 7997 7996 7995 ] final   66.54 input   59.86 | X-H torsion
[ 10167 10162 10161 10158 ] final  -39.00 input  -65.29 | X-H torsion
[ 10718 10713 10712 10709 ] final   30.72 input   66.30 | X-H torsion
[ 10763 10752 10751 10750 ] final -146.36 input  -60.55 | X-H torsion
[ 11005 11000 10999 10996 ] final  -78.79 input  -57.11 | X-H torsion

> <Gold.Protein.ActiveResidues>
 VAL166  LYS551  ARG553  GLY616  TRP617  ASP618  TYR619  PRO620  LYS621  CYS622 
 ASP623  PHE694  ASN695  SER759  ASP760  ASP761  ALA762  ILE779  LEU786  VAL792 
 PHE793  MET794  SER795  GLU796  ALA797  LYS798  CYS799  TRP800  GLU811  SER814 

> <Gold.Protein.RotatedAtoms>
  152.3485  133.6151  159.5927 H   0  0  0  0  0  0  0  0  0  0  0  0  # atno 6907 bound_to 6896
  150.7522  133.9611  159.3525 H   0  0  0  0  0  0  0  0  0  0  0  0  # atno 6908 bound_to 6896
  151.7466  135.0843  160.0375 H   0  0  0  0  0  0  0  0  0  0  0  0  # atno 6909 bound_to 6896
  144.8839  139.5657  143.5830 H   0  0  0  0  0  0  0  0  0  0  0  0  # atno 7974 bound_to 7965
  155.6790  140.3496  155.4848 H   0  0  0  0  0  0  0  0  0  0  0  0  # atno 8008 bound_to 7997
  155.9623  140.1140  157.0907 H   0  0  0  0  0  0  0  0  0  0  0  0  # atno 8009 bound_to 7997
  154.4146  140.1173  156.5182 H   0  0  0  0  0  0  0  0  0  0  0  0  # atno 8010 bound_to 7997
  140.7076  143.3242  151.2720 H   0  0  0  0  0  0  0  0  0  0  0  0  # atno 10167 bound_to 10162
  157.2633  130.7172  149.6465 H   0  0  0  0  0  0  0  0  0  0  0  0  # atno 10718 bound_to 10713
  154.8340  135.3388  154.6649 H   0  0  0  0  0  0  0  0  0  0  0  0  # atno 10763 bound_to 10752
  153.7266  135.6955  153.5004 H   0  0  0  0  0  0  0  0  0  0  0  0  # atno 10764 bound_to 10752
  153.2343  135.4406  155.0581 H   0  0  0  0  0  0  0  0  0  0  0  0  # atno 10765 bound_to 10752
  141.1666  133.7078  156.8025 H   0  0  0  0  0  0  0  0  0  0  0  0  # atno 11005 bound_to 11000
  146.3012  139.7433  142.9090 LP  0  0  0  0  0  0  0  0  0  0  0  0  # atno 17320 bound_to 7965
  145.3904  141.0371  143.3127 LP  0  0  0  0  0  0  0  0  0  0  0  0  # atno 17321 bound_to 7965
  139.6705  144.0029  152.2750 LP  0  0  0  0  0  0  0  0  0  0  0  0  # atno 17342 bound_to 10162
  139.9626  144.6547  150.8065 LP  0  0  0  0  0  0  0  0  0  0  0  0  # atno 17343 bound_to 10162
  155.9664  130.4390  150.5243 LP  0  0  0  0  0  0  0  0  0  0  0  0  # atno 17370 bound_to 10713
  157.3152  131.0671  151.1972 LP  0  0  0  0  0  0  0  0  0  0  0  0  # atno 17371 bound_to 10713
  140.2246  134.8732  157.3413 LP  0  0  0  0  0  0  0  0  0  0  0  0  # atno 17394 bound_to 11000
  140.1953  134.4321  155.7692 LP  0  0  0  0  0  0  0  0  0  0  0  0  # atno 17395 bound_to 11000

$$$$
