AV-unprocessed.smi:2930|AV-procd|sdf|11241|dock5
  -GOLD-   2272016133D 1   1.00000     0.00000
 Structure written by MMmdl.
 40 41  0  0  0  0  0  0  0  0  1 V2000
  149.2643  132.1362  153.8632 C   0  0  0  0  0  0  0  0  0  0  0  0
  148.1492  133.1796  154.0174 C   0  0  1  0  0  0  0  0  0  0  0  0
  148.7196  134.5168  153.8725 N   0  0  0  0  0  0  0  0  0  0  0  0
  148.9928  135.3649  154.8745 C   0  0  0  0  0  0  0  0  0  0  0  0
  148.7924  135.1067  156.0608 O   0  0  0  0  0  0  0  0  0  0  0  0
  149.4858  136.5239  154.4061 N   0  0  0  0  0  0  0  0  0  0  0  0
  149.9047  137.6643  155.1421 C   0  0  0  0  0  0  0  0  0  0  0  0
  150.1205  137.6986  156.5405 C   0  0  0  0  0  0  0  0  0  0  0  0
  150.5381  138.8204  157.1655 N   0  0  0  0  0  0  0  0  0  0  0  0
  150.7479  139.9113  156.4171 C   0  0  0  0  0  0  0  0  0  0  0  0
  151.1752  141.0696  157.0729 N   0  0  0  0  0  0  0  0  0  0  0  0
  152.0161  140.9975  158.2644 C   0  0  0  0  0  0  0  0  0  0  0  0
  150.7955  142.3946  156.5912 C   0  0  0  0  0  0  0  0  0  0  0  0
  150.5838  139.9792  155.0891 N   0  0  0  0  0  0  0  0  0  0  0  0
  150.1692  138.8639  154.4522 C   0  0  0  0  0  0  0  0  0  0  0  0
  147.0268  132.9763  152.9977 C   0  0  0  0  0  0  0  0  0  0  0  0
  147.2909  133.1983  151.4998 C   0  0  0  0  0  0  0  0  0  0  0  0
  145.8580  133.7221  151.3719 C   0  0  0  0  0  0  0  0  0  0  0  0
  145.9029  134.0170  152.8738 C   0  0  0  0  0  0  0  0  0  0  0  0
  148.8795  131.1259  154.0039 H   0  0  0  0  0  0  0  0  0  0  0  0
  150.0522  132.2914  154.6010 H   0  0  0  0  0  0  0  0  0  0  0  0
  149.7196  132.1835  152.8734 H   0  0  0  0  0  0  0  0  0  0  0  0
  147.7434  133.0678  155.0245 H   0  0  0  0  0  0  0  0  0  0  0  0
  148.9138  134.8227  152.9304 H   0  0  0  0  0  0  0  0  0  0  0  0
  149.5215  136.6188  153.4016 H   0  0  0  0  0  0  0  0  0  0  0  0
  149.9852  136.8367  157.1749 H   0  0  0  0  0  0  0  0  0  0  0  0
  152.9538  140.4890  158.0373 H   0  0  0  0  0  0  0  0  0  0  0  0
  151.5081  140.4458  159.0558 H   0  0  0  0  0  0  0  0  0  0  0  0
  152.2597  141.9866  158.6525 H   0  0  0  0  0  0  0  0  0  0  0  0
  149.7106  142.5050  156.5988 H   0  0  0  0  0  0  0  0  0  0  0  0
  151.1497  142.5444  155.5708 H   0  0  0  0  0  0  0  0  0  0  0  0
  151.2151  143.1891  157.2083 H   0  0  0  0  0  0  0  0  0  0  0  0
  150.0449  138.9339  153.3816 H   0  0  0  0  0  0  0  0  0  0  0  0
  146.5674  131.9932  153.1241 H   0  0  0  0  0  0  0  0  0  0  0  0
  148.0387  133.9702  151.3100 H   0  0  0  0  0  0  0  0  0  0  0  0
  147.5002  132.2895  150.9349 H   0  0  0  0  0  0  0  0  0  0  0  0
  145.7470  134.6012  150.7364 H   0  0  0  0  0  0  0  0  0  0  0  0
  145.1418  132.9402  151.1145 H   0  0  0  0  0  0  0  0  0  0  0  0
  144.9899  133.7698  153.4163 H   0  0  0  0  0  0  0  0  0  0  0  0
  146.2388  135.0320  153.0926 H   0  0  0  0  0  0  0  0  0  0  0  0
  1  2  1  0  0  0  0
  1 20  1  0  0  0  0
  1 21  1  0  0  0  0
  1 22  1  0  0  0  0
  2  3  1  0  0  0  0
  2 16  1  0  0  0  0
  2 23  1  0  0  0  0
  3  4  1  0  0  0  0
  3 24  1  0  0  0  0
  4  5  2  0  0  0  0
  4  6  1  0  0  0  0
  6  7  1  0  0  0  0
  6 25  1  0  0  0  0
  7 15  1  0  0  0  0
  7  8  2  0  0  0  0
  8  9  1  0  0  0  0
  8 26  1  0  0  0  0
  9 10  2  0  0  0  0
 10 11  1  0  0  0  0
 10 14  1  0  0  0  0
 11 12  1  0  0  0  0
 11 13  1  0  0  0  0
 12 27  1  0  0  0  0
 12 28  1  0  0  0  0
 12 29  1  0  0  0  0
 13 30  1  0  0  0  0
 13 31  1  0  0  0  0
 13 32  1  0  0  0  0
 14 15  2  0  0  0  0
 15 33  1  0  0  0  0
 16 19  1  0  0  0  0
 16 17  1  0  0  0  0
 16 34  1  0  0  0  0
 17 18  1  0  0  0  0
 17 35  1  0  0  0  0
 17 36  1  0  0  0  0
 18 19  1  0  0  0  0
 18 37  1  0  0  0  0
 18 38  1  0  0  0  0
 19 39  1  0  0  0  0
 19 40  1  0  0  0  0
M  END
> <s_m_source_file>
AV-unprocessed.smi

> <i_m_source_file_index>
2930

> <i_lp_mmshare_version>
43012

> <i_f3d_flags>
0

> <s_epik_input>
W0NIMl0xW0NIMl1bQ0gyXVtDSF0xW0NASF0oW0NIM10pW05IXUMoPU8pW05IXWMyW2NIXW5jKE4oW0NIM10pW0NIM10pbltjSF0y

> <s_epik_cmdline>
J2VwaWtfcHl0aG9uJywgJy1waCcsICc3LjAnLCAnLXRuJywgJzgnLCAnLW1hJywgJzIwMCcsICctbWV0YWxfYmluZGluZycsICctaW1hZScsICc8aW5maWxlLm1hZT4nLCAnLW9tYWUnLCAnPG91dGZpbGUubWFlPic=

> <r_lp_tautomer_probability>
1

> <r_epik_Ionization_Penalty>
0.000323856

> <r_epik_Ionization_Penalty_Charging>
0

> <r_epik_Ionization_Penalty_Neutral>
0.000323856

> <r_epik_State_Penalty>
-0

> <r_epik_Charging_Adjusted_Penalty>
0

> <i_epik_Tot_Q>
0

> <i_epik_Tot_abs_Q>
0

> <r_epik_Metal_State_Penalty>
-0

> <b_epik_Metal_Only>
0

> <s_lp_Force_Field>
OPLS_2005

> <r_lp_Energy>
8.86729

> <b_lp_Chiralities_Consistent>
1

> <s_lp_Variant>
AV-unprocessed.smi:2930-2

> <Gold.Version>
5.8.1

> <Gold.Id.Protein>
6NUR|6NUR_protein|mol2

> <Gold.PLP.Fitness>
37.6226

> <Gold.PLP.PLP>
-26.9907

> <Gold.PLP.part.hbond>
-3.0000

> <Gold.PLP.part.metal>
0.0000

> <Gold.PLP.part.buried>
-3.5687

> <Gold.PLP.part.nonpolar>
-20.6400

> <Gold.PLP.part.repulsive>
0.0982

> <Gold.PLP.ligand.clash>
0.0000

> <Gold.PLP.ligand.torsion>
0.7117

> <Gold.PLP.Chemscore.Hbond>
2.9760

> <Gold.PLP.Chemscore.CHOScore>
1.0000

> <Gold.PLP.Chemscore.Metal>
0.0000

> <Gold.Chemscore.Hbonds>
donor molecule, donor type, donor heavy atom, donor atom, acceptor molecule, acceptor atom, score
      L1  H     3    24       P1  7948  0.65
      L1  H     6    25       P1  7948  1.00
      P1  H  7989  7998       L1    14  0.77
      L1  C    15    33       P1  7957  1.00

> <Gold.PLP.Chemscore.Internal.Correction>
0.1273

> <Gold.Rescore>
     Score         DG    S(hbond)    S(metal)    S(lipo)     H(rot)  DE(clash)    DE(int)     intcor
     14.96     -17.09       2.50        0.00      53.94       1.19       0.02       2.11       ----

> <Gold.Chemscore.Fitness>
14.9635

> <Gold.Chemscore.DG>
-17.0948

> <Gold.Chemscore.ZeroCoef>
-5.4800

> <Gold.Chemscore.Hbond>
2.5039

> <Gold.Chemscore.Metal>
0.0000

> <Gold.Chemscore.Lipo>
53.9367

> <Gold.Chemscore.Internal_Hbond>
0.0000

> <Gold.Chemscore.DEClash>
0.0220

> <Gold.Chemscore.DEInternal>
2.1093

> <Gold.Chemscore.Rot>
1.1949

> <Gold.Chemscore.Internal.Correction>
   9.000000E+99

> <Gold.Chemscore.Hbonds>
donor molecule, donor type, donor heavy atom, donor atom, acceptor molecule, acceptor atom, score
      L1  H     3    24       P1  7948  0.07
      L1  H     6    25       P1  7948  0.67
      P1  H  7989  7998       L1    14  0.17

> <Gold.Chemscore.Hbond.Weighted>
-8.3631

> <Gold.Chemscore.Metal.Weighted>
-0.0000

> <Gold.Chemscore.Lipo.Weighted>
-6.3106

> <Gold.Chemscore.Internal_Hbond.Weighted>
0.0000

> <Gold.Chemscore.DEClash.Weighted>
0.0220

> <Gold.Chemscore.DEInternal.Weighted>
2.1093

> <Gold.Chemscore.Rot.Weighted>
3.0590

> <Gold.Chemscore.Internal.Correction.Weighted>
   9.000000E+99

> <Gold.Protein.RotatedTorsions>
[ 6907 6896 6895 6894 ] final   82.85 input  -60.11 | X-H torsion
[ 7974 7965 7964 7962 ] final  164.72 input  175.53 | X-H torsion
[ 8008 7997 7996 7995 ] final -143.77 input   59.86 | X-H torsion
[ 10167 10162 10161 10158 ] final  -85.02 input  -65.29 | X-H torsion
[ 10718 10713 10712 10709 ] final   75.86 input   66.30 | X-H torsion
[ 10763 10752 10751 10750 ] final  -96.66 input  -60.55 | X-H torsion
[ 11005 11000 10999 10996 ] final  -73.12 input  -57.11 | X-H torsion

> <Gold.Protein.ActiveResidues>
 VAL166  LYS551  ARG553  GLY616  TRP617  ASP618  TYR619  PRO620  LYS621  CYS622 
 ASP623  PHE694  ASN695  SER759  ASP760  ASP761  ALA762  ILE779  LEU786  VAL792 
 PHE793  MET794  SER795  GLU796  ALA797  LYS798  CYS799  TRP800  GLU811  SER814 

> <Gold.Protein.RotatedAtoms>
  152.5311  134.2986  159.9069 H   0  0  0  0  0  0  0  0  0  0  0  0  # atno 6907 bound_to 6896
  151.2937  133.4147  159.2642 H   0  0  0  0  0  0  0  0  0  0  0  0  # atno 6908 bound_to 6896
  151.0179  134.9463  159.8100 H   0  0  0  0  0  0  0  0  0  0  0  0  # atno 6909 bound_to 6896
  144.7533  139.8367  143.6359 H   0  0  0  0  0  0  0  0  0  0  0  0  # atno 7974 bound_to 7965
  155.5160  140.0587  157.2915 H   0  0  0  0  0  0  0  0  0  0  0  0  # atno 8008 bound_to 7997
  154.4535  140.1961  156.0396 H   0  0  0  0  0  0  0  0  0  0  0  0  # atno 8009 bound_to 7997
  156.0752  140.3254  155.7628 H   0  0  0  0  0  0  0  0  0  0  0  0  # atno 8010 bound_to 7997
  140.4077  143.2635  151.9059 H   0  0  0  0  0  0  0  0  0  0  0  0  # atno 10167 bound_to 10162
  157.6651  130.9746  150.1414 H   0  0  0  0  0  0  0  0  0  0  0  0  # atno 10718 bound_to 10713
  154.7259  135.5075  153.8886 H   0  0  0  0  0  0  0  0  0  0  0  0  # atno 10763 bound_to 10752
  153.0905  135.6658  153.9872 H   0  0  0  0  0  0  0  0  0  0  0  0  # atno 10764 bound_to 10752
  153.9685  135.3041  155.3408 H   0  0  0  0  0  0  0  0  0  0  0  0  # atno 10765 bound_to 10752
  141.1618  133.6868  156.7163 H   0  0  0  0  0  0  0  0  0  0  0  0  # atno 11005 bound_to 11000
  146.1511  139.4595  143.0048 LP  0  0  0  0  0  0  0  0  0  0  0  0  # atno 17320 bound_to 7965
  145.6868  141.0175  143.1577 LP  0  0  0  0  0  0  0  0  0  0  0  0  # atno 17321 bound_to 7965
  139.4783  144.5569  151.8300 LP  0  0  0  0  0  0  0  0  0  0  0  0  # atno 17342 bound_to 10162
  140.4671  144.1639  150.5913 LP  0  0  0  0  0  0  0  0  0  0  0  0  # atno 17343 bound_to 10162
  156.2236  130.3676  149.8527 LP  0  0  0  0  0  0  0  0  0  0  0  0  # atno 17370 bound_to 10713
  156.6373  130.8690  151.3507 LP  0  0  0  0  0  0  0  0  0  0  0  0  # atno 17371 bound_to 10713
  140.2849  134.8287  157.3966 LP  0  0  0  0  0  0  0  0  0  0  0  0  # atno 17394 bound_to 11000
  140.1399  134.4985  155.8039 LP  0  0  0  0  0  0  0  0  0  0  0  0  # atno 17395 bound_to 11000

$$$$
