AV-unprocessed.smi:2861|AV-procd|sdf|11007|dock2
  -GOLD-   2272015463D 1   1.00000     0.00000
 Structure written by MMmdl.
 33 35  0  0  0  0  0  0  0  0  1 V2000
  151.6324  136.5623  156.2866 O   0  0  0  0  0  0  0  0  0  0  0  0
  150.9513  136.7897  155.2856 C   0  0  0  0  0  0  0  0  0  0  0  0
  151.2968  137.9600  154.3577 C   0  0  0  0  0  0  0  0  0  0  0  0
  150.8864  139.2730  154.9621 C   0  0  0  0  0  0  0  0  0  0  0  0
  149.8892  140.1096  154.5221 C   0  0  0  0  0  0  0  0  0  0  0  0
  149.7496  141.5369  155.5117 S   0  0  0  0  0  0  0  0  0  0  0  0
  151.0675  140.9314  156.5132 C   0  0  0  0  0  0  0  0  0  0  0  0
  151.5802  141.6325  157.6455 N   0  0  0  0  0  0  0  0  0  0  0  0
  151.1506  142.9918  157.9511 C   0  0  0  0  0  0  0  0  0  0  0  0
  152.0668  143.4797  159.0786 C   0  0  0  0  0  0  0  0  0  0  0  0
  152.7445  142.2237  159.6226 C   0  0  0  0  0  0  0  0  0  0  0  0
  152.4548  141.1752  158.5615 C   0  0  0  0  0  0  0  0  0  0  0  0
  152.9809  140.0631  158.5949 O   0  0  0  0  0  0  0  0  0  0  0  0
  151.5437  139.7506  156.1005 N   0  0  0  0  0  0  0  0  0  0  0  0
  149.8801  136.0589  154.9418 N   0  0  0  0  0  0  0  0  0  0  0  0
  149.3802  134.9311  155.6600 C   0  0  0  0  0  0  0  0  0  0  0  0
  149.4404  133.5815  154.9777 C   0  0  0  0  0  0  0  0  0  0  0  0
  148.1167  134.2744  155.1471 C   0  0  0  0  0  0  0  0  0  0  0  0
  152.3674  137.9639  154.1472 H   0  0  0  0  0  0  0  0  0  0  0  0
  150.7964  137.7992  153.4020 H   0  0  0  0  0  0  0  0  0  0  0  0
  149.2353  139.9758  153.6734 H   0  0  0  0  0  0  0  0  0  0  0  0
  151.2222  143.6409  157.0772 H   0  0  0  0  0  0  0  0  0  0  0  0
  150.1100  142.9739  158.2781 H   0  0  0  0  0  0  0  0  0  0  0  0
  152.8189  144.1630  158.6818 H   0  0  0  0  0  0  0  0  0  0  0  0
  151.5113  144.0141  159.8501 H   0  0  0  0  0  0  0  0  0  0  0  0
  153.8168  142.3625  159.7648 H   0  0  0  0  0  0  0  0  0  0  0  0
  152.3025  141.9114  160.5694 H   0  0  0  0  0  0  0  0  0  0  0  0
  149.3773  136.3229  154.1067 H   0  0  0  0  0  0  0  0  0  0  0  0
  149.5179  134.9244  156.7405 H   0  0  0  0  0  0  0  0  0  0  0  0
  149.8571  133.5354  153.9733 H   0  0  0  0  0  0  0  0  0  0  0  0
  149.6360  132.7125  155.6028 H   0  0  0  0  0  0  0  0  0  0  0  0
  147.4278  133.8690  155.8853 H   0  0  0  0  0  0  0  0  0  0  0  0
  147.6510  134.6916  154.2562 H   0  0  0  0  0  0  0  0  0  0  0  0
  1  2  2  0  0  0  0
  2  3  1  0  0  0  0
  2 15  1  0  0  0  0
  3  4  1  0  0  0  0
  3 19  1  0  0  0  0
  3 20  1  0  0  0  0
  4 14  1  0  0  0  0
  4  5  2  0  0  0  0
  5  6  1  0  0  0  0
  5 21  1  0  0  0  0
  6  7  1  0  0  0  0
  7  8  1  0  0  0  0
  7 14  2  0  0  0  0
  8 12  1  0  0  0  0
  8  9  1  0  0  0  0
  9 10  1  0  0  0  0
  9 22  1  0  0  0  0
  9 23  1  0  0  0  0
 10 11  1  0  0  0  0
 10 24  1  0  0  0  0
 10 25  1  0  0  0  0
 11 12  1  0  0  0  0
 11 26  1  0  0  0  0
 11 27  1  0  0  0  0
 12 13  2  0  0  0  0
 15 16  1  0  0  0  0
 15 28  1  0  0  0  0
 16 18  1  0  0  0  0
 16 17  1  0  0  0  0
 16 29  1  0  0  0  0
 17 18  1  0  0  0  0
 17 30  1  0  0  0  0
 17 31  1  0  0  0  0
 18 32  1  0  0  0  0
 18 33  1  0  0  0  0
M  END
> <s_m_source_file>
AV-unprocessed.smi

> <i_m_source_file_index>
2861

> <i_lp_mmshare_version>
43012

> <i_f3d_flags>
0

> <s_epik_input>
W0NIMl0xW0NIMl1bQ0hdMVtOSF1DKD1PKVtDSDJdYzJbY0hdc2MobjIpTjNbQ0gyXVtDSDJdW0NIMl1DMz1P

> <s_epik_cmdline>
J2VwaWtfcHl0aG9uJywgJy1waCcsICc3LjAnLCAnLXRuJywgJzgnLCAnLW1hJywgJzIwMCcsICctbWV0YWxfYmluZGluZycsICctaW1hZScsICc8aW5maWxlLm1hZT4nLCAnLW9tYWUnLCAnPG91dGZpbGUubWFlPic=

> <r_lp_tautomer_probability>
1

> <r_epik_Ionization_Penalty>
2.96745e-05

> <r_epik_Ionization_Penalty_Charging>
0

> <r_epik_Ionization_Penalty_Neutral>
2.96745e-05

> <r_epik_State_Penalty>
-0

> <r_epik_Charging_Adjusted_Penalty>
0

> <i_epik_Tot_Q>
0

> <i_epik_Tot_abs_Q>
0

> <r_epik_Metal_State_Penalty>
-0

> <b_epik_Metal_Only>
0

> <s_lp_Force_Field>
OPLS_2005

> <r_lp_Energy>
30.3521

> <b_lp_Chiralities_Consistent>
1

> <s_lp_Variant>
AV-unprocessed.smi:2861-1

> <Gold.Version>
5.8.1

> <Gold.Id.Protein>
6NUR|6NUR_protein|mol2

> <Gold.PLP.Fitness>
44.3985

> <Gold.PLP.PLP>
-36.1835

> <Gold.PLP.part.hbond>
-3.1283

> <Gold.PLP.part.metal>
0.0000

> <Gold.PLP.part.buried>
-2.1290

> <Gold.PLP.part.nonpolar>
-30.8245

> <Gold.PLP.part.repulsive>
0.0839

> <Gold.PLP.ligand.clash>
0.0000

> <Gold.PLP.ligand.torsion>
0.3184

> <Gold.PLP.Chemscore.Hbond>
1.9760

> <Gold.PLP.Chemscore.CHOScore>
0.9598

> <Gold.PLP.Chemscore.Metal>
0.0000

> <Gold.Chemscore.Hbonds>
donor molecule, donor type, donor heavy atom, donor atom, acceptor molecule, acceptor atom, score
      L1  H    15    28       P1  7948  0.42
      P1  H 10752 10765       L1     1  0.21
      L1  C     5    21       P1  7957  0.97

> <Gold.PLP.Chemscore.Internal.Correction>
0.0444

> <Gold.Rescore>
     Score         DG    S(hbond)    S(metal)    S(lipo)     H(rot)  DE(clash)    DE(int)     intcor
     12.92     -14.75       1.27        0.00      75.75       1.49       0.06       1.77       ----

> <Gold.Chemscore.Fitness>
12.9210

> <Gold.Chemscore.DG>
-14.7499

> <Gold.Chemscore.ZeroCoef>
-5.4800

> <Gold.Chemscore.Hbond>
1.2655

> <Gold.Chemscore.Metal>
0.0000

> <Gold.Chemscore.Lipo>
75.7481

> <Gold.Chemscore.Internal_Hbond>
0.0000

> <Gold.Chemscore.DEClash>
0.0606

> <Gold.Chemscore.DEInternal>
1.7683

> <Gold.Chemscore.Rot>
1.4920

> <Gold.Chemscore.Internal.Correction>
   9.000000E+99

> <Gold.Chemscore.Hbonds>
donor molecule, donor type, donor heavy atom, donor atom, acceptor molecule, acceptor atom, score
      L1  H    15    28       P1  7948  0.35
      P1  H 10752 10765       L1     1  0.01

> <Gold.Chemscore.Hbond.Weighted>
-4.2268

> <Gold.Chemscore.Metal.Weighted>
-0.0000

> <Gold.Chemscore.Lipo.Weighted>
-8.8625

> <Gold.Chemscore.Internal_Hbond.Weighted>
0.0000

> <Gold.Chemscore.DEClash.Weighted>
0.0606

> <Gold.Chemscore.DEInternal.Weighted>
1.7683

> <Gold.Chemscore.Rot.Weighted>
3.8194

> <Gold.Chemscore.Internal.Correction.Weighted>
   9.000000E+99

> <Gold.Protein.RotatedTorsions>
[ 6907 6896 6895 6894 ] final   65.36 input  -60.11 | X-H torsion
[ 7974 7965 7964 7962 ] final  148.03 input  175.53 | X-H torsion
[ 8008 7997 7996 7995 ] final  -23.95 input   59.86 | X-H torsion
[ 10167 10162 10161 10158 ] final  -60.00 input  -65.29 | X-H torsion
[ 10718 10713 10712 10709 ] final -145.22 input   66.30 | X-H torsion
[ 10763 10752 10751 10750 ] final -156.51 input  -60.55 | X-H torsion
[ 11005 11000 10999 10996 ] final  -21.20 input  -57.11 | X-H torsion

> <Gold.Protein.ActiveResidues>
 VAL166  LYS551  ARG553  GLY616  TRP617  ASP618  TYR619  PRO620  LYS621  CYS622 
 ASP623  PHE694  ASN695  SER759  ASP760  ASP761  ALA762  ILE779  LEU786  VAL792 
 PHE793  MET794  SER795  GLU796  ALA797  LYS798  CYS799  TRP800  GLU811  SER814 

> <Gold.Protein.RotatedAtoms>
  152.4402  134.5607  159.9893 H   0  0  0  0  0  0  0  0  0  0  0  0  # atno 6907 bound_to 6896
  151.5706  133.3384  159.2997 H   0  0  0  0  0  0  0  0  0  0  0  0  # atno 6908 bound_to 6896
  150.8306  134.7592  159.6915 H   0  0  0  0  0  0  0  0  0  0  0  0  # atno 6909 bound_to 6896
  144.8546  139.6102  143.5958 H   0  0  0  0  0  0  0  0  0  0  0  0  # atno 7974 bound_to 7965
  154.4556  140.1967  156.0389 H   0  0  0  0  0  0  0  0  0  0  0  0  # atno 8008 bound_to 7997
  156.0739  140.3280  155.7582 H   0  0  0  0  0  0  0  0  0  0  0  0  # atno 8009 bound_to 7997
  155.5219  140.0570  157.2896 H   0  0  0  0  0  0  0  0  0  0  0  0  # atno 8010 bound_to 7997
  140.6099  143.2384  151.5733 H   0  0  0  0  0  0  0  0  0  0  0  0  # atno 10167 bound_to 10162
  156.3797  130.7830  151.2021 H   0  0  0  0  0  0  0  0  0  0  0  0  # atno 10718 bound_to 10713
  154.7707  135.3144  154.8195 H   0  0  0  0  0  0  0  0  0  0  0  0  # atno 10763 bound_to 10752
  153.8931  135.6823  153.4763 H   0  0  0  0  0  0  0  0  0  0  0  0  # atno 10764 bound_to 10752
  153.1320  135.4776  154.9299 H   0  0  0  0  0  0  0  0  0  0  0  0  # atno 10765 bound_to 10752
  140.8538  133.7837  155.9996 H   0  0  0  0  0  0  0  0  0  0  0  0  # atno 11005 bound_to 11000
  146.2812  139.6883  142.9227 LP  0  0  0  0  0  0  0  0  0  0  0  0  # atno 17320 bound_to 7965
  145.4433  141.0424  143.2845 LP  0  0  0  0  0  0  0  0  0  0  0  0  # atno 17321 bound_to 7965
  139.5353  144.2798  152.1238 LP  0  0  0  0  0  0  0  0  0  0  0  0  # atno 17342 bound_to 10162
  140.1995  144.4672  150.6438 LP  0  0  0  0  0  0  0  0  0  0  0  0  # atno 17343 bound_to 10162
  157.7491  131.0348  150.4332 LP  0  0  0  0  0  0  0  0  0  0  0  0  # atno 17370 bound_to 10713
  156.4574  130.4024  149.6597 LP  0  0  0  0  0  0  0  0  0  0  0  0  # atno 17371 bound_to 10713
  140.8760  134.2669  157.5167 LP  0  0  0  0  0  0  0  0  0  0  0  0  # atno 17394 bound_to 11000
  139.8704  134.9591  156.4322 LP  0  0  0  0  0  0  0  0  0  0  0  0  # atno 17395 bound_to 11000

$$$$
