AV-unprocessed.smi:109|AV-procd|sdf|1036|dock6
  -GOLD-   2262018 53D 1   1.00000     0.00000
 Structure written by MMmdl.
 58 61  0  0  0  0  0  0  0  0  1 V2000
  148.8413  142.2439  154.2702 O   0  0  0  0  0  0  0  0  0  0  0  0
  149.9273  141.7296  155.0103 C   0  0  0  0  0  0  0  0  0  0  0  0
  149.5006  141.4915  156.4676 C   0  0  0  0  0  0  0  0  0  0  0  0
  150.6971  141.2439  157.4135 C   0  0  1  0  0  0  0  0  0  0  0  0
  151.7200  140.4580  156.7236 N   0  0  0  0  0  0  0  0  0  0  0  0
  151.4121  139.3265  156.0509 C   0  0  0  0  0  0  0  0  0  0  0  0
  151.7343  139.1731  154.7403 N   0  0  0  0  0  0  0  0  0  0  0  0
  151.4175  138.0428  154.1027 C   0  0  0  0  0  0  0  0  0  0  0  0
  150.7923  136.9644  154.5791 N   0  0  0  0  0  0  0  0  0  0  0  0
  150.4677  137.1088  155.8965 C   0  0  0  0  0  0  0  0  0  0  0  0
  150.7435  138.2540  156.6956 C   0  0  0  0  0  0  0  0  0  0  0  0
  150.2736  138.0528  157.9858 N   0  0  0  0  0  0  0  0  0  0  0  0
  149.7546  136.8555  157.9481 C   0  0  0  0  0  0  0  0  0  0  0  0
  149.8178  136.2167  156.7288 N   0  0  0  0  0  0  0  0  0  0  0  0
  149.3184  134.8405  156.4096 C   0  0  2  0  0  0  0  0  0  0  0  0
  150.0036  133.9287  157.2170 O   0  0  0  0  0  0  0  0  0  0  0  0
  150.7878  133.0387  156.4239 C   0  0  1  0  0  0  0  0  0  0  0  0
  150.9523  131.6754  157.1191 C   0  0  0  0  0  0  0  0  0  0  0  0
  151.7212  131.8194  158.2943 O   0  0  0  0  0  0  0  0  0  0  0  0
  150.0503  133.0132  155.0787 C   0  0  1  0  0  0  0  0  0  0  0  0
  148.9710  132.0919  155.1194 O   0  0  0  0  0  0  0  0  0  0  0  0
  149.5795  134.4582  154.9447 C   0  0  1  0  0  0  0  0  0  0  0  0
  148.4330  134.5628  154.1212 O   0  0  0  0  0  0  0  0  0  0  0  0
  151.3084  142.5401  158.0147 C   0  0  0  0  0  0  0  0  0  0  0  0
  152.4056  142.2557  159.0636 C   0  0  0  0  0  0  0  0  0  0  0  0
  153.0650  143.5562  159.5511 C   0  0  0  0  0  0  0  0  0  0  0  0
  152.0193  144.5330  160.1118 C   0  0  0  0  0  0  0  0  0  0  0  0
  150.9172  144.8190  159.0797 C   0  0  0  0  0  0  0  0  0  0  0  0
  150.2593  143.5181  158.5905 C   0  0  0  0  0  0  0  0  0  0  0  0
  148.2619  134.8448  156.6808 H   0  0  0  0  0  0  0  0  0  0  0  0
  151.7697  133.4814  156.2577 H   0  0  0  0  0  0  0  0  0  0  0  0
  150.7115  132.7277  154.2599 H   0  0  0  0  0  0  0  0  0  0  0  0
  150.3827  135.0690  154.5326 H   0  0  0  0  0  0  0  0  0  0  0  0
  148.1291  142.4206  154.8658 H   0  0  0  0  0  0  0  0  0  0  0  0
  150.2599  140.7986  154.5502 H   0  0  0  0  0  0  0  0  0  0  0  0
  150.7559  142.4360  154.9544 H   0  0  0  0  0  0  0  0  0  0  0  0
  148.9135  142.3412  156.8180 H   0  0  0  0  0  0  0  0  0  0  0  0
  148.8308  140.6327  156.4825 H   0  0  0  0  0  0  0  0  0  0  0  0
  150.3139  140.6488  158.2434 H   0  0  0  0  0  0  0  0  0  0  0  0
  152.6718  140.7658  156.8623 H   0  0  0  0  0  0  0  0  0  0  0  0
  151.7057  137.9958  153.0631 H   0  0  0  0  0  0  0  0  0  0  0  0
  149.3051  136.4015  158.8194 H   0  0  0  0  0  0  0  0  0  0  0  0
  149.9862  131.2269  157.3522 H   0  0  0  0  0  0  0  0  0  0  0  0
  151.4846  130.9832  156.4657 H   0  0  0  0  0  0  0  0  0  0  0  0
  152.5183  131.3218  158.1946 H   0  0  0  0  0  0  0  0  0  0  0  0
  148.2683  132.4359  154.5887 H   0  0  0  0  0  0  0  0  0  0  0  0
  148.6939  134.9355  153.2929 H   0  0  0  0  0  0  0  0  0  0  0  0
  151.8089  143.0630  157.1986 H   0  0  0  0  0  0  0  0  0  0  0  0
  151.9880  141.7326  159.9233 H   0  0  0  0  0  0  0  0  0  0  0  0
  153.1660  141.5984  158.6404 H   0  0  0  0  0  0  0  0  0  0  0  0
  153.8099  143.3313  160.3148 H   0  0  0  0  0  0  0  0  0  0  0  0
  153.6012  144.0268  158.7258 H   0  0  0  0  0  0  0  0  0  0  0  0
  151.5741  144.1128  161.0145 H   0  0  0  0  0  0  0  0  0  0  0  0
  152.5020  145.4643  160.4092 H   0  0  0  0  0  0  0  0  0  0  0  0
  150.1634  145.4763  159.5138 H   0  0  0  0  0  0  0  0  0  0  0  0
  151.3416  145.3552  158.2300 H   0  0  0  0  0  0  0  0  0  0  0  0
  149.5084  143.7566  157.8368 H   0  0  0  0  0  0  0  0  0  0  0  0
  149.7276  143.0546  159.4219 H   0  0  0  0  0  0  0  0  0  0  0  0
  1  2  1  0  0  0  0
  1 34  1  0  0  0  0
  2  3  1  0  0  0  0
  2 35  1  0  0  0  0
  2 36  1  0  0  0  0
  3  4  1  0  0  0  0
  3 37  1  0  0  0  0
  3 38  1  0  0  0  0
  4  5  1  0  0  0  0
  4 24  1  0  0  0  0
  4 39  1  0  0  0  0
  5  6  1  0  0  0  0
  5 40  1  0  0  0  0
  6 11  1  0  0  0  0
  6  7  2  0  0  0  0
  7  8  1  0  0  0  0
  8  9  2  0  0  0  0
  8 41  1  0  0  0  0
  9 10  1  0  0  0  0
 10 14  1  0  0  0  0
 10 11  2  0  0  0  0
 11 12  1  0  0  0  0
 12 13  2  0  0  0  0
 13 14  1  0  0  0  0
 13 42  1  0  0  0  0
 14 15  1  0  0  0  0
 15 30  1  0  0  0  0
 15 22  1  0  0  0  0
 15 16  1  0  0  0  0
 16 17  1  0  0  0  0
 17 31  1  0  0  0  0
 17 18  1  0  0  0  0
 17 20  1  0  0  0  0
 18 19  1  0  0  0  0
 18 43  1  0  0  0  0
 18 44  1  0  0  0  0
 19 45  1  0  0  0  0
 20 32  1  0  0  0  0
 20 21  1  0  0  0  0
 20 22  1  0  0  0  0
 21 46  1  0  0  0  0
 22 33  1  0  0  0  0
 22 23  1  0  0  0  0
 23 47  1  0  0  0  0
 24 29  1  0  0  0  0
 24 25  1  0  0  0  0
 24 48  1  0  0  0  0
 25 26  1  0  0  0  0
 25 49  1  0  0  0  0
 25 50  1  0  0  0  0
 26 27  1  0  0  0  0
 26 51  1  0  0  0  0
 26 52  1  0  0  0  0
 27 28  1  0  0  0  0
 27 53  1  0  0  0  0
 27 54  1  0  0  0  0
 28 29  1  0  0  0  0
 28 55  1  0  0  0  0
 28 56  1  0  0  0  0
 29 57  1  0  0  0  0
 29 58  1  0  0  0  0
M  END
> <s_m_source_file>
AV-unprocessed.smi

> <i_m_source_file_index>
109

> <i_lp_mmshare_version>
43012

> <i_f3d_flags>
0

> <s_epik_input>
W0NIMl0xW0NIMl1bQ0gyXVtDSDJdW0NIMl1bQ0hdMVtDQEhdKFtDSDJdW0NIMl1bT0hdKVtOSF1jKG5bY0hdbjIpYyhjMjMpbltjSF1uM1tDQEBIXTRPW0NASF0oW0NIMl1bT0hdKVtDQEBIXShbT0hdKVtDQEhdNFtPSF0=

> <s_epik_cmdline>
J2VwaWtfcHl0aG9uJywgJy1waCcsICc3LjAnLCAnLXRuJywgJzgnLCAnLW1hJywgJzIwMCcsICctbWV0YWxfYmluZGluZycsICctaW1hZScsICc8aW5maWxlLm1hZT4nLCAnLW9tYWUnLCAnPG91dGZpbGUubWFlPic=

> <r_lp_tautomer_probability>
1

> <r_epik_Ionization_Penalty>
0.000793976

> <r_epik_Ionization_Penalty_Charging>
0

> <r_epik_Ionization_Penalty_Neutral>
0.000793976

> <r_epik_State_Penalty>
-0

> <r_epik_Charging_Adjusted_Penalty>
0

> <i_epik_Tot_Q>
0

> <i_epik_Tot_abs_Q>
0

> <r_epik_Metal_State_Penalty>
-0

> <b_epik_Metal_Only>
0

> <s_epik_Chemistry_Notes>
This compound contains an acetal/aminal-like group ( X-CH(R)-Y where X, Y are N, S, or O) that may be acid/base labile, releasing an aldehyde.

> <s_lp_Force_Field>
OPLS_2005

> <r_lp_Energy>
57.9321

> <b_lp_Chiralities_Consistent>
1

> <s_lp_Variant>
AV-unprocessed.smi:109-6

> <Gold.Version>
5.8.1

> <Gold.Id.Protein>
6NUR|6NUR_protein|mol2

> <Gold.PLP.Fitness>
57.2954

> <Gold.PLP.PLP>
-46.7415

> <Gold.PLP.part.hbond>
-6.0000

> <Gold.PLP.part.metal>
0.0000

> <Gold.PLP.part.buried>
-8.2286

> <Gold.PLP.part.nonpolar>
-33.2670

> <Gold.PLP.part.repulsive>
0.3987

> <Gold.PLP.ligand.clash>
0.0000

> <Gold.PLP.ligand.torsion>
0.9913

> <Gold.PLP.Chemscore.Hbond>
3.2852

> <Gold.PLP.Chemscore.CHOScore>
0.7911

> <Gold.PLP.Chemscore.Metal>
0.0000

> <Gold.Chemscore.Hbonds>
donor molecule, donor type, donor heavy atom, donor atom, acceptor molecule, acceptor atom, score
      L1  H    23    47       P1  7948  1.00
      P1  H  6896  6907       L1    19  0.62
      P1  H  6896  6908       L1    16  0.29
      P1  H  7989  7998       L1     7  0.84
      P1  H  8011  8017       L1     1  0.18
      L1  C     8    41       P1  7949  0.74

> <Gold.PLP.Chemscore.Internal.Correction>
0.3075

> <Gold.Rescore>
     Score         DG    S(hbond)    S(metal)    S(lipo)     H(rot)  DE(clash)    DE(int)     intcor
     10.79     -13.26       2.73        0.00     108.26       5.47       0.30       2.17       ----

> <Gold.Chemscore.Fitness>
10.7881

> <Gold.Chemscore.DG>
-13.2607

> <Gold.Chemscore.ZeroCoef>
-5.4800

> <Gold.Chemscore.Hbond>
2.7269

> <Gold.Chemscore.Metal>
0.0000

> <Gold.Chemscore.Lipo>
108.2611

> <Gold.Chemscore.Internal_Hbond>
0.0000

> <Gold.Chemscore.DEClash>
0.3011

> <Gold.Chemscore.DEInternal>
2.1715

> <Gold.Chemscore.Rot>
5.4662

> <Gold.Chemscore.Internal.Correction>
   9.000000E+99

> <Gold.Chemscore.Hbonds>
donor molecule, donor type, donor heavy atom, donor atom, acceptor molecule, acceptor atom, score
      L1  H    23    47       P1  7948  0.55
      P1  H  6896  6907       L1    19  0.39
      P1  H  6896  6908       L1    16  0.26
      P1  H  7989  7998       L1     7  0.66
      P1  H  8011  8017       L1     1  0.05

> <Gold.Chemscore.Hbond.Weighted>
-9.1077

> <Gold.Chemscore.Metal.Weighted>
-0.0000

> <Gold.Chemscore.Lipo.Weighted>
-12.6665

> <Gold.Chemscore.Internal_Hbond.Weighted>
0.0000

> <Gold.Chemscore.DEClash.Weighted>
0.3011

> <Gold.Chemscore.DEInternal.Weighted>
2.1715

> <Gold.Chemscore.Rot.Weighted>
13.9935

> <Gold.Chemscore.Internal.Correction.Weighted>
   9.000000E+99

> <Gold.Protein.RotatedTorsions>
[ 6907 6896 6895 6894 ] final  147.95 input  -60.11 | X-H torsion
[ 7974 7965 7964 7962 ] final  -12.30 input  175.53 | X-H torsion
[ 8008 7997 7996 7995 ] final  131.35 input   59.86 | X-H torsion
[ 10167 10162 10161 10158 ] final  -30.27 input  -65.29 | X-H torsion
[ 10718 10713 10712 10709 ] final -177.06 input   66.30 | X-H torsion
[ 10763 10752 10751 10750 ] final -166.03 input  -60.55 | X-H torsion
[ 11005 11000 10999 10996 ] final  102.00 input  -57.11 | X-H torsion

> <Gold.Protein.ActiveResidues>
 VAL166  LYS551  ARG553  GLY616  TRP617  ASP618  TYR619  PRO620  LYS621  CYS622 
 ASP623  PHE694  ASN695  SER759  ASP760  ASP761  ALA762  ILE779  LEU786  VAL792 
 PHE793  MET794  SER795  GLU796  ALA797  LYS798  CYS799  TRP800  GLU811  SER814 

> <Gold.Protein.RotatedAtoms>
  152.1479  133.4504  159.4798 H   0  0  0  0  0  0  0  0  0  0  0  0  # atno 6907 bound_to 6896
  150.6892  134.2225  159.4411 H   0  0  0  0  0  0  0  0  0  0  0  0  # atno 6908 bound_to 6896
  152.0120  134.9871  160.0619 H   0  0  0  0  0  0  0  0  0  0  0  0  # atno 6909 bound_to 6896
  146.2157  140.3037  142.8377 H   0  0  0  0  0  0  0  0  0  0  0  0  # atno 7974 bound_to 7965
  156.2968  140.2573  156.2911 H   0  0  0  0  0  0  0  0  0  0  0  0  # atno 8008 bound_to 7997
  154.9509  140.0394  157.2162 H   0  0  0  0  0  0  0  0  0  0  0  0  # atno 8009 bound_to 7997
  154.8037  140.2832  155.5907 H   0  0  0  0  0  0  0  0  0  0  0  0  # atno 8010 bound_to 7997
  140.7251  143.3862  151.1512 H   0  0  0  0  0  0  0  0  0  0  0  0  # atno 10167 bound_to 10162
  156.8239  130.9629  151.3110 H   0  0  0  0  0  0  0  0  0  0  0  0  # atno 10718 bound_to 10713
  154.6873  135.2964  154.9529 H   0  0  0  0  0  0  0  0  0  0  0  0  # atno 10763 bound_to 10752
  154.0504  135.6645  153.4804 H   0  0  0  0  0  0  0  0  0  0  0  0  # atno 10764 bound_to 10752
  153.0588  135.5128  154.7947 H   0  0  0  0  0  0  0  0  0  0  0  0  # atno 10765 bound_to 10752
  139.8775  134.9206  156.4992 H   0  0  0  0  0  0  0  0  0  0  0  0  # atno 11005 bound_to 11000
  144.9038  140.7675  143.5850 LP  0  0  0  0  0  0  0  0  0  0  0  0  # atno 17320 bound_to 7965
  145.2964  139.1865  143.4713 LP  0  0  0  0  0  0  0  0  0  0  0  0  # atno 17321 bound_to 7965
  139.7459  143.8852  152.3063 LP  0  0  0  0  0  0  0  0  0  0  0  0  # atno 17342 bound_to 10162
  139.8690  144.7078  150.9010 LP  0  0  0  0  0  0  0  0  0  0  0  0  # atno 17343 bound_to 10162
  157.6442  130.8831  149.9507 LP  0  0  0  0  0  0  0  0  0  0  0  0  # atno 17370 bound_to 10713
  156.0973  130.3658  150.0283 LP  0  0  0  0  0  0  0  0  0  0  0  0  # atno 17371 bound_to 10713
  140.8602  133.8066  155.9257 LP  0  0  0  0  0  0  0  0  0  0  0  0  # atno 17394 bound_to 11000
  140.9057  134.2323  157.5015 LP  0  0  0  0  0  0  0  0  0  0  0  0  # atno 17395 bound_to 11000

$$$$
