AV-unprocessed.smi:651|AV-procd|sdf|3191|dock6
  -GOLD-   22720 0113D 1   1.00000     0.00000
 Structure written by MMmdl.
 39 40  0  0  0  0  0  0  0  0  2 V2000
  151.2818  144.7887  160.3824 C   0  0  0  0  0  0  0  0  0  0  0  0
  152.3208  143.7347  160.7014 C   0  0  0  0  0  0  0  0  0  0  0  0
  152.8981  143.6082  161.9830 C   0  0  0  0  0  0  0  0  0  0  0  0
  153.8564  142.5986  162.2105 C   0  0  0  0  0  0  0  0  0  0  0  0
  154.2190  141.7353  161.1528 C   0  0  0  0  0  0  0  0  0  0  0  0
  155.2417  140.6329  161.3674 C   0  0  0  0  0  0  0  0  0  0  0  0
  156.0579  140.4139  160.0935 C   0  0  0  0  0  0  0  0  0  0  0  0
  155.5698  139.7785  159.1599 O   0  0  0  0  0  0  0  0  0  0  0  0
  157.2984  140.9323  160.0815 N   0  0  0  0  0  0  0  0  0  0  0  0
  158.3008  140.8280  159.0164 C   0  0  1  0  0  0  0  0  0  0  0  0
  157.7698  141.2206  157.6215 C   0  0  0  0  0  0  0  0  0  0  0  0
  158.5877  142.4376  157.1881 C   0  0  0  0  0  0  0  0  0  0  0  0
  159.9285  142.2746  157.9010 C   0  0  0  0  0  0  0  0  0  0  0  0
  159.5711  141.6825  159.2733 C   0  0  2  0  0  0  0  0  0  0  0  0
  160.7217  140.8799  159.8988 C   0  0  0  0  0  0  0  0  0  0  0  0
  161.1833  139.8374  159.2038 N   0  0  0  0  0  0  0  0  0  0  0  0
  161.1896  141.1939  160.9919 O   0  0  0  0  0  0  0  0  0  0  0  0
  153.6107  141.9129  159.8905 C   0  0  0  0  0  0  0  0  0  0  0  0
  152.6952  142.8905  159.7141 N   0  3  0  0  0  0  0  0  0  0  0  0
  151.2045  145.5194  161.1880 H   0  0  0  0  0  0  0  0  0  0  0  0
  150.3037  144.3264  160.2452 H   0  0  0  0  0  0  0  0  0  0  0  0
  151.5433  145.3202  159.4669 H   0  0  0  0  0  0  0  0  0  0  0  0
  152.6108  144.2736  162.7842 H   0  0  0  0  0  0  0  0  0  0  0  0
  154.3047  142.4891  163.1874 H   0  0  0  0  0  0  0  0  0  0  0  0
  155.9058  140.9074  162.1882 H   0  0  0  0  0  0  0  0  0  0  0  0
  154.7479  139.7043  161.6580 H   0  0  0  0  0  0  0  0  0  0  0  0
  157.5888  141.4420  160.9034 H   0  0  0  0  0  0  0  0  0  0  0  0
  158.5616  139.7693  158.9721 H   0  0  0  0  0  0  0  0  0  0  0  0
  157.9521  140.4010  156.9253 H   0  0  0  0  0  0  0  0  0  0  0  0
  156.6980  141.4206  157.5996 H   0  0  0  0  0  0  0  0  0  0  0  0
  158.6945  142.5062  156.1052 H   0  0  0  0  0  0  0  0  0  0  0  0
  158.1001  143.3509  157.5305 H   0  0  0  0  0  0  0  0  0  0  0  0
  160.5616  141.5940  157.3294 H   0  0  0  0  0  0  0  0  0  0  0  0
  160.4590  143.2235  157.9874 H   0  0  0  0  0  0  0  0  0  0  0  0
  159.3296  142.5194  159.9303 H   0  0  0  0  0  0  0  0  0  0  0  0
  161.9419  139.2814  159.5712 H   0  0  0  0  0  0  0  0  0  0  0  0
  160.7731  139.6117  158.3090 H   0  0  0  0  0  0  0  0  0  0  0  0
  153.8219  141.3019  159.0249 H   0  0  0  0  0  0  0  0  0  0  0  0
  152.2662  142.9947  158.7942 H   0  0  0  0  0  0  0  0  0  0  0  0
  1  2  1  0  0  0  0
  1 20  1  0  0  0  0
  1 21  1  0  0  0  0
  1 22  1  0  0  0  0
  2 19  1  0  0  0  0
  2  3  2  0  0  0  0
  3  4  1  0  0  0  0
  3 23  1  0  0  0  0
  4  5  2  0  0  0  0
  4 24  1  0  0  0  0
  5  6  1  0  0  0  0
  5 18  1  0  0  0  0
  6  7  1  0  0  0  0
  6 25  1  0  0  0  0
  6 26  1  0  0  0  0
  7  8  2  0  0  0  0
  7  9  1  0  0  0  0
  9 10  1  0  0  0  0
  9 27  1  0  0  0  0
 10 14  1  0  0  0  0
 10 11  1  0  0  0  0
 10 28  1  0  0  0  0
 11 12  1  0  0  0  0
 11 29  1  0  0  0  0
 11 30  1  0  0  0  0
 12 13  1  0  0  0  0
 12 31  1  0  0  0  0
 12 32  1  0  0  0  0
 13 14  1  0  0  0  0
 13 33  1  0  0  0  0
 13 34  1  0  0  0  0
 14 15  1  0  0  0  0
 14 35  1  0  0  0  0
 15 16  1  0  0  0  0
 15 17  2  0  0  0  0
 16 36  1  0  0  0  0
 16 37  1  0  0  0  0
 18 19  2  0  0  0  0
 18 38  1  0  0  0  0
 19 39  1  0  0  0  0
M  CHG  1  19   1
M  END
> <s_m_source_file>
AV-unprocessed.smi

> <i_m_source_file_index>
651

> <i_lp_mmshare_version>
43012

> <i_f3d_flags>
0

> <s_epik_input>
W0NIM11jMVtjSF1bY0hdYyhbY0hdbjEpW0NIMl1DKD1PKVtOSF1bQ0BASF0yW0NIMl1bQ0gyXVtDSDJdW0NASF0yQyg9TylbTkgyXQ==

> <s_epik_cmdline>
J2VwaWtfcHl0aG9uJywgJy1waCcsICc3LjAnLCAnLXRuJywgJzgnLCAnLW1hJywgJzIwMCcsICctbWV0YWxfYmluZGluZycsICctaW1hZScsICc8aW5maWxlLm1hZT4nLCAnLW9tYWUnLCAnPG91dGZpbGUubWFlPic=

> <r_epik_Ionization_Penalty>
2.14971

> <r_epik_Ionization_Penalty_Charging>
2.14971

> <r_epik_Ionization_Penalty_Neutral>
1.65229e-07

> <r_epik_State_Penalty>
2.28946

> <r_epik_Charging_Adjusted_Penalty>
4.43917

> <i_epik_Tot_Q>
1

> <i_epik_Tot_abs_Q>
1

> <r_epik_Metal_State_Penalty>
2.30508

> <b_epik_Metal_Only>
0

> <s_lp_Force_Field>
OPLS_2005

> <r_lp_Energy>
21.472

> <b_lp_Chiralities_Consistent>
1

> <s_lp_Variant>
AV-unprocessed.smi:651-8

> <Gold.Version>
5.8.1

> <Gold.Id.Protein>
6NUR|6NUR_protein|mol2

> <Gold.PLP.Fitness>
46.3949

> <Gold.PLP.PLP>
-44.7292

> <Gold.PLP.part.hbond>
-3.6728

> <Gold.PLP.part.metal>
0.0000

> <Gold.PLP.part.buried>
-5.0476

> <Gold.PLP.part.nonpolar>
-37.1919

> <Gold.PLP.part.repulsive>
0.0688

> <Gold.PLP.ligand.clash>
0.0000

> <Gold.PLP.ligand.torsion>
0.6595

> <Gold.PLP.Chemscore.Hbond>
0.9920

> <Gold.PLP.Chemscore.CHOScore>
0.0000

> <Gold.PLP.Chemscore.Metal>
0.0000

> <Gold.Chemscore.Hbonds>
donor molecule, donor type, donor heavy atom, donor atom, acceptor molecule, acceptor atom, score
      P1  H  7997  8009       L1     8  0.93

> <Gold.PLP.Chemscore.Internal.Correction>
0.0088

> <Gold.Rescore>
     Score         DG    S(hbond)    S(metal)    S(lipo)     H(rot)  DE(clash)    DE(int)     intcor
     15.55     -17.71       0.98        0.00     120.99       2.04       0.49       1.67       ----

> <Gold.Chemscore.Fitness>
15.5490

> <Gold.Chemscore.DG>
-17.7066

> <Gold.Chemscore.ZeroCoef>
-5.4800

> <Gold.Chemscore.Hbond>
0.9848

> <Gold.Chemscore.Metal>
0.0000

> <Gold.Chemscore.Lipo>
120.9932

> <Gold.Chemscore.Internal_Hbond>
0.0000

> <Gold.Chemscore.DEClash>
0.4850

> <Gold.Chemscore.DEInternal>
1.6726

> <Gold.Chemscore.Rot>
2.0386

> <Gold.Chemscore.Internal.Correction>
   9.000000E+99

> <Gold.Chemscore.Hbonds>
donor molecule, donor type, donor heavy atom, donor atom, acceptor molecule, acceptor atom, score
      P1  H  7997  8009       L1     8  0.91

> <Gold.Chemscore.Hbond.Weighted>
-3.2891

> <Gold.Chemscore.Metal.Weighted>
-0.0000

> <Gold.Chemscore.Lipo.Weighted>
-14.1562

> <Gold.Chemscore.Internal_Hbond.Weighted>
0.0000

> <Gold.Chemscore.DEClash.Weighted>
0.4850

> <Gold.Chemscore.DEInternal.Weighted>
1.6726

> <Gold.Chemscore.Rot.Weighted>
5.2188

> <Gold.Chemscore.Internal.Correction.Weighted>
   9.000000E+99

> <Gold.Protein.RotatedTorsions>
[ 6907 6896 6895 6894 ] final  171.57 input  -60.11 | X-H torsion
[ 7974 7965 7964 7962 ] final   96.88 input  175.53 | X-H torsion
[ 8008 7997 7996 7995 ] final   83.44 input   59.86 | X-H torsion
[ 10167 10162 10161 10158 ] final  130.25 input  -65.29 | X-H torsion
[ 10718 10713 10712 10709 ] final -152.21 input   66.30 | X-H torsion
[ 10763 10752 10751 10750 ] final  117.09 input  -60.55 | X-H torsion
[ 11005 11000 10999 10996 ] final -132.55 input  -57.11 | X-H torsion

> <Gold.Protein.ActiveResidues>
 VAL166  LYS551  ARG553  GLY616  TRP617  ASP618  TYR619  PRO620  LYS621  CYS622 
 ASP623  PHE694  ASN695  SER759  ASP760  ASP761  ALA762  ILE779  LEU786  VAL792 
 PHE793  MET794  SER795  GLU796  ALA797  LYS798  CYS799  TRP800  GLU811  SER814 

> <Gold.Protein.RotatedAtoms>
  151.7981  133.3367  159.3518 H   0  0  0  0  0  0  0  0  0  0  0  0  # atno 6907 bound_to 6896
  150.7368  134.5779  159.5933 H   0  0  0  0  0  0  0  0  0  0  0  0  # atno 6908 bound_to 6896
  152.3162  134.7438  160.0376 H   0  0  0  0  0  0  0  0  0  0  0  0  # atno 6909 bound_to 6896
  145.4330  139.2308  143.3134 H   0  0  0  0  0  0  0  0  0  0  0  0  # atno 7974 bound_to 7965
  155.9239  140.3419  155.6195 H   0  0  0  0  0  0  0  0  0  0  0  0  # atno 8008 bound_to 7997
  155.7239  140.0787  157.2337 H   0  0  0  0  0  0  0  0  0  0  0  0  # atno 8009 bound_to 7997
  154.4074  140.1600  156.2421 H   0  0  0  0  0  0  0  0  0  0  0  0  # atno 8010 bound_to 7997
  139.5439  144.6755  151.4536 H   0  0  0  0  0  0  0  0  0  0  0  0  # atno 10167 bound_to 10162
  156.4695  130.8252  151.2481 H   0  0  0  0  0  0  0  0  0  0  0  0  # atno 10718 bound_to 10713
  153.5471  135.3547  155.2744 H   0  0  0  0  0  0  0  0  0  0  0  0  # atno 10763 bound_to 10752
  154.8711  135.4105  154.2978 H   0  0  0  0  0  0  0  0  0  0  0  0  # atno 10764 bound_to 10752
  153.3697  135.7063  153.6716 H   0  0  0  0  0  0  0  0  0  0  0  0  # atno 10765 bound_to 10752
  140.9161  134.1506  157.4352 H   0  0  0  0  0  0  0  0  0  0  0  0  # atno 11005 bound_to 11000
  146.2597  140.5069  142.8859 LP  0  0  0  0  0  0  0  0  0  0  0  0  # atno 17320 bound_to 7965
  144.8171  140.6486  143.6377 LP  0  0  0  0  0  0  0  0  0  0  0  0  # atno 17321 bound_to 7965
  140.6679  143.8357  150.6964 LP  0  0  0  0  0  0  0  0  0  0  0  0  # atno 17342 bound_to 10162
  140.1772  143.4145  152.1959 LP  0  0  0  0  0  0  0  0  0  0  0  0  # atno 17343 bound_to 10162
  157.7492  131.0081  150.3214 LP  0  0  0  0  0  0  0  0  0  0  0  0  # atno 17370 bound_to 10713
  156.3633  130.3850  149.7234 LP  0  0  0  0  0  0  0  0  0  0  0  0  # atno 17371 bound_to 10713
  139.8766  134.9954  156.5741 LP  0  0  0  0  0  0  0  0  0  0  0  0  # atno 17394 bound_to 11000
  140.8049  133.8476  155.8758 LP  0  0  0  0  0  0  0  0  0  0  0  0  # atno 17395 bound_to 11000

$$$$
