AV-unprocessed.smi:1288|AV-procd|sdf|5382|dock8
  -GOLD-   22720 4533D 1   1.00000     0.00000
 Structure written by MMmdl.
 42 44  0  0  0  0  0  0  0  0  1 V2000
  152.0400  138.7281  158.7357 C   0  0  0  0  0  0  0  0  0  0  0  0
  151.9862  140.2073  158.9521 C   0  0  0  0  0  0  0  0  0  0  0  0
  152.7354  140.8195  159.8693 N   0  0  0  0  0  0  0  0  0  0  0  0
  152.3763  142.1450  159.7184 C   0  0  0  0  0  0  0  0  0  0  0  0
  152.8192  143.3001  160.4019 C   0  0  0  0  0  0  0  0  0  0  0  0
  152.2999  144.5688  160.0705 C   0  0  0  0  0  0  0  0  0  0  0  0
  151.3327  144.7007  159.0531 C   0  0  0  0  0  0  0  0  0  0  0  0
  150.8781  143.5629  158.3591 C   0  0  0  0  0  0  0  0  0  0  0  0
  151.3994  142.2985  158.6937 C   0  0  0  0  0  0  0  0  0  0  0  0
  151.1718  141.0088  158.2222 N   0  0  0  0  0  0  0  0  0  0  0  0
  150.2500  140.6214  157.1624 C   0  0  0  0  0  0  0  0  0  0  0  0
  150.6591  141.1755  155.7826 C   0  0  1  0  0  0  0  0  0  0  0  0
  151.4962  140.2356  155.1375 O   0  0  0  0  0  0  0  0  0  0  0  0
  149.4386  141.4385  154.8862 C   0  0  0  0  0  0  0  0  0  0  0  0
  148.5023  140.3872  155.0580 O   0  0  0  0  0  0  0  0  0  0  0  0
  147.3586  140.5271  154.2325 C   0  0  0  0  0  0  0  0  0  0  0  0
  146.4777  141.6670  154.7048 C   0  0  0  0  0  0  0  0  0  0  0  0
  146.1794  142.7332  153.8302 C   0  0  0  0  0  0  0  0  0  0  0  0
  145.3555  143.7922  154.2589 C   0  0  0  0  0  0  0  0  0  0  0  0
  144.8269  143.7893  155.5639 C   0  0  0  0  0  0  0  0  0  0  0  0
  145.1210  142.7262  156.4393 C   0  0  0  0  0  0  0  0  0  0  0  0
  145.9430  141.6649  156.0119 C   0  0  0  0  0  0  0  0  0  0  0  0
  146.2134  140.6447  156.8611 F   0  0  0  0  0  0  0  0  0  0  0  0
  152.7415  138.2656  159.4308 H   0  0  0  0  0  0  0  0  0  0  0  0
  152.3690  138.5062  157.7204 H   0  0  0  0  0  0  0  0  0  0  0  0
  151.0579  138.2837  158.8953 H   0  0  0  0  0  0  0  0  0  0  0  0
  153.5592  143.2096  161.1832 H   0  0  0  0  0  0  0  0  0  0  0  0
  152.6450  145.4449  160.5998 H   0  0  0  0  0  0  0  0  0  0  0  0
  150.9391  145.6759  158.8063 H   0  0  0  0  0  0  0  0  0  0  0  0
  150.1355  143.6607  157.5812 H   0  0  0  0  0  0  0  0  0  0  0  0
  150.1935  139.5324  157.1311 H   0  0  0  0  0  0  0  0  0  0  0  0
  149.2499  140.9649  157.4273 H   0  0  0  0  0  0  0  0  0  0  0  0
  151.2145  142.1037  155.9200 H   0  0  0  0  0  0  0  0  0  0  0  0
  151.1108  139.3777  155.2304 H   0  0  0  0  0  0  0  0  0  0  0  0
  148.9924  142.4112  155.1014 H   0  0  0  0  0  0  0  0  0  0  0  0
  149.7477  141.4498  153.8397 H   0  0  0  0  0  0  0  0  0  0  0  0
  147.6603  140.7063  153.1992 H   0  0  0  0  0  0  0  0  0  0  0  0
  146.7805  139.6015  154.2373 H   0  0  0  0  0  0  0  0  0  0  0  0
  146.5797  142.7408  152.8270 H   0  0  0  0  0  0  0  0  0  0  0  0
  145.1287  144.6059  153.5858 H   0  0  0  0  0  0  0  0  0  0  0  0
  144.1951  144.6010  155.8932 H   0  0  0  0  0  0  0  0  0  0  0  0
  144.7143  142.7234  157.4400 H   0  0  0  0  0  0  0  0  0  0  0  0
  1  2  1  0  0  0  0
  1 24  1  0  0  0  0
  1 25  1  0  0  0  0
  1 26  1  0  0  0  0
  2 10  1  0  0  0  0
  2  3  2  0  0  0  0
  3  4  1  0  0  0  0
  4  9  2  0  0  0  0
  4  5  1  0  0  0  0
  5  6  2  0  0  0  0
  5 27  1  0  0  0  0
  6  7  1  0  0  0  0
  6 28  1  0  0  0  0
  7  8  2  0  0  0  0
  7 29  1  0  0  0  0
  8  9  1  0  0  0  0
  8 30  1  0  0  0  0
  9 10  1  0  0  0  0
 10 11  1  0  0  0  0
 11 12  1  0  0  0  0
 11 31  1  0  0  0  0
 11 32  1  0  0  0  0
 12 13  1  0  0  0  0
 12 14  1  0  0  0  0
 12 33  1  0  0  0  0
 13 34  1  0  0  0  0
 14 15  1  0  0  0  0
 14 35  1  0  0  0  0
 14 36  1  0  0  0  0
 15 16  1  0  0  0  0
 16 17  1  0  0  0  0
 16 37  1  0  0  0  0
 16 38  1  0  0  0  0
 17 22  1  0  0  0  0
 17 18  2  0  0  0  0
 18 19  1  0  0  0  0
 18 39  1  0  0  0  0
 19 20  2  0  0  0  0
 19 40  1  0  0  0  0
 20 21  1  0  0  0  0
 20 41  1  0  0  0  0
 21 22  2  0  0  0  0
 21 42  1  0  0  0  0
 22 23  1  0  0  0  0
M  END
> <s_m_source_file>
AV-unprocessed.smi

> <i_m_source_file_index>
1288

> <i_lp_mmshare_version>
43012

> <i_f3d_flags>
0

> <s_epik_input>
W2NIXTFbY0hdW2NIXVtjSF1jKGMxMiluKGMobjIpW0NIM10pW0NIMl1bQ0BIXShbT0hdKVtDSDJdT1tDSDJdYzNbY0hdW2NIXVtjSF1bY0hdYzNG

> <s_epik_cmdline>
J2VwaWtfcHl0aG9uJywgJy1waCcsICc3LjAnLCAnLXRuJywgJzgnLCAnLW1hJywgJzIwMCcsICctbWV0YWxfYmluZGluZycsICctaW1hZScsICc8aW5maWxlLm1hZT4nLCAnLW9tYWUnLCAnPG91dGZpbGUubWFlPic=

> <r_epik_Ionization_Penalty>
0.132603

> <r_epik_Ionization_Penalty_Charging>
0

> <r_epik_Ionization_Penalty_Neutral>
0.132603

> <r_epik_State_Penalty>
0.121982

> <r_epik_Charging_Adjusted_Penalty>
0.121982

> <i_epik_Tot_Q>
0

> <i_epik_Tot_abs_Q>
0

> <r_epik_Metal_State_Penalty>
0.000135431

> <b_epik_Metal_Only>
0

> <s_lp_Force_Field>
OPLS_2005

> <r_lp_Energy>
16.0492

> <b_lp_Chiralities_Consistent>
1

> <s_lp_Variant>
AV-unprocessed.smi:1288-2

> <Gold.Version>
5.8.1

> <Gold.Id.Protein>
6NUR|6NUR_protein|mol2

> <Gold.PLP.Fitness>
49.8999

> <Gold.PLP.PLP>
-48.0825

> <Gold.PLP.part.hbond>
-1.0000

> <Gold.PLP.part.metal>
0.0000

> <Gold.PLP.part.buried>
-8.6853

> <Gold.PLP.part.nonpolar>
-39.2898

> <Gold.PLP.part.repulsive>
0.0796

> <Gold.PLP.ligand.clash>
0.0000

> <Gold.PLP.ligand.torsion>
0.6449

> <Gold.PLP.Chemscore.Hbond>
1.0000

> <Gold.PLP.Chemscore.CHOScore>
0.0000

> <Gold.PLP.Chemscore.Metal>
0.0000

> <Gold.Chemscore.Hbonds>
donor molecule, donor type, donor heavy atom, donor atom, acceptor molecule, acceptor atom, score
      P1  H  7989  7998       L1    13  0.99

> <Gold.PLP.Chemscore.Internal.Correction>
0.1072

> <Gold.Rescore>
     Score         DG    S(hbond)    S(metal)    S(lipo)     H(rot)  DE(clash)    DE(int)     intcor
     15.10     -15.88       0.68        0.00     119.56       2.29       0.16       0.62       ----

> <Gold.Chemscore.Fitness>
15.1007

> <Gold.Chemscore.DG>
-15.8809

> <Gold.Chemscore.ZeroCoef>
-5.4800

> <Gold.Chemscore.Hbond>
0.6783

> <Gold.Chemscore.Metal>
0.0000

> <Gold.Chemscore.Lipo>
119.5581

> <Gold.Chemscore.Internal_Hbond>
0.0000

> <Gold.Chemscore.DEClash>
0.1610

> <Gold.Chemscore.DEInternal>
0.6192

> <Gold.Chemscore.Rot>
2.2863

> <Gold.Chemscore.Internal.Correction>
   9.000000E+99

> <Gold.Chemscore.Hbonds>
donor molecule, donor type, donor heavy atom, donor atom, acceptor molecule, acceptor atom, score
      P1  H  7989  7998       L1    13  0.40

> <Gold.Chemscore.Hbond.Weighted>
-2.2656

> <Gold.Chemscore.Metal.Weighted>
-0.0000

> <Gold.Chemscore.Lipo.Weighted>
-13.9883

> <Gold.Chemscore.Internal_Hbond.Weighted>
0.0000

> <Gold.Chemscore.DEClash.Weighted>
0.1610

> <Gold.Chemscore.DEInternal.Weighted>
0.6192

> <Gold.Chemscore.Rot.Weighted>
5.8530

> <Gold.Chemscore.Internal.Correction.Weighted>
   9.000000E+99

> <Gold.Protein.RotatedTorsions>
[ 6907 6896 6895 6894 ] final   80.33 input  -60.11 | X-H torsion
[ 7974 7965 7964 7962 ] final -118.63 input  175.53 | X-H torsion
[ 8008 7997 7996 7995 ] final   35.42 input   59.86 | X-H torsion
[ 10167 10162 10161 10158 ] final  166.90 input  -65.29 | X-H torsion
[ 10718 10713 10712 10709 ] final -158.15 input   66.30 | X-H torsion
[ 10763 10752 10751 10750 ] final -130.35 input  -60.55 | X-H torsion
[ 11005 11000 10999 10996 ] final -172.04 input  -57.11 | X-H torsion

> <Gold.Protein.ActiveResidues>
 VAL166  LYS551  ARG553  GLY616  TRP617  ASP618  TYR619  PRO620  LYS621  CYS622 
 ASP623  PHE694  ASN695  SER759  ASP760  ASP761  ALA762  ILE779  LEU786  VAL792 
 PHE793  MET794  SER795  GLU796  ALA797  LYS798  CYS799  TRP800  GLU811  SER814 

> <Gold.Protein.RotatedAtoms>
  152.5231  134.3374  159.9204 H   0  0  0  0  0  0  0  0  0  0  0  0  # atno 6907 bound_to 6896
  151.3324  133.3989  159.2671 H   0  0  0  0  0  0  0  0  0  0  0  0  # atno 6908 bound_to 6896
  150.9870  134.9231  159.7935 H   0  0  0  0  0  0  0  0  0  0  0  0  # atno 6909 bound_to 6896
  145.0716  140.8363  143.4092 H   0  0  0  0  0  0  0  0  0  0  0  0  # atno 7974 bound_to 7965
  155.1709  140.3291  155.4393 H   0  0  0  0  0  0  0  0  0  0  0  0  # atno 8008 bound_to 7997
  156.2510  140.1944  156.6762 H   0  0  0  0  0  0  0  0  0  0  0  0  # atno 8009 bound_to 7997
  154.6338  140.0579  156.9751 H   0  0  0  0  0  0  0  0  0  0  0  0  # atno 8010 bound_to 7997
  139.4934  144.3979  151.9443 H   0  0  0  0  0  0  0  0  0  0  0  0  # atno 10167 bound_to 10162
  156.5501  130.8601  151.2777 H   0  0  0  0  0  0  0  0  0  0  0  0  # atno 10718 bound_to 10713
  154.8755  135.3865  154.4069 H   0  0  0  0  0  0  0  0  0  0  0  0  # atno 10763 bound_to 10752
  153.4787  135.7030  153.5956 H   0  0  0  0  0  0  0  0  0  0  0  0  # atno 10764 bound_to 10752
  153.4381  135.3862  155.2179 H   0  0  0  0  0  0  0  0  0  0  0  0  # atno 10765 bound_to 10752
  140.5015  134.5889  157.4989 H   0  0  0  0  0  0  0  0  0  0  0  0  # atno 11005 bound_to 11000
  145.1285  139.2647  143.5551 LP  0  0  0  0  0  0  0  0  0  0  0  0  # atno 17320 bound_to 7965
  146.3529  140.0930  142.8611 LP  0  0  0  0  0  0  0  0  0  0  0  0  # atno 17321 bound_to 7965
  140.3417  144.3195  150.5966 LP  0  0  0  0  0  0  0  0  0  0  0  0  # atno 17342 bound_to 10162
  140.5560  143.2199  151.7847 LP  0  0  0  0  0  0  0  0  0  0  0  0  # atno 17343 bound_to 10162
  157.7389  130.9822  150.2281 LP  0  0  0  0  0  0  0  0  0  0  0  0  # atno 17370 bound_to 10713
  156.2892  130.3743  149.7858 LP  0  0  0  0  0  0  0  0  0  0  0  0  # atno 17371 bound_to 10713
  139.9711  134.7292  156.0040 LP  0  0  0  0  0  0  0  0  0  0  0  0  # atno 17394 bound_to 11000
  141.1433  133.6560  156.3793 LP  0  0  0  0  0  0  0  0  0  0  0  0  # atno 17395 bound_to 11000

$$$$
