AV-unprocessed.smi:2062|AV-procd|sdf|8403|dock5
  -GOLD-   2272011 93D 1   1.00000     0.00000
 Structure written by MMmdl.
 42 43  0  0  0  0  0  0  0  0  3 V2000
  145.2268  131.0600  150.8268 C   0  0  0  0  0  0  0  0  0  0  0  0
  144.0589  132.0406  150.6447 C   0  0  0  0  0  0  0  0  0  0  0  0
  144.1582  132.7438  149.2804 C   0  0  0  0  0  0  0  0  0  0  0  0
  144.0104  133.0497  151.8129 C   0  0  0  0  0  0  0  0  0  0  0  0
  143.2790  134.3008  151.4734 N   0  3  2  0  0  0  0  0  0  0  0  0
  144.1289  135.3250  150.8190 C   0  0  0  0  0  0  0  0  0  0  0  0
  144.9986  136.0651  151.8496 C   0  0  0  0  0  0  0  0  0  0  0  0
  144.1559  136.6441  152.8357 O   0  0  0  0  0  0  0  0  0  0  0  0
  143.4235  135.6705  153.5735 C   0  0  1  0  0  0  0  0  0  0  0  0
  142.6103  136.3828  154.6688 C   0  0  0  0  0  0  0  0  0  0  0  0
  141.6444  137.3152  154.0976 N   0  0  0  0  0  0  0  0  0  0  0  0
  140.3106  137.1895  154.1365 C   0  0  0  0  0  0  0  0  0  0  0  0
  139.7980  136.2319  154.7204 O   0  0  0  0  0  0  0  0  0  0  0  0
  139.6544  138.1797  153.4915 N   0  5  0  0  0  0  0  0  0  0  0  0
  138.3490  138.3861  153.7310 C   0  0  0  0  0  0  0  0  0  0  0  0
  137.5292  137.4295  154.1824 N   0  0  0  0  0  0  0  0  0  0  0  0
  136.2137  137.8632  154.3567 C   0  0  0  0  0  0  0  0  0  0  0  0
  136.0255  139.1778  154.0209 C   0  0  0  0  0  0  0  0  0  0  0  0
  137.5043  139.9152  153.4742 S   0  0  0  0  0  0  0  0  0  0  0  0
  142.5091  134.9019  152.5937 C   0  0  0  0  0  0  0  0  0  0  0  0
  146.1862  131.5786  150.8201 H   0  0  0  0  0  0  0  0  0  0  0  0
  145.2455  130.3176  150.0283 H   0  0  0  0  0  0  0  0  0  0  0  0
  145.1457  130.5214  151.7715 H   0  0  0  0  0  0  0  0  0  0  0  0
  143.1473  131.4438  150.6477 H   0  0  0  0  0  0  0  0  0  0  0  0
  145.0571  133.3578  149.2142 H   0  0  0  0  0  0  0  0  0  0  0  0
  143.2992  133.3899  149.0989 H   0  0  0  0  0  0  0  0  0  0  0  0
  144.1932  132.0177  148.4676 H   0  0  0  0  0  0  0  0  0  0  0  0
  143.5700  132.5880  152.6966 H   0  0  0  0  0  0  0  0  0  0  0  0
  145.0371  133.2959  152.0867 H   0  0  0  0  0  0  0  0  0  0  0  0
  144.7453  134.8780  150.0384 H   0  0  0  0  0  0  0  0  0  0  0  0
  143.4770  136.0427  150.3193 H   0  0  0  0  0  0  0  0  0  0  0  0
  145.7256  135.3971  152.3138 H   0  0  0  0  0  0  0  0  0  0  0  0
  145.5638  136.8592  151.3616 H   0  0  0  0  0  0  0  0  0  0  0  0
  144.1190  134.9814  154.0549 H   0  0  0  0  0  0  0  0  0  0  0  0
  142.1185  135.6601  155.3221 H   0  0  0  0  0  0  0  0  0  0  0  0
  143.2804  136.9632  155.3034 H   0  0  0  0  0  0  0  0  0  0  0  0
  142.0163  138.1203  153.6155 H   0  0  0  0  0  0  0  0  0  0  0  0
  135.4748  137.1666  154.7237 H   0  0  0  0  0  0  0  0  0  0  0  0
  135.1137  139.7542  154.0604 H   0  0  0  0  0  0  0  0  0  0  0  0
  141.7817  135.5930  152.1656 H   0  0  0  0  0  0  0  0  0  0  0  0
  141.9296  134.1462  153.1221 H   0  0  0  0  0  0  0  0  0  0  0  0
  142.6023  134.0234  150.7766 H   0  0  0  0  0  0  0  0  0  0  0  0
  1  2  1  0  0  0  0
  1 21  1  0  0  0  0
  1 22  1  0  0  0  0
  1 23  1  0  0  0  0
  2  3  1  0  0  0  0
  2  4  1  0  0  0  0
  2 24  1  0  0  0  0
  3 25  1  0  0  0  0
  3 26  1  0  0  0  0
  3 27  1  0  0  0  0
  4  5  1  0  0  0  0
  4 28  1  0  0  0  0
  4 29  1  0  0  0  0
  5 20  1  0  0  0  0
  5  6  1  0  0  0  0
  5 42  1  0  0  0  0
  6  7  1  0  0  0  0
  6 30  1  0  0  0  0
  6 31  1  0  0  0  0
  7  8  1  0  0  0  0
  7 32  1  0  0  0  0
  7 33  1  0  0  0  0
  8  9  1  0  0  0  0
  9 10  1  0  0  0  0
  9 20  1  0  0  0  0
  9 34  1  0  0  0  0
 10 11  1  0  0  0  0
 10 35  1  0  0  0  0
 10 36  1  0  0  0  0
 11 12  1  0  0  0  0
 11 37  1  0  0  0  0
 12 13  2  0  0  0  0
 12 14  1  0  0  0  0
 14 15  1  0  0  0  0
 15 19  1  0  0  0  0
 15 16  2  0  0  0  0
 16 17  1  0  0  0  0
 17 18  2  0  0  0  0
 17 38  1  0  0  0  0
 18 19  1  0  0  0  0
 18 39  1  0  0  0  0
 20 40  1  0  0  0  0
 20 41  1  0  0  0  0
M  CHG  1   5   1
M  CHG  1  14  -1
M  END
> <s_m_source_file>
AV-unprocessed.smi

> <i_m_source_file_index>
2062

> <i_lp_mmshare_version>
43012

> <i_f3d_flags>
0

> <s_epik_input>
W0NIM11bQ0hdKFtDSDNdKVtDSDJdTjFbQ0gyXVtDSDJdT1tDQEhdKFtDSDJdMSlbQ0gyXVtOSF1DKD1PKVtOSF1jMm5bY0hdW2NIXXMy

> <s_epik_cmdline>
J2VwaWtfcHl0aG9uJywgJy1waCcsICc3LjAnLCAnLXRuJywgJzgnLCAnLW1hJywgJzIwMCcsICctbWV0YWxfYmluZGluZycsICctaW1hZScsICc8aW5maWxlLm1hZT4nLCAnLW9tYWUnLCAnPG91dGZpbGUubWFlPic=

> <r_lp_tautomer_probability>
0.999

> <r_epik_Ionization_Penalty>
6.35835

> <r_epik_Ionization_Penalty_Charging>
5.49938

> <r_epik_Ionization_Penalty_Neutral>
0.858963

> <r_epik_State_Penalty>
5.49328

> <r_epik_Charging_Adjusted_Penalty>
10.9927

> <i_epik_Tot_Q>
0

> <i_epik_Tot_abs_Q>
2

> <r_epik_Metal_State_Penalty>
1.51523

> <b_epik_Metal_Only>
1

> <s_lp_Force_Field>
OPLS_2005

> <r_lp_Energy>
10.4353

> <b_lp_Chiralities_Consistent>
1

> <s_lp_Variant>
AV-unprocessed.smi:2062-8

> <Gold.Version>
5.8.1

> <Gold.Id.Protein>
6NUR|6NUR_protein|mol2

> <Gold.PLP.Fitness>
41.3261

> <Gold.PLP.PLP>
-33.9010

> <Gold.PLP.part.hbond>
-2.0000

> <Gold.PLP.part.metal>
0.0000

> <Gold.PLP.part.buried>
-7.8373

> <Gold.PLP.part.nonpolar>
-25.2867

> <Gold.PLP.part.repulsive>
0.4221

> <Gold.PLP.ligand.clash>
0.0000

> <Gold.PLP.ligand.torsion>
0.8565

> <Gold.PLP.Chemscore.Hbond>
3.0000

> <Gold.PLP.Chemscore.CHOScore>
0.0000

> <Gold.PLP.Chemscore.Metal>
0.0000

> <Gold.Chemscore.Hbonds>
donor molecule, donor type, donor heavy atom, donor atom, acceptor molecule, acceptor atom, score
      L1  H     5    42       P1 10186  1.95
      P1  H 11000 11005       L1    13  1.00

> <Gold.PLP.Chemscore.Internal.Correction>
0.1380

> <Gold.Rescore>
     Score         DG    S(hbond)    S(metal)    S(lipo)     H(rot)  DE(clash)    DE(int)     intcor
     13.12     -15.66       1.53        0.00      81.05       1.72       0.07       2.47       ----

> <Gold.Chemscore.Fitness>
13.1246

> <Gold.Chemscore.DG>
-15.6630

> <Gold.Chemscore.ZeroCoef>
-5.4800

> <Gold.Chemscore.Hbond>
1.5275

> <Gold.Chemscore.Metal>
0.0000

> <Gold.Chemscore.Lipo>
81.0487

> <Gold.Chemscore.Internal_Hbond>
0.0000

> <Gold.Chemscore.DEClash>
0.0650

> <Gold.Chemscore.DEInternal>
2.4734

> <Gold.Chemscore.Rot>
1.7194

> <Gold.Chemscore.Internal.Correction>
   9.000000E+99

> <Gold.Chemscore.Hbonds>
donor molecule, donor type, donor heavy atom, donor atom, acceptor molecule, acceptor atom, score
      L1  H     5    42       P1 10186  0.57
      P1  H 11000 11005       L1    13  0.98

> <Gold.Chemscore.Hbond.Weighted>
-5.1020

> <Gold.Chemscore.Metal.Weighted>
-0.0000

> <Gold.Chemscore.Lipo.Weighted>
-9.4827

> <Gold.Chemscore.Internal_Hbond.Weighted>
0.0000

> <Gold.Chemscore.DEClash.Weighted>
0.0650

> <Gold.Chemscore.DEInternal.Weighted>
2.4734

> <Gold.Chemscore.Rot.Weighted>
4.4017

> <Gold.Chemscore.Internal.Correction.Weighted>
   9.000000E+99

> <Gold.Protein.RotatedTorsions>
[ 6907 6896 6895 6894 ] final  146.30 input  -60.11 | X-H torsion
[ 7974 7965 7964 7962 ] final    0.40 input  175.53 | X-H torsion
[ 8008 7997 7996 7995 ] final -103.66 input   59.86 | X-H torsion
[ 10167 10162 10161 10158 ] final  164.16 input  -65.29 | X-H torsion
[ 10718 10713 10712 10709 ] final   61.06 input   66.30 | X-H torsion
[ 10763 10752 10751 10750 ] final -171.90 input  -60.55 | X-H torsion
[ 11005 11000 10999 10996 ] final   63.98 input  -57.11 | X-H torsion

> <Gold.Protein.ActiveResidues>
 VAL166  LYS551  ARG553  GLY616  TRP617  ASP618  TYR619  PRO620  LYS621  CYS622 
 ASP623  PHE694  ASN695  SER759  ASP760  ASP761  ALA762  ILE779  LEU786  VAL792 
 PHE793  MET794  SER795  GLU796  ALA797  LYS798  CYS799  TRP800  GLU811  SER814 

> <Gold.Protein.RotatedAtoms>
  152.1698  133.4636  159.4902 H   0  0  0  0  0  0  0  0  0  0  0  0  # atno 6907 bound_to 6896
  150.6918  134.1968  159.4315 H   0  0  0  0  0  0  0  0  0  0  0  0  # atno 6908 bound_to 6896
  151.9874  134.9996  160.0610 H   0  0  0  0  0  0  0  0  0  0  0  0  # atno 6909 bound_to 6896
  146.2434  140.1144  142.8342 H   0  0  0  0  0  0  0  0  0  0  0  0  # atno 7974 bound_to 7965
  154.8741  140.0421  157.1743 H   0  0  0  0  0  0  0  0  0  0  0  0  # atno 8008 bound_to 7997
  154.8708  140.2958  155.5462 H   0  0  0  0  0  0  0  0  0  0  0  0  # atno 8009 bound_to 7997
  156.2999  140.2429  156.3696 H   0  0  0  0  0  0  0  0  0  0  0  0  # atno 8010 bound_to 7997
  139.4884  144.4263  151.9125 H   0  0  0  0  0  0  0  0  0  0  0  0  # atno 10167 bound_to 10162
  157.5800  130.8973  149.9413 H   0  0  0  0  0  0  0  0  0  0  0  0  # atno 10718 bound_to 10713
  154.6253  135.2880  155.0279 H   0  0  0  0  0  0  0  0  0  0  0  0  # atno 10763 bound_to 10752
  154.1459  135.6511  153.4956 H   0  0  0  0  0  0  0  0  0  0  0  0  # atno 10764 bound_to 10752
  153.0254  135.5344  154.7059 H   0  0  0  0  0  0  0  0  0  0  0  0  # atno 10765 bound_to 10752
  139.9989  134.6474  155.9964 H   0  0  0  0  0  0  0  0  0  0  0  0  # atno 11005 bound_to 11000
  145.0460  140.8981  143.5024 LP  0  0  0  0  0  0  0  0  0  0  0  0  # atno 17320 bound_to 7965
  145.1233  139.2679  143.5577 LP  0  0  0  0  0  0  0  0  0  0  0  0  # atno 17321 bound_to 7965
  140.3709  144.2856  150.5920 LP  0  0  0  0  0  0  0  0  0  0  0  0  # atno 17342 bound_to 10162
  140.5320  143.2241  151.8224 LP  0  0  0  0  0  0  0  0  0  0  0  0  # atno 17343 bound_to 10162
  156.0845  130.3669  150.0514 LP  0  0  0  0  0  0  0  0  0  0  0  0  # atno 17370 bound_to 10713
  156.8655  130.9506  151.3614 LP  0  0  0  0  0  0  0  0  0  0  0  0  # atno 17371 bound_to 10713
  141.1626  133.6538  156.4370 LP  0  0  0  0  0  0  0  0  0  0  0  0  # atno 17394 bound_to 11000
  140.4766  134.6704  157.5152 LP  0  0  0  0  0  0  0  0  0  0  0  0  # atno 17395 bound_to 11000

$$$$
