AV-unprocessed.smi:2352|AV-procd|sdf|9378|dock10
  -GOLD-   2272013 03D 1   1.00000     0.00000
 Structure written by MMmdl.
 37 38  0  0  0  0  0  0  0  0  1 V2000
  152.4058  143.2409  161.2607 C   0  0  0  0  0  0  0  0  0  0  0  0
  152.1876  142.6915  159.8620 C   0  0  0  0  0  0  0  0  0  0  0  0
  151.4880  143.5280  158.9874 N   0  0  0  0  0  0  0  0  0  0  0  0
  151.2524  143.1422  157.7762 C   0  0  0  0  0  0  0  0  0  0  0  0
  151.6812  141.8909  157.3038 N   0  0  0  0  0  0  0  0  0  0  0  0
  151.3472  141.5719  155.9052 C   0  0  0  0  0  0  0  0  0  0  0  0
  150.1949  140.5486  155.7958 C   0  0  2  0  0  0  0  0  0  0  0  0
  150.4552  139.6882  154.7040 O   0  0  0  0  0  0  0  0  0  0  0  0
  148.8549  141.2522  155.6394 C   0  0  0  0  0  0  0  0  0  0  0  0
  148.4566  141.7804  154.3920 C   0  0  0  0  0  0  0  0  0  0  0  0
  147.2167  142.4349  154.2599 C   0  0  0  0  0  0  0  0  0  0  0  0
  146.3583  142.5695  155.3727 C   0  0  0  0  0  0  0  0  0  0  0  0
  145.0211  143.2833  155.2371 C   0  0  0  0  0  0  0  0  0  0  0  0
  144.0138  142.4123  155.3062 F   0  0  0  0  0  0  0  0  0  0  0  0
  144.8934  144.1668  156.2263 F   0  0  0  0  0  0  0  0  0  0  0  0
  144.9349  143.9278  154.0728 F   0  0  0  0  0  0  0  0  0  0  0  0
  146.7634  142.0524  156.6219 C   0  0  0  0  0  0  0  0  0  0  0  0
  148.0033  141.3976  156.7545 C   0  0  0  0  0  0  0  0  0  0  0  0
  152.3782  141.0180  158.0877 C   0  0  0  0  0  0  0  0  0  0  0  0
  152.7630  139.9286  157.6580 O   0  0  0  0  0  0  0  0  0  0  0  0
  152.6350  141.4689  159.4650 C   0  0  0  0  0  0  0  0  0  0  0  0
  153.4018  140.5154  160.3728 C   0  0  0  0  0  0  0  0  0  0  0  0
  151.9468  142.5884  162.0038 H   0  0  0  0  0  0  0  0  0  0  0  0
  151.9666  144.2333  161.3709 H   0  0  0  0  0  0  0  0  0  0  0  0
  153.4713  143.3220  161.4777 H   0  0  0  0  0  0  0  0  0  0  0  0
  150.7154  143.7588  157.0533 H   0  0  0  0  0  0  0  0  0  0  0  0
  151.0494  142.4999  155.4130 H   0  0  0  0  0  0  0  0  0  0  0  0
  152.2159  141.2336  155.3359 H   0  0  0  0  0  0  0  0  0  0  0  0
  150.1505  139.9326  156.6950 H   0  0  0  0  0  0  0  0  0  0  0  0
  150.6531  138.8280  155.0420 H   0  0  0  0  0  0  0  0  0  0  0  0
  149.1028  141.6885  153.5311 H   0  0  0  0  0  0  0  0  0  0  0  0
  146.9304  142.8359  153.2988 H   0  0  0  0  0  0  0  0  0  0  0  0
  146.1245  142.1585  157.4863 H   0  0  0  0  0  0  0  0  0  0  0  0
  148.2989  141.0099  157.7186 H   0  0  0  0  0  0  0  0  0  0  0  0
  154.3889  140.3119  159.9562 H   0  0  0  0  0  0  0  0  0  0  0  0
  152.8689  139.5678  160.4591 H   0  0  0  0  0  0  0  0  0  0  0  0
  153.5446  140.9032  161.3800 H   0  0  0  0  0  0  0  0  0  0  0  0
  1  2  1  0  0  0  0
  1 23  1  0  0  0  0
  1 24  1  0  0  0  0
  1 25  1  0  0  0  0
  2 21  2  0  0  0  0
  2  3  1  0  0  0  0
  3  4  2  0  0  0  0
  4  5  1  0  0  0  0
  4 26  1  0  0  0  0
  5  6  1  0  0  0  0
  5 19  1  0  0  0  0
  6  7  1  0  0  0  0
  6 27  1  0  0  0  0
  6 28  1  0  0  0  0
  7  8  1  0  0  0  0
  7  9  1  0  0  0  0
  7 29  1  0  0  0  0
  8 30  1  0  0  0  0
  9 18  1  0  0  0  0
  9 10  2  0  0  0  0
 10 11  1  0  0  0  0
 10 31  1  0  0  0  0
 11 12  2  0  0  0  0
 11 32  1  0  0  0  0
 12 13  1  0  0  0  0
 12 17  1  0  0  0  0
 13 14  1  0  0  0  0
 13 15  1  0  0  0  0
 13 16  1  0  0  0  0
 17 18  2  0  0  0  0
 17 33  1  0  0  0  0
 18 34  1  0  0  0  0
 19 20  2  0  0  0  0
 19 21  1  0  0  0  0
 21 22  1  0  0  0  0
 22 35  1  0  0  0  0
 22 36  1  0  0  0  0
 22 37  1  0  0  0  0
M  END
> <s_m_source_file>
AV-unprocessed.smi

> <i_m_source_file_index>
2352

> <i_lp_mmshare_version>
43012

> <i_f3d_flags>
0

> <s_epik_input>
W0NIM11jMW5bY0hdbihjKD1PKWMxW0NIM10pW0NIMl1bQ0BIXShbT0hdKWMyW2NIXVtjSF1jKEMoRikoRilGKVtjSF1bY0hdMg==

> <s_epik_cmdline>
J2VwaWtfcHl0aG9uJywgJy1waCcsICc3LjAnLCAnLXRuJywgJzgnLCAnLW1hJywgJzIwMCcsICctbWV0YWxfYmluZGluZycsICctaW1hZScsICc8aW5maWxlLm1hZT4nLCAnLW9tYWUnLCAnPG91dGZpbGUubWFlPic=

> <r_lp_tautomer_probability>
1

> <r_epik_Ionization_Penalty>
5.07001e-05

> <r_epik_Ionization_Penalty_Charging>
7.56727e-08

> <r_epik_Ionization_Penalty_Neutral>
5.06244e-05

> <r_epik_State_Penalty>
-0

> <r_epik_Charging_Adjusted_Penalty>
7.56727e-08

> <i_epik_Tot_Q>
0

> <i_epik_Tot_abs_Q>
0

> <r_epik_Metal_State_Penalty>
-0

> <b_epik_Metal_Only>
0

> <s_lp_Force_Field>
OPLS_2005

> <r_lp_Energy>
21.4473

> <b_lp_Chiralities_Consistent>
1

> <s_lp_Variant>
AV-unprocessed.smi:2352-1

> <Gold.Version>
5.8.1

> <Gold.Id.Protein>
6NUR|6NUR_protein|mol2

> <Gold.PLP.Fitness>
45.6466

> <Gold.PLP.PLP>
-39.7366

> <Gold.PLP.part.hbond>
-1.8247

> <Gold.PLP.part.metal>
0.0000

> <Gold.PLP.part.buried>
-4.4971

> <Gold.PLP.part.nonpolar>
-31.4561

> <Gold.PLP.part.repulsive>
0.0470

> <Gold.PLP.ligand.clash>
0.6098

> <Gold.PLP.ligand.torsion>
1.5669

> <Gold.PLP.Chemscore.Hbond>
1.8775

> <Gold.PLP.Chemscore.CHOScore>
1.0000

> <Gold.PLP.Chemscore.Metal>
0.0000

> <Gold.Chemscore.Hbonds>
donor molecule, donor type, donor heavy atom, donor atom, acceptor molecule, acceptor atom, score
      P1  H  7989  7998       L1     8  0.94
      P1  H  7997  8009       L1    20  1.00
      L1  C     4    26       P1  8028  1.00

> <Gold.PLP.Chemscore.Internal.Correction>
1.0211

> <Gold.Rescore>
     Score         DG    S(hbond)    S(metal)    S(lipo)     H(rot)  DE(clash)    DE(int)     intcor
     13.13     -14.56       1.43        0.00      83.38       2.13       0.69       0.74       ----

> <Gold.Chemscore.Fitness>
13.1315

> <Gold.Chemscore.DG>
-14.5600

> <Gold.Chemscore.ZeroCoef>
-5.4800

> <Gold.Chemscore.Hbond>
1.4340

> <Gold.Chemscore.Metal>
0.0000

> <Gold.Chemscore.Lipo>
83.3792

> <Gold.Chemscore.Internal_Hbond>
0.0000

> <Gold.Chemscore.DEClash>
0.6898

> <Gold.Chemscore.DEInternal>
0.7388

> <Gold.Chemscore.Rot>
2.1347

> <Gold.Chemscore.Internal.Correction>
   9.000000E+99

> <Gold.Chemscore.Hbonds>
donor molecule, donor type, donor heavy atom, donor atom, acceptor molecule, acceptor atom, score
      P1  H  7989  7998       L1     8  0.31
      P1  H  7997  8009       L1    20  0.80

> <Gold.Chemscore.Hbond.Weighted>
-4.7895

> <Gold.Chemscore.Metal.Weighted>
-0.0000

> <Gold.Chemscore.Lipo.Weighted>
-9.7554

> <Gold.Chemscore.Internal_Hbond.Weighted>
0.0000

> <Gold.Chemscore.DEClash.Weighted>
0.6898

> <Gold.Chemscore.DEInternal.Weighted>
0.7388

> <Gold.Chemscore.Rot.Weighted>
5.4649

> <Gold.Chemscore.Internal.Correction.Weighted>
   9.000000E+99

> <Gold.Protein.RotatedTorsions>
[ 6907 6896 6895 6894 ] final   60.79 input  -60.11 | X-H torsion
[ 7974 7965 7964 7962 ] final   47.23 input  175.53 | X-H torsion
[ 8008 7997 7996 7995 ] final -179.95 input   59.86 | X-H torsion
[ 10167 10162 10161 10158 ] final  133.22 input  -65.29 | X-H torsion
[ 10718 10713 10712 10709 ] final -148.15 input   66.30 | X-H torsion
[ 10763 10752 10751 10750 ] final   23.65 input  -60.55 | X-H torsion
[ 11005 11000 10999 10996 ] final   23.76 input  -57.11 | X-H torsion

> <Gold.Protein.ActiveResidues>
 VAL166  LYS551  ARG553  GLY616  TRP617  ASP618  TYR619  PRO620  LYS621  CYS622 
 ASP623  PHE694  ASN695  SER759  ASP760  ASP761  ALA762  ILE779  LEU786  VAL792 
 PHE793  MET794  SER795  GLU796  ALA797  LYS798  CYS799  TRP800  GLU811  SER814 

> <Gold.Protein.RotatedAtoms>
  152.4033  134.6249  160.0060 H   0  0  0  0  0  0  0  0  0  0  0  0  # atno 6907 bound_to 6896
  151.6448  133.3318  159.3146 H   0  0  0  0  0  0  0  0  0  0  0  0  # atno 6908 bound_to 6896
  150.7931  134.7012  159.6596 H   0  0  0  0  0  0  0  0  0  0  0  0  # atno 6909 bound_to 6896
  146.0316  139.4771  142.9834 H   0  0  0  0  0  0  0  0  0  0  0  0  # atno 7974 bound_to 7965
  156.0364  140.1293  157.0203 H   0  0  0  0  0  0  0  0  0  0  0  0  # atno 8008 bound_to 7997
  154.4372  140.1039  156.6244 H   0  0  0  0  0  0  0  0  0  0  0  0  # atno 8009 bound_to 7997
  155.5732  140.3467  155.4523 H   0  0  0  0  0  0  0  0  0  0  0  0  # atno 8010 bound_to 7997
  139.5306  144.6626  151.4964 H   0  0  0  0  0  0  0  0  0  0  0  0  # atno 10167 bound_to 10162
  156.4166  130.8008  151.2228 H   0  0  0  0  0  0  0  0  0  0  0  0  # atno 10718 bound_to 10713
  153.0822  135.6622  154.0021 H   0  0  0  0  0  0  0  0  0  0  0  0  # atno 10763 bound_to 10752
  153.9640  135.2971  155.3433 H   0  0  0  0  0  0  0  0  0  0  0  0  # atno 10764 bound_to 10752
  154.7224  135.5159  153.8904 H   0  0  0  0  0  0  0  0  0  0  0  0  # atno 10765 bound_to 10752
  140.3661  134.2073  155.7669 H   0  0  0  0  0  0  0  0  0  0  0  0  # atno 11005 bound_to 11000
  145.7031  141.0130  143.1494 LP  0  0  0  0  0  0  0  0  0  0  0  0  # atno 17320 bound_to 7965
  144.7033  139.8668  143.7437 LP  0  0  0  0  0  0  0  0  0  0  0  0  # atno 17321 bound_to 7965
  140.6481  143.8752  150.6758 LP  0  0  0  0  0  0  0  0  0  0  0  0  # atno 17342 bound_to 10162
  140.2108  143.3885  152.1719 LP  0  0  0  0  0  0  0  0  0  0  0  0  # atno 17343 bound_to 10162
  157.7508  131.0241  150.3863 LP  0  0  0  0  0  0  0  0  0  0  0  0  # atno 17370 bound_to 10713
  156.4172  130.3945  149.6850 LP  0  0  0  0  0  0  0  0  0  0  0  0  # atno 17371 bound_to 10713
  141.1969  133.8072  157.0651 LP  0  0  0  0  0  0  0  0  0  0  0  0  # atno 17394 bound_to 11000
  140.0588  134.9766  157.1268 LP  0  0  0  0  0  0  0  0  0  0  0  0  # atno 17395 bound_to 11000

$$$$
