AV-unprocessed.smi:1536|AV-procd|sdf|6186|dock3
  -GOLD-   22720 6343D 1   1.00000     0.00000
 Structure written by MMmdl.
 48 49  0  0  0  0  0  0  0  0  2 V2000
  151.8740  145.6185  159.9050 C   0  0  0  0  0  0  0  0  0  0  0  0
  151.2126  144.3162  159.4328 C   0  0  2  0  0  0  0  0  0  0  0  0
  151.7290  143.8847  158.0498 C   0  0  0  0  0  0  0  0  0  0  0  0
  151.0396  142.5939  157.5806 C   0  0  0  0  0  0  0  0  0  0  0  0
  149.5604  142.7673  157.5400 N   0  3  1  0  0  0  0  0  0  0  0  0
  148.7829  141.6727  156.8769 C   0  0  2  0  0  0  0  0  0  0  0  0
  148.6300  140.3967  157.7501 C   0  0  0  0  0  0  0  0  0  0  0  0
  147.2986  139.8133  157.6208 N   0  0  0  0  0  0  0  0  0  0  0  0
  146.1737  140.2950  158.1733 C   0  0  0  0  0  0  0  0  0  0  0  0
  146.1092  141.3697  158.7686 O   0  0  0  0  0  0  0  0  0  0  0  0
  144.9402  139.3987  158.0793 C   0  0  0  0  0  0  0  0  0  0  0  0
  144.5037  139.0117  159.4076 N   0  0  0  0  0  0  0  0  0  0  0  0
  143.3215  139.1385  160.0135 C   0  0  0  0  0  0  0  0  0  0  0  0
  143.3607  138.6900  161.2588 N   0  0  0  0  0  0  0  0  0  0  0  0
  144.6700  138.2618  161.3989 N   0  0  0  0  0  0  0  0  0  0  0  0
  145.3534  138.4505  160.3041 N   0  0  0  0  0  0  0  0  0  0  0  0
  149.2889  141.4230  155.4255 C   0  0  0  0  0  0  0  0  0  0  0  0
  148.1840  141.0851  154.4100 C   0  0  0  0  0  0  0  0  0  0  0  0
  150.4100  140.3703  155.3831 C   0  0  0  0  0  0  0  0  0  0  0  0
  149.0245  143.1446  158.8746 C   0  0  0  0  0  0  0  0  0  0  0  0
  149.6800  144.4387  159.3872 C   0  0  0  0  0  0  0  0  0  0  0  0
  151.6563  146.4439  159.2266 H   0  0  0  0  0  0  0  0  0  0  0  0
  152.9576  145.5106  159.9607 H   0  0  0  0  0  0  0  0  0  0  0  0
  151.5208  145.9012  160.8971 H   0  0  0  0  0  0  0  0  0  0  0  0
  151.4691  143.5355  160.1507 H   0  0  0  0  0  0  0  0  0  0  0  0
  151.5543  144.6777  157.3210 H   0  0  0  0  0  0  0  0  0  0  0  0
  152.8081  143.7306  158.0862 H   0  0  0  0  0  0  0  0  0  0  0  0
  151.4234  142.3236  156.5982 H   0  0  0  0  0  0  0  0  0  0  0  0
  151.3023  141.7798  158.2577 H   0  0  0  0  0  0  0  0  0  0  0  0
  147.7641  142.0409  156.7453 H   0  0  0  0  0  0  0  0  0  0  0  0
  149.3928  139.6552  157.5114 H   0  0  0  0  0  0  0  0  0  0  0  0
  148.7717  140.6513  158.8010 H   0  0  0  0  0  0  0  0  0  0  0  0
  147.2397  138.9245  157.1441 H   0  0  0  0  0  0  0  0  0  0  0  0
  144.1269  139.9272  157.5804 H   0  0  0  0  0  0  0  0  0  0  0  0
  145.1595  138.5063  157.4912 H   0  0  0  0  0  0  0  0  0  0  0  0
  142.4448  139.5673  159.5509 H   0  0  0  0  0  0  0  0  0  0  0  0
  149.7528  142.3455  155.0766 H   0  0  0  0  0  0  0  0  0  0  0  0
  147.7461  140.1058  154.6024 H   0  0  0  0  0  0  0  0  0  0  0  0
  148.5867  141.0629  153.3969 H   0  0  0  0  0  0  0  0  0  0  0  0
  147.3832  141.8237  154.4211 H   0  0  0  0  0  0  0  0  0  0  0  0
  150.0500  139.3845  155.6785 H   0  0  0  0  0  0  0  0  0  0  0  0
  151.2303  140.6399  156.0491 H   0  0  0  0  0  0  0  0  0  0  0  0
  150.8240  140.2814  154.3784 H   0  0  0  0  0  0  0  0  0  0  0  0
  147.9472  143.3038  158.8137 H   0  0  0  0  0  0  0  0  0  0  0  0
  149.1876  142.3277  159.5793 H   0  0  0  0  0  0  0  0  0  0  0  0
  149.2945  144.6767  160.3792 H   0  0  0  0  0  0  0  0  0  0  0  0
  149.3955  145.2691  158.7391 H   0  0  0  0  0  0  0  0  0  0  0  0
  149.3969  143.5786  156.9606 H   0  0  0  0  0  0  0  0  0  0  0  0
  1  2  1  0  0  0  0
  1 22  1  0  0  0  0
  1 23  1  0  0  0  0
  1 24  1  0  0  0  0
  2 21  1  0  0  0  0
  2  3  1  0  0  0  0
  2 25  1  0  0  0  0
  3  4  1  0  0  0  0
  3 26  1  0  0  0  0
  3 27  1  0  0  0  0
  4  5  1  0  0  0  0
  4 28  1  0  0  0  0
  4 29  1  0  0  0  0
  5  6  1  0  0  0  0
  5 20  1  0  0  0  0
  5 48  1  0  0  0  0
  6  7  1  0  0  0  0
  6 17  1  0  0  0  0
  6 30  1  0  0  0  0
  7  8  1  0  0  0  0
  7 31  1  0  0  0  0
  7 32  1  0  0  0  0
  8  9  1  0  0  0  0
  8 33  1  0  0  0  0
  9 10  2  0  0  0  0
  9 11  1  0  0  0  0
 11 12  1  0  0  0  0
 11 34  1  0  0  0  0
 11 35  1  0  0  0  0
 12 16  1  0  0  0  0
 12 13  1  0  0  0  0
 13 14  2  0  0  0  0
 13 36  1  0  0  0  0
 14 15  1  0  0  0  0
 15 16  2  0  0  0  0
 17 18  1  0  0  0  0
 17 19  1  0  0  0  0
 17 37  1  0  0  0  0
 18 38  1  0  0  0  0
 18 39  1  0  0  0  0
 18 40  1  0  0  0  0
 19 41  1  0  0  0  0
 19 42  1  0  0  0  0
 19 43  1  0  0  0  0
 20 21  1  0  0  0  0
 20 44  1  0  0  0  0
 20 45  1  0  0  0  0
 21 46  1  0  0  0  0
 21 47  1  0  0  0  0
M  CHG  1   5   1
M  END
> <s_m_source_file>
AV-unprocessed.smi

> <i_m_source_file_index>
1536

> <i_lp_mmshare_version>
43012

> <i_f3d_flags>
0

> <s_epik_input>
W0NIM11bQ0hdMVtDSDJdW0NIMl1OKFtDSDJdW0NIMl0xKVtDQEBIXShbQ0hdKFtDSDNdKVtDSDNdKVtDSDJdW05IXUMoPU8pW0NIMl1uMltjSF1ubm4y

> <s_epik_cmdline>
J2VwaWtfcHl0aG9uJywgJy1waCcsICc3LjAnLCAnLXRuJywgJzgnLCAnLW1hJywgJzIwMCcsICctbWV0YWxfYmluZGluZycsICctaW1hZScsICc8aW5maWxlLm1hZT4nLCAnLW9tYWUnLCAnPG91dGZpbGUubWFlPic=

> <r_lp_tautomer_probability>
1

> <r_epik_Ionization_Penalty>
0.00109671

> <r_epik_Ionization_Penalty_Charging>
0.00109273

> <r_epik_Ionization_Penalty_Neutral>
3.97951e-06

> <r_epik_State_Penalty>
0.000716588

> <r_epik_Charging_Adjusted_Penalty>
0.00180932

> <i_epik_Tot_Q>
1

> <i_epik_Tot_abs_Q>
1

> <r_epik_Metal_State_Penalty>
-0

> <b_epik_Metal_Only>
0

> <s_lp_Force_Field>
OPLS_2005

> <r_lp_Energy>
28.917

> <b_lp_Chiralities_Consistent>
1

> <s_lp_Variant>
AV-unprocessed.smi:1536-1

> <Gold.Version>
5.8.1

> <Gold.Id.Protein>
6NUR|6NUR_protein|mol2

> <Gold.PLP.Fitness>
38.0172

> <Gold.PLP.PLP>
-30.1658

> <Gold.PLP.part.hbond>
-4.4254

> <Gold.PLP.part.metal>
0.0000

> <Gold.PLP.part.buried>
-1.2881

> <Gold.PLP.part.nonpolar>
-26.2532

> <Gold.PLP.part.repulsive>
0.1227

> <Gold.PLP.ligand.clash>
0.0000

> <Gold.PLP.ligand.torsion>
1.3630

> <Gold.PLP.Chemscore.Hbond>
3.3288

> <Gold.PLP.Chemscore.CHOScore>
0.0000

> <Gold.PLP.Chemscore.Metal>
0.0000

> <Gold.Chemscore.Hbonds>
donor molecule, donor type, donor heavy atom, donor atom, acceptor molecule, acceptor atom, score
      L1  H     5    48       P1  8028  2.00
      P1  H  6934  6946       L1    10  0.48
      P1  H  6934  6947       L1    16  0.58

> <Gold.PLP.Chemscore.Internal.Correction>
0.5911

> <Gold.Rescore>
     Score         DG    S(hbond)    S(metal)    S(lipo)     H(rot)  DE(clash)    DE(int)     intcor
     12.35     -13.95       1.94        0.00      77.55       2.77       0.25       1.36       ----

> <Gold.Chemscore.Fitness>
12.3535

> <Gold.Chemscore.DG>
-13.9541

> <Gold.Chemscore.ZeroCoef>
-5.4800

> <Gold.Chemscore.Hbond>
1.9446

> <Gold.Chemscore.Metal>
0.0000

> <Gold.Chemscore.Lipo>
77.5453

> <Gold.Chemscore.Internal_Hbond>
0.0000

> <Gold.Chemscore.DEClash>
0.2453

> <Gold.Chemscore.DEInternal>
1.3553

> <Gold.Chemscore.Rot>
2.7709

> <Gold.Chemscore.Internal.Correction>
   9.000000E+99

> <Gold.Chemscore.Hbonds>
donor molecule, donor type, donor heavy atom, donor atom, acceptor molecule, acceptor atom, score
      L1  H     5    48       P1  8028  0.91
      P1  H  6934  6946       L1    10  0.14
      P1  H  6934  6947       L1    16  0.28

> <Gold.Chemscore.Hbond.Weighted>
-6.4949

> <Gold.Chemscore.Metal.Weighted>
-0.0000

> <Gold.Chemscore.Lipo.Weighted>
-9.0728

> <Gold.Chemscore.Internal_Hbond.Weighted>
0.0000

> <Gold.Chemscore.DEClash.Weighted>
0.2453

> <Gold.Chemscore.DEInternal.Weighted>
1.3553

> <Gold.Chemscore.Rot.Weighted>
7.0935

> <Gold.Chemscore.Internal.Correction.Weighted>
   9.000000E+99

> <Gold.Protein.RotatedTorsions>
[ 6907 6896 6895 6894 ] final  162.34 input  -60.11 | X-H torsion
[ 7974 7965 7964 7962 ] final   44.47 input  175.53 | X-H torsion
[ 8008 7997 7996 7995 ] final -127.68 input   59.86 | X-H torsion
[ 10167 10162 10161 10158 ] final -165.77 input  -65.29 | X-H torsion
[ 10718 10713 10712 10709 ] final -118.87 input   66.30 | X-H torsion
[ 10763 10752 10751 10750 ] final -123.70 input  -60.55 | X-H torsion
[ 11005 11000 10999 10996 ] final  145.55 input  -57.11 | X-H torsion

> <Gold.Protein.ActiveResidues>
 VAL166  LYS551  ARG553  GLY616  TRP617  ASP618  TYR619  PRO620  LYS621  CYS622 
 ASP623  PHE694  ASN695  SER759  ASP760  ASP761  ALA762  ILE779  LEU786  VAL792 
 PHE793  MET794  SER795  GLU796  ALA797  LYS798  CYS799  TRP800  GLU811  SER814 

> <Gold.Protein.RotatedAtoms>
  151.9419  133.3640  159.3967 H   0  0  0  0  0  0  0  0  0  0  0  0  # atno 6907 bound_to 6896
  150.6997  134.4430  159.5310 H   0  0  0  0  0  0  0  0  0  0  0  0  # atno 6908 bound_to 6896
  152.2089  134.8520  160.0550 H   0  0  0  0  0  0  0  0  0  0  0  0  # atno 6909 bound_to 6896
  146.0566  139.5071  142.9685 H   0  0  0  0  0  0  0  0  0  0  0  0  # atno 7974 bound_to 7965
  155.2502  140.0432  157.2985 H   0  0  0  0  0  0  0  0  0  0  0  0  # atno 8008 bound_to 7997
  154.5774  140.2391  155.8073 H   0  0  0  0  0  0  0  0  0  0  0  0  # atno 8009 bound_to 7997
  156.2168  140.2982  155.9866 H   0  0  0  0  0  0  0  0  0  0  0  0  # atno 8010 bound_to 7997
  139.6159  144.0720  152.1887 H   0  0  0  0  0  0  0  0  0  0  0  0  # atno 10167 bound_to 10162
  156.1139  130.6270  150.9346 H   0  0  0  0  0  0  0  0  0  0  0  0  # atno 10718 bound_to 10713
  154.8712  135.4089  154.2987 H   0  0  0  0  0  0  0  0  0  0  0  0  # atno 10763 bound_to 10752
  153.3850  135.7013  153.6542 H   0  0  0  0  0  0  0  0  0  0  0  0  # atno 10764 bound_to 10752
  153.5349  135.3660  155.2664 H   0  0  0  0  0  0  0  0  0  0  0  0  # atno 10765 bound_to 10752
  140.0721  134.9145  157.1363 H   0  0  0  0  0  0  0  0  0  0  0  0  # atno 11005 bound_to 11000
  145.6633  141.0235  143.1697 LP  0  0  0  0  0  0  0  0  0  0  0  0  # atno 17320 bound_to 7965
  144.7151  139.8226  143.7401 LP  0  0  0  0  0  0  0  0  0  0  0  0  # atno 17321 bound_to 7965
  140.0350  144.6051  150.7457 LP  0  0  0  0  0  0  0  0  0  0  0  0  # atno 17342 bound_to 10162
  140.7351  143.2736  151.3810 LP  0  0  0  0  0  0  0  0  0  0  0  0  # atno 17343 bound_to 10162
  157.6321  131.0920  150.8421 LP  0  0  0  0  0  0  0  0  0  0  0  0  # atno 17370 bound_to 10713
  156.8527  130.5086  149.5310 LP  0  0  0  0  0  0  0  0  0  0  0  0  # atno 17371 bound_to 10713
  140.3611  134.2493  155.7187 LP  0  0  0  0  0  0  0  0  0  0  0  0  # atno 17394 bound_to 11000
  141.2016  133.7959  157.0433 LP  0  0  0  0  0  0  0  0  0  0  0  0  # atno 17395 bound_to 11000

$$$$
