AV-unprocessed.smi:243|AV-procd|sdf|1848|dock10
  -GOLD-   2262020473D 1   1.00000     0.00000
 Structure written by MMmdl.
 58 61  0  0  0  0  0  0  0  0  2 V2000
  151.5840  144.8522  158.6573 C   0  0  0  0  0  0  0  0  0  0  0  0
  151.7194  144.1649  157.2907 C   0  0  0  0  0  0  0  0  0  0  0  0
  150.6875  143.1194  157.0757 N   0  3  2  0  0  0  0  0  0  0  0  0
  150.3165  142.4276  158.3364 C   0  0  0  0  0  0  0  0  0  0  0  0
  149.1419  141.4616  158.1162 C   0  0  0  0  0  0  0  0  0  0  0  0
  149.4701  140.4433  157.0028 C   0  0  1  0  0  0  0  0  0  0  0  0
  148.4936  139.3571  156.8005 N   0  0  0  0  0  0  0  0  0  0  0  0
  147.1112  139.7435  156.5392 C   0  0  0  0  0  0  0  0  0  0  0  0
  148.6797  138.1132  157.3205 C   0  0  0  0  0  0  0  0  0  0  0  0
  149.7486  137.3935  156.8933 N   0  0  0  0  0  0  0  0  0  0  0  0
  149.9650  136.1570  157.3493 C   0  0  0  0  0  0  0  0  0  0  0  0
  149.2410  135.4514  158.2185 N   0  0  0  0  0  0  0  0  0  0  0  0
  148.1549  136.1572  158.6432 C   0  0  0  0  0  0  0  0  0  0  0  0
  147.7968  137.4777  158.2459 C   0  0  0  0  0  0  0  0  0  0  0  0
  146.6246  137.8553  158.8932 N   0  0  0  0  0  0  0  0  0  0  0  0
  146.3089  136.8213  159.6234 C   0  0  0  0  0  0  0  0  0  0  0  0
  147.1807  135.7602  159.5422 N   0  0  0  0  0  0  0  0  0  0  0  0
  147.0777  134.4897  160.2428 C   0  0  0  0  0  0  0  0  0  0  0  0
  147.5391  134.5502  161.7208 C   0  0  1  0  0  0  0  0  0  0  0  0
  146.7217  133.7030  162.5060 O   0  0  0  0  0  0  0  0  0  0  0  0
  148.9952  134.1461  161.8847 C   0  0  0  0  0  0  0  0  0  0  0  0
  149.7434  135.4517  161.6214 C   0  0  0  0  0  0  0  0  0  0  0  0
  148.8450  136.5005  161.9718 O   0  0  0  0  0  0  0  0  0  0  0  0
  147.5737  135.9625  162.3197 C   0  0  0  0  0  0  0  0  0  0  0  0
  149.8832  141.1813  155.7011 C   0  0  1  0  0  0  0  0  0  0  0  0
  148.7394  141.9197  154.9772 C   0  0  0  0  0  0  0  0  0  0  0  0
  151.0467  142.1481  156.0070 C   0  0  0  0  0  0  0  0  0  0  0  0
  152.4086  145.5470  158.8189 H   0  0  0  0  0  0  0  0  0  0  0  0
  151.6038  144.1240  159.4688 H   0  0  0  0  0  0  0  0  0  0  0  0
  150.6609  145.4250  158.7407 H   0  0  0  0  0  0  0  0  0  0  0  0
  151.6853  144.8981  156.4834 H   0  0  0  0  0  0  0  0  0  0  0  0
  152.7085  143.7068  157.2495 H   0  0  0  0  0  0  0  0  0  0  0  0
  151.1819  141.8880  158.7244 H   0  0  0  0  0  0  0  0  0  0  0  0
  150.0352  143.1613  159.0928 H   0  0  0  0  0  0  0  0  0  0  0  0
  148.9297  140.9395  159.0501 H   0  0  0  0  0  0  0  0  0  0  0  0
  148.2521  142.0404  157.8692 H   0  0  0  0  0  0  0  0  0  0  0  0
  150.3652  139.9246  157.3500 H   0  0  0  0  0  0  0  0  0  0  0  0
  146.5280  138.8972  156.1736 H   0  0  0  0  0  0  0  0  0  0  0  0
  147.0718  140.5222  155.7771 H   0  0  0  0  0  0  0  0  0  0  0  0
  146.6344  140.1299  157.4399 H   0  0  0  0  0  0  0  0  0  0  0  0
  150.8423  135.6613  156.9604 H   0  0  0  0  0  0  0  0  0  0  0  0
  145.4284  136.8061  160.2494 H   0  0  0  0  0  0  0  0  0  0  0  0
  146.0407  134.1553  160.1872 H   0  0  0  0  0  0  0  0  0  0  0  0
  147.6614  133.7515  159.6918 H   0  0  0  0  0  0  0  0  0  0  0  0
  146.5893  134.1113  163.3477 H   0  0  0  0  0  0  0  0  0  0  0  0
  149.1887  133.8272  162.9105 H   0  0  0  0  0  0  0  0  0  0  0  0
  149.3030  133.3363  161.2221 H   0  0  0  0  0  0  0  0  0  0  0  0
  150.6700  135.5169  162.1922 H   0  0  0  0  0  0  0  0  0  0  0  0
  149.9926  135.5464  160.5641 H   0  0  0  0  0  0  0  0  0  0  0  0
  146.7577  136.6069  161.9959 H   0  0  0  0  0  0  0  0  0  0  0  0
  147.5312  135.9141  163.4091 H   0  0  0  0  0  0  0  0  0  0  0  0
  150.2700  140.4404  155.0008 H   0  0  0  0  0  0  0  0  0  0  0  0
  148.2434  142.6448  155.6217 H   0  0  0  0  0  0  0  0  0  0  0  0
  147.9846  141.2293  154.6097 H   0  0  0  0  0  0  0  0  0  0  0  0
  149.1153  142.4596  154.1078 H   0  0  0  0  0  0  0  0  0  0  0  0
  151.3293  142.6695  155.0931 H   0  0  0  0  0  0  0  0  0  0  0  0
  151.9262  141.5829  156.3202 H   0  0  0  0  0  0  0  0  0  0  0  0
  149.8557  143.6015  156.7660 H   0  0  0  0  0  0  0  0  0  0  0  0
  1  2  1  0  0  0  0
  1 28  1  0  0  0  0
  1 29  1  0  0  0  0
  1 30  1  0  0  0  0
  2  3  1  0  0  0  0
  2 31  1  0  0  0  0
  2 32  1  0  0  0  0
  3 27  1  0  0  0  0
  3  4  1  0  0  0  0
  3 58  1  0  0  0  0
  4  5  1  0  0  0  0
  4 33  1  0  0  0  0
  4 34  1  0  0  0  0
  5  6  1  0  0  0  0
  5 35  1  0  0  0  0
  5 36  1  0  0  0  0
  6  7  1  0  0  0  0
  6 25  1  0  0  0  0
  6 37  1  0  0  0  0
  7  8  1  0  0  0  0
  7  9  1  0  0  0  0
  8 38  1  0  0  0  0
  8 39  1  0  0  0  0
  8 40  1  0  0  0  0
  9 14  1  0  0  0  0
  9 10  2  0  0  0  0
 10 11  1  0  0  0  0
 11 12  2  0  0  0  0
 11 41  1  0  0  0  0
 12 13  1  0  0  0  0
 13 17  1  0  0  0  0
 13 14  2  0  0  0  0
 14 15  1  0  0  0  0
 15 16  2  0  0  0  0
 16 17  1  0  0  0  0
 16 42  1  0  0  0  0
 17 18  1  0  0  0  0
 18 19  1  0  0  0  0
 18 43  1  0  0  0  0
 18 44  1  0  0  0  0
 19 24  1  0  0  0  0
 19 20  1  0  0  0  0
 19 21  1  0  0  0  0
 20 45  1  0  0  0  0
 21 22  1  0  0  0  0
 21 46  1  0  0  0  0
 21 47  1  0  0  0  0
 22 23  1  0  0  0  0
 22 48  1  0  0  0  0
 22 49  1  0  0  0  0
 23 24  1  0  0  0  0
 24 50  1  0  0  0  0
 24 51  1  0  0  0  0
 25 26  1  0  0  0  0
 25 27  1  0  0  0  0
 25 52  1  0  0  0  0
 26 53  1  0  0  0  0
 26 54  1  0  0  0  0
 26 55  1  0  0  0  0
 27 56  1  0  0  0  0
 27 57  1  0  0  0  0
M  CHG  1   3   1
M  END
> <s_m_source_file>
AV-unprocessed.smi

> <i_m_source_file_index>
243

> <i_lp_mmshare_version>
43012

> <i_f3d_flags>
0

> <s_epik_input>
W0NIM11bQ0gyXU4xW0NIMl1bQ0gyXVtDQEhdKFtDQEBIXShbQ0gzXSlbQ0gyXTEpTihbQ0gzXSljKG5bY0hdbjIpYyhjMjMpbltjSF1uM1tDSDJdW0NAQF00KFtPSF0pW0NIMl1bQ0gyXU9bQ0gyXTQ=

> <s_epik_cmdline>
J2VwaWtfcHl0aG9uJywgJy1waCcsICc3LjAnLCAnLXRuJywgJzgnLCAnLW1hJywgJzIwMCcsICctbWV0YWxfYmluZGluZycsICctaW1hZScsICc8aW5maWxlLm1hZT4nLCAnLW9tYWUnLCAnPG91dGZpbGUubWFlPic=

> <r_lp_tautomer_probability>
1

> <r_epik_Ionization_Penalty>
0.00253099

> <r_epik_Ionization_Penalty_Charging>
0.00137877

> <r_epik_Ionization_Penalty_Neutral>
0.00115221

> <r_epik_State_Penalty>
-0

> <r_epik_Charging_Adjusted_Penalty>
0.00137877

> <i_epik_Tot_Q>
1

> <i_epik_Tot_abs_Q>
1

> <r_epik_Metal_State_Penalty>
-0

> <b_epik_Metal_Only>
0

> <s_lp_Force_Field>
OPLS_2005

> <r_lp_Energy>
50.8982

> <b_lp_Chiralities_Consistent>
1

> <s_lp_Variant>
AV-unprocessed.smi:243-1

> <Gold.Version>
5.8.1

> <Gold.Id.Protein>
6NUR|6NUR_protein|mol2

> <Gold.PLP.Fitness>
42.5150

> <Gold.PLP.PLP>
-38.9283

> <Gold.PLP.part.hbond>
-3.1791

> <Gold.PLP.part.metal>
0.0000

> <Gold.PLP.part.buried>
-6.0555

> <Gold.PLP.part.nonpolar>
-28.4172

> <Gold.PLP.part.repulsive>
0.0116

> <Gold.PLP.ligand.clash>
0.0000

> <Gold.PLP.ligand.torsion>
2.4105

> <Gold.PLP.Chemscore.Hbond>
2.5429

> <Gold.PLP.Chemscore.CHOScore>
0.0000

> <Gold.PLP.Chemscore.Metal>
0.0000

> <Gold.Chemscore.Hbonds>
donor molecule, donor type, donor heavy atom, donor atom, acceptor molecule, acceptor atom, score
      L1  H     3    58       P1  8028  2.00
      P1  H  6896  6907       L1    12  0.68
      P1  H  6931  6943       L1    23  1.00
      P1  H  6934  6947       L1    15  0.04

> <Gold.PLP.Chemscore.Internal.Correction>
0.7791

> <Gold.Rescore>
     Score         DG    S(hbond)    S(metal)    S(lipo)     H(rot)  DE(clash)    DE(int)     intcor
     10.84     -15.93       1.62        0.00      92.11       2.24       0.44       4.64       ----

> <Gold.Chemscore.Fitness>
10.8408

> <Gold.Chemscore.DG>
-15.9255

> <Gold.Chemscore.ZeroCoef>
-5.4800

> <Gold.Chemscore.Hbond>
1.6160

> <Gold.Chemscore.Metal>
0.0000

> <Gold.Chemscore.Lipo>
92.1131

> <Gold.Chemscore.Internal_Hbond>
0.0000

> <Gold.Chemscore.DEClash>
0.4428

> <Gold.Chemscore.DEInternal>
4.6420

> <Gold.Chemscore.Rot>
2.2379

> <Gold.Chemscore.Internal.Correction>
   9.000000E+99

> <Gold.Chemscore.Hbonds>
donor molecule, donor type, donor heavy atom, donor atom, acceptor molecule, acceptor atom, score
      L1  H     3    58       P1  8028  0.98
      P1  H  6896  6907       L1    12  0.41
      P1  H  6931  6943       L1    23  0.98

> <Gold.Chemscore.Hbond.Weighted>
-5.3974

> <Gold.Chemscore.Metal.Weighted>
-0.0000

> <Gold.Chemscore.Lipo.Weighted>
-10.7772

> <Gold.Chemscore.Internal_Hbond.Weighted>
0.0000

> <Gold.Chemscore.DEClash.Weighted>
0.4428

> <Gold.Chemscore.DEInternal.Weighted>
4.6420

> <Gold.Chemscore.Rot.Weighted>
5.7291

> <Gold.Chemscore.Internal.Correction.Weighted>
   9.000000E+99

> <Gold.Protein.RotatedTorsions>
[ 6907 6896 6895 6894 ] final  -85.52 input  -60.11 | X-H torsion
[ 7974 7965 7964 7962 ] final  -21.22 input  175.53 | X-H torsion
[ 8008 7997 7996 7995 ] final -109.71 input   59.86 | X-H torsion
[ 10167 10162 10161 10158 ] final   22.80 input  -65.29 | X-H torsion
[ 10718 10713 10712 10709 ] final -145.45 input   66.30 | X-H torsion
[ 10763 10752 10751 10750 ] final -168.05 input  -60.55 | X-H torsion
[ 11005 11000 10999 10996 ] final  108.67 input  -57.11 | X-H torsion

> <Gold.Protein.ActiveResidues>
 VAL166  LYS551  ARG553  GLY616  TRP617  ASP618  TYR619  PRO620  LYS621  CYS622 
 ASP623  PHE694  ASN695  SER759  ASP760  ASP761  ALA762  ILE779  LEU786  VAL792 
 PHE793  MET794  SER795  GLU796  ALA797  LYS798  CYS799  TRP800  GLU811  SER814 

> <Gold.Protein.RotatedAtoms>
  150.6870  134.3192  159.4778 H   0  0  0  0  0  0  0  0  0  0  0  0  # atno 6907 bound_to 6896
  152.1069  134.9299  160.0577 H   0  0  0  0  0  0  0  0  0  0  0  0  # atno 6908 bound_to 6896
  152.0557  133.4004  159.4433 H   0  0  0  0  0  0  0  0  0  0  0  0  # atno 6909 bound_to 6896
  146.1745  140.4310  142.8519 H   0  0  0  0  0  0  0  0  0  0  0  0  # atno 7974 bound_to 7965
  154.9635  140.0398  157.2201 H   0  0  0  0  0  0  0  0  0  0  0  0  # atno 8008 bound_to 7997
  154.7867  140.2828  155.6000 H   0  0  0  0  0  0  0  0  0  0  0  0  # atno 8009 bound_to 7997
  156.2944  140.2581  156.2705 H   0  0  0  0  0  0  0  0  0  0  0  0  # atno 8010 bound_to 7997
  140.5320  143.9825  150.6471 H   0  0  0  0  0  0  0  0  0  0  0  0  # atno 10167 bound_to 10162
  156.3826  130.7845  151.2039 H   0  0  0  0  0  0  0  0  0  0  0  0  # atno 10718 bound_to 10713
  154.6669  135.2933  154.9794 H   0  0  0  0  0  0  0  0  0  0  0  0  # atno 10763 bound_to 10752
  154.0834  135.6601  153.4845 H   0  0  0  0  0  0  0  0  0  0  0  0  # atno 10764 bound_to 10752
  153.0463  135.5203  154.7646 H   0  0  0  0  0  0  0  0  0  0  0  0  # atno 10765 bound_to 10752
  139.8848  134.9437  156.6008 H   0  0  0  0  0  0  0  0  0  0  0  0  # atno 11005 bound_to 11000
  144.8215  140.6557  143.6350 LP  0  0  0  0  0  0  0  0  0  0  0  0  # atno 17320 bound_to 7965
  145.4249  139.1558  143.4054 LP  0  0  0  0  0  0  0  0  0  0  0  0  # atno 17321 bound_to 7965
  140.3203  143.3141  152.0791 LP  0  0  0  0  0  0  0  0  0  0  0  0  # atno 17342 bound_to 10162
  139.4957  144.6578  151.6533 LP  0  0  0  0  0  0  0  0  0  0  0  0  # atno 17343 bound_to 10162
  157.7493  131.0339  150.4294 LP  0  0  0  0  0  0  0  0  0  0  0  0  # atno 17370 bound_to 10713
  156.4541  130.4018  149.6617 LP  0  0  0  0  0  0  0  0  0  0  0  0  # atno 17371 bound_to 10713
  140.7885  133.8602  155.8626 LP  0  0  0  0  0  0  0  0  0  0  0  0  # atno 17394 bound_to 11000
  140.9698  134.1546  157.4585 LP  0  0  0  0  0  0  0  0  0  0  0  0  # atno 17395 bound_to 11000

$$$$
