AV-unprocessed.smi:1372|AV-procd|sdf|5583|dock7
  -GOLD-   22720 5183D 1   1.00000     0.00000
 Structure written by MMmdl.
 41 43  0  0  0  0  0  0  0  0  1 V2000
  151.0818  137.3597  157.2122 C   0  0  0  0  0  0  0  0  0  0  0  0
  152.3952  137.7157  155.9752 S   0  0  0  0  0  0  0  0  0  0  0  0
  153.6929  137.3600  156.5696 O   0  0  0  0  0  0  0  0  0  0  0  0
  151.9966  137.1198  154.6909 O   0  0  0  0  0  0  0  0  0  0  0  0
  152.2889  139.5550  155.8344 C   0  0  0  0  0  0  0  0  0  0  0  0
  150.9344  139.9785  155.3383 C   0  0  0  0  0  0  0  0  0  0  0  0
  150.4683  139.5834  154.1519 N   0  0  0  0  0  0  0  0  0  0  0  0
  149.2207  140.1702  154.0969 C   0  0  0  0  0  0  0  0  0  0  0  0
  148.2250  140.1205  153.0953 C   0  0  0  0  0  0  0  0  0  0  0  0
  147.0083  140.8136  153.2636 C   0  0  0  0  0  0  0  0  0  0  0  0
  146.7710  141.5647  154.4330 C   0  0  0  0  0  0  0  0  0  0  0  0
  147.7513  141.6285  155.4421 C   0  0  0  0  0  0  0  0  0  0  0  0
  148.9640  140.9346  155.2688 C   0  0  0  0  0  0  0  0  0  0  0  0
  150.1098  140.7962  156.0464 N   0  0  0  0  0  0  0  0  0  0  0  0
  150.3251  141.4265  157.3434 C   0  0  0  0  0  0  0  0  0  0  0  0
  151.6278  142.2490  157.4005 C   0  0  1  0  0  0  0  0  0  0  0  0
  151.4359  143.5114  156.7937 O   0  0  0  0  0  0  0  0  0  0  0  0
  152.1377  142.3714  158.8276 C   0  0  0  0  0  0  0  0  0  0  0  0
  152.6323  141.2327  159.4991 C   0  0  0  0  0  0  0  0  0  0  0  0
  153.0967  141.3362  160.8248 C   0  0  0  0  0  0  0  0  0  0  0  0
  153.0671  142.5784  161.4873 C   0  0  0  0  0  0  0  0  0  0  0  0
  152.5719  143.7172  160.8238 C   0  0  0  0  0  0  0  0  0  0  0  0
  152.1071  143.6143  159.4982 C   0  0  0  0  0  0  0  0  0  0  0  0
  151.0354  136.2857  157.3909 H   0  0  0  0  0  0  0  0  0  0  0  0
  150.1202  137.7048  156.8325 H   0  0  0  0  0  0  0  0  0  0  0  0
  151.3109  137.8725  158.1461 H   0  0  0  0  0  0  0  0  0  0  0  0
  152.5091  139.9685  156.8156 H   0  0  0  0  0  0  0  0  0  0  0  0
  153.0579  139.8986  155.1427 H   0  0  0  0  0  0  0  0  0  0  0  0
  148.3981  139.5474  152.1965 H   0  0  0  0  0  0  0  0  0  0  0  0
  146.2537  140.7684  152.4920 H   0  0  0  0  0  0  0  0  0  0  0  0
  145.8364  142.0923  154.5545 H   0  0  0  0  0  0  0  0  0  0  0  0
  147.5724  142.2035  156.3386 H   0  0  0  0  0  0  0  0  0  0  0  0
  149.4593  142.0307  157.6119 H   0  0  0  0  0  0  0  0  0  0  0  0
  150.3662  140.6346  158.0924 H   0  0  0  0  0  0  0  0  0  0  0  0
  152.3886  141.7355  156.8108 H   0  0  0  0  0  0  0  0  0  0  0  0
  150.5089  143.6455  156.6675 H   0  0  0  0  0  0  0  0  0  0  0  0
  152.6557  140.2744  159.0008 H   0  0  0  0  0  0  0  0  0  0  0  0
  153.4746  140.4619  161.3341 H   0  0  0  0  0  0  0  0  0  0  0  0
  153.4228  142.6575  162.5041 H   0  0  0  0  0  0  0  0  0  0  0  0
  152.5477  144.6697  161.3322 H   0  0  0  0  0  0  0  0  0  0  0  0
  151.7249  144.4923  158.9980 H   0  0  0  0  0  0  0  0  0  0  0  0
  1  2  1  0  0  0  0
  1 24  1  0  0  0  0
  1 25  1  0  0  0  0
  1 26  1  0  0  0  0
  2  3  2  0  0  0  0
  2  4  2  0  0  0  0
  2  5  1  0  0  0  0
  5  6  1  0  0  0  0
  5 27  1  0  0  0  0
  5 28  1  0  0  0  0
  6 14  1  0  0  0  0
  6  7  2  0  0  0  0
  7  8  1  0  0  0  0
  8 13  2  0  0  0  0
  8  9  1  0  0  0  0
  9 10  2  0  0  0  0
  9 29  1  0  0  0  0
 10 11  1  0  0  0  0
 10 30  1  0  0  0  0
 11 12  2  0  0  0  0
 11 31  1  0  0  0  0
 12 13  1  0  0  0  0
 12 32  1  0  0  0  0
 13 14  1  0  0  0  0
 14 15  1  0  0  0  0
 15 16  1  0  0  0  0
 15 33  1  0  0  0  0
 15 34  1  0  0  0  0
 16 17  1  0  0  0  0
 16 18  1  0  0  0  0
 16 35  1  0  0  0  0
 17 36  1  0  0  0  0
 18 23  1  0  0  0  0
 18 19  2  0  0  0  0
 19 20  1  0  0  0  0
 19 37  1  0  0  0  0
 20 21  2  0  0  0  0
 20 38  1  0  0  0  0
 21 22  1  0  0  0  0
 21 39  1  0  0  0  0
 22 23  2  0  0  0  0
 22 40  1  0  0  0  0
 23 41  1  0  0  0  0
M  END
> <s_m_source_file>
AV-unprocessed.smi

> <i_m_source_file_index>
1372

> <i_lp_mmshare_version>
43012

> <i_f3d_flags>
0

> <s_epik_input>
W2NIXTFbY0hdW2NIXVtjSF1jKGMxMiluKGMobjIpW0NIMl1TKD1PKSg9TylbQ0gzXSlbQ0gyXVtDQEhdKFtPSF0pYzNbY0hdW2NIXVtjSF1bY0hdW2NIXTM=

> <s_epik_cmdline>
J2VwaWtfcHl0aG9uJywgJy1waCcsICc3LjAnLCAnLXRuJywgJzgnLCAnLW1hJywgJzIwMCcsICctbWV0YWxfYmluZGluZycsICctaW1hZScsICc8aW5maWxlLm1hZT4nLCAnLW9tYWUnLCAnPG91dGZpbGUubWFlPic=

> <r_epik_Ionization_Penalty>
0.0151431

> <r_epik_Ionization_Penalty_Charging>
0

> <r_epik_Ionization_Penalty_Neutral>
0.0151431

> <r_epik_State_Penalty>
0.0118835

> <r_epik_Charging_Adjusted_Penalty>
0.0118835

> <i_epik_Tot_Q>
0

> <i_epik_Tot_abs_Q>
0

> <r_epik_Metal_State_Penalty>
1.20034e-05

> <b_epik_Metal_Only>
0

> <s_lp_Force_Field>
OPLS_2005

> <r_lp_Energy>
10.2865

> <b_lp_Chiralities_Consistent>
1

> <s_lp_Variant>
AV-unprocessed.smi:1372-2

> <Gold.Version>
5.8.1

> <Gold.Id.Protein>
6NUR|6NUR_protein|mol2

> <Gold.PLP.Fitness>
55.6208

> <Gold.PLP.PLP>
-47.9676

> <Gold.PLP.part.hbond>
-3.8826

> <Gold.PLP.part.metal>
0.0000

> <Gold.PLP.part.buried>
0.4127

> <Gold.PLP.part.nonpolar>
-44.2026

> <Gold.PLP.part.repulsive>
0.1528

> <Gold.PLP.ligand.clash>
0.0000

> <Gold.PLP.ligand.torsion>
0.5177

> <Gold.PLP.Chemscore.Hbond>
2.8512

> <Gold.PLP.Chemscore.CHOScore>
0.0000

> <Gold.PLP.Chemscore.Metal>
0.0000

> <Gold.Chemscore.Hbonds>
donor molecule, donor type, donor heavy atom, donor atom, acceptor molecule, acceptor atom, score
      L1  H    17    36       P1  8028  0.61
      P1  H  7989  7998       L1     7  0.25
      P1  H 10752 10764       L1     4  0.80

> <Gold.PLP.Chemscore.Internal.Correction>
0.1351

> <Gold.Rescore>
     Score         DG    S(hbond)    S(metal)    S(lipo)     H(rot)  DE(clash)    DE(int)     intcor
     17.78     -21.42       2.04        0.00     128.94       2.33       1.80       1.84       ----

> <Gold.Chemscore.Fitness>
17.7826

> <Gold.Chemscore.DG>
-21.4248

> <Gold.Chemscore.ZeroCoef>
-5.4800

> <Gold.Chemscore.Hbond>
2.0434

> <Gold.Chemscore.Metal>
0.0000

> <Gold.Chemscore.Lipo>
128.9417

> <Gold.Chemscore.Internal_Hbond>
0.0000

> <Gold.Chemscore.DEClash>
1.8004

> <Gold.Chemscore.DEInternal>
1.8418

> <Gold.Chemscore.Rot>
2.3306

> <Gold.Chemscore.Internal.Correction>
   9.000000E+99

> <Gold.Chemscore.Hbonds>
donor molecule, donor type, donor heavy atom, donor atom, acceptor molecule, acceptor atom, score
      L1  H    17    36       P1  8028  0.58
      P1  H 10752 10764       L1     4  0.24

> <Gold.Chemscore.Hbond.Weighted>
-6.8251

> <Gold.Chemscore.Metal.Weighted>
-0.0000

> <Gold.Chemscore.Lipo.Weighted>
-15.0862

> <Gold.Chemscore.Internal_Hbond.Weighted>
0.0000

> <Gold.Chemscore.DEClash.Weighted>
1.8004

> <Gold.Chemscore.DEInternal.Weighted>
1.8418

> <Gold.Chemscore.Rot.Weighted>
5.9664

> <Gold.Chemscore.Internal.Correction.Weighted>
   9.000000E+99

> <Gold.Protein.RotatedTorsions>
[ 6907 6896 6895 6894 ] final   58.15 input  -60.11 | X-H torsion
[ 7974 7965 7964 7962 ] final  176.68 input  175.53 | X-H torsion
[ 8008 7997 7996 7995 ] final   33.53 input   59.86 | X-H torsion
[ 10167 10162 10161 10158 ] final   80.08 input  -65.29 | X-H torsion
[ 10718 10713 10712 10709 ] final   27.87 input   66.30 | X-H torsion
[ 10763 10752 10751 10750 ] final  -50.80 input  -60.55 | X-H torsion
[ 11005 11000 10999 10996 ] final  -39.78 input  -57.11 | X-H torsion

> <Gold.Protein.ActiveResidues>
 VAL166  LYS551  ARG553  GLY616  TRP617  ASP618  TYR619  PRO620  LYS621  CYS622 
 ASP623  PHE694  ASN695  SER759  ASP760  ASP761  ALA762  ILE779  LEU786  VAL792 
 PHE793  MET794  SER795  GLU796  ALA797  LYS798  CYS799  TRP800  GLU811  SER814 

> <Gold.Protein.RotatedAtoms>
  152.3798  134.6608  160.0146 H   0  0  0  0  0  0  0  0  0  0  0  0  # atno 6907 bound_to 6896
  151.6875  133.3306  159.3242 H   0  0  0  0  0  0  0  0  0  0  0  0  # atno 6908 bound_to 6896
  150.7738  134.6663  159.6412 H   0  0  0  0  0  0  0  0  0  0  0  0  # atno 6909 bound_to 6896
  144.7180  140.0133  143.6440 H   0  0  0  0  0  0  0  0  0  0  0  0  # atno 7974 bound_to 7965
  155.1402  140.3265  155.4454 H   0  0  0  0  0  0  0  0  0  0  0  0  # atno 8008 bound_to 7997
  156.2607  140.1995  156.6467 H   0  0  0  0  0  0  0  0  0  0  0  0  # atno 8009 bound_to 7997
  154.6548  140.0554  156.9983 H   0  0  0  0  0  0  0  0  0  0  0  0  # atno 8010 bound_to 7997
  139.9536  144.6009  150.8138 H   0  0  0  0  0  0  0  0  0  0  0  0  # atno 10167 bound_to 10162
  157.2259  130.7001  149.6291 H   0  0  0  0  0  0  0  0  0  0  0  0  # atno 10718 bound_to 10713
  154.1162  135.6541  153.4894 H   0  0  0  0  0  0  0  0  0  0  0  0  # atno 10763 bound_to 10752
  153.0240  135.5259  154.7142 H   0  0  0  0  0  0  0  0  0  0  0  0  # atno 10764 bound_to 10752
  154.6336  135.2979  155.0157 H   0  0  0  0  0  0  0  0  0  0  0  0  # atno 10765 bound_to 10752
  141.0127  133.6900  156.2233 H   0  0  0  0  0  0  0  0  0  0  0  0  # atno 11005 bound_to 11000
  146.0241  139.3276  143.0795 LP  0  0  0  0  0  0  0  0  0  0  0  0  # atno 17320 bound_to 7965
  145.8533  140.9516  143.0738 LP  0  0  0  0  0  0  0  0  0  0  0  0  # atno 17321 bound_to 7965
  140.7575  143.3088  151.2895 LP  0  0  0  0  0  0  0  0  0  0  0  0  # atno 17342 bound_to 10162
  139.6609  144.0191  152.2692 LP  0  0  0  0  0  0  0  0  0  0  0  0  # atno 17343 bound_to 10162
  155.9679  130.4504  150.5697 LP  0  0  0  0  0  0  0  0  0  0  0  0  # atno 17370 bound_to 10713
  157.3528  131.0736  151.1700 LP  0  0  0  0  0  0  0  0  0  0  0  0  # atno 17371 bound_to 10713
  140.6707  134.4871  157.5587 LP  0  0  0  0  0  0  0  0  0  0  0  0  # atno 17394 bound_to 11000
  139.9099  134.8368  156.1567 LP  0  0  0  0  0  0  0  0  0  0  0  0  # atno 17395 bound_to 11000

$$$$
