AV-unprocessed.smi:2253|AV-procd|sdf|9115|dock2
  -GOLD-   2272012323D 1   1.00000     0.00000
 Structure written by MMmdl.
 52 54  0  0  0  0  0  0  0  0  3 V2000
  145.5125  134.9959  150.2601 C   0  0  0  0  0  0  0  0  0  0  0  0
  146.0709  136.0288  151.1596 N   0  3  2  0  0  0  0  0  0  0  0  0
  145.4184  136.0335  152.4898 C   0  0  0  0  0  0  0  0  0  0  0  0
  146.0971  137.0359  153.4399 C   0  0  0  0  0  0  0  0  0  0  0  0
  146.1120  138.4732  152.8593 C   0  0  1  0  0  0  0  0  0  0  0  0
  146.8156  139.4818  153.7203 N   0  3  2  0  0  0  0  0  0  0  0  0
  147.0446  140.8150  153.0894 C   0  0  0  0  0  0  0  0  0  0  0  0
  147.6605  141.8189  154.0794 C   0  0  0  0  0  0  0  0  0  0  0  0
  148.9682  141.2898  154.6820 C   0  0  1  0  0  0  0  0  0  0  0  0
  149.4724  142.2312  155.6777 N   0  0  0  0  0  0  0  0  0  0  0  0
  150.3571  141.9355  156.6412 C   0  0  0  0  0  0  0  0  0  0  0  0
  150.8440  140.8149  156.7894 O   0  0  0  0  0  0  0  0  0  0  0  0
  150.6371  143.0155  157.3909 N   0  0  0  0  0  0  0  0  0  0  0  0
  151.5105  143.1283  158.5078 C   0  0  0  0  0  0  0  0  0  0  0  0
  152.4260  142.1256  158.9101 C   0  0  0  0  0  0  0  0  0  0  0  0
  153.2248  142.3582  160.0478 C   0  0  0  0  0  0  0  0  0  0  0  0
  153.1601  143.4870  160.7852 N   0  0  0  0  0  0  0  0  0  0  0  0
  152.2771  144.4351  160.4068 C   0  0  0  0  0  0  0  0  0  0  0  0
  151.4327  144.3030  159.2861 C   0  0  0  0  0  0  0  0  0  0  0  0
  150.5647  145.2924  158.9640 F   0  0  0  0  0  0  0  0  0  0  0  0
  148.7089  139.9113  155.3093 C   0  0  0  0  0  0  0  0  0  0  0  0
  148.0887  138.9480  154.2852 C   0  0  0  0  0  0  0  0  0  0  0  0
  146.7590  138.4042  151.4550 C   0  0  0  0  0  0  0  0  0  0  0  0
  146.0638  137.3771  150.5451 C   0  0  0  0  0  0  0  0  0  0  0  0
  144.4627  135.1936  150.0390 H   0  0  0  0  0  0  0  0  0  0  0  0
  145.5863  134.0077  150.7153 H   0  0  0  0  0  0  0  0  0  0  0  0
  146.0613  134.9686  149.3182 H   0  0  0  0  0  0  0  0  0  0  0  0
  144.3607  136.2785  152.3785 H   0  0  0  0  0  0  0  0  0  0  0  0
  145.4672  135.0333  152.9227 H   0  0  0  0  0  0  0  0  0  0  0  0
  145.5551  137.0054  154.3852 H   0  0  0  0  0  0  0  0  0  0  0  0
  147.1163  136.7049  153.6464 H   0  0  0  0  0  0  0  0  0  0  0  0
  145.0728  138.7907  152.7555 H   0  0  0  0  0  0  0  0  0  0  0  0
  147.6874  140.7016  152.2150 H   0  0  0  0  0  0  0  0  0  0  0  0
  146.1070  141.2518  152.7486 H   0  0  0  0  0  0  0  0  0  0  0  0
  147.8414  142.7681  153.5733 H   0  0  0  0  0  0  0  0  0  0  0  0
  146.9427  142.0259  154.8749 H   0  0  0  0  0  0  0  0  0  0  0  0
  149.7021  141.1884  153.8798 H   0  0  0  0  0  0  0  0  0  0  0  0
  149.1276  143.1790  155.6259 H   0  0  0  0  0  0  0  0  0  0  0  0
  150.2112  143.8819  157.0953 H   0  0  0  0  0  0  0  0  0  0  0  0
  152.5254  141.1883  158.3859 H   0  0  0  0  0  0  0  0  0  0  0  0
  153.9323  141.6121  160.3783 H   0  0  0  0  0  0  0  0  0  0  0  0
  152.2408  145.3254  161.0171 H   0  0  0  0  0  0  0  0  0  0  0  0
  149.6407  139.4889  155.6876 H   0  0  0  0  0  0  0  0  0  0  0  0
  148.0431  140.0093  156.1682 H   0  0  0  0  0  0  0  0  0  0  0  0
  147.9287  137.9909  154.7775 H   0  0  0  0  0  0  0  0  0  0  0  0
  148.7961  138.7641  153.4749 H   0  0  0  0  0  0  0  0  0  0  0  0
  146.7272  139.3700  150.9535 H   0  0  0  0  0  0  0  0  0  0  0  0
  147.8148  138.1460  151.5505 H   0  0  0  0  0  0  0  0  0  0  0  0
  146.5744  137.3402  149.5819 H   0  0  0  0  0  0  0  0  0  0  0  0
  145.0357  137.6852  150.3473 H   0  0  0  0  0  0  0  0  0  0  0  0
  146.2023  139.6564  154.5038 H   0  0  0  0  0  0  0  0  0  0  0  0
  147.0388  135.7812  151.3100 H   0  0  0  0  0  0  0  0  0  0  0  0
  1  2  1  0  0  0  0
  1 25  1  0  0  0  0
  1 26  1  0  0  0  0
  1 27  1  0  0  0  0
  2 24  1  0  0  0  0
  2  3  1  0  0  0  0
  2 52  1  0  0  0  0
  3  4  1  0  0  0  0
  3 28  1  0  0  0  0
  3 29  1  0  0  0  0
  4  5  1  0  0  0  0
  4 30  1  0  0  0  0
  4 31  1  0  0  0  0
  5  6  1  0  0  0  0
  5 23  1  0  0  0  0
  5 32  1  0  0  0  0
  6 22  1  0  0  0  0
  6  7  1  0  0  0  0
  6 51  1  0  0  0  0
  7  8  1  0  0  0  0
  7 33  1  0  0  0  0
  7 34  1  0  0  0  0
  8  9  1  0  0  0  0
  8 35  1  0  0  0  0
  8 36  1  0  0  0  0
  9 10  1  0  0  0  0
  9 21  1  0  0  0  0
  9 37  1  0  0  0  0
 10 11  1  0  0  0  0
 10 38  1  0  0  0  0
 11 12  2  0  0  0  0
 11 13  1  0  0  0  0
 13 14  1  0  0  0  0
 13 39  1  0  0  0  0
 14 19  1  0  0  0  0
 14 15  2  0  0  0  0
 15 16  1  0  0  0  0
 15 40  1  0  0  0  0
 16 17  2  0  0  0  0
 16 41  1  0  0  0  0
 17 18  1  0  0  0  0
 18 19  2  0  0  0  0
 18 42  1  0  0  0  0
 19 20  1  0  0  0  0
 21 22  1  0  0  0  0
 21 43  1  0  0  0  0
 21 44  1  0  0  0  0
 22 45  1  0  0  0  0
 22 46  1  0  0  0  0
 23 24  1  0  0  0  0
 23 47  1  0  0  0  0
 23 48  1  0  0  0  0
 24 49  1  0  0  0  0
 24 50  1  0  0  0  0
M  CHG  1   2   1
M  CHG  1   6   1
M  END
> <s_m_source_file>
AV-unprocessed.smi

> <i_m_source_file_index>
2253

> <i_lp_mmshare_version>
43012

> <i_f3d_flags>
0

> <s_epik_input>
W0NIM11OMVtDSDJdW0NIMl1bQ0hdKFtDSDJdW0NIMl0xKU4yW0NIMl1bQ0gyXVtDSF0oW0NIMl1bQ0gyXTIpW05IXUMoPU8pW05IXWMzW2NIXVtjSF1uW2NIXWMzRg==

> <s_epik_cmdline>
J2VwaWtfcHl0aG9uJywgJy1waCcsICc3LjAnLCAnLXRuJywgJzgnLCAnLW1hJywgJzIwMCcsICctbWV0YWxfYmluZGluZycsICctaW1hZScsICc8aW5maWxlLm1hZT4nLCAnLW9tYWUnLCAnPG91dGZpbGUubWFlPic=

> <r_epik_Ionization_Penalty>
0.183544

> <r_epik_Ionization_Penalty_Charging>
0.180787

> <r_epik_Ionization_Penalty_Neutral>
0.00275649

> <r_epik_State_Penalty>
0.153592

> <r_epik_Charging_Adjusted_Penalty>
0.334379

> <i_epik_Tot_Q>
2

> <i_epik_Tot_abs_Q>
2

> <r_epik_Metal_State_Penalty>
0.153693

> <b_epik_Metal_Only>
0

> <s_lp_Force_Field>
OPLS_2005

> <r_lp_Energy>
44.9789

> <b_lp_Chiralities_Consistent>
1

> <s_lp_Variant>
AV-unprocessed.smi:2253-1

> <Gold.Version>
5.8.1

> <Gold.Id.Protein>
6NUR|6NUR_protein|mol2

> <Gold.PLP.Fitness>
49.6123

> <Gold.PLP.PLP>
-39.4871

> <Gold.PLP.part.hbond>
-3.0000

> <Gold.PLP.part.metal>
0.0000

> <Gold.PLP.part.buried>
8.1003

> <Gold.PLP.part.nonpolar>
-43.3505

> <Gold.PLP.part.repulsive>
0.3126

> <Gold.PLP.ligand.clash>
0.0000

> <Gold.PLP.ligand.torsion>
0.5242

> <Gold.PLP.Chemscore.Hbond>
3.7134

> <Gold.PLP.Chemscore.CHOScore>
0.0000

> <Gold.PLP.Chemscore.Metal>
0.0000

> <Gold.Chemscore.Hbonds>
donor molecule, donor type, donor heavy atom, donor atom, acceptor molecule, acceptor atom, score
      L1  H     2    52       P1  7948  2.00
      L1  H    10    38       P1  8028  1.00
      L1  H    13    39       P1  8028  0.71

> <Gold.PLP.Chemscore.Internal.Correction>
0.0332

> <Gold.Rescore>
     Score         DG    S(hbond)    S(metal)    S(lipo)     H(rot)  DE(clash)    DE(int)     intcor
     19.36     -26.36       2.79        0.00     126.23       1.26       3.58       3.42       ----

> <Gold.Chemscore.Fitness>
19.3576

> <Gold.Chemscore.DG>
-26.3563

> <Gold.Chemscore.ZeroCoef>
-5.4800

> <Gold.Chemscore.Hbond>
2.7913

> <Gold.Chemscore.Metal>
0.0000

> <Gold.Chemscore.Lipo>
126.2260

> <Gold.Chemscore.Internal_Hbond>
0.0000

> <Gold.Chemscore.DEClash>
3.5824

> <Gold.Chemscore.DEInternal>
3.4163

> <Gold.Chemscore.Rot>
1.2559

> <Gold.Chemscore.Internal.Correction>
   9.000000E+99

> <Gold.Chemscore.Hbonds>
donor molecule, donor type, donor heavy atom, donor atom, acceptor molecule, acceptor atom, score
      L1  H     2    52       P1  7948  0.93
      L1  H    10    38       P1  8028  0.96
      L1  H    13    39       P1  8028  0.66

> <Gold.Chemscore.Hbond.Weighted>
-9.3229

> <Gold.Chemscore.Metal.Weighted>
-0.0000

> <Gold.Chemscore.Lipo.Weighted>
-14.7684

> <Gold.Chemscore.Internal_Hbond.Weighted>
0.0000

> <Gold.Chemscore.DEClash.Weighted>
3.5824

> <Gold.Chemscore.DEInternal.Weighted>
3.4163

> <Gold.Chemscore.Rot.Weighted>
3.2151

> <Gold.Chemscore.Internal.Correction.Weighted>
   9.000000E+99

> <Gold.Protein.RotatedTorsions>
[ 6907 6896 6895 6894 ] final  -15.00 input  -60.11 | X-H torsion
[ 7974 7965 7964 7962 ] final   20.30 input  175.53 | X-H torsion
[ 8008 7997 7996 7995 ] final  138.74 input   59.86 | X-H torsion
[ 10167 10162 10161 10158 ] final  171.75 input  -65.29 | X-H torsion
[ 10718 10713 10712 10709 ] final  -88.05 input   66.30 | X-H torsion
[ 10763 10752 10751 10750 ] final  -57.35 input  -60.55 | X-H torsion
[ 11005 11000 10999 10996 ] final    9.00 input  -57.11 | X-H torsion

> <Gold.Protein.ActiveResidues>
 VAL166  LYS551  ARG553  GLY616  TRP617  ASP618  TYR619  PRO620  LYS621  CYS622 
 ASP623  PHE694  ASN695  SER759  ASP760  ASP761  ALA762  ILE779  LEU786  VAL792 
 PHE793  MET794  SER795  GLU796  ALA797  LYS798  CYS799  TRP800  GLU811  SER814 

> <Gold.Protein.RotatedAtoms>
  151.3308  135.0841  159.9337 H   0  0  0  0  0  0  0  0  0  0  0  0  # atno 6907 bound_to 6896
  152.5235  133.9545  159.7698 H   0  0  0  0  0  0  0  0  0  0  0  0  # atno 6908 bound_to 6896
  150.9883  133.6122  159.2742 H   0  0  0  0  0  0  0  0  0  0  0  0  # atno 6909 bound_to 6896
  146.2117  139.8190  142.8684 H   0  0  0  0  0  0  0  0  0  0  0  0  # atno 7974 bound_to 7965
  156.2995  140.2385  156.4123 H   0  0  0  0  0  0  0  0  0  0  0  0  # atno 8008 bound_to 7997
  154.8430  140.0427  157.1574 H   0  0  0  0  0  0  0  0  0  0  0  0  # atno 8009 bound_to 7997
  154.9082  140.2986  155.5284 H   0  0  0  0  0  0  0  0  0  0  0  0  # atno 8010 bound_to 7997
  139.5056  144.3450  151.9980 H   0  0  0  0  0  0  0  0  0  0  0  0  # atno 10167 bound_to 10162
  155.9984  130.4822  150.4961 H   0  0  0  0  0  0  0  0  0  0  0  0  # atno 10718 bound_to 10713
  154.2211  135.6377  153.5145 H   0  0  0  0  0  0  0  0  0  0  0  0  # atno 10763 bound_to 10752
  152.9969  135.5497  154.6113 H   0  0  0  0  0  0  0  0  0  0  0  0  # atno 10764 bound_to 10752
  154.5573  135.2906  155.0926 H   0  0  0  0  0  0  0  0  0  0  0  0  # atno 10765 bound_to 10752
  140.5306  134.0470  155.7872 H   0  0  0  0  0  0  0  0  0  0  0  0  # atno 11005 bound_to 11000
  145.3116  141.0221  143.3551 LP  0  0  0  0  0  0  0  0  0  0  0  0  # atno 17320 bound_to 7965
  144.8931  139.4747  143.6668 LP  0  0  0  0  0  0  0  0  0  0  0  0  # atno 17321 bound_to 7965
  140.2888  144.3777  150.6095 LP  0  0  0  0  0  0  0  0  0  0  0  0  # atno 17342 bound_to 10162
  140.5962  143.2167  151.7159 LP  0  0  0  0  0  0  0  0  0  0  0  0  # atno 17343 bound_to 10162
  157.2951  131.0634  151.2107 LP  0  0  0  0  0  0  0  0  0  0  0  0  # atno 17370 bound_to 10713
  157.3106  130.6888  149.6214 LP  0  0  0  0  0  0  0  0  0  0  0  0  # atno 17371 bound_to 10713
  141.1283  133.9345  157.2589 LP  0  0  0  0  0  0  0  0  0  0  0  0  # atno 17394 bound_to 11000
  139.9556  135.0166  156.9119 LP  0  0  0  0  0  0  0  0  0  0  0  0  # atno 17395 bound_to 11000

$$$$
