AV-unprocessed.smi:101|AV-procd|sdf|922|dock1
  -GOLD-   2262017423D 1   1.00000     0.00000
 Structure written by MMmdl.
 44 46  0  0  0  0  0  0  0  0  1 V2000
  150.9392  135.1170  155.8234 C   0  0  0  0  0  0  0  0  0  0  0  0
  149.6182  135.7601  156.2143 C   0  0  0  0  0  0  0  0  0  0  0  0
  149.0895  136.8086  155.5332 C   0  0  0  0  0  0  0  0  0  0  0  0
  147.8755  137.4113  155.8485 N   0  0  0  0  0  0  0  0  0  0  0  0
  147.3518  138.6055  155.0599 C   0  0  1  0  0  0  0  0  0  0  0  0
  147.3834  139.7432  155.8774 O   0  0  0  0  0  0  0  0  0  0  0  0
  148.5011  140.5708  155.5671 C   0  0  1  0  0  0  0  0  0  0  0  0
  149.7671  140.0879  156.3060 C   0  0  0  0  0  0  0  0  0  0  0  0
  150.5478  141.2094  156.6849 O   0  0  0  0  0  0  0  0  0  0  0  0
  151.4779  141.0877  157.6530 C   0  0  0  0  0  0  0  0  0  0  0  0
  152.0438  140.0277  157.9274 O   0  0  0  0  0  0  0  0  0  0  0  0
  151.7301  142.3657  158.3775 C   0  0  0  0  0  0  0  0  0  0  0  0
  152.2610  142.3254  159.6878 C   0  0  0  0  0  0  0  0  0  0  0  0
  152.4944  143.5153  160.4038 C   0  0  0  0  0  0  0  0  0  0  0  0
  152.2004  144.7602  159.8177 C   0  0  0  0  0  0  0  0  0  0  0  0
  151.6718  144.8135  158.5147 C   0  0  0  0  0  0  0  0  0  0  0  0
  151.4371  143.6244  157.7972 C   0  0  0  0  0  0  0  0  0  0  0  0
  148.5597  140.4273  154.0458 C   0  0  1  0  0  0  0  0  0  0  0  0
  149.8277  140.7682  153.5185 O   0  0  0  0  0  0  0  0  0  0  0  0
  148.2208  138.9572  153.8215 C   0  0  2  0  0  0  0  0  0  0  0  0
  147.4993  138.8144  152.6142 O   0  0  0  0  0  0  0  0  0  0  0  0
  147.2105  137.0071  157.0281 C   0  0  0  0  0  0  0  0  0  0  0  0
  146.2080  137.5723  157.4622 O   0  0  0  0  0  0  0  0  0  0  0  0
  147.7417  135.9199  157.7193 N   0  0  0  0  0  0  0  0  0  0  0  0
  148.9082  135.2315  157.3805 C   0  0  0  0  0  0  0  0  0  0  0  0
  149.2678  134.2719  158.0605 O   0  0  0  0  0  0  0  0  0  0  0  0
  147.2490  135.6119  158.5450 H   0  0  0  0  0  0  0  0  0  0  0  0
  151.3998  135.6206  154.9730 H   0  0  0  0  0  0  0  0  0  0  0  0
  150.7857  134.0729  155.5481 H   0  0  0  0  0  0  0  0  0  0  0  0
  151.6449  135.1537  156.6540 H   0  0  0  0  0  0  0  0  0  0  0  0
  149.6644  137.1864  154.7014 H   0  0  0  0  0  0  0  0  0  0  0  0
  146.3180  138.3434  154.8279 H   0  0  0  0  0  0  0  0  0  0  0  0
  148.2897  141.6030  155.8487 H   0  0  0  0  0  0  0  0  0  0  0  0
  149.5001  139.4876  157.1764 H   0  0  0  0  0  0  0  0  0  0  0  0
  150.3704  139.4555  155.6542 H   0  0  0  0  0  0  0  0  0  0  0  0
  152.4912  141.3811  160.1600 H   0  0  0  0  0  0  0  0  0  0  0  0
  152.8986  143.4722  161.4044 H   0  0  0  0  0  0  0  0  0  0  0  0
  152.3795  145.6728  160.3668 H   0  0  0  0  0  0  0  0  0  0  0  0
  151.4451  145.7685  158.0641 H   0  0  0  0  0  0  0  0  0  0  0  0
  151.0274  143.7008  156.8006 H   0  0  0  0  0  0  0  0  0  0  0  0
  147.7959  141.0675  153.6003 H   0  0  0  0  0  0  0  0  0  0  0  0
  149.7998  140.6686  152.5790 H   0  0  0  0  0  0  0  0  0  0  0  0
  149.1344  138.3615  153.8066 H   0  0  0  0  0  0  0  0  0  0  0  0
  147.9916  139.2311  151.9230 H   0  0  0  0  0  0  0  0  0  0  0  0
  1  2  1  0  0  0  0
  1 28  1  0  0  0  0
  1 29  1  0  0  0  0
  1 30  1  0  0  0  0
  2 25  1  0  0  0  0
  2  3  2  0  0  0  0
  3  4  1  0  0  0  0
  3 31  1  0  0  0  0
  4  5  1  0  0  0  0
  4 22  1  0  0  0  0
  5 20  1  0  0  0  0
  5  6  1  0  0  0  0
  5 32  1  0  0  0  0
  6  7  1  0  0  0  0
  7  8  1  0  0  0  0
  7 18  1  0  0  0  0
  7 33  1  0  0  0  0
  8  9  1  0  0  0  0
  8 34  1  0  0  0  0
  8 35  1  0  0  0  0
  9 10  1  0  0  0  0
 10 11  2  0  0  0  0
 10 12  1  0  0  0  0
 12 17  1  0  0  0  0
 12 13  2  0  0  0  0
 13 14  1  0  0  0  0
 13 36  1  0  0  0  0
 14 15  2  0  0  0  0
 14 37  1  0  0  0  0
 15 16  1  0  0  0  0
 15 38  1  0  0  0  0
 16 17  2  0  0  0  0
 16 39  1  0  0  0  0
 17 40  1  0  0  0  0
 18 19  1  0  0  0  0
 18 20  1  0  0  0  0
 18 41  1  0  0  0  0
 19 42  1  0  0  0  0
 20 21  1  0  0  0  0
 20 43  1  0  0  0  0
 21 44  1  0  0  0  0
 22 23  2  0  0  0  0
 22 24  1  0  0  0  0
 24 27  1  0  0  0  0
 24 25  1  0  0  0  0
 25 26  2  0  0  0  0
M  END
> <s_m_source_file>
AV-unprocessed.smi

> <i_m_source_file_index>
101

> <i_lp_mmshare_version>
43012

> <i_f3d_flags>
0

> <s_epik_input>
Tz1jMVtuSF1jKD1PKW4oW2NIXWMxW0NIM10pW0NAQEhdMk9bQ0BIXShbQ0BASF0oW09IXSlbQ0BIXTJbT0hdKVtDSDJdT0MoPU8pYzNbY0hdW2NIXVtjSF1bY0hdW2NIXTM=

> <s_epik_cmdline>
J2VwaWtfcHl0aG9uJywgJy1waCcsICc3LjAnLCAnLXRuJywgJzgnLCAnLW1hJywgJzIwMCcsICctbWV0YWxfYmluZGluZycsICctaW1hZScsICc8aW5maWxlLm1hZT4nLCAnLW9tYWUnLCAnPG91dGZpbGUubWFlPic=

> <r_lp_tautomer_probability>
0.999537

> <r_epik_Ionization_Penalty>
0.00263537

> <r_epik_Ionization_Penalty_Charging>
0.00263428

> <r_epik_Ionization_Penalty_Neutral>
1.09111e-06

> <r_epik_State_Penalty>
0.00183335

> <r_epik_Charging_Adjusted_Penalty>
0.00446763

> <i_epik_Tot_Q>
0

> <i_epik_Tot_abs_Q>
0

> <r_epik_Metal_State_Penalty>
1.00528

> <b_epik_Metal_Only>
0

> <s_epik_Chemistry_Notes>
This compound has an ester and may undergo hydrolysis at high or low pH. This compound contains an acetal/aminal-like group ( X-CH(R)-Y where X, Y are N, S, or O) that may be acid/base labile, releasing an aldehyde.

> <s_lp_Force_Field>
OPLS_2005

> <r_lp_Energy>
31.3632

> <b_lp_Chiralities_Consistent>
1

> <s_lp_Variant>
AV-unprocessed.smi:101-10

> <Gold.Version>
5.8.1

> <Gold.Id.Protein>
6NUR|6NUR_protein|mol2

> <Gold.PLP.Fitness>
45.8159

> <Gold.PLP.PLP>
-38.5513

> <Gold.PLP.part.hbond>
-5.3202

> <Gold.PLP.part.metal>
0.0000

> <Gold.PLP.part.buried>
-3.0862

> <Gold.PLP.part.nonpolar>
-28.6967

> <Gold.PLP.part.repulsive>
0.0658

> <Gold.PLP.ligand.clash>
0.0000

> <Gold.PLP.ligand.torsion>
1.2723

> <Gold.PLP.Chemscore.Hbond>
3.1936

> <Gold.PLP.Chemscore.CHOScore>
0.0000

> <Gold.PLP.Chemscore.Metal>
0.0000

> <Gold.Chemscore.Hbonds>
donor molecule, donor type, donor heavy atom, donor atom, acceptor molecule, acceptor atom, score
      L1  H    19    42       P1  7957  1.00
      L1  H    21    44       P1  7957  1.00
      P1  H  6896  6908       L1    26  1.00
      P1  H  7989  7998       L1    19  0.18

> <Gold.PLP.Chemscore.Internal.Correction>
0.2284

> <Gold.Rescore>
     Score         DG    S(hbond)    S(metal)    S(lipo)     H(rot)  DE(clash)    DE(int)     intcor
     16.71     -18.49       2.92        0.00     100.40       3.32       0.10       1.68       ----

> <Gold.Chemscore.Fitness>
16.7117

> <Gold.Chemscore.DG>
-18.4917

> <Gold.Chemscore.ZeroCoef>
-5.4800

> <Gold.Chemscore.Hbond>
2.9213

> <Gold.Chemscore.Metal>
0.0000

> <Gold.Chemscore.Lipo>
100.3991

> <Gold.Chemscore.Internal_Hbond>
0.0000

> <Gold.Chemscore.DEClash>
0.0958

> <Gold.Chemscore.DEInternal>
1.6842

> <Gold.Chemscore.Rot>
3.3172

> <Gold.Chemscore.Internal.Correction>
   9.000000E+99

> <Gold.Chemscore.Hbonds>
donor molecule, donor type, donor heavy atom, donor atom, acceptor molecule, acceptor atom, score
      L1  H    19    42       P1  7957  0.95
      L1  H    21    44       P1  7957  0.97
      P1  H  6896  6908       L1    26  0.95
      P1  H  7989  7998       L1    19  0.01

> <Gold.Chemscore.Hbond.Weighted>
-9.7571

> <Gold.Chemscore.Metal.Weighted>
-0.0000

> <Gold.Chemscore.Lipo.Weighted>
-11.7467

> <Gold.Chemscore.Internal_Hbond.Weighted>
0.0000

> <Gold.Chemscore.DEClash.Weighted>
0.0958

> <Gold.Chemscore.DEInternal.Weighted>
1.6842

> <Gold.Chemscore.Rot.Weighted>
8.4920

> <Gold.Chemscore.Internal.Correction.Weighted>
   9.000000E+99

> <Gold.Protein.RotatedTorsions>
[ 6907 6896 6895 6894 ] final  122.00 input  -60.11 | X-H torsion
[ 7974 7965 7964 7962 ] final   71.61 input  175.53 | X-H torsion
[ 8008 7997 7996 7995 ] final  131.06 input   59.86 | X-H torsion
[ 10167 10162 10161 10158 ] final  160.13 input  -65.29 | X-H torsion
[ 10718 10713 10712 10709 ] final   69.43 input   66.30 | X-H torsion
[ 10763 10752 10751 10750 ] final -140.91 input  -60.55 | X-H torsion
[ 11005 11000 10999 10996 ] final   11.25 input  -57.11 | X-H torsion

> <Gold.Protein.ActiveResidues>
 VAL166  LYS551  ARG553  GLY616  TRP617  ASP618  TYR619  PRO620  LYS621  CYS622 
 ASP623  PHE694  ASN695  SER759  ASP760  ASP761  ALA762  ILE779  LEU786  VAL792 
 PHE793  MET794  SER795  GLU796  ALA797  LYS798  CYS799  TRP800  GLU811  SER814 

> <Gold.Protein.RotatedAtoms>
  152.4277  133.7224  159.6540 H   0  0  0  0  0  0  0  0  0  0  0  0  # atno 6907 bound_to 6896
  150.8155  133.8334  159.3168 H   0  0  0  0  0  0  0  0  0  0  0  0  # atno 6908 bound_to 6896
  151.6032  135.1048  160.0116 H   0  0  0  0  0  0  0  0  0  0  0  0  # atno 6909 bound_to 6896
  145.7637  139.2812  143.1361 H   0  0  0  0  0  0  0  0  0  0  0  0  # atno 7974 bound_to 7965
  156.2964  140.2580  156.2864 H   0  0  0  0  0  0  0  0  0  0  0  0  # atno 8008 bound_to 7997
  154.9552  140.0393  157.2182 H   0  0  0  0  0  0  0  0  0  0  0  0  # atno 8009 bound_to 7997
  154.7999  140.2826  155.5934 H   0  0  0  0  0  0  0  0  0  0  0  0  # atno 8010 bound_to 7997
  139.4837  144.4664  151.8636 H   0  0  0  0  0  0  0  0  0  0  0  0  # atno 10167 bound_to 10162
  157.6345  130.9425  150.0512 H   0  0  0  0  0  0  0  0  0  0  0  0  # atno 10718 bound_to 10713
  154.8563  135.3539  154.5783 H   0  0  0  0  0  0  0  0  0  0  0  0  # atno 10763 bound_to 10752
  153.6395  135.6999  153.5251 H   0  0  0  0  0  0  0  0  0  0  0  0  # atno 10764 bound_to 10752
  153.2983  135.4214  155.1188 H   0  0  0  0  0  0  0  0  0  0  0  0  # atno 10765 bound_to 10752
  140.5054  134.0705  155.7804 H   0  0  0  0  0  0  0  0  0  0  0  0  # atno 11005 bound_to 11000
  146.0239  140.8322  142.9909 LP  0  0  0  0  0  0  0  0  0  0  0  0  # atno 17320 bound_to 7965
  144.6825  140.2669  143.7311 LP  0  0  0  0  0  0  0  0  0  0  0  0  # atno 17321 bound_to 7965
  140.4129  144.2345  150.5888 LP  0  0  0  0  0  0  0  0  0  0  0  0  # atno 17342 bound_to 10162
  140.4948  143.2336  151.8765 LP  0  0  0  0  0  0  0  0  0  0  0  0  # atno 17343 bound_to 10162
  156.1573  130.3643  149.9350 LP  0  0  0  0  0  0  0  0  0  0  0  0  # atno 17370 bound_to 10713
  156.7356  130.9060  151.3629 LP  0  0  0  0  0  0  0  0  0  0  0  0  # atno 17371 bound_to 10713
  141.1414  133.9132  157.2317 LP  0  0  0  0  0  0  0  0  0  0  0  0  # atno 17394 bound_to 11000
  139.9689  135.0134  156.9461 LP  0  0  0  0  0  0  0  0  0  0  0  0  # atno 17395 bound_to 11000

$$$$
