AV-unprocessed.smi:3076|AV-procd|sdf|11726|dock6
  -GOLD-   2272017123D 1   1.00000     0.00000
 Structure written by MMmdl.
 21 21  0  0  0  0  0  0  0  0  2 V2000
  145.3124  138.1637  151.7102 N   0  3  0  0  0  0  0  0  0  0  0  0
  145.2273  136.7406  152.0823 C   0  0  0  0  0  0  0  0  0  0  0  0
  144.7800  135.8674  150.8963 C   0  0  1  0  0  0  0  0  0  0  0  0
  145.3997  136.3474  149.7189 O   0  0  0  0  0  0  0  0  0  0  0  0
  145.0963  134.4010  151.1440 C   0  0  0  0  0  0  0  0  0  0  0  0
  144.0887  133.4122  151.1031 C   0  0  0  0  0  0  0  0  0  0  0  0
  144.4432  132.0684  151.3290 C   0  0  0  0  0  0  0  0  0  0  0  0
  145.7950  131.7652  151.5860 C   0  0  0  0  0  0  0  0  0  0  0  0
  146.7684  132.7001  151.6255 N   0  0  0  0  0  0  0  0  0  0  0  0
  146.4202  133.9863  151.4083 C   0  0  0  0  0  0  0  0  0  0  0  0
  144.7060  138.7074  152.3075 H   0  0  0  0  0  0  0  0  0  0  0  0
  145.0312  138.2787  150.7472 H   0  0  0  0  0  0  0  0  0  0  0  0
  146.1961  136.4133  152.4624 H   0  0  0  0  0  0  0  0  0  0  0  0
  144.5155  136.6505  152.9037 H   0  0  0  0  0  0  0  0  0  0  0  0
  143.7020  135.9686  150.7608 H   0  0  0  0  0  0  0  0  0  0  0  0
  145.0137  137.1809  149.4935 H   0  0  0  0  0  0  0  0  0  0  0  0
  143.0608  133.6755  150.8998 H   0  0  0  0  0  0  0  0  0  0  0  0
  143.6973  131.2876  151.3054 H   0  0  0  0  0  0  0  0  0  0  0  0
  146.1022  130.7451  151.7624 H   0  0  0  0  0  0  0  0  0  0  0  0
  147.2255  134.7056  151.4442 H   0  0  0  0  0  0  0  0  0  0  0  0
  146.2663  138.4778  151.8211 H   0  0  0  0  0  0  0  0  0  0  0  0
  1  2  1  0  0  0  0
  1 11  1  0  0  0  0
  1 12  1  0  0  0  0
  1 21  1  0  0  0  0
  2  3  1  0  0  0  0
  2 13  1  0  0  0  0
  2 14  1  0  0  0  0
  3  4  1  0  0  0  0
  3  5  1  0  0  0  0
  3 15  1  0  0  0  0
  4 16  1  0  0  0  0
  5 10  1  0  0  0  0
  5  6  2  0  0  0  0
  6  7  1  0  0  0  0
  6 17  1  0  0  0  0
  7  8  2  0  0  0  0
  7 18  1  0  0  0  0
  8  9  1  0  0  0  0
  8 19  1  0  0  0  0
  9 10  2  0  0  0  0
 10 20  1  0  0  0  0
M  CHG  1   1   1
M  END
> <s_m_source_file>
AV-unprocessed.smi

> <i_m_source_file_index>
3076

> <i_lp_mmshare_version>
43012

> <i_f3d_flags>
0

> <s_epik_input>
W05IMl1bQ0gyXVtDQEhdKFtPSF0pYzFbY0hdW2NIXVtjSF1uW2NIXTE=

> <s_epik_cmdline>
J2VwaWtfcHl0aG9uJywgJy1waCcsICc3LjAnLCAnLXRuJywgJzgnLCAnLW1hJywgJzIwMCcsICctbWV0YWxfYmluZGluZycsICctaW1hZScsICc8aW5maWxlLm1hZT4nLCAnLW9tYWUnLCAnPG91dGZpbGUubWFlPic=

> <r_epik_Ionization_Penalty>
0.0145342

> <r_epik_Ionization_Penalty_Charging>
0.0140431

> <r_epik_Ionization_Penalty_Neutral>
0.000491123

> <r_epik_State_Penalty>
0.0109628

> <r_epik_Charging_Adjusted_Penalty>
0.0250059

> <i_epik_Tot_Q>
1

> <i_epik_Tot_abs_Q>
1

> <r_epik_Metal_State_Penalty>
0.0109916

> <b_epik_Metal_Only>
0

> <s_lp_Force_Field>
OPLS_2005

> <r_lp_Energy>
5.00299

> <b_lp_Chiralities_Consistent>
1

> <s_lp_Variant>
AV-unprocessed.smi:3076-2

> <Gold.Version>
5.8.1

> <Gold.Id.Protein>
6NUR|6NUR_protein|mol2

> <Gold.PLP.Fitness>
34.7992

> <Gold.PLP.PLP>
-21.1382

> <Gold.PLP.part.hbond>
-3.6491

> <Gold.PLP.part.metal>
0.0000

> <Gold.PLP.part.buried>
-3.2823

> <Gold.PLP.part.nonpolar>
-14.3837

> <Gold.PLP.part.repulsive>
0.2179

> <Gold.PLP.ligand.clash>
0.0000

> <Gold.PLP.ligand.torsion>
0.2050

> <Gold.PLP.Chemscore.Hbond>
3.6880

> <Gold.PLP.Chemscore.CHOScore>
1.0000

> <Gold.PLP.Chemscore.Metal>
0.0000

> <Gold.Chemscore.Hbonds>
donor molecule, donor type, donor heavy atom, donor atom, acceptor molecule, acceptor atom, score
      L1  H     1    11       P1 10175  1.76
      L1  H     1    12       P1 10171  0.87
      L1  H     4    16       P1 10171  1.00
      L1  C    10    20       P1  7948  1.00

> <Gold.PLP.Chemscore.Internal.Correction>
0.0070

> <Gold.Rescore>
     Score         DG    S(hbond)    S(metal)    S(lipo)     H(rot)  DE(clash)    DE(int)     intcor
     14.35     -14.59       2.70        0.00      42.20       1.90       0.03       0.21       ----

> <Gold.Chemscore.Fitness>
14.3456

> <Gold.Chemscore.DG>
-14.5865

> <Gold.Chemscore.ZeroCoef>
-5.4800

> <Gold.Chemscore.Hbond>
2.7031

> <Gold.Chemscore.Metal>
0.0000

> <Gold.Chemscore.Lipo>
42.1994

> <Gold.Chemscore.Internal_Hbond>
0.0000

> <Gold.Chemscore.DEClash>
0.0310

> <Gold.Chemscore.DEInternal>
0.2099

> <Gold.Chemscore.Rot>
1.8981

> <Gold.Chemscore.Internal.Correction>
   9.000000E+99

> <Gold.Chemscore.Hbonds>
donor molecule, donor type, donor heavy atom, donor atom, acceptor molecule, acceptor atom, score
      L1  H     1    11       P1 10175  0.81
      L1  H     1    12       P1 10171  0.82
      L1  H     4    16       P1 10171  0.98

> <Gold.Chemscore.Hbond.Weighted>
-9.0283

> <Gold.Chemscore.Metal.Weighted>
-0.0000

> <Gold.Chemscore.Lipo.Weighted>
-4.9373

> <Gold.Chemscore.Internal_Hbond.Weighted>
0.0000

> <Gold.Chemscore.DEClash.Weighted>
0.0310

> <Gold.Chemscore.DEInternal.Weighted>
0.2099

> <Gold.Chemscore.Rot.Weighted>
4.8592

> <Gold.Chemscore.Internal.Correction.Weighted>
   9.000000E+99

> <Gold.Protein.RotatedTorsions>
[ 6907 6896 6895 6894 ] final   50.53 input  -60.11 | X-H torsion
[ 7974 7965 7964 7962 ] final   84.32 input  175.53 | X-H torsion
[ 8008 7997 7996 7995 ] final  163.91 input   59.86 | X-H torsion
[ 10167 10162 10161 10158 ] final -176.13 input  -65.29 | X-H torsion
[ 10718 10713 10712 10709 ] final   97.12 input   66.30 | X-H torsion
[ 10763 10752 10751 10750 ] final  148.56 input  -60.55 | X-H torsion
[ 11005 11000 10999 10996 ] final -106.32 input  -57.11 | X-H torsion

> <Gold.Protein.ActiveResidues>
 VAL166  LYS551  ARG553  GLY616  TRP617  ASP618  TYR619  PRO620  LYS621  CYS622 
 ASP623  PHE694  ASN695  SER759  ASP760  ASP761  ALA762  ILE779  LEU786  VAL792 
 PHE793  MET794  SER795  GLU796  ALA797  LYS798  CYS799  TRP800  GLU811  SER814 

> <Gold.Protein.RotatedAtoms>
  152.3028  134.7590  160.0353 H   0  0  0  0  0  0  0  0  0  0  0  0  # atno 6907 bound_to 6896
  151.8097  133.3375  159.3560 H   0  0  0  0  0  0  0  0  0  0  0  0  # atno 6908 bound_to 6896
  150.7282  134.5605  159.5884 H   0  0  0  0  0  0  0  0  0  0  0  0  # atno 6909 bound_to 6896
  145.6003  139.2351  143.2249 H   0  0  0  0  0  0  0  0  0  0  0  0  # atno 7974 bound_to 7965
  156.1920  140.1711  156.8072 H   0  0  0  0  0  0  0  0  0  0  0  0  # atno 8008 bound_to 7997
  154.5483  140.0722  156.8658 H   0  0  0  0  0  0  0  0  0  0  0  0  # atno 8009 bound_to 7997
  155.3078  140.3365  155.4247 H   0  0  0  0  0  0  0  0  0  0  0  0  # atno 8010 bound_to 7997
  139.5545  144.2024  152.1136 H   0  0  0  0  0  0  0  0  0  0  0  0  # atno 10167 bound_to 10162
  157.6917  131.0600  150.4596 H   0  0  0  0  0  0  0  0  0  0  0  0  # atno 10718 bound_to 10713
  154.0568  135.2877  155.3331 H   0  0  0  0  0  0  0  0  0  0  0  0  # atno 10763 bound_to 10752
  154.6834  135.5254  153.8297 H   0  0  0  0  0  0  0  0  0  0  0  0  # atno 10764 bound_to 10752
  153.0538  135.6587  154.0760 H   0  0  0  0  0  0  0  0  0  0  0  0  # atno 10765 bound_to 10752
  141.1010  133.8884  157.1842 H   0  0  0  0  0  0  0  0  0  0  0  0  # atno 11005 bound_to 11000
  146.1581  140.6828  142.9290 LP  0  0  0  0  0  0  0  0  0  0  0  0  # atno 17320 bound_to 7965
  144.7313  140.4678  143.6936 LP  0  0  0  0  0  0  0  0  0  0  0  0  # atno 17321 bound_to 7965
  140.1525  144.5101  150.6679 LP  0  0  0  0  0  0  0  0  0  0  0  0  # atno 17342 bound_to 10162
  140.6815  143.2329  151.5371 LP  0  0  0  0  0  0  0  0  0  0  0  0  # atno 17343 bound_to 10162
  156.4941  130.4102  149.6390 LP  0  0  0  0  0  0  0  0  0  0  0  0  # atno 17370 bound_to 10713
  156.3389  130.7371  151.2313 LP  0  0  0  0  0  0  0  0  0  0  0  0  # atno 17371 bound_to 10713
  139.9862  135.0081  156.9867 LP  0  0  0  0  0  0  0  0  0  0  0  0  # atno 17394 bound_to 11000
  140.5021  134.1086  155.7253 LP  0  0  0  0  0  0  0  0  0  0  0  0  # atno 17395 bound_to 11000

$$$$
