AV-unprocessed.smi:1856|AV-procd|sdf|7533|dock6
  -GOLD-   22720 9243D 1   1.00000     0.00000
 Structure written by MMmdl.
 44 45  0  0  0  0  0  0  0  0  1 V2000
  153.6492  137.0272  164.7729 C   0  0  0  0  0  0  0  0  0  0  0  0
  152.9278  137.0766  163.4164 C   0  0  0  0  0  0  0  0  0  0  0  0
  153.8599  137.3591  162.2218 C   0  0  0  0  0  0  0  0  0  0  0  0
  153.1178  137.4031  160.8837 C   0  0  0  0  0  0  0  0  0  0  0  0
  152.7071  136.3624  160.3704 O   0  0  0  0  0  0  0  0  0  0  0  0
  152.9314  138.6179  160.3441 N   0  0  0  0  0  0  0  0  0  0  0  0
  152.1332  138.8957  159.1531 C   0  0  2  0  0  0  0  0  0  0  0  0
  152.7278  138.1765  157.9337 C   0  0  0  0  0  0  0  0  0  0  0  0
  152.0843  140.3937  158.9717 C   0  0  0  0  0  0  0  0  0  0  0  0
  152.8091  141.2093  159.7435 N   0  0  0  0  0  0  0  0  0  0  0  0
  152.4592  142.4624  159.2856 C   0  0  0  0  0  0  0  0  0  0  0  0
  152.8911  143.7437  159.6967 C   0  0  0  0  0  0  0  0  0  0  0  0
  152.3836  144.9019  159.0725 C   0  0  0  0  0  0  0  0  0  0  0  0
  151.4394  144.7952  158.0310 C   0  0  0  0  0  0  0  0  0  0  0  0
  150.9960  143.5276  157.6074 C   0  0  0  0  0  0  0  0  0  0  0  0
  151.5055  142.3743  158.2341 C   0  0  0  0  0  0  0  0  0  0  0  0
  151.2787  141.0116  158.0656 N   0  0  0  0  0  0  0  0  0  0  0  0
  150.3494  140.4306  157.1036 C   0  0  0  0  0  0  0  0  0  0  0  0
  150.5809  140.9428  155.6698 C   0  0  2  0  0  0  0  0  0  0  0  0
  149.2665  141.3114  154.9711 C   0  0  0  0  0  0  0  0  0  0  0  0
  151.2409  139.9630  154.8943 O   0  0  0  0  0  0  0  0  0  0  0  0
  152.9540  136.7656  165.5707 H   0  0  0  0  0  0  0  0  0  0  0  0
  154.0936  137.9896  165.0293 H   0  0  0  0  0  0  0  0  0  0  0  0
  154.4450  136.2820  164.7683 H   0  0  0  0  0  0  0  0  0  0  0  0
  152.4283  136.1217  163.2505 H   0  0  0  0  0  0  0  0  0  0  0  0
  152.1342  137.8240  163.4550 H   0  0  0  0  0  0  0  0  0  0  0  0
  154.3942  138.2962  162.3855 H   0  0  0  0  0  0  0  0  0  0  0  0
  154.6196  136.5793  162.1603 H   0  0  0  0  0  0  0  0  0  0  0  0
  153.3035  139.4170  160.8362 H   0  0  0  0  0  0  0  0  0  0  0  0
  151.1338  138.4903  159.2977 H   0  0  0  0  0  0  0  0  0  0  0  0
  152.1430  138.3806  157.0364 H   0  0  0  0  0  0  0  0  0  0  0  0
  152.7367  137.0965  158.0830 H   0  0  0  0  0  0  0  0  0  0  0  0
  153.7533  138.4932  157.7405 H   0  0  0  0  0  0  0  0  0  0  0  0
  153.6135  143.8351  160.4941 H   0  0  0  0  0  0  0  0  0  0  0  0
  152.7196  145.8766  159.3947 H   0  0  0  0  0  0  0  0  0  0  0  0
  151.0546  145.6870  157.5584 H   0  0  0  0  0  0  0  0  0  0  0  0
  150.2723  143.4431  156.8105 H   0  0  0  0  0  0  0  0  0  0  0  0
  150.3915  139.3437  157.1477 H   0  0  0  0  0  0  0  0  0  0  0  0
  149.3380  140.6877  157.4202 H   0  0  0  0  0  0  0  0  0  0  0  0
  151.2210  141.8252  155.7037 H   0  0  0  0  0  0  0  0  0  0  0  0
  148.7386  142.0916  155.5199 H   0  0  0  0  0  0  0  0  0  0  0  0
  148.6016  140.4498  154.8960 H   0  0  0  0  0  0  0  0  0  0  0  0
  149.4466  141.6834  153.9620 H   0  0  0  0  0  0  0  0  0  0  0  0
  151.7237  139.3957  155.4757 H   0  0  0  0  0  0  0  0  0  0  0  0
  1  2  1  0  0  0  0
  1 22  1  0  0  0  0
  1 23  1  0  0  0  0
  1 24  1  0  0  0  0
  2  3  1  0  0  0  0
  2 25  1  0  0  0  0
  2 26  1  0  0  0  0
  3  4  1  0  0  0  0
  3 27  1  0  0  0  0
  3 28  1  0  0  0  0
  4  5  2  0  0  0  0
  4  6  1  0  0  0  0
  6  7  1  0  0  0  0
  6 29  1  0  0  0  0
  7  8  1  0  0  0  0
  7  9  1  0  0  0  0
  7 30  1  0  0  0  0
  8 31  1  0  0  0  0
  8 32  1  0  0  0  0
  8 33  1  0  0  0  0
  9 17  1  0  0  0  0
  9 10  2  0  0  0  0
 10 11  1  0  0  0  0
 11 16  2  0  0  0  0
 11 12  1  0  0  0  0
 12 13  2  0  0  0  0
 12 34  1  0  0  0  0
 13 14  1  0  0  0  0
 13 35  1  0  0  0  0
 14 15  2  0  0  0  0
 14 36  1  0  0  0  0
 15 16  1  0  0  0  0
 15 37  1  0  0  0  0
 16 17  1  0  0  0  0
 17 18  1  0  0  0  0
 18 19  1  0  0  0  0
 18 38  1  0  0  0  0
 18 39  1  0  0  0  0
 19 20  1  0  0  0  0
 19 21  1  0  0  0  0
 19 40  1  0  0  0  0
 20 41  1  0  0  0  0
 20 42  1  0  0  0  0
 20 43  1  0  0  0  0
 21 44  1  0  0  0  0
M  END
> <s_m_source_file>
AV-unprocessed.smi

> <i_m_source_file_index>
1856

> <i_lp_mmshare_version>
43012

> <i_f3d_flags>
0

> <s_epik_input>
W0NIM11bQ0gyXVtDSDJdQyg9TylbTkhdW0NASF0oW0NIM10pYyhuMSluKFtDSDJdW0NASF0oW0NIM10pW09IXSljKGMxMilbY0hdW2NIXVtjSF1bY0hdMg==

> <s_epik_cmdline>
J2VwaWtfcHl0aG9uJywgJy1waCcsICc3LjAnLCAnLXRuJywgJzgnLCAnLW1hJywgJzIwMCcsICctbWV0YWxfYmluZGluZycsICctaW1hZScsICc8aW5maWxlLm1hZT4nLCAnLW9tYWUnLCAnPG91dGZpbGUubWFlPic=

> <r_epik_Ionization_Penalty>
0.134222

> <r_epik_Ionization_Penalty_Charging>
0

> <r_epik_Ionization_Penalty_Neutral>
0.134222

> <r_epik_State_Penalty>
0.123585

> <r_epik_Charging_Adjusted_Penalty>
0.123585

> <i_epik_Tot_Q>
0

> <i_epik_Tot_abs_Q>
0

> <r_epik_Metal_State_Penalty>
0.100548

> <b_epik_Metal_Only>
0

> <s_lp_Force_Field>
OPLS_2005

> <r_lp_Energy>
0.748352

> <b_lp_Chiralities_Consistent>
1

> <s_lp_Variant>
AV-unprocessed.smi:1856-1

> <Gold.Version>
5.8.1

> <Gold.Id.Protein>
6NUR|6NUR_protein|mol2

> <Gold.PLP.Fitness>
51.6353

> <Gold.PLP.PLP>
-47.4410

> <Gold.PLP.part.hbond>
-2.0000

> <Gold.PLP.part.metal>
0.0000

> <Gold.PLP.part.buried>
-5.4096

> <Gold.PLP.part.nonpolar>
-40.2658

> <Gold.PLP.part.repulsive>
0.0569

> <Gold.PLP.ligand.clash>
0.0000

> <Gold.PLP.ligand.torsion>
0.9659

> <Gold.PLP.Chemscore.Hbond>
2.0000

> <Gold.PLP.Chemscore.CHOScore>
0.0000

> <Gold.PLP.Chemscore.Metal>
0.0000

> <Gold.Chemscore.Hbonds>
donor molecule, donor type, donor heavy atom, donor atom, acceptor molecule, acceptor atom, score
      P1  H  6896  6907       L1     5  0.94
      P1  H  7989  7998       L1    21  1.00

> <Gold.PLP.Chemscore.Internal.Correction>
0.1260

> <Gold.Rescore>
     Score         DG    S(hbond)    S(metal)    S(lipo)     H(rot)  DE(clash)    DE(int)     intcor
     18.50     -19.88       1.93        0.00     121.36       2.45       0.07       1.30       ----

> <Gold.Chemscore.Fitness>
18.4979

> <Gold.Chemscore.DG>
-19.8772

> <Gold.Chemscore.ZeroCoef>
-5.4800

> <Gold.Chemscore.Hbond>
1.9341

> <Gold.Chemscore.Metal>
0.0000

> <Gold.Chemscore.Lipo>
121.3570

> <Gold.Chemscore.Internal_Hbond>
0.0000

> <Gold.Chemscore.DEClash>
0.0750

> <Gold.Chemscore.DEInternal>
1.3044

> <Gold.Chemscore.Rot>
2.4459

> <Gold.Chemscore.Internal.Correction>
   9.000000E+99

> <Gold.Chemscore.Hbonds>
donor molecule, donor type, donor heavy atom, donor atom, acceptor molecule, acceptor atom, score
      P1  H  6896  6907       L1     5  0.90
      P1  H  7989  7998       L1    21  0.30

> <Gold.Chemscore.Hbond.Weighted>
-6.4599

> <Gold.Chemscore.Metal.Weighted>
-0.0000

> <Gold.Chemscore.Lipo.Weighted>
-14.1988

> <Gold.Chemscore.Internal_Hbond.Weighted>
0.0000

> <Gold.Chemscore.DEClash.Weighted>
0.0750

> <Gold.Chemscore.DEInternal.Weighted>
1.3044

> <Gold.Chemscore.Rot.Weighted>
6.2614

> <Gold.Chemscore.Internal.Correction.Weighted>
   9.000000E+99

> <Gold.Protein.RotatedTorsions>
[ 6907 6896 6895 6894 ] final   31.40 input  -60.11 | X-H torsion
[ 7974 7965 7964 7962 ] final  166.35 input  175.53 | X-H torsion
[ 8008 7997 7996 7995 ] final  143.32 input   59.86 | X-H torsion
[ 10167 10162 10161 10158 ] final   18.00 input  -65.29 | X-H torsion
[ 10718 10713 10712 10709 ] final -156.12 input   66.30 | X-H torsion
[ 10763 10752 10751 10750 ] final  -49.32 input  -60.55 | X-H torsion
[ 11005 11000 10999 10996 ] final -114.39 input  -57.11 | X-H torsion

> <Gold.Protein.ActiveResidues>
 VAL166  LYS551  ARG553  GLY616  TRP617  ASP618  TYR619  PRO620  LYS621  CYS622 
 ASP623  PHE694  ASN695  SER759  ASP760  ASP761  ALA762  ILE779  LEU786  VAL792 
 PHE793  MET794  SER795  GLU796  ALA797  LYS798  CYS799  TRP800  GLU811  SER814 

> <Gold.Protein.RotatedAtoms>
  152.0598  134.9601  160.0574 H   0  0  0  0  0  0  0  0  0  0  0  0  # atno 6907 bound_to 6896
  152.0969  133.4225  159.4577 H   0  0  0  0  0  0  0  0  0  0  0  0  # atno 6908 bound_to 6896
  150.6838  134.2725  159.4637 H   0  0  0  0  0  0  0  0  0  0  0  0  # atno 6909 bound_to 6896
  144.7466  139.8603  143.6380 H   0  0  0  0  0  0  0  0  0  0  0  0  # atno 7974 bound_to 7965
  156.2932  140.2265  156.4871 H   0  0  0  0  0  0  0  0  0  0  0  0  # atno 8008 bound_to 7997
  154.7803  140.0461  157.1143 H   0  0  0  0  0  0  0  0  0  0  0  0  # atno 8009 bound_to 7997
  154.9767  140.3073  155.4967 H   0  0  0  0  0  0  0  0  0  0  0  0  # atno 8010 bound_to 7997
  140.5685  143.9205  150.6695 H   0  0  0  0  0  0  0  0  0  0  0  0  # atno 10167 bound_to 10162
  156.5221  130.8483  151.2686 H   0  0  0  0  0  0  0  0  0  0  0  0  # atno 10718 bound_to 10713
  154.0922  135.6575  153.4854 H   0  0  0  0  0  0  0  0  0  0  0  0  # atno 10763 bound_to 10752
  153.0317  135.5205  154.7369 H   0  0  0  0  0  0  0  0  0  0  0  0  # atno 10764 bound_to 10752
  154.6496  135.2999  154.9972 H   0  0  0  0  0  0  0  0  0  0  0  0  # atno 10765 bound_to 10752
  141.0555  133.9620  157.2762 H   0  0  0  0  0  0  0  0  0  0  0  0  # atno 11005 bound_to 11000
  146.1353  139.4397  143.0143 LP  0  0  0  0  0  0  0  0  0  0  0  0  # atno 17320 bound_to 7965
  145.7101  141.0109  143.1458 LP  0  0  0  0  0  0  0  0  0  0  0  0  # atno 17321 bound_to 7965
  140.2674  143.3480  152.1268 LP  0  0  0  0  0  0  0  0  0  0  0  0  # atno 17342 bound_to 10162
  139.5105  144.6885  151.5822 LP  0  0  0  0  0  0  0  0  0  0  0  0  # atno 17343 bound_to 10162
  157.7435  130.9913  150.2598 LP  0  0  0  0  0  0  0  0  0  0  0  0  # atno 17370 bound_to 10713
  156.3139  130.3776  149.7636 LP  0  0  0  0  0  0  0  0  0  0  0  0  # atno 17371 bound_to 10713
  139.9386  135.0194  156.8636 LP  0  0  0  0  0  0  0  0  0  0  0  0  # atno 17394 bound_to 11000
  140.5973  134.0205  155.7523 LP  0  0  0  0  0  0  0  0  0  0  0  0  # atno 17395 bound_to 11000

$$$$
