AV-unprocessed.smi:2069|AV-procd|sdf|8434|dock8
  -GOLD-   2272011133D 1   1.00000     0.00000
 Structure written by MMmdl.
 39 40  0  0  0  0  0  0  0  0  2 V2000
  150.4154  142.5941  157.5914 C   0  0  0  0  0  0  0  0  0  0  0  0
  150.2468  141.6700  156.4343 C   0  0  0  0  0  0  0  0  0  0  0  0
  151.2495  140.9273  155.9499 N   0  0  0  0  0  0  0  0  0  0  0  0
  150.8521  140.1426  154.8764 N   0  0  0  0  0  0  0  0  0  0  0  0
  149.5561  140.3164  154.5832 C   0  0  0  0  0  0  0  0  0  0  0  0
  148.8861  139.6328  153.5343 N   0  0  0  0  0  0  0  0  0  0  0  0
  147.6741  139.0515  153.5607 C   0  0  0  0  0  0  0  0  0  0  0  0
  146.9291  138.9966  154.5396 O   0  0  0  0  0  0  0  0  0  0  0  0
  147.3590  138.5276  152.3675 N   0  0  0  0  0  0  0  0  0  0  0  0
  146.1063  137.8410  152.0662 C   0  0  0  0  0  0  0  0  0  0  0  0
  145.8450  136.6196  152.9878 C   0  0  1  0  0  0  0  0  0  0  0  0
  144.3532  136.5739  153.3997 C   0  0  0  0  0  0  0  0  0  0  0  0
  146.3230  135.3611  152.3275 N   0  3  0  0  0  0  0  0  0  0  0  0
  146.4393  134.2258  153.2836 C   0  0  0  0  0  0  0  0  0  0  0  0
  147.0252  132.9818  152.5968 C   0  0  0  0  0  0  0  0  0  0  0  0
  146.2024  132.6177  151.4986 O   0  0  0  0  0  0  0  0  0  0  0  0
  146.1518  133.6466  150.5215 C   0  0  0  0  0  0  0  0  0  0  0  0
  145.5491  134.9235  151.1329 C   0  0  0  0  0  0  0  0  0  0  0  0
  148.7087  141.4647  155.6049 S   0  0  0  0  0  0  0  0  0  0  0  0
  151.4299  142.9932  157.6151 H   0  0  0  0  0  0  0  0  0  0  0  0
  150.2252  142.0613  158.5232 H   0  0  0  0  0  0  0  0  0  0  0  0
  149.7162  143.4266  157.5139 H   0  0  0  0  0  0  0  0  0  0  0  0
  149.3861  139.5900  152.6585 H   0  0  0  0  0  0  0  0  0  0  0  0
  148.0272  138.6128  151.6154 H   0  0  0  0  0  0  0  0  0  0  0  0
  145.2963  138.5628  152.1754 H   0  0  0  0  0  0  0  0  0  0  0  0
  146.1199  137.5643  151.0127 H   0  0  0  0  0  0  0  0  0  0  0  0
  146.4187  136.7412  153.9081 H   0  0  0  0  0  0  0  0  0  0  0  0
  144.0297  137.5118  153.8505 H   0  0  0  0  0  0  0  0  0  0  0  0
  144.1589  135.8066  154.1491 H   0  0  0  0  0  0  0  0  0  0  0  0
  143.7077  136.3859  152.5411 H   0  0  0  0  0  0  0  0  0  0  0  0
  147.0728  134.4836  154.1301 H   0  0  0  0  0  0  0  0  0  0  0  0
  145.4545  133.9902  153.6902 H   0  0  0  0  0  0  0  0  0  0  0  0
  148.0479  133.1634  152.2618 H   0  0  0  0  0  0  0  0  0  0  0  0
  147.0635  132.1490  153.2993 H   0  0  0  0  0  0  0  0  0  0  0  0
  147.1509  133.8391  150.1268 H   0  0  0  0  0  0  0  0  0  0  0  0
  145.5407  133.3075  149.6849 H   0  0  0  0  0  0  0  0  0  0  0  0
  144.5084  134.7511  151.4119 H   0  0  0  0  0  0  0  0  0  0  0  0
  145.5594  135.6906  150.3594 H   0  0  0  0  0  0  0  0  0  0  0  0
  147.2544  135.5580  151.9905 H   0  0  0  0  0  0  0  0  0  0  0  0
  1  2  1  0  0  0  0
  1 20  1  0  0  0  0
  1 21  1  0  0  0  0
  1 22  1  0  0  0  0
  2 19  1  0  0  0  0
  2  3  2  0  0  0  0
  3  4  1  0  0  0  0
  4  5  2  0  0  0  0
  5  6  1  0  0  0  0
  5 19  1  0  0  0  0
  6  7  1  0  0  0  0
  6 23  1  0  0  0  0
  7  8  2  0  0  0  0
  7  9  1  0  0  0  0
  9 10  1  0  0  0  0
  9 24  1  0  0  0  0
 10 11  1  0  0  0  0
 10 25  1  0  0  0  0
 10 26  1  0  0  0  0
 11 12  1  0  0  0  0
 11 13  1  0  0  0  0
 11 27  1  0  0  0  0
 12 28  1  0  0  0  0
 12 29  1  0  0  0  0
 12 30  1  0  0  0  0
 13 18  1  0  0  0  0
 13 14  1  0  0  0  0
 13 39  1  0  0  0  0
 14 15  1  0  0  0  0
 14 31  1  0  0  0  0
 14 32  1  0  0  0  0
 15 16  1  0  0  0  0
 15 33  1  0  0  0  0
 15 34  1  0  0  0  0
 16 17  1  0  0  0  0
 17 18  1  0  0  0  0
 17 35  1  0  0  0  0
 17 36  1  0  0  0  0
 18 37  1  0  0  0  0
 18 38  1  0  0  0  0
M  CHG  1  13   1
M  END
> <s_m_source_file>
AV-unprocessed.smi

> <i_m_source_file_index>
2069

> <i_lp_mmshare_version>
43012

> <i_f3d_flags>
0

> <s_epik_input>
W0NIM11jMW5uYyhzMSlbTkhdQyg9TylbTkhdW0NIMl1bQ0BIXShbQ0gzXSlOMltDSDJdW0NIMl1PW0NIMl1bQ0gyXTI=

> <s_epik_cmdline>
J2VwaWtfcHl0aG9uJywgJy1waCcsICc3LjAnLCAnLXRuJywgJzgnLCAnLW1hJywgJzIwMCcsICctbWV0YWxfYmluZGluZycsICctaW1hZScsICc8aW5maWxlLm1hZT4nLCAnLW9tYWUnLCAnPG91dGZpbGUubWFlPic=

> <r_lp_tautomer_probability>
1

> <r_epik_Ionization_Penalty>
0.70016

> <r_epik_Ionization_Penalty_Charging>
0.695697

> <r_epik_Ionization_Penalty_Neutral>
0.00446266

> <r_epik_State_Penalty>
0.717972

> <r_epik_Charging_Adjusted_Penalty>
1.41367

> <i_epik_Tot_Q>
1

> <i_epik_Tot_abs_Q>
1

> <r_epik_Metal_State_Penalty>
1.06969

> <b_epik_Metal_Only>
0

> <s_lp_Force_Field>
OPLS_2005

> <r_lp_Energy>
18.8851

> <b_lp_Chiralities_Consistent>
1

> <s_lp_Variant>
AV-unprocessed.smi:2069-4

> <Gold.Version>
5.8.1

> <Gold.Id.Protein>
6NUR|6NUR_protein|mol2

> <Gold.PLP.Fitness>
41.1961

> <Gold.PLP.PLP>
-29.8288

> <Gold.PLP.part.hbond>
-5.7413

> <Gold.PLP.part.metal>
0.0000

> <Gold.PLP.part.buried>
-2.7550

> <Gold.PLP.part.nonpolar>
-22.1087

> <Gold.PLP.part.repulsive>
0.5212

> <Gold.PLP.ligand.clash>
0.0000

> <Gold.PLP.ligand.torsion>
1.0059

> <Gold.PLP.Chemscore.Hbond>
4.4446

> <Gold.PLP.Chemscore.CHOScore>
0.0000

> <Gold.PLP.Chemscore.Metal>
0.0000

> <Gold.Chemscore.Hbonds>
donor molecule, donor type, donor heavy atom, donor atom, acceptor molecule, acceptor atom, score
      L1  H     6    23       P1  7957  1.00
      L1  H     9    24       P1  7957  0.51
      L1  H    13    39       P1  7948  2.00
      P1  H  7989  7998       L1     4  1.00

> <Gold.PLP.Chemscore.Internal.Correction>
0.0453

> <Gold.Rescore>
     Score         DG    S(hbond)    S(metal)    S(lipo)     H(rot)  DE(clash)    DE(int)     intcor
     15.75     -17.92       3.21        0.00      50.69       1.65       0.32       1.85       ----

> <Gold.Chemscore.Fitness>
15.7480

> <Gold.Chemscore.DG>
-17.9205

> <Gold.Chemscore.ZeroCoef>
-5.4800

> <Gold.Chemscore.Hbond>
3.2118

> <Gold.Chemscore.Metal>
0.0000

> <Gold.Chemscore.Lipo>
50.6917

> <Gold.Chemscore.Internal_Hbond>
0.0000

> <Gold.Chemscore.DEClash>
0.3209

> <Gold.Chemscore.DEInternal>
1.8516

> <Gold.Chemscore.Rot>
1.6476

> <Gold.Chemscore.Internal.Correction>
   9.000000E+99

> <Gold.Chemscore.Hbonds>
donor molecule, donor type, donor heavy atom, donor atom, acceptor molecule, acceptor atom, score
      L1  H     6    23       P1  7957  0.94
      L1  H     9    24       P1  7957  0.31
      L1  H    13    39       P1  7948  1.00
      P1  H  7989  7998       L1     4  0.16

> <Gold.Chemscore.Hbond.Weighted>
-10.7275

> <Gold.Chemscore.Metal.Weighted>
-0.0000

> <Gold.Chemscore.Lipo.Weighted>
-5.9309

> <Gold.Chemscore.Internal_Hbond.Weighted>
0.0000

> <Gold.Chemscore.DEClash.Weighted>
0.3209

> <Gold.Chemscore.DEInternal.Weighted>
1.8516

> <Gold.Chemscore.Rot.Weighted>
4.2179

> <Gold.Chemscore.Internal.Correction.Weighted>
   9.000000E+99

> <Gold.Protein.RotatedTorsions>
[ 6907 6896 6895 6894 ] final -150.35 input  -60.11 | X-H torsion
[ 7974 7965 7964 7962 ] final  138.67 input  175.53 | X-H torsion
[ 8008 7997 7996 7995 ] final -102.16 input   59.86 | X-H torsion
[ 10167 10162 10161 10158 ] final  153.52 input  -65.29 | X-H torsion
[ 10718 10713 10712 10709 ] final   72.18 input   66.30 | X-H torsion
[ 10763 10752 10751 10750 ] final  110.42 input  -60.55 | X-H torsion
[ 11005 11000 10999 10996 ] final  -97.11 input  -57.11 | X-H torsion

> <Gold.Protein.ActiveResidues>
 VAL166  LYS551  ARG553  GLY616  TRP617  ASP618  TYR619  PRO620  LYS621  CYS622 
 ASP623  PHE694  ASN695  SER759  ASP760  ASP761  ALA762  ILE779  LEU786  VAL792 
 PHE793  MET794  SER795  GLU796  ALA797  LYS798  CYS799  TRP800  GLU811  SER814 

> <Gold.Protein.RotatedAtoms>
  151.1973  133.4632  159.2595 H   0  0  0  0  0  0  0  0  0  0  0  0  # atno 6907 bound_to 6896
  151.1104  135.0023  159.8501 H   0  0  0  0  0  0  0  0  0  0  0  0  # atno 6908 bound_to 6896
  152.5450  134.1892  159.8720 H   0  0  0  0  0  0  0  0  0  0  0  0  # atno 6909 bound_to 6896
  144.9351  139.4999  143.5599 H   0  0  0  0  0  0  0  0  0  0  0  0  # atno 7974 bound_to 7965
  154.8528  140.0430  157.1615 H   0  0  0  0  0  0  0  0  0  0  0  0  # atno 8008 bound_to 7997
  154.8924  140.2988  155.5343 H   0  0  0  0  0  0  0  0  0  0  0  0  # atno 8009 bound_to 7997
  156.2996  140.2391  156.3941 H   0  0  0  0  0  0  0  0  0  0  0  0  # atno 8010 bound_to 7997
  139.4827  144.5266  151.7791 H   0  0  0  0  0  0  0  0  0  0  0  0  # atno 10167 bound_to 10162
  157.6488  130.9566  150.0893 H   0  0  0  0  0  0  0  0  0  0  0  0  # atno 10718 bound_to 10713
  153.4487  135.3749  155.2271 H   0  0  0  0  0  0  0  0  0  0  0  0  # atno 10763 bound_to 10752
  154.8756  135.3880  154.4064 H   0  0  0  0  0  0  0  0  0  0  0  0  # atno 10764 bound_to 10752
  153.4620  135.7087  153.6108 H   0  0  0  0  0  0  0  0  0  0  0  0  # atno 10765 bound_to 10752
  141.1390  133.8146  157.0661 H   0  0  0  0  0  0  0  0  0  0  0  0  # atno 11005 bound_to 11000
  146.3263  139.8330  142.8905 LP  0  0  0  0  0  0  0  0  0  0  0  0  # atno 17320 bound_to 7965
  145.3080  141.0212  143.3571 LP  0  0  0  0  0  0  0  0  0  0  0  0  # atno 17321 bound_to 7965
  140.4787  144.1481  150.5929 LP  0  0  0  0  0  0  0  0  0  0  0  0  # atno 17342 bound_to 10162
  140.4302  143.2571  151.9605 LP  0  0  0  0  0  0  0  0  0  0  0  0  # atno 17343 bound_to 10162
  156.1847  130.3651  149.8989 LP  0  0  0  0  0  0  0  0  0  0  0  0  # atno 17370 bound_to 10713
  156.6933  130.8904  151.3591 LP  0  0  0  0  0  0  0  0  0  0  0  0  # atno 17371 bound_to 10713
  140.0540  134.9790  157.1188 LP  0  0  0  0  0  0  0  0  0  0  0  0  # atno 17394 bound_to 11000
  140.3947  134.2147  155.7165 LP  0  0  0  0  0  0  0  0  0  0  0  0  # atno 17395 bound_to 11000

$$$$
