AV-unprocessed.smi:3260|AV-procd|sdf|12476|dock3
  -GOLD-   2272018373D 1   1.00000     0.00000
 Structure written by MMmdl.
 38 39  0  0  0  0  0  0  0  0  1 V2000
  153.6575  140.2005  160.0045 C   0  0  0  0  0  0  0  0  0  0  0  0
  153.1172  141.5305  160.1877 N   0  0  0  0  0  0  0  0  0  0  0  0
  152.8144  142.4743  159.2309 C   0  0  0  0  0  0  0  0  0  0  0  0
  152.3431  143.5808  159.8800 C   0  0  0  0  0  0  0  0  0  0  0  0
  151.8980  144.8940  159.2889 C   0  0  0  0  0  0  0  0  0  0  0  0
  150.7107  145.5294  160.0448 C   0  0  0  0  0  0  0  0  0  0  0  0
  149.4113  145.2184  159.4541 N   0  0  0  0  0  0  0  0  0  0  0  0
  148.4917  144.4039  159.9886 C   0  0  0  0  0  0  0  0  0  0  0  0
  148.6026  143.8621  161.0884 O   0  0  0  0  0  0  0  0  0  0  0  0
  147.4591  144.2129  159.1570 N   0  0  0  0  0  0  0  0  0  0  0  0
  146.3824  143.2540  159.3752 C   0  0  0  0  0  0  0  0  0  0  0  0
  145.3365  143.7958  160.3660 C   0  0  2  0  0  0  0  0  0  0  0  0
  145.6873  143.5916  161.8389 C   0  0  0  0  0  0  0  0  0  0  0  0
  144.3273  143.7102  162.4869 C   0  0  0  0  0  0  0  0  0  0  0  0
  143.4209  143.0311  161.4605 C   0  0  0  0  0  0  0  0  0  0  0  0
  144.0939  143.1210  160.2056 O   0  0  0  0  0  0  0  0  0  0  0  0
  152.3886  143.2033  161.2520 C   0  0  0  0  0  0  0  0  0  0  0  0
  152.8551  141.9780  161.4330 N   0  0  0  0  0  0  0  0  0  0  0  0
  153.6569  139.9401  158.9459 H   0  0  0  0  0  0  0  0  0  0  0  0
  153.0518  139.4747  160.5480 H   0  0  0  0  0  0  0  0  0  0  0  0
  154.6815  140.1656  160.3778 H   0  0  0  0  0  0  0  0  0  0  0  0
  152.9687  142.2888  158.1780 H   0  0  0  0  0  0  0  0  0  0  0  0
  152.7288  145.6003  159.2823 H   0  0  0  0  0  0  0  0  0  0  0  0
  151.6229  144.7700  158.2412 H   0  0  0  0  0  0  0  0  0  0  0  0
  150.7264  145.2404  161.0966 H   0  0  0  0  0  0  0  0  0  0  0  0
  150.8138  146.6147  160.0215 H   0  0  0  0  0  0  0  0  0  0  0  0
  149.2243  145.6091  158.5423 H   0  0  0  0  0  0  0  0  0  0  0  0
  147.4571  144.7076  158.2771 H   0  0  0  0  0  0  0  0  0  0  0  0
  145.9092  142.9960  158.4266 H   0  0  0  0  0  0  0  0  0  0  0  0
  146.8207  142.3343  159.7631 H   0  0  0  0  0  0  0  0  0  0  0  0
  145.1601  144.8575  160.1842 H   0  0  0  0  0  0  0  0  0  0  0  0
  146.0954  142.5935  162.0031 H   0  0  0  0  0  0  0  0  0  0  0  0
  146.4051  144.3217  162.2122 H   0  0  0  0  0  0  0  0  0  0  0  0
  144.2794  143.2475  163.4729 H   0  0  0  0  0  0  0  0  0  0  0  0
  144.0563  144.7619  162.5894 H   0  0  0  0  0  0  0  0  0  0  0  0
  143.2842  141.9770  161.7048 H   0  0  0  0  0  0  0  0  0  0  0  0
  142.4367  143.4976  161.4143 H   0  0  0  0  0  0  0  0  0  0  0  0
  152.1056  143.7843  162.1174 H   0  0  0  0  0  0  0  0  0  0  0  0
  1  2  1  0  0  0  0
  1 19  1  0  0  0  0
  1 20  1  0  0  0  0
  1 21  1  0  0  0  0
  2 18  1  0  0  0  0
  2  3  1  0  0  0  0
  3  4  2  0  0  0  0
  3 22  1  0  0  0  0
  4  5  1  0  0  0  0
  4 17  1  0  0  0  0
  5  6  1  0  0  0  0
  5 23  1  0  0  0  0
  5 24  1  0  0  0  0
  6  7  1  0  0  0  0
  6 25  1  0  0  0  0
  6 26  1  0  0  0  0
  7  8  1  0  0  0  0
  7 27  1  0  0  0  0
  8  9  2  0  0  0  0
  8 10  1  0  0  0  0
 10 11  1  0  0  0  0
 10 28  1  0  0  0  0
 11 12  1  0  0  0  0
 11 29  1  0  0  0  0
 11 30  1  0  0  0  0
 12 16  1  0  0  0  0
 12 13  1  0  0  0  0
 12 31  1  0  0  0  0
 13 14  1  0  0  0  0
 13 32  1  0  0  0  0
 13 33  1  0  0  0  0
 14 15  1  0  0  0  0
 14 34  1  0  0  0  0
 14 35  1  0  0  0  0
 15 16  1  0  0  0  0
 15 36  1  0  0  0  0
 15 37  1  0  0  0  0
 17 18  2  0  0  0  0
 17 38  1  0  0  0  0
M  END
> <s_m_source_file>
AV-unprocessed.smi

> <i_m_source_file_index>
3260

> <i_lp_mmshare_version>
43012

> <i_f3d_flags>
0

> <s_epik_input>
W0NIM11uMVtjSF1jKFtjSF1uMSlbQ0gyXVtDSDJdW05IXUMoPU8pW05IXVtDSDJdW0NAQEhdMltDSDJdW0NIMl1bQ0gyXU8y

> <s_epik_cmdline>
J2VwaWtfcHl0aG9uJywgJy1waCcsICc3LjAnLCAnLXRuJywgJzgnLCAnLW1hJywgJzIwMCcsICctbWV0YWxfYmluZGluZycsICctaW1hZScsICc8aW5maWxlLm1hZT4nLCAnLW9tYWUnLCAnPG91dGZpbGUubWFlPic=

> <r_lp_tautomer_probability>
1

> <r_epik_Ionization_Penalty>
0.000550106

> <r_epik_Ionization_Penalty_Charging>
0

> <r_epik_Ionization_Penalty_Neutral>
0.000550106

> <r_epik_State_Penalty>
-0

> <r_epik_Charging_Adjusted_Penalty>
0

> <i_epik_Tot_Q>
0

> <i_epik_Tot_abs_Q>
0

> <r_epik_Metal_State_Penalty>
-0

> <b_epik_Metal_Only>
0

> <s_lp_Force_Field>
OPLS_2005

> <r_lp_Energy>
10.4749

> <b_lp_Chiralities_Consistent>
1

> <s_lp_Variant>
AV-unprocessed.smi:3260-1

> <Gold.Version>
5.8.1

> <Gold.Id.Protein>
6NUR|6NUR_protein|mol2

> <Gold.PLP.Fitness>
48.8691

> <Gold.PLP.PLP>
-42.8569

> <Gold.PLP.part.hbond>
-2.7645

> <Gold.PLP.part.metal>
0.0000

> <Gold.PLP.part.buried>
-5.6925

> <Gold.PLP.part.nonpolar>
-35.7221

> <Gold.PLP.part.repulsive>
0.5669

> <Gold.PLP.ligand.clash>
0.0000

> <Gold.PLP.ligand.torsion>
1.0092

> <Gold.PLP.Chemscore.Hbond>
2.6640

> <Gold.PLP.Chemscore.CHOScore>
0.0000

> <Gold.PLP.Chemscore.Metal>
0.0000

> <Gold.Chemscore.Hbonds>
donor molecule, donor type, donor heavy atom, donor atom, acceptor molecule, acceptor atom, score
      L1  H     7    27       P1  8029  0.91
      L1  H    10    28       P1  8029  1.00
      P1  H  6933  6944       L1     9  0.84

> <Gold.PLP.Chemscore.Internal.Correction>
0.0386

> <Gold.Rescore>
     Score         DG    S(hbond)    S(metal)    S(lipo)     H(rot)  DE(clash)    DE(int)     intcor
     19.85     -21.10       2.63        0.00      98.97       1.85       0.34       0.91       ----

> <Gold.Chemscore.Fitness>
19.8525

> <Gold.Chemscore.DG>
-21.1032

> <Gold.Chemscore.ZeroCoef>
-5.4800

> <Gold.Chemscore.Hbond>
2.6309

> <Gold.Chemscore.Metal>
0.0000

> <Gold.Chemscore.Lipo>
98.9690

> <Gold.Chemscore.Internal_Hbond>
0.0000

> <Gold.Chemscore.DEClash>
0.3398

> <Gold.Chemscore.DEInternal>
0.9109

> <Gold.Chemscore.Rot>
1.8528

> <Gold.Chemscore.Internal.Correction>
   9.000000E+99

> <Gold.Chemscore.Hbonds>
donor molecule, donor type, donor heavy atom, donor atom, acceptor molecule, acceptor atom, score
      L1  H     7    27       P1  8029  0.88
      L1  H    10    28       P1  8029  0.88
      P1  H  6933  6944       L1     9  0.78

> <Gold.Chemscore.Hbond.Weighted>
-8.7871

> <Gold.Chemscore.Metal.Weighted>
-0.0000

> <Gold.Chemscore.Lipo.Weighted>
-11.5794

> <Gold.Chemscore.Internal_Hbond.Weighted>
0.0000

> <Gold.Chemscore.DEClash.Weighted>
0.3398

> <Gold.Chemscore.DEInternal.Weighted>
0.9109

> <Gold.Chemscore.Rot.Weighted>
4.7433

> <Gold.Chemscore.Internal.Correction.Weighted>
   9.000000E+99

> <Gold.Protein.RotatedTorsions>
[ 6907 6896 6895 6894 ] final  -48.17 input  -60.11 | X-H torsion
[ 7974 7965 7964 7962 ] final  179.81 input  175.53 | X-H torsion
[ 8008 7997 7996 7995 ] final  123.47 input   59.86 | X-H torsion
[ 10167 10162 10161 10158 ] final   -9.72 input  -65.29 | X-H torsion
[ 10718 10713 10712 10709 ] final  -31.08 input   66.30 | X-H torsion
[ 10763 10752 10751 10750 ] final   56.28 input  -60.55 | X-H torsion
[ 11005 11000 10999 10996 ] final  104.16 input  -57.11 | X-H torsion

> <Gold.Protein.ActiveResidues>
 VAL166  LYS551  ARG553  GLY616  TRP617  ASP618  TYR619  PRO620  LYS621  CYS622 
 ASP623  PHE694  ASN695  SER759  ASP760  ASP761  ALA762  ILE779  LEU786  VAL792 
 PHE793  MET794  SER795  GLU796  ALA797  LYS798  CYS799  TRP800  GLU811  SER814 

> <Gold.Protein.RotatedAtoms>
  150.8933  134.8339  159.7308 H   0  0  0  0  0  0  0  0  0  0  0  0  # atno 6907 bound_to 6896
  152.4850  134.4614  159.9616 H   0  0  0  0  0  0  0  0  0  0  0  0  # atno 6908 bound_to 6896
  151.4674  133.3538  159.2853 H   0  0  0  0  0  0  0  0  0  0  0  0  # atno 6909 bound_to 6896
  144.7142  140.0604  143.6433 H   0  0  0  0  0  0  0  0  0  0  0  0  # atno 7974 bound_to 7965
  156.2767  140.2762  156.1633 H   0  0  0  0  0  0  0  0  0  0  0  0  # atno 8008 bound_to 7997
  155.0731  140.0387  157.2633 H   0  0  0  0  0  0  0  0  0  0  0  0  # atno 8009 bound_to 7997
  154.7024  140.2652  155.6712 H   0  0  0  0  0  0  0  0  0  0  0  0  # atno 8010 bound_to 7997
  140.7095  143.5827  150.8975 H   0  0  0  0  0  0  0  0  0  0  0  0  # atno 10167 bound_to 10162
  156.3917  130.4374  149.7389 H   0  0  0  0  0  0  0  0  0  0  0  0  # atno 10718 bound_to 10713
  152.9829  135.5682  154.5203 H   0  0  0  0  0  0  0  0  0  0  0  0  # atno 10763 bound_to 10752
  154.4692  135.2784  155.1657 H   0  0  0  0  0  0  0  0  0  0  0  0  # atno 10764 bound_to 10752
  154.3212  135.6268  153.5562 H   0  0  0  0  0  0  0  0  0  0  0  0  # atno 10765 bound_to 10752
  139.8789  134.9290  156.5319 H   0  0  0  0  0  0  0  0  0  0  0  0  # atno 11005 bound_to 11000
  145.9869  139.2984  143.1008 LP  0  0  0  0  0  0  0  0  0  0  0  0  # atno 17320 bound_to 7965
  145.8947  140.9281  143.0534 LP  0  0  0  0  0  0  0  0  0  0  0  0  # atno 17321 bound_to 7965
  139.9553  143.6226  152.3018 LP  0  0  0  0  0  0  0  0  0  0  0  0  # atno 17342 bound_to 10162
  139.6759  144.7658  151.1697 LP  0  0  0  0  0  0  0  0  0  0  0  0  # atno 17343 bound_to 10162
  156.4440  130.7875  151.2896 LP  0  0  0  0  0  0  0  0  0  0  0  0  # atno 17370 bound_to 10713
  157.7499  131.0116  150.3352 LP  0  0  0  0  0  0  0  0  0  0  0  0  # atno 17371 bound_to 10713
  140.8374  133.8231  155.9042 LP  0  0  0  0  0  0  0  0  0  0  0  0  # atno 17394 bound_to 11000
  140.9270  134.2070  157.4889 LP  0  0  0  0  0  0  0  0  0  0  0  0  # atno 17395 bound_to 11000

$$$$
