AV-unprocessed.smi:264|AV-procd|sdf|2013|dock10
  -GOLD-   2262021213D 1   1.00000     0.00000
 Structure written by MMmdl.
 52 56  0  0  0  0  0  0  0  0  1 V2000
  145.2596  130.8938  151.7353 C   0  0  0  0  0  0  0  0  0  0  0  0
  144.4382  132.1848  151.8842 C   0  0  2  0  0  0  0  0  0  0  0  0
  143.6799  132.4348  150.7009 O   0  0  0  0  0  0  0  0  0  0  0  0
  144.0343  133.6961  150.1534 C   0  0  0  0  0  0  0  0  0  0  0  0
  144.4829  134.5108  151.3586 C   0  0  0  0  0  0  0  0  0  0  0  0
  145.2286  133.4791  152.1942 C   0  0  2  0  0  0  0  0  0  0  0  0
  146.5582  133.3910  151.7065 O   0  0  0  0  0  0  0  0  0  0  0  0
  145.2827  133.8132  153.7043 C   0  0  0  0  0  0  0  0  0  0  0  0
  146.1899  134.9061  154.0198 N   0  0  0  0  0  0  0  0  0  0  0  0
  147.3486  134.8271  154.7588 C   0  0  0  0  0  0  0  0  0  0  0  0
  147.9884  135.9539  154.9124 N   0  0  0  0  0  0  0  0  0  0  0  0
  147.2148  136.8819  154.2248 C   0  0  0  0  0  0  0  0  0  0  0  0
  147.3225  138.2819  153.9874 C   0  0  0  0  0  0  0  0  0  0  0  0
  148.3325  139.0365  154.4917 N   0  0  0  0  0  0  0  0  0  0  0  0
  148.2490  140.4589  154.1835 C   0  0  0  0  0  0  0  0  0  0  0  0
  149.2056  141.2483  155.0876 C   0  0  0  0  0  0  0  0  0  0  0  0
  150.5299  140.7274  154.9839 O   0  0  0  0  0  0  0  0  0  0  0  0
  150.6618  139.3310  155.2790 C   0  0  2  0  0  0  0  0  0  0  0  0
  150.5294  139.0424  156.7720 C   0  0  0  0  0  0  0  0  0  0  0  0
  151.9097  139.4105  157.2939 C   0  0  0  0  0  0  0  0  0  0  0  0
  152.7836  138.9104  156.2950 O   0  0  0  0  0  0  0  0  0  0  0  0
  152.1348  138.9644  155.0263 C   0  0  0  0  0  0  0  0  0  0  0  0
  149.6945  138.5188  154.3904 C   0  0  0  0  0  0  0  0  0  0  0  0
  146.3579  138.8597  153.2216 N   0  0  0  0  0  0  0  0  0  0  0  0
  145.3526  138.1275  152.7330 C   0  0  0  0  0  0  0  0  0  0  0  0
  145.1203  136.8226  152.8848 N   0  0  0  0  0  0  0  0  0  0  0  0
  146.0877  136.2341  153.6439 C   0  0  0  0  0  0  0  0  0  0  0  0
  145.8511  130.6997  152.6303 H   0  0  0  0  0  0  0  0  0  0  0  0
  145.9390  130.9456  150.8843 H   0  0  0  0  0  0  0  0  0  0  0  0
  144.6052  130.0363  151.5776 H   0  0  0  0  0  0  0  0  0  0  0  0
  143.7001  132.0249  152.6712 H   0  0  0  0  0  0  0  0  0  0  0  0
  144.8567  133.5633  149.4492 H   0  0  0  0  0  0  0  0  0  0  0  0
  143.1990  134.1523  149.6219 H   0  0  0  0  0  0  0  0  0  0  0  0
  145.0848  135.3796  151.0889 H   0  0  0  0  0  0  0  0  0  0  0  0
  143.6027  134.8663  151.8958 H   0  0  0  0  0  0  0  0  0  0  0  0
  146.5613  132.8404  150.9384 H   0  0  0  0  0  0  0  0  0  0  0  0
  144.2907  134.0899  154.0641 H   0  0  0  0  0  0  0  0  0  0  0  0
  145.5803  132.9345  154.2781 H   0  0  0  0  0  0  0  0  0  0  0  0
  147.7041  133.9020  155.1890 H   0  0  0  0  0  0  0  0  0  0  0  0
  148.5180  140.6092  153.1369 H   0  0  0  0  0  0  0  0  0  0  0  0
  147.2369  140.8420  154.3060 H   0  0  0  0  0  0  0  0  0  0  0  0
  149.2208  142.2957  154.7859 H   0  0  0  0  0  0  0  0  0  0  0  0
  148.8597  141.2328  156.1204 H   0  0  0  0  0  0  0  0  0  0  0  0
  149.7277  139.5800  157.2751 H   0  0  0  0  0  0  0  0  0  0  0  0
  150.3582  137.9774  156.9345 H   0  0  0  0  0  0  0  0  0  0  0  0
  152.0213  140.4935  157.3669 H   0  0  0  0  0  0  0  0  0  0  0  0
  152.1237  138.9742  158.2700 H   0  0  0  0  0  0  0  0  0  0  0  0
  152.2275  137.9821  154.5618 H   0  0  0  0  0  0  0  0  0  0  0  0
  152.6288  139.6829  154.3710 H   0  0  0  0  0  0  0  0  0  0  0  0
  149.7237  137.4656  154.6738 H   0  0  0  0  0  0  0  0  0  0  0  0
  150.0150  138.5794  153.3492 H   0  0  0  0  0  0  0  0  0  0  0  0
  144.6295  138.6644  152.1366 H   0  0  0  0  0  0  0  0  0  0  0  0
  1  2  1  0  0  0  0
  1 28  1  0  0  0  0
  1 29  1  0  0  0  0
  1 30  1  0  0  0  0
  2  6  1  0  0  0  0
  2  3  1  0  0  0  0
  2 31  1  0  0  0  0
  3  4  1  0  0  0  0
  4  5  1  0  0  0  0
  4 32  1  0  0  0  0
  4 33  1  0  0  0  0
  5  6  1  0  0  0  0
  5 34  1  0  0  0  0
  5 35  1  0  0  0  0
  6  7  1  0  0  0  0
  6  8  1  0  0  0  0
  7 36  1  0  0  0  0
  8  9  1  0  0  0  0
  8 37  1  0  0  0  0
  8 38  1  0  0  0  0
  9 27  1  0  0  0  0
  9 10  1  0  0  0  0
 10 11  2  0  0  0  0
 10 39  1  0  0  0  0
 11 12  1  0  0  0  0
 12 27  2  0  0  0  0
 12 13  1  0  0  0  0
 13 14  1  0  0  0  0
 13 24  2  0  0  0  0
 14 23  1  0  0  0  0
 14 15  1  0  0  0  0
 15 16  1  0  0  0  0
 15 40  1  0  0  0  0
 15 41  1  0  0  0  0
 16 17  1  0  0  0  0
 16 42  1  0  0  0  0
 16 43  1  0  0  0  0
 17 18  1  0  0  0  0
 18 22  1  0  0  0  0
 18 19  1  0  0  0  0
 18 23  1  0  0  0  0
 19 20  1  0  0  0  0
 19 44  1  0  0  0  0
 19 45  1  0  0  0  0
 20 21  1  0  0  0  0
 20 46  1  0  0  0  0
 20 47  1  0  0  0  0
 21 22  1  0  0  0  0
 22 48  1  0  0  0  0
 22 49  1  0  0  0  0
 23 50  1  0  0  0  0
 23 51  1  0  0  0  0
 24 25  1  0  0  0  0
 25 26  2  0  0  0  0
 25 52  1  0  0  0  0
 26 27  1  0  0  0  0
M  END
> <s_m_source_file>
AV-unprocessed.smi

> <i_m_source_file_index>
264

> <i_lp_mmshare_version>
43012

> <i_f3d_flags>
0

> <s_epik_input>
W0NIMl0xW0NIMl1PW0NAQEhdKFtDSDNdKVtDQEBdMShbT0hdKVtDSDJdbihbY0hdbjIpYyhjMjMpbltjSF1uYzNOKFtDSDJdNClbQ0gyXVtDSDJdT1tDQF00NVtDSDJdW0NIMl1PW0NIMl01

> <s_epik_cmdline>
J2VwaWtfcHl0aG9uJywgJy1waCcsICc3LjAnLCAnLXRuJywgJzgnLCAnLW1hJywgJzIwMCcsICctbWV0YWxfYmluZGluZycsICctaW1hZScsICc8aW5maWxlLm1hZT4nLCAnLW9tYWUnLCAnPG91dGZpbGUubWFlPic=

> <r_lp_tautomer_probability>
1

> <r_epik_Ionization_Penalty>
0.00539389

> <r_epik_Ionization_Penalty_Charging>
0

> <r_epik_Ionization_Penalty_Neutral>
0.00539389

> <r_epik_State_Penalty>
0.00375441

> <r_epik_Charging_Adjusted_Penalty>
0.00375441

> <i_epik_Tot_Q>
0

> <i_epik_Tot_abs_Q>
0

> <r_epik_Metal_State_Penalty>
-0

> <b_epik_Metal_Only>
0

> <s_lp_Force_Field>
OPLS_2005

> <r_lp_Energy>
54.0423

> <b_lp_Chiralities_Consistent>
1

> <s_lp_Variant>
AV-unprocessed.smi:264-7

> <Gold.Version>
5.8.1

> <Gold.Id.Protein>
6NUR|6NUR_protein|mol2

> <Gold.PLP.Fitness>
41.1066

> <Gold.PLP.PLP>
-29.9769

> <Gold.PLP.part.hbond>
-2.0000

> <Gold.PLP.part.metal>
0.0000

> <Gold.PLP.part.buried>
-0.4913

> <Gold.PLP.part.nonpolar>
-27.8449

> <Gold.PLP.part.repulsive>
1.0054

> <Gold.PLP.ligand.clash>
0.0000

> <Gold.PLP.ligand.torsion>
0.3136

> <Gold.PLP.Chemscore.Hbond>
1.8640

> <Gold.PLP.Chemscore.CHOScore>
1.9622

> <Gold.PLP.Chemscore.Metal>
0.0000

> <Gold.Chemscore.Hbonds>
donor molecule, donor type, donor heavy atom, donor atom, acceptor molecule, acceptor atom, score
      P1  H  7989  7998       L1    17  0.88
      P1  H  7997  8008       L1    21  1.00
      L1  C    25    52       P1 10171  1.00
      L1  C    25    52       P1 10175  1.00

> <Gold.PLP.Chemscore.Internal.Correction>
0.2785

> <Gold.Rescore>
     Score         DG    S(hbond)    S(metal)    S(lipo)     H(rot)  DE(clash)    DE(int)     intcor
     10.35     -12.09       0.92        0.00      76.21       2.11       0.12       1.61       ----

> <Gold.Chemscore.Fitness>
10.3522

> <Gold.Chemscore.DG>
-12.0891

> <Gold.Chemscore.ZeroCoef>
-5.4800

> <Gold.Chemscore.Hbond>
0.9237

> <Gold.Chemscore.Metal>
0.0000

> <Gold.Chemscore.Lipo>
76.2051

> <Gold.Chemscore.Internal_Hbond>
0.0000

> <Gold.Chemscore.DEClash>
0.1222

> <Gold.Chemscore.DEInternal>
1.6146

> <Gold.Chemscore.Rot>
2.1063

> <Gold.Chemscore.Internal.Correction>
   9.000000E+99

> <Gold.Chemscore.Hbonds>
donor molecule, donor type, donor heavy atom, donor atom, acceptor molecule, acceptor atom, score
      P1  H  7989  7998       L1    17  0.30
      P1  H  7997  8008       L1    21  0.31

> <Gold.Chemscore.Hbond.Weighted>
-3.0852

> <Gold.Chemscore.Metal.Weighted>
-0.0000

> <Gold.Chemscore.Lipo.Weighted>
-8.9160

> <Gold.Chemscore.Internal_Hbond.Weighted>
0.0000

> <Gold.Chemscore.DEClash.Weighted>
0.1222

> <Gold.Chemscore.DEInternal.Weighted>
1.6146

> <Gold.Chemscore.Rot.Weighted>
5.3921

> <Gold.Chemscore.Internal.Correction.Weighted>
   9.000000E+99

> <Gold.Protein.RotatedTorsions>
[ 6907 6896 6895 6894 ] final  -51.53 input  -60.11 | X-H torsion
[ 7974 7965 7964 7962 ] final   -2.99 input  175.53 | X-H torsion
[ 8008 7997 7996 7995 ] final  -51.97 input   59.86 | X-H torsion
[ 10167 10162 10161 10158 ] final  -17.94 input  -65.29 | X-H torsion
[ 10718 10713 10712 10709 ] final -123.03 input   66.30 | X-H torsion
[ 10763 10752 10751 10750 ] final   70.69 input  -60.55 | X-H torsion
[ 11005 11000 10999 10996 ] final  -48.16 input  -57.11 | X-H torsion

> <Gold.Protein.ActiveResidues>
 VAL166  LYS551  ARG553  GLY616  TRP617  ASP618  TYR619  PRO620  LYS621  CYS622 
 ASP623  PHE694  ASN695  SER759  ASP760  ASP761  ALA762  ILE779  LEU786  VAL792 
 PHE793  MET794  SER795  GLU796  ALA797  LYS798  CYS799  TRP800  GLU811  SER814 

> <Gold.Protein.RotatedAtoms>
  150.8603  134.7953  159.7076 H   0  0  0  0  0  0  0  0  0  0  0  0  # atno 6907 bound_to 6896
  152.4642  134.5111  159.9764 H   0  0  0  0  0  0  0  0  0  0  0  0  # atno 6908 bound_to 6896
  151.5217  133.3427  159.2938 H   0  0  0  0  0  0  0  0  0  0  0  0  # atno 6909 bound_to 6896
  146.2396  140.1654  142.8332 H   0  0  0  0  0  0  0  0  0  0  0  0  # atno 7974 bound_to 7965
  154.4095  140.1235  156.4916 H   0  0  0  0  0  0  0  0  0  0  0  0  # atno 8008 bound_to 7997
  155.6985  140.3495  155.4903 H   0  0  0  0  0  0  0  0  0  0  0  0  # atno 8009 bound_to 7997
  155.9406  140.1086  157.1048 H   0  0  0  0  0  0  0  0  0  0  0  0  # atno 8010 bound_to 7997
  140.7253  143.4966  150.9923 H   0  0  0  0  0  0  0  0  0  0  0  0  # atno 10167 bound_to 10162
  156.1467  130.6505  150.9853 H   0  0  0  0  0  0  0  0  0  0  0  0  # atno 10718 bound_to 10713
  153.0356  135.5164  154.7480 H   0  0  0  0  0  0  0  0  0  0  0  0  # atno 10763 bound_to 10752
  154.6459  135.2918  155.0049 H   0  0  0  0  0  0  0  0  0  0  0  0  # atno 10764 bound_to 10752
  154.0950  135.6644  153.4911 H   0  0  0  0  0  0  0  0  0  0  0  0  # atno 10765 bound_to 10752
  141.0684  133.6686  156.3402 H   0  0  0  0  0  0  0  0  0  0  0  0  # atno 11005 bound_to 11000
  145.0055  140.8669  143.5256 LP  0  0  0  0  0  0  0  0  0  0  0  0  # atno 17320 bound_to 7965
  145.1680  139.2420  143.5357 LP  0  0  0  0  0  0  0  0  0  0  0  0  # atno 17321 bound_to 7965
  139.8673  143.7237  152.3169 LP  0  0  0  0  0  0  0  0  0  0  0  0  # atno 17342 bound_to 10162
  139.7474  144.7543  151.0559 LP  0  0  0  0  0  0  0  0  0  0  0  0  # atno 17343 bound_to 10162
  157.6623  131.0878  150.7810 LP  0  0  0  0  0  0  0  0  0  0  0  0  # atno 17370 bound_to 10713
  156.7881  130.4881  149.5389 LP  0  0  0  0  0  0  0  0  0  0  0  0  # atno 17371 bound_to 10713
  140.5724  134.5827  157.5461 LP  0  0  0  0  0  0  0  0  0  0  0  0  # atno 17394 bound_to 11000
  139.9499  134.7635  156.0473 LP  0  0  0  0  0  0  0  0  0  0  0  0  # atno 17395 bound_to 11000

$$$$
