AV-unprocessed.smi:2379|AV-procd|sdf|9454|dock4
  -GOLD-   2272013 83D 1   1.00000     0.00000
 Structure written by MMmdl.
 53 55  0  0  0  0  0  0  0  0  2 V2000
  153.6769  141.7097  161.8216 C   0  0  0  0  0  0  0  0  0  0  0  0
  152.9317  142.0767  160.5556 C   0  0  0  0  0  0  0  0  0  0  0  0
  152.7253  143.4256  160.2108 C   0  0  0  0  0  0  0  0  0  0  0  0
  152.0235  143.7084  159.0228 C   0  0  0  0  0  0  0  0  0  0  0  0
  151.7623  145.1369  158.5945 C   0  0  0  0  0  0  0  0  0  0  0  0
  151.5408  142.7477  158.2058 N   0  0  0  0  0  0  0  0  0  0  0  0
  151.7327  141.4447  158.5283 C   0  0  0  0  0  0  0  0  0  0  0  0
  151.2599  140.3615  157.7405 N   0  0  0  0  0  0  0  0  0  0  0  0
  151.0608  140.3274  156.4110 C   0  0  0  0  0  0  0  0  0  0  0  0
  151.2994  141.2486  155.6297 O   0  0  0  0  0  0  0  0  0  0  0  0
  150.5636  139.1431  156.0240 N   0  0  0  0  0  0  0  0  0  0  0  0
  150.2572  138.7631  154.6448 C   0  0  2  0  0  0  0  0  0  0  0  0
  148.7754  138.3780  154.4633 C   0  0  0  0  0  0  0  0  0  0  0  0
  148.4384  137.0396  155.1433 C   0  0  0  0  0  0  0  0  0  0  0  0
  149.3226  135.9502  154.6535 N   0  3  2  0  0  0  0  0  0  0  0  0
  148.9287  134.6157  155.1769 C   0  0  0  0  0  0  0  0  0  0  0  0
  148.9496  133.5247  154.0873 C   0  0  1  0  0  0  0  0  0  0  0  0
  149.0056  132.0890  154.5885 C   0  0  0  0  0  0  0  0  0  0  0  0
  148.3252  131.2818  153.4784 C   0  0  0  0  0  0  0  0  0  0  0  0
  147.7465  132.2335  152.5923 O   0  0  0  0  0  0  0  0  0  0  0  0
  147.6731  133.4865  153.2514 C   0  0  0  0  0  0  0  0  0  0  0  0
  150.7558  136.2716  154.8847 C   0  0  0  0  0  0  0  0  0  0  0  0
  151.1507  137.5927  154.1992 C   0  0  0  0  0  0  0  0  0  0  0  0
  152.4254  141.0745  159.7029 C   0  0  0  0  0  0  0  0  0  0  0  0
  154.4228  142.4666  162.0658 H   0  0  0  0  0  0  0  0  0  0  0  0
  154.1902  140.7543  161.7077 H   0  0  0  0  0  0  0  0  0  0  0  0
  152.9815  141.6298  162.6570 H   0  0  0  0  0  0  0  0  0  0  0  0
  153.0940  144.2220  160.8410 H   0  0  0  0  0  0  0  0  0  0  0  0
  152.3714  145.8373  159.1664 H   0  0  0  0  0  0  0  0  0  0  0  0
  150.7134  145.3901  158.7490 H   0  0  0  0  0  0  0  0  0  0  0  0
  151.9968  145.2689  157.5377 H   0  0  0  0  0  0  0  0  0  0  0  0
  151.0438  139.5183  158.2508 H   0  0  0  0  0  0  0  0  0  0  0  0
  150.4056  138.4439  156.7347 H   0  0  0  0  0  0  0  0  0  0  0  0
  150.4792  139.6209  154.0071 H   0  0  0  0  0  0  0  0  0  0  0  0
  148.1207  139.1641  154.8406 H   0  0  0  0  0  0  0  0  0  0  0  0
  148.5584  138.2968  153.3973 H   0  0  0  0  0  0  0  0  0  0  0  0
  148.5297  137.1279  156.2271 H   0  0  0  0  0  0  0  0  0  0  0  0
  147.3973  136.7922  154.9324 H   0  0  0  0  0  0  0  0  0  0  0  0
  149.5422  134.3372  156.0352 H   0  0  0  0  0  0  0  0  0  0  0  0
  147.9063  134.6707  155.5539 H   0  0  0  0  0  0  0  0  0  0  0  0
  149.7879  133.6982  153.4101 H   0  0  0  0  0  0  0  0  0  0  0  0
  150.0254  131.7514  154.7759 H   0  0  0  0  0  0  0  0  0  0  0  0
  148.4382  131.9827  155.5143 H   0  0  0  0  0  0  0  0  0  0  0  0
  149.0377  130.6633  152.9323 H   0  0  0  0  0  0  0  0  0  0  0  0
  147.5534  130.6287  153.8870 H   0  0  0  0  0  0  0  0  0  0  0  0
  146.7847  133.5108  153.8849 H   0  0  0  0  0  0  0  0  0  0  0  0
  147.6099  134.3084  152.5378 H   0  0  0  0  0  0  0  0  0  0  0  0
  150.9473  136.3313  155.9570 H   0  0  0  0  0  0  0  0  0  0  0  0
  151.3901  135.4750  154.5014 H   0  0  0  0  0  0  0  0  0  0  0  0
  151.0671  137.4703  153.1183 H   0  0  0  0  0  0  0  0  0  0  0  0
  152.1990  137.8197  154.3971 H   0  0  0  0  0  0  0  0  0  0  0  0
  152.5688  140.0324  159.9494 H   0  0  0  0  0  0  0  0  0  0  0  0
  149.1849  135.9131  153.6535 H   0  0  0  0  0  0  0  0  0  0  0  0
  1  2  1  0  0  0  0
  1 25  1  0  0  0  0
  1 26  1  0  0  0  0
  1 27  1  0  0  0  0
  2 24  1  0  0  0  0
  2  3  2  0  0  0  0
  3  4  1  0  0  0  0
  3 28  1  0  0  0  0
  4  5  1  0  0  0  0
  4  6  2  0  0  0  0
  5 29  1  0  0  0  0
  5 30  1  0  0  0  0
  5 31  1  0  0  0  0
  6  7  1  0  0  0  0
  7  8  1  0  0  0  0
  7 24  2  0  0  0  0
  8  9  1  0  0  0  0
  8 32  1  0  0  0  0
  9 10  2  0  0  0  0
  9 11  1  0  0  0  0
 11 12  1  0  0  0  0
 11 33  1  0  0  0  0
 12 23  1  0  0  0  0
 12 13  1  0  0  0  0
 12 34  1  0  0  0  0
 13 14  1  0  0  0  0
 13 35  1  0  0  0  0
 13 36  1  0  0  0  0
 14 15  1  0  0  0  0
 14 37  1  0  0  0  0
 14 38  1  0  0  0  0
 15 16  1  0  0  0  0
 15 22  1  0  0  0  0
 15 53  1  0  0  0  0
 16 17  1  0  0  0  0
 16 39  1  0  0  0  0
 16 40  1  0  0  0  0
 17 21  1  0  0  0  0
 17 18  1  0  0  0  0
 17 41  1  0  0  0  0
 18 19  1  0  0  0  0
 18 42  1  0  0  0  0
 18 43  1  0  0  0  0
 19 20  1  0  0  0  0
 19 44  1  0  0  0  0
 19 45  1  0  0  0  0
 20 21  1  0  0  0  0
 21 46  1  0  0  0  0
 21 47  1  0  0  0  0
 22 23  1  0  0  0  0
 22 48  1  0  0  0  0
 22 49  1  0  0  0  0
 23 50  1  0  0  0  0
 23 51  1  0  0  0  0
 24 52  1  0  0  0  0
M  CHG  1  15   1
M  END
> <s_m_source_file>
AV-unprocessed.smi

> <i_m_source_file_index>
2379

> <i_lp_mmshare_version>
43012

> <i_f3d_flags>
0

> <s_epik_input>
W0NIM11jMVtjSF1jKFtDSDNdKW5jKFtjSF0xKVtOSF1DKD1PKVtOSF1bQ0hdMltDSDJdW0NIMl1OKFtDSDJdW0NIMl0yKVtDSDJdW0NAQEhdM1tDSDJdW0NIMl1PW0NIMl0z

> <s_epik_cmdline>
J2VwaWtfcHl0aG9uJywgJy1waCcsICc3LjAnLCAnLXRuJywgJzgnLCAnLW1hJywgJzIwMCcsICctbWV0YWxfYmluZGluZycsICctaW1hZScsICc8aW5maWxlLm1hZT4nLCAnLW9tYWUnLCAnPG91dGZpbGUubWFlPic=

> <r_epik_Ionization_Penalty>
0.00766556

> <r_epik_Ionization_Penalty_Charging>
0.00747775

> <r_epik_Ionization_Penalty_Neutral>
0.00018781

> <r_epik_State_Penalty>
0.00558817

> <r_epik_Charging_Adjusted_Penalty>
0.0130659

> <i_epik_Tot_Q>
1

> <i_epik_Tot_abs_Q>
1

> <r_epik_Metal_State_Penalty>
-0

> <b_epik_Metal_Only>
0

> <s_lp_Force_Field>
OPLS_2005

> <r_lp_Energy>
36.2098

> <b_lp_Chiralities_Consistent>
1

> <s_lp_Variant>
AV-unprocessed.smi:2379-4

> <Gold.Version>
5.8.1

> <Gold.Id.Protein>
6NUR|6NUR_protein|mol2

> <Gold.PLP.Fitness>
50.4314

> <Gold.PLP.PLP>
-45.2107

> <Gold.PLP.part.hbond>
-2.0000

> <Gold.PLP.part.metal>
0.0000

> <Gold.PLP.part.buried>
-2.2240

> <Gold.PLP.part.nonpolar>
-42.2598

> <Gold.PLP.part.repulsive>
1.1964

> <Gold.PLP.ligand.clash>
0.0000

> <Gold.PLP.ligand.torsion>
0.9568

> <Gold.PLP.Chemscore.Hbond>
2.3578

> <Gold.PLP.Chemscore.CHOScore>
0.0000

> <Gold.PLP.Chemscore.Metal>
0.0000

> <Gold.Chemscore.Hbonds>
donor molecule, donor type, donor heavy atom, donor atom, acceptor molecule, acceptor atom, score
      L1  H    15    53       P1  7948  2.00
      P1  H  7989  7998       L1    10  0.33

> <Gold.PLP.Chemscore.Internal.Correction>
0.0610

> <Gold.Rescore>
     Score         DG    S(hbond)    S(metal)    S(lipo)     H(rot)  DE(clash)    DE(int)     intcor
     17.41     -19.85       1.21        0.00     118.38       1.37       0.51       1.93       ----

> <Gold.Chemscore.Fitness>
17.4068

> <Gold.Chemscore.DG>
-19.8538

> <Gold.Chemscore.ZeroCoef>
-5.4800

> <Gold.Chemscore.Hbond>
1.2086

> <Gold.Chemscore.Metal>
0.0000

> <Gold.Chemscore.Lipo>
118.3807

> <Gold.Chemscore.Internal_Hbond>
0.0000

> <Gold.Chemscore.DEClash>
0.5144

> <Gold.Chemscore.DEInternal>
1.9325

> <Gold.Chemscore.Rot>
1.3725

> <Gold.Chemscore.Internal.Correction>
   9.000000E+99

> <Gold.Chemscore.Hbonds>
donor molecule, donor type, donor heavy atom, donor atom, acceptor molecule, acceptor atom, score
      L1  H    15    53       P1  7948  0.82
      P1  H  7989  7998       L1    10  0.33

> <Gold.Chemscore.Hbond.Weighted>
-4.0368

> <Gold.Chemscore.Metal.Weighted>
-0.0000

> <Gold.Chemscore.Lipo.Weighted>
-13.8505

> <Gold.Chemscore.Internal_Hbond.Weighted>
0.0000

> <Gold.Chemscore.DEClash.Weighted>
0.5144

> <Gold.Chemscore.DEInternal.Weighted>
1.9325

> <Gold.Chemscore.Rot.Weighted>
3.5136

> <Gold.Chemscore.Internal.Correction.Weighted>
   9.000000E+99

> <Gold.Protein.RotatedTorsions>
[ 6907 6896 6895 6894 ] final   58.72 input  -60.11 | X-H torsion
[ 7974 7965 7964 7962 ] final -171.26 input  175.53 | X-H torsion
[ 8008 7997 7996 7995 ] final  -34.00 input   59.86 | X-H torsion
[ 10167 10162 10161 10158 ] final  166.81 input  -65.29 | X-H torsion
[ 10718 10713 10712 10709 ] final  136.41 input   66.30 | X-H torsion
[ 10763 10752 10751 10750 ] final   15.07 input  -60.55 | X-H torsion
[ 11005 11000 10999 10996 ] final  159.12 input  -57.11 | X-H torsion

> <Gold.Protein.ActiveResidues>
 VAL166  LYS551  ARG553  GLY616  TRP617  ASP618  TYR619  PRO620  LYS621  CYS622 
 ASP623  PHE694  ASN695  SER759  ASP760  ASP761  ALA762  ILE779  LEU786  VAL792 
 PHE793  MET794  SER795  GLU796  ALA797  LYS798  CYS799  TRP800  GLU811  SER814 

> <Gold.Protein.RotatedAtoms>
  152.3849  134.6532  160.0128 H   0  0  0  0  0  0  0  0  0  0  0  0  # atno 6907 bound_to 6896
  151.6784  133.3307  159.3221 H   0  0  0  0  0  0  0  0  0  0  0  0  # atno 6908 bound_to 6896
  150.7778  134.6738  159.6451 H   0  0  0  0  0  0  0  0  0  0  0  0  # atno 6909 bound_to 6896
  144.7159  140.1948  143.6344 H   0  0  0  0  0  0  0  0  0  0  0  0  # atno 7974 bound_to 7965
  154.4133  140.1695  156.1979 H   0  0  0  0  0  0  0  0  0  0  0  0  # atno 8008 bound_to 7997
  155.9548  140.3398  155.6416 H   0  0  0  0  0  0  0  0  0  0  0  0  # atno 8009 bound_to 7997
  155.6823  140.0724  157.2470 H   0  0  0  0  0  0  0  0  0  0  0  0  # atno 8010 bound_to 7997
  139.4932  144.3988  151.9433 H   0  0  0  0  0  0  0  0  0  0  0  0  # atno 10167 bound_to 10162
  157.4469  131.1062  151.0079 H   0  0  0  0  0  0  0  0  0  0  0  0  # atno 10718 bound_to 10713
  153.1560  135.6787  153.8811 H   0  0  0  0  0  0  0  0  0  0  0  0  # atno 10763 bound_to 10752
  153.8222  135.3128  155.3412 H   0  0  0  0  0  0  0  0  0  0  0  0  # atno 10764 bound_to 10752
  154.7898  135.4841  154.0114 H   0  0  0  0  0  0  0  0  0  0  0  0  # atno 10765 bound_to 10752
  140.1931  134.8393  157.2934 H   0  0  0  0  0  0  0  0  0  0  0  0  # atno 11005 bound_to 11000
  145.8735  139.2284  143.1647 LP  0  0  0  0  0  0  0  0  0  0  0  0  # atno 17320 bound_to 7965
  146.0063  140.8476  142.9993 LP  0  0  0  0  0  0  0  0  0  0  0  0  # atno 17321 bound_to 7965
  140.3427  144.3184  150.5964 LP  0  0  0  0  0  0  0  0  0  0  0  0  # atno 17342 bound_to 10162
  140.5552  143.2200  151.7859 LP  0  0  0  0  0  0  0  0  0  0  0  0  # atno 17343 bound_to 10162
  157.0922  130.5947  149.5442 LP  0  0  0  0  0  0  0  0  0  0  0  0  # atno 17370 bound_to 10713
  155.9971  130.5042  150.7521 LP  0  0  0  0  0  0  0  0  0  0  0  0  # atno 17371 bound_to 10713
  140.2137  134.4107  155.7600 LP  0  0  0  0  0  0  0  0  0  0  0  0  # atno 17394 bound_to 11000
  141.2226  133.7131  156.8380 LP  0  0  0  0  0  0  0  0  0  0  0  0  # atno 17395 bound_to 11000

$$$$
