AV-unprocessed.smi:260|AV-procd|sdf|1982|dock9
  -GOLD-   2262021153D 1   1.00000     0.00000
 Structure written by MMmdl.
 53 56  0  0  0  0  0  0  0  0  1 V2000
  149.4251  130.9996  159.8928 C   0  0  0  0  0  0  0  0  0  0  0  0
  149.9318  131.2615  158.5547 N   0  0  0  0  0  0  0  0  0  0  0  0
  149.1848  131.7130  157.5344 C   0  0  0  0  0  0  0  0  0  0  0  0
  147.9790  131.9338  157.6569 O   0  0  0  0  0  0  0  0  0  0  0  0
  149.8695  131.9586  156.1640 C   0  0  2  0  0  0  0  0  0  0  0  0
  149.3385  130.9302  155.1462 C   0  0  0  0  0  0  0  0  0  0  0  0
  151.4151  131.9718  156.2193 C   0  0  0  0  0  0  0  0  0  0  0  0
  151.7834  133.3924  156.6678 C   0  0  0  0  0  0  0  0  0  0  0  0
  150.6289  134.2136  156.3342 N   0  0  0  0  0  0  0  0  0  0  0  0
  150.7441  135.5454  156.0970 C   0  0  0  0  0  0  0  0  0  0  0  0
  150.8946  135.9684  154.8139 N   0  0  0  0  0  0  0  0  0  0  0  0
  151.0061  137.2704  154.5363 C   0  0  0  0  0  0  0  0  0  0  0  0
  150.9874  138.3065  155.3757 N   0  0  0  0  0  0  0  0  0  0  0  0
  150.8255  137.8929  156.6645 C   0  0  0  0  0  0  0  0  0  0  0  0
  150.6971  136.5464  157.1122 C   0  0  0  0  0  0  0  0  0  0  0  0
  150.5373  136.5288  158.4943 N   0  0  0  0  0  0  0  0  0  0  0  0
  150.5747  137.7861  158.8412 C   0  0  0  0  0  0  0  0  0  0  0  0
  150.7424  138.6729  157.8034 N   0  0  0  0  0  0  0  0  0  0  0  0
  150.8097  140.1204  157.8954 C   0  0  0  0  0  0  0  0  0  0  0  0
  152.0303  140.5984  158.7058 C   0  0  1  0  0  0  0  0  0  0  0  0
  153.1987  139.9106  158.3002 O   0  0  0  0  0  0  0  0  0  0  0  0
  152.2442  142.1230  158.6220 C   0  0  1  0  0  0  0  0  0  0  0  0
  151.0281  143.0002  158.9308 C   0  0  0  0  0  0  0  0  0  0  0  0
  151.6953  144.3002  159.3203 C   0  0  0  0  0  0  0  0  0  0  0  0
  152.9172  143.8056  160.0910 C   0  0  0  0  0  0  0  0  0  0  0  0
  153.2831  142.5644  159.4930 O   0  0  0  0  0  0  0  0  0  0  0  0
  149.5982  133.4020  155.6992 C   0  0  0  0  0  0  0  0  0  0  0  0
  150.2342  130.6510  160.5348 H   0  0  0  0  0  0  0  0  0  0  0  0
  148.6508  130.2316  159.8717 H   0  0  0  0  0  0  0  0  0  0  0  0
  149.0062  131.9055  160.3331 H   0  0  0  0  0  0  0  0  0  0  0  0
  150.9154  131.1007  158.3933 H   0  0  0  0  0  0  0  0  0  0  0  0
  149.7670  131.0929  154.1568 H   0  0  0  0  0  0  0  0  0  0  0  0
  148.2544  130.9892  155.0401 H   0  0  0  0  0  0  0  0  0  0  0  0
  149.5885  129.9117  155.4459 H   0  0  0  0  0  0  0  0  0  0  0  0
  151.8569  131.2010  156.8512 H   0  0  0  0  0  0  0  0  0  0  0  0
  151.8146  131.8097  155.2170 H   0  0  0  0  0  0  0  0  0  0  0  0
  151.9450  133.4290  157.7456 H   0  0  0  0  0  0  0  0  0  0  0  0
  152.6913  133.7366  156.1711 H   0  0  0  0  0  0  0  0  0  0  0  0
  151.1257  137.5165  153.4915 H   0  0  0  0  0  0  0  0  0  0  0  0
  150.4732  138.1034  159.8688 H   0  0  0  0  0  0  0  0  0  0  0  0
  150.8324  140.5319  156.8856 H   0  0  0  0  0  0  0  0  0  0  0  0
  149.8876  140.4759  158.3569 H   0  0  0  0  0  0  0  0  0  0  0  0
  151.8699  140.3430  159.7541 H   0  0  0  0  0  0  0  0  0  0  0  0
  153.3909  139.2463  158.9445 H   0  0  0  0  0  0  0  0  0  0  0  0
  152.5795  142.3664  157.6122 H   0  0  0  0  0  0  0  0  0  0  0  0
  150.3513  143.1029  158.0821 H   0  0  0  0  0  0  0  0  0  0  0  0
  150.4578  142.6161  159.7771 H   0  0  0  0  0  0  0  0  0  0  0  0
  152.0079  144.8436  158.4274 H   0  0  0  0  0  0  0  0  0  0  0  0
  151.0530  144.9530  159.9122 H   0  0  0  0  0  0  0  0  0  0  0  0
  153.7417  144.5184  160.0677 H   0  0  0  0  0  0  0  0  0  0  0  0
  152.6579  143.6221  161.1346 H   0  0  0  0  0  0  0  0  0  0  0  0
  149.6894  133.4850  154.6150 H   0  0  0  0  0  0  0  0  0  0  0  0
  148.6017  133.7503  155.9755 H   0  0  0  0  0  0  0  0  0  0  0  0
  1  2  1  0  0  0  0
  1 28  1  0  0  0  0
  1 29  1  0  0  0  0
  1 30  1  0  0  0  0
  2  3  1  0  0  0  0
  2 31  1  0  0  0  0
  3  4  2  0  0  0  0
  3  5  1  0  0  0  0
  5 27  1  0  0  0  0
  5  6  1  0  0  0  0
  5  7  1  0  0  0  0
  6 32  1  0  0  0  0
  6 33  1  0  0  0  0
  6 34  1  0  0  0  0
  7  8  1  0  0  0  0
  7 35  1  0  0  0  0
  7 36  1  0  0  0  0
  8  9  1  0  0  0  0
  8 37  1  0  0  0  0
  8 38  1  0  0  0  0
  9 10  1  0  0  0  0
  9 27  1  0  0  0  0
 10 15  1  0  0  0  0
 10 11  2  0  0  0  0
 11 12  1  0  0  0  0
 12 13  2  0  0  0  0
 12 39  1  0  0  0  0
 13 14  1  0  0  0  0
 14 18  1  0  0  0  0
 14 15  2  0  0  0  0
 15 16  1  0  0  0  0
 16 17  2  0  0  0  0
 17 18  1  0  0  0  0
 17 40  1  0  0  0  0
 18 19  1  0  0  0  0
 19 20  1  0  0  0  0
 19 41  1  0  0  0  0
 19 42  1  0  0  0  0
 20 21  1  0  0  0  0
 20 22  1  0  0  0  0
 20 43  1  0  0  0  0
 21 44  1  0  0  0  0
 22 26  1  0  0  0  0
 22 23  1  0  0  0  0
 22 45  1  0  0  0  0
 23 24  1  0  0  0  0
 23 46  1  0  0  0  0
 23 47  1  0  0  0  0
 24 25  1  0  0  0  0
 24 48  1  0  0  0  0
 24 49  1  0  0  0  0
 25 26  1  0  0  0  0
 25 50  1  0  0  0  0
 25 51  1  0  0  0  0
 27 52  1  0  0  0  0
 27 53  1  0  0  0  0
M  END
> <s_m_source_file>
AV-unprocessed.smi

> <i_m_source_file_index>
260

> <i_lp_mmshare_version>
43012

> <i_f3d_flags>
0

> <s_epik_input>
W0NIM11bTkhdQyg9TylbQ0BAXTEoW0NIM10pW0NIMl1bQ0gyXU4oW0NIMl0xKWMobltjSF1uMiljKGMyMyluW2NIXW4zW0NIMl1bQ0BIXShbT0hdKVtDQEBIXTRbQ0gyXVtDSDJdW0NIMl1PNA==

> <s_epik_cmdline>
J2VwaWtfcHl0aG9uJywgJy1waCcsICc3LjAnLCAnLXRuJywgJzgnLCAnLW1hJywgJzIwMCcsICctbWV0YWxfYmluZGluZycsICctaW1hZScsICc8aW5maWxlLm1hZT4nLCAnLW9tYWUnLCAnPG91dGZpbGUubWFlPic=

> <r_lp_tautomer_probability>
1

> <r_epik_Ionization_Penalty>
0.00115068

> <r_epik_Ionization_Penalty_Charging>
0

> <r_epik_Ionization_Penalty_Neutral>
0.00115068

> <r_epik_State_Penalty>
0.000668876

> <r_epik_Charging_Adjusted_Penalty>
0.000668876

> <i_epik_Tot_Q>
0

> <i_epik_Tot_abs_Q>
0

> <r_epik_Metal_State_Penalty>
-0

> <b_epik_Metal_Only>
0

> <s_lp_Force_Field>
OPLS_2005

> <r_lp_Energy>
50.4325

> <b_lp_Chiralities_Consistent>
1

> <s_lp_Variant>
AV-unprocessed.smi:260-8

> <Gold.Version>
5.8.1

> <Gold.Id.Protein>
6NUR|6NUR_protein|mol2

> <Gold.PLP.Fitness>
43.2487

> <Gold.PLP.PLP>
-35.7937

> <Gold.PLP.part.hbond>
-3.0000

> <Gold.PLP.part.metal>
0.0000

> <Gold.PLP.part.buried>
-6.7802

> <Gold.PLP.part.nonpolar>
-26.0717

> <Gold.PLP.part.repulsive>
0.3089

> <Gold.PLP.ligand.clash>
0.0000

> <Gold.PLP.ligand.torsion>
1.6401

> <Gold.PLP.Chemscore.Hbond>
2.5989

> <Gold.PLP.Chemscore.CHOScore>
0.8755

> <Gold.PLP.Chemscore.Metal>
0.0000

> <Gold.Chemscore.Hbonds>
donor molecule, donor type, donor heavy atom, donor atom, acceptor molecule, acceptor atom, score
      P1  H  6896  6909       L1    16  0.91
      P1  H  7997  8008       L1    21  1.00
      P1  H 10752 10765       L1    11  0.57
      L1  C    12    39       P1  7949  0.99

> <Gold.PLP.Chemscore.Internal.Correction>
0.3121

> <Gold.Rescore>
     Score         DG    S(hbond)    S(metal)    S(lipo)     H(rot)  DE(clash)    DE(int)     intcor
     13.33     -15.29       1.90        0.00      84.80       2.53       0.29       1.67       ----

> <Gold.Chemscore.Fitness>
13.3326

> <Gold.Chemscore.DG>
-15.2894

> <Gold.Chemscore.ZeroCoef>
-5.4800

> <Gold.Chemscore.Hbond>
1.9023

> <Gold.Chemscore.Metal>
0.0000

> <Gold.Chemscore.Lipo>
84.8031

> <Gold.Chemscore.Internal_Hbond>
0.0000

> <Gold.Chemscore.DEClash>
0.2860

> <Gold.Chemscore.DEInternal>
1.6708

> <Gold.Chemscore.Rot>
2.5259

> <Gold.Chemscore.Internal.Correction>
   9.000000E+99

> <Gold.Chemscore.Hbonds>
donor molecule, donor type, donor heavy atom, donor atom, acceptor molecule, acceptor atom, score
      P1  H  6896  6909       L1    16  0.83
      P1  H  7997  8008       L1    21  0.58
      P1  H 10752 10765       L1    11  0.01

> <Gold.Chemscore.Hbond.Weighted>
-6.3538

> <Gold.Chemscore.Metal.Weighted>
-0.0000

> <Gold.Chemscore.Lipo.Weighted>
-9.9220

> <Gold.Chemscore.Internal_Hbond.Weighted>
0.0000

> <Gold.Chemscore.DEClash.Weighted>
0.2860

> <Gold.Chemscore.DEInternal.Weighted>
1.6708

> <Gold.Chemscore.Rot.Weighted>
6.4663

> <Gold.Chemscore.Internal.Correction.Weighted>
   9.000000E+99

> <Gold.Protein.RotatedTorsions>
[ 6907 6896 6895 6894 ] final   82.65 input  -60.11 | X-H torsion
[ 7974 7965 7964 7962 ] final   36.85 input  175.53 | X-H torsion
[ 8008 7997 7996 7995 ] final  -96.57 input   59.86 | X-H torsion
[ 10167 10162 10161 10158 ] final   47.93 input  -65.29 | X-H torsion
[ 10718 10713 10712 10709 ] final -138.10 input   66.30 | X-H torsion
[ 10763 10752 10751 10750 ] final  173.89 input  -60.55 | X-H torsion
[ 11005 11000 10999 10996 ] final   61.52 input  -57.11 | X-H torsion

> <Gold.Protein.ActiveResidues>
 VAL166  LYS551  ARG553  GLY616  TRP617  ASP618  TYR619  PRO620  LYS621  CYS622 
 ASP623  PHE694  ASN695  SER759  ASP760  ASP761  ALA762  ILE779  LEU786  VAL792 
 PHE793  MET794  SER795  GLU796  ALA797  LYS798  CYS799  TRP800  GLU811  SER814 

> <Gold.Protein.RotatedAtoms>
  152.5305  134.3017  159.9080 H   0  0  0  0  0  0  0  0  0  0  0  0  # atno 6907 bound_to 6896
  151.2968  133.4134  159.2644 H   0  0  0  0  0  0  0  0  0  0  0  0  # atno 6908 bound_to 6896
  151.0153  134.9444  159.8087 H   0  0  0  0  0  0  0  0  0  0  0  0  # atno 6909 bound_to 6896
  146.1181  139.5966  142.9308 H   0  0  0  0  0  0  0  0  0  0  0  0  # atno 7974 bound_to 7965
  154.7762  140.0470  157.1091 H   0  0  0  0  0  0  0  0  0  0  0  0  # atno 8008 bound_to 7997
  154.9760  140.3095  155.4947 H   0  0  0  0  0  0  0  0  0  0  0  0  # atno 8009 bound_to 7997
  156.2929  140.2244  156.4856 H   0  0  0  0  0  0  0  0  0  0  0  0  # atno 8010 bound_to 7997
  140.2986  144.2961  150.6224 H   0  0  0  0  0  0  0  0  0  0  0  0  # atno 10167 bound_to 10162
  156.2955  130.7399  151.1437 H   0  0  0  0  0  0  0  0  0  0  0  0  # atno 10718 bound_to 10713
  154.4463  135.2763  155.1812 H   0  0  0  0  0  0  0  0  0  0  0  0  # atno 10763 bound_to 10752
  154.3657  135.6119  153.5717 H   0  0  0  0  0  0  0  0  0  0  0  0  # atno 10764 bound_to 10752
  152.9844  135.5845  154.4800 H   0  0  0  0  0  0  0  0  0  0  0  0  # atno 10765 bound_to 10752
  140.0155  134.6231  155.9716 H   0  0  0  0  0  0  0  0  0  0  0  0  # atno 11005 bound_to 11000
  145.5524  141.0412  143.2271 LP  0  0  0  0  0  0  0  0  0  0  0  0  # atno 17320 bound_to 7965
  144.7571  139.7047  143.7249 LP  0  0  0  0  0  0  0  0  0  0  0  0  # atno 17321 bound_to 7965
  140.5671  143.2185  151.7665 LP  0  0  0  0  0  0  0  0  0  0  0  0  # atno 17342 bound_to 10162
  139.4920  144.4269  151.9916 LP  0  0  0  0  0  0  0  0  0  0  0  0  # atno 17343 bound_to 10162
  157.7354  131.0572  150.5471 LP  0  0  0  0  0  0  0  0  0  0  0  0  # atno 17370 bound_to 10713
  156.5593  130.4251  149.6070 LP  0  0  0  0  0  0  0  0  0  0  0  0  # atno 17371 bound_to 10713
  141.1740  133.6539  156.4758 LP  0  0  0  0  0  0  0  0  0  0  0  0  # atno 17394 bound_to 11000
  140.4478  134.6957  157.5024 LP  0  0  0  0  0  0  0  0  0  0  0  0  # atno 17395 bound_to 11000

$$$$
