AV-unprocessed.smi:2971|AV-procd|sdf|11332|dock2
  -GOLD-   2272016243D 1   1.00000     0.00000
 Structure written by MMmdl.
 36 38  0  0  0  0  0  0  0  0  1 V2000
  150.4114  140.1119  154.3225 O   0  0  0  0  0  0  0  0  0  0  0  0
  150.1179  141.0952  155.2962 C   0  0  2  0  0  0  0  0  0  0  0  0
  151.1128  140.9425  156.4576 C   0  0  0  0  0  0  0  0  0  0  0  0
  151.2236  142.1870  157.1357 O   0  0  0  0  0  0  0  0  0  0  0  0
  151.7944  142.2005  158.3912 C   0  0  0  0  0  0  0  0  0  0  0  0
  152.2887  141.0468  159.0523 C   0  0  0  0  0  0  0  0  0  0  0  0
  152.8581  141.1490  160.3365 C   0  0  0  0  0  0  0  0  0  0  0  0
  152.9405  142.3993  160.9762 C   0  0  0  0  0  0  0  0  0  0  0  0
  152.4519  143.5492  160.3291 C   0  0  0  0  0  0  0  0  0  0  0  0
  151.8836  143.4487  159.0442 C   0  0  0  0  0  0  0  0  0  0  0  0
  151.4188  144.5639  158.4318 F   0  0  0  0  0  0  0  0  0  0  0  0
  148.6599  140.9176  155.7631 C   0  0  0  0  0  0  0  0  0  0  0  0
  147.7057  141.5473  154.8671 N   0  0  0  0  0  0  0  0  0  0  0  0
  147.6249  141.3898  153.5321 C   0  0  0  0  0  0  0  0  0  0  0  0
  146.6744  142.0667  152.8942 N   0  0  0  0  0  0  0  0  0  0  0  0
  146.0655  142.7427  153.9378 C   0  0  0  0  0  0  0  0  0  0  0  0
  144.9758  143.6428  153.9354 C   0  0  0  0  0  0  0  0  0  0  0  0
  144.5214  144.2179  155.1405 C   0  0  0  0  0  0  0  0  0  0  0  0
  145.1467  143.9018  156.3642 C   0  0  0  0  0  0  0  0  0  0  0  0
  146.2344  143.0079  156.3917 C   0  0  0  0  0  0  0  0  0  0  0  0
  146.6865  142.4382  155.1869 C   0  0  0  0  0  0  0  0  0  0  0  0
  149.6279  139.6084  154.1613 H   0  0  0  0  0  0  0  0  0  0  0  0
  150.2284  142.0832  154.8469 H   0  0  0  0  0  0  0  0  0  0  0  0
  150.7320  140.2013  157.1623 H   0  0  0  0  0  0  0  0  0  0  0  0
  152.0808  140.5913  156.0947 H   0  0  0  0  0  0  0  0  0  0  0  0
  152.2430  140.0699  158.5961 H   0  0  0  0  0  0  0  0  0  0  0  0
  153.2324  140.2648  160.8314 H   0  0  0  0  0  0  0  0  0  0  0  0
  153.3772  142.4764  161.9611 H   0  0  0  0  0  0  0  0  0  0  0  0
  152.5131  144.5102  160.8181 H   0  0  0  0  0  0  0  0  0  0  0  0
  148.4121  139.8589  155.8531 H   0  0  0  0  0  0  0  0  0  0  0  0
  148.5270  141.3518  156.7548 H   0  0  0  0  0  0  0  0  0  0  0  0
  148.3042  140.7414  152.9981 H   0  0  0  0  0  0  0  0  0  0  0  0
  144.4883  143.8909  153.0042 H   0  0  0  0  0  0  0  0  0  0  0  0
  143.6880  144.9048  155.1261 H   0  0  0  0  0  0  0  0  0  0  0  0
  144.7900  144.3454  157.2823 H   0  0  0  0  0  0  0  0  0  0  0  0
  146.7139  142.7603  157.3270 H   0  0  0  0  0  0  0  0  0  0  0  0
  1  2  1  0  0  0  0
  1 22  1  0  0  0  0
  2  3  1  0  0  0  0
  2 12  1  0  0  0  0
  2 23  1  0  0  0  0
  3  4  1  0  0  0  0
  3 24  1  0  0  0  0
  3 25  1  0  0  0  0
  4  5  1  0  0  0  0
  5 10  1  0  0  0  0
  5  6  2  0  0  0  0
  6  7  1  0  0  0  0
  6 26  1  0  0  0  0
  7  8  2  0  0  0  0
  7 27  1  0  0  0  0
  8  9  1  0  0  0  0
  8 28  1  0  0  0  0
  9 10  2  0  0  0  0
  9 29  1  0  0  0  0
 10 11  1  0  0  0  0
 12 13  1  0  0  0  0
 12 30  1  0  0  0  0
 12 31  1  0  0  0  0
 13 21  1  0  0  0  0
 13 14  1  0  0  0  0
 14 15  2  0  0  0  0
 14 32  1  0  0  0  0
 15 16  1  0  0  0  0
 16 21  2  0  0  0  0
 16 17  1  0  0  0  0
 17 18  2  0  0  0  0
 17 33  1  0  0  0  0
 18 19  1  0  0  0  0
 18 34  1  0  0  0  0
 19 20  2  0  0  0  0
 19 35  1  0  0  0  0
 20 21  1  0  0  0  0
 20 36  1  0  0  0  0
M  END
> <s_m_source_file>
AV-unprocessed.smi

> <i_m_source_file_index>
2971

> <i_lp_mmshare_version>
43012

> <i_f3d_flags>
0

> <s_epik_input>
W2NIXTFbY0hdW2NIXVtjSF1jKGMxMiluKFtjSF1uMilbQ0gyXVtDQEhdKFtPSF0pW0NIMl1PYzNbY0hdW2NIXVtjSF1bY0hdYzNG

> <s_epik_cmdline>
J2VwaWtfcHl0aG9uJywgJy1waCcsICc3LjAnLCAnLXRuJywgJzgnLCAnLW1hJywgJzIwMCcsICctbWV0YWxfYmluZGluZycsICctaW1hZScsICc8aW5maWxlLm1hZT4nLCAnLW9tYWUnLCAnPG91dGZpbGUubWFlPic=

> <r_lp_tautomer_probability>
1

> <r_epik_Ionization_Penalty>
0.0600913

> <r_epik_Ionization_Penalty_Charging>
0

> <r_epik_Ionization_Penalty_Neutral>
0.0600913

> <r_epik_State_Penalty>
0.0520726

> <r_epik_Charging_Adjusted_Penalty>
0.0520726

> <i_epik_Tot_Q>
0

> <i_epik_Tot_abs_Q>
0

> <r_epik_Metal_State_Penalty>
5.44269e-05

> <b_epik_Metal_Only>
0

> <s_lp_Force_Field>
OPLS_2005

> <r_lp_Energy>
16.3694

> <b_lp_Chiralities_Consistent>
1

> <s_lp_Variant>
AV-unprocessed.smi:2971-1

> <Gold.Version>
5.8.1

> <Gold.Id.Protein>
6NUR|6NUR_protein|mol2

> <Gold.PLP.Fitness>
49.3318

> <Gold.PLP.PLP>
-44.5113

> <Gold.PLP.part.hbond>
-1.3563

> <Gold.PLP.part.metal>
0.0000

> <Gold.PLP.part.buried>
-2.0325

> <Gold.PLP.part.nonpolar>
-40.2147

> <Gold.PLP.part.repulsive>
0.2845

> <Gold.PLP.ligand.clash>
0.0000

> <Gold.PLP.ligand.torsion>
0.6290

> <Gold.PLP.Chemscore.Hbond>
1.0000

> <Gold.PLP.Chemscore.CHOScore>
0.9723

> <Gold.PLP.Chemscore.Metal>
0.0000

> <Gold.Chemscore.Hbonds>
donor molecule, donor type, donor heavy atom, donor atom, acceptor molecule, acceptor atom, score
      P1  H  7989  7998       L1     1  1.00
      L1  C    14    32       P1  7957  1.00

> <Gold.PLP.Chemscore.Internal.Correction>
0.1618

> <Gold.Rescore>
     Score         DG    S(hbond)    S(metal)    S(lipo)     H(rot)  DE(clash)    DE(int)     intcor
     13.87     -14.81       0.92        0.00     105.38       2.37       0.09       0.85       ----

> <Gold.Chemscore.Fitness>
13.8693

> <Gold.Chemscore.DG>
-14.8069

> <Gold.Chemscore.ZeroCoef>
-5.4800

> <Gold.Chemscore.Hbond>
0.9202

> <Gold.Chemscore.Metal>
0.0000

> <Gold.Chemscore.Lipo>
105.3823

> <Gold.Chemscore.Internal_Hbond>
0.0000

> <Gold.Chemscore.DEClash>
0.0910

> <Gold.Chemscore.DEInternal>
0.8466

> <Gold.Chemscore.Rot>
2.3735

> <Gold.Chemscore.Internal.Correction>
   9.000000E+99

> <Gold.Chemscore.Hbonds>
donor molecule, donor type, donor heavy atom, donor atom, acceptor molecule, acceptor atom, score
      P1  H  7989  7998       L1     1  0.25

> <Gold.Chemscore.Hbond.Weighted>
-3.0733

> <Gold.Chemscore.Metal.Weighted>
-0.0000

> <Gold.Chemscore.Lipo.Weighted>
-12.3297

> <Gold.Chemscore.Internal_Hbond.Weighted>
0.0000

> <Gold.Chemscore.DEClash.Weighted>
0.0910

> <Gold.Chemscore.DEInternal.Weighted>
0.8466

> <Gold.Chemscore.Rot.Weighted>
6.0762

> <Gold.Chemscore.Internal.Correction.Weighted>
   9.000000E+99

> <Gold.Protein.RotatedTorsions>
[ 6907 6896 6895 6894 ] final   47.05 input  -60.11 | X-H torsion
[ 7974 7965 7964 7962 ] final   53.12 input  175.53 | X-H torsion
[ 8008 7997 7996 7995 ] final -169.39 input   59.86 | X-H torsion
[ 10167 10162 10161 10158 ] final -105.24 input  -65.29 | X-H torsion
[ 10718 10713 10712 10709 ] final  134.33 input   66.30 | X-H torsion
[ 10763 10752 10751 10750 ] final -142.70 input  -60.55 | X-H torsion
[ 11005 11000 10999 10996 ] final   78.40 input  -57.11 | X-H torsion

> <Gold.Protein.ActiveResidues>
 VAL166  LYS551  ARG553  GLY616  TRP617  ASP618  TYR619  PRO620  LYS621  CYS622 
 ASP623  PHE694  ASN695  SER759  ASP760  ASP761  ALA762  ILE779  LEU786  VAL792 
 PHE793  MET794  SER795  GLU796  ALA797  LYS798  CYS799  TRP800  GLU811  SER814 

> <Gold.Protein.RotatedAtoms>
  152.2635  134.8008  160.0426 H   0  0  0  0  0  0  0  0  0  0  0  0  # atno 6907 bound_to 6896
  151.8646  133.3458  159.3723 H   0  0  0  0  0  0  0  0  0  0  0  0  # atno 6908 bound_to 6896
  150.7125  134.5100  159.5647 H   0  0  0  0  0  0  0  0  0  0  0  0  # atno 6909 bound_to 6896
  145.9744  139.4180  143.0170 H   0  0  0  0  0  0  0  0  0  0  0  0  # atno 7974 bound_to 7965
  155.9043  140.1046  157.1327 H   0  0  0  0  0  0  0  0  0  0  0  0  # atno 8008 bound_to 7997
  154.4030  140.1286  156.4540 H   0  0  0  0  0  0  0  0  0  0  0  0  # atno 8009 bound_to 7997
  155.7386  140.3467  155.5096 H   0  0  0  0  0  0  0  0  0  0  0  0  # atno 8010 bound_to 7997
  140.2007  143.3821  152.1132 H   0  0  0  0  0  0  0  0  0  0  0  0  # atno 10167 bound_to 10162
  157.4683  131.1078  150.9834 H   0  0  0  0  0  0  0  0  0  0  0  0  # atno 10718 bound_to 10713
  154.8499  135.3488  154.6070 H   0  0  0  0  0  0  0  0  0  0  0  0  # atno 10763 bound_to 10752
  153.6678  135.6986  153.5161 H   0  0  0  0  0  0  0  0  0  0  0  0  # atno 10764 bound_to 10752
  153.2766  135.4276  155.0996 H   0  0  0  0  0  0  0  0  0  0  0  0  # atno 10765 bound_to 10752
  139.9214  134.7760  156.1645 H   0  0  0  0  0  0  0  0  0  0  0  0  # atno 11005 bound_to 11000
  145.7860  140.9835  143.1074 LP  0  0  0  0  0  0  0  0  0  0  0  0  # atno 17320 bound_to 7965
  144.6845  139.9624  143.7480 LP  0  0  0  0  0  0  0  0  0  0  0  0  # atno 17321 bound_to 7965
  139.5218  144.7051  151.5378 LP  0  0  0  0  0  0  0  0  0  0  0  0  # atno 17342 bound_to 10162
  140.6392  143.8922  150.6676 LP  0  0  0  0  0  0  0  0  0  0  0  0  # atno 17343 bound_to 10162
  157.0608  130.5824  149.5385 LP  0  0  0  0  0  0  0  0  0  0  0  0  # atno 17370 bound_to 10713
  156.0061  130.5148  150.7834 LP  0  0  0  0  0  0  0  0  0  0  0  0  # atno 17371 bound_to 10713
  141.0738  133.6785  156.2194 LP  0  0  0  0  0  0  0  0  0  0  0  0  # atno 17394 bound_to 11000
  140.6463  134.5114  157.5574 LP  0  0  0  0  0  0  0  0  0  0  0  0  # atno 17395 bound_to 11000

$$$$
