AV-unprocessed.smi:2881|AV-procd|sdf|11062|dock7
  -GOLD-   2272015533D 1   1.00000     0.00000
 Structure written by MMmdl.
 40 42  0  0  0  0  0  0  0  0  1 V2000
  154.2610  141.1690  161.8406 C   0  0  0  0  0  0  0  0  0  0  0  0
  153.5411  141.2762  160.5395 C   0  0  0  0  0  0  0  0  0  0  0  0
  152.7111  142.2405  160.0416 C   0  0  0  0  0  0  0  0  0  0  0  0
  152.3520  141.7638  158.7460 C   0  0  0  0  0  0  0  0  0  0  0  0
  151.4581  142.4254  157.7321 C   0  0  0  0  0  0  0  0  0  0  0  0
  150.2278  141.5558  157.4728 C   0  0  0  0  0  0  0  0  0  0  0  0
  150.0721  140.5064  158.0970 O   0  0  0  0  0  0  0  0  0  0  0  0
  149.3618  142.0046  156.5513 N   0  0  0  0  0  0  0  0  0  0  0  0
  148.1199  141.3380  156.1696 C   0  0  1  0  0  0  0  0  0  0  0  0
  147.0490  141.5181  157.2680 C   0  0  2  0  0  0  0  0  0  0  0  0
  145.9269  140.4898  157.0378 C   0  0  0  0  0  0  0  0  0  0  0  0
  145.2123  141.0504  155.7940 C   0  0  0  0  0  0  0  0  0  0  0  0
  146.0298  142.3187  155.4661 C   0  0  1  0  0  0  0  0  0  0  0  0
  146.3610  142.8199  156.8661 C   0  0  0  0  0  0  0  0  0  0  0  0
  147.4437  141.9800  154.9307 C   0  0  2  0  0  0  0  0  0  0  0  0
  147.4990  141.1069  153.6616 C   0  0  0  0  0  0  0  0  0  0  0  0
  148.8384  140.8634  153.2875 O   0  0  0  0  0  0  0  0  0  0  0  0
  152.9091  140.5930  158.4673 N   0  0  0  0  0  0  0  0  0  0  0  0
  153.6321  140.3082  159.5662 N   0  0  0  0  0  0  0  0  0  0  0  0
  154.1764  139.4602  159.6375 H   0  0  0  0  0  0  0  0  0  0  0  0
  154.2114  142.1085  162.3917 H   0  0  0  0  0  0  0  0  0  0  0  0
  155.3124  140.9265  161.6849 H   0  0  0  0  0  0  0  0  0  0  0  0
  153.8213  140.3895  162.4629 H   0  0  0  0  0  0  0  0  0  0  0  0
  152.4074  143.1563  160.5268 H   0  0  0  0  0  0  0  0  0  0  0  0
  151.1431  143.4140  158.0699 H   0  0  0  0  0  0  0  0  0  0  0  0
  151.9963  142.5761  156.7957 H   0  0  0  0  0  0  0  0  0  0  0  0
  149.5701  142.8796  156.0921 H   0  0  0  0  0  0  0  0  0  0  0  0
  148.3219  140.2760  156.0164 H   0  0  0  0  0  0  0  0  0  0  0  0
  147.4456  141.4991  158.2840 H   0  0  0  0  0  0  0  0  0  0  0  0
  146.3102  139.4811  156.8804 H   0  0  0  0  0  0  0  0  0  0  0  0
  145.2455  140.4591  157.8888 H   0  0  0  0  0  0  0  0  0  0  0  0
  145.1693  140.3370  154.9724 H   0  0  0  0  0  0  0  0  0  0  0  0
  144.1837  141.3165  156.0409 H   0  0  0  0  0  0  0  0  0  0  0  0
  145.4908  143.0355  154.8460 H   0  0  0  0  0  0  0  0  0  0  0  0
  145.4783  143.0466  157.4669 H   0  0  0  0  0  0  0  0  0  0  0  0
  147.0273  143.6845  156.8728 H   0  0  0  0  0  0  0  0  0  0  0  0
  147.9402  142.9250  154.7002 H   0  0  0  0  0  0  0  0  0  0  0  0
  147.0200  140.1466  153.8514 H   0  0  0  0  0  0  0  0  0  0  0  0
  146.9626  141.5603  152.8289 H   0  0  0  0  0  0  0  0  0  0  0  0
  148.8505  140.1589  152.6577 H   0  0  0  0  0  0  0  0  0  0  0  0
  1  2  1  0  0  0  0
  1 21  1  0  0  0  0
  1 22  1  0  0  0  0
  1 23  1  0  0  0  0
  2 19  1  0  0  0  0
  2  3  2  0  0  0  0
  3  4  1  0  0  0  0
  3 24  1  0  0  0  0
  4  5  1  0  0  0  0
  4 18  2  0  0  0  0
  5  6  1  0  0  0  0
  5 25  1  0  0  0  0
  5 26  1  0  0  0  0
  6  7  2  0  0  0  0
  6  8  1  0  0  0  0
  8  9  1  0  0  0  0
  8 27  1  0  0  0  0
  9 15  1  0  0  0  0
  9 10  1  0  0  0  0
  9 28  1  0  0  0  0
 10 14  1  0  0  0  0
 10 11  1  0  0  0  0
 10 29  1  0  0  0  0
 11 12  1  0  0  0  0
 11 30  1  0  0  0  0
 11 31  1  0  0  0  0
 12 13  1  0  0  0  0
 12 32  1  0  0  0  0
 12 33  1  0  0  0  0
 13 14  1  0  0  0  0
 13 15  1  0  0  0  0
 13 34  1  0  0  0  0
 14 35  1  0  0  0  0
 14 36  1  0  0  0  0
 15 16  1  0  0  0  0
 15 37  1  0  0  0  0
 16 17  1  0  0  0  0
 16 38  1  0  0  0  0
 16 39  1  0  0  0  0
 17 40  1  0  0  0  0
 18 19  1  0  0  0  0
 19 20  1  0  0  0  0
M  END
> <s_m_source_file>
AV-unprocessed.smi

> <i_m_source_file_index>
2881

> <i_lp_mmshare_version>
43012

> <i_f3d_flags>
0

> <s_epik_input>
W0NIM11jMVtjSF1jKG5bbkhdMSlbQ0gyXUMoPU8pW05IXVtDQEhdKFtDQEBIXTIzKVtDQEhdKFtDSDJdW09IXSlbQ0BASF0oW0NIMl0zKVtDSDJdW0NIMl0y

> <s_epik_cmdline>
J2VwaWtfcHl0aG9uJywgJy1waCcsICc3LjAnLCAnLXRuJywgJzgnLCAnLW1hJywgJzIwMCcsICctbWV0YWxfYmluZGluZycsICctaW1hZScsICc8aW5maWxlLm1hZT4nLCAnLW9tYWUnLCAnPG91dGZpbGUubWFlPic=

> <r_lp_tautomer_probability>
0.5

> <r_epik_Ionization_Penalty>
9.4349e-05

> <r_epik_Ionization_Penalty_Charging>
0

> <r_epik_Ionization_Penalty_Neutral>
9.4349e-05

> <r_epik_State_Penalty>
0.41068

> <r_epik_Charging_Adjusted_Penalty>
0.41068

> <i_epik_Tot_Q>
0

> <i_epik_Tot_abs_Q>
0

> <r_epik_Metal_State_Penalty>
0.4107

> <b_epik_Metal_Only>
0

> <s_lp_Force_Field>
OPLS_2005

> <r_lp_Energy>
47.6032

> <b_lp_Chiralities_Consistent>
1

> <s_lp_Variant>
AV-unprocessed.smi:2881-8

> <Gold.Version>
5.8.1

> <Gold.Id.Protein>
6NUR|6NUR_protein|mol2

> <Gold.PLP.Fitness>
40.1010

> <Gold.PLP.PLP>
-31.0675

> <Gold.PLP.part.hbond>
-3.7359

> <Gold.PLP.part.metal>
0.0000

> <Gold.PLP.part.buried>
-3.0920

> <Gold.PLP.part.nonpolar>
-23.6003

> <Gold.PLP.part.repulsive>
0.1217

> <Gold.PLP.ligand.clash>
0.0000

> <Gold.PLP.ligand.torsion>
0.1436

> <Gold.PLP.Chemscore.Hbond>
3.0949

> <Gold.PLP.Chemscore.CHOScore>
0.0000

> <Gold.PLP.Chemscore.Metal>
0.0000

> <Gold.Chemscore.Hbonds>
donor molecule, donor type, donor heavy atom, donor atom, acceptor molecule, acceptor atom, score
      L1  H     8    27       P1  8028  0.90
      L1  H    17    40       P1  7957  0.61
      P1  H  7997  8009       L1    18  0.24
      P1  H  8011  8017       L1    17  0.94

> <Gold.PLP.Chemscore.Internal.Correction>
0.0360

> <Gold.Rescore>
     Score         DG    S(hbond)    S(metal)    S(lipo)     H(rot)  DE(clash)    DE(int)     intcor
     14.38     -15.96       2.16        0.00      77.75       2.28       0.06       1.52       ----

> <Gold.Chemscore.Fitness>
14.3776

> <Gold.Chemscore.DG>
-15.9635

> <Gold.Chemscore.ZeroCoef>
-5.4800

> <Gold.Chemscore.Hbond>
2.1592

> <Gold.Chemscore.Metal>
0.0000

> <Gold.Chemscore.Lipo>
77.7528

> <Gold.Chemscore.Internal_Hbond>
0.0000

> <Gold.Chemscore.DEClash>
0.0614

> <Gold.Chemscore.DEInternal>
1.5245

> <Gold.Chemscore.Rot>
2.2755

> <Gold.Chemscore.Internal.Correction>
   9.000000E+99

> <Gold.Chemscore.Hbonds>
donor molecule, donor type, donor heavy atom, donor atom, acceptor molecule, acceptor atom, score
      L1  H     8    27       P1  8028  0.84
      L1  H    17    40       P1  7957  0.62
      P1  H  7997  8009       L1    18  0.06
      P1  H  8011  8017       L1    17  0.37

> <Gold.Chemscore.Hbond.Weighted>
-7.2116

> <Gold.Chemscore.Metal.Weighted>
-0.0000

> <Gold.Chemscore.Lipo.Weighted>
-9.0971

> <Gold.Chemscore.Internal_Hbond.Weighted>
0.0000

> <Gold.Chemscore.DEClash.Weighted>
0.0614

> <Gold.Chemscore.DEInternal.Weighted>
1.5245

> <Gold.Chemscore.Rot.Weighted>
5.8252

> <Gold.Chemscore.Internal.Correction.Weighted>
   9.000000E+99

> <Gold.Protein.RotatedTorsions>
[ 6907 6896 6895 6894 ] final    9.39 input  -60.11 | X-H torsion
[ 7974 7965 7964 7962 ] final -151.61 input  175.53 | X-H torsion
[ 8008 7997 7996 7995 ] final  167.18 input   59.86 | X-H torsion
[ 10167 10162 10161 10158 ] final -135.13 input  -65.29 | X-H torsion
[ 10718 10713 10712 10709 ] final -125.69 input   66.30 | X-H torsion
[ 10763 10752 10751 10750 ] final    9.32 input  -60.55 | X-H torsion
[ 11005 11000 10999 10996 ] final  158.27 input  -57.11 | X-H torsion

> <Gold.Protein.ActiveResidues>
 VAL166  LYS551  ARG553  GLY616  TRP617  ASP618  TYR619  PRO620  LYS621  CYS622 
 ASP623  PHE694  ASN695  SER759  ASP760  ASP761  ALA762  ILE779  LEU786  VAL792 
 PHE793  MET794  SER795  GLU796  ALA797  LYS798  CYS799  TRP800  GLU811  SER814 

> <Gold.Protein.RotatedAtoms>
  151.7213  135.0893  160.0284 H   0  0  0  0  0  0  0  0  0  0  0  0  # atno 6907 bound_to 6896
  152.3600  133.6280  159.6016 H   0  0  0  0  0  0  0  0  0  0  0  0  # atno 6908 bound_to 6896
  150.7597  133.9355  159.3481 H   0  0  0  0  0  0  0  0  0  0  0  0  # atno 6909 bound_to 6896
  144.7840  140.4774  143.5819 H   0  0  0  0  0  0  0  0  0  0  0  0  # atno 7974 bound_to 7965
  156.1656  140.1624  156.8537 H   0  0  0  0  0  0  0  0  0  0  0  0  # atno 8008 bound_to 7997
  154.5204  140.0779  156.8196 H   0  0  0  0  0  0  0  0  0  0  0  0  # atno 8009 bound_to 7997
  155.3619  140.3395  155.4243 H   0  0  0  0  0  0  0  0  0  0  0  0  # atno 8010 bound_to 7997
  139.8810  143.6839  152.2627 H   0  0  0  0  0  0  0  0  0  0  0  0  # atno 10167 bound_to 10162
  156.1698  130.6660  151.0164 H   0  0  0  0  0  0  0  0  0  0  0  0  # atno 10718 bound_to 10713
  153.2153  135.6874  153.8064 H   0  0  0  0  0  0  0  0  0  0  0  0  # atno 10763 bound_to 10752
  153.7282  135.3256  155.3281 H   0  0  0  0  0  0  0  0  0  0  0  0  # atno 10764 bound_to 10752
  154.8243  135.4629  154.0978 H   0  0  0  0  0  0  0  0  0  0  0  0  # atno 10765 bound_to 10752
  140.1849  134.8449  157.2845 H   0  0  0  0  0  0  0  0  0  0  0  0  # atno 11005 bound_to 11000
  145.5972  139.1500  143.3149 LP  0  0  0  0  0  0  0  0  0  0  0  0  # atno 17320 bound_to 7965
  146.2062  140.6095  142.9080 LP  0  0  0  0  0  0  0  0  0  0  0  0  # atno 17321 bound_to 7965
  139.7196  144.7605  151.0977 LP  0  0  0  0  0  0  0  0  0  0  0  0  # atno 17342 bound_to 10162
  140.7744  143.5225  150.9519 LP  0  0  0  0  0  0  0  0  0  0  0  0  # atno 17343 bound_to 10162
  157.6794  131.0842  150.7408 LP  0  0  0  0  0  0  0  0  0  0  0  0  # atno 17370 bound_to 10713
  156.7468  130.4756  149.5465 LP  0  0  0  0  0  0  0  0  0  0  0  0  # atno 17371 bound_to 10713
  140.2225  134.4006  155.7559 LP  0  0  0  0  0  0  0  0  0  0  0  0  # atno 17394 bound_to 11000
  141.2224  133.7173  156.8513 LP  0  0  0  0  0  0  0  0  0  0  0  0  # atno 17395 bound_to 11000

$$$$
