AV-unprocessed.smi:3274|AV-procd|sdf|12523|dock2
  -GOLD-   2272018433D 1   1.00000     0.00000
 Structure written by MMmdl.
 43 44  0  0  0  0  0  0  0  0  2 V2000
  151.3675  144.6470  159.3629 C   0  0  0  0  0  0  0  0  0  0  0  0
  152.0713  143.6105  160.2234 C   0  0  0  0  0  0  0  0  0  0  0  0
  152.1917  143.8149  161.5492 C   0  0  0  0  0  0  0  0  0  0  0  0
  152.9365  142.8955  162.4887 C   0  0  0  0  0  0  0  0  0  0  0  0
  153.9391  142.0278  161.7250 C   0  0  0  0  0  0  0  0  0  0  0  0
  153.2805  141.3411  160.5174 C   0  0  2  0  0  0  0  0  0  0  0  0
  154.3034  140.4099  159.8378 C   0  0  0  0  0  0  0  0  0  0  0  0
  152.6497  142.3637  159.5216 C   0  0  1  0  0  0  0  0  0  0  0  0
  151.6131  141.6485  158.6144 C   0  0  0  0  0  0  0  0  0  0  0  0
  152.2391  140.9328  157.4808 N   0  3  0  0  0  0  0  0  0  0  0  0
  151.3060  140.4321  156.4471 C   0  0  2  0  0  0  0  0  0  0  0  0
  152.0685  139.7414  155.2992 C   0  0  0  0  0  0  0  0  0  0  0  0
  150.4245  141.5992  155.9578 C   0  0  0  0  0  0  0  0  0  0  0  0
  149.2896  141.1601  155.1661 N   0  0  0  0  0  0  0  0  0  0  0  0
  148.2472  141.8430  154.6894 C   0  0  0  0  0  0  0  0  0  0  0  0
  147.3945  141.1024  153.9958 N   0  0  0  0  0  0  0  0  0  0  0  0
  148.0190  139.8902  154.0848 C   0  0  0  0  0  0  0  0  0  0  0  0
  149.1593  139.8705  154.7754 N   0  0  0  0  0  0  0  0  0  0  0  0
  151.9870  144.9188  158.5080 H   0  0  0  0  0  0  0  0  0  0  0  0
  151.1678  145.5591  159.9264 H   0  0  0  0  0  0  0  0  0  0  0  0
  150.4090  144.2721  159.0046 H   0  0  0  0  0  0  0  0  0  0  0  0
  151.7529  144.6922  162.0023 H   0  0  0  0  0  0  0  0  0  0  0  0
  153.4602  143.4941  163.2344 H   0  0  0  0  0  0  0  0  0  0  0  0
  152.2132  142.2782  163.0223 H   0  0  0  0  0  0  0  0  0  0  0  0
  154.7710  142.6465  161.3844 H   0  0  0  0  0  0  0  0  0  0  0  0
  154.3641  141.2861  162.4022 H   0  0  0  0  0  0  0  0  0  0  0  0
  152.4776  140.7163  160.9124 H   0  0  0  0  0  0  0  0  0  0  0  0
  155.1302  140.9773  159.4094 H   0  0  0  0  0  0  0  0  0  0  0  0
  153.8617  139.8159  159.0394 H   0  0  0  0  0  0  0  0  0  0  0  0
  154.7270  139.7069  160.5558 H   0  0  0  0  0  0  0  0  0  0  0  0
  153.4576  142.7368  158.8900 H   0  0  0  0  0  0  0  0  0  0  0  0
  151.0397  140.9209  159.1844 H   0  0  0  0  0  0  0  0  0  0  0  0
  150.8942  142.3781  158.2390 H   0  0  0  0  0  0  0  0  0  0  0  0
  152.8640  141.5872  157.0319 H   0  0  0  0  0  0  0  0  0  0  0  0
  150.6476  139.6986  156.9152 H   0  0  0  0  0  0  0  0  0  0  0  0
  151.3858  139.3412  154.5496 H   0  0  0  0  0  0  0  0  0  0  0  0
  152.6647  138.9018  155.6556 H   0  0  0  0  0  0  0  0  0  0  0  0
  152.7402  140.4375  154.7960 H   0  0  0  0  0  0  0  0  0  0  0  0
  150.0404  142.1625  156.8095 H   0  0  0  0  0  0  0  0  0  0  0  0
  151.0176  142.2985  155.3654 H   0  0  0  0  0  0  0  0  0  0  0  0
  148.1068  142.9011  154.8559 H   0  0  0  0  0  0  0  0  0  0  0  0
  147.6215  138.9961  153.6273 H   0  0  0  0  0  0  0  0  0  0  0  0
  152.7872  140.1608  157.8330 H   0  0  0  0  0  0  0  0  0  0  0  0
  1  2  1  0  0  0  0
  1 19  1  0  0  0  0
  1 20  1  0  0  0  0
  1 21  1  0  0  0  0
  2  8  1  0  0  0  0
  2  3  2  0  0  0  0
  3  4  1  0  0  0  0
  3 22  1  0  0  0  0
  4  5  1  0  0  0  0
  4 23  1  0  0  0  0
  4 24  1  0  0  0  0
  5  6  1  0  0  0  0
  5 25  1  0  0  0  0
  5 26  1  0  0  0  0
  6  7  1  0  0  0  0
  6  8  1  0  0  0  0
  6 27  1  0  0  0  0
  7 28  1  0  0  0  0
  7 29  1  0  0  0  0
  7 30  1  0  0  0  0
  8  9  1  0  0  0  0
  8 31  1  0  0  0  0
  9 10  1  0  0  0  0
  9 32  1  0  0  0  0
  9 33  1  0  0  0  0
 10 11  1  0  0  0  0
 10 34  1  0  0  0  0
 10 43  1  0  0  0  0
 11 12  1  0  0  0  0
 11 13  1  0  0  0  0
 11 35  1  0  0  0  0
 12 36  1  0  0  0  0
 12 37  1  0  0  0  0
 12 38  1  0  0  0  0
 13 14  1  0  0  0  0
 13 39  1  0  0  0  0
 13 40  1  0  0  0  0
 14 18  1  0  0  0  0
 14 15  1  0  0  0  0
 15 16  2  0  0  0  0
 15 41  1  0  0  0  0
 16 17  1  0  0  0  0
 17 18  2  0  0  0  0
 17 42  1  0  0  0  0
M  CHG  1  10   1
M  END
> <s_m_source_file>
AV-unprocessed.smi

> <i_m_source_file_index>
3274

> <i_lp_mmshare_version>
43012

> <i_f3d_flags>
0

> <s_epik_input>
W0NIM11DMT1bQ0hdW0NIMl1bQ0gyXVtDQEBIXShbQ0gzXSlbQ0BIXTFbQ0gyXVtOSF1bQ0BIXShbQ0gzXSlbQ0gyXW4yW2NIXW5bY0hdbjI=

> <s_epik_cmdline>
J2VwaWtfcHl0aG9uJywgJy1waCcsICc3LjAnLCAnLXRuJywgJzgnLCAnLW1hJywgJzIwMCcsICctbWV0YWxfYmluZGluZycsICctaW1hZScsICc8aW5maWxlLm1hZT4nLCAnLW9tYWUnLCAnPG91dGZpbGUubWFlPic=

> <r_lp_tautomer_probability>
1

> <r_epik_Ionization_Penalty>
0.0017527

> <r_epik_Ionization_Penalty_Charging>
0.00175191

> <r_epik_Ionization_Penalty_Neutral>
7.94565e-07

> <r_epik_State_Penalty>
0.00118605

> <r_epik_Charging_Adjusted_Penalty>
0.00293796

> <i_epik_Tot_Q>
1

> <i_epik_Tot_abs_Q>
1

> <r_epik_Metal_State_Penalty>
-0

> <b_epik_Metal_Only>
0

> <s_lp_Force_Field>
OPLS_2005

> <r_lp_Energy>
18.9317

> <b_lp_Chiralities_Consistent>
1

> <s_lp_Variant>
AV-unprocessed.smi:3274-2

> <Gold.Version>
5.8.1

> <Gold.Id.Protein>
6NUR|6NUR_protein|mol2

> <Gold.PLP.Fitness>
49.3429

> <Gold.PLP.PLP>
-47.0073

> <Gold.PLP.part.hbond>
0.0000

> <Gold.PLP.part.metal>
0.0000

> <Gold.PLP.part.buried>
-3.3978

> <Gold.PLP.part.nonpolar>
-42.8951

> <Gold.PLP.part.repulsive>
0.3517

> <Gold.PLP.ligand.clash>
0.0000

> <Gold.PLP.ligand.torsion>
0.4340

> <Gold.PLP.Chemscore.Hbond>
0.0000

> <Gold.PLP.Chemscore.CHOScore>
1.0000

> <Gold.PLP.Chemscore.Metal>
0.0000

> <Gold.Chemscore.Hbonds>
donor molecule, donor type, donor heavy atom, donor atom, acceptor molecule, acceptor atom, score
      L1  C    15    41       P1  8028  1.00

> <Gold.PLP.Chemscore.Internal.Correction>
0.2036

> <Gold.Rescore>
     Score         DG    S(hbond)    S(metal)    S(lipo)     H(rot)  DE(clash)    DE(int)     intcor
     12.58     -13.15       0.00        0.00     117.22       2.36       0.15       0.42       ----

> <Gold.Chemscore.Fitness>
12.5846

> <Gold.Chemscore.DG>
-13.1489

> <Gold.Chemscore.ZeroCoef>
-5.4800

> <Gold.Chemscore.Hbond>
0.0000

> <Gold.Chemscore.Metal>
0.0000

> <Gold.Chemscore.Lipo>
117.2167

> <Gold.Chemscore.Internal_Hbond>
0.0000

> <Gold.Chemscore.DEClash>
0.1477

> <Gold.Chemscore.DEInternal>
0.4166

> <Gold.Chemscore.Rot>
2.3615

> <Gold.Chemscore.Internal.Correction>
   9.000000E+99

> <Gold.Chemscore.Hbond.Weighted>
-0.0000

> <Gold.Chemscore.Metal.Weighted>
-0.0000

> <Gold.Chemscore.Lipo.Weighted>
-13.7143

> <Gold.Chemscore.Internal_Hbond.Weighted>
0.0000

> <Gold.Chemscore.DEClash.Weighted>
0.1477

> <Gold.Chemscore.DEInternal.Weighted>
0.4166

> <Gold.Chemscore.Rot.Weighted>
6.0454

> <Gold.Chemscore.Internal.Correction.Weighted>
   9.000000E+99

> <Gold.Protein.RotatedTorsions>
[ 6907 6896 6895 6894 ] final  136.91 input  -60.11 | X-H torsion
[ 7974 7965 7964 7962 ] final  -44.12 input  175.53 | X-H torsion
[ 8008 7997 7996 7995 ] final  -55.27 input   59.86 | X-H torsion
[ 10167 10162 10161 10158 ] final -123.39 input  -65.29 | X-H torsion
[ 10718 10713 10712 10709 ] final   78.77 input   66.30 | X-H torsion
[ 10763 10752 10751 10750 ] final   93.09 input  -60.55 | X-H torsion
[ 11005 11000 10999 10996 ] final    7.65 input  -57.11 | X-H torsion

> <Gold.Protein.ActiveResidues>
 VAL166  LYS551  ARG553  GLY616  TRP617  ASP618  TYR619  PRO620  LYS621  CYS622 
 ASP623  PHE694  ASN695  SER759  ASP760  ASP761  ALA762  ILE779  LEU786  VAL792 
 PHE793  MET794  SER795  GLU796  ALA797  LYS798  CYS799  TRP800  GLU811  SER814 

> <Gold.Protein.RotatedAtoms>
  152.2840  133.5497  159.5515 H   0  0  0  0  0  0  0  0  0  0  0  0  # atno 6907 bound_to 6896
  150.7207  134.0523  159.3811 H   0  0  0  0  0  0  0  0  0  0  0  0  # atno 6908 bound_to 6896
  151.8433  135.0583  160.0501 H   0  0  0  0  0  0  0  0  0  0  0  0  # atno 6909 bound_to 6896
  145.9951  140.7137  142.9297 H   0  0  0  0  0  0  0  0  0  0  0  0  # atno 7974 bound_to 7965
  154.4189  140.1157  156.5450 H   0  0  0  0  0  0  0  0  0  0  0  0  # atno 8008 bound_to 7997
  155.6469  140.3496  155.4715 H   0  0  0  0  0  0  0  0  0  0  0  0  # atno 8009 bound_to 7997
  155.9824  140.1163  157.0703 H   0  0  0  0  0  0  0  0  0  0  0  0  # atno 8010 bound_to 7997
  140.0040  143.5511  152.2291 H   0  0  0  0  0  0  0  0  0  0  0  0  # atno 10167 bound_to 10162
  157.6755  130.9883  150.1835 H   0  0  0  0  0  0  0  0  0  0  0  0  # atno 10718 bound_to 10713
  153.2264  135.4338  155.0546 H   0  0  0  0  0  0  0  0  0  0  0  0  # atno 10763 bound_to 10752
  154.8275  135.3369  154.6852 H   0  0  0  0  0  0  0  0  0  0  0  0  # atno 10764 bound_to 10752
  153.7281  135.7013  153.5052 H   0  0  0  0  0  0  0  0  0  0  0  0  # atno 10765 bound_to 10752
  140.5459  134.0330  155.7920 H   0  0  0  0  0  0  0  0  0  0  0  0  # atno 11005 bound_to 11000
  144.6901  140.3137  143.7244 LP  0  0  0  0  0  0  0  0  0  0  0  0  # atno 17320 bound_to 7965
  145.7571  139.1812  143.2288 LP  0  0  0  0  0  0  0  0  0  0  0  0  # atno 17321 bound_to 7965
  139.6251  144.7636  151.2655 LP  0  0  0  0  0  0  0  0  0  0  0  0  # atno 17342 bound_to 10162
  140.7407  143.6578  150.8191 LP  0  0  0  0  0  0  0  0  0  0  0  0  # atno 17343 bound_to 10162
  156.2562  130.3706  149.8179 LP  0  0  0  0  0  0  0  0  0  0  0  0  # atno 17370 bound_to 10713
  156.5937  130.8517  151.3414 LP  0  0  0  0  0  0  0  0  0  0  0  0  # atno 17371 bound_to 10713
  141.1200  133.9477  157.2748 LP  0  0  0  0  0  0  0  0  0  0  0  0  # atno 17394 bound_to 11000
  139.9480  135.0180  156.8909 LP  0  0  0  0  0  0  0  0  0  0  0  0  # atno 17395 bound_to 11000

$$$$
