AV-unprocessed.smi:3133|AV-procd|sdf|11940|dock3
  -GOLD-   2272017333D 1   1.00000     0.00000
 Structure written by MMmdl.
 32 33  0  0  0  0  0  0  0  0  1 V2000
  148.1713  139.3624  153.9165 C   0  0  0  0  0  0  0  0  0  0  0  0
  149.4357  140.0712  154.4434 C   0  0  1  0  0  0  0  0  0  0  0  0
  149.1948  140.7743  155.7879 C   0  0  0  0  0  0  0  0  0  0  0  0
  148.0557  140.8826  156.2433 O   0  0  0  0  0  0  0  0  0  0  0  0
  150.2833  141.2442  156.4171 N   0  0  0  0  0  0  0  0  0  0  0  0
  150.2789  141.9298  157.7042 C   0  0  0  0  0  0  0  0  0  0  0  0
  151.6107  142.6508  157.9707 C   0  0  1  0  0  0  0  0  0  0  0  0
  151.6673  144.0670  157.4057 C   0  0  0  0  0  0  0  0  0  0  0  0
  152.7792  144.6747  158.2312 C   0  0  0  0  0  0  0  0  0  0  0  0
  152.5636  144.0275  159.5992 C   0  0  0  0  0  0  0  0  0  0  0  0
  151.8192  142.8328  159.3673 O   0  0  0  0  0  0  0  0  0  0  0  0
  150.5765  139.1692  154.5483 N   0  0  0  0  0  0  0  0  0  0  0  0
  150.6523  137.8553  154.3243 C   0  0  0  0  0  0  0  0  0  0  0  0
  151.8708  137.3530  154.4669 N   0  0  0  0  0  0  0  0  0  0  0  0
  152.5506  138.4932  154.7891 C   0  0  0  0  0  0  0  0  0  0  0  0
  151.8259  139.6105  154.8400 N   0  0  0  0  0  0  0  0  0  0  0  0
  147.3473  140.0670  153.7983 H   0  0  0  0  0  0  0  0  0  0  0  0
  147.8331  138.5707  154.5862 H   0  0  0  0  0  0  0  0  0  0  0  0
  148.3574  138.9118  152.9413 H   0  0  0  0  0  0  0  0  0  0  0  0
  149.7017  140.8361  153.7116 H   0  0  0  0  0  0  0  0  0  0  0  0
  151.1810  141.1209  155.9718 H   0  0  0  0  0  0  0  0  0  0  0  0
  149.4509  142.6400  157.7391 H   0  0  0  0  0  0  0  0  0  0  0  0
  150.0875  141.1936  158.4855 H   0  0  0  0  0  0  0  0  0  0  0  0
  152.4479  142.0757  157.5712 H   0  0  0  0  0  0  0  0  0  0  0  0
  151.8665  144.0912  156.3339 H   0  0  0  0  0  0  0  0  0  0  0  0
  150.7312  144.5951  157.5937 H   0  0  0  0  0  0  0  0  0  0  0  0
  153.7473  144.3780  157.8249 H   0  0  0  0  0  0  0  0  0  0  0  0
  152.7433  145.7637  158.2643 H   0  0  0  0  0  0  0  0  0  0  0  0
  153.5082  143.8108  160.0985 H   0  0  0  0  0  0  0  0  0  0  0  0
  151.9799  144.6800  160.2490 H   0  0  0  0  0  0  0  0  0  0  0  0
  149.7987  137.2545  154.0466 H   0  0  0  0  0  0  0  0  0  0  0  0
  153.6128  138.5011  154.9852 H   0  0  0  0  0  0  0  0  0  0  0  0
  1  2  1  0  0  0  0
  1 17  1  0  0  0  0
  1 18  1  0  0  0  0
  1 19  1  0  0  0  0
  2  3  1  0  0  0  0
  2 12  1  0  0  0  0
  2 20  1  0  0  0  0
  3  4  2  0  0  0  0
  3  5  1  0  0  0  0
  5  6  1  0  0  0  0
  5 21  1  0  0  0  0
  6  7  1  0  0  0  0
  6 22  1  0  0  0  0
  6 23  1  0  0  0  0
  7 11  1  0  0  0  0
  7  8  1  0  0  0  0
  7 24  1  0  0  0  0
  8  9  1  0  0  0  0
  8 25  1  0  0  0  0
  8 26  1  0  0  0  0
  9 10  1  0  0  0  0
  9 27  1  0  0  0  0
  9 28  1  0  0  0  0
 10 11  1  0  0  0  0
 10 29  1  0  0  0  0
 10 30  1  0  0  0  0
 12 16  1  0  0  0  0
 12 13  1  0  0  0  0
 13 14  2  0  0  0  0
 13 31  1  0  0  0  0
 14 15  1  0  0  0  0
 15 16  2  0  0  0  0
 15 32  1  0  0  0  0
M  END
> <s_m_source_file>
AV-unprocessed.smi

> <i_m_source_file_index>
3133

> <i_lp_mmshare_version>
43012

> <i_f3d_flags>
0

> <s_epik_input>
bjFbY0hdbltjSF1uMVtDQEhdKFtDSDNdKUMoPU8pW05IXVtDSDJdW0NAQEhdMltDSDJdW0NIMl1bQ0gyXU8y

> <s_epik_cmdline>
J2VwaWtfcHl0aG9uJywgJy1waCcsICc3LjAnLCAnLXRuJywgJzgnLCAnLW1hJywgJzIwMCcsICctbWV0YWxfYmluZGluZycsICctaW1hZScsICc8aW5maWxlLm1hZT4nLCAnLW9tYWUnLCAnPG91dGZpbGUubWFlPic=

> <r_lp_tautomer_probability>
1

> <r_epik_Ionization_Penalty>
1.2027e-05

> <r_epik_Ionization_Penalty_Charging>
0

> <r_epik_Ionization_Penalty_Neutral>
1.2027e-05

> <r_epik_State_Penalty>
-0

> <r_epik_Charging_Adjusted_Penalty>
0

> <i_epik_Tot_Q>
0

> <i_epik_Tot_abs_Q>
0

> <r_epik_Metal_State_Penalty>
-0

> <b_epik_Metal_Only>
0

> <s_lp_Force_Field>
OPLS_2005

> <r_lp_Energy>
22.8462

> <b_lp_Chiralities_Consistent>
1

> <s_lp_Variant>
AV-unprocessed.smi:3133-4

> <Gold.Version>
5.8.1

> <Gold.Id.Protein>
6NUR|6NUR_protein|mol2

> <Gold.PLP.Fitness>
41.5530

> <Gold.PLP.PLP>
-35.4914

> <Gold.PLP.part.hbond>
-2.0000

> <Gold.PLP.part.metal>
0.0000

> <Gold.PLP.part.buried>
-4.9411

> <Gold.PLP.part.nonpolar>
-29.8603

> <Gold.PLP.part.repulsive>
0.3088

> <Gold.PLP.ligand.clash>
0.0000

> <Gold.PLP.ligand.torsion>
0.7055

> <Gold.PLP.Chemscore.Hbond>
1.4600

> <Gold.PLP.Chemscore.CHOScore>
0.9944

> <Gold.PLP.Chemscore.Metal>
0.0000

> <Gold.Chemscore.Hbonds>
donor molecule, donor type, donor heavy atom, donor atom, acceptor molecule, acceptor atom, score
      P1  H  7989  7998       L1    16  0.45
      P1  H 10752 10765       L1    14  0.98
      L1  C    13    31       P1  7948  1.00

> <Gold.PLP.Chemscore.Internal.Correction>
0.1092

> <Gold.Rescore>
     Score         DG    S(hbond)    S(metal)    S(lipo)     H(rot)  DE(clash)    DE(int)     intcor
      8.98     -11.00       0.87        0.00      71.61       2.26       0.07       1.96       ----

> <Gold.Chemscore.Fitness>
8.9796

> <Gold.Chemscore.DG>
-11.0001

> <Gold.Chemscore.ZeroCoef>
-5.4800

> <Gold.Chemscore.Hbond>
0.8733

> <Gold.Chemscore.Metal>
0.0000

> <Gold.Chemscore.Lipo>
71.6059

> <Gold.Chemscore.Internal_Hbond>
0.0000

> <Gold.Chemscore.DEClash>
0.0655

> <Gold.Chemscore.DEInternal>
1.9550

> <Gold.Chemscore.Rot>
2.2558

> <Gold.Chemscore.Internal.Correction>
   9.000000E+99

> <Gold.Chemscore.Hbonds>
donor molecule, donor type, donor heavy atom, donor atom, acceptor molecule, acceptor atom, score
      P1  H  7989  7998       L1    16  0.02
      P1  H 10752 10765       L1    14  0.85

> <Gold.Chemscore.Hbond.Weighted>
-2.9169

> <Gold.Chemscore.Metal.Weighted>
-0.0000

> <Gold.Chemscore.Lipo.Weighted>
-8.3779

> <Gold.Chemscore.Internal_Hbond.Weighted>
0.0000

> <Gold.Chemscore.DEClash.Weighted>
0.0655

> <Gold.Chemscore.DEInternal.Weighted>
1.9550

> <Gold.Chemscore.Rot.Weighted>
5.7747

> <Gold.Chemscore.Internal.Correction.Weighted>
   9.000000E+99

> <Gold.Protein.RotatedTorsions>
[ 6907 6896 6895 6894 ] final   -9.53 input  -60.11 | X-H torsion
[ 7974 7965 7964 7962 ] final   62.51 input  175.53 | X-H torsion
[ 8008 7997 7996 7995 ] final   -0.84 input   59.86 | X-H torsion
[ 10167 10162 10161 10158 ] final -178.60 input  -65.29 | X-H torsion
[ 10718 10713 10712 10709 ] final -167.11 input   66.30 | X-H torsion
[ 10763 10752 10751 10750 ] final  165.66 input  -60.55 | X-H torsion
[ 11005 11000 10999 10996 ] final  137.15 input  -57.11 | X-H torsion

> <Gold.Protein.ActiveResidues>
 VAL166  LYS551  ARG553  GLY616  TRP617  ASP618  TYR619  PRO620  LYS621  CYS622 
 ASP623  PHE694  ASN695  SER759  ASP760  ASP761  ALA762  ILE779  LEU786  VAL792 
 PHE793  MET794  SER795  GLU796  ALA797  LYS798  CYS799  TRP800  GLU811  SER814 

> <Gold.Protein.RotatedAtoms>
  151.4164  135.0992  159.9600 H   0  0  0  0  0  0  0  0  0  0  0  0  # atno 6907 bound_to 6896
  152.5003  133.8749  159.7327 H   0  0  0  0  0  0  0  0  0  0  0  0  # atno 6908 bound_to 6896
  150.9255  133.6772  159.2850 H   0  0  0  0  0  0  0  0  0  0  0  0  # atno 6909 bound_to 6896
  145.8725  139.3387  143.0754 H   0  0  0  0  0  0  0  0  0  0  0  0  # atno 7974 bound_to 7965
  154.6535  140.2574  155.7187 H   0  0  0  0  0  0  0  0  0  0  0  0  # atno 8008 bound_to 7997
  156.2586  140.2863  156.0899 H   0  0  0  0  0  0  0  0  0  0  0  0  # atno 8009 bound_to 7997
  155.1415  140.0380  157.2790 H   0  0  0  0  0  0  0  0  0  0  0  0  # atno 8010 bound_to 7997
  139.5425  144.2325  152.0923 H   0  0  0  0  0  0  0  0  0  0  0  0  # atno 10167 bound_to 10162
  156.6777  130.9109  151.3052 H   0  0  0  0  0  0  0  0  0  0  0  0  # atno 10718 bound_to 10713
  154.3273  135.2755  155.2489 H   0  0  0  0  0  0  0  0  0  0  0  0  # atno 10763 bound_to 10752
  154.4816  135.5857  153.6397 H   0  0  0  0  0  0  0  0  0  0  0  0  # atno 10764 bound_to 10752
  152.9870  135.6113  154.3463 H   0  0  0  0  0  0  0  0  0  0  0  0  # atno 10765 bound_to 10752
  140.0094  134.9445  157.0246 H   0  0  0  0  0  0  0  0  0  0  0  0  # atno 11005 bound_to 11000
  145.9120  140.9173  143.0449 LP  0  0  0  0  0  0  0  0  0  0  0  0  # atno 17320 bound_to 7965
  144.6726  140.1173  143.7452 LP  0  0  0  0  0  0  0  0  0  0  0  0  # atno 17321 bound_to 7965
  140.1806  144.4848  150.6530 LP  0  0  0  0  0  0  0  0  0  0  0  0  # atno 17342 bound_to 10162
  140.6660  143.2268  151.5741 LP  0  0  0  0  0  0  0  0  0  0  0  0  # atno 17343 bound_to 10162
  157.7055  130.9380  150.0917 LP  0  0  0  0  0  0  0  0  0  0  0  0  # atno 17370 bound_to 10713
  156.1891  130.3654  149.8933 LP  0  0  0  0  0  0  0  0  0  0  0  0  # atno 17371 bound_to 10713
  140.4581  134.1512  155.7188 LP  0  0  0  0  0  0  0  0  0  0  0  0  # atno 17394 bound_to 11000
  141.1700  133.8627  157.1599 LP  0  0  0  0  0  0  0  0  0  0  0  0  # atno 17395 bound_to 11000

$$$$
