AV-unprocessed.smi:1856|AV-procd|sdf|7534|dock3
  -GOLD-   22720 9243D 1   1.00000     0.00000
 Structure written by MMmdl.
 44 45  0  0  0  0  0  0  0  0  1 V2000
  154.7834  135.2317  163.4937 C   0  0  0  0  0  0  0  0  0  0  0  0
  154.9947  136.4310  162.5632 C   0  0  0  0  0  0  0  0  0  0  0  0
  154.9323  137.7741  163.3124 C   0  0  0  0  0  0  0  0  0  0  0  0
  155.4886  138.9420  162.4927 C   0  0  0  0  0  0  0  0  0  0  0  0
  156.5843  139.4316  162.7671 O   0  0  0  0  0  0  0  0  0  0  0  0
  154.7115  139.3888  161.4932 N   0  0  0  0  0  0  0  0  0  0  0  0
  155.0298  140.5048  160.6036 C   0  0  1  0  0  0  0  0  0  0  0  0
  156.4010  140.2826  159.9528 C   0  0  0  0  0  0  0  0  0  0  0  0
  153.9356  140.6411  159.5730 C   0  0  0  0  0  0  0  0  0  0  0  0
  153.6557  139.6679  158.7011 N   0  0  0  0  0  0  0  0  0  0  0  0
  152.6265  140.2065  157.9567 C   0  0  0  0  0  0  0  0  0  0  0  0
  151.8915  139.6623  156.8794 C   0  0  0  0  0  0  0  0  0  0  0  0
  150.8687  140.4117  156.2627 C   0  0  0  0  0  0  0  0  0  0  0  0
  150.5676  141.7132  156.7132 C   0  0  0  0  0  0  0  0  0  0  0  0
  151.2895  142.2744  157.7842 C   0  0  0  0  0  0  0  0  0  0  0  0
  152.3097  141.5218  158.3972 C   0  0  0  0  0  0  0  0  0  0  0  0
  153.1889  141.7693  159.4484 N   0  0  0  0  0  0  0  0  0  0  0  0
  153.2691  143.0008  160.2241 C   0  0  0  0  0  0  0  0  0  0  0  0
  151.9136  143.4398  160.8165 C   0  0  2  0  0  0  0  0  0  0  0  0
  151.7299  144.9622  160.9148 C   0  0  0  0  0  0  0  0  0  0  0  0
  151.7943  142.8876  162.1100 O   0  0  0  0  0  0  0  0  0  0  0  0
  154.8283  134.2959  162.9364 H   0  0  0  0  0  0  0  0  0  0  0  0
  153.8112  135.2797  163.9850 H   0  0  0  0  0  0  0  0  0  0  0  0
  155.5500  135.1944  164.2682 H   0  0  0  0  0  0  0  0  0  0  0  0
  155.9594  136.3245  162.0650 H   0  0  0  0  0  0  0  0  0  0  0  0
  154.2374  136.4110  161.7785 H   0  0  0  0  0  0  0  0  0  0  0  0
  153.8996  137.9874  163.5931 H   0  0  0  0  0  0  0  0  0  0  0  0
  155.5006  137.7091  164.2410 H   0  0  0  0  0  0  0  0  0  0  0  0
  153.8210  138.9353  161.3485 H   0  0  0  0  0  0  0  0  0  0  0  0
  155.0910  141.4082  161.2089 H   0  0  0  0  0  0  0  0  0  0  0  0
  156.6608  141.1162  159.2998 H   0  0  0  0  0  0  0  0  0  0  0  0
  156.4138  139.3728  159.3514 H   0  0  0  0  0  0  0  0  0  0  0  0
  157.1844  140.1963  160.7062 H   0  0  0  0  0  0  0  0  0  0  0  0
  152.1152  138.6662  156.5275 H   0  0  0  0  0  0  0  0  0  0  0  0
  150.3125  139.9857  155.4406 H   0  0  0  0  0  0  0  0  0  0  0  0
  149.7817  142.2806  156.2364 H   0  0  0  0  0  0  0  0  0  0  0  0
  151.0589  143.2702  158.1314 H   0  0  0  0  0  0  0  0  0  0  0  0
  154.0122  142.8755  161.0124 H   0  0  0  0  0  0  0  0  0  0  0  0
  153.6588  143.7855  159.5745 H   0  0  0  0  0  0  0  0  0  0  0  0
  151.1026  143.0308  160.2157 H   0  0  0  0  0  0  0  0  0  0  0  0
  151.7332  145.4277  159.9288 H   0  0  0  0  0  0  0  0  0  0  0  0
  152.5249  145.4199  161.5044 H   0  0  0  0  0  0  0  0  0  0  0  0
  150.7791  145.2126  161.3857 H   0  0  0  0  0  0  0  0  0  0  0  0
  152.6408  142.9208  162.5290 H   0  0  0  0  0  0  0  0  0  0  0  0
  1  2  1  0  0  0  0
  1 22  1  0  0  0  0
  1 23  1  0  0  0  0
  1 24  1  0  0  0  0
  2  3  1  0  0  0  0
  2 25  1  0  0  0  0
  2 26  1  0  0  0  0
  3  4  1  0  0  0  0
  3 27  1  0  0  0  0
  3 28  1  0  0  0  0
  4  5  2  0  0  0  0
  4  6  1  0  0  0  0
  6  7  1  0  0  0  0
  6 29  1  0  0  0  0
  7  8  1  0  0  0  0
  7  9  1  0  0  0  0
  7 30  1  0  0  0  0
  8 31  1  0  0  0  0
  8 32  1  0  0  0  0
  8 33  1  0  0  0  0
  9 17  1  0  0  0  0
  9 10  2  0  0  0  0
 10 11  1  0  0  0  0
 11 16  2  0  0  0  0
 11 12  1  0  0  0  0
 12 13  2  0  0  0  0
 12 34  1  0  0  0  0
 13 14  1  0  0  0  0
 13 35  1  0  0  0  0
 14 15  2  0  0  0  0
 14 36  1  0  0  0  0
 15 16  1  0  0  0  0
 15 37  1  0  0  0  0
 16 17  1  0  0  0  0
 17 18  1  0  0  0  0
 18 19  1  0  0  0  0
 18 38  1  0  0  0  0
 18 39  1  0  0  0  0
 19 20  1  0  0  0  0
 19 21  1  0  0  0  0
 19 40  1  0  0  0  0
 20 41  1  0  0  0  0
 20 42  1  0  0  0  0
 20 43  1  0  0  0  0
 21 44  1  0  0  0  0
M  END
> <s_m_source_file>
AV-unprocessed.smi

> <i_m_source_file_index>
1856

> <i_lp_mmshare_version>
43012

> <i_f3d_flags>
0

> <s_epik_input>
W0NIM11bQ0gyXVtDSDJdQyg9TylbTkhdW0NASF0oW0NIM10pYyhuMSluKFtDSDJdW0NASF0oW0NIM10pW09IXSljKGMxMilbY0hdW2NIXVtjSF1bY0hdMg==

> <s_epik_cmdline>
J2VwaWtfcHl0aG9uJywgJy1waCcsICc3LjAnLCAnLXRuJywgJzgnLCAnLW1hJywgJzIwMCcsICctbWV0YWxfYmluZGluZycsICctaW1hZScsICc8aW5maWxlLm1hZT4nLCAnLW9tYWUnLCAnPG91dGZpbGUubWFlPic=

> <r_epik_Ionization_Penalty>
0.134222

> <r_epik_Ionization_Penalty_Charging>
0

> <r_epik_Ionization_Penalty_Neutral>
0.134222

> <r_epik_State_Penalty>
0.123585

> <r_epik_Charging_Adjusted_Penalty>
0.123585

> <i_epik_Tot_Q>
0

> <i_epik_Tot_abs_Q>
0

> <r_epik_Metal_State_Penalty>
0.100548

> <b_epik_Metal_Only>
0

> <s_lp_Force_Field>
OPLS_2005

> <r_lp_Energy>
2.96492

> <b_lp_Chiralities_Consistent>
1

> <s_lp_Variant>
AV-unprocessed.smi:1856-2

> <Gold.Version>
5.8.1

> <Gold.Id.Protein>
6NUR|6NUR_protein|mol2

> <Gold.PLP.Fitness>
45.4544

> <Gold.PLP.PLP>
-42.8973

> <Gold.PLP.part.hbond>
-3.0000

> <Gold.PLP.part.metal>
0.0000

> <Gold.PLP.part.buried>
-3.8640

> <Gold.PLP.part.nonpolar>
-36.1965

> <Gold.PLP.part.repulsive>
0.0000

> <Gold.PLP.ligand.clash>
0.0000

> <Gold.PLP.ligand.torsion>
0.7201

> <Gold.PLP.Chemscore.Hbond>
1.2782

> <Gold.PLP.Chemscore.CHOScore>
0.0000

> <Gold.PLP.Chemscore.Metal>
0.0000

> <Gold.Chemscore.Hbonds>
donor molecule, donor type, donor heavy atom, donor atom, acceptor molecule, acceptor atom, score
      P1  H  6933  6945       L1    21  0.77
      P1  H  7997  8008       L1    10  0.55

> <Gold.PLP.Chemscore.Internal.Correction>
0.1626

> <Gold.Rescore>
     Score         DG    S(hbond)    S(metal)    S(lipo)     H(rot)  DE(clash)    DE(int)     intcor
     13.17     -14.82       0.74        0.00     112.30       2.45       0.27       1.39       ----

> <Gold.Chemscore.Fitness>
13.1713

> <Gold.Chemscore.DG>
-14.8246

> <Gold.Chemscore.ZeroCoef>
-5.4800

> <Gold.Chemscore.Hbond>
0.7387

> <Gold.Chemscore.Metal>
0.0000

> <Gold.Chemscore.Lipo>
112.2962

> <Gold.Chemscore.Internal_Hbond>
0.0000

> <Gold.Chemscore.DEClash>
0.2661

> <Gold.Chemscore.DEInternal>
1.3872

> <Gold.Chemscore.Rot>
2.4459

> <Gold.Chemscore.Internal.Correction>
   9.000000E+99

> <Gold.Chemscore.Hbonds>
donor molecule, donor type, donor heavy atom, donor atom, acceptor molecule, acceptor atom, score
      P1  H  6933  6945       L1    21  0.55
      P1  H  7997  8008       L1    10  0.01

> <Gold.Chemscore.Hbond.Weighted>
-2.4674

> <Gold.Chemscore.Metal.Weighted>
-0.0000

> <Gold.Chemscore.Lipo.Weighted>
-13.1387

> <Gold.Chemscore.Internal_Hbond.Weighted>
0.0000

> <Gold.Chemscore.DEClash.Weighted>
0.2661

> <Gold.Chemscore.DEInternal.Weighted>
1.3872

> <Gold.Chemscore.Rot.Weighted>
6.2614

> <Gold.Chemscore.Internal.Correction.Weighted>
   9.000000E+99

> <Gold.Protein.RotatedTorsions>
[ 6907 6896 6895 6894 ] final -118.75 input  -60.11 | X-H torsion
[ 7974 7965 7964 7962 ] final  -55.53 input  175.53 | X-H torsion
[ 8008 7997 7996 7995 ] final -109.83 input   59.86 | X-H torsion
[ 10167 10162 10161 10158 ] final  112.23 input  -65.29 | X-H torsion
[ 10718 10713 10712 10709 ] final  174.43 input   66.30 | X-H torsion
[ 10763 10752 10751 10750 ] final   52.18 input  -60.55 | X-H torsion
[ 11005 11000 10999 10996 ] final -121.77 input  -57.11 | X-H torsion

> <Gold.Protein.ActiveResidues>
 VAL166  LYS551  ARG553  GLY616  TRP617  ASP618  TYR619  PRO620  LYS621  CYS622 
 ASP623  PHE694  ASN695  SER759  ASP760  ASP761  ALA762  ILE779  LEU786  VAL792 
 PHE793  MET794  SER795  GLU796  ALA797  LYS798  CYS799  TRP800  GLU811  SER814 

> <Gold.Protein.RotatedAtoms>
  150.8246  133.8193  159.3123 H   0  0  0  0  0  0  0  0  0  0  0  0  # atno 6907 bound_to 6896
  151.5941  135.1050  160.0055 H   0  0  0  0  0  0  0  0  0  0  0  0  # atno 6908 bound_to 6896
  152.4333  133.7274  159.6624 H   0  0  0  0  0  0  0  0  0  0  0  0  # atno 6909 bound_to 6896
  145.8731  140.8201  142.9878 H   0  0  0  0  0  0  0  0  0  0  0  0  # atno 7974 bound_to 7965
  154.9652  140.0398  157.2209 H   0  0  0  0  0  0  0  0  0  0  0  0  # atno 8008 bound_to 7997
  154.7852  140.2826  155.6011 H   0  0  0  0  0  0  0  0  0  0  0  0  # atno 8009 bound_to 7997
  156.2942  140.2584  156.2686 H   0  0  0  0  0  0  0  0  0  0  0  0  # atno 8010 bound_to 7997
  139.6552  144.7129  151.1972 H   0  0  0  0  0  0  0  0  0  0  0  0  # atno 10167 bound_to 10162
  156.9497  131.0027  151.2951 H   0  0  0  0  0  0  0  0  0  0  0  0  # atno 10718 bound_to 10713
  152.9788  135.5821  154.4536 H   0  0  0  0  0  0  0  0  0  0  0  0  # atno 10763 bound_to 10752
  154.4122  135.2770  155.2031 H   0  0  0  0  0  0  0  0  0  0  0  0  # atno 10764 bound_to 10752
  154.3817  135.6145  153.5848 H   0  0  0  0  0  0  0  0  0  0  0  0  # atno 10765 bound_to 10752
  141.0045  134.0354  157.3494 H   0  0  0  0  0  0  0  0  0  0  0  0  # atno 11005 bound_to 11000
  144.6726  140.1270  143.7446 LP  0  0  0  0  0  0  0  0  0  0  0  0  # atno 17320 bound_to 7965
  145.9113  139.2488  143.1436 LP  0  0  0  0  0  0  0  0  0  0  0  0  # atno 17321 bound_to 7965
  140.7556  143.6085  150.8629 LP  0  0  0  0  0  0  0  0  0  0  0  0  # atno 17342 bound_to 10162
  139.9737  143.6028  152.2965 LP  0  0  0  0  0  0  0  0  0  0  0  0  # atno 17343 bound_to 10162
  157.5730  130.8323  149.8417 LP  0  0  0  0  0  0  0  0  0  0  0  0  # atno 17370 bound_to 10713
  156.0368  130.3749  150.1540 LP  0  0  0  0  0  0  0  0  0  0  0  0  # atno 17371 bound_to 10713
  139.9056  135.0178  156.7470 LP  0  0  0  0  0  0  0  0  0  0  0  0  # atno 17394 bound_to 11000
  140.6835  133.9454  155.7924 LP  0  0  0  0  0  0  0  0  0  0  0  0  # atno 17395 bound_to 11000

$$$$
