AV-unprocessed.smi:1586|AV-procd|sdf|6384|dock4
  -GOLD-   22720 7 13D 1   1.00000     0.00000
 Structure written by MMmdl.
 46 47  0  0  0  0  0  0  0  0  3 V2000
  143.8406  132.3857  149.3846 C   0  0  0  0  0  0  0  0  0  0  0  0
  144.2235  133.0344  150.7225 C   0  0  0  0  0  0  0  0  0  0  0  0
  145.2593  134.0569  150.5588 N   0  0  0  0  0  0  0  0  0  0  0  0
  145.2911  135.0795  151.6114 C   0  0  0  0  0  0  0  0  0  0  0  0
  145.7897  134.5188  152.9607 C   0  0  0  0  0  0  0  0  0  0  0  0
  147.1344  133.9183  152.7946 N   0  3  0  0  0  0  0  0  0  0  0  0
  147.7991  133.5345  154.0742 C   0  0  1  0  0  0  0  0  0  0  0  0
  149.0499  132.6568  153.8753 C   0  0  0  0  0  0  0  0  0  0  0  0
  148.0966  134.7692  154.9540 C   0  0  0  0  0  0  0  0  0  0  0  0
  148.5135  134.3895  156.3028 N   0  0  0  0  0  0  0  0  0  0  0  0
  148.8332  135.2239  157.3029 C   0  0  0  0  0  0  0  0  0  0  0  0
  148.8481  136.4410  157.1089 O   0  0  0  0  0  0  0  0  0  0  0  0
  149.0884  134.5962  158.4720 N   0  5  0  0  0  0  0  0  0  0  0  0
  148.4952  135.0101  159.6023 C   0  0  0  0  0  0  0  0  0  0  0  0
  148.1205  134.1850  160.6980 C   0  0  0  0  0  0  0  0  0  0  0  0
  147.5764  135.0714  161.5836 C   0  0  0  0  0  0  0  0  0  0  0  0
  146.9728  134.9116  162.9369 C   0  0  0  0  0  0  0  0  0  0  0  0
  147.6206  136.3325  161.0763 O   0  0  0  0  0  0  0  0  0  0  0  0
  148.2163  136.2855  159.8102 N   0  0  0  0  0  0  0  0  0  0  0  0
  147.1093  132.8737  151.7401 C   0  0  0  0  0  0  0  0  0  0  0  0
  146.5987  133.4781  150.4156 C   0  0  0  0  0  0  0  0  0  0  0  0
  143.1722  131.5404  149.5499 H   0  0  0  0  0  0  0  0  0  0  0  0
  144.7200  132.0116  148.8593 H   0  0  0  0  0  0  0  0  0  0  0  0
  143.3211  133.0810  148.7255 H   0  0  0  0  0  0  0  0  0  0  0  0
  143.3372  133.4331  151.2150 H   0  0  0  0  0  0  0  0  0  0  0  0
  144.6132  132.2517  151.3745 H   0  0  0  0  0  0  0  0  0  0  0  0
  145.9583  135.8801  151.2883 H   0  0  0  0  0  0  0  0  0  0  0  0
  144.3109  135.5397  151.7301 H   0  0  0  0  0  0  0  0  0  0  0  0
  145.8432  135.3365  153.6803 H   0  0  0  0  0  0  0  0  0  0  0  0
  145.0923  133.7878  153.3699 H   0  0  0  0  0  0  0  0  0  0  0  0
  147.0797  132.9372  154.6368 H   0  0  0  0  0  0  0  0  0  0  0  0
  149.4241  132.2988  154.8347 H   0  0  0  0  0  0  0  0  0  0  0  0
  149.8623  133.2069  153.3998 H   0  0  0  0  0  0  0  0  0  0  0  0
  148.8322  131.7800  153.2652 H   0  0  0  0  0  0  0  0  0  0  0  0
  148.9079  135.3467  154.5101 H   0  0  0  0  0  0  0  0  0  0  0  0
  147.2381  135.4415  154.9886 H   0  0  0  0  0  0  0  0  0  0  0  0
  148.5327  133.4010  156.5092 H   0  0  0  0  0  0  0  0  0  0  0  0
  148.2298  133.1172  160.8135 H   0  0  0  0  0  0  0  0  0  0  0  0
  147.3613  134.0217  163.4325 H   0  0  0  0  0  0  0  0  0  0  0  0
  145.8895  134.8144  162.8662 H   0  0  0  0  0  0  0  0  0  0  0  0
  147.1957  135.7727  163.5673 H   0  0  0  0  0  0  0  0  0  0  0  0
  148.1126  132.4764  151.5884 H   0  0  0  0  0  0  0  0  0  0  0  0
  146.4844  132.0332  152.0424 H   0  0  0  0  0  0  0  0  0  0  0  0
  146.5926  132.7222  149.6297 H   0  0  0  0  0  0  0  0  0  0  0  0
  147.2839  134.2594  150.0831 H   0  0  0  0  0  0  0  0  0  0  0  0
  147.7081  134.6635  152.4238 H   0  0  0  0  0  0  0  0  0  0  0  0
  1  2  1  0  0  0  0
  1 22  1  0  0  0  0
  1 23  1  0  0  0  0
  1 24  1  0  0  0  0
  2  3  1  0  0  0  0
  2 25  1  0  0  0  0
  2 26  1  0  0  0  0
  3 21  1  0  0  0  0
  3  4  1  0  0  0  0
  4  5  1  0  0  0  0
  4 27  1  0  0  0  0
  4 28  1  0  0  0  0
  5  6  1  0  0  0  0
  5 29  1  0  0  0  0
  5 30  1  0  0  0  0
  6  7  1  0  0  0  0
  6 20  1  0  0  0  0
  6 46  1  0  0  0  0
  7  8  1  0  0  0  0
  7  9  1  0  0  0  0
  7 31  1  0  0  0  0
  8 32  1  0  0  0  0
  8 33  1  0  0  0  0
  8 34  1  0  0  0  0
  9 10  1  0  0  0  0
  9 35  1  0  0  0  0
  9 36  1  0  0  0  0
 10 11  1  0  0  0  0
 10 37  1  0  0  0  0
 11 12  2  0  0  0  0
 11 13  1  0  0  0  0
 13 14  1  0  0  0  0
 14 19  2  0  0  0  0
 14 15  1  0  0  0  0
 15 16  2  0  0  0  0
 15 38  1  0  0  0  0
 16 17  1  0  0  0  0
 16 18  1  0  0  0  0
 17 39  1  0  0  0  0
 17 40  1  0  0  0  0
 17 41  1  0  0  0  0
 18 19  1  0  0  0  0
 20 21  1  0  0  0  0
 20 42  1  0  0  0  0
 20 43  1  0  0  0  0
 21 44  1  0  0  0  0
 21 45  1  0  0  0  0
M  CHG  1   6   1
M  CHG  1  13  -1
M  END
> <s_m_source_file>
AV-unprocessed.smi

> <i_m_source_file_index>
1586

> <i_lp_mmshare_version>
43012

> <i_f3d_flags>
0

> <s_epik_input>
W0NIM11bQ0gyXU4xW0NIMl1bQ0gyXU4oW0NIMl1bQ0gyXTEpW0NASF0oW0NIM10pW0NIMl1bTkhdQyg9TylbTkhdYzJbY0hdYyhbQ0gzXSlvbjI=

> <s_epik_cmdline>
J2VwaWtfcHl0aG9uJywgJy1waCcsICc3LjAnLCAnLXRuJywgJzgnLCAnLW1hJywgJzIwMCcsICctbWV0YWxfYmluZGluZycsICctaW1hZScsICc8aW5maWxlLm1hZT4nLCAnLW9tYWUnLCAnPG91dGZpbGUubWFlPic=

> <r_epik_Ionization_Penalty>
6.35599

> <r_epik_Ionization_Penalty_Charging>
6.35441

> <r_epik_Ionization_Penalty_Neutral>
0.00158318

> <r_epik_State_Penalty>
7.1902

> <r_epik_Charging_Adjusted_Penalty>
13.5446

> <i_epik_Tot_Q>
0

> <i_epik_Tot_abs_Q>
2

> <r_epik_Metal_State_Penalty>
3.12491

> <b_epik_Metal_Only>
1

> <s_lp_Force_Field>
OPLS_2005

> <r_lp_Energy>
11.5798

> <b_lp_Chiralities_Consistent>
1

> <s_lp_Variant>
AV-unprocessed.smi:1586-12

> <Gold.Version>
5.8.1

> <Gold.Id.Protein>
6NUR|6NUR_protein|mol2

> <Gold.PLP.Fitness>
48.2300

> <Gold.PLP.PLP>
-32.8565

> <Gold.PLP.part.hbond>
-4.0000

> <Gold.PLP.part.metal>
0.0000

> <Gold.PLP.part.buried>
-4.9178

> <Gold.PLP.part.nonpolar>
-24.8176

> <Gold.PLP.part.repulsive>
0.1798

> <Gold.PLP.ligand.clash>
0.0000

> <Gold.PLP.ligand.torsion>
1.0958

> <Gold.PLP.Chemscore.Hbond>
5.7920

> <Gold.PLP.Chemscore.CHOScore>
0.0000

> <Gold.PLP.Chemscore.Metal>
0.0000

> <Gold.Chemscore.Hbonds>
donor molecule, donor type, donor heavy atom, donor atom, acceptor molecule, acceptor atom, score
      L1  H     6    46       P1  7948  1.95
      P1  H  6896  6908       L1    13  1.00

> <Gold.PLP.Chemscore.Internal.Correction>
0.1891

> <Gold.Rescore>
     Score         DG    S(hbond)    S(metal)    S(lipo)     H(rot)  DE(clash)    DE(int)     intcor
     14.60     -17.58       2.26        0.00      76.66       1.73       0.12       2.86       ----

> <Gold.Chemscore.Fitness>
14.5975

> <Gold.Chemscore.DG>
-17.5787

> <Gold.Chemscore.ZeroCoef>
-5.4800

> <Gold.Chemscore.Hbond>
2.2592

> <Gold.Chemscore.Metal>
0.0000

> <Gold.Chemscore.Lipo>
76.6584

> <Gold.Chemscore.Internal_Hbond>
0.0000

> <Gold.Chemscore.DEClash>
0.1215

> <Gold.Chemscore.DEInternal>
2.8598

> <Gold.Chemscore.Rot>
1.7250

> <Gold.Chemscore.Internal.Correction>
   9.000000E+99

> <Gold.Chemscore.Hbonds>
donor molecule, donor type, donor heavy atom, donor atom, acceptor molecule, acceptor atom, score
      L1  H     6    46       P1  7948  0.72
      P1  H  6896  6908       L1    13  0.02

> <Gold.Chemscore.Hbond.Weighted>
-7.5458

> <Gold.Chemscore.Metal.Weighted>
-0.0000

> <Gold.Chemscore.Lipo.Weighted>
-8.9690

> <Gold.Chemscore.Internal_Hbond.Weighted>
0.0000

> <Gold.Chemscore.DEClash.Weighted>
0.1215

> <Gold.Chemscore.DEInternal.Weighted>
2.8598

> <Gold.Chemscore.Rot.Weighted>
4.4161

> <Gold.Chemscore.Internal.Correction.Weighted>
   9.000000E+99

> <Gold.Protein.RotatedTorsions>
[ 6907 6896 6895 6894 ] final  149.93 input  -60.11 | X-H torsion
[ 7974 7965 7964 7962 ] final   50.33 input  175.53 | X-H torsion
[ 8008 7997 7996 7995 ] final  102.84 input   59.86 | X-H torsion
[ 10167 10162 10161 10158 ] final  -23.01 input  -65.29 | X-H torsion
[ 10718 10713 10712 10709 ] final  -99.81 input   66.30 | X-H torsion
[ 10763 10752 10751 10750 ] final  -63.42 input  -60.55 | X-H torsion
[ 11005 11000 10999 10996 ] final  -21.85 input  -57.11 | X-H torsion

> <Gold.Protein.ActiveResidues>
 VAL166  LYS551  ARG553  GLY616  TRP617  ASP618  TYR619  PRO620  LYS621  CYS622 
 ASP623  PHE694  ASN695  SER759  ASP760  ASP761  ALA762  ILE779  LEU786  VAL792 
 PHE793  MET794  SER795  GLU796  ALA797  LYS798  CYS799  TRP800  GLU811  SER814 

> <Gold.Protein.RotatedAtoms>
  152.1213  133.4355  159.4676 H   0  0  0  0  0  0  0  0  0  0  0  0  # atno 6907 bound_to 6896
  150.6872  134.2532  159.4528 H   0  0  0  0  0  0  0  0  0  0  0  0  # atno 6908 bound_to 6896
  152.0408  134.9712  160.0624 H   0  0  0  0  0  0  0  0  0  0  0  0  # atno 6909 bound_to 6896
  146.0023  139.4452  143.0007 H   0  0  0  0  0  0  0  0  0  0  0  0  # atno 7974 bound_to 7965
  156.1429  140.3174  155.8524 H   0  0  0  0  0  0  0  0  0  0  0  0  # atno 8008 bound_to 7997
  155.4119  140.0506  157.3048 H   0  0  0  0  0  0  0  0  0  0  0  0  # atno 8009 bound_to 7997
  154.4992  140.2122  155.9395 H   0  0  0  0  0  0  0  0  0  0  0  0  # atno 8010 bound_to 7997
  140.7287  143.4482  151.0555 H   0  0  0  0  0  0  0  0  0  0  0  0  # atno 10167 bound_to 10162
  156.0144  130.5299  150.6724 H   0  0  0  0  0  0  0  0  0  0  0  0  # atno 10718 bound_to 10713
  154.3148  135.6208  153.5481 H   0  0  0  0  0  0  0  0  0  0  0  0  # atno 10763 bound_to 10752
  152.9826  135.5710  154.5137 H   0  0  0  0  0  0  0  0  0  0  0  0  # atno 10764 bound_to 10752
  154.4793  135.2862  155.1559 H   0  0  0  0  0  0  0  0  0  0  0  0  # atno 10765 bound_to 10752
  140.8601  133.7794  156.0065 H   0  0  0  0  0  0  0  0  0  0  0  0  # atno 11005 bound_to 11000
  145.7469  140.9987  143.1271 LP  0  0  0  0  0  0  0  0  0  0  0  0  # atno 17320 bound_to 7965
  144.6923  139.9167  143.7466 LP  0  0  0  0  0  0  0  0  0  0  0  0  # atno 17321 bound_to 7965
  139.8156  143.7891  152.3174 LP  0  0  0  0  0  0  0  0  0  0  0  0  # atno 17342 bound_to 10162
  139.7955  144.7394  150.9895 LP  0  0  0  0  0  0  0  0  0  0  0  0  # atno 17343 bound_to 10162
  157.4444  131.0865  151.0911 LP  0  0  0  0  0  0  0  0  0  0  0  0  # atno 17370 bound_to 10713
  157.1445  130.6157  149.5564 LP  0  0  0  0  0  0  0  0  0  0  0  0  # atno 17371 bound_to 10713
  140.8692  134.2746  157.5198 LP  0  0  0  0  0  0  0  0  0  0  0  0  # atno 17394 bound_to 11000
  139.8706  134.9559  156.4219 LP  0  0  0  0  0  0  0  0  0  0  0  0  # atno 17395 bound_to 11000

$$$$
