AV-unprocessed.smi:2856|AV-procd|sdf|10996|dock5
  -GOLD-   2272015453D 1   1.00000     0.00000
 Structure written by MMmdl.
 37 38  0  0  0  0  0  0  0  0  1 V2000
  152.8801  142.3993  162.9217 C   0  0  0  0  0  0  0  0  0  0  0  0
  153.2798  141.5886  161.3492 S   0  0  0  0  0  0  0  0  0  0  0  0
  152.1234  142.4265  160.2183 C   0  0  1  0  0  0  0  0  0  0  0  0
  152.4619  143.9278  160.1574 C   0  0  0  0  0  0  0  0  0  0  0  0
  151.5365  144.6845  159.1937 C   0  0  0  0  0  0  0  0  0  0  0  0
  151.5890  144.0691  157.7889 C   0  0  0  0  0  0  0  0  0  0  0  0
  151.2352  142.5754  157.8295 C   0  0  0  0  0  0  0  0  0  0  0  0
  152.1430  141.7958  158.8038 C   0  0  2  0  0  0  0  0  0  0  0  0
  151.7043  140.4038  158.8645 N   0  0  0  0  0  0  0  0  0  0  0  0
  151.9490  139.4679  157.9364 C   0  0  0  0  0  0  0  0  0  0  0  0
  152.5445  139.6915  156.8823 O   0  0  0  0  0  0  0  0  0  0  0  0
  151.4653  138.2731  158.3154 N   0  0  0  0  0  0  0  0  0  0  0  0
  151.5633  137.0404  157.6218 C   0  0  0  0  0  0  0  0  0  0  0  0
  150.5480  136.6325  156.7161 C   0  0  0  0  0  0  0  0  0  0  0  0
  151.0002  135.4218  156.2722 C   0  0  0  0  0  0  0  0  0  0  0  0
  150.4490  134.4235  155.3125 C   0  0  0  0  0  0  0  0  0  0  0  0
  152.1908  135.1174  156.8564 O   0  0  0  0  0  0  0  0  0  0  0  0
  152.5473  136.1596  157.7203 N   0  0  0  0  0  0  0  0  0  0  0  0
  153.5150  142.0060  163.7153 H   0  0  0  0  0  0  0  0  0  0  0  0
  151.8411  142.2250  163.1988 H   0  0  0  0  0  0  0  0  0  0  0  0
  153.0462  143.4741  162.8493 H   0  0  0  0  0  0  0  0  0  0  0  0
  151.1203  142.3322  160.6364 H   0  0  0  0  0  0  0  0  0  0  0  0
  152.3885  144.3652  161.1538 H   0  0  0  0  0  0  0  0  0  0  0  0
  153.4976  144.0584  159.8400 H   0  0  0  0  0  0  0  0  0  0  0  0
  150.5130  144.6574  159.5699 H   0  0  0  0  0  0  0  0  0  0  0  0
  151.8236  145.7355  159.1503 H   0  0  0  0  0  0  0  0  0  0  0  0
  150.9031  144.5963  157.1253 H   0  0  0  0  0  0  0  0  0  0  0  0
  152.5874  144.1980  157.3687 H   0  0  0  0  0  0  0  0  0  0  0  0
  150.1917  142.4627  158.1278 H   0  0  0  0  0  0  0  0  0  0  0  0
  151.3151  142.1555  156.8261 H   0  0  0  0  0  0  0  0  0  0  0  0
  153.1686  141.8393  158.4312 H   0  0  0  0  0  0  0  0  0  0  0  0
  151.2026  140.1266  159.6950 H   0  0  0  0  0  0  0  0  0  0  0  0
  150.9936  138.2369  159.2067 H   0  0  0  0  0  0  0  0  0  0  0  0
  149.6366  137.1404  156.4376 H   0  0  0  0  0  0  0  0  0  0  0  0
  149.6672  134.8673  154.6957 H   0  0  0  0  0  0  0  0  0  0  0  0
  150.0202  133.5737  155.8436 H   0  0  0  0  0  0  0  0  0  0  0  0
  151.2301  134.0504  154.6498 H   0  0  0  0  0  0  0  0  0  0  0  0
  1  2  1  0  0  0  0
  1 19  1  0  0  0  0
  1 20  1  0  0  0  0
  1 21  1  0  0  0  0
  2  3  1  0  0  0  0
  3  8  1  0  0  0  0
  3  4  1  0  0  0  0
  3 22  1  0  0  0  0
  4  5  1  0  0  0  0
  4 23  1  0  0  0  0
  4 24  1  0  0  0  0
  5  6  1  0  0  0  0
  5 25  1  0  0  0  0
  5 26  1  0  0  0  0
  6  7  1  0  0  0  0
  6 27  1  0  0  0  0
  6 28  1  0  0  0  0
  7  8  1  0  0  0  0
  7 29  1  0  0  0  0
  7 30  1  0  0  0  0
  8  9  1  0  0  0  0
  8 31  1  0  0  0  0
  9 10  1  0  0  0  0
  9 32  1  0  0  0  0
 10 11  2  0  0  0  0
 10 12  1  0  0  0  0
 12 13  1  0  0  0  0
 12 33  1  0  0  0  0
 13 18  2  0  0  0  0
 13 14  1  0  0  0  0
 14 15  2  0  0  0  0
 14 34  1  0  0  0  0
 15 16  1  0  0  0  0
 15 17  1  0  0  0  0
 16 35  1  0  0  0  0
 16 36  1  0  0  0  0
 16 37  1  0  0  0  0
 17 18  1  0  0  0  0
M  END
> <s_m_source_file>
AV-unprocessed.smi

> <i_m_source_file_index>
2856

> <i_lp_mmshare_version>
43012

> <i_f3d_flags>
0

> <s_epik_input>
W0NIM11TW0NAQEhdMVtDSDJdW0NIMl1bQ0gyXVtDSDJdW0NASF0xW05IXUMoPU8pW05IXWMyW2NIXWMoW0NIM10pb24y

> <s_epik_cmdline>
J2VwaWtfcHl0aG9uJywgJy1waCcsICc3LjAnLCAnLXRuJywgJzgnLCAnLW1hJywgJzIwMCcsICctbWV0YWxfYmluZGluZycsICctaW1hZScsICc8aW5maWxlLm1hZT4nLCAnLW9tYWUnLCAnPG91dGZpbGUubWFlPic=

> <r_lp_tautomer_probability>
1

> <r_epik_Ionization_Penalty>
2.20874e-05

> <r_epik_Ionization_Penalty_Charging>
0

> <r_epik_Ionization_Penalty_Neutral>
2.20874e-05

> <r_epik_State_Penalty>
-0

> <r_epik_Charging_Adjusted_Penalty>
0

> <i_epik_Tot_Q>
0

> <i_epik_Tot_abs_Q>
0

> <r_epik_Metal_State_Penalty>
-0

> <b_epik_Metal_Only>
0

> <s_lp_Force_Field>
OPLS_2005

> <r_lp_Energy>
6.82526

> <b_lp_Chiralities_Consistent>
1

> <s_lp_Variant>
AV-unprocessed.smi:2856-4

> <Gold.Version>
5.8.1

> <Gold.Id.Protein>
6NUR|6NUR_protein|mol2

> <Gold.PLP.Fitness>
42.7978

> <Gold.PLP.PLP>
-38.8262

> <Gold.PLP.part.hbond>
-2.6279

> <Gold.PLP.part.metal>
0.0000

> <Gold.PLP.part.buried>
-5.3465

> <Gold.PLP.part.nonpolar>
-31.2754

> <Gold.PLP.part.repulsive>
0.1981

> <Gold.PLP.ligand.clash>
0.0000

> <Gold.PLP.ligand.torsion>
1.0181

> <Gold.PLP.Chemscore.Hbond>
2.0000

> <Gold.PLP.Chemscore.CHOScore>
0.0000

> <Gold.PLP.Chemscore.Metal>
0.0000

> <Gold.Chemscore.Hbonds>
donor molecule, donor type, donor heavy atom, donor atom, acceptor molecule, acceptor atom, score
      P1  H  7997  8009       L1    11  1.00
      P1  H 10752 10765       L1    17  0.85

> <Gold.PLP.Chemscore.Internal.Correction>
0.0077

> <Gold.Rescore>
     Score         DG    S(hbond)    S(metal)    S(lipo)     H(rot)  DE(clash)    DE(int)     intcor
     19.04     -20.05       1.67        0.00     103.24       1.21       0.02       0.99       ----

> <Gold.Chemscore.Fitness>
19.0355

> <Gold.Chemscore.DG>
-20.0451

> <Gold.Chemscore.ZeroCoef>
-5.4800

> <Gold.Chemscore.Hbond>
1.6723

> <Gold.Chemscore.Metal>
0.0000

> <Gold.Chemscore.Lipo>
103.2443

> <Gold.Chemscore.Internal_Hbond>
0.0000

> <Gold.Chemscore.DEClash>
0.0237

> <Gold.Chemscore.DEInternal>
0.9859

> <Gold.Chemscore.Rot>
1.2109

> <Gold.Chemscore.Internal.Correction>
   9.000000E+99

> <Gold.Chemscore.Hbonds>
donor molecule, donor type, donor heavy atom, donor atom, acceptor molecule, acceptor atom, score
      P1  H  7997  8009       L1    11  0.99
      P1  H 10752 10765       L1    17  0.07

> <Gold.Chemscore.Hbond.Weighted>
-5.5855

> <Gold.Chemscore.Metal.Weighted>
-0.0000

> <Gold.Chemscore.Lipo.Weighted>
-12.0796

> <Gold.Chemscore.Internal_Hbond.Weighted>
0.0000

> <Gold.Chemscore.DEClash.Weighted>
0.0237

> <Gold.Chemscore.DEInternal.Weighted>
0.9859

> <Gold.Chemscore.Rot.Weighted>
3.1000

> <Gold.Chemscore.Internal.Correction.Weighted>
   9.000000E+99

> <Gold.Protein.RotatedTorsions>
[ 6907 6896 6895 6894 ] final  100.79 input  -60.11 | X-H torsion
[ 7974 7965 7964 7962 ] final -127.74 input  175.53 | X-H torsion
[ 8008 7997 7996 7995 ] final -163.73 input   59.86 | X-H torsion
[ 10167 10162 10161 10158 ] final  -90.34 input  -65.29 | X-H torsion
[ 10718 10713 10712 10709 ] final  166.34 input   66.30 | X-H torsion
[ 10763 10752 10751 10750 ] final -135.95 input  -60.55 | X-H torsion
[ 11005 11000 10999 10996 ] final -155.05 input  -57.11 | X-H torsion

> <Gold.Protein.ActiveResidues>
 VAL166  LYS551  ARG553  GLY616  TRP617  ASP618  TYR619  PRO620  LYS621  CYS622 
 ASP623  PHE694  ASN695  SER759  ASP760  ASP761  ALA762  ILE779  LEU786  VAL792 
 PHE793  MET794  SER795  GLU796  ALA797  LYS798  CYS799  TRP800  GLU811  SER814 

> <Gold.Protein.RotatedAtoms>
  152.5364  134.0223  159.7986 H   0  0  0  0  0  0  0  0  0  0  0  0  # atno 6907 bound_to 6896
  151.0407  133.5701  159.2658 H   0  0  0  0  0  0  0  0  0  0  0  0  # atno 6908 bound_to 6896
  151.2671  135.0680  159.9174 H   0  0  0  0  0  0  0  0  0  0  0  0  # atno 6909 bound_to 6896
  144.9741  140.7575  143.4653 H   0  0  0  0  0  0  0  0  0  0  0  0  # atno 7974 bound_to 7965
  155.8255  140.0926  157.1823 H   0  0  0  0  0  0  0  0  0  0  0  0  # atno 8008 bound_to 7997
  154.3979  140.1429  156.3612 H   0  0  0  0  0  0  0  0  0  0  0  0  # atno 8009 bound_to 7997
  155.8221  140.3446  155.5523 H   0  0  0  0  0  0  0  0  0  0  0  0  # atno 8010 bound_to 7997
  140.3559  143.2867  151.9671 H   0  0  0  0  0  0  0  0  0  0  0  0  # atno 10167 bound_to 10162
  157.0672  131.0356  151.2625 H   0  0  0  0  0  0  0  0  0  0  0  0  # atno 10718 bound_to 10713
  154.8693  135.3687  154.4982 H   0  0  0  0  0  0  0  0  0  0  0  0  # atno 10763 bound_to 10752
  153.5624  135.7022  153.5546 H   0  0  0  0  0  0  0  0  0  0  0  0  # atno 10764 bound_to 10752
  153.3616  135.4045  155.1686 H   0  0  0  0  0  0  0  0  0  0  0  0  # atno 10765 bound_to 10752
  140.6907  134.4044  157.5219 H   0  0  0  0  0  0  0  0  0  0  0  0  # atno 11005 bound_to 11000
  145.2516  139.2029  143.4939 LP  0  0  0  0  0  0  0  0  0  0  0  0  # atno 17320 bound_to 7965
  146.3390  140.2430  142.8596 LP  0  0  0  0  0  0  0  0  0  0  0  0  # atno 17321 bound_to 7965
  139.4820  144.6035  151.7563 LP  0  0  0  0  0  0  0  0  0  0  0  0  # atno 17342 bound_to 10162
  140.5174  144.0932  150.6012 LP  0  0  0  0  0  0  0  0  0  0  0  0  # atno 17343 bound_to 10162
  157.4907  130.7820  149.7505 LP  0  0  0  0  0  0  0  0  0  0  0  0  # atno 17370 bound_to 10713
  155.9961  130.3908  150.2793 LP  0  0  0  0  0  0  0  0  0  0  0  0  # atno 17371 bound_to 10713
  139.8924  134.8755  156.2271 LP  0  0  0  0  0  0  0  0  0  0  0  0  # atno 17394 bound_to 11000
  141.0244  133.7023  156.1322 LP  0  0  0  0  0  0  0  0  0  0  0  0  # atno 17395 bound_to 11000

$$$$
