AV-unprocessed.smi:1644|AV-procd|sdf|6595|dock8
  -GOLD-   22720 7293D 1   1.00000     0.00000
 Structure written by MMmdl.
 48 50  0  0  0  0  0  0  0  0  2 V2000
  143.8114  145.5937  155.6993 C   0  0  0  0  0  0  0  0  0  0  0  0
  143.7862  144.2230  155.0150 C   0  0  0  0  0  0  0  0  0  0  0  0
  144.2697  143.0913  155.9474 C   0  0  0  0  0  0  0  0  0  0  0  0
  145.8025  142.9595  156.1234 C   0  0  1  0  0  0  0  0  0  0  0  0
  146.1518  141.8367  156.9682 N   0  5  0  0  0  0  0  0  0  0  0  0
  146.9819  141.0224  156.2746 C   0  0  0  0  0  0  0  0  0  0  0  0
  147.4754  139.9665  156.6701 O   0  0  0  0  0  0  0  0  0  0  0  0
  147.2163  141.5054  155.0384 N   0  0  0  0  0  0  0  0  0  0  0  0
  148.0381  140.8478  154.0175 C   0  0  0  0  0  0  0  0  0  0  0  0
  149.3597  140.3128  154.6068 C   0  0  1  0  0  0  0  0  0  0  0  0
  150.1523  139.7919  153.5567 O   0  0  0  0  0  0  0  0  0  0  0  0
  150.1580  141.4244  155.3135 C   0  0  0  0  0  0  0  0  0  0  0  0
  150.9286  140.9247  156.4379 N   0  0  0  0  0  0  0  0  0  0  0  0
  151.3825  139.6704  156.6236 C   0  0  0  0  0  0  0  0  0  0  0  0
  152.0786  139.4327  157.7321 N   0  0  0  0  0  0  0  0  0  0  0  0
  152.0735  140.6783  158.3366 C   0  0  0  0  0  0  0  0  0  0  0  0
  152.6435  141.1091  159.5548 C   0  0  0  0  0  0  0  0  0  0  0  0
  152.5114  142.4496  159.9827 C   0  0  0  0  0  0  0  0  0  0  0  0
  153.1394  142.8698  161.2999 C   0  0  0  0  0  0  0  0  0  0  0  0
  151.8003  143.3833  159.1863 C   0  0  0  0  0  0  0  0  0  0  0  0
  151.6427  144.8281  159.6259 C   0  0  0  0  0  0  0  0  0  0  0  0
  151.2259  142.9697  157.9662 C   0  0  0  0  0  0  0  0  0  0  0  0
  151.3637  141.6333  157.5519 C   0  0  0  0  0  0  0  0  0  0  0  0
  146.5521  142.6484  154.8439 C   0  0  0  0  0  0  0  0  0  0  0  0
  146.5229  143.3433  153.8275 O   0  0  0  0  0  0  0  0  0  0  0  0
  143.4660  146.3726  155.0193 H   0  0  0  0  0  0  0  0  0  0  0  0
  144.8201  145.8549  156.0202 H   0  0  0  0  0  0  0  0  0  0  0  0
  143.1650  145.6075  156.5771 H   0  0  0  0  0  0  0  0  0  0  0  0
  142.7710  144.0164  154.6750 H   0  0  0  0  0  0  0  0  0  0  0  0
  144.4070  144.2682  154.1198 H   0  0  0  0  0  0  0  0  0  0  0  0
  143.8186  143.2319  156.9305 H   0  0  0  0  0  0  0  0  0  0  0  0
  143.8793  142.1406  155.5818 H   0  0  0  0  0  0  0  0  0  0  0  0
  146.1932  143.8957  156.5244 H   0  0  0  0  0  0  0  0  0  0  0  0
  147.4854  140.0538  153.5119 H   0  0  0  0  0  0  0  0  0  0  0  0
  148.2542  141.5819  153.2394 H   0  0  0  0  0  0  0  0  0  0  0  0
  149.1578  139.5136  155.3213 H   0  0  0  0  0  0  0  0  0  0  0  0
  149.7007  139.9361  152.7395 H   0  0  0  0  0  0  0  0  0  0  0  0
  150.8330  141.9187  154.6130 H   0  0  0  0  0  0  0  0  0  0  0  0
  149.4804  142.1924  155.6890 H   0  0  0  0  0  0  0  0  0  0  0  0
  151.1900  138.8870  155.9050 H   0  0  0  0  0  0  0  0  0  0  0  0
  153.1846  140.3973  160.1608 H   0  0  0  0  0  0  0  0  0  0  0  0
  153.8946  143.6383  161.1339 H   0  0  0  0  0  0  0  0  0  0  0  0
  153.6221  142.0284  161.7979 H   0  0  0  0  0  0  0  0  0  0  0  0
  152.3822  143.2681  161.9755 H   0  0  0  0  0  0  0  0  0  0  0  0
  151.0907  145.4106  158.8875 H   0  0  0  0  0  0  0  0  0  0  0  0
  152.6179  145.2967  159.7595 H   0  0  0  0  0  0  0  0  0  0  0  0
  151.0988  144.8826  160.5691 H   0  0  0  0  0  0  0  0  0  0  0  0
  150.6788  143.6688  157.3505 H   0  0  0  0  0  0  0  0  0  0  0  0
  1  2  1  0  0  0  0
  1 26  1  0  0  0  0
  1 27  1  0  0  0  0
  1 28  1  0  0  0  0
  2  3  1  0  0  0  0
  2 29  1  0  0  0  0
  2 30  1  0  0  0  0
  3  4  1  0  0  0  0
  3 31  1  0  0  0  0
  3 32  1  0  0  0  0
  4 24  1  0  0  0  0
  4  5  1  0  0  0  0
  4 33  1  0  0  0  0
  5  6  1  0  0  0  0
  6  7  2  0  0  0  0
  6  8  1  0  0  0  0
  8  9  1  0  0  0  0
  8 24  1  0  0  0  0
  9 10  1  0  0  0  0
  9 34  1  0  0  0  0
  9 35  1  0  0  0  0
 10 11  1  0  0  0  0
 10 12  1  0  0  0  0
 10 36  1  0  0  0  0
 11 37  1  0  0  0  0
 12 13  1  0  0  0  0
 12 38  1  0  0  0  0
 12 39  1  0  0  0  0
 13 23  1  0  0  0  0
 13 14  1  0  0  0  0
 14 15  2  0  0  0  0
 14 40  1  0  0  0  0
 15 16  1  0  0  0  0
 16 23  2  0  0  0  0
 16 17  1  0  0  0  0
 17 18  2  0  0  0  0
 17 41  1  0  0  0  0
 18 19  1  0  0  0  0
 18 20  1  0  0  0  0
 19 42  1  0  0  0  0
 19 43  1  0  0  0  0
 19 44  1  0  0  0  0
 20 21  1  0  0  0  0
 20 22  2  0  0  0  0
 21 45  1  0  0  0  0
 21 46  1  0  0  0  0
 21 47  1  0  0  0  0
 22 23  1  0  0  0  0
 22 48  1  0  0  0  0
 24 25  2  0  0  0  0
M  CHG  1   5  -1
M  END
> <s_m_source_file>
AV-unprocessed.smi

> <i_m_source_file_index>
1644

> <i_lp_mmshare_version>
43012

> <i_f3d_flags>
0

> <s_epik_input>
W0NIM11bQ0gyXVtDSDJdW0NAQEhdMVtOSF1DKD1PKU4oQzE9TylbQ0gyXVtDQEhdKFtPSF0pW0NIMl1uKFtjSF1uMiljKGMyMylbY0hdYyhbQ0gzXSljKFtjSF0zKVtDSDNd

> <s_epik_cmdline>
J2VwaWtfcHl0aG9uJywgJy1waCcsICc3LjAnLCAnLXRuJywgJzgnLCAnLW1hJywgJzIwMCcsICctbWV0YWxfYmluZGluZycsICctaW1hZScsICc8aW5maWxlLm1hZT4nLCAnLW9tYWUnLCAnPG91dGZpbGUubWFlPic=

> <r_lp_tautomer_probability>
1

> <r_epik_Ionization_Penalty>
5.95212

> <r_epik_Ionization_Penalty_Charging>
5.84419

> <r_epik_Ionization_Penalty_Neutral>
0.107924

> <r_epik_State_Penalty>
5.94088

> <r_epik_Charging_Adjusted_Penalty>
11.7851

> <i_epik_Tot_Q>
-1

> <i_epik_Tot_abs_Q>
1

> <r_epik_Metal_State_Penalty>
1.99095

> <b_epik_Metal_Only>
1

> <s_lp_Force_Field>
OPLS_2005

> <r_lp_Energy>
19.6047

> <b_lp_Chiralities_Consistent>
1

> <s_lp_Variant>
AV-unprocessed.smi:1644-12

> <Gold.Version>
5.8.1

> <Gold.Id.Protein>
6NUR|6NUR_protein|mol2

> <Gold.PLP.Fitness>
51.1341

> <Gold.PLP.PLP>
-47.7140

> <Gold.PLP.part.hbond>
-2.8133

> <Gold.PLP.part.metal>
0.0000

> <Gold.PLP.part.buried>
-5.1952

> <Gold.PLP.part.nonpolar>
-39.8314

> <Gold.PLP.part.repulsive>
0.2814

> <Gold.PLP.ligand.clash>
0.0000

> <Gold.PLP.ligand.torsion>
1.0785

> <Gold.PLP.Chemscore.Hbond>
1.8160

> <Gold.PLP.Chemscore.CHOScore>
0.0000

> <Gold.PLP.Chemscore.Metal>
0.0000

> <Gold.Chemscore.Hbonds>
donor molecule, donor type, donor heavy atom, donor atom, acceptor molecule, acceptor atom, score
      L1  H    11    37       P1  7957  1.00
      P1  H  7989  7998       L1    11  0.78

> <Gold.PLP.Chemscore.Internal.Correction>
0.1291

> <Gold.Rescore>
     Score         DG    S(hbond)    S(metal)    S(lipo)     H(rot)  DE(clash)    DE(int)     intcor
     13.27     -15.81       1.05        0.00     116.13       2.65       0.24       2.30       ----

> <Gold.Chemscore.Fitness>
13.2750

> <Gold.Chemscore.DG>
-15.8084

> <Gold.Chemscore.ZeroCoef>
-5.4800

> <Gold.Chemscore.Hbond>
1.0545

> <Gold.Chemscore.Metal>
0.0000

> <Gold.Chemscore.Lipo>
116.1265

> <Gold.Chemscore.Internal_Hbond>
0.0000

> <Gold.Chemscore.DEClash>
0.2357

> <Gold.Chemscore.DEInternal>
2.2978

> <Gold.Chemscore.Rot>
2.6486

> <Gold.Chemscore.Internal.Correction>
   9.000000E+99

> <Gold.Chemscore.Hbonds>
donor molecule, donor type, donor heavy atom, donor atom, acceptor molecule, acceptor atom, score
      L1  H    11    37       P1  7957  0.95
      P1  H  7989  7998       L1    11  0.19

> <Gold.Chemscore.Hbond.Weighted>
-3.5221

> <Gold.Chemscore.Metal.Weighted>
-0.0000

> <Gold.Chemscore.Lipo.Weighted>
-13.5868

> <Gold.Chemscore.Internal_Hbond.Weighted>
0.0000

> <Gold.Chemscore.DEClash.Weighted>
0.2357

> <Gold.Chemscore.DEInternal.Weighted>
2.2978

> <Gold.Chemscore.Rot.Weighted>
6.7804

> <Gold.Chemscore.Internal.Correction.Weighted>
   9.000000E+99

> <Gold.Protein.RotatedTorsions>
[ 6907 6896 6895 6894 ] final  -46.33 input  -60.11 | X-H torsion
[ 7974 7965 7964 7962 ] final  153.36 input  175.53 | X-H torsion
[ 8008 7997 7996 7995 ] final  129.98 input   59.86 | X-H torsion
[ 10167 10162 10161 10158 ] final -161.57 input  -65.29 | X-H torsion
[ 10718 10713 10712 10709 ] final  -31.06 input   66.30 | X-H torsion
[ 10763 10752 10751 10750 ] final   27.91 input  -60.55 | X-H torsion
[ 11005 11000 10999 10996 ] final -167.92 input  -57.11 | X-H torsion

> <Gold.Protein.ActiveResidues>
 VAL166  LYS551  ARG553  GLY616  TRP617  ASP618  TYR619  PRO620  LYS621  CYS622 
 ASP623  PHE694  ASN695  SER759  ASP760  ASP761  ALA762  ILE779  LEU786  VAL792 
 PHE793  MET794  SER795  GLU796  ALA797  LYS798  CYS799  TRP800  GLU811  SER814 

> <Gold.Protein.RotatedAtoms>
  150.9124  134.8540  159.7433 H   0  0  0  0  0  0  0  0  0  0  0  0  # atno 6907 bound_to 6896
  152.4951  134.4340  159.9531 H   0  0  0  0  0  0  0  0  0  0  0  0  # atno 6908 bound_to 6896
  151.4381  133.3611  159.2813 H   0  0  0  0  0  0  0  0  0  0  0  0  # atno 6909 bound_to 6896
  144.8160  139.6790  143.6121 H   0  0  0  0  0  0  0  0  0  0  0  0  # atno 7974 bound_to 7965
  156.2946  140.2607  156.2688 H   0  0  0  0  0  0  0  0  0  0  0  0  # atno 8008 bound_to 7997
  154.9716  140.0391  157.2255 H   0  0  0  0  0  0  0  0  0  0  0  0  # atno 8009 bound_to 7997
  154.7854  140.2802  155.6037 H   0  0  0  0  0  0  0  0  0  0  0  0  # atno 8010 bound_to 7997
  139.6455  144.0179  152.2124 H   0  0  0  0  0  0  0  0  0  0  0  0  # atno 10167 bound_to 10162
  156.3920  130.4374  149.7387 H   0  0  0  0  0  0  0  0  0  0  0  0  # atno 10718 bound_to 10713
  153.0525  135.6526  154.0657 H   0  0  0  0  0  0  0  0  0  0  0  0  # atno 10763 bound_to 10752
  154.0342  135.2909  155.3366 H   0  0  0  0  0  0  0  0  0  0  0  0  # atno 10764 bound_to 10752
  154.6822  135.5315  153.8346 H   0  0  0  0  0  0  0  0  0  0  0  0  # atno 10765 bound_to 10752
  140.5479  134.5458  157.5115 H   0  0  0  0  0  0  0  0  0  0  0  0  # atno 11005 bound_to 11000
  146.2463  139.6105  142.9457 LP  0  0  0  0  0  0  0  0  0  0  0  0  # atno 17320 bound_to 7965
  145.5214  141.0431  143.2433 LP  0  0  0  0  0  0  0  0  0  0  0  0  # atno 17321 bound_to 7965
  139.9880  144.6381  150.7840 LP  0  0  0  0  0  0  0  0  0  0  0  0  # atno 17342 bound_to 10162
  140.7512  143.2969  151.3181 LP  0  0  0  0  0  0  0  0  0  0  0  0  # atno 17343 bound_to 10162
  156.4437  130.7873  151.2895 LP  0  0  0  0  0  0  0  0  0  0  0  0  # atno 17370 bound_to 10713
  157.7499  131.0117  150.3355 LP  0  0  0  0  0  0  0  0  0  0  0  0  # atno 17371 bound_to 10713
  139.9470  134.7684  156.0538 LP  0  0  0  0  0  0  0  0  0  0  0  0  # atno 17394 bound_to 11000
  141.1189  133.6619  156.3164 LP  0  0  0  0  0  0  0  0  0  0  0  0  # atno 17395 bound_to 11000

$$$$
