AV-unprocessed.smi:1966|AV-procd|sdf|7952|dock7
  -GOLD-   2272010123D 1   1.00000     0.00000
 Structure written by MMmdl.
 53 54  0  0  0  0  0  0  0  0  1 V2000
  145.1408  142.2723  156.2902 C   0  0  0  0  0  0  0  0  0  0  0  0
  143.7960  141.6143  156.5790 C   0  0  0  0  0  0  0  0  0  0  0  0
  143.2843  141.7192  157.6932 O   0  0  0  0  0  0  0  0  0  0  0  0
  143.2319  140.9409  155.5637 N   0  0  0  0  0  0  0  0  0  0  0  0
  141.9520  140.2309  155.6236 C   0  0  2  0  0  0  0  0  0  0  0  0
  142.1955  138.7399  155.3174 C   0  0  0  0  0  0  0  0  0  0  0  0
  141.7765  137.8774  156.0907 O   0  0  0  0  0  0  0  0  0  0  0  0
  142.8699  138.4803  154.1821 N   0  0  0  0  0  0  0  0  0  0  0  0
  143.2695  137.2191  153.6649 C   0  0  0  0  0  0  0  0  0  0  0  0
  142.7505  135.9811  154.1119 C   0  0  0  0  0  0  0  0  0  0  0  0
  143.2420  134.7913  153.5421 C   0  0  0  0  0  0  0  0  0  0  0  0
  144.2407  134.8733  152.5506 C   0  0  0  0  0  0  0  0  0  0  0  0
  144.7312  133.6893  151.9822 N   0  0  0  0  0  0  0  0  0  0  0  0
  143.7182  132.9221  151.2693 C   0  0  0  0  0  0  0  0  0  0  0  0
  144.3524  131.7134  150.5530 C   0  0  1  0  0  0  0  0  0  0  0  0
  145.1467  132.0938  149.2908 C   0  0  0  0  0  0  0  0  0  0  0  0
  145.1378  130.9512  151.4742 O   0  0  0  0  0  0  0  0  0  0  0  0
  146.1456  131.6931  152.1626 C   0  0  2  0  0  0  0  0  0  0  0  0
  146.8717  130.7375  153.1146 C   0  0  0  0  0  0  0  0  0  0  0  0
  145.4939  132.8690  152.9124 C   0  0  0  0  0  0  0  0  0  0  0  0
  144.7524  136.0536  152.1276 N   0  0  0  0  0  0  0  0  0  0  0  0
  144.2780  137.1908  152.6793 C   0  0  0  0  0  0  0  0  0  0  0  0
  140.9856  140.8411  154.5653 C   0  0  0  0  0  0  0  0  0  0  0  0
  140.6029  142.2950  154.9060 C   0  0  0  0  0  0  0  0  0  0  0  0
  139.6971  140.0132  154.3765 C   0  0  0  0  0  0  0  0  0  0  0  0
  145.7784  141.6098  155.7039 H   0  0  0  0  0  0  0  0  0  0  0  0
  145.6606  142.5101  157.2188 H   0  0  0  0  0  0  0  0  0  0  0  0
  144.9959  143.1972  155.7317 H   0  0  0  0  0  0  0  0  0  0  0  0
  143.7303  140.9016  154.6865 H   0  0  0  0  0  0  0  0  0  0  0  0
  141.5164  140.3440  156.6189 H   0  0  0  0  0  0  0  0  0  0  0  0
  143.0656  139.2756  153.5910 H   0  0  0  0  0  0  0  0  0  0  0  0
  142.0018  135.9209  154.8866 H   0  0  0  0  0  0  0  0  0  0  0  0
  142.8608  133.8339  153.8661 H   0  0  0  0  0  0  0  0  0  0  0  0
  142.9703  132.5691  151.9809 H   0  0  0  0  0  0  0  0  0  0  0  0
  143.1995  133.5600  150.5526 H   0  0  0  0  0  0  0  0  0  0  0  0
  143.5429  131.0588  150.2295 H   0  0  0  0  0  0  0  0  0  0  0  0
  144.4971  132.5694  148.5557 H   0  0  0  0  0  0  0  0  0  0  0  0
  145.5807  131.2098  148.8232 H   0  0  0  0  0  0  0  0  0  0  0  0
  145.9560  132.7912  149.5050 H   0  0  0  0  0  0  0  0  0  0  0  0
  146.8738  132.0746  151.4467 H   0  0  0  0  0  0  0  0  0  0  0  0
  147.6591  131.2537  153.6641 H   0  0  0  0  0  0  0  0  0  0  0  0
  147.3337  129.9169  152.5651 H   0  0  0  0  0  0  0  0  0  0  0  0
  146.1831  130.3059  153.8416 H   0  0  0  0  0  0  0  0  0  0  0  0
  146.2593  133.4767  153.3973 H   0  0  0  0  0  0  0  0  0  0  0  0
  144.8342  132.4936  153.6962 H   0  0  0  0  0  0  0  0  0  0  0  0
  144.7169  138.1091  152.3170 H   0  0  0  0  0  0  0  0  0  0  0  0
  141.4974  140.8647  153.6014 H   0  0  0  0  0  0  0  0  0  0  0  0
  140.1181  142.3570  155.8806 H   0  0  0  0  0  0  0  0  0  0  0  0
  139.9130  142.7033  154.1670 H   0  0  0  0  0  0  0  0  0  0  0  0
  141.4719  142.9528  154.9236 H   0  0  0  0  0  0  0  0  0  0  0  0
  139.1569  139.9049  155.3175 H   0  0  0  0  0  0  0  0  0  0  0  0
  139.9017  139.0139  153.9919 H   0  0  0  0  0  0  0  0  0  0  0  0
  139.0251  140.4914  153.6634 H   0  0  0  0  0  0  0  0  0  0  0  0
  1  2  1  0  0  0  0
  1 26  1  0  0  0  0
  1 27  1  0  0  0  0
  1 28  1  0  0  0  0
  2  3  2  0  0  0  0
  2  4  1  0  0  0  0
  4  5  1  0  0  0  0
  4 29  1  0  0  0  0
  5  6  1  0  0  0  0
  5 23  1  0  0  0  0
  5 30  1  0  0  0  0
  6  7  2  0  0  0  0
  6  8  1  0  0  0  0
  8  9  1  0  0  0  0
  8 31  1  0  0  0  0
  9 22  1  0  0  0  0
  9 10  2  0  0  0  0
 10 11  1  0  0  0  0
 10 32  1  0  0  0  0
 11 12  2  0  0  0  0
 11 33  1  0  0  0  0
 12 13  1  0  0  0  0
 12 21  1  0  0  0  0
 13 20  1  0  0  0  0
 13 14  1  0  0  0  0
 14 15  1  0  0  0  0
 14 34  1  0  0  0  0
 14 35  1  0  0  0  0
 15 16  1  0  0  0  0
 15 17  1  0  0  0  0
 15 36  1  0  0  0  0
 16 37  1  0  0  0  0
 16 38  1  0  0  0  0
 16 39  1  0  0  0  0
 17 18  1  0  0  0  0
 18 19  1  0  0  0  0
 18 20  1  0  0  0  0
 18 40  1  0  0  0  0
 19 41  1  0  0  0  0
 19 42  1  0  0  0  0
 19 43  1  0  0  0  0
 20 44  1  0  0  0  0
 20 45  1  0  0  0  0
 21 22  2  0  0  0  0
 22 46  1  0  0  0  0
 23 24  1  0  0  0  0
 23 25  1  0  0  0  0
 23 47  1  0  0  0  0
 24 48  1  0  0  0  0
 24 49  1  0  0  0  0
 24 50  1  0  0  0  0
 25 51  1  0  0  0  0
 25 52  1  0  0  0  0
 25 53  1  0  0  0  0
M  END
> <s_m_source_file>
AV-unprocessed.smi

> <i_m_source_file_index>
1966

> <i_lp_mmshare_version>
43012

> <i_f3d_flags>
0

> <s_epik_input>
W0NIM11DKD1PKVtOSF1bQ0BASF0oW0NIXShbQ0gzXSlbQ0gzXSlDKD1PKVtOSF1jMVtjSF1bY0hdYyhuW2NIXTEpTjJbQ0gyXVtDQEBIXShbQ0gzXSlPW0NAQEhdKFtDSDNdKVtDSDJdMg==

> <s_epik_cmdline>
J2VwaWtfcHl0aG9uJywgJy1waCcsICc3LjAnLCAnLXRuJywgJzgnLCAnLW1hJywgJzIwMCcsICctbWV0YWxfYmluZGluZycsICctaW1hZScsICc8aW5maWxlLm1hZT4nLCAnLW9tYWUnLCAnPG91dGZpbGUubWFlPic=

> <r_lp_tautomer_probability>
1

> <r_epik_Ionization_Penalty>
0.000679699

> <r_epik_Ionization_Penalty_Charging>
0

> <r_epik_Ionization_Penalty_Neutral>
0.000679699

> <r_epik_State_Penalty>
0.000430485

> <r_epik_Charging_Adjusted_Penalty>
0.000430485

> <i_epik_Tot_Q>
0

> <i_epik_Tot_abs_Q>
0

> <r_epik_Metal_State_Penalty>
-0

> <b_epik_Metal_Only>
0

> <s_lp_Force_Field>
OPLS_2005

> <r_lp_Energy>
29.6381

> <b_lp_Chiralities_Consistent>
1

> <s_lp_Variant>
AV-unprocessed.smi:1966-5

> <Gold.Version>
5.8.1

> <Gold.Id.Protein>
6NUR|6NUR_protein|mol2

> <Gold.PLP.Fitness>
44.0549

> <Gold.PLP.PLP>
-33.5835

> <Gold.PLP.part.hbond>
-2.0000

> <Gold.PLP.part.metal>
0.0000

> <Gold.PLP.part.buried>
-4.4966

> <Gold.PLP.part.nonpolar>
-27.3532

> <Gold.PLP.part.repulsive>
0.4252

> <Gold.PLP.ligand.clash>
0.0000

> <Gold.PLP.ligand.torsion>
0.2957

> <Gold.PLP.Chemscore.Hbond>
2.0000

> <Gold.PLP.Chemscore.CHOScore>
1.6388

> <Gold.PLP.Chemscore.Metal>
0.0000

> <Gold.Chemscore.Hbonds>
donor molecule, donor type, donor heavy atom, donor atom, acceptor molecule, acceptor atom, score
      L1  H     4    29       P1 10175  0.51
      L1  H     8    31       P1 10175  1.00
      L1  C    22    46       P1 10171  0.37
      L1  C    22    46       P1 10175  0.85

> <Gold.PLP.Chemscore.Internal.Correction>
0.1465

> <Gold.Rescore>
     Score         DG    S(hbond)    S(metal)    S(lipo)     H(rot)  DE(clash)    DE(int)     intcor
     15.44     -17.68       1.97        0.00      84.84       1.68       0.12       2.12       ----

> <Gold.Chemscore.Fitness>
15.4417

> <Gold.Chemscore.DG>
-17.6842

> <Gold.Chemscore.ZeroCoef>
-5.4800

> <Gold.Chemscore.Hbond>
1.9666

> <Gold.Chemscore.Metal>
0.0000

> <Gold.Chemscore.Lipo>
84.8363

> <Gold.Chemscore.Internal_Hbond>
0.0000

> <Gold.Chemscore.DEClash>
0.1196

> <Gold.Chemscore.DEInternal>
2.1229

> <Gold.Chemscore.Rot>
1.6759

> <Gold.Chemscore.Internal.Correction>
   9.000000E+99

> <Gold.Chemscore.Hbonds>
donor molecule, donor type, donor heavy atom, donor atom, acceptor molecule, acceptor atom, score
      L1  H     4    29       P1 10175  0.46
      L1  H     8    31       P1 10175  1.00

> <Gold.Chemscore.Hbond.Weighted>
-6.5686

> <Gold.Chemscore.Metal.Weighted>
-0.0000

> <Gold.Chemscore.Lipo.Weighted>
-9.9259

> <Gold.Chemscore.Internal_Hbond.Weighted>
0.0000

> <Gold.Chemscore.DEClash.Weighted>
0.1196

> <Gold.Chemscore.DEInternal.Weighted>
2.1229

> <Gold.Chemscore.Rot.Weighted>
4.2902

> <Gold.Chemscore.Internal.Correction.Weighted>
   9.000000E+99

> <Gold.Protein.RotatedTorsions>
[ 6907 6896 6895 6894 ] final -154.38 input  -60.11 | X-H torsion
[ 7974 7965 7964 7962 ] final   83.20 input  175.53 | X-H torsion
[ 8008 7997 7996 7995 ] final  104.54 input   59.86 | X-H torsion
[ 10167 10162 10161 10158 ] final -106.16 input  -65.29 | X-H torsion
[ 10718 10713 10712 10709 ] final   98.12 input   66.30 | X-H torsion
[ 10763 10752 10751 10750 ] final -146.42 input  -60.55 | X-H torsion
[ 11005 11000 10999 10996 ] final  -68.78 input  -57.11 | X-H torsion

> <Gold.Protein.ActiveResidues>
 VAL166  LYS551  ARG553  GLY616  TRP617  ASP618  TYR619  PRO620  LYS621  CYS622 
 ASP623  PHE694  ASN695  SER759  ASP760  ASP761  ALA762  ILE779  LEU786  VAL792 
 PHE793  MET794  SER795  GLU796  ALA797  LYS798  CYS799  TRP800  GLU811  SER814 

> <Gold.Protein.RotatedAtoms>
  151.2566  133.4323  159.2613 H   0  0  0  0  0  0  0  0  0  0  0  0  # atno 6907 bound_to 6896
  151.0569  134.9711  159.8250 H   0  0  0  0  0  0  0  0  0  0  0  0  # atno 6908 bound_to 6896
  152.5392  134.2518  159.8954 H   0  0  0  0  0  0  0  0  0  0  0  0  # atno 6909 bound_to 6896
  145.6150  139.2375  143.2171 H   0  0  0  0  0  0  0  0  0  0  0  0  # atno 7974 bound_to 7965
  156.1581  140.3146  155.8761 H   0  0  0  0  0  0  0  0  0  0  0  0  # atno 8008 bound_to 7997
  155.3837  140.0489  157.3060 H   0  0  0  0  0  0  0  0  0  0  0  0  # atno 8009 bound_to 7997
  154.5120  140.2168  155.9148 H   0  0  0  0  0  0  0  0  0  0  0  0  # atno 8010 bound_to 7997
  140.1908  143.3894  152.1208 H   0  0  0  0  0  0  0  0  0  0  0  0  # atno 10167 bound_to 10162
  157.6901  131.0630  150.4748 H   0  0  0  0  0  0  0  0  0  0  0  0  # atno 10718 bound_to 10713
  154.8336  135.3387  154.6659 H   0  0  0  0  0  0  0  0  0  0  0  0  # atno 10763 bound_to 10752
  153.7276  135.6954  153.5001 H   0  0  0  0  0  0  0  0  0  0  0  0  # atno 10764 bound_to 10752
  153.2335  135.4408  155.0573 H   0  0  0  0  0  0  0  0  0  0  0  0  # atno 10765 bound_to 10752
  141.1539  133.6748  156.6498 H   0  0  0  0  0  0  0  0  0  0  0  0  # atno 11005 bound_to 11000
  146.1475  140.6972  142.9338 LP  0  0  0  0  0  0  0  0  0  0  0  0  # atno 17320 bound_to 7965
  144.7254  140.4508  143.6977 LP  0  0  0  0  0  0  0  0  0  0  0  0  # atno 17321 bound_to 7965
  139.5257  144.7099  151.5240 LP  0  0  0  0  0  0  0  0  0  0  0  0  # atno 17342 bound_to 10162
  140.6457  143.8799  150.6735 LP  0  0  0  0  0  0  0  0  0  0  0  0  # atno 17343 bound_to 10162
  156.5084  130.4133  149.6315 LP  0  0  0  0  0  0  0  0  0  0  0  0  # atno 17370 bound_to 10713
  156.3263  130.7308  151.2229 LP  0  0  0  0  0  0  0  0  0  0  0  0  # atno 17371 bound_to 10713
  140.3329  134.7913  157.4340 LP  0  0  0  0  0  0  0  0  0  0  0  0  # atno 17394 bound_to 11000
  140.1002  134.5483  155.8360 LP  0  0  0  0  0  0  0  0  0  0  0  0  # atno 17395 bound_to 11000

$$$$
