AV-unprocessed.smi:1941|AV-procd|sdf|7846|dock1
  -GOLD-   22720 9593D 1   1.00000     0.00000
 Structure written by MMmdl.
 40 41  0  0  0  0  0  0  0  0  1 V2000
  152.0033  145.7251  159.9806 C   0  0  0  0  0  0  0  0  0  0  0  0
  152.0080  144.3487  159.4105 C   0  0  0  0  0  0  0  0  0  0  0  0
  151.1188  143.9197  158.5119 N   0  0  0  0  0  0  0  0  0  0  0  0
  151.3218  142.5847  158.1495 C   0  0  0  0  0  0  0  0  0  0  0  0
  150.3882  141.9239  157.1772 C   0  0  0  0  0  0  0  0  0  0  0  0
  148.9813  141.6614  157.7497 C   0  0  0  0  0  0  0  0  0  0  0  0
  148.1647  142.8724  157.7996 N   0  0  0  0  0  0  0  0  0  0  0  0
  146.9478  142.9669  158.3549 C   0  0  0  0  0  0  0  0  0  0  0  0
  146.3740  142.0387  158.9250 O   0  0  0  0  0  0  0  0  0  0  0  0
  146.4241  144.1903  158.1933 N   0  0  0  0  0  0  0  0  0  0  0  0
  145.0865  144.6013  158.6139 C   0  0  1  0  0  0  0  0  0  0  0  0
  144.0909  143.4941  158.2344 C   0  0  0  0  0  0  0  0  0  0  0  0
  145.0847  144.8990  160.1280 C   0  0  2  0  0  0  0  0  0  0  0  0
  145.7072  143.8024  160.9940 C   0  0  0  0  0  0  0  0  0  0  0  0
  145.0482  144.0548  162.3300 C   0  0  0  0  0  0  0  0  0  0  0  0
  143.6320  144.4319  161.9097 C   0  0  0  0  0  0  0  0  0  0  0  0
  143.7506  145.0241  160.6192 O   0  0  0  0  0  0  0  0  0  0  0  0
  152.4015  142.0120  158.7750 C   0  0  0  0  0  0  0  0  0  0  0  0
  153.1920  143.1263  159.8550 S   0  0  0  0  0  0  0  0  0  0  0  0
  151.0370  146.2030  159.8174 H   0  0  0  0  0  0  0  0  0  0  0  0
  152.7778  146.3273  159.5055 H   0  0  0  0  0  0  0  0  0  0  0  0
  152.1954  145.6857  161.0531 H   0  0  0  0  0  0  0  0  0  0  0  0
  150.2970  142.5373  156.2799 H   0  0  0  0  0  0  0  0  0  0  0  0
  150.8160  140.9784  156.8420 H   0  0  0  0  0  0  0  0  0  0  0  0
  148.4807  140.8833  157.1707 H   0  0  0  0  0  0  0  0  0  0  0  0
  149.0687  141.2731  158.7645 H   0  0  0  0  0  0  0  0  0  0  0  0
  148.5457  143.6936  157.3530 H   0  0  0  0  0  0  0  0  0  0  0  0
  146.9762  144.8805  157.7063 H   0  0  0  0  0  0  0  0  0  0  0  0
  144.7937  145.5062  158.0780 H   0  0  0  0  0  0  0  0  0  0  0  0
  143.0667  143.7812  158.4727 H   0  0  0  0  0  0  0  0  0  0  0  0
  144.3079  142.5654  158.7634 H   0  0  0  0  0  0  0  0  0  0  0  0
  144.1267  143.2853  157.1648 H   0  0  0  0  0  0  0  0  0  0  0  0
  145.5971  145.8419  160.3271 H   0  0  0  0  0  0  0  0  0  0  0  0
  145.4308  142.8142  160.6234 H   0  0  0  0  0  0  0  0  0  0  0  0
  146.7949  143.8603  161.0395 H   0  0  0  0  0  0  0  0  0  0  0  0
  145.0808  143.1933  162.9976 H   0  0  0  0  0  0  0  0  0  0  0  0
  145.5288  144.8962  162.8311 H   0  0  0  0  0  0  0  0  0  0  0  0
  143.0074  143.5422  161.8236 H   0  0  0  0  0  0  0  0  0  0  0  0
  143.1574  145.1115  162.6175 H   0  0  0  0  0  0  0  0  0  0  0  0
  152.7704  141.0020  158.6761 H   0  0  0  0  0  0  0  0  0  0  0  0
  1  2  1  0  0  0  0
  1 20  1  0  0  0  0
  1 21  1  0  0  0  0
  1 22  1  0  0  0  0
  2 19  1  0  0  0  0
  2  3  2  0  0  0  0
  3  4  1  0  0  0  0
  4  5  1  0  0  0  0
  4 18  2  0  0  0  0
  5  6  1  0  0  0  0
  5 23  1  0  0  0  0
  5 24  1  0  0  0  0
  6  7  1  0  0  0  0
  6 25  1  0  0  0  0
  6 26  1  0  0  0  0
  7  8  1  0  0  0  0
  7 27  1  0  0  0  0
  8  9  2  0  0  0  0
  8 10  1  0  0  0  0
 10 11  1  0  0  0  0
 10 28  1  0  0  0  0
 11 12  1  0  0  0  0
 11 13  1  0  0  0  0
 11 29  1  0  0  0  0
 12 30  1  0  0  0  0
 12 31  1  0  0  0  0
 12 32  1  0  0  0  0
 13 17  1  0  0  0  0
 13 14  1  0  0  0  0
 13 33  1  0  0  0  0
 14 15  1  0  0  0  0
 14 34  1  0  0  0  0
 14 35  1  0  0  0  0
 15 16  1  0  0  0  0
 15 36  1  0  0  0  0
 15 37  1  0  0  0  0
 16 17  1  0  0  0  0
 16 38  1  0  0  0  0
 16 39  1  0  0  0  0
 18 19  1  0  0  0  0
 18 40  1  0  0  0  0
M  END
> <s_m_source_file>
AV-unprocessed.smi

> <i_m_source_file_index>
1941

> <i_lp_mmshare_version>
43012

> <i_f3d_flags>
0

> <s_epik_input>
W0NIM11jMW5jKFtjSF1zMSlbQ0gyXVtDSDJdW05IXUMoPU8pW05IXVtDQEhdKFtDSDNdKVtDQEBIXTJbQ0gyXVtDSDJdW0NIMl1PMg==

> <s_epik_cmdline>
J2VwaWtfcHl0aG9uJywgJy1waCcsICc3LjAnLCAnLXRuJywgJzgnLCAnLW1hJywgJzIwMCcsICctbWV0YWxfYmluZGluZycsICctaW1hZScsICc8aW5maWxlLm1hZT4nLCAnLW9tYWUnLCAnPG91dGZpbGUubWFlPic=

> <r_epik_Ionization_Penalty>
0.00195486

> <r_epik_Ionization_Penalty_Charging>
0

> <r_epik_Ionization_Penalty_Neutral>
0.00195486

> <r_epik_State_Penalty>
0.00129472

> <r_epik_Charging_Adjusted_Penalty>
0.00129472

> <i_epik_Tot_Q>
0

> <i_epik_Tot_abs_Q>
0

> <r_epik_Metal_State_Penalty>
-0

> <b_epik_Metal_Only>
0

> <s_lp_Force_Field>
OPLS_2005

> <r_lp_Energy>
10.9889

> <b_lp_Chiralities_Consistent>
1

> <s_lp_Variant>
AV-unprocessed.smi:1941-2

> <Gold.Version>
5.8.1

> <Gold.Id.Protein>
6NUR|6NUR_protein|mol2

> <Gold.PLP.Fitness>
41.4723

> <Gold.PLP.PLP>
-35.7814

> <Gold.PLP.part.hbond>
-3.4086

> <Gold.PLP.part.metal>
0.0000

> <Gold.PLP.part.buried>
-4.2762

> <Gold.PLP.part.nonpolar>
-28.9291

> <Gold.PLP.part.repulsive>
0.3177

> <Gold.PLP.ligand.clash>
0.0000

> <Gold.PLP.ligand.torsion>
0.5764

> <Gold.PLP.Chemscore.Hbond>
2.2543

> <Gold.PLP.Chemscore.CHOScore>
0.0000

> <Gold.PLP.Chemscore.Metal>
0.0000

> <Gold.Chemscore.Hbonds>
donor molecule, donor type, donor heavy atom, donor atom, acceptor molecule, acceptor atom, score
      L1  H     7    27       P1  8028  0.55
      L1  H    10    28       P1  8029  0.76
      P1  H  6934  6946       L1     9  0.51

> <Gold.PLP.Chemscore.Internal.Correction>
0.0807

> <Gold.Rescore>
     Score         DG    S(hbond)    S(metal)    S(lipo)     H(rot)  DE(clash)    DE(int)     intcor
     14.23     -18.57       1.79        0.00      97.74       1.69       0.14       4.20       ----

> <Gold.Chemscore.Fitness>
14.2340

> <Gold.Chemscore.DG>
-18.5743

> <Gold.Chemscore.ZeroCoef>
-5.4800

> <Gold.Chemscore.Hbond>
1.7938

> <Gold.Chemscore.Metal>
0.0000

> <Gold.Chemscore.Lipo>
97.7373

> <Gold.Chemscore.Internal_Hbond>
0.0000

> <Gold.Chemscore.DEClash>
0.1366

> <Gold.Chemscore.DEInternal>
4.2037

> <Gold.Chemscore.Rot>
1.6923

> <Gold.Chemscore.Internal.Correction>
   9.000000E+99

> <Gold.Chemscore.Hbonds>
donor molecule, donor type, donor heavy atom, donor atom, acceptor molecule, acceptor atom, score
      L1  H     7    27       P1  8028  0.03
      L1  H    10    28       P1  8029  0.26
      P1  H  6934  6946       L1     9  0.50

> <Gold.Chemscore.Hbond.Weighted>
-5.9913

> <Gold.Chemscore.Metal.Weighted>
-0.0000

> <Gold.Chemscore.Lipo.Weighted>
-11.4353

> <Gold.Chemscore.Internal_Hbond.Weighted>
0.0000

> <Gold.Chemscore.DEClash.Weighted>
0.1366

> <Gold.Chemscore.DEInternal.Weighted>
4.2037

> <Gold.Chemscore.Rot.Weighted>
4.3323

> <Gold.Chemscore.Internal.Correction.Weighted>
   9.000000E+99

> <Gold.Protein.RotatedTorsions>
[ 6907 6896 6895 6894 ] final  -43.32 input  -60.11 | X-H torsion
[ 7974 7965 7964 7962 ] final  111.20 input  175.53 | X-H torsion
[ 8008 7997 7996 7995 ] final  128.46 input   59.86 | X-H torsion
[ 10167 10162 10161 10158 ] final   66.07 input  -65.29 | X-H torsion
[ 10718 10713 10712 10709 ] final  -49.47 input   66.30 | X-H torsion
[ 10763 10752 10751 10750 ] final   46.94 input  -60.55 | X-H torsion
[ 11005 11000 10999 10996 ] final -146.11 input  -57.11 | X-H torsion

> <Gold.Protein.ActiveResidues>
 VAL166  LYS551  ARG553  GLY616  TRP617  ASP618  TYR619  PRO620  LYS621  CYS622 
 ASP623  PHE694  ASN695  SER759  ASP760  ASP761  ALA762  ILE779  LEU786  VAL792 
 PHE793  MET794  SER795  GLU796  ALA797  LYS798  CYS799  TRP800  GLU811  SER814 

> <Gold.Protein.RotatedAtoms>
  150.9452  134.8857  159.7637 H   0  0  0  0  0  0  0  0  0  0  0  0  # atno 6907 bound_to 6896
  152.5097  134.3885  159.9385 H   0  0  0  0  0  0  0  0  0  0  0  0  # atno 6908 bound_to 6896
  151.3904  133.3751  159.2755 H   0  0  0  0  0  0  0  0  0  0  0  0  # atno 6909 bound_to 6896
  145.2452  139.2762  143.4096 H   0  0  0  0  0  0  0  0  0  0  0  0  # atno 7974 bound_to 7965
  156.2915  140.2644  156.2440 H   0  0  0  0  0  0  0  0  0  0  0  0  # atno 8008 bound_to 7997
  154.9949  140.0388  157.2353 H   0  0  0  0  0  0  0  0  0  0  0  0  # atno 8009 bound_to 7997
  154.7653  140.2768  155.6186 H   0  0  0  0  0  0  0  0  0  0  0  0  # atno 8010 bound_to 7997
  140.1044  144.4875  150.7017 H   0  0  0  0  0  0  0  0  0  0  0  0  # atno 10167 bound_to 10162
  156.1890  130.4152  149.9398 H   0  0  0  0  0  0  0  0  0  0  0  0  # atno 10718 bound_to 10713
  152.9805  135.5992  154.3681 H   0  0  0  0  0  0  0  0  0  0  0  0  # atno 10763 bound_to 10752
  154.3357  135.2768  155.2451 H   0  0  0  0  0  0  0  0  0  0  0  0  # atno 10764 bound_to 10752
  154.4555  135.5979  153.6275 H   0  0  0  0  0  0  0  0  0  0  0  0  # atno 10765 bound_to 10752
  140.7853  134.3031  157.5032 H   0  0  0  0  0  0  0  0  0  0  0  0  # atno 11005 bound_to 11000
  146.3317  140.2827  142.8611 LP  0  0  0  0  0  0  0  0  0  0  0  0  # atno 17320 bound_to 7965
  144.9552  140.8219  143.5547 LP  0  0  0  0  0  0  0  0  0  0  0  0  # atno 17321 bound_to 7965
  140.6960  143.2404  151.4999 LP  0  0  0  0  0  0  0  0  0  0  0  0  # atno 17342 bound_to 10162
  139.5653  144.2056  152.1756 LP  0  0  0  0  0  0  0  0  0  0  0  0  # atno 17343 bound_to 10162
  156.7145  130.8983  151.3612 LP  0  0  0  0  0  0  0  0  0  0  0  0  # atno 17370 bound_to 10713
  157.6917  130.9240  150.0532 LP  0  0  0  0  0  0  0  0  0  0  0  0  # atno 17371 bound_to 10713
  139.8737  134.9343  156.3603 LP  0  0  0  0  0  0  0  0  0  0  0  0  # atno 17394 bound_to 11000
  140.9442  133.7494  156.0186 LP  0  0  0  0  0  0  0  0  0  0  0  0  # atno 17395 bound_to 11000

$$$$
