AV-unprocessed.smi:1060|AV-procd|sdf|4656|dock9
  -GOLD-   22720 3163D 1   1.00000     0.00000
 Structure written by MMmdl.
 37 38  0  0  0  0  0  0  0  0  1 V2000
  153.3052  138.8242  155.6154 O   0  0  0  0  0  0  0  0  0  0  0  0
  152.7595  138.4487  156.6528 C   0  0  0  0  0  0  0  0  0  0  0  0
  152.8921  136.9917  157.1006 C   0  0  0  0  0  0  0  0  0  0  0  0
  152.3135  136.1370  156.1265 O   0  0  0  0  0  0  0  0  0  0  0  0
  151.2148  135.3964  156.6295 C   0  0  0  0  0  0  0  0  0  0  0  0
  150.9380  134.2192  155.6864 C   0  0  2  0  0  0  0  0  0  0  0  0
  150.3999  134.6362  154.3207 C   0  0  0  0  0  0  0  0  0  0  0  0
  149.6938  133.3824  153.8342 C   0  0  0  0  0  0  0  0  0  0  0  0
  149.4124  132.5956  155.1183 C   0  0  0  0  0  0  0  0  0  0  0  0
  149.8779  133.4171  156.1820 O   0  0  0  0  0  0  0  0  0  0  0  0
  152.0338  139.2287  157.4779 N   0  0  0  0  0  0  0  0  0  0  0  0
  151.6986  140.5895  157.3674 C   0  0  0  0  0  0  0  0  0  0  0  0
  151.8688  141.5195  158.3440 C   0  0  0  0  0  0  0  0  0  0  0  0
  151.5070  142.9141  158.1536 C   0  0  0  0  0  0  0  0  0  0  0  0
  151.6249  143.9271  159.2822 C   0  0  0  0  0  0  0  0  0  0  0  0
  150.4144  144.3640  159.6264 F   0  0  0  0  0  0  0  0  0  0  0  0
  152.1943  143.3880  160.3608 F   0  0  0  0  0  0  0  0  0  0  0  0
  152.3532  144.9781  158.9061 F   0  0  0  0  0  0  0  0  0  0  0  0
  150.9852  143.2412  156.9572 C   0  0  0  0  0  0  0  0  0  0  0  0
  150.8265  142.2967  155.9408 N   0  0  0  0  0  0  0  0  0  0  0  0
  151.1473  140.9892  156.0617 C   0  0  0  0  0  0  0  0  0  0  0  0
  150.9744  140.2183  155.1181 O   0  0  0  0  0  0  0  0  0  0  0  0
  150.4425  142.6242  155.0662 H   0  0  0  0  0  0  0  0  0  0  0  0
  153.9475  136.7485  157.2351 H   0  0  0  0  0  0  0  0  0  0  0  0
  152.3914  136.8664  158.0618 H   0  0  0  0  0  0  0  0  0  0  0  0
  151.4126  135.0402  157.6417 H   0  0  0  0  0  0  0  0  0  0  0  0
  150.3393  136.0460  156.6737 H   0  0  0  0  0  0  0  0  0  0  0  0
  151.8335  133.6079  155.5592 H   0  0  0  0  0  0  0  0  0  0  0  0
  149.6755  135.4443  154.4326 H   0  0  0  0  0  0  0  0  0  0  0  0
  151.1823  134.9755  153.6414 H   0  0  0  0  0  0  0  0  0  0  0  0
  148.7815  133.6227  153.2877 H   0  0  0  0  0  0  0  0  0  0  0  0
  150.3398  132.8039  153.1727 H   0  0  0  0  0  0  0  0  0  0  0  0
  148.3532  132.3707  155.2444 H   0  0  0  0  0  0  0  0  0  0  0  0
  149.9622  131.6537  155.1194 H   0  0  0  0  0  0  0  0  0  0  0  0
  151.6963  138.7849  158.3201 H   0  0  0  0  0  0  0  0  0  0  0  0
  152.2984  141.2580  159.2964 H   0  0  0  0  0  0  0  0  0  0  0  0
  150.6476  144.2319  156.6907 H   0  0  0  0  0  0  0  0  0  0  0  0
  1  2  2  0  0  0  0
  2  3  1  0  0  0  0
  2 11  1  0  0  0  0
  3  4  1  0  0  0  0
  3 24  1  0  0  0  0
  3 25  1  0  0  0  0
  4  5  1  0  0  0  0
  5  6  1  0  0  0  0
  5 26  1  0  0  0  0
  5 27  1  0  0  0  0
  6 10  1  0  0  0  0
  6  7  1  0  0  0  0
  6 28  1  0  0  0  0
  7  8  1  0  0  0  0
  7 29  1  0  0  0  0
  7 30  1  0  0  0  0
  8  9  1  0  0  0  0
  8 31  1  0  0  0  0
  8 32  1  0  0  0  0
  9 10  1  0  0  0  0
  9 33  1  0  0  0  0
  9 34  1  0  0  0  0
 11 12  1  0  0  0  0
 11 35  1  0  0  0  0
 12 21  1  0  0  0  0
 12 13  2  0  0  0  0
 13 14  1  0  0  0  0
 13 36  1  0  0  0  0
 14 15  1  0  0  0  0
 14 19  2  0  0  0  0
 15 16  1  0  0  0  0
 15 17  1  0  0  0  0
 15 18  1  0  0  0  0
 19 20  1  0  0  0  0
 19 37  1  0  0  0  0
 20 23  1  0  0  0  0
 20 21  1  0  0  0  0
 21 22  2  0  0  0  0
M  END
> <s_m_source_file>
AV-unprocessed.smi

> <i_m_source_file_index>
1060

> <i_lp_mmshare_version>
43012

> <i_f3d_flags>
0

> <s_epik_input>
Tz1jMVtuSF1bY0hdYyhDKEYpKEYpRilbY0hdYzFbTkhdQyg9TylbQ0gyXU9bQ0gyXVtDQEBIXTJbQ0gyXVtDSDJdW0NIMl1PMg==

> <s_epik_cmdline>
J2VwaWtfcHl0aG9uJywgJy1waCcsICc3LjAnLCAnLXRuJywgJzgnLCAnLW1hJywgJzIwMCcsICctbWV0YWxfYmluZGluZycsICctaW1hZScsICc8aW5maWxlLm1hZT4nLCAnLW9tYWUnLCAnPG91dGZpbGUubWFlPic=

> <r_lp_tautomer_probability>
0.999

> <r_epik_Ionization_Penalty>
0.00950091

> <r_epik_Ionization_Penalty_Charging>
0.00950081

> <r_epik_Ionization_Penalty_Neutral>
1.00143e-07

> <r_epik_State_Penalty>
0.00721819

> <r_epik_Charging_Adjusted_Penalty>
0.016719

> <i_epik_Tot_Q>
0

> <i_epik_Tot_abs_Q>
0

> <r_epik_Metal_State_Penalty>
0.323303

> <b_epik_Metal_Only>
0

> <s_lp_Force_Field>
OPLS_2005

> <r_lp_Energy>
32.1997

> <b_lp_Chiralities_Consistent>
1

> <s_lp_Variant>
AV-unprocessed.smi:1060-1

> <Gold.Version>
5.8.1

> <Gold.Id.Protein>
6NUR|6NUR_protein|mol2

> <Gold.PLP.Fitness>
49.9031

> <Gold.PLP.PLP>
-39.7492

> <Gold.PLP.part.hbond>
-3.8737

> <Gold.PLP.part.metal>
0.0000

> <Gold.PLP.part.buried>
-3.2688

> <Gold.PLP.part.nonpolar>
-33.8774

> <Gold.PLP.part.repulsive>
0.2524

> <Gold.PLP.ligand.clash>
0.0000

> <Gold.PLP.ligand.torsion>
0.9607

> <Gold.PLP.Chemscore.Hbond>
3.0000

> <Gold.PLP.Chemscore.CHOScore>
0.9911

> <Gold.PLP.Chemscore.Metal>
0.0000

> <Gold.Chemscore.Hbonds>
donor molecule, donor type, donor heavy atom, donor atom, acceptor molecule, acceptor atom, score
      P1  H  7989  7998       L1    22  1.00
      P1  H  7997  8009       L1     1  0.93
      P1  H 10752 10763       L1     4  1.00
      L1  C    19    37       P1  8028  0.96

> <Gold.PLP.Chemscore.Internal.Correction>
0.1018

> <Gold.Rescore>
     Score         DG    S(hbond)    S(metal)    S(lipo)     H(rot)  DE(clash)    DE(int)     intcor
     13.45     -18.11       2.72        0.00      73.04       1.95       0.22       4.44       ----

> <Gold.Chemscore.Fitness>
13.4476

> <Gold.Chemscore.DG>
-18.1095

> <Gold.Chemscore.ZeroCoef>
-5.4800

> <Gold.Chemscore.Hbond>
2.7194

> <Gold.Chemscore.Metal>
0.0000

> <Gold.Chemscore.Lipo>
73.0391

> <Gold.Chemscore.Internal_Hbond>
0.0000

> <Gold.Chemscore.DEClash>
0.2176

> <Gold.Chemscore.DEInternal>
4.4443

> <Gold.Chemscore.Rot>
1.9527

> <Gold.Chemscore.Internal.Correction>
   9.000000E+99

> <Gold.Chemscore.Hbonds>
donor molecule, donor type, donor heavy atom, donor atom, acceptor molecule, acceptor atom, score
      P1  H  7989  7998       L1    22  0.85
      P1  H  7997  8009       L1     1  0.75
      P1  H 10752 10763       L1     4  0.80

> <Gold.Chemscore.Hbond.Weighted>
-9.0829

> <Gold.Chemscore.Metal.Weighted>
-0.0000

> <Gold.Chemscore.Lipo.Weighted>
-8.5456

> <Gold.Chemscore.Internal_Hbond.Weighted>
0.0000

> <Gold.Chemscore.DEClash.Weighted>
0.2176

> <Gold.Chemscore.DEInternal.Weighted>
4.4443

> <Gold.Chemscore.Rot.Weighted>
4.9990

> <Gold.Chemscore.Internal.Correction.Weighted>
   9.000000E+99

> <Gold.Protein.RotatedTorsions>
[ 6907 6896 6895 6894 ] final   43.15 input  -60.11 | X-H torsion
[ 7974 7965 7964 7962 ] final  -36.12 input  175.53 | X-H torsion
[ 8008 7997 7996 7995 ] final -136.11 input   59.86 | X-H torsion
[ 10167 10162 10161 10158 ] final  -37.73 input  -65.29 | X-H torsion
[ 10718 10713 10712 10709 ] final   26.43 input   66.30 | X-H torsion
[ 10763 10752 10751 10750 ] final  105.82 input  -60.55 | X-H torsion
[ 11005 11000 10999 10996 ] final  -59.83 input  -57.11 | X-H torsion

> <Gold.Protein.ActiveResidues>
 VAL166  LYS551  ARG553  GLY616  TRP617  ASP618  TYR619  PRO620  LYS621  CYS622 
 ASP623  PHE694  ASN695  SER759  ASP760  ASP761  ALA762  ILE779  LEU786  VAL792 
 PHE793  MET794  SER795  GLU796  ALA797  LYS798  CYS799  TRP800  GLU811  SER814 

> <Gold.Protein.RotatedAtoms>
  152.2167  134.8451  160.0490 H   0  0  0  0  0  0  0  0  0  0  0  0  # atno 6907 bound_to 6896
  151.9250  133.3590  159.3918 H   0  0  0  0  0  0  0  0  0  0  0  0  # atno 6908 bound_to 6896
  150.6989  134.4521  159.5385 H   0  0  0  0  0  0  0  0  0  0  0  0  # atno 6909 bound_to 6896
  146.0689  140.6240  142.8962 H   0  0  0  0  0  0  0  0  0  0  0  0  # atno 7974 bound_to 7965
  155.3898  140.0499  157.3041 H   0  0  0  0  0  0  0  0  0  0  0  0  # atno 8008 bound_to 7997
  154.5041  140.2168  155.9247 H   0  0  0  0  0  0  0  0  0  0  0  0  # atno 8009 bound_to 7997
  156.1504  140.3137  155.8644 H   0  0  0  0  0  0  0  0  0  0  0  0  # atno 8010 bound_to 7997
  140.7110  143.3322  151.2542 H   0  0  0  0  0  0  0  0  0  0  0  0  # atno 10167 bound_to 10162
  157.2067  130.6915  149.6211 H   0  0  0  0  0  0  0  0  0  0  0  0  # atno 10718 bound_to 10713
  153.3845  135.3897  155.1880 H   0  0  0  0  0  0  0  0  0  0  0  0  # atno 10763 bound_to 10752
  154.8712  135.3733  154.4815 H   0  0  0  0  0  0  0  0  0  0  0  0  # atno 10764 bound_to 10752
  153.5295  135.7086  153.5751 H   0  0  0  0  0  0  0  0  0  0  0  0  # atno 10765 bound_to 10752
  141.1263  133.6618  156.5131 H   0  0  0  0  0  0  0  0  0  0  0  0  # atno 11005 bound_to 11000
  144.7219  140.4401  143.7001 LP  0  0  0  0  0  0  0  0  0  0  0  0  # atno 17320 bound_to 7965
  145.6427  139.1552  143.2906 LP  0  0  0  0  0  0  0  0  0  0  0  0  # atno 17321 bound_to 7965
  139.6808  143.9858  152.2807 LP  0  0  0  0  0  0  0  0  0  0  0  0  # atno 17342 bound_to 10162
  139.9487  144.6634  150.8193 LP  0  0  0  0  0  0  0  0  0  0  0  0  # atno 17343 bound_to 10162
  155.9695  130.4564  150.5926 LP  0  0  0  0  0  0  0  0  0  0  0  0  # atno 17370 bound_to 10713
  157.3713  131.0766  151.1555 LP  0  0  0  0  0  0  0  0  0  0  0  0  # atno 17371 bound_to 10713
  140.4353  134.7065  157.4963 LP  0  0  0  0  0  0  0  0  0  0  0  0  # atno 17394 bound_to 11000
  140.0266  134.6468  155.9164 LP  0  0  0  0  0  0  0  0  0  0  0  0  # atno 17395 bound_to 11000

$$$$
