AV-unprocessed.smi:2747|AV-procd|sdf|10578|dock1
  -GOLD-   2272015 33D 1   1.00000     0.00000
 Structure written by MMmdl.
 24 25  0  0  0  0  0  0  0  0  1 V2000
  149.7695  142.9627  157.9323 O   0  0  0  0  0  0  0  0  0  0  0  0
  151.0907  142.9786  158.4409 C   0  0  1  0  0  0  0  0  0  0  0  0
  151.8857  141.7958  157.8520 C   0  0  0  0  0  0  0  0  0  0  0  0
  152.7281  141.1465  158.8407 N   0  0  0  0  0  0  0  0  0  0  0  0
  153.3270  139.9614  158.5334 N   0  0  0  0  0  0  0  0  0  0  0  0
  154.0300  139.5733  159.5551 N   0  0  0  0  0  0  0  0  0  0  0  0
  153.8923  140.5212  160.5553 C   0  0  0  0  0  0  0  0  0  0  0  0
  154.4321  140.6017  161.8582 C   0  0  0  0  0  0  0  0  0  0  0  0
  154.1289  141.7017  162.6904 C   0  0  0  0  0  0  0  0  0  0  0  0
  154.8102  141.7650  164.2768 Cl  0  0  0  0  0  0  0  0  0  0  0  0
  153.2797  142.7355  162.2267 C   0  0  0  0  0  0  0  0  0  0  0  0
  152.9006  144.0898  163.2303 Cl  0  0  0  0  0  0  0  0  0  0  0  0
  152.7327  142.6675  160.9297 C   0  0  0  0  0  0  0  0  0  0  0  0
  153.0469  141.5640  160.1183 C   0  0  0  0  0  0  0  0  0  0  0  0
  151.7360  144.3437  158.1361 C   0  0  0  0  0  0  0  0  0  0  0  0
  151.1836  145.2923  158.8927 F   0  0  0  0  0  0  0  0  0  0  0  0
  153.0362  144.2927  158.4250 F   0  0  0  0  0  0  0  0  0  0  0  0
  151.5977  144.6619  156.8484 F   0  0  0  0  0  0  0  0  0  0  0  0
  149.6592  143.7053  157.3584 H   0  0  0  0  0  0  0  0  0  0  0  0
  151.0254  142.8592  159.5232 H   0  0  0  0  0  0  0  0  0  0  0  0
  151.2075  141.0512  157.4335 H   0  0  0  0  0  0  0  0  0  0  0  0
  152.5180  142.1345  157.0302 H   0  0  0  0  0  0  0  0  0  0  0  0
  155.0812  139.8167  162.2177 H   0  0  0  0  0  0  0  0  0  0  0  0
  152.0845  143.4500  160.5637 H   0  0  0  0  0  0  0  0  0  0  0  0
  1  2  1  0  0  0  0
  1 19  1  0  0  0  0
  2  3  1  0  0  0  0
  2 15  1  0  0  0  0
  2 20  1  0  0  0  0
  3  4  1  0  0  0  0
  3 21  1  0  0  0  0
  3 22  1  0  0  0  0
  4 14  1  0  0  0  0
  4  5  1  0  0  0  0
  5  6  2  0  0  0  0
  6  7  1  0  0  0  0
  7 14  2  0  0  0  0
  7  8  1  0  0  0  0
  8  9  2  0  0  0  0
  8 23  1  0  0  0  0
  9 10  1  0  0  0  0
  9 11  1  0  0  0  0
 11 12  1  0  0  0  0
 11 13  2  0  0  0  0
 13 14  1  0  0  0  0
 13 24  1  0  0  0  0
 15 16  1  0  0  0  0
 15 17  1  0  0  0  0
 15 18  1  0  0  0  0
M  END
> <s_m_source_file>
AV-unprocessed.smi

> <i_m_source_file_index>
2747

> <i_lp_mmshare_version>
43012

> <i_f3d_flags>
0

> <s_epik_input>
RkMoRikoRilbQ0BIXShbT0hdKVtDSDJdbihubjEpYyhjMTIpW2NIXWMoQ2wpYyhDbClbY0hdMg==

> <s_epik_cmdline>
J2VwaWtfcHl0aG9uJywgJy1waCcsICc3LjAnLCAnLXRuJywgJzgnLCAnLW1hJywgJzIwMCcsICctbWV0YWxfYmluZGluZycsICctaW1hZScsICc8aW5maWxlLm1hZT4nLCAnLW9tYWUnLCAnPG91dGZpbGUubWFlPic=

> <r_lp_tautomer_probability>
1

> <r_epik_Ionization_Penalty>
0.0735676

> <r_epik_Ionization_Penalty_Charging>
0

> <r_epik_Ionization_Penalty_Neutral>
0.0735676

> <r_epik_State_Penalty>
0.0647209

> <r_epik_Charging_Adjusted_Penalty>
0.0647209

> <i_epik_Tot_Q>
0

> <i_epik_Tot_abs_Q>
0

> <r_epik_Metal_State_Penalty>
0.0647209

> <b_epik_Metal_Only>
0

> <s_lp_Force_Field>
OPLS_2005

> <r_lp_Energy>
9.1287

> <b_lp_Chiralities_Consistent>
1

> <s_lp_Variant>
AV-unprocessed.smi:2747-2

> <Gold.Version>
5.8.1

> <Gold.Id.Protein>
6NUR|6NUR_protein|mol2

> <Gold.PLP.Fitness>
45.5855

> <Gold.PLP.PLP>
-41.8737

> <Gold.PLP.part.hbond>
-2.0000

> <Gold.PLP.part.metal>
0.0000

> <Gold.PLP.part.buried>
0.9989

> <Gold.PLP.part.nonpolar>
-39.1950

> <Gold.PLP.part.repulsive>
0.0000

> <Gold.PLP.ligand.clash>
0.0700

> <Gold.PLP.ligand.torsion>
0.8560

> <Gold.PLP.Chemscore.Hbond>
1.8288

> <Gold.PLP.Chemscore.CHOScore>
0.0000

> <Gold.PLP.Chemscore.Metal>
0.0000

> <Gold.Chemscore.Hbonds>
donor molecule, donor type, donor heavy atom, donor atom, acceptor molecule, acceptor atom, score
      L1  H     1    19       P1  8028  0.81
      P1  H  7997  8008       L1     5  1.00

> <Gold.PLP.Chemscore.Internal.Correction>
0.0076

> <Gold.Rescore>
     Score         DG    S(hbond)    S(metal)    S(lipo)     H(rot)  DE(clash)    DE(int)     intcor
     14.55     -18.07       1.20        0.00     115.46       1.92       1.54       1.97       ----

> <Gold.Chemscore.Fitness>
14.5539

> <Gold.Chemscore.DG>
-18.0701

> <Gold.Chemscore.ZeroCoef>
-5.4800

> <Gold.Chemscore.Hbond>
1.1994

> <Gold.Chemscore.Metal>
0.0000

> <Gold.Chemscore.Lipo>
115.4572

> <Gold.Chemscore.Internal_Hbond>
0.0000

> <Gold.Chemscore.DEClash>
1.5436

> <Gold.Chemscore.DEInternal>
1.9726

> <Gold.Chemscore.Rot>
1.9235

> <Gold.Chemscore.Internal.Correction>
   9.000000E+99

> <Gold.Chemscore.Hbonds>
donor molecule, donor type, donor heavy atom, donor atom, acceptor molecule, acceptor atom, score
      L1  H     1    19       P1  8028  0.59
      P1  H  7997  8008       L1     5  0.35

> <Gold.Chemscore.Hbond.Weighted>
-4.0058

> <Gold.Chemscore.Metal.Weighted>
-0.0000

> <Gold.Chemscore.Lipo.Weighted>
-13.5085

> <Gold.Chemscore.Internal_Hbond.Weighted>
0.0000

> <Gold.Chemscore.DEClash.Weighted>
1.5436

> <Gold.Chemscore.DEInternal.Weighted>
1.9726

> <Gold.Chemscore.Rot.Weighted>
4.9242

> <Gold.Chemscore.Internal.Correction.Weighted>
   9.000000E+99

> <Gold.Protein.RotatedTorsions>
[ 6907 6896 6895 6894 ] final  -42.80 input  -60.11 | X-H torsion
[ 7974 7965 7964 7962 ] final  147.95 input  175.53 | X-H torsion
[ 8008 7997 7996 7995 ] final  -91.09 input   59.86 | X-H torsion
[ 10167 10162 10161 10158 ] final  131.41 input  -65.29 | X-H torsion
[ 10718 10713 10712 10709 ] final  -19.10 input   66.30 | X-H torsion
[ 10763 10752 10751 10750 ] final -148.88 input  -60.55 | X-H torsion
[ 11005 11000 10999 10996 ] final  -42.02 input  -57.11 | X-H torsion

> <Gold.Protein.ActiveResidues>
 VAL166  LYS551  ARG553  GLY616  TRP617  ASP618  TYR619  PRO620  LYS621  CYS622 
 ASP623  PHE694  ASN695  SER759  ASP760  ASP761  ALA762  ILE779  LEU786  VAL792 
 PHE793  MET794  SER795  GLU796  ALA797  LYS798  CYS799  TRP800  GLU811  SER814 

> <Gold.Protein.RotatedAtoms>
  150.9511  134.8911  159.7672 H   0  0  0  0  0  0  0  0  0  0  0  0  # atno 6907 bound_to 6896
  152.5120  134.3805  159.9359 H   0  0  0  0  0  0  0  0  0  0  0  0  # atno 6908 bound_to 6896
  151.3821  133.3777  159.2746 H   0  0  0  0  0  0  0  0  0  0  0  0  # atno 6909 bound_to 6896
  144.8552  139.6092  143.5956 H   0  0  0  0  0  0  0  0  0  0  0  0  # atno 7974 bound_to 7965
  154.7064  140.0523  157.0508 H   0  0  0  0  0  0  0  0  0  0  0  0  # atno 8008 bound_to 7997
  155.0614  140.3190  155.4640 H   0  0  0  0  0  0  0  0  0  0  0  0  # atno 8009 bound_to 7997
  156.2776  140.2098  156.5741 H   0  0  0  0  0  0  0  0  0  0  0  0  # atno 8010 bound_to 7997
  139.5385  144.6707  151.4704 H   0  0  0  0  0  0  0  0  0  0  0  0  # atno 10167 bound_to 10162
  156.5504  130.4700  149.6455 H   0  0  0  0  0  0  0  0  0  0  0  0  # atno 10718 bound_to 10713
  154.8208  135.3323  154.7042 H   0  0  0  0  0  0  0  0  0  0  0  0  # atno 10763 bound_to 10752
  153.7675  135.6928  153.4917 H   0  0  0  0  0  0  0  0  0  0  0  0  # atno 10764 bound_to 10752
  153.2067  135.4496  155.0280 H   0  0  0  0  0  0  0  0  0  0  0  0  # atno 10765 bound_to 10752
  141.0287  133.6830  156.2537 H   0  0  0  0  0  0  0  0  0  0  0  0  # atno 11005 bound_to 11000
  146.2817  139.6895  142.9224 LP  0  0  0  0  0  0  0  0  0  0  0  0  # atno 17320 bound_to 7965
  145.4421  141.0423  143.2852 LP  0  0  0  0  0  0  0  0  0  0  0  0  # atno 17321 bound_to 7965
  140.6604  143.8511  150.6881 LP  0  0  0  0  0  0  0  0  0  0  0  0  # atno 17342 bound_to 10162
  140.1904  143.4041  152.1868 LP  0  0  0  0  0  0  0  0  0  0  0  0  # atno 17343 bound_to 10162
  156.2890  130.7113  151.1957 LP  0  0  0  0  0  0  0  0  0  0  0  0  # atno 17370 bound_to 10713
  157.7388  131.0536  150.5269 LP  0  0  0  0  0  0  0  0  0  0  0  0  # atno 17371 bound_to 10713
  140.6446  134.5130  157.5572 LP  0  0  0  0  0  0  0  0  0  0  0  0  # atno 17394 bound_to 11000
  139.9193  134.8182  156.1264 LP  0  0  0  0  0  0  0  0  0  0  0  0  # atno 17395 bound_to 11000

$$$$
