AV-unprocessed.smi:1080|AV-procd|sdf|4708|dock5
  -GOLD-   22720 3233D 1   1.00000     0.00000
 Structure written by MMmdl.
 49 51  0  0  0  0  0  0  0  0  2 V2000
  146.3764  132.0116  153.7334 O   0  0  0  0  0  0  0  0  0  0  0  0
  147.0881  131.6363  152.8021 C   0  0  0  0  0  0  0  0  0  0  0  0
  146.7601  131.6971  151.4996 N   0  0  0  0  0  0  0  0  0  0  0  0
  145.5518  132.1564  150.9069 C   0  0  0  0  0  0  0  0  0  0  0  0
  144.4839  132.4806  151.7732 C   0  0  0  0  0  0  0  0  0  0  0  0
  143.2701  132.9548  151.2354 C   0  0  0  0  0  0  0  0  0  0  0  0
  143.1393  133.1040  149.8999 N   0  3  0  0  0  0  0  0  0  0  0  0
  144.1349  132.8206  149.0331 C   0  0  0  0  0  0  0  0  0  0  0  0
  145.3721  132.3433  149.5122 C   0  0  0  0  0  0  0  0  0  0  0  0
  148.3166  131.1255  152.9697 N   0  0  0  0  0  0  0  0  0  0  0  0
  148.9761  130.9205  154.2562 C   0  0  2  0  0  0  0  0  0  0  0  0
  149.6308  132.2264  154.7505 C   0  0  0  0  0  0  0  0  0  0  0  0
  150.3980  132.0088  156.0649 C   0  0  0  0  0  0  0  0  0  0  0  0
  151.4577  130.8965  155.9232 C   0  0  1  0  0  0  0  0  0  0  0  0
  152.2203  130.6994  157.2520 C   0  0  0  0  0  0  0  0  0  0  0  0
  151.7876  131.2603  158.2603 O   0  0  0  0  0  0  0  0  0  0  0  0
  153.3163  129.8998  157.2945 N   0  0  0  0  0  0  0  0  0  0  0  0
  153.9529  129.3785  156.0783 C   0  0  0  0  0  0  0  0  0  0  0  0
  155.1979  130.2270  155.7658 C   0  0  0  0  0  0  0  0  0  0  0  0
  156.4239  130.1178  157.1085 S   0  0  0  0  0  0  0  0  0  0  0  0
  155.3484  130.4498  158.5399 C   0  0  0  0  0  0  0  0  0  0  0  0
  154.0925  129.5647  158.4945 C   0  0  0  0  0  0  0  0  0  0  0  0
  150.7835  129.5898  155.4465 C   0  0  0  0  0  0  0  0  0  0  0  0
  150.0259  129.8018  154.1261 C   0  0  0  0  0  0  0  0  0  0  0  0
  147.4840  131.4256  150.8503 H   0  0  0  0  0  0  0  0  0  0  0  0
  144.5886  132.3634  152.8423 H   0  0  0  0  0  0  0  0  0  0  0  0
  142.4071  133.2188  151.8291 H   0  0  0  0  0  0  0  0  0  0  0  0
  143.9166  132.9887  147.9885 H   0  0  0  0  0  0  0  0  0  0  0  0
  146.1586  132.1428  148.8012 H   0  0  0  0  0  0  0  0  0  0  0  0
  148.8344  130.8492  152.1483 H   0  0  0  0  0  0  0  0  0  0  0  0
  148.2320  130.6006  154.9886 H   0  0  0  0  0  0  0  0  0  0  0  0
  150.3156  132.6080  153.9918 H   0  0  0  0  0  0  0  0  0  0  0  0
  148.8727  132.9966  154.8968 H   0  0  0  0  0  0  0  0  0  0  0  0
  150.8684  132.9452  156.3672 H   0  0  0  0  0  0  0  0  0  0  0  0
  149.6917  131.7523  156.8561 H   0  0  0  0  0  0  0  0  0  0  0  0
  152.1595  131.1674  155.1357 H   0  0  0  0  0  0  0  0  0  0  0  0
  154.2329  128.3330  156.2155 H   0  0  0  0  0  0  0  0  0  0  0  0
  153.2784  129.3853  155.2212 H   0  0  0  0  0  0  0  0  0  0  0  0
  155.6635  129.8928  154.8386 H   0  0  0  0  0  0  0  0  0  0  0  0
  154.9185  131.2717  155.6242 H   0  0  0  0  0  0  0  0  0  0  0  0
  155.9141  130.2632  159.4528 H   0  0  0  0  0  0  0  0  0  0  0  0
  155.0734  131.5052  158.5431 H   0  0  0  0  0  0  0  0  0  0  0  0
  153.5158  129.6605  159.4131 H   0  0  0  0  0  0  0  0  0  0  0  0
  154.3842  128.5137  158.4661 H   0  0  0  0  0  0  0  0  0  0  0  0
  151.5325  128.8077  155.3150 H   0  0  0  0  0  0  0  0  0  0  0  0
  150.0827  129.2238  156.1988 H   0  0  0  0  0  0  0  0  0  0  0  0
  149.5441  128.8701  153.8274 H   0  0  0  0  0  0  0  0  0  0  0  0
  150.7374  130.0489  153.3367 H   0  0  0  0  0  0  0  0  0  0  0  0
  142.2530  133.4497  149.5306 H   0  0  0  0  0  0  0  0  0  0  0  0
  1  2  2  0  0  0  0
  2  3  1  0  0  0  0
  2 10  1  0  0  0  0
  3  4  1  0  0  0  0
  3 25  1  0  0  0  0
  4  9  1  0  0  0  0
  4  5  2  0  0  0  0
  5  6  1  0  0  0  0
  5 26  1  0  0  0  0
  6  7  2  0  0  0  0
  6 27  1  0  0  0  0
  7  8  1  0  0  0  0
  7 49  1  0  0  0  0
  8  9  2  0  0  0  0
  8 28  1  0  0  0  0
  9 29  1  0  0  0  0
 10 11  1  0  0  0  0
 10 30  1  0  0  0  0
 11 24  1  0  0  0  0
 11 12  1  0  0  0  0
 11 31  1  0  0  0  0
 12 13  1  0  0  0  0
 12 32  1  0  0  0  0
 12 33  1  0  0  0  0
 13 14  1  0  0  0  0
 13 34  1  0  0  0  0
 13 35  1  0  0  0  0
 14 15  1  0  0  0  0
 14 23  1  0  0  0  0
 14 36  1  0  0  0  0
 15 16  2  0  0  0  0
 15 17  1  0  0  0  0
 17 22  1  0  0  0  0
 17 18  1  0  0  0  0
 18 19  1  0  0  0  0
 18 37  1  0  0  0  0
 18 38  1  0  0  0  0
 19 20  1  0  0  0  0
 19 39  1  0  0  0  0
 19 40  1  0  0  0  0
 20 21  1  0  0  0  0
 21 22  1  0  0  0  0
 21 41  1  0  0  0  0
 21 42  1  0  0  0  0
 22 43  1  0  0  0  0
 22 44  1  0  0  0  0
 23 24  1  0  0  0  0
 23 45  1  0  0  0  0
 23 46  1  0  0  0  0
 24 47  1  0  0  0  0
 24 48  1  0  0  0  0
M  CHG  1   7   1
M  END
> <s_m_source_file>
AV-unprocessed.smi

> <i_m_source_file_index>
1080

> <i_lp_mmshare_version>
43012

> <i_f3d_flags>
0

> <s_epik_input>
W2NIXTFbY0hdbltjSF1bY0hdYzFbTkhdQyg9TylbTkhdW0NAQEhdMltDSDJdW0NIMl1bQ0BIXShbQ0gyXVtDSDJdMilDKD1PKU4zW0NIMl1bQ0gyXVNbQ0gyXVtDSDJdMw==

> <s_epik_cmdline>
J2VwaWtfcHl0aG9uJywgJy1waCcsICc3LjAnLCAnLXRuJywgJzgnLCAnLW1hJywgJzIwMCcsICctbWV0YWxfYmluZGluZycsICctaW1hZScsICc8aW5maWxlLm1hZT4nLCAnLW9tYWUnLCAnPG91dGZpbGUubWFlPic=

> <r_epik_Ionization_Penalty>
1.01281

> <r_epik_Ionization_Penalty_Charging>
1.01278

> <r_epik_Ionization_Penalty_Neutral>
2.07681e-05

> <r_epik_State_Penalty>
1.06237

> <r_epik_Charging_Adjusted_Penalty>
2.07515

> <i_epik_Tot_Q>
1

> <i_epik_Tot_abs_Q>
1

> <r_epik_Metal_State_Penalty>
1.16243

> <b_epik_Metal_Only>
0

> <s_lp_Force_Field>
OPLS_2005

> <r_lp_Energy>
38.1228

> <b_lp_Chiralities_Consistent>
1

> <s_lp_Variant>
AV-unprocessed.smi:1080-3

> <Gold.Version>
5.8.1

> <Gold.Id.Protein>
6NUR|6NUR_protein|mol2

> <Gold.PLP.Fitness>
52.9495

> <Gold.PLP.PLP>
-38.9563

> <Gold.PLP.part.hbond>
-4.0000

> <Gold.PLP.part.metal>
0.0000

> <Gold.PLP.part.buried>
-4.4071

> <Gold.PLP.part.nonpolar>
-29.8114

> <Gold.PLP.part.repulsive>
0.2006

> <Gold.PLP.ligand.clash>
0.0000

> <Gold.PLP.ligand.torsion>
0.5095

> <Gold.PLP.Chemscore.Hbond>
4.9840

> <Gold.PLP.Chemscore.CHOScore>
0.0000

> <Gold.PLP.Chemscore.Metal>
0.0000

> <Gold.Chemscore.Hbonds>
donor molecule, donor type, donor heavy atom, donor atom, acceptor molecule, acceptor atom, score
      L1  H     3    25       P1 10747  1.00
      L1  H     7    49       P1 10186  2.00
      L1  H    10    30       P1 10747  0.99
      P1  H  6896  6907       L1    16  0.39

> <Gold.PLP.Chemscore.Internal.Correction>
0.0601

> <Gold.Rescore>
     Score         DG    S(hbond)    S(metal)    S(lipo)     H(rot)  DE(clash)    DE(int)     intcor
     23.52     -25.61       3.61        0.00      96.49       1.25       0.03       2.06       ----

> <Gold.Chemscore.Fitness>
23.5206

> <Gold.Chemscore.DG>
-25.6149

> <Gold.Chemscore.ZeroCoef>
-5.4800

> <Gold.Chemscore.Hbond>
3.6055

> <Gold.Chemscore.Metal>
0.0000

> <Gold.Chemscore.Lipo>
96.4859

> <Gold.Chemscore.Internal_Hbond>
0.0000

> <Gold.Chemscore.DEClash>
0.0300

> <Gold.Chemscore.DEInternal>
2.0643

> <Gold.Chemscore.Rot>
1.2486

> <Gold.Chemscore.Internal.Correction>
   9.000000E+99

> <Gold.Chemscore.Hbonds>
donor molecule, donor type, donor heavy atom, donor atom, acceptor molecule, acceptor atom, score
      L1  H     3    25       P1 10747  1.00
      L1  H     7    49       P1 10186  0.94
      L1  H    10    30       P1 10747  0.62
      P1  H  6896  6907       L1    16  0.39

> <Gold.Chemscore.Hbond.Weighted>
-12.0424

> <Gold.Chemscore.Metal.Weighted>
-0.0000

> <Gold.Chemscore.Lipo.Weighted>
-11.2888

> <Gold.Chemscore.Internal_Hbond.Weighted>
0.0000

> <Gold.Chemscore.DEClash.Weighted>
0.0300

> <Gold.Chemscore.DEInternal.Weighted>
2.0643

> <Gold.Chemscore.Rot.Weighted>
3.1963

> <Gold.Chemscore.Internal.Correction.Weighted>
   9.000000E+99

> <Gold.Protein.RotatedTorsions>
[ 6907 6896 6895 6894 ] final  172.66 input  -60.11 | X-H torsion
[ 7974 7965 7964 7962 ] final  -50.24 input  175.53 | X-H torsion
[ 8008 7997 7996 7995 ] final  -83.08 input   59.86 | X-H torsion
[ 10167 10162 10161 10158 ] final -109.53 input  -65.29 | X-H torsion
[ 10718 10713 10712 10709 ] final -140.92 input   66.30 | X-H torsion
[ 10763 10752 10751 10750 ] final  113.17 input  -60.55 | X-H torsion
[ 11005 11000 10999 10996 ] final   28.93 input  -57.11 | X-H torsion

> <Gold.Protein.ActiveResidues>
 VAL166  LYS551  ARG553  GLY616  TRP617  ASP618  TYR619  PRO620  LYS621  CYS622 
 ASP623  PHE694  ASN695  SER759  ASP760  ASP761  ALA762  ILE779  LEU786  VAL792 
 PHE793  MET794  SER795  GLU796  ALA797  LYS798  CYS799  TRP800  GLU811  SER814 

> <Gold.Protein.RotatedAtoms>
  151.7808  133.3349  159.3470 H   0  0  0  0  0  0  0  0  0  0  0  0  # atno 6907 bound_to 6896
  150.7427  134.5933  159.6008 H   0  0  0  0  0  0  0  0  0  0  0  0  # atno 6908 bound_to 6896
  152.3277  134.7301  160.0349 H   0  0  0  0  0  0  0  0  0  0  0  0  # atno 6909 bound_to 6896
  145.9320  140.7741  142.9595 H   0  0  0  0  0  0  0  0  0  0  0  0  # atno 7974 bound_to 7965
  154.6153  140.0624  156.9546 H   0  0  0  0  0  0  0  0  0  0  0  0  # atno 8008 bound_to 7997
  155.1906  140.3307  155.4341 H   0  0  0  0  0  0  0  0  0  0  0  0  # atno 8009 bound_to 7997
  156.2401  140.1882  156.6996 H   0  0  0  0  0  0  0  0  0  0  0  0  # atno 8010 bound_to 7997
  140.1544  143.4172  152.1472 H   0  0  0  0  0  0  0  0  0  0  0  0  # atno 10167 bound_to 10162
  156.3279  130.7570  151.1682 H   0  0  0  0  0  0  0  0  0  0  0  0  # atno 10718 bound_to 10713
  153.4885  135.3664  155.2479 H   0  0  0  0  0  0  0  0  0  0  0  0  # atno 10763 bound_to 10752
  154.8753  135.3971  154.3616 H   0  0  0  0  0  0  0  0  0  0  0  0  # atno 10764 bound_to 10752
  153.4232  135.7080  153.6346 H   0  0  0  0  0  0  0  0  0  0  0  0  # atno 10765 bound_to 10752
  140.3103  134.2657  155.7735 H   0  0  0  0  0  0  0  0  0  0  0  0  # atno 11005 bound_to 11000
  144.6766  140.2142  143.7373 LP  0  0  0  0  0  0  0  0  0  0  0  0  # atno 17320 bound_to 7965
  145.8414  139.2131  143.1825 LP  0  0  0  0  0  0  0  0  0  0  0  0  # atno 17321 bound_to 7965
  139.5411  144.7257  151.4732 LP  0  0  0  0  0  0  0  0  0  0  0  0  # atno 17342 bound_to 10162
  140.6683  143.8351  150.6968 LP  0  0  0  0  0  0  0  0  0  0  0  0  # atno 17343 bound_to 10162
  157.7425  131.0489  150.5021 LP  0  0  0  0  0  0  0  0  0  0  0  0  # atno 17370 bound_to 10713
  156.5183  130.4155  149.6264 LP  0  0  0  0  0  0  0  0  0  0  0  0  # atno 17371 bound_to 10713
  141.2109  133.7704  156.9898 LP  0  0  0  0  0  0  0  0  0  0  0  0  # atno 17394 bound_to 11000
  140.1030  134.9523  157.1952 LP  0  0  0  0  0  0  0  0  0  0  0  0  # atno 17395 bound_to 11000

$$$$
