AV-unprocessed.smi:2889|AV-procd|sdf|11115|dock3
  -GOLD-   2272015583D 1   1.00000     0.00000
 Structure written by MMmdl.
 35 36  0  0  0  0  0  0  0  0  2 V2000
  152.1810  144.7474  158.6487 C   0  0  0  0  0  0  0  0  0  0  0  0
  151.4362  143.1653  158.1646 S   0  0  0  0  0  0  0  0  0  0  0  0
  152.7023  141.9865  158.7426 C   0  0  1  0  0  0  0  0  0  0  0  0
  152.8753  142.1413  160.2782 C   0  0  0  0  0  0  0  0  0  0  0  0
  153.9158  141.1736  160.8770 C   0  0  0  0  0  0  0  0  0  0  0  0
  153.5541  139.7286  160.4833 C   0  0  0  0  0  0  0  0  0  0  0  0
  153.4018  139.5578  158.9528 C   0  0  0  0  0  0  0  0  0  0  0  0
  152.3692  140.5251  158.3183 C   0  0  2  0  0  0  0  0  0  0  0  0
  152.4095  140.3925  156.8686 N   0  5  0  0  0  0  0  0  0  0  0  0
  151.0801  139.9358  156.0599 S   0  0  0  0  0  0  0  0  0  0  0  0
  151.3782  139.4334  154.7084 O   0  0  0  0  0  0  0  0  0  0  0  0
  150.1775  139.1259  156.8941 O   0  0  0  0  0  0  0  0  0  0  0  0
  150.2348  141.5634  155.8418 C   0  0  0  0  0  0  0  0  0  0  0  0
  148.9757  141.4044  155.0329 C   0  0  0  0  0  0  0  0  0  0  0  0
  147.6249  141.4652  155.4767 C   0  0  0  0  0  0  0  0  0  0  0  0
  146.9039  141.2520  154.3380 C   0  0  0  0  0  0  0  0  0  0  0  0
  147.7318  141.0638  153.2798 O   0  0  0  0  0  0  0  0  0  0  0  0
  149.0524  141.1591  153.7334 N   0  0  0  0  0  0  0  0  0  0  0  0
  151.5151  145.5690  158.3860 H   0  0  0  0  0  0  0  0  0  0  0  0
  153.1320  144.9014  158.1395 H   0  0  0  0  0  0  0  0  0  0  0  0
  152.3532  144.7739  159.7245 H   0  0  0  0  0  0  0  0  0  0  0  0
  153.6513  142.2735  158.2869 H   0  0  0  0  0  0  0  0  0  0  0  0
  153.1725  143.1652  160.5070 H   0  0  0  0  0  0  0  0  0  0  0  0
  151.9174  141.9928  160.7815 H   0  0  0  0  0  0  0  0  0  0  0  0
  154.9095  141.4214  160.5015 H   0  0  0  0  0  0  0  0  0  0  0  0
  153.9525  141.2759  161.9618 H   0  0  0  0  0  0  0  0  0  0  0  0
  154.3252  139.0500  160.8486 H   0  0  0  0  0  0  0  0  0  0  0  0
  152.6327  139.4320  160.9885 H   0  0  0  0  0  0  0  0  0  0  0  0
  154.3773  139.7122  158.4886 H   0  0  0  0  0  0  0  0  0  0  0  0
  153.1256  138.5255  158.7359 H   0  0  0  0  0  0  0  0  0  0  0  0
  151.3842  140.2791  158.7179 H   0  0  0  0  0  0  0  0  0  0  0  0
  150.0088  141.9506  156.8355 H   0  0  0  0  0  0  0  0  0  0  0  0
  150.9301  142.2584  155.3719 H   0  0  0  0  0  0  0  0  0  0  0  0
  147.2481  141.6465  156.4725 H   0  0  0  0  0  0  0  0  0  0  0  0
  145.8458  141.2049  154.1281 H   0  0  0  0  0  0  0  0  0  0  0  0
  1  2  1  0  0  0  0
  1 19  1  0  0  0  0
  1 20  1  0  0  0  0
  1 21  1  0  0  0  0
  2  3  1  0  0  0  0
  3  8  1  0  0  0  0
  3  4  1  0  0  0  0
  3 22  1  0  0  0  0
  4  5  1  0  0  0  0
  4 23  1  0  0  0  0
  4 24  1  0  0  0  0
  5  6  1  0  0  0  0
  5 25  1  0  0  0  0
  5 26  1  0  0  0  0
  6  7  1  0  0  0  0
  6 27  1  0  0  0  0
  6 28  1  0  0  0  0
  7  8  1  0  0  0  0
  7 29  1  0  0  0  0
  7 30  1  0  0  0  0
  8  9  1  0  0  0  0
  8 31  1  0  0  0  0
  9 10  1  0  0  0  0
 10 11  2  0  0  0  0
 10 12  2  0  0  0  0
 10 13  1  0  0  0  0
 13 14  1  0  0  0  0
 13 32  1  0  0  0  0
 13 33  1  0  0  0  0
 14 18  2  0  0  0  0
 14 15  1  0  0  0  0
 15 16  2  0  0  0  0
 15 34  1  0  0  0  0
 16 17  1  0  0  0  0
 16 35  1  0  0  0  0
 17 18  1  0  0  0  0
M  CHG  1   9  -1
M  END
> <s_m_source_file>
AV-unprocessed.smi

> <i_m_source_file_index>
2889

> <i_lp_mmshare_version>
43012

> <i_f3d_flags>
0

> <s_epik_input>
W0NIM11TW0NAQEhdMVtDSDJdW0NIMl1bQ0gyXVtDSDJdW0NASF0xW05IXVMoPU8pKD1PKVtDSDJdYzJbY0hdW2NIXW9uMg==

> <s_epik_cmdline>
J2VwaWtfcHl0aG9uJywgJy1waCcsICc3LjAnLCAnLXRuJywgJzgnLCAnLW1hJywgJzIwMCcsICctbWV0YWxfYmluZGluZycsICctaW1hZScsICc8aW5maWxlLm1hZT4nLCAnLW9tYWUnLCAnPG91dGZpbGUubWFlPic=

> <r_lp_tautomer_probability>
1

> <r_epik_Ionization_Penalty>
4.65467

> <r_epik_Ionization_Penalty_Charging>
4.65467

> <r_epik_Ionization_Penalty_Neutral>
2.71476e-10

> <r_epik_State_Penalty>
4.65444

> <r_epik_Charging_Adjusted_Penalty>
9.30911

> <i_epik_Tot_Q>
-1

> <i_epik_Tot_abs_Q>
1

> <r_epik_Metal_State_Penalty>
0.901484

> <b_epik_Metal_Only>
1

> <s_lp_Force_Field>
OPLS_2005

> <r_lp_Energy>
9.1096

> <b_lp_Chiralities_Consistent>
1

> <s_lp_Variant>
AV-unprocessed.smi:2889-8

> <Gold.Version>
5.8.1

> <Gold.Id.Protein>
6NUR|6NUR_protein|mol2

> <Gold.PLP.Fitness>
45.6351

> <Gold.PLP.PLP>
-33.3557

> <Gold.PLP.part.hbond>
-3.6614

> <Gold.PLP.part.metal>
0.0000

> <Gold.PLP.part.buried>
-2.8052

> <Gold.PLP.part.nonpolar>
-29.6900

> <Gold.PLP.part.repulsive>
2.8713

> <Gold.PLP.ligand.clash>
0.0000

> <Gold.PLP.ligand.torsion>
0.6585

> <Gold.PLP.Chemscore.Hbond>
3.8800

> <Gold.PLP.Chemscore.CHOScore>
0.3151

> <Gold.PLP.Chemscore.Metal>
0.0000

> <Gold.Chemscore.Hbonds>
donor molecule, donor type, donor heavy atom, donor atom, acceptor molecule, acceptor atom, score
      P1  H  7989  7998       L1    11  1.00
      P1  H  7997  8010       L1     9  1.92
      P1  H  8011  8017       L1    18  0.87
      L1  C    16    35       P1 10175  0.31

> <Gold.PLP.Chemscore.Internal.Correction>
1.0114

> <Gold.Rescore>
     Score         DG    S(hbond)    S(metal)    S(lipo)     H(rot)  DE(clash)    DE(int)     intcor
     17.41     -18.90       1.68        0.00     100.27       1.53       0.85       0.64       ----

> <Gold.Chemscore.Fitness>
17.4073

> <Gold.Chemscore.DG>
-18.9000

> <Gold.Chemscore.ZeroCoef>
-5.4800

> <Gold.Chemscore.Hbond>
1.6795

> <Gold.Chemscore.Metal>
0.0000

> <Gold.Chemscore.Lipo>
100.2658

> <Gold.Chemscore.Internal_Hbond>
0.0000

> <Gold.Chemscore.DEClash>
0.8524

> <Gold.Chemscore.DEInternal>
0.6402

> <Gold.Chemscore.Rot>
1.5314

> <Gold.Chemscore.Internal.Correction>
   9.000000E+99

> <Gold.Chemscore.Hbonds>
donor molecule, donor type, donor heavy atom, donor atom, acceptor molecule, acceptor atom, score
      P1  H  7989  7998       L1    11  0.78
      P1  H  7997  8010       L1     9  0.31
      P1  H  8011  8017       L1    18  0.18

> <Gold.Chemscore.Hbond.Weighted>
-5.6094

> <Gold.Chemscore.Metal.Weighted>
-0.0000

> <Gold.Chemscore.Lipo.Weighted>
-11.7311

> <Gold.Chemscore.Internal_Hbond.Weighted>
0.0000

> <Gold.Chemscore.DEClash.Weighted>
0.8524

> <Gold.Chemscore.DEInternal.Weighted>
0.6402

> <Gold.Chemscore.Rot.Weighted>
3.9205

> <Gold.Chemscore.Internal.Correction.Weighted>
   9.000000E+99

> <Gold.Protein.RotatedTorsions>
[ 6907 6896 6895 6894 ] final  100.86 input  -60.11 | X-H torsion
[ 7974 7965 7964 7962 ] final  107.12 input  175.53 | X-H torsion
[ 8008 7997 7996 7995 ] final   66.90 input   59.86 | X-H torsion
[ 10167 10162 10161 10158 ] final   -6.68 input  -65.29 | X-H torsion
[ 10718 10713 10712 10709 ] final  134.79 input   66.30 | X-H torsion
[ 10763 10752 10751 10750 ] final  105.79 input  -60.55 | X-H torsion
[ 11005 11000 10999 10996 ] final -175.94 input  -57.11 | X-H torsion

> <Gold.Protein.ActiveResidues>
 VAL166  LYS551  ARG553  GLY616  TRP617  ASP618  TYR619  PRO620  LYS621  CYS622 
 ASP623  PHE694  ASN695  SER759  ASP760  ASP761  ALA762  ILE779  LEU786  VAL792 
 PHE793  MET794  SER795  GLU796  ALA797  LYS798  CYS799  TRP800  GLU811  SER814 

> <Gold.Protein.RotatedAtoms>
  152.5363  134.0213  159.7982 H   0  0  0  0  0  0  0  0  0  0  0  0  # atno 6907 bound_to 6896
  151.0399  133.5707  159.2659 H   0  0  0  0  0  0  0  0  0  0  0  0  # atno 6908 bound_to 6896
  151.2681  135.0683  159.9177 H   0  0  0  0  0  0  0  0  0  0  0  0  # atno 6909 bound_to 6896
  145.2978  139.2579  143.3830 H   0  0  0  0  0  0  0  0  0  0  0  0  # atno 7974 bound_to 7965
  155.6846  140.3496  155.4869 H   0  0  0  0  0  0  0  0  0  0  0  0  # atno 8008 bound_to 7997
  155.9577  140.1131  157.0945 H   0  0  0  0  0  0  0  0  0  0  0  0  # atno 8009 bound_to 7997
  154.4136  140.1182  156.5123 H   0  0  0  0  0  0  0  0  0  0  0  0  # atno 8010 bound_to 7997
  140.7005  143.6166  150.8652 H   0  0  0  0  0  0  0  0  0  0  0  0  # atno 10167 bound_to 10162
  157.4636  131.1075  150.9889 H   0  0  0  0  0  0  0  0  0  0  0  0  # atno 10718 bound_to 10713
  153.3842  135.3898  155.1878 H   0  0  0  0  0  0  0  0  0  0  0  0  # atno 10763 bound_to 10752
  154.8711  135.3733  154.4819 H   0  0  0  0  0  0  0  0  0  0  0  0  # atno 10764 bound_to 10752
  153.5299  135.7086  153.5750 H   0  0  0  0  0  0  0  0  0  0  0  0  # atno 10765 bound_to 10752
  140.4577  134.6284  157.4829 H   0  0  0  0  0  0  0  0  0  0  0  0  # atno 11005 bound_to 11000
  146.3162  140.3485  142.8654 LP  0  0  0  0  0  0  0  0  0  0  0  0  # atno 17320 bound_to 7965
  144.9119  140.7767  143.5802 LP  0  0  0  0  0  0  0  0  0  0  0  0  # atno 17321 bound_to 7965
  139.9888  143.5870  152.2917 LP  0  0  0  0  0  0  0  0  0  0  0  0  # atno 17342 bound_to 10162
  139.6517  144.7661  151.2134 LP  0  0  0  0  0  0  0  0  0  0  0  0  # atno 17343 bound_to 10162
  157.0678  130.5851  149.5397 LP  0  0  0  0  0  0  0  0  0  0  0  0  # atno 17370 bound_to 10713
  156.0040  130.5124  150.7765 LP  0  0  0  0  0  0  0  0  0  0  0  0  # atno 17371 bound_to 10713
  139.9965  134.6902  155.9600 LP  0  0  0  0  0  0  0  0  0  0  0  0  # atno 17394 bound_to 11000
  141.1635  133.6538  156.4401 LP  0  0  0  0  0  0  0  0  0  0  0  0  # atno 17395 bound_to 11000

$$$$
