AV-unprocessed.smi:589|AV-procd|sdf|3006|dock1
  -GOLD-   2262023513D 1   1.00000     0.00000
 Structure written by MMmdl.
 40 41  0  0  0  0  0  0  0  0  1 V2000
  151.8594  144.7208  159.8047 C   0  0  0  0  0  0  0  0  0  0  0  0
  152.3240  143.3018  159.5534 C   0  0  0  0  0  0  0  0  0  0  0  0
  153.4468  142.7773  160.2184 C   0  0  0  0  0  0  0  0  0  0  0  0
  153.8396  141.4503  159.9494 C   0  0  0  0  0  0  0  0  0  0  0  0
  155.0822  140.9115  160.6438 C   0  0  0  0  0  0  0  0  0  0  0  0
  153.0745  140.6821  159.0260 C   0  0  0  0  0  0  0  0  0  0  0  0
  153.4406  139.2570  158.6916 C   0  0  0  0  0  0  0  0  0  0  0  0
  153.6188  138.4387  159.7325 N   0  0  0  0  0  0  0  0  0  0  0  0
  153.5325  138.8743  157.5267 O   0  0  0  0  0  0  0  0  0  0  0  0
  151.9650  141.3173  158.3958 C   0  0  0  0  0  0  0  0  0  0  0  0
  151.1618  140.6250  157.4733 N   0  0  0  0  0  0  0  0  0  0  0  0
  150.4208  141.4710  156.5494 C   0  0  0  0  0  0  0  0  0  0  0  0
  149.7872  140.6027  155.4482 C   0  0  2  0  0  0  0  0  0  0  0  0
  148.9069  141.4270  154.5035 C   0  0  0  0  0  0  0  0  0  0  0  0
  148.9738  139.5933  156.0492 O   0  0  0  0  0  0  0  0  0  0  0  0
  149.6561  138.7415  156.9752 C   0  0  1  0  0  0  0  0  0  0  0  0
  150.6174  137.7700  156.2677 C   0  0  0  0  0  0  0  0  0  0  0  0
  150.3367  139.5854  158.0713 C   0  0  0  0  0  0  0  0  0  0  0  0
  151.6025  142.5943  158.6633 N   0  0  0  0  0  0  0  0  0  0  0  0
  152.5273  145.2409  160.4918 H   0  0  0  0  0  0  0  0  0  0  0  0
  150.8588  144.7199  160.2378 H   0  0  0  0  0  0  0  0  0  0  0  0
  151.8296  145.2815  158.8701 H   0  0  0  0  0  0  0  0  0  0  0  0
  154.0024  143.3865  160.9164 H   0  0  0  0  0  0  0  0  0  0  0  0
  155.7390  140.4063  159.9350 H   0  0  0  0  0  0  0  0  0  0  0  0
  154.8074  140.2086  161.4304 H   0  0  0  0  0  0  0  0  0  0  0  0
  155.6570  141.7168  161.1023 H   0  0  0  0  0  0  0  0  0  0  0  0
  153.8683  137.4728  159.5778 H   0  0  0  0  0  0  0  0  0  0  0  0
  153.5057  138.7923  160.6716 H   0  0  0  0  0  0  0  0  0  0  0  0
  149.6458  142.0163  157.0901 H   0  0  0  0  0  0  0  0  0  0  0  0
  151.0914  142.2097  156.1087 H   0  0  0  0  0  0  0  0  0  0  0  0
  150.5732  140.1351  154.8546 H   0  0  0  0  0  0  0  0  0  0  0  0
  149.4867  142.2058  154.0077 H   0  0  0  0  0  0  0  0  0  0  0  0
  148.0908  141.9082  155.0432 H   0  0  0  0  0  0  0  0  0  0  0  0
  148.4688  140.7959  153.7298 H   0  0  0  0  0  0  0  0  0  0  0  0
  148.8876  138.1334  157.4530 H   0  0  0  0  0  0  0  0  0  0  0  0
  151.0298  137.0519  156.9766 H   0  0  0  0  0  0  0  0  0  0  0  0
  151.4593  138.2841  155.8045 H   0  0  0  0  0  0  0  0  0  0  0  0
  150.0995  137.2071  155.4909 H   0  0  0  0  0  0  0  0  0  0  0  0
  150.9413  138.9511  158.7209 H   0  0  0  0  0  0  0  0  0  0  0  0
  149.5763  140.0525  158.6989 H   0  0  0  0  0  0  0  0  0  0  0  0
  1  2  1  0  0  0  0
  1 20  1  0  0  0  0
  1 21  1  0  0  0  0
  1 22  1  0  0  0  0
  2 19  1  0  0  0  0
  2  3  2  0  0  0  0
  3  4  1  0  0  0  0
  3 23  1  0  0  0  0
  4  5  1  0  0  0  0
  4  6  2  0  0  0  0
  5 24  1  0  0  0  0
  5 25  1  0  0  0  0
  5 26  1  0  0  0  0
  6  7  1  0  0  0  0
  6 10  1  0  0  0  0
  7  8  1  0  0  0  0
  7  9  2  0  0  0  0
  8 27  1  0  0  0  0
  8 28  1  0  0  0  0
 10 11  1  0  0  0  0
 10 19  2  0  0  0  0
 11 18  1  0  0  0  0
 11 12  1  0  0  0  0
 12 13  1  0  0  0  0
 12 29  1  0  0  0  0
 12 30  1  0  0  0  0
 13 14  1  0  0  0  0
 13 15  1  0  0  0  0
 13 31  1  0  0  0  0
 14 32  1  0  0  0  0
 14 33  1  0  0  0  0
 14 34  1  0  0  0  0
 15 16  1  0  0  0  0
 16 17  1  0  0  0  0
 16 18  1  0  0  0  0
 16 35  1  0  0  0  0
 17 36  1  0  0  0  0
 17 37  1  0  0  0  0
 17 38  1  0  0  0  0
 18 39  1  0  0  0  0
 18 40  1  0  0  0  0
M  END
> <s_m_source_file>
AV-unprocessed.smi

> <i_m_source_file_index>
589

> <i_lp_mmshare_version>
43012

> <i_f3d_flags>
0

> <s_epik_input>
W0NIM11jMVtjSF1jKFtDSDNdKWMoQyg9TylbTkgyXSljKG4xKU4yW0NIMl1bQ0BASF0oW0NIM10pT1tDQEBIXShbQ0gzXSlbQ0gyXTI=

> <s_epik_cmdline>
J2VwaWtfcHl0aG9uJywgJy1waCcsICc3LjAnLCAnLXRuJywgJzgnLCAnLW1hJywgJzIwMCcsICctbWV0YWxfYmluZGluZycsICctaW1hZScsICc8aW5maWxlLm1hZT4nLCAnLW9tYWUnLCAnPG91dGZpbGUubWFlPic=

> <r_lp_tautomer_probability>
1

> <r_epik_Ionization_Penalty>
0.000626871

> <r_epik_Ionization_Penalty_Charging>
0

> <r_epik_Ionization_Penalty_Neutral>
0.000626871

> <r_epik_State_Penalty>
0.000395665

> <r_epik_Charging_Adjusted_Penalty>
0.000395665

> <i_epik_Tot_Q>
0

> <i_epik_Tot_abs_Q>
0

> <r_epik_Metal_State_Penalty>
-0

> <b_epik_Metal_Only>
0

> <s_lp_Force_Field>
OPLS_2005

> <r_lp_Energy>
27.5489

> <b_lp_Chiralities_Consistent>
1

> <s_lp_Variant>
AV-unprocessed.smi:589-2

> <Gold.Version>
5.8.1

> <Gold.Id.Protein>
6NUR|6NUR_protein|mol2

> <Gold.PLP.Fitness>
35.0546

> <Gold.PLP.PLP>
-34.3254

> <Gold.PLP.part.hbond>
-1.0000

> <Gold.PLP.part.metal>
0.0000

> <Gold.PLP.part.buried>
-3.2990

> <Gold.PLP.part.nonpolar>
-29.7297

> <Gold.PLP.part.repulsive>
0.0922

> <Gold.PLP.ligand.clash>
0.0000

> <Gold.PLP.ligand.torsion>
1.3068

> <Gold.PLP.Chemscore.Hbond>
1.0000

> <Gold.PLP.Chemscore.CHOScore>
0.0000

> <Gold.PLP.Chemscore.Metal>
0.0000

> <Gold.Chemscore.Hbonds>
donor molecule, donor type, donor heavy atom, donor atom, acceptor molecule, acceptor atom, score
      P1  H  7997  8009       L1     9  1.00

> <Gold.PLP.Chemscore.Internal.Correction>
0.3429

> <Gold.Rescore>
     Score         DG    S(hbond)    S(metal)    S(lipo)     H(rot)  DE(clash)    DE(int)     intcor
     14.97     -16.58       0.96        0.00      89.29       1.00       0.02       1.59       ----

> <Gold.Chemscore.Fitness>
14.9700

> <Gold.Chemscore.DG>
-16.5779

> <Gold.Chemscore.ZeroCoef>
-5.4800

> <Gold.Chemscore.Hbond>
0.9613

> <Gold.Chemscore.Metal>
0.0000

> <Gold.Chemscore.Lipo>
89.2918

> <Gold.Chemscore.Internal_Hbond>
0.0000

> <Gold.Chemscore.DEClash>
0.0202

> <Gold.Chemscore.DEInternal>
1.5876

> <Gold.Chemscore.Rot>
1.0000

> <Gold.Chemscore.Internal.Correction>
   9.000000E+99

> <Gold.Chemscore.Hbonds>
donor molecule, donor type, donor heavy atom, donor atom, acceptor molecule, acceptor atom, score
      P1  H  7997  8009       L1     9  0.25

> <Gold.Chemscore.Hbond.Weighted>
-3.2107

> <Gold.Chemscore.Metal.Weighted>
-0.0000

> <Gold.Chemscore.Lipo.Weighted>
-10.4471

> <Gold.Chemscore.Internal_Hbond.Weighted>
0.0000

> <Gold.Chemscore.DEClash.Weighted>
0.0202

> <Gold.Chemscore.DEInternal.Weighted>
1.5876

> <Gold.Chemscore.Rot.Weighted>
2.5600

> <Gold.Chemscore.Internal.Correction.Weighted>
   9.000000E+99

> <Gold.Protein.RotatedTorsions>
[ 6907 6896 6895 6894 ] final  142.94 input  -60.11 | X-H torsion
[ 7974 7965 7964 7962 ] final -136.57 input  175.53 | X-H torsion
[ 8008 7997 7996 7995 ] final  161.66 input   59.86 | X-H torsion
[ 10167 10162 10161 10158 ] final -176.54 input  -65.29 | X-H torsion
[ 10718 10713 10712 10709 ] final  139.07 input   66.30 | X-H torsion
[ 10763 10752 10751 10750 ] final  160.70 input  -60.55 | X-H torsion
[ 11005 11000 10999 10996 ] final -174.36 input  -57.11 | X-H torsion

> <Gold.Protein.ActiveResidues>
 VAL166  LYS551  ARG553  GLY616  TRP617  ASP618  TYR619  PRO620  LYS621  CYS622 
 ASP623  PHE694  ASN695  SER759  ASP760  ASP761  ALA762  ILE779  LEU786  VAL792 
 PHE793  MET794  SER795  GLU796  ALA797  LYS798  CYS799  TRP800  GLU811  SER814 

> <Gold.Protein.RotatedAtoms>
  152.2125  133.4922  159.5117 H   0  0  0  0  0  0  0  0  0  0  0  0  # atno 6907 bound_to 6896
  150.6993  134.1448  159.4127 H   0  0  0  0  0  0  0  0  0  0  0  0  # atno 6908 bound_to 6896
  151.9368  135.0231  160.0584 H   0  0  0  0  0  0  0  0  0  0  0  0  # atno 6909 bound_to 6896
  144.8916  140.6650  143.5142 H   0  0  0  0  0  0  0  0  0  0  0  0  # atno 7974 bound_to 7965
  156.2087  140.1771  156.7742 H   0  0  0  0  0  0  0  0  0  0  0  0  # atno 8008 bound_to 7997
  154.5692  140.0685  156.8968 H   0  0  0  0  0  0  0  0  0  0  0  0  # atno 8009 bound_to 7997
  155.2705  140.3342  155.4268 H   0  0  0  0  0  0  0  0  0  0  0  0  # atno 8010 bound_to 7997
  139.5525  144.2073  152.1102 H   0  0  0  0  0  0  0  0  0  0  0  0  # atno 10167 bound_to 10162
  157.4184  131.1036  151.0380 H   0  0  0  0  0  0  0  0  0  0  0  0  # atno 10718 bound_to 10713
  154.2515  135.2771  155.2814 H   0  0  0  0  0  0  0  0  0  0  0  0  # atno 10763 bound_to 10752
  154.5460  135.5689  153.6884 H   0  0  0  0  0  0  0  0  0  0  0  0  # atno 10764 bound_to 10752
  152.9979  135.6263  154.2663 H   0  0  0  0  0  0  0  0  0  0  0  0  # atno 10765 bound_to 10752
  140.4753  134.6126  157.4898 H   0  0  0  0  0  0  0  0  0  0  0  0  # atno 11005 bound_to 11000
  145.3773  139.1645  143.4299 LP  0  0  0  0  0  0  0  0  0  0  0  0  # atno 17320 bound_to 7965
  146.3057  140.3850  142.8688 LP  0  0  0  0  0  0  0  0  0  0  0  0  # atno 17321 bound_to 7965
  140.1571  144.5060  150.6653 LP  0  0  0  0  0  0  0  0  0  0  0  0  # atno 17342 bound_to 10162
  140.6790  143.2318  151.5432 LP  0  0  0  0  0  0  0  0  0  0  0  0  # atno 17343 bound_to 10162
  157.1319  130.6106  149.5532 LP  0  0  0  0  0  0  0  0  0  0  0  0  # atno 17370 bound_to 10713
  155.9872  130.4911  150.7116 LP  0  0  0  0  0  0  0  0  0  0  0  0  # atno 17371 bound_to 10713
  139.9859  134.7062  155.9774 LP  0  0  0  0  0  0  0  0  0  0  0  0  # atno 17394 bound_to 11000
  141.1557  133.6543  156.4154 LP  0  0  0  0  0  0  0  0  0  0  0  0  # atno 17395 bound_to 11000

$$$$
