AV-unprocessed.smi:203|AV-procd|sdf|1585|dock1
  -GOLD-   2262019473D 1   1.00000     0.00000
 Structure written by MMmdl.
 57 61  0  0  0  0  0  0  0  0  1 V2000
  150.0636  132.3581  157.9361 O   0  0  0  0  0  0  0  0  0  0  0  0
  148.9346  132.8247  158.0689 C   0  0  0  0  0  0  0  0  0  0  0  0
  148.6532  134.3099  158.2167 C   0  0  0  0  0  0  0  0  0  0  0  0
  147.1550  134.3613  158.5797 C   0  0  2  0  0  0  0  0  0  0  0  0
  146.8559  134.8307  160.0397 C   0  0  1  0  0  0  0  0  0  0  0  0
  146.8677  133.6639  161.0620 C   0  0  0  0  0  0  0  0  0  0  0  0
  146.5599  134.1527  162.4836 C   0  0  0  0  0  0  0  0  0  0  0  0
  147.5446  135.2580  162.8802 C   0  0  0  0  0  0  0  0  0  0  0  0
  147.5110  136.3982  161.8538 C   0  0  0  0  0  0  0  0  0  0  0  0
  147.7574  135.9027  160.5003 N   0  0  0  0  0  0  0  0  0  0  0  0
  147.9488  136.9345  159.6487 C   0  0  0  0  0  0  0  0  0  0  0  0
  146.8434  137.5602  159.1757 N   0  0  0  0  0  0  0  0  0  0  0  0
  146.9703  138.6108  158.3593 C   0  0  0  0  0  0  0  0  0  0  0  0
  148.0864  139.1873  157.9076 N   0  0  0  0  0  0  0  0  0  0  0  0
  149.1985  138.5518  158.3764 C   0  0  0  0  0  0  0  0  0  0  0  0
  149.2215  137.4168  159.2333 C   0  0  0  0  0  0  0  0  0  0  0  0
  150.5345  137.0379  159.4862 N   0  0  0  0  0  0  0  0  0  0  0  0
  151.2481  137.9130  158.8326 C   0  0  0  0  0  0  0  0  0  0  0  0
  150.5266  138.8756  158.1628 N   0  0  0  0  0  0  0  0  0  0  0  0
  151.0615  139.9836  157.3917 C   0  0  0  0  0  0  0  0  0  0  0  0
  150.3351  141.3241  157.6562 C   0  0  2  0  0  0  0  0  0  0  0  0
  150.1431  141.9823  156.4211 O   0  0  0  0  0  0  0  0  0  0  0  0
  151.0045  142.3081  158.6467 C   0  0  2  0  0  0  0  0  0  0  0  0
  150.4398  143.7297  158.6939 C   0  0  0  0  0  0  0  0  0  0  0  0
  151.6002  144.4900  159.2968 C   0  0  0  0  0  0  0  0  0  0  0  0
  152.8028  143.8022  158.6544 C   0  0  0  0  0  0  0  0  0  0  0  0
  152.3999  142.4595  158.3956 O   0  0  0  0  0  0  0  0  0  0  0  0
  146.6204  132.9464  158.2712 C   0  0  0  0  0  0  0  0  0  0  0  0
  147.8026  132.1247  158.1017 N   0  0  0  0  0  0  0  0  0  0  0  0
  149.2973  134.7651  158.9691 H   0  0  0  0  0  0  0  0  0  0  0  0
  148.8430  134.8074  157.2650 H   0  0  0  0  0  0  0  0  0  0  0  0
  146.6573  135.0332  157.8803 H   0  0  0  0  0  0  0  0  0  0  0  0
  145.8463  135.2425  160.0459 H   0  0  0  0  0  0  0  0  0  0  0  0
  146.1423  132.8986  160.7885 H   0  0  0  0  0  0  0  0  0  0  0  0
  147.8409  133.1729  161.0654 H   0  0  0  0  0  0  0  0  0  0  0  0
  145.5383  134.5317  162.5321 H   0  0  0  0  0  0  0  0  0  0  0  0
  146.6213  133.3231  163.1885 H   0  0  0  0  0  0  0  0  0  0  0  0
  147.3021  135.6397  163.8722 H   0  0  0  0  0  0  0  0  0  0  0  0
  148.5538  134.8485  162.9409 H   0  0  0  0  0  0  0  0  0  0  0  0
  146.5397  136.8939  161.8858 H   0  0  0  0  0  0  0  0  0  0  0  0
  148.2586  137.1475  162.1191 H   0  0  0  0  0  0  0  0  0  0  0  0
  146.0454  139.0591  158.0277 H   0  0  0  0  0  0  0  0  0  0  0  0
  152.3282  137.8913  158.8401 H   0  0  0  0  0  0  0  0  0  0  0  0
  152.1248  140.0766  157.6167 H   0  0  0  0  0  0  0  0  0  0  0  0
  150.9941  139.7238  156.3344 H   0  0  0  0  0  0  0  0  0  0  0  0
  149.3379  141.1036  158.0383 H   0  0  0  0  0  0  0  0  0  0  0  0
  149.6608  142.7798  156.5771 H   0  0  0  0  0  0  0  0  0  0  0  0
  150.9385  141.8862  159.6514 H   0  0  0  0  0  0  0  0  0  0  0  0
  150.2304  144.1151  157.6970 H   0  0  0  0  0  0  0  0  0  0  0  0
  149.5273  143.8042  159.2862 H   0  0  0  0  0  0  0  0  0  0  0  0
  151.5637  145.5608  159.0942 H   0  0  0  0  0  0  0  0  0  0  0  0
  151.6194  144.3466  160.3780 H   0  0  0  0  0  0  0  0  0  0  0  0
  153.0509  144.2784  157.7056 H   0  0  0  0  0  0  0  0  0  0  0  0
  153.6887  143.8365  159.2892 H   0  0  0  0  0  0  0  0  0  0  0  0
  145.9698  132.5510  159.0514 H   0  0  0  0  0  0  0  0  0  0  0  0
  146.0544  132.9400  157.3388 H   0  0  0  0  0  0  0  0  0  0  0  0
  147.7585  131.1192  158.0194 H   0  0  0  0  0  0  0  0  0  0  0  0
  1  2  2  0  0  0  0
  2 29  1  0  0  0  0
  2  3  1  0  0  0  0
  3  4  1  0  0  0  0
  3 30  1  0  0  0  0
  3 31  1  0  0  0  0
  4  5  1  0  0  0  0
  4 28  1  0  0  0  0
  4 32  1  0  0  0  0
  5 10  1  0  0  0  0
  5  6  1  0  0  0  0
  5 33  1  0  0  0  0
  6  7  1  0  0  0  0
  6 34  1  0  0  0  0
  6 35  1  0  0  0  0
  7  8  1  0  0  0  0
  7 36  1  0  0  0  0
  7 37  1  0  0  0  0
  8  9  1  0  0  0  0
  8 38  1  0  0  0  0
  8 39  1  0  0  0  0
  9 10  1  0  0  0  0
  9 40  1  0  0  0  0
  9 41  1  0  0  0  0
 10 11  1  0  0  0  0
 11 16  1  0  0  0  0
 11 12  2  0  0  0  0
 12 13  1  0  0  0  0
 13 14  2  0  0  0  0
 13 42  1  0  0  0  0
 14 15  1  0  0  0  0
 15 19  1  0  0  0  0
 15 16  2  0  0  0  0
 16 17  1  0  0  0  0
 17 18  2  0  0  0  0
 18 19  1  0  0  0  0
 18 43  1  0  0  0  0
 19 20  1  0  0  0  0
 20 21  1  0  0  0  0
 20 44  1  0  0  0  0
 20 45  1  0  0  0  0
 21 22  1  0  0  0  0
 21 23  1  0  0  0  0
 21 46  1  0  0  0  0
 22 47  1  0  0  0  0
 23 27  1  0  0  0  0
 23 24  1  0  0  0  0
 23 48  1  0  0  0  0
 24 25  1  0  0  0  0
 24 49  1  0  0  0  0
 24 50  1  0  0  0  0
 25 26  1  0  0  0  0
 25 51  1  0  0  0  0
 25 52  1  0  0  0  0
 26 27  1  0  0  0  0
 26 53  1  0  0  0  0
 26 54  1  0  0  0  0
 28 29  1  0  0  0  0
 28 55  1  0  0  0  0
 28 56  1  0  0  0  0
 29 57  1  0  0  0  0
M  END
> <s_m_source_file>
AV-unprocessed.smi

> <i_m_source_file_index>
203

> <i_lp_mmshare_version>
43012

> <i_f3d_flags>
0

> <s_epik_input>
Tz1DMVtDSDJdW0NASF0oW0NIMl1bTkhdMSlbQ0BASF0yW0NIMl1bQ0gyXVtDSDJdW0NIMl1OMmMobltjSF1uMyljKGMzNCluW2NIXW40W0NIMl1bQ0BIXShbT0hdKVtDQEBIXTVbQ0gyXVtDSDJdW0NIMl1PNQ==

> <s_epik_cmdline>
J2VwaWtfcHl0aG9uJywgJy1waCcsICc3LjAnLCAnLXRuJywgJzgnLCAnLW1hJywgJzIwMCcsICctbWV0YWxfYmluZGluZycsICctaW1hZScsICc8aW5maWxlLm1hZT4nLCAnLW9tYWUnLCAnPG91dGZpbGUubWFlPic=

> <r_lp_tautomer_probability>
1

> <r_epik_Ionization_Penalty>
0.00175146

> <r_epik_Ionization_Penalty_Charging>
0

> <r_epik_Ionization_Penalty_Neutral>
0.00175146

> <r_epik_State_Penalty>
0.00109045

> <r_epik_Charging_Adjusted_Penalty>
0.00109045

> <i_epik_Tot_Q>
0

> <i_epik_Tot_abs_Q>
0

> <r_epik_Metal_State_Penalty>
-0

> <b_epik_Metal_Only>
0

> <s_lp_Force_Field>
OPLS_2005

> <r_lp_Energy>
55.4262

> <b_lp_Chiralities_Consistent>
1

> <s_lp_Variant>
AV-unprocessed.smi:203-4

> <Gold.Version>
5.8.1

> <Gold.Id.Protein>
6NUR|6NUR_protein|mol2

> <Gold.PLP.Fitness>
44.0693

> <Gold.PLP.PLP>
-40.6991

> <Gold.PLP.part.hbond>
-2.9313

> <Gold.PLP.part.metal>
0.0000

> <Gold.PLP.part.buried>
-5.4340

> <Gold.PLP.part.nonpolar>
-33.6715

> <Gold.PLP.part.repulsive>
0.0226

> <Gold.PLP.ligand.clash>
0.0000

> <Gold.PLP.ligand.torsion>
1.8779

> <Gold.PLP.Chemscore.Hbond>
2.2500

> <Gold.PLP.Chemscore.CHOScore>
0.0000

> <Gold.PLP.Chemscore.Metal>
0.0000

> <Gold.Chemscore.Hbonds>
donor molecule, donor type, donor heavy atom, donor atom, acceptor molecule, acceptor atom, score
      L1  H    22    47       P1  8028  0.34
      P1  H  6896  6907       L1     1  1.00
      P1  H  6896  6908       L1    17  0.89
      P1  H  6934  6947       L1    12  0.03

> <Gold.PLP.Chemscore.Internal.Correction>
0.3760

> <Gold.Rescore>
     Score         DG    S(hbond)    S(metal)    S(lipo)     H(rot)  DE(clash)    DE(int)     intcor
     13.05     -15.59       1.74        0.00      96.22       2.72       0.02       2.53       ----

> <Gold.Chemscore.Fitness>
13.0531

> <Gold.Chemscore.DG>
-15.5941

> <Gold.Chemscore.ZeroCoef>
-5.4800

> <Gold.Chemscore.Hbond>
1.7402

> <Gold.Chemscore.Metal>
0.0000

> <Gold.Chemscore.Lipo>
96.2194

> <Gold.Chemscore.Internal_Hbond>
0.0000

> <Gold.Chemscore.DEClash>
0.0153

> <Gold.Chemscore.DEInternal>
2.5257

> <Gold.Chemscore.Rot>
2.7171

> <Gold.Chemscore.Internal.Correction>
   9.000000E+99

> <Gold.Chemscore.Hbonds>
donor molecule, donor type, donor heavy atom, donor atom, acceptor molecule, acceptor atom, score
      L1  H    22    47       P1  8028  0.33
      P1  H  6896  6907       L1     1  0.38
      P1  H  6896  6908       L1    17  0.85

> <Gold.Chemscore.Hbond.Weighted>
-5.8121

> <Gold.Chemscore.Metal.Weighted>
-0.0000

> <Gold.Chemscore.Lipo.Weighted>
-11.2577

> <Gold.Chemscore.Internal_Hbond.Weighted>
0.0000

> <Gold.Chemscore.DEClash.Weighted>
0.0153

> <Gold.Chemscore.DEInternal.Weighted>
2.5257

> <Gold.Chemscore.Rot.Weighted>
6.9557

> <Gold.Chemscore.Internal.Correction.Weighted>
   9.000000E+99

> <Gold.Protein.RotatedTorsions>
[ 6907 6896 6895 6894 ] final -149.76 input  -60.11 | X-H torsion
[ 7974 7965 7964 7962 ] final  -90.82 input  175.53 | X-H torsion
[ 8008 7997 7996 7995 ] final  134.48 input   59.86 | X-H torsion
[ 10167 10162 10161 10158 ] final  -72.93 input  -65.29 | X-H torsion
[ 10718 10713 10712 10709 ] final   79.89 input   66.30 | X-H torsion
[ 10763 10752 10751 10750 ] final  146.41 input  -60.55 | X-H torsion
[ 11005 11000 10999 10996 ] final   46.67 input  -57.11 | X-H torsion

> <Gold.Protein.ActiveResidues>
 VAL166  LYS551  ARG553  GLY616  TRP617  ASP618  TYR619  PRO620  LYS621  CYS622 
 ASP623  PHE694  ASN695  SER759  ASP760  ASP761  ALA762  ILE779  LEU786  VAL792 
 PHE793  MET794  SER795  GLU796  ALA797  LYS798  CYS799  TRP800  GLU811  SER814 

> <Gold.Protein.RotatedAtoms>
  151.1888  133.4680  159.2594 H   0  0  0  0  0  0  0  0  0  0  0  0  # atno 6907 bound_to 6896
  151.1185  135.0066  159.8537 H   0  0  0  0  0  0  0  0  0  0  0  0  # atno 6908 bound_to 6896
  152.5454  134.1801  159.8685 H   0  0  0  0  0  0  0  0  0  0  0  0  # atno 6909 bound_to 6896
  145.4213  140.9551  143.2179 H   0  0  0  0  0  0  0  0  0  0  0  0  # atno 7974 bound_to 7965
  156.2999  140.2495  156.3424 H   0  0  0  0  0  0  0  0  0  0  0  0  # atno 8008 bound_to 7997
  154.9042  140.0405  157.1929 H   0  0  0  0  0  0  0  0  0  0  0  0  # atno 8009 bound_to 7997
  154.8470  140.2900  155.5627 H   0  0  0  0  0  0  0  0  0  0  0  0  # atno 8010 bound_to 7997
  140.5152  143.2339  151.7525 H   0  0  0  0  0  0  0  0  0  0  0  0  # atno 10167 bound_to 10162
  157.6790  130.9935  150.1999 H   0  0  0  0  0  0  0  0  0  0  0  0  # atno 10718 bound_to 10713
  154.0214  135.2905  155.3380 H   0  0  0  0  0  0  0  0  0  0  0  0  # atno 10763 bound_to 10752
  154.7044  135.5175  153.8576 H   0  0  0  0  0  0  0  0  0  0  0  0  # atno 10764 bound_to 10752
  153.0679  135.6637  154.0436 H   0  0  0  0  0  0  0  0  0  0  0  0  # atno 10765 bound_to 10752
  140.1348  134.4659  155.8494 H   0  0  0  0  0  0  0  0  0  0  0  0  # atno 11005 bound_to 11000
  144.8243  139.5737  143.6972 LP  0  0  0  0  0  0  0  0  0  0  0  0  # atno 17320 bound_to 7965
  146.2655  139.6509  142.9332 LP  0  0  0  0  0  0  0  0  0  0  0  0  # atno 17321 bound_to 7965
  139.4907  144.4334  151.9847 LP  0  0  0  0  0  0  0  0  0  0  0  0  # atno 17342 bound_to 10162
  140.3428  144.3183  150.5964 LP  0  0  0  0  0  0  0  0  0  0  0  0  # atno 17343 bound_to 10162
  156.2692  130.3720  149.8049 LP  0  0  0  0  0  0  0  0  0  0  0  0  # atno 17370 bound_to 10713
  156.5771  130.8449  151.3372 LP  0  0  0  0  0  0  0  0  0  0  0  0  # atno 17371 bound_to 10713
  141.2176  133.6810  156.7136 LP  0  0  0  0  0  0  0  0  0  0  0  0  # atno 17394 bound_to 11000
  140.2797  134.8327  157.3922 LP  0  0  0  0  0  0  0  0  0  0  0  0  # atno 17395 bound_to 11000

$$$$
