AV-unprocessed.smi:1762|AV-procd|sdf|7104|dock10
  -GOLD-   22720 8323D 1   1.00000     0.00000
 Structure written by MMmdl.
 52 53  0  0  0  0  0  0  0  0  1 V2000
  147.4823  132.8871  161.4657 C   0  0  0  0  0  0  0  0  0  0  0  0
  147.3603  134.2531  162.1638 C   0  0  1  0  0  0  0  0  0  0  0  0
  147.8559  135.4272  161.2967 C   0  0  0  0  0  0  0  0  0  0  0  0
  146.9330  135.7774  160.2023 N   0  0  0  0  0  0  0  0  0  0  0  0
  147.4037  136.8982  159.3405 C   0  0  1  0  0  0  0  0  0  0  0  0
  148.8990  136.7861  158.9587 C   0  0  0  0  0  0  0  0  0  0  0  0
  149.4506  135.6856  158.9138 O   0  0  0  0  0  0  0  0  0  0  0  0
  149.5423  137.9362  158.7024 N   0  0  0  0  0  0  0  0  0  0  0  0
  150.9452  138.0441  158.3218 C   0  0  0  0  0  0  0  0  0  0  0  0
  151.2881  139.4582  157.8238 C   0  0  0  0  0  0  0  0  0  0  0  0
  152.1218  140.2335  158.8263 C   0  0  0  0  0  0  0  0  0  0  0  0
  151.8126  141.5754  159.1352 C   0  0  0  0  0  0  0  0  0  0  0  0
  152.6229  142.2534  160.0663 C   0  0  0  0  0  0  0  0  0  0  0  0
  153.7062  141.5674  160.6486 C   0  0  0  0  0  0  0  0  0  0  0  0
  153.9321  140.2284  160.2721 C   0  0  0  0  0  0  0  0  0  0  0  0
  153.1617  139.5692  159.3797 N   0  0  0  0  0  0  0  0  0  0  0  0
  146.5316  137.1678  158.0677 C   0  0  0  0  0  0  0  0  0  0  0  0
  146.4801  135.9814  157.0849 C   0  0  0  0  0  0  0  0  0  0  0  0
  146.9116  138.4638  157.3227 C   0  0  0  0  0  0  0  0  0  0  0  0
  145.6032  136.0100  160.7763 C   0  0  0  0  0  0  0  0  0  0  0  0
  145.0950  134.8131  161.6011 C   0  0  2  0  0  0  0  0  0  0  0  0
  143.7468  135.1009  162.2707 C   0  0  0  0  0  0  0  0  0  0  0  0
  146.0343  134.5014  162.6243 O   0  0  0  0  0  0  0  0  0  0  0  0
  148.5240  132.6625  161.2350 H   0  0  0  0  0  0  0  0  0  0  0  0
  146.9297  132.8542  160.5269 H   0  0  0  0  0  0  0  0  0  0  0  0
  147.1065  132.0881  162.1047 H   0  0  0  0  0  0  0  0  0  0  0  0
  147.9867  134.2084  163.0551 H   0  0  0  0  0  0  0  0  0  0  0  0
  148.0027  136.2995  161.9360 H   0  0  0  0  0  0  0  0  0  0  0  0
  148.8426  135.1531  160.9252 H   0  0  0  0  0  0  0  0  0  0  0  0
  147.3256  137.8045  159.9449 H   0  0  0  0  0  0  0  0  0  0  0  0
  149.0188  138.7971  158.7686 H   0  0  0  0  0  0  0  0  0  0  0  0
  151.5503  137.7990  159.1948 H   0  0  0  0  0  0  0  0  0  0  0  0
  151.1848  137.3015  157.5588 H   0  0  0  0  0  0  0  0  0  0  0  0
  151.8297  139.4046  156.8784 H   0  0  0  0  0  0  0  0  0  0  0  0
  150.3720  140.0143  157.6190 H   0  0  0  0  0  0  0  0  0  0  0  0
  150.9761  142.0755  158.6694 H   0  0  0  0  0  0  0  0  0  0  0  0
  152.4173  143.2807  160.3283 H   0  0  0  0  0  0  0  0  0  0  0  0
  154.3486  142.0555  161.3664 H   0  0  0  0  0  0  0  0  0  0  0  0
  154.7535  139.6720  160.6987 H   0  0  0  0  0  0  0  0  0  0  0  0
  145.5105  137.3503  158.3980 H   0  0  0  0  0  0  0  0  0  0  0  0
  147.4504  135.7883  156.6283 H   0  0  0  0  0  0  0  0  0  0  0  0
  145.7750  136.1784  156.2770 H   0  0  0  0  0  0  0  0  0  0  0  0
  146.1560  135.0652  157.5784 H   0  0  0  0  0  0  0  0  0  0  0  0
  147.8806  138.3866  156.8287 H   0  0  0  0  0  0  0  0  0  0  0  0
  146.9491  139.3138  158.0046 H   0  0  0  0  0  0  0  0  0  0  0  0
  146.1762  138.6969  156.5522 H   0  0  0  0  0  0  0  0  0  0  0  0
  145.6182  136.9077  161.3968 H   0  0  0  0  0  0  0  0  0  0  0  0
  144.8674  136.1816  159.9937 H   0  0  0  0  0  0  0  0  0  0  0  0
  144.9713  133.9495  160.9469 H   0  0  0  0  0  0  0  0  0  0  0  0
  142.9816  135.3330  161.5296 H   0  0  0  0  0  0  0  0  0  0  0  0
  143.8181  135.9466  162.9554 H   0  0  0  0  0  0  0  0  0  0  0  0
  143.4048  134.2376  162.8421 H   0  0  0  0  0  0  0  0  0  0  0  0
  1  2  1  0  0  0  0
  1 24  1  0  0  0  0
  1 25  1  0  0  0  0
  1 26  1  0  0  0  0
  2 23  1  0  0  0  0
  2  3  1  0  0  0  0
  2 27  1  0  0  0  0
  3  4  1  0  0  0  0
  3 28  1  0  0  0  0
  3 29  1  0  0  0  0
  4  5  1  0  0  0  0
  4 20  1  0  0  0  0
  5  6  1  0  0  0  0
  5 17  1  0  0  0  0
  5 30  1  0  0  0  0
  6  7  2  0  0  0  0
  6  8  1  0  0  0  0
  8  9  1  0  0  0  0
  8 31  1  0  0  0  0
  9 10  1  0  0  0  0
  9 32  1  0  0  0  0
  9 33  1  0  0  0  0
 10 11  1  0  0  0  0
 10 34  1  0  0  0  0
 10 35  1  0  0  0  0
 11 16  1  0  0  0  0
 11 12  2  0  0  0  0
 12 13  1  0  0  0  0
 12 36  1  0  0  0  0
 13 14  2  0  0  0  0
 13 37  1  0  0  0  0
 14 15  1  0  0  0  0
 14 38  1  0  0  0  0
 15 16  2  0  0  0  0
 15 39  1  0  0  0  0
 17 18  1  0  0  0  0
 17 19  1  0  0  0  0
 17 40  1  0  0  0  0
 18 41  1  0  0  0  0
 18 42  1  0  0  0  0
 18 43  1  0  0  0  0
 19 44  1  0  0  0  0
 19 45  1  0  0  0  0
 19 46  1  0  0  0  0
 20 21  1  0  0  0  0
 20 47  1  0  0  0  0
 20 48  1  0  0  0  0
 21 22  1  0  0  0  0
 21 23  1  0  0  0  0
 21 49  1  0  0  0  0
 22 50  1  0  0  0  0
 22 51  1  0  0  0  0
 22 52  1  0  0  0  0
M  END
> <s_m_source_file>
AV-unprocessed.smi

> <i_m_source_file_index>
1762

> <i_lp_mmshare_version>
43012

> <i_f3d_flags>
0

> <s_epik_input>
W0NIM11bQ0BASF0xW0NIMl1OKFtDSDJdW0NASF0oTzEpW0NIM10pW0NAQEhdKFtDSF0oW0NIM10pW0NIM10pQyg9TylbTkhdW0NIMl1bQ0gyXWMyW2NIXVtjSF1bY0hdW2NIXW4y

> <s_epik_cmdline>
J2VwaWtfcHl0aG9uJywgJy1waCcsICc3LjAnLCAnLXRuJywgJzgnLCAnLW1hJywgJzIwMCcsICctbWV0YWxfYmluZGluZycsICctaW1hZScsICc8aW5maWxlLm1hZT4nLCAnLW9tYWUnLCAnPG91dGZpbGUubWFlPic=

> <r_epik_Ionization_Penalty>
0.0399736

> <r_epik_Ionization_Penalty_Charging>
0

> <r_epik_Ionization_Penalty_Neutral>
0.0399736

> <r_epik_State_Penalty>
0.0317634

> <r_epik_Charging_Adjusted_Penalty>
0.0317634

> <i_epik_Tot_Q>
0

> <i_epik_Tot_abs_Q>
0

> <r_epik_Metal_State_Penalty>
0.0307795

> <b_epik_Metal_Only>
0

> <s_lp_Force_Field>
OPLS_2005

> <r_lp_Energy>
30.2117

> <b_lp_Chiralities_Consistent>
1

> <s_lp_Variant>
AV-unprocessed.smi:1762-6

> <Gold.Version>
5.8.1

> <Gold.Id.Protein>
6NUR|6NUR_protein|mol2

> <Gold.PLP.Fitness>
38.7366

> <Gold.PLP.PLP>
-37.9933

> <Gold.PLP.part.hbond>
-1.6663

> <Gold.PLP.part.metal>
0.0000

> <Gold.PLP.part.buried>
-6.7234

> <Gold.PLP.part.nonpolar>
-30.2636

> <Gold.PLP.part.repulsive>
0.2207

> <Gold.PLP.ligand.clash>
0.0000

> <Gold.PLP.ligand.torsion>
1.2985

> <Gold.PLP.Chemscore.Hbond>
1.0000

> <Gold.PLP.Chemscore.CHOScore>
0.0000

> <Gold.PLP.Chemscore.Metal>
0.0000

> <Gold.Chemscore.Hbonds>
donor molecule, donor type, donor heavy atom, donor atom, acceptor molecule, acceptor atom, score
      P1  H  6896  6907       L1     7  1.00

> <Gold.PLP.Chemscore.Internal.Correction>
0.3403

> <Gold.Rescore>
     Score         DG    S(hbond)    S(metal)    S(lipo)     H(rot)  DE(clash)    DE(int)     intcor
     15.01     -16.43       1.00        0.00     100.06       1.60       0.02       1.41       ----

> <Gold.Chemscore.Fitness>
15.0081

> <Gold.Chemscore.DG>
-16.4323

> <Gold.Chemscore.ZeroCoef>
-5.4800

> <Gold.Chemscore.Hbond>
1.0000

> <Gold.Chemscore.Metal>
0.0000

> <Gold.Chemscore.Lipo>
100.0552

> <Gold.Chemscore.Internal_Hbond>
0.0000

> <Gold.Chemscore.DEClash>
0.0168

> <Gold.Chemscore.DEInternal>
1.4075

> <Gold.Chemscore.Rot>
1.5993

> <Gold.Chemscore.Internal.Correction>
   9.000000E+99

> <Gold.Chemscore.Hbonds>
donor molecule, donor type, donor heavy atom, donor atom, acceptor molecule, acceptor atom, score
      P1  H  6896  6907       L1     7  1.00

> <Gold.Chemscore.Hbond.Weighted>
-3.3399

> <Gold.Chemscore.Metal.Weighted>
-0.0000

> <Gold.Chemscore.Lipo.Weighted>
-11.7065

> <Gold.Chemscore.Internal_Hbond.Weighted>
0.0000

> <Gold.Chemscore.DEClash.Weighted>
0.0168

> <Gold.Chemscore.DEInternal.Weighted>
1.4075

> <Gold.Chemscore.Rot.Weighted>
4.0941

> <Gold.Chemscore.Internal.Correction.Weighted>
   9.000000E+99

> <Gold.Protein.RotatedTorsions>
[ 6907 6896 6895 6894 ] final  -74.62 input  -60.11 | X-H torsion
[ 7974 7965 7964 7962 ] final  -87.25 input  175.53 | X-H torsion
[ 8008 7997 7996 7995 ] final  -24.63 input   59.86 | X-H torsion
[ 10167 10162 10161 10158 ] final  -37.46 input  -65.29 | X-H torsion
[ 10718 10713 10712 10709 ] final -141.54 input   66.30 | X-H torsion
[ 10763 10752 10751 10750 ] final  176.67 input  -60.55 | X-H torsion
[ 11005 11000 10999 10996 ] final   88.00 input  -57.11 | X-H torsion

> <Gold.Protein.ActiveResidues>
 VAL166  LYS551  ARG553  GLY616  TRP617  ASP618  TYR619  PRO620  LYS621  CYS622 
 ASP623  PHE694  ASN695  SER759  ASP760  ASP761  ALA762  ILE779  LEU786  VAL792 
 PHE793  MET794  SER795  GLU796  ALA797  LYS798  CYS799  TRP800  GLU811  SER814 

> <Gold.Protein.RotatedAtoms>
  150.7087  134.4842  159.5484 H   0  0  0  0  0  0  0  0  0  0  0  0  # atno 6907 bound_to 6896
  152.2473  134.8165  160.0460 H   0  0  0  0  0  0  0  0  0  0  0  0  # atno 6908 bound_to 6896
  151.8926  133.3484  159.3840 H   0  0  0  0  0  0  0  0  0  0  0  0  # atno 6909 bound_to 6896
  145.4690  140.9560  143.1927 H   0  0  0  0  0  0  0  0  0  0  0  0  # atno 7974 bound_to 7965
  154.4519  140.1948  156.0494 H   0  0  0  0  0  0  0  0  0  0  0  0  # atno 8008 bound_to 7997
  156.0665  140.3290  155.7497 H   0  0  0  0  0  0  0  0  0  0  0  0  # atno 8009 bound_to 7997
  155.5330  140.0579  157.2876 H   0  0  0  0  0  0  0  0  0  0  0  0  # atno 8010 bound_to 7997
  140.7118  143.3341  151.2503 H   0  0  0  0  0  0  0  0  0  0  0  0  # atno 10167 bound_to 10162
  156.3352  130.7608  151.1733 H   0  0  0  0  0  0  0  0  0  0  0  0  # atno 10718 bound_to 10713
  154.4842  135.2776  155.1547 H   0  0  0  0  0  0  0  0  0  0  0  0  # atno 10763 bound_to 10752
  154.3245  135.6203  153.5526 H   0  0  0  0  0  0  0  0  0  0  0  0  # atno 10764 bound_to 10752
  152.9879  135.5750  154.5249 H   0  0  0  0  0  0  0  0  0  0  0  0  # atno 10765 bound_to 10752
  139.8906  134.8459  156.2939 H   0  0  0  0  0  0  0  0  0  0  0  0  # atno 11005 bound_to 11000
  144.7957  139.6240  143.7094 LP  0  0  0  0  0  0  0  0  0  0  0  0  # atno 17320 bound_to 7965
  146.2407  139.5996  142.9493 LP  0  0  0  0  0  0  0  0  0  0  0  0  # atno 17321 bound_to 7965
  139.6831  143.9821  152.2819 LP  0  0  0  0  0  0  0  0  0  0  0  0  # atno 17342 bound_to 10162
  139.9457  144.6653  150.8222 LP  0  0  0  0  0  0  0  0  0  0  0  0  # atno 17343 bound_to 10162
  157.7437  131.0470  150.4922 LP  0  0  0  0  0  0  0  0  0  0  0  0  # atno 17370 bound_to 10713
  156.5094  130.4135  149.6309 LP  0  0  0  0  0  0  0  0  0  0  0  0  # atno 17371 bound_to 10713
  140.9958  133.7181  156.0883 LP  0  0  0  0  0  0  0  0  0  0  0  0  # atno 17394 bound_to 11000
  140.7564  134.3987  157.5533 LP  0  0  0  0  0  0  0  0  0  0  0  0  # atno 17395 bound_to 11000

$$$$
