AV-unprocessed.smi:34|AV-procd|sdf|215|dock3
  -GOLD-   2262015523D 1   1.00000     0.00000
 Structure written by MMmdl.
 55 59  0  0  0  0  0  0  0  0  1 V2000
  154.7121  139.8650  159.2529 O   0  0  0  0  0  0  0  0  0  0  0  0
  154.2799  140.1514  160.3698 C   0  0  0  0  0  0  0  0  0  0  0  0
  154.3750  139.2366  161.4936 N   0  0  0  0  0  0  0  0  0  0  0  0
  154.9418  138.0080  161.5272 C   0  0  0  0  0  0  0  0  0  0  0  0
  155.7034  137.5269  160.5099 N   0  0  0  0  0  0  0  0  0  0  0  0
  156.2256  136.2998  160.5840 C   0  0  0  0  0  0  0  0  0  0  0  0
  156.1093  135.4030  161.5653 N   0  0  0  0  0  0  0  0  0  0  0  0
  155.3530  135.8794  162.5956 C   0  0  0  0  0  0  0  0  0  0  0  0
  154.7438  137.1645  162.6509 C   0  0  0  0  0  0  0  0  0  0  0  0
  154.0549  137.3087  163.8474 N   0  0  0  0  0  0  0  0  0  0  0  0
  154.2435  136.1702  164.4577 C   0  0  0  0  0  0  0  0  0  0  0  0
  155.0025  135.2469  163.7727 N   0  0  0  0  0  0  0  0  0  0  0  0
  155.3588  133.8652  164.2234 C   0  0  2  0  0  0  0  0  0  0  0  0
  154.6390  132.9429  163.4544 O   0  0  0  0  0  0  0  0  0  0  0  0
  153.7791  132.1725  164.2931 C   0  0  1  0  0  0  0  0  0  0  0  0
  153.5545  130.7698  163.7141 C   0  0  0  0  0  0  0  0  0  0  0  0
  153.0787  129.9147  164.7411 O   0  0  0  0  0  0  0  0  0  0  0  0
  151.7550  129.7684  164.9412 C   0  0  0  0  0  0  0  0  0  0  0  0
  150.9031  130.0327  164.0904 O   0  0  0  0  0  0  0  0  0  0  0  0
  151.4286  129.2485  166.3008 C   0  0  0  0  0  0  0  0  0  0  0  0
  152.4025  129.3228  167.3239 C   0  0  0  0  0  0  0  0  0  0  0  0
  152.1224  128.8417  168.6179 C   0  0  0  0  0  0  0  0  0  0  0  0
  150.8646  128.2800  168.9046 C   0  0  0  0  0  0  0  0  0  0  0  0
  149.8868  128.2008  167.8959 C   0  0  0  0  0  0  0  0  0  0  0  0
  150.1649  128.6817  166.6014 C   0  0  0  0  0  0  0  0  0  0  0  0
  154.4755  132.2090  165.6528 C   0  0  1  0  0  0  0  0  0  0  0  0
  155.5023  131.3530  165.6410 F   0  0  0  0  0  0  0  0  0  0  0  0
  154.9717  133.6438  165.6925 C   0  0  1  0  0  0  0  0  0  0  0  0
  156.0540  133.7694  166.5928 O   0  0  0  0  0  0  0  0  0  0  0  0
  153.5486  141.4367  160.6278 C   0  0  0  0  0  0  0  0  0  0  0  0
  153.5886  142.0268  161.9112 C   0  0  0  0  0  0  0  0  0  0  0  0
  152.8991  143.2283  162.1660 C   0  0  0  0  0  0  0  0  0  0  0  0
  152.1569  143.8459  161.1419 C   0  0  0  0  0  0  0  0  0  0  0  0
  152.1010  143.2588  159.8637 C   0  0  0  0  0  0  0  0  0  0  0  0
  152.7903  142.0572  159.6076 C   0  0  0  0  0  0  0  0  0  0  0  0
  153.9578  139.5533  162.3567 H   0  0  0  0  0  0  0  0  0  0  0  0
  156.8183  135.9923  159.7351 H   0  0  0  0  0  0  0  0  0  0  0  0
  153.8202  135.9672  165.4308 H   0  0  0  0  0  0  0  0  0  0  0  0
  156.4261  133.7583  164.0248 H   0  0  0  0  0  0  0  0  0  0  0  0
  152.8189  132.6815  164.3697 H   0  0  0  0  0  0  0  0  0  0  0  0
  152.8202  130.8111  162.9087 H   0  0  0  0  0  0  0  0  0  0  0  0
  154.4809  130.3781  163.2914 H   0  0  0  0  0  0  0  0  0  0  0  0
  153.3754  129.7505  167.1278 H   0  0  0  0  0  0  0  0  0  0  0  0
  152.8738  128.9046  169.3910 H   0  0  0  0  0  0  0  0  0  0  0  0
  150.6504  127.9110  169.8969 H   0  0  0  0  0  0  0  0  0  0  0  0
  148.9203  127.7710  168.1147 H   0  0  0  0  0  0  0  0  0  0  0  0
  149.3914  128.6062  165.8512 H   0  0  0  0  0  0  0  0  0  0  0  0
  153.8228  131.9467  166.4860 H   0  0  0  0  0  0  0  0  0  0  0  0
  154.1599  134.3146  165.9768 H   0  0  0  0  0  0  0  0  0  0  0  0
  155.7561  134.2453  167.3531 H   0  0  0  0  0  0  0  0  0  0  0  0
  154.1547  141.5654  162.7080 H   0  0  0  0  0  0  0  0  0  0  0  0
  152.9406  143.6763  163.1481 H   0  0  0  0  0  0  0  0  0  0  0  0
  151.6288  144.7676  161.3370 H   0  0  0  0  0  0  0  0  0  0  0  0
  151.5278  143.7302  159.0791 H   0  0  0  0  0  0  0  0  0  0  0  0
  152.7282  141.6203  158.6214 H   0  0  0  0  0  0  0  0  0  0  0  0
  1  2  2  0  0  0  0
  2  3  1  0  0  0  0
  2 30  1  0  0  0  0
  3  4  1  0  0  0  0
  3 36  1  0  0  0  0
  4  9  1  0  0  0  0
  4  5  2  0  0  0  0
  5  6  1  0  0  0  0
  6  7  2  0  0  0  0
  6 37  1  0  0  0  0
  7  8  1  0  0  0  0
  8 12  1  0  0  0  0
  8  9  2  0  0  0  0
  9 10  1  0  0  0  0
 10 11  2  0  0  0  0
 11 12  1  0  0  0  0
 11 38  1  0  0  0  0
 12 13  1  0  0  0  0
 13 28  1  0  0  0  0
 13 14  1  0  0  0  0
 13 39  1  0  0  0  0
 14 15  1  0  0  0  0
 15 16  1  0  0  0  0
 15 26  1  0  0  0  0
 15 40  1  0  0  0  0
 16 17  1  0  0  0  0
 16 41  1  0  0  0  0
 16 42  1  0  0  0  0
 17 18  1  0  0  0  0
 18 19  2  0  0  0  0
 18 20  1  0  0  0  0
 20 25  1  0  0  0  0
 20 21  2  0  0  0  0
 21 22  1  0  0  0  0
 21 43  1  0  0  0  0
 22 23  2  0  0  0  0
 22 44  1  0  0  0  0
 23 24  1  0  0  0  0
 23 45  1  0  0  0  0
 24 25  2  0  0  0  0
 24 46  1  0  0  0  0
 25 47  1  0  0  0  0
 26 27  1  0  0  0  0
 26 28  1  0  0  0  0
 26 48  1  0  0  0  0
 28 29  1  0  0  0  0
 28 49  1  0  0  0  0
 29 50  1  0  0  0  0
 30 35  1  0  0  0  0
 30 31  2  0  0  0  0
 31 32  1  0  0  0  0
 31 51  1  0  0  0  0
 32 33  2  0  0  0  0
 32 52  1  0  0  0  0
 33 34  1  0  0  0  0
 33 53  1  0  0  0  0
 34 35  2  0  0  0  0
 34 54  1  0  0  0  0
 35 55  1  0  0  0  0
M  END
> <s_m_source_file>
AV-unprocessed.smi

> <i_m_source_file_index>
34

> <i_lp_mmshare_version>
43012

> <i_f3d_flags>
0

> <s_epik_input>
W2NIXTFbY0hdW2NIXVtjSF1bY0hdYzFDKD1PKVtOSF1jKG5bY0hdbjIpYyhjMjMpbltjSF1uM1tDQEBIXTRPW0NASF0oW0NAQEhdKEYpW0NASF00W09IXSlbQ0gyXU9DKD1PKWM1W2NIXVtjSF1bY0hdW2NIXVtjSF01

> <s_epik_cmdline>
J2VwaWtfcHl0aG9uJywgJy1waCcsICc3LjAnLCAnLXRuJywgJzgnLCAnLW1hJywgJzIwMCcsICctbWV0YWxfYmluZGluZycsICctaW1hZScsICc8aW5maWxlLm1hZT4nLCAnLW9tYWUnLCAnPG91dGZpbGUubWFlPic=

> <r_lp_tautomer_probability>
1

> <r_epik_Ionization_Penalty>
0.00257489

> <r_epik_Ionization_Penalty_Charging>
0

> <r_epik_Ionization_Penalty_Neutral>
0.00257489

> <r_epik_State_Penalty>
0.00519398

> <r_epik_Charging_Adjusted_Penalty>
0.00519398

> <i_epik_Tot_Q>
0

> <i_epik_Tot_abs_Q>
0

> <r_epik_Metal_State_Penalty>
0.335891

> <b_epik_Metal_Only>
0

> <s_epik_Chemistry_Notes>
This compound has an ester and may undergo hydrolysis at high or low pH. This compound contains an acetal/aminal-like group ( X-CH(R)-Y where X, Y are N, S, or O) that may be acid/base labile, releasing an aldehyde.

> <s_lp_Force_Field>
OPLS_2005

> <r_lp_Energy>
46.7099

> <b_lp_Chiralities_Consistent>
1

> <s_lp_Variant>
AV-unprocessed.smi:34-1

> <Gold.Version>
5.8.1

> <Gold.Id.Protein>
6NUR|6NUR_protein|mol2

> <Gold.PLP.Fitness>
69.1888

> <Gold.PLP.PLP>
-68.7133

> <Gold.PLP.part.hbond>
-2.0000

> <Gold.PLP.part.metal>
0.0000

> <Gold.PLP.part.buried>
-6.7213

> <Gold.PLP.part.nonpolar>
-59.2560

> <Gold.PLP.part.repulsive>
0.1321

> <Gold.PLP.ligand.clash>
0.0000

> <Gold.PLP.ligand.torsion>
1.3945

> <Gold.PLP.Chemscore.Hbond>
0.9760

> <Gold.PLP.Chemscore.CHOScore>
0.0000

> <Gold.PLP.Chemscore.Metal>
0.0000

> <Gold.Chemscore.Hbonds>
donor molecule, donor type, donor heavy atom, donor atom, acceptor molecule, acceptor atom, score
      P1  H  7997  8009       L1     1  0.98

> <Gold.PLP.Chemscore.Internal.Correction>
0.3365

> <Gold.Rescore>
     Score         DG    S(hbond)    S(metal)    S(lipo)     H(rot)  DE(clash)    DE(int)     intcor
     15.99     -19.48       0.92        0.00     152.94       2.72       0.05       3.45       ----

> <Gold.Chemscore.Fitness>
15.9853

> <Gold.Chemscore.DG>
-19.4848

> <Gold.Chemscore.ZeroCoef>
-5.4800

> <Gold.Chemscore.Hbond>
0.9216

> <Gold.Chemscore.Metal>
0.0000

> <Gold.Chemscore.Lipo>
152.9373

> <Gold.Chemscore.Internal_Hbond>
0.0000

> <Gold.Chemscore.DEClash>
0.0516

> <Gold.Chemscore.DEInternal>
3.4479

> <Gold.Chemscore.Rot>
2.7215

> <Gold.Chemscore.Internal.Correction>
   9.000000E+99

> <Gold.Chemscore.Hbonds>
donor molecule, donor type, donor heavy atom, donor atom, acceptor molecule, acceptor atom, score
      P1  H  7997  8009       L1     1  0.90

> <Gold.Chemscore.Hbond.Weighted>
-3.0782

> <Gold.Chemscore.Metal.Weighted>
-0.0000

> <Gold.Chemscore.Lipo.Weighted>
-17.8937

> <Gold.Chemscore.Internal_Hbond.Weighted>
0.0000

> <Gold.Chemscore.DEClash.Weighted>
0.0516

> <Gold.Chemscore.DEInternal.Weighted>
3.4479

> <Gold.Chemscore.Rot.Weighted>
6.9670

> <Gold.Chemscore.Internal.Correction.Weighted>
   9.000000E+99

> <Gold.Protein.RotatedTorsions>
[ 6907 6896 6895 6894 ] final    7.58 input  -60.11 | X-H torsion
[ 7974 7965 7964 7962 ] final  173.50 input  175.53 | X-H torsion
[ 8008 7997 7996 7995 ] final  105.13 input   59.86 | X-H torsion
[ 10167 10162 10161 10158 ] final   41.82 input  -65.29 | X-H torsion
[ 10718 10713 10712 10709 ] final   11.58 input   66.30 | X-H torsion
[ 10763 10752 10751 10750 ] final  -69.40 input  -60.55 | X-H torsion
[ 11005 11000 10999 10996 ] final   50.62 input  -57.11 | X-H torsion

> <Gold.Protein.ActiveResidues>
 VAL166  LYS551  ARG553  GLY616  TRP617  ASP618  TYR619  PRO620  LYS621  CYS622 
 ASP623  PHE694  ASN695  SER759  ASP760  ASP761  ALA762  ILE779  LEU786  VAL792 
 PHE793  MET794  SER795  GLU796  ALA797  LYS798  CYS799  TRP800  GLU811  SER814 

> <Gold.Protein.RotatedAtoms>
  151.6921  135.0944  160.0235 H   0  0  0  0  0  0  0  0  0  0  0  0  # atno 6907 bound_to 6896
  152.3772  133.6493  159.6141 H   0  0  0  0  0  0  0  0  0  0  0  0  # atno 6908 bound_to 6896
  150.7718  133.9090  159.3405 H   0  0  0  0  0  0  0  0  0  0  0  0  # atno 6909 bound_to 6896
  144.7242  139.9657  143.6436 H   0  0  0  0  0  0  0  0  0  0  0  0  # atno 7974 bound_to 7965
  156.1633  140.3136  155.8844 H   0  0  0  0  0  0  0  0  0  0  0  0  # atno 8008 bound_to 7997
  155.3738  140.0483  157.3062 H   0  0  0  0  0  0  0  0  0  0  0  0  # atno 8009 bound_to 7997
  154.5167  140.2184  155.9063 H   0  0  0  0  0  0  0  0  0  0  0  0  # atno 8010 bound_to 7997
  140.3606  144.2234  150.6138 H   0  0  0  0  0  0  0  0  0  0  0  0  # atno 10167 bound_to 10162
  156.9976  130.6067  149.5693 H   0  0  0  0  0  0  0  0  0  0  0  0  # atno 10718 bound_to 10713
  154.4029  135.6027  153.5908 H   0  0  0  0  0  0  0  0  0  0  0  0  # atno 10763 bound_to 10752
  152.9788  135.5911  154.4162 H   0  0  0  0  0  0  0  0  0  0  0  0  # atno 10764 bound_to 10752
  154.3963  135.2842  155.2102 H   0  0  0  0  0  0  0  0  0  0  0  0  # atno 10765 bound_to 10752
  140.1001  134.5092  155.8770 H   0  0  0  0  0  0  0  0  0  0  0  0  # atno 11005 bound_to 11000
  146.0602  139.3596  143.0586 LP  0  0  0  0  0  0  0  0  0  0  0  0  # atno 17320 bound_to 7965
  145.8102  140.9729  143.0953 LP  0  0  0  0  0  0  0  0  0  0  0  0  # atno 17321 bound_to 7965
  140.5131  143.2285  151.8505 LP  0  0  0  0  0  0  0  0  0  0  0  0  # atno 17342 bound_to 10162
  139.4814  144.4926  151.9165 LP  0  0  0  0  0  0  0  0  0  0  0  0  # atno 17343 bound_to 10162
  156.0183  130.5278  150.8201 LP  0  0  0  0  0  0  0  0  0  0  0  0  # atno 17370 bound_to 10713
  157.5413  131.0941  150.9823 LP  0  0  0  0  0  0  0  0  0  0  0  0  # atno 17371 bound_to 10713
  141.2103  133.6693  156.6502 LP  0  0  0  0  0  0  0  0  0  0  0  0  # atno 17394 bound_to 11000
  140.3231  134.7991  157.4268 LP  0  0  0  0  0  0  0  0  0  0  0  0  # atno 17395 bound_to 11000

$$$$
