AV-unprocessed.smi:2550|AV-procd|sdf|10012|dock2
  -GOLD-   2272014 53D 1   1.00000     0.00000
 Structure written by MMmdl.
 27 28  0  0  0  0  0  0  0  0  1 V2000
  153.1249  143.2945  160.1721 C   0  0  0  0  0  0  0  0  0  0  0  0
  152.1179  143.7213  159.0914 C   0  0  0  0  0  0  0  0  0  0  0  0
  150.9411  144.5167  159.6796 C   0  0  0  0  0  0  0  0  0  0  0  0
  152.8023  144.5861  158.2039 O   0  0  0  0  0  0  0  0  0  0  0  0
  151.6435  142.5441  158.2732 C   0  0  0  0  0  0  0  0  0  0  0  0
  150.7968  142.4957  157.1982 C   0  0  0  0  0  0  0  0  0  0  0  0
  150.7582  141.1564  156.8751 N   0  0  0  0  0  0  0  0  0  0  0  0
  149.9653  140.5230  155.8637 C   0  0  0  0  0  0  0  0  0  0  0  0
  150.6085  139.6549  154.7789 C   0  0  0  0  0  0  0  0  0  0  0  0
  149.5976  140.1762  153.8746 N   0  0  0  0  0  0  0  0  0  0  0  0
  149.3828  141.3438  154.7121 C   0  0  0  0  0  0  0  0  0  0  0  0
  151.4980  140.4161  157.7327 N   0  0  0  0  0  0  0  0  0  0  0  0
  152.0527  141.2403  158.5646 N   0  0  0  0  0  0  0  0  0  0  0  0
  152.6668  142.6155  160.8919 H   0  0  0  0  0  0  0  0  0  0  0  0
  153.5016  144.1544  160.7271 H   0  0  0  0  0  0  0  0  0  0  0  0
  153.9823  142.7812  159.7349 H   0  0  0  0  0  0  0  0  0  0  0  0
  150.3596  143.9069  160.3719 H   0  0  0  0  0  0  0  0  0  0  0  0
  150.2647  144.8612  158.8963 H   0  0  0  0  0  0  0  0  0  0  0  0
  151.2878  145.3936  160.2274 H   0  0  0  0  0  0  0  0  0  0  0  0
  152.6393  145.4780  158.4697 H   0  0  0  0  0  0  0  0  0  0  0  0
  150.2497  143.2580  156.6635 H   0  0  0  0  0  0  0  0  0  0  0  0
  149.1807  139.9750  156.3900 H   0  0  0  0  0  0  0  0  0  0  0  0
  151.6146  139.9623  154.4893 H   0  0  0  0  0  0  0  0  0  0  0  0
  150.5328  138.5823  154.9594 H   0  0  0  0  0  0  0  0  0  0  0  0
  149.9774  140.4165  152.9698 H   0  0  0  0  0  0  0  0  0  0  0  0
  148.3338  141.6128  154.8391 H   0  0  0  0  0  0  0  0  0  0  0  0
  149.9992  142.1899  154.4044 H   0  0  0  0  0  0  0  0  0  0  0  0
  1  2  1  0  0  0  0
  1 14  1  0  0  0  0
  1 15  1  0  0  0  0
  1 16  1  0  0  0  0
  2  3  1  0  0  0  0
  2  4  1  0  0  0  0
  2  5  1  0  0  0  0
  3 17  1  0  0  0  0
  3 18  1  0  0  0  0
  3 19  1  0  0  0  0
  4 20  1  0  0  0  0
  5 13  1  0  0  0  0
  5  6  2  0  0  0  0
  6  7  1  0  0  0  0
  6 21  1  0  0  0  0
  7  8  1  0  0  0  0
  7 12  1  0  0  0  0
  8 11  1  0  0  0  0
  8  9  1  0  0  0  0
  8 22  1  0  0  0  0
  9 10  1  0  0  0  0
  9 23  1  0  0  0  0
  9 24  1  0  0  0  0
 10 11  1  0  0  0  0
 10 25  1  0  0  0  0
 11 26  1  0  0  0  0
 11 27  1  0  0  0  0
 12 13  2  0  0  0  0
M  END
> <s_m_source_file>
AV-unprocessed.smi

> <i_m_source_file_index>
2550

> <i_lp_mmshare_version>
43012

> <i_f3d_flags>
0

> <s_epik_input>
W0NIM11DKFtDSDNdKShbT0hdKWMxW2NIXW4obm4xKVtDSF0yW0NIMl1bTkhdW0NIMl0y

> <s_epik_cmdline>
J2VwaWtfcHl0aG9uJywgJy1waCcsICc3LjAnLCAnLXRuJywgJzgnLCAnLW1hJywgJzIwMCcsICctbWV0YWxfYmluZGluZycsICctaW1hZScsICc8aW5maWxlLm1hZT4nLCAnLW9tYWUnLCAnPG91dGZpbGUubWFlPic=

> <r_lp_tautomer_probability>
1

> <r_epik_Ionization_Penalty>
0.705036

> <r_epik_Ionization_Penalty_Charging>
0

> <r_epik_Ionization_Penalty_Neutral>
0.705036

> <r_epik_State_Penalty>
0.727806

> <r_epik_Charging_Adjusted_Penalty>
0.727806

> <i_epik_Tot_Q>
0

> <i_epik_Tot_abs_Q>
0

> <r_epik_Metal_State_Penalty>
0.727613

> <b_epik_Metal_Only>
0

> <s_lp_Force_Field>
OPLS_2005

> <r_lp_Energy>
8.86137

> <b_lp_Chiralities_Consistent>
1

> <s_lp_Variant>
AV-unprocessed.smi:2550-2

> <Gold.Version>
5.8.1

> <Gold.Id.Protein>
6NUR|6NUR_protein|mol2

> <Gold.PLP.Fitness>
33.2017

> <Gold.PLP.PLP>
-28.1644

> <Gold.PLP.part.hbond>
-2.0000

> <Gold.PLP.part.metal>
0.0000

> <Gold.PLP.part.buried>
-3.7879

> <Gold.PLP.part.nonpolar>
-23.2739

> <Gold.PLP.part.repulsive>
0.0000

> <Gold.PLP.ligand.clash>
0.0000

> <Gold.PLP.ligand.torsion>
0.2535

> <Gold.PLP.Chemscore.Hbond>
0.7520

> <Gold.PLP.Chemscore.CHOScore>
1.0000

> <Gold.PLP.Chemscore.Metal>
0.0000

> <Gold.Chemscore.Hbonds>
donor molecule, donor type, donor heavy atom, donor atom, acceptor molecule, acceptor atom, score
      L1  H    10    25       P1  7957  0.77
      L1  C     6    21       P1  8028  1.00

> <Gold.PLP.Chemscore.Internal.Correction>
0.2883

> <Gold.Rescore>
     Score         DG    S(hbond)    S(metal)    S(lipo)     H(rot)  DE(clash)    DE(int)     intcor
     12.74     -13.01       0.97        0.00      74.41       1.73       0.01       0.26       ----

> <Gold.Chemscore.Fitness>
12.7425

> <Gold.Chemscore.DG>
-13.0072

> <Gold.Chemscore.ZeroCoef>
-5.4800

> <Gold.Chemscore.Hbond>
0.9726

> <Gold.Chemscore.Metal>
0.0000

> <Gold.Chemscore.Lipo>
74.4109

> <Gold.Chemscore.Internal_Hbond>
0.0000

> <Gold.Chemscore.DEClash>
0.0082

> <Gold.Chemscore.DEInternal>
0.2564

> <Gold.Chemscore.Rot>
1.7295

> <Gold.Chemscore.Internal.Correction>
   9.000000E+99

> <Gold.Chemscore.Hbonds>
donor molecule, donor type, donor heavy atom, donor atom, acceptor molecule, acceptor atom, score
      L1  H    10    25       P1  7957  0.78

> <Gold.Chemscore.Hbond.Weighted>
-3.2485

> <Gold.Chemscore.Metal.Weighted>
-0.0000

> <Gold.Chemscore.Lipo.Weighted>
-8.7061

> <Gold.Chemscore.Internal_Hbond.Weighted>
0.0000

> <Gold.Chemscore.DEClash.Weighted>
0.0082

> <Gold.Chemscore.DEInternal.Weighted>
0.2564

> <Gold.Chemscore.Rot.Weighted>
4.4275

> <Gold.Chemscore.Internal.Correction.Weighted>
   9.000000E+99

> <Gold.Protein.RotatedTorsions>
[ 6907 6896 6895 6894 ] final  -75.97 input  -60.11 | X-H torsion
[ 7974 7965 7964 7962 ] final -160.69 input  175.53 | X-H torsion
[ 8008 7997 7996 7995 ] final  -86.13 input   59.86 | X-H torsion
[ 10167 10162 10161 10158 ] final  142.59 input  -65.29 | X-H torsion
[ 10718 10713 10712 10709 ] final  110.79 input   66.30 | X-H torsion
[ 10763 10752 10751 10750 ] final -100.50 input  -60.55 | X-H torsion
[ 11005 11000 10999 10996 ] final   85.77 input  -57.11 | X-H torsion

> <Gold.Protein.ActiveResidues>
 VAL166  LYS551  ARG553  GLY616  TRP617  ASP618  TYR619  PRO620  LYS621  CYS622 
 ASP623  PHE694  ASN695  SER759  ASP760  ASP761  ALA762  ILE779  LEU786  VAL792 
 PHE793  MET794  SER795  GLU796  ALA797  LYS798  CYS799  TRP800  GLU811  SER814 

> <Gold.Protein.RotatedAtoms>
  150.7042  134.4642  159.5394 H   0  0  0  0  0  0  0  0  0  0  0  0  # atno 6907 bound_to 6896
  152.2311  134.8318  160.0482 H   0  0  0  0  0  0  0  0  0  0  0  0  # atno 6908 bound_to 6896
  151.9134  133.3532  159.3908 H   0  0  0  0  0  0  0  0  0  0  0  0  # atno 6909 bound_to 6896
  144.7418  140.3505  143.6116 H   0  0  0  0  0  0  0  0  0  0  0  0  # atno 7974 bound_to 7965
  154.6484  140.0582  156.9927 H   0  0  0  0  0  0  0  0  0  0  0  0  # atno 8008 bound_to 7997
  155.1409  140.3265  155.4434 H   0  0  0  0  0  0  0  0  0  0  0  0  # atno 8009 bound_to 7997
  156.2564  140.1964  156.6525 H   0  0  0  0  0  0  0  0  0  0  0  0  # atno 8010 bound_to 7997
  139.4990  144.6096  151.6300 H   0  0  0  0  0  0  0  0  0  0  0  0  # atno 10167 bound_to 10162
  157.6477  131.0939  150.6653 H   0  0  0  0  0  0  0  0  0  0  0  0  # atno 10718 bound_to 10713
  154.7584  135.4933  153.9418 H   0  0  0  0  0  0  0  0  0  0  0  0  # atno 10763 bound_to 10752
  153.1222  135.6734  153.9324 H   0  0  0  0  0  0  0  0  0  0  0  0  # atno 10764 bound_to 10752
  153.9052  135.3105  155.3427 H   0  0  0  0  0  0  0  0  0  0  0  0  # atno 10765 bound_to 10752
  139.8962  134.8310  156.2628 H   0  0  0  0  0  0  0  0  0  0  0  0  # atno 11005 bound_to 11000
  145.7281  139.1728  143.2446 LP  0  0  0  0  0  0  0  0  0  0  0  0  # atno 17320 bound_to 7965
  146.1227  140.7288  142.9450 LP  0  0  0  0  0  0  0  0  0  0  0  0  # atno 17321 bound_to 7965
  140.5768  144.0015  150.6246 LP  0  0  0  0  0  0  0  0  0  0  0  0  # atno 17342 bound_to 10162
  140.3151  143.3173  152.0840 LP  0  0  0  0  0  0  0  0  0  0  0  0  # atno 17343 bound_to 10162
  156.6968  130.4611  149.5584 LP  0  0  0  0  0  0  0  0  0  0  0  0  # atno 17370 bound_to 10713
  156.1823  130.6507  151.0966 LP  0  0  0  0  0  0  0  0  0  0  0  0  # atno 17371 bound_to 10713
  141.0151  133.7073  156.1175 LP  0  0  0  0  0  0  0  0  0  0  0  0  # atno 17394 bound_to 11000
  140.7313  134.4252  157.5565 LP  0  0  0  0  0  0  0  0  0  0  0  0  # atno 17395 bound_to 11000

$$$$
