AV-unprocessed.smi:481|AV-procd|sdf|2681|dock8
  -GOLD-   2262023103D 1   1.00000     0.00000
 Structure written by MMmdl.
 43 45  0  0  0  0  0  0  0  0  1 V2000
  143.8114  133.6827  157.0385 C   0  0  0  0  0  0  0  0  0  0  0  0
  144.2543  134.9938  157.3523 O   0  0  0  0  0  0  0  0  0  0  0  0
  145.6066  135.2486  156.9988 C   0  0  0  0  0  0  0  0  0  0  0  0
  146.1142  136.5719  157.5958 C   0  0  0  0  0  0  0  0  0  0  0  0
  147.5677  136.5779  157.7171 N   0  0  0  0  0  0  0  0  0  0  0  0
  148.3073  136.5408  158.8546 C   0  0  0  0  0  0  0  0  0  0  0  0
  147.6581  136.4907  160.0963 N   0  0  0  0  0  0  0  0  0  0  0  0
  148.3159  136.4523  161.2560 N   0  0  0  0  0  0  0  0  0  0  0  0
  147.8178  135.8909  162.3103 C   0  0  0  0  0  0  0  0  0  0  0  0
  146.5659  135.1092  162.4083 C   0  0  0  0  0  0  0  0  0  0  0  0
  145.2965  135.7166  162.5614 C   0  0  0  0  0  0  0  0  0  0  0  0
  144.1333  134.9280  162.6515 C   0  0  0  0  0  0  0  0  0  0  0  0
  144.2247  133.5256  162.5769 C   0  0  0  0  0  0  0  0  0  0  0  0
  145.4805  132.9134  162.4053 C   0  0  0  0  0  0  0  0  0  0  0  0
  146.6440  133.7024  162.3164 C   0  0  0  0  0  0  0  0  0  0  0  0
  149.6311  136.5590  158.6538 N   0  0  0  0  0  0  0  0  0  0  0  0
  149.7395  136.6141  157.2724 C   0  0  0  0  0  0  0  0  0  0  0  0
  148.5126  136.6196  156.6927 C   0  0  0  0  0  0  0  0  0  0  0  0
  148.3271  136.6610  155.2371 C   0  0  0  0  0  0  0  0  0  0  0  0
  147.2245  136.6516  154.6943 O   0  0  0  0  0  0  0  0  0  0  0  0
  149.4974  136.7070  154.5547 N   0  0  0  0  0  0  0  0  0  0  0  0
  150.7634  136.7097  155.0741 C   0  0  0  0  0  0  0  0  0  0  0  0
  151.7368  136.7547  154.3221 O   0  0  0  0  0  0  0  0  0  0  0  0
  150.8929  136.6600  156.4388 N   0  0  0  0  0  0  0  0  0  0  0  0
  152.2239  136.6563  157.0487 C   0  0  0  0  0  0  0  0  0  0  0  0
  149.4274  136.7403  153.5481 H   0  0  0  0  0  0  0  0  0  0  0  0
  142.7551  133.5882  157.2898 H   0  0  0  0  0  0  0  0  0  0  0  0
  144.3534  132.9241  157.6027 H   0  0  0  0  0  0  0  0  0  0  0  0
  143.9209  133.4728  155.9739 H   0  0  0  0  0  0  0  0  0  0  0  0
  146.2471  134.4134  157.2865 H   0  0  0  0  0  0  0  0  0  0  0  0
  145.6497  135.3083  155.9109 H   0  0  0  0  0  0  0  0  0  0  0  0
  145.8052  137.4140  156.9777 H   0  0  0  0  0  0  0  0  0  0  0  0
  145.6750  136.7544  158.5757 H   0  0  0  0  0  0  0  0  0  0  0  0
  146.7196  136.1200  160.0579 H   0  0  0  0  0  0  0  0  0  0  0  0
  148.3754  136.0131  163.2390 H   0  0  0  0  0  0  0  0  0  0  0  0
  145.2021  136.7914  162.6080 H   0  0  0  0  0  0  0  0  0  0  0  0
  143.1698  135.4003  162.7750 H   0  0  0  0  0  0  0  0  0  0  0  0
  143.3327  132.9207  162.6456 H   0  0  0  0  0  0  0  0  0  0  0  0
  145.5522  131.8377  162.3422 H   0  0  0  0  0  0  0  0  0  0  0  0
  147.6007  133.2164  162.1875 H   0  0  0  0  0  0  0  0  0  0  0  0
  152.7938  135.7876  156.7161 H   0  0  0  0  0  0  0  0  0  0  0  0
  152.1871  136.6240  158.1375 H   0  0  0  0  0  0  0  0  0  0  0  0
  152.7763  137.5541  156.7683 H   0  0  0  0  0  0  0  0  0  0  0  0
  1  2  1  0  0  0  0
  1 27  1  0  0  0  0
  1 28  1  0  0  0  0
  1 29  1  0  0  0  0
  2  3  1  0  0  0  0
  3  4  1  0  0  0  0
  3 30  1  0  0  0  0
  3 31  1  0  0  0  0
  4  5  1  0  0  0  0
  4 32  1  0  0  0  0
  4 33  1  0  0  0  0
  5 18  1  0  0  0  0
  5  6  1  0  0  0  0
  6  7  1  0  0  0  0
  6 16  2  0  0  0  0
  7  8  1  0  0  0  0
  7 34  1  0  0  0  0
  8  9  2  0  0  0  0
  9 10  1  0  0  0  0
  9 35  1  0  0  0  0
 10 15  1  0  0  0  0
 10 11  2  0  0  0  0
 11 12  1  0  0  0  0
 11 36  1  0  0  0  0
 12 13  2  0  0  0  0
 12 37  1  0  0  0  0
 13 14  1  0  0  0  0
 13 38  1  0  0  0  0
 14 15  2  0  0  0  0
 14 39  1  0  0  0  0
 15 40  1  0  0  0  0
 16 17  1  0  0  0  0
 17 24  1  0  0  0  0
 17 18  2  0  0  0  0
 18 19  1  0  0  0  0
 19 20  2  0  0  0  0
 19 21  1  0  0  0  0
 21 26  1  0  0  0  0
 21 22  1  0  0  0  0
 22 23  2  0  0  0  0
 22 24  1  0  0  0  0
 24 25  1  0  0  0  0
 25 41  1  0  0  0  0
 25 42  1  0  0  0  0
 25 43  1  0  0  0  0
M  END
> <s_m_source_file>
AV-unprocessed.smi

> <i_m_source_file_index>
481

> <i_lp_mmshare_version>
43012

> <i_f3d_flags>
0

> <s_epik_input>
W0NIM11uMWMoPU8pW25IXWMoPU8pYyhjMTIpbihbQ0gyXVtDSDJdT1tDSDNdKWMobjIpW05IXS9OPVtDSF0vYzNbY0hdW2NIXVtjSF1bY0hdW2NIXTM=

> <s_epik_cmdline>
J2VwaWtfcHl0aG9uJywgJy1waCcsICc3LjAnLCAnLXRuJywgJzgnLCAnLW1hJywgJzIwMCcsICctbWV0YWxfYmluZGluZycsICctaW1hZScsICc8aW5maWxlLm1hZT4nLCAnLW9tYWUnLCAnPG91dGZpbGUubWFlPic=

> <r_epik_Ionization_Penalty>
0.000595515

> <r_epik_Ionization_Penalty_Charging>
0.000305988

> <r_epik_Ionization_Penalty_Neutral>
0.000289528

> <r_epik_State_Penalty>
0.000184189

> <r_epik_Charging_Adjusted_Penalty>
0.000490177

> <i_epik_Tot_Q>
0

> <i_epik_Tot_abs_Q>
0

> <r_epik_Metal_State_Penalty>
0.173754

> <b_epik_Metal_Only>
0

> <s_epik_Chemistry_Notes>
This compound has an imine and may undergo hydrolysis.

> <s_lp_Force_Field>
OPLS_2005

> <r_lp_Energy>
46.456

> <b_lp_Chiralities_Consistent>
1

> <s_lp_Variant>
AV-unprocessed.smi:481-2

> <Gold.Version>
5.8.1

> <Gold.Id.Protein>
6NUR|6NUR_protein|mol2

> <Gold.PLP.Fitness>
40.6796

> <Gold.PLP.PLP>
-32.4712

> <Gold.PLP.part.hbond>
-2.9182

> <Gold.PLP.part.metal>
0.0000

> <Gold.PLP.part.buried>
-6.9953

> <Gold.PLP.part.nonpolar>
-23.6089

> <Gold.PLP.part.repulsive>
0.4616

> <Gold.PLP.ligand.clash>
0.0000

> <Gold.PLP.ligand.torsion>
1.0630

> <Gold.PLP.Chemscore.Hbond>
3.2600

> <Gold.PLP.Chemscore.CHOScore>
0.0000

> <Gold.PLP.Chemscore.Metal>
0.0000

> <Gold.Chemscore.Hbonds>
donor molecule, donor type, donor heavy atom, donor atom, acceptor molecule, acceptor atom, score
      L1  H    21    26       P1  7948  1.00
      P1  H  6896  6908       L1    16  0.26
      P1  H  6931  6943       L1     8  0.98
      P1  H 10752 10764       L1    23  1.00

> <Gold.PLP.Chemscore.Internal.Correction>
0.5544

> <Gold.Rescore>
     Score         DG    S(hbond)    S(metal)    S(lipo)     H(rot)  DE(clash)    DE(int)     intcor
     17.07     -18.26       2.76        0.00      64.07       1.54       0.07       1.11       ----

> <Gold.Chemscore.Fitness>
17.0742

> <Gold.Chemscore.DG>
-18.2574

> <Gold.Chemscore.ZeroCoef>
-5.4800

> <Gold.Chemscore.Hbond>
2.7619

> <Gold.Chemscore.Metal>
0.0000

> <Gold.Chemscore.Lipo>
64.0744

> <Gold.Chemscore.Internal_Hbond>
0.0000

> <Gold.Chemscore.DEClash>
0.0688

> <Gold.Chemscore.DEInternal>
1.1143

> <Gold.Chemscore.Rot>
1.5406

> <Gold.Chemscore.Internal.Correction>
   9.000000E+99

> <Gold.Chemscore.Hbonds>
donor molecule, donor type, donor heavy atom, donor atom, acceptor molecule, acceptor atom, score
      L1  H    21    26       P1  7948  0.88
      P1  H  6896  6908       L1    16  0.23
      P1  H  6931  6943       L1     8  0.42
      P1  H 10752 10764       L1    23  0.98

> <Gold.Chemscore.Hbond.Weighted>
-9.2246

> <Gold.Chemscore.Metal.Weighted>
-0.0000

> <Gold.Chemscore.Lipo.Weighted>
-7.4967

> <Gold.Chemscore.Internal_Hbond.Weighted>
0.0000

> <Gold.Chemscore.DEClash.Weighted>
0.0688

> <Gold.Chemscore.DEInternal.Weighted>
1.1143

> <Gold.Chemscore.Rot.Weighted>
3.9440

> <Gold.Chemscore.Internal.Correction.Weighted>
   9.000000E+99

> <Gold.Protein.RotatedTorsions>
[ 6907 6896 6895 6894 ] final -169.09 input  -60.11 | X-H torsion
[ 7974 7965 7964 7962 ] final -153.28 input  175.53 | X-H torsion
[ 8008 7997 7996 7995 ] final -160.45 input   59.86 | X-H torsion
[ 10167 10162 10161 10158 ] final  162.10 input  -65.29 | X-H torsion
[ 10718 10713 10712 10709 ] final  -79.55 input   66.30 | X-H torsion
[ 10763 10752 10751 10750 ] final  -69.31 input  -60.55 | X-H torsion
[ 11005 11000 10999 10996 ] final -120.98 input  -57.11 | X-H torsion

> <Gold.Protein.ActiveResidues>
 VAL166  LYS551  ARG553  GLY616  TRP617  ASP618  TYR619  PRO620  LYS621  CYS622 
 ASP623  PHE694  ASN695  SER759  ASP760  ASP761  ALA762  ILE779  LEU786  VAL792 
 PHE793  MET794  SER795  GLU796  ALA797  LYS798  CYS799  TRP800  GLU811  SER814 

> <Gold.Protein.RotatedAtoms>
  151.4861  133.3535  159.2845 H   0  0  0  0  0  0  0  0  0  0  0  0  # atno 6907 bound_to 6896
  150.8865  134.8265  159.7273 H   0  0  0  0  0  0  0  0  0  0  0  0  # atno 6908 bound_to 6896
  152.4796  134.4765  159.9704 H   0  0  0  0  0  0  0  0  0  0  0  0  # atno 6909 bound_to 6896
  144.7749  140.4547  143.5880 H   0  0  0  0  0  0  0  0  0  0  0  0  # atno 7974 bound_to 7965
  155.7776  140.0860  157.2076 H   0  0  0  0  0  0  0  0  0  0  0  0  # atno 8008 bound_to 7997
  154.3992  140.1513  156.3072 H   0  0  0  0  0  0  0  0  0  0  0  0  # atno 8009 bound_to 7997
  155.8685  140.3426  155.5808 H   0  0  0  0  0  0  0  0  0  0  0  0  # atno 8010 bound_to 7997
  139.4857  144.4470  151.8878 H   0  0  0  0  0  0  0  0  0  0  0  0  # atno 10167 bound_to 10162
  156.0090  130.4549  150.3665 H   0  0  0  0  0  0  0  0  0  0  0  0  # atno 10718 bound_to 10713
  154.4016  135.6029  153.5900 H   0  0  0  0  0  0  0  0  0  0  0  0  # atno 10763 bound_to 10752
  152.9788  135.5908  154.4177 H   0  0  0  0  0  0  0  0  0  0  0  0  # atno 10764 bound_to 10752
  154.3976  135.2842  155.2094 H   0  0  0  0  0  0  0  0  0  0  0  0  # atno 10765 bound_to 10752
  141.0104  134.0273  157.3421 H   0  0  0  0  0  0  0  0  0  0  0  0  # atno 11005 bound_to 11000
  145.6215  139.1525  143.3020 LP  0  0  0  0  0  0  0  0  0  0  0  0  # atno 17320 bound_to 7965
  146.1922  140.6325  142.9140 LP  0  0  0  0  0  0  0  0  0  0  0  0  # atno 17321 bound_to 7965
  140.3925  144.2597  150.5898 LP  0  0  0  0  0  0  0  0  0  0  0  0  # atno 17342 bound_to 10162
  140.5132  143.2285  151.8503 LP  0  0  0  0  0  0  0  0  0  0  0  0  # atno 17343 bound_to 10162
  157.1751  131.0378  151.2776 LP  0  0  0  0  0  0  0  0  0  0  0  0  # atno 17370 bound_to 10713
  157.4195  130.7429  149.6902 LP  0  0  0  0  0  0  0  0  0  0  0  0  # atno 17371 bound_to 10713
  139.9087  135.0185  156.7597 LP  0  0  0  0  0  0  0  0  0  0  0  0  # atno 17394 bound_to 11000
  140.6743  133.9531  155.7874 LP  0  0  0  0  0  0  0  0  0  0  0  0  # atno 17395 bound_to 11000

$$$$
