AV-unprocessed.smi:1420|AV-procd|sdf|5788|dock10
  -GOLD-   22720 5433D 1   1.00000     0.00000
 Structure written by MMmdl.
 39 40  0  0  0  0  0  0  0  0  2 V2000
  145.6772  137.1793  152.1616 C   0  0  0  0  0  0  0  0  0  0  0  0
  145.8832  136.0627  153.2112 C   0  0  2  0  0  0  0  0  0  0  0  0
  146.7202  136.5981  154.4079 C   0  0  0  0  0  0  0  0  0  0  0  0
  147.6866  137.6217  154.0209 N   0  0  0  0  0  0  0  0  0  0  0  0
  147.9278  138.7530  154.7022 C   0  0  0  0  0  0  0  0  0  0  0  0
  147.3415  139.0553  155.7412 O   0  0  0  0  0  0  0  0  0  0  0  0
  148.9864  139.6902  154.1189 C   0  0  0  0  0  0  0  0  0  0  0  0
  150.3278  139.2250  154.4243 N   0  0  0  0  0  0  0  0  0  0  0  0
  150.8577  137.9634  154.2484 C   0  0  0  0  0  0  0  0  0  0  0  0
  152.1552  138.0052  154.6719 C   0  0  0  0  0  0  0  0  0  0  0  0
  152.3298  139.3526  155.0952 C   0  0  0  0  0  0  0  0  0  0  0  0
  151.2351  140.0807  154.9448 N   0  0  0  0  0  0  0  0  0  0  0  0
  146.4697  134.8436  152.5624 N   0  3  0  0  0  0  0  0  0  0  0  0
  146.7246  133.6909  153.4703 C   0  0  0  0  0  0  0  0  0  0  0  0
  147.3468  132.5076  152.7081 C   0  0  0  0  0  0  0  0  0  0  0  0
  146.5056  132.1288  151.6294 O   0  0  0  0  0  0  0  0  0  0  0  0
  146.3504  133.1874  150.6967 C   0  0  0  0  0  0  0  0  0  0  0  0
  145.6776  134.3838  151.3884 C   0  0  0  0  0  0  0  0  0  0  0  0
  145.2257  138.0696  152.5992 H   0  0  0  0  0  0  0  0  0  0  0  0
  145.0129  136.8797  151.3532 H   0  0  0  0  0  0  0  0  0  0  0  0
  146.6264  137.4787  151.7164 H   0  0  0  0  0  0  0  0  0  0  0  0
  144.9055  135.7799  153.6046 H   0  0  0  0  0  0  0  0  0  0  0  0
  146.0831  137.0339  155.1785 H   0  0  0  0  0  0  0  0  0  0  0  0
  147.2687  135.7808  154.8776 H   0  0  0  0  0  0  0  0  0  0  0  0
  148.2211  137.4544  153.1800 H   0  0  0  0  0  0  0  0  0  0  0  0
  148.8619  139.7671  153.0375 H   0  0  0  0  0  0  0  0  0  0  0  0
  148.8634  140.6941  154.5280 H   0  0  0  0  0  0  0  0  0  0  0  0
  150.2737  137.1514  153.8399 H   0  0  0  0  0  0  0  0  0  0  0  0
  152.8707  137.1963  154.6784 H   0  0  0  0  0  0  0  0  0  0  0  0
  153.2136  139.8201  155.5037 H   0  0  0  0  0  0  0  0  0  0  0  0
  147.4214  133.9657  154.2613 H   0  0  0  0  0  0  0  0  0  0  0  0
  145.7909  133.3836  153.9442 H   0  0  0  0  0  0  0  0  0  0  0  0
  148.3411  132.7629  152.3378 H   0  0  0  0  0  0  0  0  0  0  0  0
  147.4678  131.6544  153.3760 H   0  0  0  0  0  0  0  0  0  0  0  0
  147.3173  133.4702  150.2769 H   0  0  0  0  0  0  0  0  0  0  0  0
  145.7339  132.8383  149.8682 H   0  0  0  0  0  0  0  0  0  0  0  0
  144.6742  134.1029  151.7131 H   0  0  0  0  0  0  0  0  0  0  0  0
  145.5599  135.1795  150.6555 H   0  0  0  0  0  0  0  0  0  0  0  0
  147.3763  135.1205  152.2135 H   0  0  0  0  0  0  0  0  0  0  0  0
  1  2  1  0  0  0  0
  1 19  1  0  0  0  0
  1 20  1  0  0  0  0
  1 21  1  0  0  0  0
  2  3  1  0  0  0  0
  2 13  1  0  0  0  0
  2 22  1  0  0  0  0
  3  4  1  0  0  0  0
  3 23  1  0  0  0  0
  3 24  1  0  0  0  0
  4  5  1  0  0  0  0
  4 25  1  0  0  0  0
  5  6  2  0  0  0  0
  5  7  1  0  0  0  0
  7  8  1  0  0  0  0
  7 26  1  0  0  0  0
  7 27  1  0  0  0  0
  8 12  1  0  0  0  0
  8  9  1  0  0  0  0
  9 10  2  0  0  0  0
  9 28  1  0  0  0  0
 10 11  1  0  0  0  0
 10 29  1  0  0  0  0
 11 12  2  0  0  0  0
 11 30  1  0  0  0  0
 13 18  1  0  0  0  0
 13 14  1  0  0  0  0
 13 39  1  0  0  0  0
 14 15  1  0  0  0  0
 14 31  1  0  0  0  0
 14 32  1  0  0  0  0
 15 16  1  0  0  0  0
 15 33  1  0  0  0  0
 15 34  1  0  0  0  0
 16 17  1  0  0  0  0
 17 18  1  0  0  0  0
 17 35  1  0  0  0  0
 17 36  1  0  0  0  0
 18 37  1  0  0  0  0
 18 38  1  0  0  0  0
M  CHG  1  13   1
M  END
> <s_m_source_file>
AV-unprocessed.smi

> <i_m_source_file_index>
1420

> <i_lp_mmshare_version>
43012

> <i_f3d_flags>
0

> <s_epik_input>
W0NIMl0xW0NIMl1PW0NIMl1bQ0gyXU4xW0NASF0oW0NIM10pW0NIMl1bTkhdQyg9TylbQ0gyXW4yW2NIXVtjSF1bY0hdbjI=

> <s_epik_cmdline>
J2VwaWtfcHl0aG9uJywgJy1waCcsICc3LjAnLCAnLXRuJywgJzgnLCAnLW1hJywgJzIwMCcsICctbWV0YWxfYmluZGluZycsICctaW1hZScsICc8aW5maWxlLm1hZT4nLCAnLW9tYWUnLCAnPG91dGZpbGUubWFlPic=

> <r_lp_tautomer_probability>
1

> <r_epik_Ionization_Penalty>
0.748405

> <r_epik_Ionization_Penalty_Charging>
0.748396

> <r_epik_Ionization_Penalty_Neutral>
8.56978e-06

> <r_epik_State_Penalty>
0.775162

> <r_epik_Charging_Adjusted_Penalty>
1.52356

> <i_epik_Tot_Q>
1

> <i_epik_Tot_abs_Q>
1

> <r_epik_Metal_State_Penalty>
0.775167

> <b_epik_Metal_Only>
0

> <s_lp_Force_Field>
OPLS_2005

> <r_lp_Energy>
20.6517

> <b_lp_Chiralities_Consistent>
1

> <s_lp_Variant>
AV-unprocessed.smi:1420-3

> <Gold.Version>
5.8.1

> <Gold.Id.Protein>
6NUR|6NUR_protein|mol2

> <Gold.PLP.Fitness>
42.2139

> <Gold.PLP.PLP>
-29.0531

> <Gold.PLP.part.hbond>
-3.0000

> <Gold.PLP.part.metal>
0.0000

> <Gold.PLP.part.buried>
-1.5341

> <Gold.PLP.part.nonpolar>
-25.9665

> <Gold.PLP.part.repulsive>
0.4746

> <Gold.PLP.ligand.clash>
0.0000

> <Gold.PLP.ligand.torsion>
0.8750

> <Gold.PLP.Chemscore.Hbond>
3.9000

> <Gold.PLP.Chemscore.CHOScore>
1.0483

> <Gold.PLP.Chemscore.Metal>
0.0000

> <Gold.Chemscore.Hbonds>
donor molecule, donor type, donor heavy atom, donor atom, acceptor molecule, acceptor atom, score
      L1  H     4    25       P1  7948  1.00
      L1  H    13    39       P1  7948  2.00
      P1  H  7989  7998       L1    12  0.86
      L1  C     9    28       P1  7948  0.95
      L1  C     9    28       P1  7949  0.11

> <Gold.PLP.Chemscore.Internal.Correction>
0.0658

> <Gold.Rescore>
     Score         DG    S(hbond)    S(metal)    S(lipo)     H(rot)  DE(clash)    DE(int)     intcor
     13.70     -14.48       1.96        0.00      63.54       1.94       0.08       0.69       ----

> <Gold.Chemscore.Fitness>
13.7044

> <Gold.Chemscore.DG>
-14.4784

> <Gold.Chemscore.ZeroCoef>
-5.4800

> <Gold.Chemscore.Hbond>
1.9579

> <Gold.Chemscore.Metal>
0.0000

> <Gold.Chemscore.Lipo>
63.5411

> <Gold.Chemscore.Internal_Hbond>
0.0000

> <Gold.Chemscore.DEClash>
0.0815

> <Gold.Chemscore.DEInternal>
0.6925

> <Gold.Chemscore.Rot>
1.9435

> <Gold.Chemscore.Internal.Correction>
   9.000000E+99

> <Gold.Chemscore.Hbonds>
donor molecule, donor type, donor heavy atom, donor atom, acceptor molecule, acceptor atom, score
      L1  H     4    25       P1  7948  0.95
      L1  H    13    39       P1  7948  0.98
      P1  H  7989  7998       L1    12  0.04

> <Gold.Chemscore.Hbond.Weighted>
-6.5395

> <Gold.Chemscore.Metal.Weighted>
-0.0000

> <Gold.Chemscore.Lipo.Weighted>
-7.4343

> <Gold.Chemscore.Internal_Hbond.Weighted>
0.0000

> <Gold.Chemscore.DEClash.Weighted>
0.0815

> <Gold.Chemscore.DEInternal.Weighted>
0.6925

> <Gold.Chemscore.Rot.Weighted>
4.9754

> <Gold.Chemscore.Internal.Correction.Weighted>
   9.000000E+99

> <Gold.Protein.RotatedTorsions>
[ 6907 6896 6895 6894 ] final   95.63 input  -60.11 | X-H torsion
[ 7974 7965 7964 7962 ] final    6.65 input  175.53 | X-H torsion
[ 8008 7997 7996 7995 ] final -119.16 input   59.86 | X-H torsion
[ 10167 10162 10161 10158 ] final -143.18 input  -65.29 | X-H torsion
[ 10718 10713 10712 10709 ] final -130.33 input   66.30 | X-H torsion
[ 10763 10752 10751 10750 ] final  -63.47 input  -60.55 | X-H torsion
[ 11005 11000 10999 10996 ] final  119.84 input  -57.11 | X-H torsion

> <Gold.Protein.ActiveResidues>
 VAL166  LYS551  ARG553  GLY616  TRP617  ASP618  TYR619  PRO620  LYS621  CYS622 
 ASP623  PHE694  ASN695  SER759  ASP760  ASP761  ALA762  ILE779  LEU786  VAL792 
 PHE793  MET794  SER795  GLU796  ALA797  LYS798  CYS799  TRP800  GLU811  SER814 

> <Gold.Protein.RotatedAtoms>
  152.5442  134.1010  159.8317 H   0  0  0  0  0  0  0  0  0  0  0  0  # atno 6907 bound_to 6896
  151.1088  133.5181  159.2614 H   0  0  0  0  0  0  0  0  0  0  0  0  # atno 6908 bound_to 6896
  151.1907  135.0410  159.8886 H   0  0  0  0  0  0  0  0  0  0  0  0  # atno 6909 bound_to 6896
  146.2433  140.0201  142.8398 H   0  0  0  0  0  0  0  0  0  0  0  0  # atno 7974 bound_to 7965
  155.1113  140.0397  157.2725 H   0  0  0  0  0  0  0  0  0  0  0  0  # atno 8008 bound_to 7997
  154.6683  140.2606  155.7009 H   0  0  0  0  0  0  0  0  0  0  0  0  # atno 8009 bound_to 7997
  156.2648  140.2803  156.1182 H   0  0  0  0  0  0  0  0  0  0  0  0  # atno 8010 bound_to 7997
  139.8018  143.7823  152.2658 H   0  0  0  0  0  0  0  0  0  0  0  0  # atno 10167 bound_to 10162
  156.2134  130.6933  151.0675 H   0  0  0  0  0  0  0  0  0  0  0  0  # atno 10718 bound_to 10713
  154.3155  135.6207  153.5484 H   0  0  0  0  0  0  0  0  0  0  0  0  # atno 10763 bound_to 10752
  152.9825  135.5711  154.5129 H   0  0  0  0  0  0  0  0  0  0  0  0  # atno 10764 bound_to 10752
  154.4787  135.2862  155.1564 H   0  0  0  0  0  0  0  0  0  0  0  0  # atno 10765 bound_to 10752
  139.9162  134.9631  156.7716 H   0  0  0  0  0  0  0  0  0  0  0  0  # atno 11005 bound_to 11000
  145.1249  140.9484  143.4579 LP  0  0  0  0  0  0  0  0  0  0  0  0  # atno 17320 bound_to 7965
  145.0445  139.3232  143.5960 LP  0  0  0  0  0  0  0  0  0  0  0  0  # atno 17321 bound_to 7965
  139.7946  144.7397  150.9908 LP  0  0  0  0  0  0  0  0  0  0  0  0  # atno 17342 bound_to 10162
  140.7820  143.4407  151.0556 LP  0  0  0  0  0  0  0  0  0  0  0  0  # atno 17343 bound_to 10162
  157.7050  131.0760  150.6695 LP  0  0  0  0  0  0  0  0  0  0  0  0  # atno 17370 bound_to 10713
  156.6756  130.4552  149.5643 LP  0  0  0  0  0  0  0  0  0  0  0  0  # atno 17371 bound_to 10713
  140.6616  133.9640  155.7808 LP  0  0  0  0  0  0  0  0  0  0  0  0  # atno 17394 bound_to 11000
  141.0639  134.0305  157.3621 LP  0  0  0  0  0  0  0  0  0  0  0  0  # atno 17395 bound_to 11000

$$$$
