AV-unprocessed.smi:2095|AV-procd|sdf|8556|dock2
  -GOLD-   2272011283D 1   1.00000     0.00000
 Structure written by MMmdl.
 42 43  0  0  0  0  0  0  0  0  2 V2000
  144.3503  141.4705  155.6278 C   0  0  0  0  0  0  0  0  0  0  0  0
  145.7869  140.9993  155.9138 C   0  0  2  0  0  0  0  0  0  0  0  0
  146.8481  142.0455  155.5221 C   0  0  0  0  0  0  0  0  0  0  0  0
  147.0224  142.1244  153.9978 C   0  0  0  0  0  0  0  0  0  0  0  0
  147.3004  140.7362  153.3997 C   0  0  0  0  0  0  0  0  0  0  0  0
  146.2275  139.7775  153.7729 N   0  3  1  0  0  0  0  0  0  0  0  0
  146.2871  138.4945  153.0145 C   0  0  2  0  0  0  0  0  0  0  0  0
  146.6967  138.7448  151.5499 C   0  0  0  0  0  0  0  0  0  0  0  0
  144.9928  137.6504  153.1404 C   0  0  0  0  0  0  0  0  0  0  0  0
  144.7561  136.8335  151.9563 N   0  0  0  0  0  0  0  0  0  0  0  0
  144.8932  135.4998  151.9033 C   0  0  0  0  0  0  0  0  0  0  0  0
  145.1721  134.8076  152.8817 O   0  0  0  0  0  0  0  0  0  0  0  0
  144.7182  134.8526  150.5300 C   0  0  0  0  0  0  0  0  0  0  0  0
  144.7794  133.4075  150.6408 N   0  0  0  0  0  0  0  0  0  0  0  0
  143.9162  132.4621  150.2639 C   0  0  0  0  0  0  0  0  0  0  0  0
  144.3469  131.2516  150.5853 N   0  0  0  0  0  0  0  0  0  0  0  0
  145.5629  131.5022  151.1990 N   0  0  0  0  0  0  0  0  0  0  0  0
  145.8251  132.7797  151.2352 N   0  0  0  0  0  0  0  0  0  0  0  0
  146.0983  139.6419  155.2506 C   0  0  0  0  0  0  0  0  0  0  0  0
  144.1749  141.6241  154.5630 H   0  0  0  0  0  0  0  0  0  0  0  0
  144.1386  142.4110  156.1375 H   0  0  0  0  0  0  0  0  0  0  0  0
  143.6222  140.7382  155.9782 H   0  0  0  0  0  0  0  0  0  0  0  0
  145.8539  140.8581  156.9933 H   0  0  0  0  0  0  0  0  0  0  0  0
  146.5888  143.0252  155.9251 H   0  0  0  0  0  0  0  0  0  0  0  0
  147.8028  141.7734  155.9741 H   0  0  0  0  0  0  0  0  0  0  0  0
  146.1274  142.5485  153.5418 H   0  0  0  0  0  0  0  0  0  0  0  0
  147.8396  142.8038  153.7534 H   0  0  0  0  0  0  0  0  0  0  0  0
  147.3648  140.8241  152.3146 H   0  0  0  0  0  0  0  0  0  0  0  0
  148.2667  140.3678  153.7461 H   0  0  0  0  0  0  0  0  0  0  0  0
  147.1052  137.9185  153.4492 H   0  0  0  0  0  0  0  0  0  0  0  0
  146.9274  137.8103  151.0373 H   0  0  0  0  0  0  0  0  0  0  0  0
  147.5894  139.3684  151.4937 H   0  0  0  0  0  0  0  0  0  0  0  0
  145.9082  139.2389  150.9826 H   0  0  0  0  0  0  0  0  0  0  0  0
  145.0252  137.0083  154.0217 H   0  0  0  0  0  0  0  0  0  0  0  0
  144.1235  138.2968  153.2600 H   0  0  0  0  0  0  0  0  0  0  0  0
  144.5223  137.3208  151.1028 H   0  0  0  0  0  0  0  0  0  0  0  0
  143.7548  135.1328  150.1016 H   0  0  0  0  0  0  0  0  0  0  0  0
  145.4925  135.1993  149.8439 H   0  0  0  0  0  0  0  0  0  0  0  0
  142.9772  132.6598  149.7682 H   0  0  0  0  0  0  0  0  0  0  0  0
  147.0291  139.2499  155.6628 H   0  0  0  0  0  0  0  0  0  0  0  0
  145.3184  138.9252  155.5063 H   0  0  0  0  0  0  0  0  0  0  0  0
  145.3712  140.2161  153.4655 H   0  0  0  0  0  0  0  0  0  0  0  0
  1  2  1  0  0  0  0
  1 20  1  0  0  0  0
  1 21  1  0  0  0  0
  1 22  1  0  0  0  0
  2 19  1  0  0  0  0
  2  3  1  0  0  0  0
  2 23  1  0  0  0  0
  3  4  1  0  0  0  0
  3 24  1  0  0  0  0
  3 25  1  0  0  0  0
  4  5  1  0  0  0  0
  4 26  1  0  0  0  0
  4 27  1  0  0  0  0
  5  6  1  0  0  0  0
  5 28  1  0  0  0  0
  5 29  1  0  0  0  0
  6  7  1  0  0  0  0
  6 19  1  0  0  0  0
  6 42  1  0  0  0  0
  7  8  1  0  0  0  0
  7  9  1  0  0  0  0
  7 30  1  0  0  0  0
  8 31  1  0  0  0  0
  8 32  1  0  0  0  0
  8 33  1  0  0  0  0
  9 10  1  0  0  0  0
  9 34  1  0  0  0  0
  9 35  1  0  0  0  0
 10 11  1  0  0  0  0
 10 36  1  0  0  0  0
 11 12  2  0  0  0  0
 11 13  1  0  0  0  0
 13 14  1  0  0  0  0
 13 37  1  0  0  0  0
 13 38  1  0  0  0  0
 14 18  1  0  0  0  0
 14 15  1  0  0  0  0
 15 16  2  0  0  0  0
 15 39  1  0  0  0  0
 16 17  1  0  0  0  0
 17 18  2  0  0  0  0
 19 40  1  0  0  0  0
 19 41  1  0  0  0  0
M  CHG  1   6   1
M  END
> <s_m_source_file>
AV-unprocessed.smi

> <i_m_source_file_index>
2095

> <i_lp_mmshare_version>
43012

> <i_f3d_flags>
0

> <s_epik_input>
W0NIM11bQ0BASF0xW0NIMl1bQ0gyXVtDSDJdTihbQ0gyXTEpW0NASF0oW0NIM10pW0NIMl1bTkhdQyg9TylbQ0gyXW4yW2NIXW5ubjI=

> <s_epik_cmdline>
J2VwaWtfcHl0aG9uJywgJy1waCcsICc3LjAnLCAnLXRuJywgJzgnLCAnLW1hJywgJzIwMCcsICctbWV0YWxfYmluZGluZycsICctaW1hZScsICc8aW5maWxlLm1hZT4nLCAnLW9tYWUnLCAnPG91dGZpbGUubWFlPic=

> <r_lp_tautomer_probability>
1

> <r_epik_Ionization_Penalty>
0.00268321

> <r_epik_Ionization_Penalty_Charging>
0.00267875

> <r_epik_Ionization_Penalty_Neutral>
4.46125e-06

> <r_epik_State_Penalty>
0.00186642

> <r_epik_Charging_Adjusted_Penalty>
0.00454517

> <i_epik_Tot_Q>
1

> <i_epik_Tot_abs_Q>
1

> <r_epik_Metal_State_Penalty>
-0

> <b_epik_Metal_Only>
0

> <s_lp_Force_Field>
OPLS_2005

> <r_lp_Energy>
23.935

> <b_lp_Chiralities_Consistent>
1

> <s_lp_Variant>
AV-unprocessed.smi:2095-3

> <Gold.Version>
5.8.1

> <Gold.Id.Protein>
6NUR|6NUR_protein|mol2

> <Gold.PLP.Fitness>
41.1923

> <Gold.PLP.PLP>
-28.2966

> <Gold.PLP.part.hbond>
-3.0000

> <Gold.PLP.part.metal>
0.0000

> <Gold.PLP.part.buried>
-0.3853

> <Gold.PLP.part.nonpolar>
-26.2022

> <Gold.PLP.part.repulsive>
0.4860

> <Gold.PLP.ligand.clash>
0.0000

> <Gold.PLP.ligand.torsion>
0.7508

> <Gold.PLP.Chemscore.Hbond>
3.7613

> <Gold.PLP.Chemscore.CHOScore>
1.0000

> <Gold.PLP.Chemscore.Metal>
0.0000

> <Gold.Chemscore.Hbonds>
donor molecule, donor type, donor heavy atom, donor atom, acceptor molecule, acceptor atom, score
      L1  H     6    42       P1 10175  2.00
      L1  H    10    36       P1 10171  1.00
      P1  H 10785 10796       L1    16  0.01
      L1  C    15    39       P1 10186  0.70

> <Gold.PLP.Chemscore.Internal.Correction>
0.1136

> <Gold.Rescore>
     Score         DG    S(hbond)    S(metal)    S(lipo)     H(rot)  DE(clash)    DE(int)     intcor
      9.36     -11.74       2.00        0.00      54.19       2.64       0.32       2.05       ----

> <Gold.Chemscore.Fitness>
9.3592

> <Gold.Chemscore.DG>
-11.7351

> <Gold.Chemscore.ZeroCoef>
-5.4800

> <Gold.Chemscore.Hbond>
2.0009

> <Gold.Chemscore.Metal>
0.0000

> <Gold.Chemscore.Lipo>
54.1930

> <Gold.Chemscore.Internal_Hbond>
0.0000

> <Gold.Chemscore.DEClash>
0.3236

> <Gold.Chemscore.DEInternal>
2.0524

> <Gold.Chemscore.Rot>
2.6439

> <Gold.Chemscore.Internal.Correction>
   9.000000E+99

> <Gold.Chemscore.Hbonds>
donor molecule, donor type, donor heavy atom, donor atom, acceptor molecule, acceptor atom, score
      L1  H     6    42       P1 10175  0.97
      L1  H    10    36       P1 10171  0.99

> <Gold.Chemscore.Hbond.Weighted>
-6.6830

> <Gold.Chemscore.Metal.Weighted>
-0.0000

> <Gold.Chemscore.Lipo.Weighted>
-6.3406

> <Gold.Chemscore.Internal_Hbond.Weighted>
0.0000

> <Gold.Chemscore.DEClash.Weighted>
0.3236

> <Gold.Chemscore.DEInternal.Weighted>
2.0524

> <Gold.Chemscore.Rot.Weighted>
6.7685

> <Gold.Chemscore.Internal.Correction.Weighted>
   9.000000E+99

> <Gold.Protein.RotatedTorsions>
[ 6907 6896 6895 6894 ] final -103.84 input  -60.11 | X-H torsion
[ 7974 7965 7964 7962 ] final -128.53 input  175.53 | X-H torsion
[ 8008 7997 7996 7995 ] final  -91.20 input   59.86 | X-H torsion
[ 10167 10162 10161 10158 ] final   36.77 input  -65.29 | X-H torsion
[ 10718 10713 10712 10709 ] final   22.25 input   66.30 | X-H torsion
[ 10763 10752 10751 10750 ] final   22.17 input  -60.55 | X-H torsion
[ 11005 11000 10999 10996 ] final  143.39 input  -57.11 | X-H torsion

> <Gold.Protein.ActiveResidues>
 VAL166  LYS551  ARG553  GLY616  TRP617  ASP618  TYR619  PRO620  LYS621  CYS622 
 ASP623  PHE694  ASN695  SER759  ASP760  ASP761  ALA762  ILE779  LEU786  VAL792 
 PHE793  MET794  SER795  GLU796  ALA797  LYS798  CYS799  TRP800  GLU811  SER814 

> <Gold.Protein.RotatedAtoms>
  150.7259  134.0369  159.3752 H   0  0  0  0  0  0  0  0  0  0  0  0  # atno 6907 bound_to 6896
  151.8340  135.0610  160.0449 H   0  0  0  0  0  0  0  0  0  0  0  0  # atno 6908 bound_to 6896
  152.2912  133.5527  159.5595 H   0  0  0  0  0  0  0  0  0  0  0  0  # atno 6909 bound_to 6896
  144.9662  140.7498  143.4699 H   0  0  0  0  0  0  0  0  0  0  0  0  # atno 7974 bound_to 7965
  154.7078  140.0522  157.0520 H   0  0  0  0  0  0  0  0  0  0  0  0  # atno 8008 bound_to 7997
  155.0596  140.3188  155.4646 H   0  0  0  0  0  0  0  0  0  0  0  0  # atno 8009 bound_to 7997
  156.2780  140.2101  156.5723 H   0  0  0  0  0  0  0  0  0  0  0  0  # atno 8010 bound_to 7997
  140.4096  144.1611  150.6138 H   0  0  0  0  0  0  0  0  0  0  0  0  # atno 10167 bound_to 10162
  157.1497  130.6669  149.6007 H   0  0  0  0  0  0  0  0  0  0  0  0  # atno 10718 bound_to 10713
  153.0937  135.6654  153.9805 H   0  0  0  0  0  0  0  0  0  0  0  0  # atno 10763 bound_to 10752
  153.9394  135.2995  155.3444 H   0  0  0  0  0  0  0  0  0  0  0  0  # atno 10764 bound_to 10752
  154.7354  135.5104  153.9106 H   0  0  0  0  0  0  0  0  0  0  0  0  # atno 10765 bound_to 10752
  140.0550  134.9235  157.1085 H   0  0  0  0  0  0  0  0  0  0  0  0  # atno 11005 bound_to 11000
  145.2627  139.1986  143.4883 LP  0  0  0  0  0  0  0  0  0  0  0  0  # atno 17320 bound_to 7965
  146.3368  140.2560  142.8600 LP  0  0  0  0  0  0  0  0  0  0  0  0  # atno 17321 bound_to 7965
  140.4652  143.2433  151.9165 LP  0  0  0  0  0  0  0  0  0  0  0  0  # atno 17342 bound_to 10162
  139.4783  144.5426  151.8505 LP  0  0  0  0  0  0  0  0  0  0  0  0  # atno 17343 bound_to 10162
  155.9773  130.4749  150.6583 LP  0  0  0  0  0  0  0  0  0  0  0  0  # atno 17370 bound_to 10713
  157.4232  131.0839  151.1111 LP  0  0  0  0  0  0  0  0  0  0  0  0  # atno 17371 bound_to 10713
  140.3857  134.2238  155.7168 LP  0  0  0  0  0  0  0  0  0  0  0  0  # atno 17394 bound_to 11000
  141.1948  133.8120  157.0742 LP  0  0  0  0  0  0  0  0  0  0  0  0  # atno 17395 bound_to 11000

$$$$
