AV-unprocessed.smi:679|AV-procd|sdf|3319|dock7
  -GOLD-   22720 0283D 1   1.00000     0.00000
 Structure written by MMmdl.
 41 43  0  0  0  0  0  0  0  0  1 V2000
  153.8986  141.4932  161.1494 C   0  0  0  0  0  0  0  0  0  0  0  0
  153.3107  142.4492  160.1092 C   0  0  0  0  0  0  0  0  0  0  0  0
  152.8386  141.6919  159.0082 O   0  0  0  0  0  0  0  0  0  0  0  0
  151.4273  141.7395  158.8679 C   0  0  2  0  0  0  0  0  0  0  0  0
  150.8887  141.0874  157.5906 C   0  0  0  0  0  0  0  0  0  0  0  0
  149.9200  142.2701  157.4763 C   0  0  1  0  0  0  0  0  0  0  0  0
  148.6523  141.9801  158.1461 N   0  0  0  0  0  0  0  0  0  0  0  0
  147.4594  141.9204  157.5343 C   0  0  0  0  0  0  0  0  0  0  0  0
  147.3076  142.1158  156.3290 O   0  0  0  0  0  0  0  0  0  0  0  0
  146.2471  141.6145  158.4165 C   0  0  0  0  0  0  0  0  0  0  0  0
  146.0983  142.5899  159.4812 N   0  0  0  0  0  0  0  0  0  0  0  0
  146.0006  143.9203  159.4437 C   0  0  0  0  0  0  0  0  0  0  0  0
  145.8872  144.4367  160.6575 N   0  0  0  0  0  0  0  0  0  0  0  0
  145.9186  143.3215  161.4780 N   0  0  0  0  0  0  0  0  0  0  0  0
  146.0438  142.2227  160.7857 N   0  0  0  0  0  0  0  0  0  0  0  0
  150.9013  143.0990  158.3465 C   0  0  0  0  0  0  0  0  0  0  0  0
  151.8962  143.9848  157.5917 C   0  0  0  0  0  0  0  0  0  0  0  0
  152.4982  144.9617  158.6075 C   0  0  0  0  0  0  0  0  0  0  0  0
  151.5325  144.9753  159.7965 C   0  0  0  0  0  0  0  0  0  0  0  0
  150.3617  144.0808  159.3847 C   0  0  0  0  0  0  0  0  0  0  0  0
  154.2784  142.0413  162.0118 H   0  0  0  0  0  0  0  0  0  0  0  0
  154.7229  140.9160  160.7297 H   0  0  0  0  0  0  0  0  0  0  0  0
  153.1447  140.7909  161.5054 H   0  0  0  0  0  0  0  0  0  0  0  0
  152.4966  143.0241  160.5529 H   0  0  0  0  0  0  0  0  0  0  0  0
  154.0734  143.1556  159.7786 H   0  0  0  0  0  0  0  0  0  0  0  0
  150.8974  141.4092  159.7642 H   0  0  0  0  0  0  0  0  0  0  0  0
  151.6225  141.0644  156.7833 H   0  0  0  0  0  0  0  0  0  0  0  0
  150.4232  140.1118  157.7364 H   0  0  0  0  0  0  0  0  0  0  0  0
  149.8154  142.6331  156.4522 H   0  0  0  0  0  0  0  0  0  0  0  0
  148.6883  141.8140  159.1412 H   0  0  0  0  0  0  0  0  0  0  0  0
  145.3424  141.6142  157.8075 H   0  0  0  0  0  0  0  0  0  0  0  0
  146.3409  140.6201  158.8558 H   0  0  0  0  0  0  0  0  0  0  0  0
  146.0172  144.5048  158.5356 H   0  0  0  0  0  0  0  0  0  0  0  0
  152.6719  143.4136  157.0804 H   0  0  0  0  0  0  0  0  0  0  0  0
  151.3722  144.5511  156.8205 H   0  0  0  0  0  0  0  0  0  0  0  0
  153.4821  144.6196  158.9303 H   0  0  0  0  0  0  0  0  0  0  0  0
  152.6213  145.9543  158.1730 H   0  0  0  0  0  0  0  0  0  0  0  0
  152.0270  144.5595  160.6753 H   0  0  0  0  0  0  0  0  0  0  0  0
  151.2023  145.9829  160.0505 H   0  0  0  0  0  0  0  0  0  0  0  0
  149.5778  144.6972  158.9423 H   0  0  0  0  0  0  0  0  0  0  0  0
  149.9216  143.5807  160.2481 H   0  0  0  0  0  0  0  0  0  0  0  0
  1  2  1  0  0  0  0
  1 21  1  0  0  0  0
  1 22  1  0  0  0  0
  1 23  1  0  0  0  0
  2  3  1  0  0  0  0
  2 24  1  0  0  0  0
  2 25  1  0  0  0  0
  3  4  1  0  0  0  0
  4 16  1  0  0  0  0
  4  5  1  0  0  0  0
  4 26  1  0  0  0  0
  5  6  1  0  0  0  0
  5 27  1  0  0  0  0
  5 28  1  0  0  0  0
  6  7  1  0  0  0  0
  6 16  1  0  0  0  0
  6 29  1  0  0  0  0
  7  8  1  0  0  0  0
  7 30  1  0  0  0  0
  8  9  2  0  0  0  0
  8 10  1  0  0  0  0
 10 11  1  0  0  0  0
 10 31  1  0  0  0  0
 10 32  1  0  0  0  0
 11 15  1  0  0  0  0
 11 12  1  0  0  0  0
 12 13  2  0  0  0  0
 12 33  1  0  0  0  0
 13 14  1  0  0  0  0
 14 15  2  0  0  0  0
 16 20  1  0  0  0  0
 16 17  1  0  0  0  0
 17 18  1  0  0  0  0
 17 34  1  0  0  0  0
 17 35  1  0  0  0  0
 18 19  1  0  0  0  0
 18 36  1  0  0  0  0
 18 37  1  0  0  0  0
 19 20  1  0  0  0  0
 19 38  1  0  0  0  0
 19 39  1  0  0  0  0
 20 40  1  0  0  0  0
 20 41  1  0  0  0  0
M  END
> <s_m_source_file>
AV-unprocessed.smi

> <i_m_source_file_index>
679

> <i_lp_mmshare_version>
43012

> <i_f3d_flags>
0

> <s_epik_input>
W0NIMl0xW0NIMl1bQ0gyXVtDSDJdQzEyW0NASF0oT1tDSDJdW0NIM10pW0NIMl1bQ0BIXTJbTkhdQyg9TylbQ0gyXW4zW2NIXW5ubjM=

> <s_epik_cmdline>
J2VwaWtfcHl0aG9uJywgJy1waCcsICc3LjAnLCAnLXRuJywgJzgnLCAnLW1hJywgJzIwMCcsICctbWV0YWxfYmluZGluZycsICctaW1hZScsICc8aW5maWxlLm1hZT4nLCAnLW9tYWUnLCAnPG91dGZpbGUubWFlPic=

> <r_lp_tautomer_probability>
1

> <r_epik_Ionization_Penalty>
7.96741e-07

> <r_epik_Ionization_Penalty_Charging>
0

> <r_epik_Ionization_Penalty_Neutral>
7.96741e-07

> <r_epik_State_Penalty>
-0

> <r_epik_Charging_Adjusted_Penalty>
0

> <i_epik_Tot_Q>
0

> <i_epik_Tot_abs_Q>
0

> <r_epik_Metal_State_Penalty>
-0

> <b_epik_Metal_Only>
0

> <s_lp_Force_Field>
OPLS_2005

> <r_lp_Energy>
39.8699

> <b_lp_Chiralities_Consistent>
1

> <s_lp_Variant>
AV-unprocessed.smi:679-1

> <Gold.Version>
5.8.1

> <Gold.Id.Protein>
6NUR|6NUR_protein|mol2

> <Gold.PLP.Fitness>
41.2063

> <Gold.PLP.PLP>
-36.0927

> <Gold.PLP.part.hbond>
-1.0000

> <Gold.PLP.part.metal>
0.0000

> <Gold.PLP.part.buried>
-6.5722

> <Gold.PLP.part.nonpolar>
-29.0820

> <Gold.PLP.part.repulsive>
1.1516

> <Gold.PLP.ligand.clash>
0.0000

> <Gold.PLP.ligand.torsion>
0.6189

> <Gold.PLP.Chemscore.Hbond>
1.0000

> <Gold.PLP.Chemscore.CHOScore>
1.0000

> <Gold.PLP.Chemscore.Metal>
0.0000

> <Gold.Chemscore.Hbonds>
donor molecule, donor type, donor heavy atom, donor atom, acceptor molecule, acceptor atom, score
      P1  H  6934  6946       L1    15  1.00
      L1  C    12    33       P1  8029  0.71

> <Gold.PLP.Chemscore.Internal.Correction>
0.3514

> <Gold.Rescore>
     Score         DG    S(hbond)    S(metal)    S(lipo)     H(rot)  DE(clash)    DE(int)     intcor
     12.98     -13.69       0.97        0.00      95.04       2.41       0.02       0.69       ----

> <Gold.Chemscore.Fitness>
12.9850

> <Gold.Chemscore.DG>
-13.6880

> <Gold.Chemscore.ZeroCoef>
-5.4800

> <Gold.Chemscore.Hbond>
0.9744

> <Gold.Chemscore.Metal>
0.0000

> <Gold.Chemscore.Lipo>
95.0445

> <Gold.Chemscore.Internal_Hbond>
0.0000

> <Gold.Chemscore.DEClash>
0.0178

> <Gold.Chemscore.DEInternal>
0.6853

> <Gold.Chemscore.Rot>
2.4089

> <Gold.Chemscore.Internal.Correction>
   9.000000E+99

> <Gold.Chemscore.Hbonds>
donor molecule, donor type, donor heavy atom, donor atom, acceptor molecule, acceptor atom, score
      P1  H  6934  6946       L1    15  0.29

> <Gold.Chemscore.Hbond.Weighted>
-3.2547

> <Gold.Chemscore.Metal.Weighted>
-0.0000

> <Gold.Chemscore.Lipo.Weighted>
-11.1202

> <Gold.Chemscore.Internal_Hbond.Weighted>
0.0000

> <Gold.Chemscore.DEClash.Weighted>
0.0178

> <Gold.Chemscore.DEInternal.Weighted>
0.6853

> <Gold.Chemscore.Rot.Weighted>
6.1668

> <Gold.Chemscore.Internal.Correction.Weighted>
   9.000000E+99

> <Gold.Protein.RotatedTorsions>
[ 6907 6896 6895 6894 ] final -132.18 input  -60.11 | X-H torsion
[ 7974 7965 7964 7962 ] final -127.90 input  175.53 | X-H torsion
[ 8008 7997 7996 7995 ] final   -9.82 input   59.86 | X-H torsion
[ 10167 10162 10161 10158 ] final -159.63 input  -65.29 | X-H torsion
[ 10718 10713 10712 10709 ] final  163.96 input   66.30 | X-H torsion
[ 10763 10752 10751 10750 ] final -108.17 input  -60.55 | X-H torsion
[ 11005 11000 10999 10996 ] final   55.21 input  -57.11 | X-H torsion

> <Gold.Protein.ActiveResidues>
 VAL166  LYS551  ARG553  GLY616  TRP617  ASP618  TYR619  PRO620  LYS621  CYS622 
 ASP623  PHE694  ASN695  SER759  ASP760  ASP761  ALA762  ILE779  LEU786  VAL792 
 PHE793  MET794  SER795  GLU796  ALA797  LYS798  CYS799  TRP800  GLU811  SER814 

> <Gold.Protein.RotatedAtoms>
  150.9594  133.6462  159.2756 H   0  0  0  0  0  0  0  0  0  0  0  0  # atno 6907 bound_to 6896
  151.3789  135.0935  159.9499 H   0  0  0  0  0  0  0  0  0  0  0  0  # atno 6908 bound_to 6896
  152.5142  133.9133  159.7553 H   0  0  0  0  0  0  0  0  0  0  0  0  # atno 6909 bound_to 6896
  144.9724  140.7559  143.4662 H   0  0  0  0  0  0  0  0  0  0  0  0  # atno 7974 bound_to 7965
  154.5612  140.2345  155.8333 H   0  0  0  0  0  0  0  0  0  0  0  0  # atno 8008 bound_to 7997
  156.2030  140.3047  155.9527 H   0  0  0  0  0  0  0  0  0  0  0  0  # atno 8009 bound_to 7997
  155.2886  140.0425  157.3012 H   0  0  0  0  0  0  0  0  0  0  0  0  # atno 8010 bound_to 7997
  139.6601  143.9929  152.2219 H   0  0  0  0  0  0  0  0  0  0  0  0  # atno 10167 bound_to 10162
  157.1011  131.0443  151.2497 H   0  0  0  0  0  0  0  0  0  0  0  0  # atno 10718 bound_to 10713
  154.8119  135.4648  154.0540 H   0  0  0  0  0  0  0  0  0  0  0  0  # atno 10763 bound_to 10752
  153.1964  135.6862  153.8293 H   0  0  0  0  0  0  0  0  0  0  0  0  # atno 10764 bound_to 10752
  153.7794  135.3259  155.3341 H   0  0  0  0  0  0  0  0  0  0  0  0  # atno 10765 bound_to 10752
  140.0625  134.5583  155.9136 H   0  0  0  0  0  0  0  0  0  0  0  0  # atno 11005 bound_to 11000
  145.2539  139.2020  143.4928 LP  0  0  0  0  0  0  0  0  0  0  0  0  # atno 17320 bound_to 7965
  146.3386  140.2457  142.8597 LP  0  0  0  0  0  0  0  0  0  0  0  0  # atno 17321 bound_to 7965
  139.9665  144.6522  150.8029 LP  0  0  0  0  0  0  0  0  0  0  0  0  # atno 17342 bound_to 10162
  140.7576  143.3090  151.2892 LP  0  0  0  0  0  0  0  0  0  0  0  0  # atno 17343 bound_to 10162
  157.4640  130.7670  149.7262 LP  0  0  0  0  0  0  0  0  0  0  0  0  # atno 17370 bound_to 10713
  155.9873  130.3967  150.3169 LP  0  0  0  0  0  0  0  0  0  0  0  0  # atno 17371 bound_to 10713
  141.1979  133.6598  156.5765 LP  0  0  0  0  0  0  0  0  0  0  0  0  # atno 17394 bound_to 11000
  140.3749  134.7574  157.4623 LP  0  0  0  0  0  0  0  0  0  0  0  0  # atno 17395 bound_to 11000

$$$$
