AV-unprocessed.smi:3029|AV-procd|sdf|11526|dock9
  -GOLD-   2272016473D 1   1.00000     0.00000
 Structure written by MMmdl.
 42 43  0  0  0  0  0  0  0  0  4 V2000
  146.7582  139.2902  156.2010 O   0  0  0  0  0  0  0  0  0  0  0  0
  147.9252  139.1446  155.8373 C   0  0  0  0  0  0  0  0  0  0  0  0
  148.9448  140.1761  156.0547 C   0  0  0  0  0  0  0  0  0  0  0  0
  150.2250  139.9977  155.6729 C   0  0  0  0  0  0  0  0  0  0  0  0
  150.6355  138.7645  155.0296 C   0  0  0  0  0  0  0  0  0  0  0  0
  152.0096  138.5554  154.6298 N   0  3  0  0  0  0  0  0  0  0  0  0
  152.3370  137.4634  154.1750 O   0  0  0  0  0  0  0  0  0  0  0  0
  152.8070  139.4784  154.7593 O   0  5  0  0  0  0  0  0  0  0  0  0
  149.6943  137.8226  154.8224 C   0  0  0  0  0  0  0  0  0  0  0  0
  148.3532  138.0082  155.2089 N   0  0  0  0  0  0  0  0  0  0  0  0
  147.4193  136.9098  154.9270 C   0  0  0  0  0  0  0  0  0  0  0  0
  146.4796  137.2556  153.7609 C   0  0  0  0  0  0  0  0  0  0  0  0
  145.7237  136.0626  153.3274 N   0  3  0  0  0  0  0  0  0  0  0  0
  144.8833  136.2418  152.1188 C   0  0  1  0  0  0  0  0  0  0  0  0
  145.6345  135.8096  150.8392 C   0  0  0  0  0  0  0  0  0  0  0  0
  145.8619  134.2890  150.7883 C   0  0  0  0  0  0  0  0  0  0  0  0
  144.5375  133.5236  150.9254 C   0  0  0  0  0  0  0  0  0  0  0  0
  143.7736  133.9414  152.1922 C   0  0  0  0  0  0  0  0  0  0  0  0
  143.5426  135.4684  152.2390 C   0  0  1  0  0  0  0  0  0  0  0  0
  142.6763  135.9022  153.4441 C   0  0  0  0  0  0  0  0  0  0  0  0
  143.3008  135.6812  154.6012 F   0  0  0  0  0  0  0  0  0  0  0  0
  142.3860  137.2000  153.3526 F   0  0  0  0  0  0  0  0  0  0  0  0
  141.5317  135.2198  153.4436 F   0  0  0  0  0  0  0  0  0  0  0  0
  148.6605  141.1025  156.5321 H   0  0  0  0  0  0  0  0  0  0  0  0
  150.9406  140.7864  155.8537 H   0  0  0  0  0  0  0  0  0  0  0  0
  149.8990  136.8697  154.3556 H   0  0  0  0  0  0  0  0  0  0  0  0
  147.9677  135.9918  154.7071 H   0  0  0  0  0  0  0  0  0  0  0  0
  146.8312  136.6801  155.8172 H   0  0  0  0  0  0  0  0  0  0  0  0
  145.7796  138.0341  154.0677 H   0  0  0  0  0  0  0  0  0  0  0  0
  147.0552  137.6503  152.9239 H   0  0  0  0  0  0  0  0  0  0  0  0
  146.3660  135.2995  153.1670 H   0  0  0  0  0  0  0  0  0  0  0  0
  144.6494  137.3040  152.0348 H   0  0  0  0  0  0  0  0  0  0  0  0
  145.0493  136.1060  149.9676 H   0  0  0  0  0  0  0  0  0  0  0  0
  146.5856  136.3325  150.7430 H   0  0  0  0  0  0  0  0  0  0  0  0
  146.3487  134.0192  149.8505 H   0  0  0  0  0  0  0  0  0  0  0  0
  146.5444  133.9887  151.5843 H   0  0  0  0  0  0  0  0  0  0  0  0
  143.9170  133.7112  150.0484 H   0  0  0  0  0  0  0  0  0  0  0  0
  144.7279  132.4501  150.9429 H   0  0  0  0  0  0  0  0  0  0  0  0
  142.8182  133.4169  152.2216 H   0  0  0  0  0  0  0  0  0  0  0  0
  144.3244  133.6180  153.0761 H   0  0  0  0  0  0  0  0  0  0  0  0
  142.9622  135.7215  151.3498 H   0  0  0  0  0  0  0  0  0  0  0  0
  145.1101  135.8066  154.0881 H   0  0  0  0  0  0  0  0  0  0  0  0
  1  2  2  0  0  0  0
  2 10  1  0  0  0  0
  2  3  1  0  0  0  0
  3  4  2  0  0  0  0
  3 24  1  0  0  0  0
  4  5  1  0  0  0  0
  4 25  1  0  0  0  0
  5  6  1  0  0  0  0
  5  9  2  0  0  0  0
  6  7  2  0  0  0  0
  6  8  1  0  0  0  0
  9 10  1  0  0  0  0
  9 26  1  0  0  0  0
 10 11  1  0  0  0  0
 11 12  1  0  0  0  0
 11 27  1  0  0  0  0
 11 28  1  0  0  0  0
 12 13  1  0  0  0  0
 12 29  1  0  0  0  0
 12 30  1  0  0  0  0
 13 14  1  0  0  0  0
 13 31  1  0  0  0  0
 13 42  1  0  0  0  0
 14 19  1  0  0  0  0
 14 15  1  0  0  0  0
 14 32  1  0  0  0  0
 15 16  1  0  0  0  0
 15 33  1  0  0  0  0
 15 34  1  0  0  0  0
 16 17  1  0  0  0  0
 16 35  1  0  0  0  0
 16 36  1  0  0  0  0
 17 18  1  0  0  0  0
 17 37  1  0  0  0  0
 17 38  1  0  0  0  0
 18 19  1  0  0  0  0
 18 39  1  0  0  0  0
 18 40  1  0  0  0  0
 19 20  1  0  0  0  0
 19 41  1  0  0  0  0
 20 21  1  0  0  0  0
 20 22  1  0  0  0  0
 20 23  1  0  0  0  0
M  CHG  1   6   1
M  CHG  1   8  -1
M  CHG  1  13   1
M  END
> <s_m_source_file>
AV-unprocessed.smi

> <i_m_source_file_index>
3029

> <i_lp_mmshare_version>
43012

> <i_f3d_flags>
0

> <s_epik_input>
Tz1jMVtjSF1bY0hdYyhbTitdKD1PKVtPLV0pW2NIXW4xW0NIMl1bQ0gyXVtOSF1bQ0BASF0yW0NIMl1bQ0gyXVtDSDJdW0NIMl1bQ0BIXTJDKEYpKEYpRg==

> <s_epik_cmdline>
J2VwaWtfcHl0aG9uJywgJy1waCcsICc3LjAnLCAnLXRuJywgJzgnLCAnLW1hJywgJzIwMCcsICctbWV0YWxfYmluZGluZycsICctaW1hZScsICc8aW5maWxlLm1hZT4nLCAnLW9tYWUnLCAnPG91dGZpbGUubWFlPic=

> <r_lp_tautomer_probability>
1

> <r_epik_Ionization_Penalty>
0.037386

> <r_epik_Ionization_Penalty_Charging>
0.037386

> <r_epik_Ionization_Penalty_Neutral>
0

> <r_epik_State_Penalty>
0.0312892

> <r_epik_Charging_Adjusted_Penalty>
0.0686752

> <i_epik_Tot_Q>
1

> <i_epik_Tot_abs_Q>
3

> <r_epik_Metal_State_Penalty>
0.0312892

> <b_epik_Metal_Only>
0

> <s_lp_Force_Field>
OPLS_2005

> <r_lp_Energy>
34.3569

> <b_lp_Chiralities_Consistent>
1

> <s_lp_Variant>
AV-unprocessed.smi:3029-2

> <Gold.Version>
5.8.1

> <Gold.Id.Protein>
6NUR|6NUR_protein|mol2

> <Gold.PLP.Fitness>
41.0421

> <Gold.PLP.PLP>
-35.2876

> <Gold.PLP.part.hbond>
-2.5984

> <Gold.PLP.part.metal>
0.0000

> <Gold.PLP.part.buried>
-6.7803

> <Gold.PLP.part.nonpolar>
-25.7787

> <Gold.PLP.part.repulsive>
0.1836

> <Gold.PLP.ligand.clash>
0.0000

> <Gold.PLP.ligand.torsion>
0.7345

> <Gold.PLP.Chemscore.Hbond>
1.8155

> <Gold.PLP.Chemscore.CHOScore>
0.5546

> <Gold.PLP.Chemscore.Metal>
0.0000

> <Gold.Chemscore.Hbonds>
donor molecule, donor type, donor heavy atom, donor atom, acceptor molecule, acceptor atom, score
      P1  H  7989  7998       L1     8  0.24
      P1  H  7997  8010       L1     8  0.76
      P1  H 10752 10765       L1     7  0.77
      L1  C     9    26       P1  7948  0.47

> <Gold.PLP.Chemscore.Internal.Correction>
0.1133

> <Gold.Rescore>
     Score         DG    S(hbond)    S(metal)    S(lipo)     H(rot)  DE(clash)    DE(int)     intcor
     11.62     -13.68       1.78        0.00      60.85       1.90       0.03       2.03       ----

> <Gold.Chemscore.Fitness>
11.6192

> <Gold.Chemscore.DG>
-13.6818

> <Gold.Chemscore.ZeroCoef>
-5.4800

> <Gold.Chemscore.Hbond>
1.7833

> <Gold.Chemscore.Metal>
0.0000

> <Gold.Chemscore.Lipo>
60.8464

> <Gold.Chemscore.Internal_Hbond>
0.0000

> <Gold.Chemscore.DEClash>
0.0281

> <Gold.Chemscore.DEInternal>
2.0344

> <Gold.Chemscore.Rot>
1.9037

> <Gold.Chemscore.Internal.Correction>
   9.000000E+99

> <Gold.Chemscore.Hbonds>
donor molecule, donor type, donor heavy atom, donor atom, acceptor molecule, acceptor atom, score
      P1  H  7989  7998       L1     8  0.03
      P1  H  7997  8010       L1     8  0.77
      P1  H 10752 10765       L1     7  0.76

> <Gold.Chemscore.Hbond.Weighted>
-5.9563

> <Gold.Chemscore.Metal.Weighted>
-0.0000

> <Gold.Chemscore.Lipo.Weighted>
-7.1190

> <Gold.Chemscore.Internal_Hbond.Weighted>
0.0000

> <Gold.Chemscore.DEClash.Weighted>
0.0281

> <Gold.Chemscore.DEInternal.Weighted>
2.0344

> <Gold.Chemscore.Rot.Weighted>
4.8736

> <Gold.Chemscore.Internal.Correction.Weighted>
   9.000000E+99

> <Gold.Protein.RotatedTorsions>
[ 6907 6896 6895 6894 ] final   60.95 input  -60.11 | X-H torsion
[ 7974 7965 7964 7962 ] final  -97.08 input  175.53 | X-H torsion
[ 8008 7997 7996 7995 ] final  101.62 input   59.86 | X-H torsion
[ 10167 10162 10161 10158 ] final  150.71 input  -65.29 | X-H torsion
[ 10718 10713 10712 10709 ] final   94.39 input   66.30 | X-H torsion
[ 10763 10752 10751 10750 ] final  147.52 input  -60.55 | X-H torsion
[ 11005 11000 10999 10996 ] final -127.35 input  -57.11 | X-H torsion

> <Gold.Protein.ActiveResidues>
 VAL166  LYS551  ARG553  GLY616  TRP617  ASP618  TYR619  PRO620  LYS621  CYS622 
 ASP623  PHE694  ASN695  SER759  ASP760  ASP761  ALA762  ILE779  LEU786  VAL792 
 PHE793  MET794  SER795  GLU796  ALA797  LYS798  CYS799  TRP800  GLU811  SER814 

> <Gold.Protein.RotatedAtoms>
  152.4047  134.6227  160.0054 H   0  0  0  0  0  0  0  0  0  0  0  0  # atno 6907 bound_to 6896
  151.6422  133.3320  159.3141 H   0  0  0  0  0  0  0  0  0  0  0  0  # atno 6908 bound_to 6896
  150.7943  134.7033  159.6607 H   0  0  0  0  0  0  0  0  0  0  0  0  # atno 6909 bound_to 6896
  145.3385  140.9455  143.2621 H   0  0  0  0  0  0  0  0  0  0  0  0  # atno 7974 bound_to 7965
  156.1317  140.3194  155.8358 H   0  0  0  0  0  0  0  0  0  0  0  0  # atno 8008 bound_to 7997
  155.4320  140.0519  157.3035 H   0  0  0  0  0  0  0  0  0  0  0  0  # atno 8009 bound_to 7997
  154.4904  140.2090  155.9574 H   0  0  0  0  0  0  0  0  0  0  0  0  # atno 8010 bound_to 7997
  139.4847  144.5500  151.7418 H   0  0  0  0  0  0  0  0  0  0  0  0  # atno 10167 bound_to 10162
  157.6948  131.0511  150.4180 H   0  0  0  0  0  0  0  0  0  0  0  0  # atno 10718 bound_to 10713
  154.0396  135.2890  155.3357 H   0  0  0  0  0  0  0  0  0  0  0  0  # atno 10763 bound_to 10752
  154.6937  135.5216  153.8431 H   0  0  0  0  0  0  0  0  0  0  0  0  # atno 10764 bound_to 10752
  153.0605  135.6612  154.0602 H   0  0  0  0  0  0  0  0  0  0  0  0  # atno 10765 bound_to 10752
  140.9606  134.0941  157.3972 H   0  0  0  0  0  0  0  0  0  0  0  0  # atno 11005 bound_to 11000
  144.8809  139.4906  143.6723 LP  0  0  0  0  0  0  0  0  0  0  0  0  # atno 17320 bound_to 7965
  146.3017  139.7448  142.9086 LP  0  0  0  0  0  0  0  0  0  0  0  0  # atno 17321 bound_to 7965
  140.5052  144.1109  150.5981 LP  0  0  0  0  0  0  0  0  0  0  0  0  # atno 17342 bound_to 10162
  140.4015  143.2701  151.9941 LP  0  0  0  0  0  0  0  0  0  0  0  0  # atno 17343 bound_to 10162
  156.4557  130.4021  149.6607 LP  0  0  0  0  0  0  0  0  0  0  0  0  # atno 17370 bound_to 10713
  156.3741  130.7545  151.2531 LP  0  0  0  0  0  0  0  0  0  0  0  0  # atno 17371 bound_to 10713
  139.8877  135.0092  156.6575 LP  0  0  0  0  0  0  0  0  0  0  0  0  # atno 17394 bound_to 11000
  140.7472  133.8927  155.8321 LP  0  0  0  0  0  0  0  0  0  0  0  0  # atno 17395 bound_to 11000

$$$$
