AV-unprocessed.smi:1205|AV-procd|sdf|5045|dock10
  -GOLD-   22720 4 73D 1   1.00000     0.00000
 Structure written by MMmdl.
 49 50  0  0  0  0  0  0  0  0  2 V2000
  153.5123  141.7154  160.9862 C   0  0  0  0  0  0  0  0  0  0  0  0
  152.6420  142.3717  159.9550 C   0  0  0  0  0  0  0  0  0  0  0  0
  152.0392  141.7778  158.8082 C   0  0  0  0  0  0  0  0  0  0  0  0
  151.3687  142.8278  158.2428 C   0  0  0  0  0  0  0  0  0  0  0  0
  150.6022  142.8476  157.1200 N   0  0  0  0  0  0  0  0  0  0  0  0
  150.3390  141.8440  156.2651 C   0  0  0  0  0  0  0  0  0  0  0  0
  150.7650  140.6925  156.3583 O   0  0  0  0  0  0  0  0  0  0  0  0
  149.5441  142.2537  155.2664 N   0  0  0  0  0  0  0  0  0  0  0  0
  149.0797  141.4090  154.1705 C   0  0  0  0  0  0  0  0  0  0  0  0
  147.5875  141.0137  154.3166 C   0  0  2  0  0  0  0  0  0  0  0  0
  147.0633  140.2190  153.1051 C   0  0  0  0  0  0  0  0  0  0  0  0
  146.6976  142.1753  154.6097 N   0  3  2  0  0  0  0  0  0  0  0  0
  145.4901  141.8652  155.4228 C   0  0  0  0  0  0  0  0  0  0  0  0
  144.7876  143.1583  155.8650 C   0  0  0  0  0  0  0  0  0  0  0  0
  144.4222  144.0240  154.6520 C   0  0  0  0  0  0  0  0  0  0  0  0
  145.6712  144.3050  153.7986 C   0  0  2  0  0  0  0  0  0  0  0  0
  145.3282  145.1493  152.5634 C   0  0  0  0  0  0  0  0  0  0  0  0
  146.3592  142.9816  153.4061 C   0  0  0  0  0  0  0  0  0  0  0  0
  151.5698  143.9514  159.0137 N   0  0  0  0  0  0  0  0  0  0  0  0
  151.0640  145.2981  158.8314 C   0  0  0  0  0  0  0  0  0  0  0  0
  152.3585  143.6642  160.0716 N   0  0  0  0  0  0  0  0  0  0  0  0
  153.6725  140.6624  160.7542 H   0  0  0  0  0  0  0  0  0  0  0  0
  153.0583  141.7716  161.9758 H   0  0  0  0  0  0  0  0  0  0  0  0
  154.4896  142.1955  161.0387 H   0  0  0  0  0  0  0  0  0  0  0  0
  152.0994  140.7519  158.4777 H   0  0  0  0  0  0  0  0  0  0  0  0
  150.1893  143.7416  156.8989 H   0  0  0  0  0  0  0  0  0  0  0  0
  149.2365  143.2156  155.2650 H   0  0  0  0  0  0  0  0  0  0  0  0
  149.2598  141.9208  153.2241 H   0  0  0  0  0  0  0  0  0  0  0  0
  149.7113  140.5210  154.1661 H   0  0  0  0  0  0  0  0  0  0  0  0
  147.5007  140.3375  155.1683 H   0  0  0  0  0  0  0  0  0  0  0  0
  147.5954  139.2743  152.9916 H   0  0  0  0  0  0  0  0  0  0  0  0
  147.1806  140.7703  152.1724 H   0  0  0  0  0  0  0  0  0  0  0  0
  146.0060  139.9789  153.2214 H   0  0  0  0  0  0  0  0  0  0  0  0
  144.7950  141.2548  154.8450 H   0  0  0  0  0  0  0  0  0  0  0  0
  145.7619  141.2894  156.3067 H   0  0  0  0  0  0  0  0  0  0  0  0
  143.8895  142.9182  156.4347 H   0  0  0  0  0  0  0  0  0  0  0  0
  145.4392  143.7203  156.5354 H   0  0  0  0  0  0  0  0  0  0  0  0
  143.6684  143.5126  154.0516 H   0  0  0  0  0  0  0  0  0  0  0  0
  143.9723  144.9597  154.9860 H   0  0  0  0  0  0  0  0  0  0  0  0
  146.3716  144.8815  154.4049 H   0  0  0  0  0  0  0  0  0  0  0  0
  144.6228  144.6321  151.9122 H   0  0  0  0  0  0  0  0  0  0  0  0
  146.2211  145.3704  151.9779 H   0  0  0  0  0  0  0  0  0  0  0  0
  144.8799  146.1008  152.8510 H   0  0  0  0  0  0  0  0  0  0  0  0
  147.2681  143.2042  152.8456 H   0  0  0  0  0  0  0  0  0  0  0  0
  145.7122  142.4050  152.7436 H   0  0  0  0  0  0  0  0  0  0  0  0
  151.2066  145.6091  157.7963 H   0  0  0  0  0  0  0  0  0  0  0  0
  151.5910  145.9964  159.4830 H   0  0  0  0  0  0  0  0  0  0  0  0
  150.0004  145.3240  159.0696 H   0  0  0  0  0  0  0  0  0  0  0  0
  147.2595  142.7901  155.1811 H   0  0  0  0  0  0  0  0  0  0  0  0
  1  2  1  0  0  0  0
  1 22  1  0  0  0  0
  1 23  1  0  0  0  0
  1 24  1  0  0  0  0
  2 21  2  0  0  0  0
  2  3  1  0  0  0  0
  3  4  2  0  0  0  0
  3 25  1  0  0  0  0
  4  5  1  0  0  0  0
  4 19  1  0  0  0  0
  5  6  1  0  0  0  0
  5 26  1  0  0  0  0
  6  7  2  0  0  0  0
  6  8  1  0  0  0  0
  8  9  1  0  0  0  0
  8 27  1  0  0  0  0
  9 10  1  0  0  0  0
  9 28  1  0  0  0  0
  9 29  1  0  0  0  0
 10 11  1  0  0  0  0
 10 12  1  0  0  0  0
 10 30  1  0  0  0  0
 11 31  1  0  0  0  0
 11 32  1  0  0  0  0
 11 33  1  0  0  0  0
 12 18  1  0  0  0  0
 12 13  1  0  0  0  0
 12 49  1  0  0  0  0
 13 14  1  0  0  0  0
 13 34  1  0  0  0  0
 13 35  1  0  0  0  0
 14 15  1  0  0  0  0
 14 36  1  0  0  0  0
 14 37  1  0  0  0  0
 15 16  1  0  0  0  0
 15 38  1  0  0  0  0
 15 39  1  0  0  0  0
 16 17  1  0  0  0  0
 16 18  1  0  0  0  0
 16 40  1  0  0  0  0
 17 41  1  0  0  0  0
 17 42  1  0  0  0  0
 17 43  1  0  0  0  0
 18 44  1  0  0  0  0
 18 45  1  0  0  0  0
 19 20  1  0  0  0  0
 19 21  1  0  0  0  0
 20 46  1  0  0  0  0
 20 47  1  0  0  0  0
 20 48  1  0  0  0  0
M  CHG  1  12   1
M  END
> <s_m_source_file>
AV-unprocessed.smi

> <i_m_source_file_index>
1205

> <i_lp_mmshare_version>
43012

> <i_f3d_flags>
0

> <s_epik_input>
W0NIM11jMVtjSF1jKG4objEpW0NIM10pW05IXUMoPU8pW05IXVtDSDJdW0NASF0oW0NIM10pTjJbQ0gyXVtDSDJdW0NIMl1bQ0BASF0oW0NIM10pW0NIMl0y

> <s_epik_cmdline>
J2VwaWtfcHl0aG9uJywgJy1waCcsICc3LjAnLCAnLXRuJywgJzgnLCAnLW1hJywgJzIwMCcsICctbWV0YWxfYmluZGluZycsICctaW1hZScsICc8aW5maWxlLm1hZT4nLCAnLW9tYWUnLCAnPG91dGZpbGUubWFlPic=

> <r_lp_tautomer_probability>
1

> <r_epik_Ionization_Penalty>
0.0020309

> <r_epik_Ionization_Penalty_Charging>
0.00195276

> <r_epik_Ionization_Penalty_Neutral>
7.81448e-05

> <r_epik_State_Penalty>
0.00133177

> <r_epik_Charging_Adjusted_Penalty>
0.00328452

> <i_epik_Tot_Q>
1

> <i_epik_Tot_abs_Q>
1

> <r_epik_Metal_State_Penalty>
-0

> <b_epik_Metal_Only>
0

> <s_lp_Force_Field>
OPLS_2005

> <r_lp_Energy>
21.6269

> <b_lp_Chiralities_Consistent>
1

> <s_lp_Variant>
AV-unprocessed.smi:1205-7

> <Gold.Version>
5.8.1

> <Gold.Id.Protein>
6NUR|6NUR_protein|mol2

> <Gold.PLP.Fitness>
51.7209

> <Gold.PLP.PLP>
-46.9427

> <Gold.PLP.part.hbond>
-2.0000

> <Gold.PLP.part.metal>
0.0000

> <Gold.PLP.part.buried>
-6.6316

> <Gold.PLP.part.nonpolar>
-38.0338

> <Gold.PLP.part.repulsive>
0.3140

> <Gold.PLP.ligand.clash>
0.0000

> <Gold.PLP.ligand.torsion>
0.5584

> <Gold.PLP.Chemscore.Hbond>
1.9280

> <Gold.PLP.Chemscore.CHOScore>
0.0000

> <Gold.PLP.Chemscore.Metal>
0.0000

> <Gold.Chemscore.Hbonds>
donor molecule, donor type, donor heavy atom, donor atom, acceptor molecule, acceptor atom, score
      L1  H     5    26       P1  8028  0.90
      L1  H     8    27       P1  8028  1.00

> <Gold.PLP.Chemscore.Internal.Correction>
0.1109

> <Gold.Rescore>
     Score         DG    S(hbond)    S(metal)    S(lipo)     H(rot)  DE(clash)    DE(int)     intcor
     17.93     -19.98       1.97        0.00      99.78       1.47       0.30       1.75       ----

> <Gold.Chemscore.Fitness>
17.9317

> <Gold.Chemscore.DG>
-19.9825

> <Gold.Chemscore.ZeroCoef>
-5.4800

> <Gold.Chemscore.Hbond>
1.9705

> <Gold.Chemscore.Metal>
0.0000

> <Gold.Chemscore.Lipo>
99.7756

> <Gold.Chemscore.Internal_Hbond>
0.0000

> <Gold.Chemscore.DEClash>
0.2986

> <Gold.Chemscore.DEInternal>
1.7522

> <Gold.Chemscore.Rot>
1.4658

> <Gold.Chemscore.Internal.Correction>
   9.000000E+99

> <Gold.Chemscore.Hbonds>
donor molecule, donor type, donor heavy atom, donor atom, acceptor molecule, acceptor atom, score
      L1  H     5    26       P1  8028  0.83
      L1  H     8    27       P1  8028  0.98

> <Gold.Chemscore.Hbond.Weighted>
-6.5813

> <Gold.Chemscore.Metal.Weighted>
-0.0000

> <Gold.Chemscore.Lipo.Weighted>
-11.6738

> <Gold.Chemscore.Internal_Hbond.Weighted>
0.0000

> <Gold.Chemscore.DEClash.Weighted>
0.2986

> <Gold.Chemscore.DEInternal.Weighted>
1.7522

> <Gold.Chemscore.Rot.Weighted>
3.7526

> <Gold.Chemscore.Internal.Correction.Weighted>
   9.000000E+99

> <Gold.Protein.RotatedTorsions>
[ 6907 6896 6895 6894 ] final -139.67 input  -60.11 | X-H torsion
[ 7974 7965 7964 7962 ] final  -76.48 input  175.53 | X-H torsion
[ 8008 7997 7996 7995 ] final   99.37 input   59.86 | X-H torsion
[ 10167 10162 10161 10158 ] final  -91.38 input  -65.29 | X-H torsion
[ 10718 10713 10712 10709 ] final   50.37 input   66.30 | X-H torsion
[ 10763 10752 10751 10750 ] final -118.86 input  -60.55 | X-H torsion
[ 11005 11000 10999 10996 ] final -150.91 input  -57.11 | X-H torsion

> <Gold.Protein.ActiveResidues>
 VAL166  LYS551  ARG553  GLY616  TRP617  ASP618  TYR619  PRO620  LYS621  CYS622 
 ASP623  PHE694  ASN695  SER759  ASP760  ASP761  ALA762  ILE779  LEU786  VAL792 
 PHE793  MET794  SER795  GLU796  ALA797  LYS798  CYS799  TRP800  GLU811  SER814 

> <Gold.Protein.RotatedAtoms>
  151.0508  133.5625  159.2642 H   0  0  0  0  0  0  0  0  0  0  0  0  # atno 6907 bound_to 6896
  151.2637  135.0661  159.9118 H   0  0  0  0  0  0  0  0  0  0  0  0  # atno 6908 bound_to 6896
  152.5381  134.0250  159.8053 H   0  0  0  0  0  0  0  0  0  0  0  0  # atno 6909 bound_to 6896
  145.6122  140.9384  143.1183 H   0  0  0  0  0  0  0  0  0  0  0  0  # atno 7974 bound_to 7965
  156.1098  140.3229  155.8057 H   0  0  0  0  0  0  0  0  0  0  0  0  # atno 8008 bound_to 7997
  155.4692  140.0545  157.2999 H   0  0  0  0  0  0  0  0  0  0  0  0  # atno 8009 bound_to 7997
  154.4752  140.2029  155.9910 H   0  0  0  0  0  0  0  0  0  0  0  0  # atno 8010 bound_to 7997
  140.3455  143.2919  151.9787 H   0  0  0  0  0  0  0  0  0  0  0  0  # atno 10167 bound_to 10162
  157.4877  130.8356  149.8166 H   0  0  0  0  0  0  0  0  0  0  0  0  # atno 10718 bound_to 10713
  154.8600  135.4259  154.2206 H   0  0  0  0  0  0  0  0  0  0  0  0  # atno 10763 bound_to 10752
  153.3212  135.6982  153.7035 H   0  0  0  0  0  0  0  0  0  0  0  0  # atno 10764 bound_to 10752
  153.6089  135.3523  155.2945 H   0  0  0  0  0  0  0  0  0  0  0  0  # atno 10765 bound_to 10752
  140.7352  134.3576  157.5159 H   0  0  0  0  0  0  0  0  0  0  0  0  # atno 11005 bound_to 11000
  144.7265  139.7860  143.7363 LP  0  0  0  0  0  0  0  0  0  0  0  0  # atno 17320 bound_to 7965
  146.1495  139.4574  143.0057 LP  0  0  0  0  0  0  0  0  0  0  0  0  # atno 17321 bound_to 7965
  139.4834  144.6121  151.7415 LP  0  0  0  0  0  0  0  0  0  0  0  0  # atno 17342 bound_to 10162
  140.5269  144.0792  150.6040 LP  0  0  0  0  0  0  0  0  0  0  0  0  # atno 17343 bound_to 10162
  156.0156  130.3815  150.2122 LP  0  0  0  0  0  0  0  0  0  0  0  0  # atno 17370 bound_to 10713
  157.0309  131.0007  151.3312 LP  0  0  0  0  0  0  0  0  0  0  0  0  # atno 17371 bound_to 10713
  139.8817  134.9045  156.2878 LP  0  0  0  0  0  0  0  0  0  0  0  0  # atno 17394 bound_to 11000
  140.9885  133.7223  156.0779 LP  0  0  0  0  0  0  0  0  0  0  0  0  # atno 17395 bound_to 11000

$$$$
