AV-unprocessed.smi:1294|AV-procd|sdf|5400|dock8
  -GOLD-   22720 4563D 1   1.00000     0.00000
 Structure written by MMmdl.
 45 46  0  0  0  0  0  0  0  0  1 V2000
  152.8165  138.7954  155.0843 C   0  0  0  0  0  0  0  0  0  0  0  0
  151.3559  139.0013  154.8009 C   0  0  0  0  0  0  0  0  0  0  0  0
  150.8831  140.2315  154.6868 N   0  0  0  0  0  0  0  0  0  0  0  0
  149.5686  140.0727  154.4330 N   0  0  0  0  0  0  0  0  0  0  0  0
  148.7342  141.2433  154.2435 C   0  0  0  0  0  0  0  0  0  0  0  0
  149.2103  138.7394  154.3879 C   0  0  0  0  0  0  0  0  0  0  0  0
  147.8078  138.2995  154.1173 C   0  0  0  0  0  0  0  0  0  0  0  0
  150.3452  138.0110  154.6258 C   0  0  0  0  0  0  0  0  0  0  0  0
  150.5093  136.5132  154.6876 C   0  0  0  0  0  0  0  0  0  0  0  0
  149.5765  135.9273  155.7496 C   0  0  0  0  0  0  0  0  0  0  0  0
  148.8363  134.9844  155.4683 O   0  0  0  0  0  0  0  0  0  0  0  0
  149.6209  136.4985  156.9635 N   0  0  0  0  0  0  0  0  0  0  0  0
  148.8108  136.1149  158.1156 C   0  0  0  0  0  0  0  0  0  0  0  0
  147.9231  137.2703  158.6057 C   0  0  0  0  0  0  0  0  0  0  0  0
  146.4164  136.6887  159.4368 S   0  0  0  0  0  0  0  0  0  0  0  0
  147.1351  135.6007  160.6999 C   0  0  0  0  0  0  0  0  0  0  0  0
  146.2001  134.4539  161.0806 C   0  0  0  0  0  0  0  0  0  0  0  0
  146.7125  133.9790  162.4424 C   0  0  0  0  0  0  0  0  0  0  0  0
  147.3826  135.1989  163.0934 C   0  0  0  0  0  0  0  0  0  0  0  0
  147.3938  136.3082  162.0328 C   0  0  0  0  0  0  0  0  0  0  0  0
  153.2476  138.0683  154.3959 H   0  0  0  0  0  0  0  0  0  0  0  0
  152.9670  138.4232  156.0976 H   0  0  0  0  0  0  0  0  0  0  0  0
  153.3834  139.7215  154.9827 H   0  0  0  0  0  0  0  0  0  0  0  0
  147.8695  141.1899  154.9053 H   0  0  0  0  0  0  0  0  0  0  0  0
  148.3908  141.2828  153.2096 H   0  0  0  0  0  0  0  0  0  0  0  0
  149.2914  142.1542  154.4659 H   0  0  0  0  0  0  0  0  0  0  0  0
  147.7544  137.2222  153.9613 H   0  0  0  0  0  0  0  0  0  0  0  0
  147.4138  138.7832  153.2234 H   0  0  0  0  0  0  0  0  0  0  0  0
  147.1563  138.5502  154.9544 H   0  0  0  0  0  0  0  0  0  0  0  0
  150.2725  136.0472  153.7308 H   0  0  0  0  0  0  0  0  0  0  0  0
  151.5431  136.2409  154.9054 H   0  0  0  0  0  0  0  0  0  0  0  0
  150.2640  137.2653  157.0978 H   0  0  0  0  0  0  0  0  0  0  0  0
  148.1756  135.2874  157.7995 H   0  0  0  0  0  0  0  0  0  0  0  0
  149.4256  135.7293  158.9307 H   0  0  0  0  0  0  0  0  0  0  0  0
  148.4811  137.9205  159.2804 H   0  0  0  0  0  0  0  0  0  0  0  0
  147.6252  137.8808  157.7534 H   0  0  0  0  0  0  0  0  0  0  0  0
  148.0692  135.1840  160.3204 H   0  0  0  0  0  0  0  0  0  0  0  0
  145.1792  134.8245  161.1866 H   0  0  0  0  0  0  0  0  0  0  0  0
  146.1881  133.6564  160.3369 H   0  0  0  0  0  0  0  0  0  0  0  0
  145.9102  133.5705  163.0573 H   0  0  0  0  0  0  0  0  0  0  0  0
  147.4511  133.1887  162.3018 H   0  0  0  0  0  0  0  0  0  0  0  0
  146.8454  135.5222  163.9858 H   0  0  0  0  0  0  0  0  0  0  0  0
  148.3992  134.9482  163.3988 H   0  0  0  0  0  0  0  0  0  0  0  0
  148.3291  136.8687  162.0327 H   0  0  0  0  0  0  0  0  0  0  0  0
  146.5879  137.0135  162.2414 H   0  0  0  0  0  0  0  0  0  0  0  0
  1  2  1  0  0  0  0
  1 21  1  0  0  0  0
  1 22  1  0  0  0  0
  1 23  1  0  0  0  0
  2  8  1  0  0  0  0
  2  3  2  0  0  0  0
  3  4  1  0  0  0  0
  4  5  1  0  0  0  0
  4  6  1  0  0  0  0
  5 24  1  0  0  0  0
  5 25  1  0  0  0  0
  5 26  1  0  0  0  0
  6  7  1  0  0  0  0
  6  8  2  0  0  0  0
  7 27  1  0  0  0  0
  7 28  1  0  0  0  0
  7 29  1  0  0  0  0
  8  9  1  0  0  0  0
  9 10  1  0  0  0  0
  9 30  1  0  0  0  0
  9 31  1  0  0  0  0
 10 11  2  0  0  0  0
 10 12  1  0  0  0  0
 12 13  1  0  0  0  0
 12 32  1  0  0  0  0
 13 14  1  0  0  0  0
 13 33  1  0  0  0  0
 13 34  1  0  0  0  0
 14 15  1  0  0  0  0
 14 35  1  0  0  0  0
 14 36  1  0  0  0  0
 15 16  1  0  0  0  0
 16 20  1  0  0  0  0
 16 17  1  0  0  0  0
 16 37  1  0  0  0  0
 17 18  1  0  0  0  0
 17 38  1  0  0  0  0
 17 39  1  0  0  0  0
 18 19  1  0  0  0  0
 18 40  1  0  0  0  0
 18 41  1  0  0  0  0
 19 20  1  0  0  0  0
 19 42  1  0  0  0  0
 19 43  1  0  0  0  0
 20 44  1  0  0  0  0
 20 45  1  0  0  0  0
M  END
> <s_m_source_file>
AV-unprocessed.smi

> <i_m_source_file_index>
1294

> <i_lp_mmshare_version>
43012

> <i_f3d_flags>
0

> <s_epik_input>
W0NIM11jMW5uKFtDSDNdKWMoW0NIM10pYzFbQ0gyXUMoPU8pW05IXVtDSDJdW0NIMl1TW0NIXTJbQ0gyXVtDSDJdW0NIMl1bQ0gyXTI=

> <s_epik_cmdline>
J2VwaWtfcHl0aG9uJywgJy1waCcsICc3LjAnLCAnLXRuJywgJzgnLCAnLW1hJywgJzIwMCcsICctbWV0YWxfYmluZGluZycsICctaW1hZScsICc8aW5maWxlLm1hZT4nLCAnLW9tYWUnLCAnPG91dGZpbGUubWFlPic=

> <r_lp_tautomer_probability>
1

> <r_epik_Ionization_Penalty>
0.00302432

> <r_epik_Ionization_Penalty_Charging>
0

> <r_epik_Ionization_Penalty_Neutral>
0.00302432

> <r_epik_State_Penalty>
0.0021246

> <r_epik_Charging_Adjusted_Penalty>
0.0021246

> <i_epik_Tot_Q>
0

> <i_epik_Tot_abs_Q>
0

> <r_epik_Metal_State_Penalty>
-0

> <b_epik_Metal_Only>
0

> <s_lp_Force_Field>
OPLS_2005

> <r_lp_Energy>
15.1488

> <b_lp_Chiralities_Consistent>
1

> <s_lp_Variant>
AV-unprocessed.smi:1294-1

> <Gold.Version>
5.8.1

> <Gold.Id.Protein>
6NUR|6NUR_protein|mol2

> <Gold.PLP.Fitness>
39.0145

> <Gold.PLP.PLP>
-37.2954

> <Gold.PLP.part.hbond>
-0.9317

> <Gold.PLP.part.metal>
0.0000

> <Gold.PLP.part.buried>
-2.4177

> <Gold.PLP.part.nonpolar>
-34.1610

> <Gold.PLP.part.repulsive>
0.1948

> <Gold.PLP.ligand.clash>
0.0000

> <Gold.PLP.ligand.torsion>
0.6500

> <Gold.PLP.Chemscore.Hbond>
0.9913

> <Gold.PLP.Chemscore.CHOScore>
0.0000

> <Gold.PLP.Chemscore.Metal>
0.0000

> <Gold.Chemscore.Hbonds>
donor molecule, donor type, donor heavy atom, donor atom, acceptor molecule, acceptor atom, score
      P1  H  7989  7998       L1     3  1.00

> <Gold.PLP.Chemscore.Internal.Correction>
0.0454

> <Gold.Rescore>
     Score         DG    S(hbond)    S(metal)    S(lipo)     H(rot)  DE(clash)    DE(int)     intcor
     14.89     -15.61       0.84        0.00      97.09       1.58       0.09       0.64       ----

> <Gold.Chemscore.Fitness>
14.8884

> <Gold.Chemscore.DG>
-15.6098

> <Gold.Chemscore.ZeroCoef>
-5.4800

> <Gold.Chemscore.Hbond>
0.8411

> <Gold.Chemscore.Metal>
0.0000

> <Gold.Chemscore.Lipo>
97.0883

> <Gold.Chemscore.Internal_Hbond>
0.0000

> <Gold.Chemscore.DEClash>
0.0853

> <Gold.Chemscore.DEInternal>
0.6361

> <Gold.Chemscore.Rot>
1.5776

> <Gold.Chemscore.Internal.Correction>
   9.000000E+99

> <Gold.Chemscore.Hbonds>
donor molecule, donor type, donor heavy atom, donor atom, acceptor molecule, acceptor atom, score
      P1  H  7989  7998       L1     3  0.43

> <Gold.Chemscore.Hbond.Weighted>
-2.8092

> <Gold.Chemscore.Metal.Weighted>
-0.0000

> <Gold.Chemscore.Lipo.Weighted>
-11.3593

> <Gold.Chemscore.Internal_Hbond.Weighted>
0.0000

> <Gold.Chemscore.DEClash.Weighted>
0.0853

> <Gold.Chemscore.DEInternal.Weighted>
0.6361

> <Gold.Chemscore.Rot.Weighted>
4.0387

> <Gold.Chemscore.Internal.Correction.Weighted>
   9.000000E+99

> <Gold.Protein.RotatedTorsions>
[ 6907 6896 6895 6894 ] final  -58.58 input  -60.11 | X-H torsion
[ 7974 7965 7964 7962 ] final   63.31 input  175.53 | X-H torsion
[ 8008 7997 7996 7995 ] final -111.53 input   59.86 | X-H torsion
[ 10167 10162 10161 10158 ] final  141.53 input  -65.29 | X-H torsion
[ 10718 10713 10712 10709 ] final   81.56 input   66.30 | X-H torsion
[ 10763 10752 10751 10750 ] final  -59.13 input  -60.55 | X-H torsion
[ 11005 11000 10999 10996 ] final   49.94 input  -57.11 | X-H torsion

> <Gold.Protein.ActiveResidues>
 VAL166  LYS551  ARG553  GLY616  TRP617  ASP618  TYR619  PRO620  LYS621  CYS622 
 ASP623  PHE694  ASN695  SER759  ASP760  ASP761  ALA762  ILE779  LEU786  VAL792 
 PHE793  MET794  SER795  GLU796  ALA797  LYS798  CYS799  TRP800  GLU811  SER814 

> <Gold.Protein.RotatedAtoms>
  150.7996  134.7080  159.6587 H   0  0  0  0  0  0  0  0  0  0  0  0  # atno 6907 bound_to 6896
  152.4111  134.6118  160.0037 H   0  0  0  0  0  0  0  0  0  0  0  0  # atno 6908 bound_to 6896
  151.6361  133.3292  159.3156 H   0  0  0  0  0  0  0  0  0  0  0  0  # atno 6909 bound_to 6896
  145.8633  139.3329  143.0806 H   0  0  0  0  0  0  0  0  0  0  0  0  # atno 7974 bound_to 7965
  154.9913  140.0395  157.2320 H   0  0  0  0  0  0  0  0  0  0  0  0  # atno 8008 bound_to 7997
  154.7626  140.2787  155.6179 H   0  0  0  0  0  0  0  0  0  0  0  0  # atno 8009 bound_to 7997
  156.2907  140.2625  156.2408 H   0  0  0  0  0  0  0  0  0  0  0  0  # atno 8010 bound_to 7997
  139.5018  144.6165  151.6151 H   0  0  0  0  0  0  0  0  0  0  0  0  # atno 10167 bound_to 10162
  157.6836  131.0009  150.2244 H   0  0  0  0  0  0  0  0  0  0  0  0  # atno 10718 bound_to 10713
  154.2489  135.6329  153.5233 H   0  0  0  0  0  0  0  0  0  0  0  0  # atno 10763 bound_to 10752
  152.9916  135.5560  154.5829 H   0  0  0  0  0  0  0  0  0  0  0  0  # atno 10764 bound_to 10752
  154.5352  135.2891  155.1119 H   0  0  0  0  0  0  0  0  0  0  0  0  # atno 10765 bound_to 10752
  140.1060  134.5018  155.8720 H   0  0  0  0  0  0  0  0  0  0  0  0  # atno 11005 bound_to 11000
  145.9223  140.9106  143.0399 LP  0  0  0  0  0  0  0  0  0  0  0  0  # atno 17320 bound_to 7965
  144.6726  140.1305  143.7444 LP  0  0  0  0  0  0  0  0  0  0  0  0  # atno 17321 bound_to 7965
  140.5855  143.9872  150.6293 LP  0  0  0  0  0  0  0  0  0  0  0  0  # atno 17342 bound_to 10162
  140.3035  143.3245  152.0949 LP  0  0  0  0  0  0  0  0  0  0  0  0  # atno 17343 bound_to 10162
  156.2889  130.3743  149.7861 LP  0  0  0  0  0  0  0  0  0  0  0  0  # atno 17370 bound_to 10713
  156.5526  130.8348  151.3304 LP  0  0  0  0  0  0  0  0  0  0  0  0  # atno 17371 bound_to 10713
  141.2118  133.6711  156.6611 LP  0  0  0  0  0  0  0  0  0  0  0  0  # atno 17394 bound_to 11000
  140.3156  134.8050  157.4211 LP  0  0  0  0  0  0  0  0  0  0  0  0  # atno 17395 bound_to 11000

$$$$
