AV-unprocessed.smi:176|AV-procd|sdf|1435|dock3
  -GOLD-   2262019213D 1   1.00000     0.00000
 Structure written by MMmdl.
 57 61  0  0  0  0  0  0  0  0  1 V2000
  141.0506  143.6893  156.8039 O   0  0  0  0  0  0  0  0  0  0  0  0
  141.7287  142.5256  157.2342 C   0  0  0  0  0  0  0  0  0  0  0  0
  142.7296  141.9958  156.1901 C   0  0  0  0  0  0  0  0  0  0  0  0
  141.8669  141.6025  154.9724 C   0  0  0  0  0  0  0  0  0  0  0  0
  141.1332  142.6812  154.4292 O   0  0  0  0  0  0  0  0  0  0  0  0
  143.9596  142.8874  155.9010 C   0  0  0  0  0  0  0  0  0  0  0  0
  144.8740  141.6571  155.9569 C   0  0  0  0  0  0  0  0  0  0  0  0
  146.1858  141.7271  156.5324 N   0  0  0  0  0  0  0  0  0  0  0  0
  146.5133  142.1611  157.7974 C   0  0  0  0  0  0  0  0  0  0  0  0
  147.7897  142.1711  158.0698 N   0  0  0  0  0  0  0  0  0  0  0  0
  148.3923  141.7402  156.8935 C   0  0  0  0  0  0  0  0  0  0  0  0
  149.7420  141.5318  156.4884 C   0  0  0  0  0  0  0  0  0  0  0  0
  150.7979  141.7164  157.3227 N   0  0  0  0  0  0  0  0  0  0  0  0
  150.9950  140.7392  158.3934 C   0  0  0  0  0  0  0  0  0  0  0  0
  152.4019  140.8685  158.9989 C   0  0  0  0  0  0  0  0  0  0  0  0
  152.7196  142.3089  159.4582 C   0  0  2  0  0  0  0  0  0  0  0  0
  154.1052  142.3276  159.7538 O   0  0  0  0  0  0  0  0  0  0  0  0
  151.9613  142.7005  160.7506 C   0  0  0  0  0  0  0  0  0  0  0  0
  152.2140  144.1621  161.1621 C   0  0  0  0  0  0  0  0  0  0  0  0
  151.8913  145.1337  160.0174 C   0  0  0  0  0  0  0  0  0  0  0  0
  152.6667  144.7709  158.7395 C   0  0  0  0  0  0  0  0  0  0  0  0
  152.4377  143.3073  158.3019 C   0  0  2  0  0  0  0  0  0  0  0  0
  151.0230  143.1065  157.7146 C   0  0  0  0  0  0  0  0  0  0  0  0
  149.9522  141.1287  155.2062 N   0  0  0  0  0  0  0  0  0  0  0  0
  148.9203  140.9323  154.3805 C   0  0  0  0  0  0  0  0  0  0  0  0
  147.6169  141.0739  154.6261 N   0  0  0  0  0  0  0  0  0  0  0  0
  147.3968  141.4816  155.9087 C   0  0  0  0  0  0  0  0  0  0  0  0
  143.7362  140.9327  156.6853 C   0  0  0  0  0  0  0  0  0  0  0  0
  141.0887  144.3329  157.4950 H   0  0  0  0  0  0  0  0  0  0  0  0
  142.2359  142.7644  158.1696 H   0  0  0  0  0  0  0  0  0  0  0  0
  140.9766  141.7715  157.4687 H   0  0  0  0  0  0  0  0  0  0  0  0
  142.4897  141.1940  154.1758 H   0  0  0  0  0  0  0  0  0  0  0  0
  141.1535  140.8226  155.2405 H   0  0  0  0  0  0  0  0  0  0  0  0
  140.2676  142.3744  154.2058 H   0  0  0  0  0  0  0  0  0  0  0  0
  143.9443  143.3864  154.9316 H   0  0  0  0  0  0  0  0  0  0  0  0
  144.1756  143.6016  156.6965 H   0  0  0  0  0  0  0  0  0  0  0  0
  145.0140  141.2400  154.9590 H   0  0  0  0  0  0  0  0  0  0  0  0
  145.7722  142.4677  158.5211 H   0  0  0  0  0  0  0  0  0  0  0  0
  150.2357  140.8835  159.1626 H   0  0  0  0  0  0  0  0  0  0  0  0
  150.8664  139.7284  158.0038 H   0  0  0  0  0  0  0  0  0  0  0  0
  152.5151  140.1689  159.8279 H   0  0  0  0  0  0  0  0  0  0  0  0
  153.1250  140.5602  158.2419 H   0  0  0  0  0  0  0  0  0  0  0  0
  154.3576  141.4713  160.0634 H   0  0  0  0  0  0  0  0  0  0  0  0
  150.8890  142.5634  160.6101 H   0  0  0  0  0  0  0  0  0  0  0  0
  152.2419  142.0359  161.5688 H   0  0  0  0  0  0  0  0  0  0  0  0
  151.6118  144.4085  162.0370 H   0  0  0  0  0  0  0  0  0  0  0  0
  153.2545  144.2870  161.4643 H   0  0  0  0  0  0  0  0  0  0  0  0
  150.8193  145.1252  159.8198 H   0  0  0  0  0  0  0  0  0  0  0  0
  152.1355  146.1526  160.3188 H   0  0  0  0  0  0  0  0  0  0  0  0
  152.3914  145.4507  157.9323 H   0  0  0  0  0  0  0  0  0  0  0  0
  153.7312  144.9322  158.9147 H   0  0  0  0  0  0  0  0  0  0  0  0
  153.1390  143.0958  157.4926 H   0  0  0  0  0  0  0  0  0  0  0  0
  150.8897  143.7815  156.8702 H   0  0  0  0  0  0  0  0  0  0  0  0
  150.2606  143.3786  158.4449 H   0  0  0  0  0  0  0  0  0  0  0  0
  149.1757  140.6129  153.3809 H   0  0  0  0  0  0  0  0  0  0  0  0
  143.8762  140.9330  157.7671 H   0  0  0  0  0  0  0  0  0  0  0  0
  143.5483  139.9212  156.3237 H   0  0  0  0  0  0  0  0  0  0  0  0
  1  2  1  0  0  0  0
  1 29  1  0  0  0  0
  2  3  1  0  0  0  0
  2 30  1  0  0  0  0
  2 31  1  0  0  0  0
  3 28  1  0  0  0  0
  3  4  1  0  0  0  0
  3  6  1  0  0  0  0
  4  5  1  0  0  0  0
  4 32  1  0  0  0  0
  4 33  1  0  0  0  0
  5 34  1  0  0  0  0
  6  7  1  0  0  0  0
  6 35  1  0  0  0  0
  6 36  1  0  0  0  0
  7  8  1  0  0  0  0
  7 28  1  0  0  0  0
  7 37  1  0  0  0  0
  8 27  1  0  0  0  0
  8  9  1  0  0  0  0
  9 10  2  0  0  0  0
  9 38  1  0  0  0  0
 10 11  1  0  0  0  0
 11 27  2  0  0  0  0
 11 12  1  0  0  0  0
 12 13  1  0  0  0  0
 12 24  2  0  0  0  0
 13 23  1  0  0  0  0
 13 14  1  0  0  0  0
 14 15  1  0  0  0  0
 14 39  1  0  0  0  0
 14 40  1  0  0  0  0
 15 16  1  0  0  0  0
 15 41  1  0  0  0  0
 15 42  1  0  0  0  0
 16 22  1  0  0  0  0
 16 17  1  0  0  0  0
 16 18  1  0  0  0  0
 17 43  1  0  0  0  0
 18 19  1  0  0  0  0
 18 44  1  0  0  0  0
 18 45  1  0  0  0  0
 19 20  1  0  0  0  0
 19 46  1  0  0  0  0
 19 47  1  0  0  0  0
 20 21  1  0  0  0  0
 20 48  1  0  0  0  0
 20 49  1  0  0  0  0
 21 22  1  0  0  0  0
 21 50  1  0  0  0  0
 21 51  1  0  0  0  0
 22 23  1  0  0  0  0
 22 52  1  0  0  0  0
 23 53  1  0  0  0  0
 23 54  1  0  0  0  0
 24 25  1  0  0  0  0
 25 26  2  0  0  0  0
 25 55  1  0  0  0  0
 26 27  1  0  0  0  0
 28 56  1  0  0  0  0
 28 57  1  0  0  0  0
M  END
> <s_m_source_file>
AV-unprocessed.smi

> <i_m_source_file_index>
176

> <i_lp_mmshare_version>
43012

> <i_f3d_flags>
0

> <s_epik_input>
W09IXVtDSDJdQzEoW0NIMl1bT0hdKVtDSDJdW0NIXShbQ0gyXTEpbihbY0hdbjIpYyhjMjMpbltjSF1uYzNOKFtDSDJdW0NIMl00KVtDSDJdW0NAQEhdKFtDQF00NVtPSF0pW0NIMl1bQ0gyXVtDSDJdW0NIMl01

> <s_epik_cmdline>
J2VwaWtfcHl0aG9uJywgJy1waCcsICc3LjAnLCAnLXRuJywgJzgnLCAnLW1hJywgJzIwMCcsICctbWV0YWxfYmluZGluZycsICctaW1hZScsICc8aW5maWxlLm1hZT4nLCAnLW9tYWUnLCAnPG91dGZpbGUubWFlPic=

> <r_lp_tautomer_probability>
1

> <r_epik_Ionization_Penalty>
0.00642876

> <r_epik_Ionization_Penalty_Charging>
0

> <r_epik_Ionization_Penalty_Neutral>
0.00642876

> <r_epik_State_Penalty>
0.00467813

> <r_epik_Charging_Adjusted_Penalty>
0.00467813

> <i_epik_Tot_Q>
0

> <i_epik_Tot_abs_Q>
0

> <r_epik_Metal_State_Penalty>
-0

> <b_epik_Metal_Only>
0

> <s_lp_Force_Field>
OPLS_2005

> <r_lp_Energy>
56.0126

> <b_lp_Chiralities_Consistent>
1

> <s_lp_Variant>
AV-unprocessed.smi:176-3

> <Gold.Version>
5.8.1

> <Gold.Id.Protein>
6NUR|6NUR_protein|mol2

> <Gold.PLP.Fitness>
43.0588

> <Gold.PLP.PLP>
-40.0021

> <Gold.PLP.part.hbond>
-1.5409

> <Gold.PLP.part.metal>
0.0000

> <Gold.PLP.part.buried>
-3.7468

> <Gold.PLP.part.nonpolar>
-34.8831

> <Gold.PLP.part.repulsive>
0.4032

> <Gold.PLP.ligand.clash>
0.0000

> <Gold.PLP.ligand.torsion>
0.4079

> <Gold.PLP.Chemscore.Hbond>
0.0390

> <Gold.PLP.Chemscore.CHOScore>
1.0000

> <Gold.PLP.Chemscore.Metal>
0.0000

> <Gold.Chemscore.Hbonds>
donor molecule, donor type, donor heavy atom, donor atom, acceptor molecule, acceptor atom, score
      P1  H  7989  7998       L1    24  0.04
      L1  C    25    55       P1  7957  1.00

> <Gold.PLP.Chemscore.Internal.Correction>
0.7555

> <Gold.Rescore>
     Score         DG    S(hbond)    S(metal)    S(lipo)     H(rot)  DE(clash)    DE(int)     intcor
      7.88      -8.28       0.00        0.00     105.13       3.71       0.02       0.39       ----

> <Gold.Chemscore.Fitness>
7.8754

> <Gold.Chemscore.DG>
-8.2807

> <Gold.Chemscore.ZeroCoef>
-5.4800

> <Gold.Chemscore.Hbond>
0.0000

> <Gold.Chemscore.Metal>
0.0000

> <Gold.Chemscore.Lipo>
105.1341

> <Gold.Chemscore.Internal_Hbond>
0.0000

> <Gold.Chemscore.DEClash>
0.0167

> <Gold.Chemscore.DEInternal>
0.3887

> <Gold.Chemscore.Rot>
3.7109

> <Gold.Chemscore.Internal.Correction>
   9.000000E+99

> <Gold.Chemscore.Hbonds>
donor molecule, donor type, donor heavy atom, donor atom, acceptor molecule, acceptor atom, score
      P1  H  7989  7998       L1    24  0.01

> <Gold.Chemscore.Hbond.Weighted>
-0.0001

> <Gold.Chemscore.Metal.Weighted>
-0.0000

> <Gold.Chemscore.Lipo.Weighted>
-12.3007

> <Gold.Chemscore.Internal_Hbond.Weighted>
0.0000

> <Gold.Chemscore.DEClash.Weighted>
0.0167

> <Gold.Chemscore.DEInternal.Weighted>
0.3887

> <Gold.Chemscore.Rot.Weighted>
9.5000

> <Gold.Chemscore.Internal.Correction.Weighted>
   9.000000E+99

> <Gold.Protein.RotatedTorsions>
[ 6907 6896 6895 6894 ] final  -26.91 input  -60.11 | X-H torsion
[ 7974 7965 7964 7962 ] final -110.47 input  175.53 | X-H torsion
[ 8008 7997 7996 7995 ] final  174.54 input   59.86 | X-H torsion
[ 10167 10162 10161 10158 ] final  170.77 input  -65.29 | X-H torsion
[ 10718 10713 10712 10709 ] final -133.36 input   66.30 | X-H torsion
[ 10763 10752 10751 10750 ] final  -46.14 input  -60.55 | X-H torsion
[ 11005 11000 10999 10996 ] final  -53.20 input  -57.11 | X-H torsion

> <Gold.Protein.ActiveResidues>
 VAL166  LYS551  ARG553  GLY616  TRP617  ASP618  TYR619  PRO620  LYS621  CYS622 
 ASP623  PHE694  ASN695  SER759  ASP760  ASP761  ALA762  ILE779  LEU786  VAL792 
 PHE793  MET794  SER795  GLU796  ALA797  LYS798  CYS799  TRP800  GLU811  SER814 

> <Gold.Protein.RotatedAtoms>
  151.1542  135.0242  159.8681 H   0  0  0  0  0  0  0  0  0  0  0  0  # atno 6907 bound_to 6896
  152.5452  134.1353  159.8466 H   0  0  0  0  0  0  0  0  0  0  0  0  # atno 6908 bound_to 6896
  151.1441  133.4905  159.2629 H   0  0  0  0  0  0  0  0  0  0  0  0  # atno 6909 bound_to 6896
  145.1678  140.8911  143.3553 H   0  0  0  0  0  0  0  0  0  0  0  0  # atno 7974 bound_to 7965
  156.0964  140.1432  156.9526 H   0  0  0  0  0  0  0  0  0  0  0  0  # atno 8008 bound_to 7997
  154.4674  140.0921  156.7102 H   0  0  0  0  0  0  0  0  0  0  0  0  # atno 8009 bound_to 7997
  155.4834  140.3445  155.4345 H   0  0  0  0  0  0  0  0  0  0  0  0  # atno 8010 bound_to 7997
  139.5027  144.3560  151.9874 H   0  0  0  0  0  0  0  0  0  0  0  0  # atno 10167 bound_to 10162
  156.2441  130.7114  151.0987 H   0  0  0  0  0  0  0  0  0  0  0  0  # atno 10718 bound_to 10713
  154.0401  135.6645  153.4789 H   0  0  0  0  0  0  0  0  0  0  0  0  # atno 10763 bound_to 10752
  153.0505  135.5087  154.7850 H   0  0  0  0  0  0  0  0  0  0  0  0  # atno 10764 bound_to 10752
  154.6824  135.3047  154.9561 H   0  0  0  0  0  0  0  0  0  0  0  0  # atno 10765 bound_to 10752
  141.0964  133.6624  156.4137 H   0  0  0  0  0  0  0  0  0  0  0  0  # atno 11005 bound_to 11000
  145.0264  139.3379  143.6046 LP  0  0  0  0  0  0  0  0  0  0  0  0  # atno 17320 bound_to 7965
  146.3473  139.9584  142.8720 LP  0  0  0  0  0  0  0  0  0  0  0  0  # atno 17321 bound_to 7965
  140.2997  144.3661  150.6064 LP  0  0  0  0  0  0  0  0  0  0  0  0  # atno 17342 bound_to 10162
  140.5883  143.2169  151.7300 LP  0  0  0  0  0  0  0  0  0  0  0  0  # atno 17343 bound_to 10162
  157.7188  131.0694  150.6221 LP  0  0  0  0  0  0  0  0  0  0  0  0  # atno 17370 bound_to 10713
  156.6297  130.4428  149.5791 LP  0  0  0  0  0  0  0  0  0  0  0  0  # atno 17371 bound_to 10713
  140.5130  134.6377  157.5291 LP  0  0  0  0  0  0  0  0  0  0  0  0  # atno 17394 bound_to 11000
  139.9802  134.7150  155.9874 LP  0  0  0  0  0  0  0  0  0  0  0  0  # atno 17395 bound_to 11000

$$$$
