AV-unprocessed.smi:1497|AV-procd|sdf|6058|dock7
  -GOLD-   22720 6173D 1   1.00000     0.00000
 Structure written by MMmdl.
 33 34  0  0  0  0  0  0  0  0  1 V2000
  150.2619  136.0980  154.3166 N   0  0  0  0  0  0  0  0  0  0  0  0
  150.7809  137.2033  154.8588 C   0  0  0  0  0  0  0  0  0  0  0  0
  151.3046  137.2053  155.9705 O   0  0  0  0  0  0  0  0  0  0  0  0
  150.6934  138.4931  154.0399 C   0  0  0  0  0  0  0  0  0  0  0  0
  150.7772  139.6674  154.8902 N   0  0  0  0  0  0  0  0  0  0  0  0
  151.6965  139.9371  155.8853 C   0  0  0  0  0  0  0  0  0  0  0  0
  151.3527  141.1542  156.3911 C   0  0  0  0  0  0  0  0  0  0  0  0
  152.0391  141.8141  157.4410 N   0  0  0  0  0  0  0  0  0  0  0  0
  151.6594  142.9217  158.1060 C   0  0  0  0  0  0  0  0  0  0  0  0
  150.6294  143.5437  157.8436 O   0  0  0  0  0  0  0  0  0  0  0  0
  152.5239  143.3137  159.0776 N   0  0  0  0  0  0  0  0  0  0  0  0
  153.6340  142.5143  159.6241 C   0  0  0  0  0  0  0  0  0  0  0  0
  153.1677  141.8228  160.9160 C   0  0  0  0  0  0  0  0  0  0  0  0
  152.7275  143.0486  162.1878 S   0  0  0  0  0  0  0  0  0  0  0  0
  151.6289  144.1229  161.2116 C   0  0  0  0  0  0  0  0  0  0  0  0
  152.2859  144.5209  159.8788 C   0  0  0  0  0  0  0  0  0  0  0  0
  150.2089  141.5724  155.6539 C   0  0  0  0  0  0  0  0  0  0  0  0
  149.8704  140.6666  154.7486 N   0  0  0  0  0  0  0  0  0  0  0  0
  150.3034  135.2264  154.8249 H   0  0  0  0  0  0  0  0  0  0  0  0
  149.8342  136.1344  153.4029 H   0  0  0  0  0  0  0  0  0  0  0  0
  151.5029  138.5267  153.3093 H   0  0  0  0  0  0  0  0  0  0  0  0
  149.7568  138.5192  153.4803 H   0  0  0  0  0  0  0  0  0  0  0  0
  152.4936  139.2540  156.1397 H   0  0  0  0  0  0  0  0  0  0  0  0
  152.9107  141.3942  157.7291 H   0  0  0  0  0  0  0  0  0  0  0  0
  154.0173  141.7732  158.9224 H   0  0  0  0  0  0  0  0  0  0  0  0
  154.4864  143.1611  159.8370 H   0  0  0  0  0  0  0  0  0  0  0  0
  152.3041  141.1867  160.7182 H   0  0  0  0  0  0  0  0  0  0  0  0
  153.9555  141.1800  161.3088 H   0  0  0  0  0  0  0  0  0  0  0  0
  150.6883  143.6012  161.0314 H   0  0  0  0  0  0  0  0  0  0  0  0
  151.3942  145.0101  161.7999 H   0  0  0  0  0  0  0  0  0  0  0  0
  153.2259  145.0427  160.0631 H   0  0  0  0  0  0  0  0  0  0  0  0
  151.6565  145.2415  159.3545 H   0  0  0  0  0  0  0  0  0  0  0  0
  149.6216  142.4750  155.7332 H   0  0  0  0  0  0  0  0  0  0  0  0
  1  2  1  0  0  0  0
  1 19  1  0  0  0  0
  1 20  1  0  0  0  0
  2  3  2  0  0  0  0
  2  4  1  0  0  0  0
  4  5  1  0  0  0  0
  4 21  1  0  0  0  0
  4 22  1  0  0  0  0
  5 18  1  0  0  0  0
  5  6  1  0  0  0  0
  6  7  2  0  0  0  0
  6 23  1  0  0  0  0
  7  8  1  0  0  0  0
  7 17  1  0  0  0  0
  8  9  1  0  0  0  0
  8 24  1  0  0  0  0
  9 10  2  0  0  0  0
  9 11  1  0  0  0  0
 11 16  1  0  0  0  0
 11 12  1  0  0  0  0
 12 13  1  0  0  0  0
 12 25  1  0  0  0  0
 12 26  1  0  0  0  0
 13 14  1  0  0  0  0
 13 27  1  0  0  0  0
 13 28  1  0  0  0  0
 14 15  1  0  0  0  0
 15 16  1  0  0  0  0
 15 29  1  0  0  0  0
 15 30  1  0  0  0  0
 16 31  1  0  0  0  0
 16 32  1  0  0  0  0
 17 18  2  0  0  0  0
 17 33  1  0  0  0  0
M  END
> <s_m_source_file>
AV-unprocessed.smi

> <i_m_source_file_index>
1497

> <i_lp_mmshare_version>
43012

> <i_f3d_flags>
0

> <s_epik_input>
W05IMl1DKD1PKVtDSDJdbjFbY0hdYyhbY0hdbjEpW05IXUMoPU8pTjJbQ0gyXVtDSDJdU1tDSDJdW0NIMl0y

> <s_epik_cmdline>
J2VwaWtfcHl0aG9uJywgJy1waCcsICc3LjAnLCAnLXRuJywgJzgnLCAnLW1hJywgJzIwMCcsICctbWV0YWxfYmluZGluZycsICctaW1hZScsICc8aW5maWxlLm1hZT4nLCAnLW9tYWUnLCAnPG91dGZpbGUubWFlPic=

> <r_lp_tautomer_probability>
1

> <r_epik_Ionization_Penalty>
3.75542e-05

> <r_epik_Ionization_Penalty_Charging>
0

> <r_epik_Ionization_Penalty_Neutral>
3.75542e-05

> <r_epik_State_Penalty>
-0

> <r_epik_Charging_Adjusted_Penalty>
0

> <i_epik_Tot_Q>
0

> <i_epik_Tot_abs_Q>
0

> <r_epik_Metal_State_Penalty>
-0

> <b_epik_Metal_Only>
0

> <s_lp_Force_Field>
OPLS_2005

> <r_lp_Energy>
28.4964

> <b_lp_Chiralities_Consistent>
1

> <s_lp_Variant>
AV-unprocessed.smi:1497-1

> <Gold.Version>
5.8.1

> <Gold.Id.Protein>
6NUR|6NUR_protein|mol2

> <Gold.PLP.Fitness>
46.3543

> <Gold.PLP.PLP>
-41.3156

> <Gold.PLP.part.hbond>
-2.3361

> <Gold.PLP.part.metal>
0.0000

> <Gold.PLP.part.buried>
-1.9994

> <Gold.PLP.part.nonpolar>
-37.7498

> <Gold.PLP.part.repulsive>
0.9825

> <Gold.PLP.ligand.clash>
0.0000

> <Gold.PLP.ligand.torsion>
0.4976

> <Gold.PLP.Chemscore.Hbond>
1.0000

> <Gold.PLP.Chemscore.CHOScore>
1.0000

> <Gold.PLP.Chemscore.Metal>
0.0000

> <Gold.Chemscore.Hbonds>
donor molecule, donor type, donor heavy atom, donor atom, acceptor molecule, acceptor atom, score
      L1  H     1    20       P1  7948  0.75
      L1  C    17    33       P1  8028  1.00

> <Gold.PLP.Chemscore.Internal.Correction>
0.0339

> <Gold.Rescore>
     Score         DG    S(hbond)    S(metal)    S(lipo)     H(rot)  DE(clash)    DE(int)     intcor
     10.59     -15.31       0.99        0.00      89.44       1.54       1.91       2.81       ----

> <Gold.Chemscore.Fitness>
10.5946

> <Gold.Chemscore.DG>
-15.3132

> <Gold.Chemscore.ZeroCoef>
-5.4800

> <Gold.Chemscore.Hbond>
0.9905

> <Gold.Chemscore.Metal>
0.0000

> <Gold.Chemscore.Lipo>
89.4377

> <Gold.Chemscore.Internal_Hbond>
0.0000

> <Gold.Chemscore.DEClash>
1.9102

> <Gold.Chemscore.DEInternal>
2.8085

> <Gold.Chemscore.Rot>
1.5388

> <Gold.Chemscore.Internal.Correction>
   9.000000E+99

> <Gold.Chemscore.Hbonds>
donor molecule, donor type, donor heavy atom, donor atom, acceptor molecule, acceptor atom, score
      L1  H     1    20       P1  7948  0.09

> <Gold.Chemscore.Hbond.Weighted>
-3.3082

> <Gold.Chemscore.Metal.Weighted>
-0.0000

> <Gold.Chemscore.Lipo.Weighted>
-10.4642

> <Gold.Chemscore.Internal_Hbond.Weighted>
0.0000

> <Gold.Chemscore.DEClash.Weighted>
1.9102

> <Gold.Chemscore.DEInternal.Weighted>
2.8085

> <Gold.Chemscore.Rot.Weighted>
3.9392

> <Gold.Chemscore.Internal.Correction.Weighted>
   9.000000E+99

> <Gold.Protein.RotatedTorsions>
[ 6907 6896 6895 6894 ] final  -73.83 input  -60.11 | X-H torsion
[ 7974 7965 7964 7962 ] final   27.19 input  175.53 | X-H torsion
[ 8008 7997 7996 7995 ] final  -78.30 input   59.86 | X-H torsion
[ 10167 10162 10161 10158 ] final   47.18 input  -65.29 | X-H torsion
[ 10718 10713 10712 10709 ] final -177.51 input   66.30 | X-H torsion
[ 10763 10752 10751 10750 ] final  -27.29 input  -60.55 | X-H torsion
[ 11005 11000 10999 10996 ] final  157.67 input  -57.11 | X-H torsion

> <Gold.Protein.ActiveResidues>
 VAL166  LYS551  ARG553  GLY616  TRP617  ASP618  TYR619  PRO620  LYS621  CYS622 
 ASP623  PHE694  ASN695  SER759  ASP760  ASP761  ALA762  ILE779  LEU786  VAL792 
 PHE793  MET794  SER795  GLU796  ALA797  LYS798  CYS799  TRP800  GLU811  SER814 

> <Gold.Protein.RotatedAtoms>
  150.7115  134.4959  159.5537 H   0  0  0  0  0  0  0  0  0  0  0  0  # atno 6907 bound_to 6896
  152.2566  134.8074  160.0446 H   0  0  0  0  0  0  0  0  0  0  0  0  # atno 6908 bound_to 6896
  151.8803  133.3458  159.3801 H   0  0  0  0  0  0  0  0  0  0  0  0  # atno 6909 bound_to 6896
  146.1797  139.7225  142.8909 H   0  0  0  0  0  0  0  0  0  0  0  0  # atno 7974 bound_to 7965
  154.5676  140.0696  156.8916 H   0  0  0  0  0  0  0  0  0  0  0  0  # atno 8008 bound_to 7997
  155.2693  140.3364  155.4248 H   0  0  0  0  0  0  0  0  0  0  0  0  # atno 8009 bound_to 7997
  156.2093  140.1752  156.7716 H   0  0  0  0  0  0  0  0  0  0  0  0  # atno 8010 bound_to 7997
  140.3063  144.2874  150.6208 H   0  0  0  0  0  0  0  0  0  0  0  0  # atno 10167 bound_to 10162
  156.8305  130.9651  151.3106 H   0  0  0  0  0  0  0  0  0  0  0  0  # atno 10718 bound_to 10713
  153.7298  135.6939  153.4992 H   0  0  0  0  0  0  0  0  0  0  0  0  # atno 10763 bound_to 10752
  153.2144  135.4391  155.0416 H   0  0  0  0  0  0  0  0  0  0  0  0  # atno 10764 bound_to 10752
  154.8257  135.3445  154.6828 H   0  0  0  0  0  0  0  0  0  0  0  0  # atno 10765 bound_to 10752
  140.1791  134.8488  157.2782 H   0  0  0  0  0  0  0  0  0  0  0  0  # atno 11005 bound_to 11000
  145.4111  141.0396  143.3017 LP  0  0  0  0  0  0  0  0  0  0  0  0  # atno 17320 bound_to 7965
  144.8295  139.5653  143.6950 LP  0  0  0  0  0  0  0  0  0  0  0  0  # atno 17321 bound_to 7965
  140.5607  143.2192  151.7770 LP  0  0  0  0  0  0  0  0  0  0  0  0  # atno 17342 bound_to 10162
  139.4903  144.4352  151.9827 LP  0  0  0  0  0  0  0  0  0  0  0  0  # atno 17343 bound_to 10162
  157.6409  130.8805  149.9446 LP  0  0  0  0  0  0  0  0  0  0  0  0  # atno 17370 bound_to 10713
  156.0936  130.3661  150.0347 LP  0  0  0  0  0  0  0  0  0  0  0  0  # atno 17371 bound_to 10713
  140.2288  134.3934  155.7531 LP  0  0  0  0  0  0  0  0  0  0  0  0  # atno 17394 bound_to 11000
  141.2222  133.7204  156.8607 LP  0  0  0  0  0  0  0  0  0  0  0  0  # atno 17395 bound_to 11000

$$$$
